=
 OpenBabel11042418203D

 35 42  0  0  1  0  0  0  0  0999 V2000
  191.1080  175.3090  142.8240 O   0  0  0  0  0  0  0  0  0  0  0  0
  186.4960  177.2450  146.9080 C   0  0  0  0  0  2  0  0  0  0  0  0
  190.6630  176.1030  146.8740 C   0  0  0  0  0  0  0  0  0  0  0  0
  189.1290  176.3430  145.4220 C   0  0  0  0  0  0  0  0  0  0  0  0
  185.9130  177.4210  142.3500 C   0  0  0  0  0  2  0  0  0  0  0  0
  186.3060  178.5790  143.2730 C   0  0  0  0  0  2  0  0  0  0  0  0
  184.6260  178.8510  146.7030 C   0  0  0  0  0  2  0  0  0  0  0  0
  187.8000  176.5860  144.7870 C   0  0  0  0  0  0  0  0  0  0  0  0
  190.0350  174.7900  143.5430 C   0  0  2  0  0  0  0  0  0  0  0  0
  189.8810  175.2930  142.2160 C   0  0  1  0  0  0  0  0  0  0  0  0
  190.1430  175.5570  144.8620 C   0  0  0  0  0  0  0  0  0  0  0  0
  185.0140  179.0650  145.3470 O   0  0  0  0  0  0  0  0  0  0  0  0
  186.7660  177.4360  145.4370 C   0  0  0  0  0  0  0  0  0  0  0  0
  189.4610  176.6880  146.6800 N   0  0  0  0  0  0  0  0  0  0  0  0
  185.8470  178.4770  147.5320 C   0  0  0  0  0  2  0  0  0  0  0  0
  186.2700  176.0280  142.8830 C   0  0  0  0  0  2  0  0  0  0  0  0
  188.6830  175.2580  143.0850 N   0  0  0  0  0  0  0  0  0  0  0  0
  187.5840  175.9880  143.6010 C   0  0  0  0  0  0  0  0  0  0  0  0
  191.1120  175.4140  145.7940 N   0  0  0  0  0  0  0  0  0  0  0  0
  186.0220  178.3150  144.7240 C   0  0  0  0  0  0  0  0  0  0  0  0
  189.8010  174.1970  141.1840 C   0  0  0  0  0  0  0  0  0  0  0  0
  188.5420  173.8750  140.6650 C   0  0  0  0  0  3  0  0  0  0  0  0
  188.4080  172.8690  139.7030 C   0  0  0  0  0  3  0  0  0  0  0  0
  189.5330  172.1780  139.2500 C   0  0  0  0  0  0  0  0  0  0  0  0
  190.7970  172.4980  139.7530 C   0  0  0  0  0  3  0  0  0  0  0  0
  190.9330  173.5020  140.7160 C   0  0  0  0  0  3  0  0  0  0  0  0
  189.3980  171.1800  138.2950 O   0  0  0  0  0  1  0  0  0  0  0  0
  192.2080  174.4350  145.8030 C   0  0  2  0  0  3  0  0  0  0  0  0
  193.5140  176.4740  145.4610 O   0  0  0  0  0  1  0  0  0  0  0  0
  193.5900  175.0950  145.6660 C   0  0  2  0  0  3  0  0  0  0  0  0
  192.9610  174.4000  144.4850 C   0  0  0  0  0  2  0  0  0  0  0  0
  191.3340  176.0960  148.2080 C   0  0  0  0  0  2  0  0  0  0  0  0
  191.9960  177.4390  148.4720 C   0  0  0  0  0  2  0  0  0  0  0  0
  191.2930  178.1560  149.5760 C   0  0  0  0  0  3  0  0  0  0  0  0
  191.6060  177.9360  150.7990 N   0  0  0  0  0  2  0  0  0  0  0  0
  2 15  1  0  0  0  0
  3 32  1  0  0  0  0
  4 14  1  0  0  0  0
  5 16  1  0  0  0  0
  5  6  1  0  0  0  0
  6 20  1  0  0  0  0
  7 15  1  0  0  0  0
  8  4  1  0  0  0  0
  8 13  1  0  0  0  0
  9  1  1  1  0  0  0
  9 11  1  0  0  0  0
 10 21  1  6  0  0  0
 10  1  1  0  0  0  0
 10 17  1  0  0  0  0
 10  9  1  0  0  0  0
 11  4  2  0  0  0  0
 11 19  1  0  0  0  0
 12  7  1  0  0  0  0
 13  2  1  0  0  0  0
 14  3  2  0  0  0  0
 16 18  1  0  0  0  0
 17  9  1  0  0  0  0
 17 18  1  0  0  0  0
 18  8  2  0  0  0  0
 19 28  1  0  0  0  0
 19  3  1  0  0  0  0
 20 12  1  0  0  0  0
 20 13  2  0  0  0  0
 22 21  2  0  0  0  0
 23 22  1  0  0  0  0
 24 23  2  0  0  0  0
 24 25  1  0  0  0  0
 25 26  2  0  0  0  0
 26 21  1  0  0  0  0
 27 24  1  0  0  0  0
 28 31  1  6  0  0  0
 30 29  1  6  0  0  0
 30 28  1  0  0  0  0
 31 30  1  0  0  0  0
 32 33  1  0  0  0  0
 33 34  1  0  0  0  0
 34 35  2  0  0  0  0
M  END
>  <MODEL>
1

>  <REMARK>
 VINA RESULT:      -8.1      0.000      0.000
  Name = 
  5 active torsions:
  status: ('A' for Active; 'I' for Inactive)
    1  A    between atoms: C_3  and  C_16
    2  A    between atoms: C_4  and  C_32
    3  A    between atoms: C_5  and  N_29
    4  A    between atoms: C_23  and  C_34
    5  A    between atoms: C_32  and  C_34
                            x       y       z     vdW  Elec       q    Type
                         _______ _______ _______ _____ _____    ______ ____

>  <TORSDO>
F 5

$$$$
=
 OpenBabel11042418203D

 35 42  0  0  1  0  0  0  0  0999 V2000
  189.2500  175.4920  143.2010 O   0  0  0  0  0  0  0  0  0  0  0  0
  194.4900  172.3510  145.2930 C   0  0  0  0  0  2  0  0  0  0  0  0
  191.3930  172.0530  142.2950 C   0  0  0  0  0  0  0  0  0  0  0  0
  191.9280  173.4430  143.8130 C   0  0  0  0  0  0  0  0  0  0  0  0
  193.4910  176.6040  146.7290 C   0  0  0  0  0  2  0  0  0  0  0  0
  194.4940  176.2120  145.6380 C   0  0  0  0  0  2  0  0  0  0  0  0
  196.6750  173.1110  146.1690 C   0  0  0  0  0  2  0  0  0  0  0  0
  192.6150  174.0860  144.9710 C   0  0  0  0  0  0  0  0  0  0  0  0
  189.6290  174.5980  144.1990 C   0  0  2  0  0  0  0  0  0  0  0  0
  189.6880  176.0120  144.3900 C   0  0  1  0  0  0  0  0  0  0  0  0
  190.5970  173.6820  143.4480 C   0  0  0  0  0  0  0  0  0  0  0  0
  196.2110  174.4540  146.0420 O   0  0  0  0  0  0  0  0  0  0  0  0
  194.0340  173.7880  145.3030 C   0  0  0  0  0  0  0  0  0  0  0  0
  192.4240  172.4270  143.0840 N   0  0  0  0  0  0  0  0  0  0  0  0
  196.0030  172.2350  145.1220 C   0  0  0  0  0  2  0  0  0  0  0  0
  192.3720  175.5840  146.9660 C   0  0  0  0  0  2  0  0  0  0  0  0
  190.5630  175.1650  145.2320 N   0  0  0  0  0  0  0  0  0  0  0  0
  191.8800  174.9420  145.7050 C   0  0  0  0  0  0  0  0  0  0  0  0
  190.2710  172.7950  142.4820 N   0  0  0  0  0  0  0  0  0  0  0  0
  194.8930  174.7650  145.6790 C   0  0  0  0  0  0  0  0  0  0  0  0
  188.5360  176.5360  145.2090 C   0  0  0  0  0  0  0  0  0  0  0  0
  187.7190  177.5190  144.6380 C   0  0  0  0  0  3  0  0  0  0  0  0
  186.6340  178.0410  145.3490 C   0  0  0  0  0  3  0  0  0  0  0  0
  186.3550  177.5820  146.6370 C   0  0  0  0  0  0  0  0  0  0  0  0
  187.1570  176.5930  147.2140 C   0  0  0  0  0  3  0  0  0  0  0  0
  188.2430  176.0720  146.5060 C   0  0  0  0  0  3  0  0  0  0  0  0
  185.2770  178.1000  147.3410 O   0  0  0  0  0  1  0  0  0  0  0  0
  188.9260  172.4370  142.0110 C   0  0  2  0  0  3  0  0  0  0  0  0
  189.7000  173.6860  140.0560 O   0  0  0  0  0  1  0  0  0  0  0  0
  188.6540  172.9210  140.5770 C   0  0  2  0  0  3  0  0  0  0  0  0
  188.0620  173.6590  141.7520 C   0  0  0  0  0  2  0  0  0  0  0  0
  191.4590  170.8410  141.4280 C   0  0  0  0  0  2  0  0  0  0  0  0
  192.2030  171.1520  140.1400 C   0  0  0  0  0  2  0  0  0  0  0  0
  191.3990  170.7230  138.9580 C   0  0  0  0  0  3  0  0  0  0  0  0
  190.3330  170.0290  139.1120 N   0  0  0  0  0  2  0  0  0  0  0  0
  1 10  1  0  0  0  0
  2 13  1  0  0  0  0
  3 19  1  0  0  0  0
  3 14  2  0  0  0  0
  4  8  1  0  0  0  0
  5 16  1  0  0  0  0
  6 20  1  0  0  0  0
  6  5  1  0  0  0  0
  8 13  1  0  0  0  0
  8 18  2  0  0  0  0
  9  1  1  1  0  0  0
  9 10  1  0  0  0  0
  9 17  1  0  0  0  0
 10 21  1  1  0  0  0
 10 17  1  0  0  0  0
 11  4  2  0  0  0  0
 11  9  1  0  0  0  0
 12  7  1  0  0  0  0
 13 20  2  0  0  0  0
 14  4  1  0  0  0  0
 15  2  1  0  0  0  0
 15  7  1  0  0  0  0
 17 18  1  0  0  0  0
 18 16  1  0  0  0  0
 19 11  1  0  0  0  0
 20 12  1  0  0  0  0
 21 26  1  0  0  0  0
 22 21  2  0  0  0  0
 22 23  1  0  0  0  0
 23 24  2  0  0  0  0
 24 25  1  0  0  0  0
 24 27  1  0  0  0  0
 26 25  2  0  0  0  0
 28 31  1  1  0  0  0
 28 19  1  0  0  0  0
 30 29  1  1  0  0  0
 30 31  1  0  0  0  0
 30 28  1  0  0  0  0
 32  3  1  0  0  0  0
 33 32  1  0  0  0  0
 34 35  2  0  0  0  0
 34 33  1  0  0  0  0
M  END
>  <MODEL>
2

>  <REMARK>
 VINA RESULT:      -7.7      2.309      8.161
  Name = 
  5 active torsions:
  status: ('A' for Active; 'I' for Inactive)
    1  A    between atoms: C_3  and  C_16
    2  A    between atoms: C_4  and  C_32
    3  A    between atoms: C_5  and  N_29
    4  A    between atoms: C_23  and  C_34
    5  A    between atoms: C_32  and  C_34
                            x       y       z     vdW  Elec       q    Type
                         _______ _______ _______ _____ _____    ______ ____

>  <TORSDO>
F 5

$$$$
=
 OpenBabel11042418203D

 35 42  0  0  1  0  0  0  0  0999 V2000
  188.9430  176.8490  143.0430 O   0  0  0  0  0  0  0  0  0  0  0  0
  193.8260  172.8810  144.4960 C   0  0  0  0  0  2  0  0  0  0  0  0
  191.0300  173.7090  141.3070 C   0  0  0  0  0  0  0  0  0  0  0  0
  191.4660  174.5370  143.2160 C   0  0  0  0  0  0  0  0  0  0  0  0
  192.8560  176.5600  147.0790 C   0  0  0  0  0  2  0  0  0  0  0  0
  193.9450  176.4490  146.0070 C   0  0  0  0  0  2  0  0  0  0  0  0
  195.9410  173.1930  145.7390 C   0  0  0  0  0  2  0  0  0  0  0  0
  192.0600  174.7530  144.5680 C   0  0  0  0  0  0  0  0  0  0  0  0
  189.1870  175.6730  143.7480 C   0  0  2  0  0  0  0  0  0  0  0  0
  189.2810  176.9560  144.3670 C   0  0  1  0  0  0  0  0  0  0  0  0
  190.1880  174.9640  142.8340 C   0  0  0  0  0  0  0  0  0  0  0  0
  195.5450  174.5390  145.9920 O   0  0  0  0  0  0  0  0  0  0  0  0
  193.4270  174.2750  144.9080 C   0  0  0  0  0  0  0  0  0  0  0  0
  191.9920  173.7570  142.2540 N   0  0  0  0  0  0  0  0  0  0  0  0
  195.3420  172.7210  144.4220 C   0  0  0  0  0  2  0  0  0  0  0  0
  191.6790  175.5920  146.8990 C   0  0  0  0  0  2  0  0  0  0  0  0
  190.0360  175.8390  144.9770 N   0  0  0  0  0  0  0  0  0  0  0  0
  191.2890  175.3950  145.4660 C   0  0  0  0  0  0  0  0  0  0  0  0
  189.9250  174.4330  141.6190 N   0  0  0  0  0  0  0  0  0  0  0  0
  194.2810  175.0330  145.6350 C   0  0  0  0  0  0  0  0  0  0  0  0
  188.0760  177.2850  145.2090 C   0  0  0  0  0  0  0  0  0  0  0  0
  187.1260  178.1680  144.6800 C   0  0  0  0  0  3  0  0  0  0  0  0
  185.9860  178.5080  145.4140 C   0  0  0  0  0  3  0  0  0  0  0  0
  185.7840  177.9650  146.6850 C   0  0  0  0  0  0  0  0  0  0  0  0
  186.7190  177.0750  147.2200 C   0  0  0  0  0  3  0  0  0  0  0  0
  187.8600  176.7360  146.4880 C   0  0  0  0  0  3  0  0  0  0  0  0
  184.6510  178.3030  147.4120 O   0  0  0  0  0  1  0  0  0  0  0  0
  188.6200  174.3250  140.9520 C   0  0  2  0  0  3  0  0  0  0  0  0
  188.4040  172.4650  142.5240 O   0  0  0  0  0  1  0  0  0  0  0  0
  187.7440  173.2110  141.5450 C   0  0  2  0  0  3  0  0  0  0  0  0
  188.4490  173.0010  140.2280 C   0  0  0  0  0  2  0  0  0  0  0  0
  191.1340  172.8130  140.1180 C   0  0  0  0  0  2  0  0  0  0  0  0
  191.9190  171.5600  140.4690 C   0  0  0  0  0  2  0  0  0  0  0  0
  190.9940  170.4050  140.6660 C   0  0  0  0  0  3  0  0  0  0  0  0
  190.7060  169.9960  141.8460 N   0  0  0  0  0  2  0  0  0  0  0  0
  1  9  1  0  0  0  0
  1 10  1  0  0  0  0
  2 13  1  0  0  0  0
  3 19  1  0  0  0  0
  3 14  2  0  0  0  0
  4  8  1  0  0  0  0
  6  5  1  0  0  0  0
  7 12  1  0  0  0  0
  8 13  1  0  0  0  0
  8 18  2  0  0  0  0
  9 11  1  6  0  0  0
  9 10  1  0  0  0  0
  9 17  1  0  0  0  0
 10 17  1  0  0  0  0
 10 21  1  1  0  0  0
 11  4  2  0  0  0  0
 13 20  2  0  0  0  0
 14  4  1  0  0  0  0
 15  2  1  0  0  0  0
 15  7  1  0  0  0  0
 16  5  1  0  0  0  0
 17 18  1  0  0  0  0
 18 16  1  0  0  0  0
 19 11  1  0  0  0  0
 20 12  1  0  0  0  0
 20  6  1  0  0  0  0
 21 26  1  0  0  0  0
 22 21  2  0  0  0  0
 22 23  1  0  0  0  0
 23 24  2  0  0  0  0
 24 25  1  0  0  0  0
 24 27  1  0  0  0  0
 26 25  2  0  0  0  0
 28 31  1  6  0  0  0
 28 30  1  0  0  0  0
 28 19  1  0  0  0  0
 30 29  1  1  0  0  0
 31 30  1  0  0  0  0
 32 33  1  0  0  0  0
 32  3  1  0  0  0  0
 33 34  1  0  0  0  0
 34 35  2  0  0  0  0
M  END
>  <MODEL>
3

>  <REMARK>
 VINA RESULT:      -7.7      2.068      7.890
  Name = 
  5 active torsions:
  status: ('A' for Active; 'I' for Inactive)
    1  A    between atoms: C_3  and  C_16
    2  A    between atoms: C_4  and  C_32
    3  A    between atoms: C_5  and  N_29
    4  A    between atoms: C_23  and  C_34
    5  A    between atoms: C_32  and  C_34
                            x       y       z     vdW  Elec       q    Type
                         _______ _______ _______ _____ _____    ______ ____

>  <TORSDO>
F 5

$$$$
=
 OpenBabel11042418203D

 35 42  0  0  1  0  0  0  0  0999 V2000
  187.9800  174.0370  141.5930 O   0  0  0  0  0  0  0  0  0  0  0  0
  192.4270  176.6430  145.4820 C   0  0  0  0  0  2  0  0  0  0  0  0
  188.1660  176.7040  144.7690 C   0  0  0  0  0  0  0  0  0  0  0  0
  189.8410  175.6750  143.9580 C   0  0  0  0  0  0  0  0  0  0  0  0
  193.4280  173.1370  142.6810 C   0  0  0  0  0  2  0  0  0  0  0  0
  193.1100  173.0570  144.1770 C   0  0  0  0  0  2  0  0  0  0  0  0
  194.5010  175.7620  146.5020 C   0  0  0  0  0  2  0  0  0  0  0  0
  191.2410  175.2380  143.6800 C   0  0  0  0  0  0  0  0  0  0  0  0
  188.9080  175.0750  141.6050 C   0  0  2  0  0  0  0  0  0  0  0  0
  189.2440  173.7690  141.1370 C   0  0  1  0  0  0  0  0  0  0  0  0
  188.7860  175.5860  143.0420 C   0  0  0  0  0  0  0  0  0  0  0  0
  194.2660  174.5330  145.8180 O   0  0  0  0  0  0  0  0  0  0  0  0
  192.3150  175.3580  144.7020 C   0  0  0  0  0  0  0  0  0  0  0  0
  189.4460  176.3700  145.0410 N   0  0  0  0  0  0  0  0  0  0  0  0
  193.1750  176.4460  146.7990 C   0  0  0  0  0  2  0  0  0  0  0  0
  192.8470  174.3630  141.9670 C   0  0  0  0  0  2  0  0  0  0  0  0
  190.3460  174.6350  141.6120 N   0  0  0  0  0  0  0  0  0  0  0  0
  191.4810  174.7390  142.4540 C   0  0  0  0  0  0  0  0  0  0  0  0
  187.7280  176.2420  143.5700 N   0  0  0  0  0  0  0  0  0  0  0  0
  193.2270  174.3750  144.8890 C   0  0  0  0  0  0  0  0  0  0  0  0
  189.2700  173.6790  139.6330 C   0  0  0  0  0  0  0  0  0  0  0  0
  190.3760  173.0670  139.0310 C   0  0  0  0  0  3  0  0  0  0  0  0
  190.4540  172.9520  137.6400 C   0  0  0  0  0  3  0  0  0  0  0  0
  189.4230  173.4470  136.8380 C   0  0  0  0  0  0  0  0  0  0  0  0
  188.3090  174.0500  137.4270 C   0  0  0  0  0  3  0  0  0  0  0  0
  188.2310  174.1670  138.8180 C   0  0  0  0  0  3  0  0  0  0  0  0
  189.5010  173.3310  135.4570 O   0  0  0  0  0  1  0  0  0  0  0  0
  186.5170  176.6960  142.8730 C   0  0  2  0  0  3  0  0  0  0  0  0
  188.1170  178.2980  141.9500 O   0  0  0  0  0  1  0  0  0  0  0  0
  186.7950  177.8520  141.8980 C   0  0  2  0  0  3  0  0  0  0  0  0
  186.1460  178.1250  143.2320 C   0  0  0  0  0  2  0  0  0  0  0  0
  187.3850  177.6260  145.6450 C   0  0  0  0  0  2  0  0  0  0  0  0
  186.6600  176.8390  146.7250 C   0  0  0  0  0  2  0  0  0  0  0  0
  185.2060  176.7370  146.4060 C   0  0  0  0  0  3  0  0  0  0  0  0
  184.4560  177.7760  146.4420 N   0  0  0  0  0  2  0  0  0  0  0  0
  2 15  1  0  0  0  0
  3 14  2  0  0  0  0
  3 32  1  0  0  0  0
  4 14  1  0  0  0  0
  5  6  1  0  0  0  0
  6 20  1  0  0  0  0
  7 15  1  0  0  0  0
  8  4  1  0  0  0  0
  8 13  1  0  0  0  0
  9  1  1  6  0  0  0
  9 17  1  0  0  0  0
  9 11  1  0  0  0  0
 10 21  1  6  0  0  0
 10  1  1  0  0  0  0
 10  9  1  0  0  0  0
 10 17  1  0  0  0  0
 11 19  1  0  0  0  0
 11  4  2  0  0  0  0
 12  7  1  0  0  0  0
 13 20  2  0  0  0  0
 13  2  1  0  0  0  0
 16 18  1  0  0  0  0
 16  5  1  0  0  0  0
 17 18  1  0  0  0  0
 18  8  2  0  0  0  0
 19  3  1  0  0  0  0
 20 12  1  0  0  0  0
 22 21  1  0  0  0  0
 23 22  2  0  0  0  0
 24 25  2  0  0  0  0
 24 23  1  0  0  0  0
 25 26  1  0  0  0  0
 26 21  2  0  0  0  0
 27 24  1  0  0  0  0
 28 31  1  1  0  0  0
 28 19  1  0  0  0  0
 30 29  1  1  0  0  0
 30 28  1  0  0  0  0
 30 31  1  0  0  0  0
 32 33  1  0  0  0  0
 34 35  2  0  0  0  0
 34 33  1  0  0  0  0
M  END
>  <MODEL>
4

>  <REMARK>
 VINA RESULT:      -7.3      2.163      5.785
  Name = 
  5 active torsions:
  status: ('A' for Active; 'I' for Inactive)
    1  A    between atoms: C_3  and  C_16
    2  A    between atoms: C_4  and  C_32
    3  A    between atoms: C_5  and  N_29
    4  A    between atoms: C_23  and  C_34
    5  A    between atoms: C_32  and  C_34
                            x       y       z     vdW  Elec       q    Type
                         _______ _______ _______ _____ _____    ______ ____

>  <TORSDO>
F 5

$$$$
=
 OpenBabel11042418203D

 35 42  0  0  1  0  0  0  0  0999 V2000
  188.5230  175.8100  145.6610 O   0  0  0  0  0  0  0  0  0  0  0  0
  192.7280  174.1290  141.0580 C   0  0  0  0  0  2  0  0  0  0  0  0
  192.6330  175.5570  145.1350 C   0  0  0  0  0  0  0  0  0  0  0  0
  191.1930  175.0050  143.6710 C   0  0  0  0  0  0  0  0  0  0  0  0
  188.2280  173.2790  140.6430 C   0  0  0  0  0  2  0  0  0  0  0  0
  189.3140  172.2930  141.0840 C   0  0  0  0  0  2  0  0  0  0  0  0
  192.7070  172.3770  139.3120 C   0  0  0  0  0  2  0  0  0  0  0  0
  190.5680  174.5800  142.3840 C   0  0  0  0  0  0  0  0  0  0  0  0
  189.1360  176.3440  144.5310 C   0  0  2  0  0  0  0  0  0  0  0  0
  187.8900  175.6520  144.4570 C   0  0  1  0  0  0  0  0  0  0  0  0
  190.5530  175.7780  144.6470 C   0  0  0  0  0  0  0  0  0  0  0  0
  191.4040  172.0060  139.7590 O   0  0  0  0  0  0  0  0  0  0  0  0
  191.3060  173.7550  141.3910 C   0  0  0  0  0  0  0  0  0  0  0  0
  192.4940  174.8640  143.9840 N   0  0  0  0  0  0  0  0  0  0  0  0
  193.5040  172.9510  140.4740 C   0  0  0  0  0  2  0  0  0  0  0  0
  188.5670  174.7550  140.8850 C   0  0  0  0  0  2  0  0  0  0  0  0
  188.7160  175.7200  143.2310 N   0  0  0  0  0  0  0  0  0  0  0  0
  189.3040  174.9900  142.1680 C   0  0  0  0  0  0  0  0  0  0  0  0
  191.4780  176.1200  145.5720 N   0  0  0  0  0  0  0  0  0  0  0  0
  190.7060  172.7340  140.7340 C   0  0  0  0  0  0  0  0  0  0  0  0
  186.7130  176.5860  144.3370 C   0  0  0  0  0  0  0  0  0  0  0  0
  186.1570  176.7810  143.0670 C   0  0  0  0  0  3  0  0  0  0  0  0
  185.0620  177.6340  142.8960 C   0  0  0  0  0  3  0  0  0  0  0  0
  184.5100  178.2960  143.9950 C   0  0  0  0  0  0  0  0  0  0  0  0
  185.0500  178.1000  145.2690 C   0  0  0  0  0  3  0  0  0  0  0  0
  186.1460  177.2500  145.4420 C   0  0  0  0  0  3  0  0  0  0  0  0
  183.4230  179.1400  143.8230 O   0  0  0  0  0  1  0  0  0  0  0  0
  191.3750  177.1680  146.5970 C   0  0  2  0  0  3  0  0  0  0  0  0
  191.0740  175.2040  148.0220 O   0  0  0  0  0  1  0  0  0  0  0  0
  191.2010  176.5940  148.0120 C   0  0  2  0  0  3  0  0  0  0  0  0
  190.0180  177.1760  147.2790 C   0  0  0  0  0  2  0  0  0  0  0  0
  193.9680  175.7970  145.7590 C   0  0  0  0  0  2  0  0  0  0  0  0
  194.7460  176.8290  144.9590 C   0  0  0  0  0  2  0  0  0  0  0  0
  195.8600  176.1750  144.2110 C   0  0  0  0  0  3  0  0  0  0  0  0
  196.4460  176.7860  143.2490 N   0  0  0  0  0  2  0  0  0  0  0  0
  2 13  1  0  0  0  0
  3 19  1  0  0  0  0
  3 32  1  0  0  0  0
  4 14  1  0  0  0  0
  4 11  2  0  0  0  0
  5 16  1  0  0  0  0
  5  6  1  0  0  0  0
  7 12  1  0  0  0  0
  7 15  1  0  0  0  0
  8  4  1  0  0  0  0
  9 11  1  1  0  0  0
  9  1  1  0  0  0  0
 10 21  1  6  0  0  0
 10  9  1  0  0  0  0
 10  1  1  0  0  0  0
 11 19  1  0  0  0  0
 12 20  1  0  0  0  0
 13  8  1  0  0  0  0
 14  3  2  0  0  0  0
 15  2  1  0  0  0  0
 16 18  1  0  0  0  0
 17 10  1  0  0  0  0
 17  9  1  0  0  0  0
 18  8  2  0  0  0  0
 18 17  1  0  0  0  0
 20  6  1  0  0  0  0
 20 13  2  0  0  0  0
 21 26  1  0  0  0  0
 22 21  2  0  0  0  0
 23 22  1  0  0  0  0
 23 24  2  0  0  0  0
 24 25  1  0  0  0  0
 25 26  2  0  0  0  0
 27 24  1  0  0  0  0
 28 19  1  6  0  0  0
 28 31  1  0  0  0  0
 28 30  1  0  0  0  0
 30 29  1  6  0  0  0
 31 30  1  0  0  0  0
 33 32  1  0  0  0  0
 34 33  1  0  0  0  0
 35 34  2  0  0  0  0
M  END
>  <MODEL>
5

>  <REMARK>
 VINA RESULT:      -7.2      1.969      6.527
  Name = 
  5 active torsions:
  status: ('A' for Active; 'I' for Inactive)
    1  A    between atoms: C_3  and  C_16
    2  A    between atoms: C_4  and  C_32
    3  A    between atoms: C_5  and  N_29
    4  A    between atoms: C_23  and  C_34
    5  A    between atoms: C_32  and  C_34
                            x       y       z     vdW  Elec       q    Type
                         _______ _______ _______ _____ _____    ______ ____

>  <TORSDO>
F 5

$$$$
=
 OpenBabel11042418203D

 35 42  0  0  1  0  0  0  0  0999 V2000
  190.8610  175.4460  145.4400 O   0  0  0  0  0  0  0  0  0  0  0  0
  192.5400  173.9790  139.3800 C   0  0  0  0  0  2  0  0  0  0  0  0
  194.2950  175.2590  143.1150 C   0  0  0  0  0  0  0  0  0  0  0  0
  192.3480  174.7440  142.4340 C   0  0  0  0  0  0  0  0  0  0  0  0
  188.3280  173.0940  140.9990 C   0  0  0  0  0  2  0  0  0  0  0  0
  189.4900  172.1050  140.8670 C   0  0  0  0  0  2  0  0  0  0  0  0
  191.7260  172.2910  137.7650 C   0  0  0  0  0  2  0  0  0  0  0  0
  191.2080  174.3580  141.5510 C   0  0  0  0  0  0  0  0  0  0  0  0
  190.9040  176.0270  144.1760 C   0  0  2  0  0  0  0  0  0  0  0  0
  189.7530  175.3240  144.6430 C   0  0  1  0  0  0  0  0  0  0  0  0
  192.2180  175.4740  143.6220 C   0  0  0  0  0  0  0  0  0  0  0  0
  190.7610  171.8900  138.7360 O   0  0  0  0  0  0  0  0  0  0  0  0
  191.4160  173.5780  140.3020 C   0  0  0  0  0  0  0  0  0  0  0  0
  193.6500  174.6060  142.1240 N   0  0  0  0  0  0  0  0  0  0  0  0
  192.9640  172.8320  138.4670 C   0  0  0  0  0  2  0  0  0  0  0  0
  188.7480  174.5640  141.1170 C   0  0  0  0  0  2  0  0  0  0  0  0
  189.9410  175.4450  143.1800 N   0  0  0  0  0  0  0  0  0  0  0  0
  189.9850  174.7610  141.9400 C   0  0  0  0  0  0  0  0  0  0  0  0
  193.4620  175.7920  144.0450 N   0  0  0  0  0  0  0  0  0  0  0  0
  190.5800  172.5740  139.9460 C   0  0  0  0  0  0  0  0  0  0  0  0
  188.6530  176.2480  145.1000 C   0  0  0  0  0  0  0  0  0  0  0  0
  188.2380  176.1640  146.4340 C   0  0  0  0  0  3  0  0  0  0  0  0
  187.2230  176.9970  146.9150 C   0  0  0  0  0  3  0  0  0  0  0  0
  186.6160  177.9250  146.0650 C   0  0  0  0  0  0  0  0  0  0  0  0
  187.0300  178.0250  144.7340 C   0  0  0  0  0  3  0  0  0  0  0  0
  188.0420  177.1910  144.2510 C   0  0  0  0  0  3  0  0  0  0  0  0
  185.6110  178.7520  146.5450 O   0  0  0  0  0  1  0  0  0  0  0  0
  193.8370  176.8010  145.0450 C   0  0  2  0  0  3  0  0  0  0  0  0
  194.6690  174.8040  146.1830 O   0  0  0  0  0  1  0  0  0  0  0  0
  194.5870  176.1960  146.2420 C   0  0  2  0  0  3  0  0  0  0  0  0
  193.1360  176.5840  146.3750 C   0  0  0  0  0  2  0  0  0  0  0  0
  195.7690  175.4910  143.0820 C   0  0  0  0  0  2  0  0  0  0  0  0
  196.1110  176.5630  142.0590 C   0  0  0  0  0  2  0  0  0  0  0  0
  196.8380  175.9630  140.9020 C   0  0  0  0  0  3  0  0  0  0  0  0
  196.1920  175.4380  139.9280 N   0  0  0  0  0  2  0  0  0  0  0  0
  2 13  1  0  0  0  0
  3 19  1  0  0  0  0
  4 11  2  0  0  0  0
  5 16  1  0  0  0  0
  6  5  1  0  0  0  0
  7 15  1  0  0  0  0
  7 12  1  0  0  0  0
  8 18  2  0  0  0  0
  8  4  1  0  0  0  0
  9 11  1  6  0  0  0
  9 10  1  0  0  0  0
  9  1  1  0  0  0  0
 10 21  1  1  0  0  0
 10  1  1  0  0  0  0
 11 19  1  0  0  0  0
 12 20  1  0  0  0  0
 13  8  1  0  0  0  0
 14  4  1  0  0  0  0
 14  3  2  0  0  0  0
 15  2  1  0  0  0  0
 16 18  1  0  0  0  0
 17  9  1  0  0  0  0
 17 10  1  0  0  0  0
 18 17  1  0  0  0  0
 20 13  2  0  0  0  0
 20  6  1  0  0  0  0
 21 22  1  0  0  0  0
 22 23  2  0  0  0  0
 24 27  1  0  0  0  0
 24 23  1  0  0  0  0
 25 24  2  0  0  0  0
 26 25  1  0  0  0  0
 26 21  2  0  0  0  0
 28 19  1  6  0  0  0
 28 30  1  0  0  0  0
 28 31  1  0  0  0  0
 30 29  1  6  0  0  0
 30 31  1  0  0  0  0
 32  3  1  0  0  0  0
 33 32  1  0  0  0  0
 34 33  1  0  0  0  0
 35 34  2  0  0  0  0
M  END
>  <MODEL>
6

>  <REMARK>
 VINA RESULT:      -7.1      2.498      7.199
  Name = 
  5 active torsions:
  status: ('A' for Active; 'I' for Inactive)
    1  A    between atoms: C_3  and  C_16
    2  A    between atoms: C_4  and  C_32
    3  A    between atoms: C_5  and  N_29
    4  A    between atoms: C_23  and  C_34
    5  A    between atoms: C_32  and  C_34
                            x       y       z     vdW  Elec       q    Type
                         _______ _______ _______ _____ _____    ______ ____

>  <TORSDO>
F 5

$$$$
=
 OpenBabel11042418203D

 35 42  0  0  1  0  0  0  0  0999 V2000
  190.4630  175.6310  145.8280 O   0  0  0  0  0  0  0  0  0  0  0  0
  191.9960  173.7960  139.8300 C   0  0  0  0  0  2  0  0  0  0  0  0
  193.8430  175.2790  143.4440 C   0  0  0  0  0  0  0  0  0  0  0  0
  191.8770  174.7410  142.8370 C   0  0  0  0  0  0  0  0  0  0  0  0
  187.8150  173.0430  141.5900 C   0  0  0  0  0  2  0  0  0  0  0  0
  188.9670  172.0380  141.4920 C   0  0  0  0  0  2  0  0  0  0  0  0
  191.1340  172.0230  138.3360 C   0  0  0  0  0  2  0  0  0  0  0  0
  190.7150  174.3130  142.0030 C   0  0  0  0  0  0  0  0  0  0  0  0
  190.4820  176.1370  144.5310 C   0  0  2  0  0  0  0  0  0  0  0  0
  189.3370  175.4720  145.0640 C   0  0  1  0  0  0  0  0  0  0  0  0
  191.7790  175.5400  143.9820 C   0  0  0  0  0  0  0  0  0  0  0  0
  190.1880  171.6870  139.3490 O   0  0  0  0  0  0  0  0  0  0  0  0
  190.8900  173.4590  140.7980 C   0  0  0  0  0  0  0  0  0  0  0  0
  193.1710  174.5740  142.5070 N   0  0  0  0  0  0  0  0  0  0  0  0
  192.3910  172.5940  138.9770 C   0  0  0  0  0  2  0  0  0  0  0  0
  188.2480  174.5140  141.6120 C   0  0  0  0  0  2  0  0  0  0  0  0
  189.4930  175.5050  143.5930 N   0  0  0  0  0  0  0  0  0  0  0  0
  189.5040  174.7490  142.3950 C   0  0  0  0  0  0  0  0  0  0  0  0
  193.0350  175.8730  144.3580 N   0  0  0  0  0  0  0  0  0  0  0  0
  190.0380  172.4430  140.5210 C   0  0  0  0  0  0  0  0  0  0  0  0
  188.2540  176.4300  145.4900 C   0  0  0  0  0  0  0  0  0  0  0  0
  187.8100  176.3720  146.8160 C   0  0  0  0  0  3  0  0  0  0  0  0
  186.8100  177.2370  147.2680 C   0  0  0  0  0  3  0  0  0  0  0  0
  186.2460  178.1720  146.3980 C   0  0  0  0  0  0  0  0  0  0  0  0
  186.6880  178.2470  145.0740 C   0  0  0  0  0  3  0  0  0  0  0  0
  187.6860  177.3810  144.6200 C   0  0  0  0  0  3  0  0  0  0  0  0
  185.2530  179.0310  146.8490 O   0  0  0  0  0  1  0  0  0  0  0  0
  193.4390  176.9360  145.2890 C   0  0  2  0  0  3  0  0  0  0  0  0
  194.3070  175.0040  146.5110 O   0  0  0  0  0  1  0  0  0  0  0  0
  194.2260  176.3980  146.4950 C   0  0  2  0  0  3  0  0  0  0  0  0
  192.7780  176.7940  146.6490 C   0  0  0  0  0  2  0  0  0  0  0  0
  195.3170  175.4970  143.3640 C   0  0  0  0  0  2  0  0  0  0  0  0
  196.0520  174.1680  143.4330 C   0  0  0  0  0  2  0  0  0  0  0  0
  197.2970  174.3050  144.2450 C   0  0  0  0  0  3  0  0  0  0  0  0
  197.3110  173.9590  145.4790 N   0  0  0  0  0  2  0  0  0  0  0  0
  2 13  1  0  0  0  0
  3 19  1  0  0  0  0
  4 11  2  0  0  0  0
  5 16  1  0  0  0  0
  6  5  1  0  0  0  0
  7 15  1  0  0  0  0
  7 12  1  0  0  0  0
  8 18  2  0  0  0  0
  8  4  1  0  0  0  0
  9 11  1  6  0  0  0
  9 10  1  0  0  0  0
  9  1  1  0  0  0  0
 10 21  1  1  0  0  0
 10  1  1  0  0  0  0
 11 19  1  0  0  0  0
 12 20  1  0  0  0  0
 13  8  1  0  0  0  0
 14  4  1  0  0  0  0
 14  3  2  0  0  0  0
 15  2  1  0  0  0  0
 16 18  1  0  0  0  0
 17  9  1  0  0  0  0
 17 10  1  0  0  0  0
 18 17  1  0  0  0  0
 20 13  2  0  0  0  0
 20  6  1  0  0  0  0
 21 22  1  0  0  0  0
 22 23  2  0  0  0  0
 24 27  1  0  0  0  0
 24 23  1  0  0  0  0
 25 24  2  0  0  0  0
 26 25  1  0  0  0  0
 26 21  2  0  0  0  0
 28 19  1  6  0  0  0
 28 30  1  0  0  0  0
 28 31  1  0  0  0  0
 30 29  1  6  0  0  0
 30 31  1  0  0  0  0
 32 33  1  0  0  0  0
 32  3  1  0  0  0  0
 33 34  1  0  0  0  0
 34 35  2  0  0  0  0
M  END
>  <MODEL>
7

>  <REMARK>
 VINA RESULT:      -7.1      2.152      6.870
  Name = 
  5 active torsions:
  status: ('A' for Active; 'I' for Inactive)
    1  A    between atoms: C_3  and  C_16
    2  A    between atoms: C_4  and  C_32
    3  A    between atoms: C_5  and  N_29
    4  A    between atoms: C_23  and  C_34
    5  A    between atoms: C_32  and  C_34
                            x       y       z     vdW  Elec       q    Type
                         _______ _______ _______ _____ _____    ______ ____

>  <TORSDO>
F 5

$$$$
=
 OpenBabel11042418203D

 35 42  0  0  1  0  0  0  0  0999 V2000
  187.7990  176.3980  140.0960 O   0  0  0  0  0  0  0  0  0  0  0  0
  191.5760  173.5970  144.5210 C   0  0  0  0  0  2  0  0  0  0  0  0
  190.2930  173.0950  140.4260 C   0  0  0  0  0  0  0  0  0  0  0  0
  189.9690  174.5220  141.9690 C   0  0  0  0  0  0  0  0  0  0  0  0
  189.7940  177.7860  145.1720 C   0  0  0  0  0  2  0  0  0  0  0  0
  191.2130  177.4520  144.6990 C   0  0  0  0  0  2  0  0  0  0  0  0
  193.0410  174.4940  146.3010 C   0  0  0  0  0  2  0  0  0  0  0  0
  189.9900  175.2110  143.2930 C   0  0  0  0  0  0  0  0  0  0  0  0
  187.7060  175.5340  141.1830 C   0  0  2  0  0  0  0  0  0  0  0  0
  187.5920  176.9490  141.3330 C   0  0  1  0  0  0  0  0  0  0  0  0
  188.9610  174.6770  141.0100 C   0  0  0  0  0  0  0  0  0  0  0  0
  192.6230  175.8050  145.9250 O   0  0  0  0  0  0  0  0  0  0  0  0
  191.0950  175.0030  144.2660 C   0  0  0  0  0  0  0  0  0  0  0  0
  190.8050  173.5350  141.5960 N   0  0  0  0  0  0  0  0  0  0  0  0
  192.9920  173.5740  145.0900 C   0  0  0  0  0  2  0  0  0  0  0  0
  188.7510  176.6990  144.8850 C   0  0  0  0  0  2  0  0  0  0  0  0
  188.0070  176.1620  142.5150 N   0  0  0  0  0  0  0  0  0  0  0  0
  188.9510  176.0220  143.5630 C   0  0  0  0  0  0  0  0  0  0  0  0
  189.1800  173.7670  140.0350 N   0  0  0  0  0  0  0  0  0  0  0  0
  191.6200  176.0320  144.9720 C   0  0  0  0  0  0  0  0  0  0  0  0
  186.1640  177.4050  141.4910 C   0  0  0  0  0  0  0  0  0  0  0  0
  185.4570  177.7590  140.3360 C   0  0  0  0  0  3  0  0  0  0  0  0
  184.1280  178.1870  140.4210 C   0  0  0  0  0  3  0  0  0  0  0  0
  183.4940  178.2610  141.6630 C   0  0  0  0  0  0  0  0  0  0  0  0
  184.1860  177.8990  142.8210 C   0  0  0  0  0  3  0  0  0  0  0  0
  185.5150  177.4740  142.7390 C   0  0  0  0  0  3  0  0  0  0  0  0
  182.1750  178.6840  141.7450 O   0  0  0  0  0  1  0  0  0  0  0  0
  188.2390  173.3250  138.9950 C   0  0  2  0  0  3  0  0  0  0  0  0
  190.0600  174.1050  137.5620 O   0  0  0  0  0  1  0  0  0  0  0  0
  188.8110  173.4820  137.5770 C   0  0  2  0  0  3  0  0  0  0  0  0
  187.7930  174.4660  138.0980 C   0  0  0  0  0  2  0  0  0  0  0  0
  190.8250  171.8850  139.7330 C   0  0  0  0  0  2  0  0  0  0  0  0
  191.8450  171.1800  140.6120 C   0  0  0  0  0  2  0  0  0  0  0  0
  191.6680  169.7010  140.5300 C   0  0  0  0  0  3  0  0  0  0  0  0
  192.6470  168.9120  140.7780 N   0  0  0  0  0  2  0  0  0  0  0  0
  1 10  1  0  0  0  0
  2 15  1  0  0  0  0
  3 14  2  0  0  0  0
  4  8  1  0  0  0  0
  6 20  1  0  0  0  0
  6  5  1  0  0  0  0
  8 18  2  0  0  0  0
  8 13  1  0  0  0  0
  9  1  1  6  0  0  0
  9 10  1  0  0  0  0
  9 17  1  0  0  0  0
 10 21  1  1  0  0  0
 10 17  1  0  0  0  0
 11  9  1  0  0  0  0
 11  4  2  0  0  0  0
 12  7  1  0  0  0  0
 13  2  1  0  0  0  0
 13 20  2  0  0  0  0
 14  4  1  0  0  0  0
 15  7  1  0  0  0  0
 16  5  1  0  0  0  0
 17 18  1  0  0  0  0
 18 16  1  0  0  0  0
 19  3  1  0  0  0  0
 19 11  1  0  0  0  0
 20 12  1  0  0  0  0
 21 26  1  0  0  0  0
 22 23  1  0  0  0  0
 22 21  2  0  0  0  0
 23 24  2  0  0  0  0
 24 27  1  0  0  0  0
 24 25  1  0  0  0  0
 26 25  2  0  0  0  0
 28 31  1  6  0  0  0
 28 19  1  0  0  0  0
 30 29  1  1  0  0  0
 30 31  1  0  0  0  0
 30 28  1  0  0  0  0
 32  3  1  0  0  0  0
 32 33  1  0  0  0  0
 34 33  1  0  0  0  0
 34 35  2  0  0  0  0
M  END
>  <MODEL>
8

>  <REMARK>
 VINA RESULT:      -6.9      2.901      7.323
  Name = 
  5 active torsions:
  status: ('A' for Active; 'I' for Inactive)
    1  A    between atoms: C_3  and  C_16
    2  A    between atoms: C_4  and  C_32
    3  A    between atoms: C_5  and  N_29
    4  A    between atoms: C_23  and  C_34
    5  A    between atoms: C_32  and  C_34
                            x       y       z     vdW  Elec       q    Type
                         _______ _______ _______ _____ _____    ______ ____

>  <TORSDO>
F 5

$$$$
=
 OpenBabel11042418203D

 35 42  0  0  1  0  0  0  0  0999 V2000
  190.0600  175.6640  142.4080 O   0  0  0  0  0  0  0  0  0  0  0  0
  194.7370  172.0790  145.0470 C   0  0  0  0  0  2  0  0  0  0  0  0
  192.0330  172.0860  141.6770 C   0  0  0  0  0  0  0  0  0  0  0  0
  192.4740  173.3990  143.2900 C   0  0  0  0  0  0  0  0  0  0  0  0
  193.8900  176.3690  146.4700 C   0  0  0  0  0  2  0  0  0  0  0  0
  194.9900  175.9210  145.5030 C   0  0  0  0  0  2  0  0  0  0  0  0
  196.8440  172.6470  146.2120 C   0  0  0  0  0  2  0  0  0  0  0  0
  193.0550  173.9630  144.5440 C   0  0  0  0  0  0  0  0  0  0  0  0
  190.2400  174.7250  143.4190 C   0  0  2  0  0  0  0  0  0  0  0  0
  190.3810  176.1250  143.6570 C   0  0  1  0  0  0  0  0  0  0  0  0
  191.2230  173.7500  142.7690 C   0  0  0  0  0  0  0  0  0  0  0  0
  196.5040  174.0250  146.0670 O   0  0  0  0  0  0  0  0  0  0  0  0
  194.3940  173.5480  145.0410 C   0  0  0  0  0  0  0  0  0  0  0  0
  192.9810  172.3610  142.6000 N   0  0  0  0  0  0  0  0  0  0  0  0
  196.2460  171.8480  145.0640 C   0  0  0  0  0  2  0  0  0  0  0  0
  192.6750  175.4360  146.5360 C   0  0  0  0  0  2  0  0  0  0  0  0
  191.0750  175.1960  144.5770 N   0  0  0  0  0  0  0  0  0  0  0  0
  192.3000  174.8600  145.2050 C   0  0  0  0  0  0  0  0  0  0  0  0
  190.9560  172.9100  141.7430 N   0  0  0  0  0  0  0  0  0  0  0  0
  195.2700  174.4460  145.5510 C   0  0  0  0  0  0  0  0  0  0  0  0
  189.1770  176.7230  144.3400 C   0  0  0  0  0  0  0  0  0  0  0  0
  189.0660  176.5700  145.7270 C   0  0  0  0  0  3  0  0  0  0  0  0
  187.9730  177.1060  146.4150 C   0  0  0  0  0  3  0  0  0  0  0  0
  186.9820  177.8020  145.7210 C   0  0  0  0  0  0  0  0  0  0  0  0
  187.0870  177.9710  144.3380 C   0  0  0  0  0  3  0  0  0  0  0  0
  188.1780  177.4340  143.6480 C   0  0  0  0  0  3  0  0  0  0  0  0
  185.8980  178.3350  146.4050 O   0  0  0  0  0  1  0  0  0  0  0  0
  189.6580  172.6690  141.0970 C   0  0  2  0  0  3  0  0  0  0  0  0
  190.8450  173.6810  139.2140 O   0  0  0  0  0  1  0  0  0  0  0  0
  189.6530  173.0750  139.6150 C   0  0  2  0  0  3  0  0  0  0  0  0
  188.9910  173.9560  140.6450 C   0  0  0  0  0  2  0  0  0  0  0  0
  192.1160  170.8890  140.7900 C   0  0  0  0  0  2  0  0  0  0  0  0
  193.5300  170.7230  140.2580 C   0  0  0  0  0  2  0  0  0  0  0  0
  194.1030  169.4180  140.7040 C   0  0  0  0  0  3  0  0  0  0  0  0
  194.3650  169.2100  141.9410 N   0  0  0  0  0  2  0  0  0  0  0  0
  1 10  1  0  0  0  0
  2 15  1  0  0  0  0
  3 19  1  0  0  0  0
  3 14  2  0  0  0  0
  4  8  1  0  0  0  0
  5 16  1  0  0  0  0
  6 20  1  0  0  0  0
  6  5  1  0  0  0  0
  8 13  1  0  0  0  0
  8 18  2  0  0  0  0
  9  1  1  1  0  0  0
  9 10  1  0  0  0  0
  9 17  1  0  0  0  0
 10 21  1  1  0  0  0
 10 17  1  0  0  0  0
 11  4  2  0  0  0  0
 11  9  1  0  0  0  0
 12  7  1  0  0  0  0
 13  2  1  0  0  0  0
 13 20  2  0  0  0  0
 14  4  1  0  0  0  0
 15  7  1  0  0  0  0
 17 18  1  0  0  0  0
 18 16  1  0  0  0  0
 19 11  1  0  0  0  0
 20 12  1  0  0  0  0
 21 22  1  0  0  0  0
 22 23  2  0  0  0  0
 24 27  1  0  0  0  0
 24 23  1  0  0  0  0
 25 24  2  0  0  0  0
 26 25  1  0  0  0  0
 26 21  2  0  0  0  0
 28 31  1  1  0  0  0
 28 19  1  0  0  0  0
 30 29  1  1  0  0  0
 30 31  1  0  0  0  0
 30 28  1  0  0  0  0
 32  3  1  0  0  0  0
 33 34  1  0  0  0  0
 33 32  1  0  0  0  0
 34 35  2  0  0  0  0
M  END
>  <MODEL>
9

>  <REMARK>
 VINA RESULT:      -6.8      2.657      8.171
  Name = 
  5 active torsions:
  status: ('A' for Active; 'I' for Inactive)
    1  A    between atoms: C_3  and  C_16
    2  A    between atoms: C_4  and  C_32
    3  A    between atoms: C_5  and  N_29
    4  A    between atoms: C_23  and  C_34
    5  A    between atoms: C_32  and  C_34
                            x       y       z     vdW  Elec       q    Type
                         _______ _______ _______ _____ _____    ______ ____

>  <TORSDO>
F 5

$$$$
