=
 OpenBabel11042418423D

 34 37  0  0  1  0  0  0  0  0999 V2000
  193.6670  173.5820  145.6540 C   0  0  0  0  0  1  0  0  0  0  0  0
  191.3910  174.5570  145.8780 C   0  0  0  0  0  2  0  0  0  0  0  0
  192.6270  174.4810  144.9940 C   0  0  2  0  0  0  0  0  0  0  0  0
  192.1200  173.8190  143.7220 C   0  0  0  0  0  2  0  0  0  0  0  0
  190.6790  174.2590  143.5650 C   0  0  2  0  0  3  0  0  0  0  0  0
  190.1910  174.6470  144.9500 C   0  0  2  0  0  3  0  0  0  0  0  0
  195.8530  175.9460  143.7900 C   0  0  2  0  0  3  0  0  0  0  0  0
  193.8920  177.0140  146.6670 N   0  0  0  0  0  1  0  0  0  0  0  0
  194.7460  175.5990  142.7880 C   0  0  0  0  0  2  0  0  0  0  0  0
  193.3720  176.0790  143.2700 C   0  0  0  0  0  2  0  0  0  0  0  0
  193.1490  175.8430  144.7140 N   0  0  2  0  0  0  0  0  0  0  0  0
  195.3680  176.8670  144.8110 N   0  0  0  0  0  2  0  0  0  0  0  0
  194.3190  176.1780  145.5610 C   0  0  1  0  0  3  0  0  0  0  0  0
  197.0390  176.5610  143.0720 C   0  0  0  0  0  2  0  0  0  0  0  0
  197.2720  175.8680  141.8180 N   0  0  0  0  0  1  0  0  0  0  0  0
  187.9740  175.6790  146.5360 N   0  0  0  0  0  0  0  0  0  0  0  0
  187.0160  176.4020  147.2430 N   0  0  0  0  0  2  0  0  0  0  0  0
  188.6270  176.4630  145.7520 C   0  0  0  0  0  0  0  0  0  0  0  0
  188.1810  177.8780  145.8160 C   0  0  0  0  0  2  0  0  0  0  0  0
  187.0780  177.8090  146.8780 C   0  0  1  0  0  3  0  0  0  0  0  0
  189.6950  176.0130  144.9160 N   0  0  0  0  0  2  0  0  0  0  0  0
  185.7730  178.2620  146.3120 C   0  0  0  0  0  0  0  0  0  0  0  0
  185.7280  179.4040  145.5250 O   0  0  0  0  0  0  0  0  0  0  0  0
  184.7180  177.6070  146.5240 O   0  0  0  0  0  1  0  0  0  0  0  0
  189.9130  173.2030  143.0680 O   0  0  0  0  0  0  0  0  0  0  0  0
  189.7750  173.4680  141.7020 C   0  0  0  0  0  2  0  0  0  0  0  0
  188.3790  173.9830  141.4070 C   0  0  0  0  0  2  0  0  0  0  0  0
  188.4570  175.2230  140.7700 O   0  0  0  0  0  0  0  0  0  0  0  0
  186.0250  177.5770  141.8310 C   0  0  1  0  0  3  0  0  0  0  0  0
  186.9580  175.4900  142.6000 C   0  0  0  0  0  2  0  0  0  0  0  0
  187.9880  176.1430  141.7080 C   0  0  2  0  0  3  0  0  0  0  0  0
  186.0240  176.6080  142.9970 C   0  0  0  0  0  2  0  0  0  0  0  0
  186.0820  178.8850  142.3120 O   0  0  0  0  0  1  0  0  0  0  0  0
  187.2650  177.2770  141.0070 C   0  0  0  0  0  2  0  0  0  0  0  0
  3  1  1  1  0  0  0
  3  2  1  0  0  0  0
  4  3  1  0  0  0  0
  5 25  1  1  0  0  0
  5  4  1  0  0  0  0
  5  6  1  0  0  0  0
  6 21  1  6  0  0  0
  6  2  1  0  0  0  0
  7 14  1  6  0  0  0
  7 12  1  0  0  0  0
  9 10  1  0  0  0  0
  9  7  1  0  0  0  0
 11 10  1  6  0  0  0
 11  3  1  0  0  0  0
 11 13  1  0  0  0  0
 12 13  1  0  0  0  0
 13  8  1  1  0  0  0
 15 14  1  0  0  0  0
 16 17  1  0  0  0  0
 18 19  1  0  0  0  0
 18 16  2  0  0  0  0
 19 20  1  0  0  0  0
 20 22  1  6  0  0  0
 20 17  1  0  0  0  0
 21 18  1  0  0  0  0
 22 24  1  0  0  0  0
 23 22  2  0  0  0  0
 26 25  1  0  0  0  0
 27 26  1  0  0  0  0
 28 27  1  0  0  0  0
 29 33  1  1  0  0  0
 29 32  1  0  0  0  0
 30 32  1  0  0  0  0
 31 28  1  6  0  0  0
 31 30  1  0  0  0  0
 34 31  1  0  0  0  0
 34 29  1  0  0  0  0
M  END
>  <MODEL>
1

>  <REMARK>
 VINA RESULT:      -6.8      0.000      0.000
  Name = 
  9 active torsions:
  status: ('A' for Active; 'I' for Inactive)
    1  A    between atoms: C_1  and  C_10
    2  A    between atoms: C_6  and  C_30
    3  A    between atoms: O_11  and  C_12
    4  A    between atoms: O_11  and  C_31
    5  A    between atoms: C_12  and  C_26
    6  A    between atoms: O_15  and  C_16
    7  A    between atoms: O_15  and  C_26
    8  A    between atoms: N_20  and  C_25
    9  A    between atoms: N_33  and  C_34
                            x       y       z     vdW  Elec       q    Type
                         _______ _______ _______ _____ _____    ______ ____

>  <TORSDO>
F 9

$$$$
=
 OpenBabel11042418423D

 34 37  0  0  1  0  0  0  0  0999 V2000
  194.5620  176.6350  145.9780 C   0  0  0  0  0  1  0  0  0  0  0  0
  192.3010  176.9190  144.9850 C   0  0  0  0  0  2  0  0  0  0  0  0
  193.3160  175.9040  145.4920 C   0  0  2  0  0  0  0  0  0  0  0  0
  192.6150  175.2540  146.6750 C   0  0  0  0  0  2  0  0  0  0  0  0
  191.1370  175.2620  146.3440 C   0  0  2  0  0  3  0  0  0  0  0  0
  190.9250  176.3770  145.3340 C   0  0  2  0  0  3  0  0  0  0  0  0
  196.2960  173.8980  144.4450 C   0  0  2  0  0  3  0  0  0  0  0  0
  194.1100  175.8700  142.3010 N   0  0  0  0  0  1  0  0  0  0  0  0
  195.2880  173.3120  145.4400 C   0  0  0  0  0  2  0  0  0  0  0  0
  193.8420  173.5490  144.9880 C   0  0  0  0  0  2  0  0  0  0  0  0
  193.6200  174.9040  144.4370 N   0  0  2  0  0  0  0  0  0  0  0  0
  195.6410  174.2930  143.2040 N   0  0  0  0  0  2  0  0  0  0  0  0
  194.6960  175.3610  143.5260 C   0  0  1  0  0  3  0  0  0  0  0  0
  197.3870  172.8880  144.1450 C   0  0  0  0  0  2  0  0  0  0  0  0
  196.7940  171.6080  143.8030 N   0  0  0  0  0  1  0  0  0  0  0  0
  189.1740  177.8430  143.5240 N   0  0  0  0  0  0  0  0  0  0  0  0
  188.3920  178.3580  142.4920 N   0  0  0  0  0  2  0  0  0  0  0  0
  189.4770  176.6170  143.2780 C   0  0  0  0  0  0  0  0  0  0  0  0
  188.9160  176.1090  141.9990 C   0  0  0  0  0  2  0  0  0  0  0  0
  188.1900  177.3480  141.4640 C   0  0  1  0  0  3  0  0  0  0  0  0
  190.2940  175.8280  144.1450 N   0  0  0  0  0  2  0  0  0  0  0  0
  186.7340  177.0670  141.2850 C   0  0  0  0  0  0  0  0  0  0  0  0
  186.0230  176.4590  142.3100 O   0  0  0  0  0  1  0  0  0  0  0  0
  186.1420  177.3950  140.2220 O   0  0  0  0  0  0  0  0  0  0  0  0
  190.3950  175.5180  147.5000 O   0  0  0  0  0  0  0  0  0  0  0  0
  189.1400  174.9520  147.2550 C   0  0  0  0  0  2  0  0  0  0  0  0
  188.0680  176.0260  147.2780 C   0  0  0  0  0  2  0  0  0  0  0  0
  187.3840  176.0370  146.0610 O   0  0  0  0  0  0  0  0  0  0  0  0
  184.4640  177.9840  146.5750 C   0  0  1  0  0  3  0  0  0  0  0  0
  186.7290  177.8910  147.4010 C   0  0  0  0  0  2  0  0  0  0  0  0
  186.7250  177.2660  146.0260 C   0  0  2  0  0  3  0  0  0  0  0  0
  185.4610  178.7080  147.4600 C   0  0  0  0  0  2  0  0  0  0  0  0
  183.7660  178.9120  145.8030 O   0  0  0  0  0  1  0  0  0  0  0  0
  185.2640  177.0610  145.6720 C   0  0  0  0  0  2  0  0  0  0  0  0
  2  6  1  0  0  0  0
  2  3  1  0  0  0  0
  3  1  1  1  0  0  0
  3  4  1  0  0  0  0
  5  4  1  0  0  0  0
  5 25  1  1  0  0  0
  6 21  1  6  0  0  0
  6  5  1  0  0  0  0
  7 14  1  6  0  0  0
  7  9  1  0  0  0  0
 10  9  1  0  0  0  0
 11 10  1  1  0  0  0
 11  3  1  0  0  0  0
 12 13  1  0  0  0  0
 12  7  1  0  0  0  0
 13  8  1  6  0  0  0
 13 11  1  0  0  0  0
 15 14  1  0  0  0  0
 17 16  1  0  0  0  0
 18 16  2  0  0  0  0
 18 21  1  0  0  0  0
 19 18  1  0  0  0  0
 20 22  1  1  0  0  0
 20 19  1  0  0  0  0
 20 17  1  0  0  0  0
 22 23  1  0  0  0  0
 24 22  2  0  0  0  0
 26 27  1  0  0  0  0
 26 25  1  0  0  0  0
 28 27  1  0  0  0  0
 29 33  1  6  0  0  0
 29 32  1  0  0  0  0
 30 32  1  0  0  0  0
 31 28  1  1  0  0  0
 31 30  1  0  0  0  0
 34 31  1  0  0  0  0
 34 29  1  0  0  0  0
M  END
>  <MODEL>
2

>  <REMARK>
 VINA RESULT:      -6.8      2.205      4.212
  Name = 
  9 active torsions:
  status: ('A' for Active; 'I' for Inactive)
    1  A    between atoms: C_1  and  C_10
    2  A    between atoms: C_6  and  C_30
    3  A    between atoms: O_11  and  C_12
    4  A    between atoms: O_11  and  C_31
    5  A    between atoms: C_12  and  C_26
    6  A    between atoms: O_15  and  C_16
    7  A    between atoms: O_15  and  C_26
    8  A    between atoms: N_20  and  C_25
    9  A    between atoms: N_33  and  C_34
                            x       y       z     vdW  Elec       q    Type
                         _______ _______ _______ _____ _____    ______ ____

>  <TORSDO>
F 9

$$$$
=
 OpenBabel11042418423D

 34 37  0  0  1  0  0  0  0  0999 V2000
  192.5640  173.4590  144.2810 C   0  0  0  0  0  1  0  0  0  0  0  0
  190.6470  174.5850  145.3920 C   0  0  0  0  0  2  0  0  0  0  0  0
  191.6420  174.6720  144.2440 C   0  0  2  0  0  0  0  0  0  0  0  0
  190.7660  174.6050  143.0020 C   0  0  0  0  0  2  0  0  0  0  0  0
  189.4560  175.2660  143.3750 C   0  0  2  0  0  3  0  0  0  0  0  0
  189.3410  175.1770  144.8880 C   0  0  2  0  0  3  0  0  0  0  0  0
  195.0400  175.8710  143.2360 C   0  0  2  0  0  3  0  0  0  0  0  0
  193.3820  176.4020  146.4340 N   0  0  0  0  0  1  0  0  0  0  0  0
  193.8620  176.0000  142.2640 C   0  0  0  0  0  2  0  0  0  0  0  0
  192.6080  176.5430  142.9610 C   0  0  0  0  0  2  0  0  0  0  0  0
  192.3880  175.9550  144.3010 N   0  0  2  0  0  0  0  0  0  0  0  0
  194.7550  176.5380  144.5000 N   0  0  0  0  0  2  0  0  0  0  0  0
  193.6220  175.8480  145.1150 C   0  0  1  0  0  3  0  0  0  0  0  0
  196.2960  176.4610  142.6210 C   0  0  0  0  0  2  0  0  0  0  0  0
  196.2840  176.2580  141.1830 N   0  0  0  0  0  1  0  0  0  0  0  0
  187.2480  175.9740  146.7520 N   0  0  0  0  0  0  0  0  0  0  0  0
  186.4010  176.5540  147.6950 N   0  0  0  0  0  2  0  0  0  0  0  0
  188.1360  176.8260  146.3760 C   0  0  0  0  0  0  0  0  0  0  0  0
  188.0050  178.1530  147.0290 C   0  0  0  0  0  2  0  0  0  0  0  0
  186.8070  177.9260  147.9590 C   0  0  1  0  0  3  0  0  0  0  0  0
  189.1620  176.5140  145.4320 N   0  0  0  0  0  2  0  0  0  0  0  0
  185.7000  178.8730  147.6320 C   0  0  0  0  0  0  0  0  0  0  0  0
  184.4160  178.3840  147.4390 O   0  0  0  0  0  0  0  0  0  0  0  0
  185.9180  180.1110  147.5500 O   0  0  0  0  0  1  0  0  0  0  0  0
  188.3940  174.5850  142.7760 O   0  0  0  0  0  0  0  0  0  0  0  0
  188.4190  174.9870  141.4370 C   0  0  0  0  0  2  0  0  0  0  0  0
  188.2270  176.4890  141.3380 C   0  0  0  0  0  2  0  0  0  0  0  0
  186.8670  176.7980  141.4070 O   0  0  0  0  0  0  0  0  0  0  0  0
  185.0540  179.0750  143.4350 C   0  0  1  0  0  3  0  0  0  0  0  0
  185.7550  176.7680  143.5110 C   0  0  0  0  0  2  0  0  0  0  0  0
  186.7140  177.5000  142.6030 C   0  0  2  0  0  3  0  0  0  0  0  0
  185.0910  177.8500  144.3280 C   0  0  0  0  0  2  0  0  0  0  0  0
  185.4000  180.2040  144.1770 O   0  0  0  0  0  1  0  0  0  0  0  0
  186.0760  178.8500  142.3340 C   0  0  0  0  0  2  0  0  0  0  0  0
  3  1  1  1  0  0  0
  3 11  1  0  0  0  0
  3  2  1  0  0  0  0
  4  5  1  0  0  0  0
  4  3  1  0  0  0  0
  5 25  1  6  0  0  0
  5  6  1  0  0  0  0
  6  2  1  0  0  0  0
  6 21  1  1  0  0  0
  7 14  1  6  0  0  0
  7 12  1  0  0  0  0
  9 10  1  0  0  0  0
  9  7  1  0  0  0  0
 11 10  1  6  0  0  0
 11 13  1  0  0  0  0
 12 13  1  0  0  0  0
 13  8  1  1  0  0  0
 15 14  1  0  0  0  0
 16 17  1  0  0  0  0
 17 20  1  0  0  0  0
 18 16  2  0  0  0  0
 18 19  1  0  0  0  0
 19 20  1  0  0  0  0
 20 22  1  6  0  0  0
 21 18  1  0  0  0  0
 23 22  2  0  0  0  0
 24 22  1  0  0  0  0
 26 25  1  0  0  0  0
 27 28  1  0  0  0  0
 27 26  1  0  0  0  0
 29 33  1  1  0  0  0
 29 32  1  0  0  0  0
 30 32  1  0  0  0  0
 31 28  1  6  0  0  0
 31 30  1  0  0  0  0
 34 31  1  0  0  0  0
 34 29  1  0  0  0  0
M  END
>  <MODEL>
3

>  <REMARK>
 VINA RESULT:      -6.4      1.259      1.653
  Name = 
  9 active torsions:
  status: ('A' for Active; 'I' for Inactive)
    1  A    between atoms: C_1  and  C_10
    2  A    between atoms: C_6  and  C_30
    3  A    between atoms: O_11  and  C_12
    4  A    between atoms: O_11  and  C_31
    5  A    between atoms: C_12  and  C_26
    6  A    between atoms: O_15  and  C_16
    7  A    between atoms: O_15  and  C_26
    8  A    between atoms: N_20  and  C_25
    9  A    between atoms: N_33  and  C_34
                            x       y       z     vdW  Elec       q    Type
                         _______ _______ _______ _____ _____    ______ ____

>  <TORSDO>
F 9

$$$$
=
 OpenBabel11042418423D

 34 37  0  0  1  0  0  0  0  0999 V2000
  192.1190  173.5620  143.1540 C   0  0  0  0  0  1  0  0  0  0  0  0
  190.1170  174.4710  144.3120 C   0  0  0  0  0  2  0  0  0  0  0  0
  191.4470  174.8300  143.6670 C   0  0  2  0  0  0  0  0  0  0  0  0
  191.0510  175.7050  142.4870 C   0  0  0  0  0  2  0  0  0  0  0  0
  189.8000  176.4440  142.9130 C   0  0  2  0  0  3  0  0  0  0  0  0
  189.1610  175.6150  144.0150 C   0  0  2  0  0  3  0  0  0  0  0  0
  194.9250  174.5090  145.0110 C   0  0  2  0  0  3  0  0  0  0  0  0
  191.8720  175.0560  146.9200 N   0  0  0  0  0  1  0  0  0  0  0  0
  194.6580  175.3690  143.7700 C   0  0  0  0  0  2  0  0  0  0  0  0
  193.4300  176.2670  143.9560 C   0  0  0  0  0  2  0  0  0  0  0  0
  192.3020  175.5800  144.6220 N   0  0  2  0  0  0  0  0  0  0  0  0
  194.1130  174.9490  146.1400 N   0  0  0  0  0  2  0  0  0  0  0  0
  192.7110  174.7460  145.7780 C   0  0  1  0  0  3  0  0  0  0  0  0
  196.3930  174.5680  145.3870 C   0  0  0  0  0  2  0  0  0  0  0  0
  196.7820  173.3410  146.0570 N   0  0  0  0  0  1  0  0  0  0  0  0
  186.6110  176.3790  145.2000 N   0  0  0  0  0  0  0  0  0  0  0  0
  185.5310  176.7920  145.9760 N   0  0  0  0  0  2  0  0  0  0  0  0
  187.7140  176.7450  145.7510 C   0  0  0  0  0  0  0  0  0  0  0  0
  187.5280  177.4910  147.0220 C   0  0  0  0  0  2  0  0  0  0  0  0
  186.0020  177.4860  147.1650 C   0  0  1  0  0  3  0  0  0  0  0  0
  188.9970  176.4420  145.1990 N   0  0  0  0  0  2  0  0  0  0  0  0
  185.4720  178.8810  147.2030 C   0  0  0  0  0  0  0  0  0  0  0  0
  184.4360  179.2440  146.3540 O   0  0  0  0  0  0  0  0  0  0  0  0
  185.9430  179.7250  148.0110 O   0  0  0  0  0  1  0  0  0  0  0  0
  188.9240  176.5550  141.8310 O   0  0  0  0  0  0  0  0  0  0  0  0
  188.5130  177.8910  141.8360 C   0  0  0  0  0  2  0  0  0  0  0  0
  187.0750  177.9980  141.3620 C   0  0  0  0  0  2  0  0  0  0  0  0
  186.2180  178.0620  142.4630 O   0  0  0  0  0  0  0  0  0  0  0  0
  182.8090  178.6320  141.6630 C   0  0  1  0  0  3  0  0  0  0  0  0
  184.8290  177.9500  140.5330 C   0  0  0  0  0  2  0  0  0  0  0  0
  184.9890  177.5980  141.9930 C   0  0  2  0  0  3  0  0  0  0  0  0
  183.3420  178.1250  140.3370 C   0  0  0  0  0  2  0  0  0  0  0  0
  181.6170  177.9760  141.9670 O   0  0  0  0  0  1  0  0  0  0  0  0
  183.8580  178.3070  142.7130 C   0  0  0  0  0  2  0  0  0  0  0  0
  3  1  1  6  0  0  0
  3  2  1  0  0  0  0
  3 11  1  0  0  0  0
  4  5  1  0  0  0  0
  4  3  1  0  0  0  0
  5 25  1  6  0  0  0
  5  6  1  0  0  0  0
  6  2  1  0  0  0  0
  6 21  1  1  0  0  0
  7 14  1  1  0  0  0
  7 12  1  0  0  0  0
  9 10  1  0  0  0  0
  9  7  1  0  0  0  0
 11 10  1  6  0  0  0
 11 13  1  0  0  0  0
 13 12  1  0  0  0  0
 13  8  1  1  0  0  0
 14 15  1  0  0  0  0
 16 18  2  0  0  0  0
 16 17  1  0  0  0  0
 17 20  1  0  0  0  0
 18 19  1  0  0  0  0
 19 20  1  0  0  0  0
 20 22  1  6  0  0  0
 21 18  1  0  0  0  0
 22 24  1  0  0  0  0
 23 22  2  0  0  0  0
 25 26  1  0  0  0  0
 27 26  1  0  0  0  0
 27 28  1  0  0  0  0
 29 33  1  1  0  0  0
 29 34  1  0  0  0  0
 30 31  1  0  0  0  0
 31 28  1  1  0  0  0
 31 34  1  0  0  0  0
 32 30  1  0  0  0  0
 32 29  1  0  0  0  0
M  END
>  <MODEL>
4

>  <REMARK>
 VINA RESULT:      -6.2      1.965      2.850
  Name = 
  9 active torsions:
  status: ('A' for Active; 'I' for Inactive)
    1  A    between atoms: C_1  and  C_10
    2  A    between atoms: C_6  and  C_30
    3  A    between atoms: O_11  and  C_12
    4  A    between atoms: O_11  and  C_31
    5  A    between atoms: C_12  and  C_26
    6  A    between atoms: O_15  and  C_16
    7  A    between atoms: O_15  and  C_26
    8  A    between atoms: N_20  and  C_25
    9  A    between atoms: N_33  and  C_34
                            x       y       z     vdW  Elec       q    Type
                         _______ _______ _______ _____ _____    ______ ____

>  <TORSDO>
F 9

$$$$
=
 OpenBabel11042418423D

 34 37  0  0  1  0  0  0  0  0999 V2000
  193.9870  174.0410  144.0160 C   0  0  0  0  0  1  0  0  0  0  0  0
  191.9650  175.3580  143.4210 C   0  0  0  0  0  2  0  0  0  0  0  0
  192.4640  174.0210  143.9490 C   0  0  2  0  0  0  0  0  0  0  0  0
  191.8960  173.9550  145.3590 C   0  0  0  0  0  2  0  0  0  0  0  0
  190.5770  174.6980  145.3160 C   0  0  2  0  0  3  0  0  0  0  0  0
  190.6550  175.6510  144.1340 C   0  0  2  0  0  3  0  0  0  0  0  0
  193.6490  170.6170  142.9460 C   0  0  2  0  0  3  0  0  0  0  0  0
  192.3120  173.2100  140.7660 N   0  0  0  0  0  1  0  0  0  0  0  0
  192.7660  170.7870  144.1870 C   0  0  0  0  0  2  0  0  0  0  0  0
  191.5800  171.7200  143.9170 C   0  0  0  0  0  2  0  0  0  0  0  0
  191.9470  172.9070  143.1140 N   0  0  2  0  0  0  0  0  0  0  0  0
  193.0010  171.1650  141.7610 N   0  0  0  0  0  2  0  0  0  0  0  0
  192.8420  172.6030  141.9720 C   0  0  1  0  0  3  0  0  0  0  0  0
  193.9640  169.1500  142.7210 C   0  0  0  0  0  2  0  0  0  0  0  0
  192.9320  168.5430  141.9000 N   0  0  0  0  0  1  0  0  0  0  0  0
  189.2470  177.6660  142.5690 N   0  0  0  0  0  0  0  0  0  0  0  0
  188.4950  178.4300  141.6800 N   0  0  0  0  0  2  0  0  0  0  0  0
  188.9180  176.4260  142.4710 C   0  0  0  0  0  0  0  0  0  0  0  0
  187.8530  176.1680  141.4680 C   0  0  0  0  0  2  0  0  0  0  0  0
  187.5980  177.5760  140.9170 C   0  0  1  0  0  3  0  0  0  0  0  0
  189.5380  175.3930  143.2410 N   0  0  0  0  0  2  0  0  0  0  0  0
  186.1770  177.9770  141.1390 C   0  0  0  0  0  0  0  0  0  0  0  0
  185.2370  177.7500  140.1430 O   0  0  0  0  0  0  0  0  0  0  0  0
  185.8200  178.5000  142.2280 O   0  0  0  0  0  1  0  0  0  0  0  0
  190.4010  175.4190  146.4990 O   0  0  0  0  0  0  0  0  0  0  0  0
  189.1700  174.9880  147.0040 C   0  0  0  0  0  2  0  0  0  0  0  0
  188.1810  176.1390  147.0210 C   0  0  0  0  0  2  0  0  0  0  0  0
  187.5310  176.2220  145.7880 O   0  0  0  0  0  0  0  0  0  0  0  0
  184.5120  177.9470  146.4880 C   0  0  1  0  0  3  0  0  0  0  0  0
  186.8000  177.9490  147.2530 C   0  0  0  0  0  2  0  0  0  0  0  0
  186.7970  177.4070  145.8430 C   0  0  2  0  0  3  0  0  0  0  0  0
  185.4860  178.6790  147.3910 C   0  0  0  0  0  2  0  0  0  0  0  0
  183.7370  178.8730  145.7910 O   0  0  0  0  0  1  0  0  0  0  0  0
  185.3420  177.1310  145.5120 C   0  0  0  0  0  2  0  0  0  0  0  0
  2  3  1  0  0  0  0
  2  6  1  0  0  0  0
  3  1  1  1  0  0  0
  3  4  1  0  0  0  0
  5  4  1  0  0  0  0
  5 25  1  1  0  0  0
  6 21  1  6  0  0  0
  6  5  1  0  0  0  0
  7 14  1  6  0  0  0
  7  9  1  0  0  0  0
 10  9  1  0  0  0  0
 11 10  1  1  0  0  0
 11  3  1  0  0  0  0
 12 13  1  0  0  0  0
 12  7  1  0  0  0  0
 13  8  1  6  0  0  0
 13 11  1  0  0  0  0
 15 14  1  0  0  0  0
 17 16  1  0  0  0  0
 18 16  2  0  0  0  0
 18 21  1  0  0  0  0
 19 18  1  0  0  0  0
 20 22  1  1  0  0  0
 20 19  1  0  0  0  0
 20 17  1  0  0  0  0
 22 24  1  0  0  0  0
 23 22  2  0  0  0  0
 25 26  1  0  0  0  0
 26 27  1  0  0  0  0
 28 27  1  0  0  0  0
 29 33  1  6  0  0  0
 29 32  1  0  0  0  0
 30 32  1  0  0  0  0
 31 28  1  1  0  0  0
 31 30  1  0  0  0  0
 34 31  1  0  0  0  0
 34 29  1  0  0  0  0
M  END
>  <MODEL>
5

>  <REMARK>
 VINA RESULT:      -6.2      2.857      4.970
  Name = 
  9 active torsions:
  status: ('A' for Active; 'I' for Inactive)
    1  A    between atoms: C_1  and  C_10
    2  A    between atoms: C_6  and  C_30
    3  A    between atoms: O_11  and  C_12
    4  A    between atoms: O_11  and  C_31
    5  A    between atoms: C_12  and  C_26
    6  A    between atoms: O_15  and  C_16
    7  A    between atoms: O_15  and  C_26
    8  A    between atoms: N_20  and  C_25
    9  A    between atoms: N_33  and  C_34
                            x       y       z     vdW  Elec       q    Type
                         _______ _______ _______ _____ _____    ______ ____

>  <TORSDO>
F 9

$$$$
=
 OpenBabel11042418423D

 34 37  0  0  1  0  0  0  0  0999 V2000
  194.8320  173.4720  145.6350 C   0  0  0  0  0  1  0  0  0  0  0  0
  192.5490  174.3870  145.9940 C   0  0  0  0  0  2  0  0  0  0  0  0
  193.6180  174.0920  144.9530 C   0  0  2  0  0  0  0  0  0  0  0  0
  192.9640  173.0610  144.0460 C   0  0  0  0  0  2  0  0  0  0  0  0
  191.4840  173.3810  144.0430 C   0  0  2  0  0  3  0  0  0  0  0  0
  191.2050  174.1500  145.3240 C   0  0  2  0  0  3  0  0  0  0  0  0
  196.5970  175.3880  143.0950 C   0  0  2  0  0  3  0  0  0  0  0  0
  194.6200  177.1590  145.5890 N   0  0  0  0  0  1  0  0  0  0  0  0
  195.5070  174.6090  142.3500 C   0  0  0  0  0  2  0  0  0  0  0  0
  194.1030  175.0790  142.7450 C   0  0  0  0  0  2  0  0  0  0  0  0
  193.9600  175.3250  144.1970 N   0  0  2  0  0  0  0  0  0  0  0  0
  196.0380  176.5450  143.7840 N   0  0  0  0  0  2  0  0  0  0  0  0
  195.1080  176.0470  144.7960 C   0  0  1  0  0  3  0  0  0  0  0  0
  197.6740  175.8430  142.1280 C   0  0  0  0  0  2  0  0  0  0  0  0
  197.0980  176.0540  140.8120 N   0  0  0  0  0  1  0  0  0  0  0  0
  188.8650  175.2880  146.6360 N   0  0  0  0  0  0  0  0  0  0  0  0
  187.8280  176.0540  147.1630 N   0  0  0  0  0  2  0  0  0  0  0  0
  189.4640  175.9420  145.7030 C   0  0  0  0  0  0  0  0  0  0  0  0
  188.8900  177.2890  145.4550 C   0  0  0  0  0  2  0  0  0  0  0  0
  187.7720  177.3490  146.5010 C   0  0  1  0  0  3  0  0  0  0  0  0
  190.5890  175.4240  144.9900 N   0  0  0  0  0  2  0  0  0  0  0  0
  186.4460  177.5440  145.8430 C   0  0  0  0  0  0  0  0  0  0  0  0
  186.3100  178.5020  144.8480 O   0  0  0  0  0  0  0  0  0  0  0  0
  185.4570  176.8340  146.1680 O   0  0  0  0  0  1  0  0  0  0  0  0
  190.7440  172.1970  144.0280 O   0  0  0  0  0  0  0  0  0  0  0  0
  190.9090  171.6860  142.7370 C   0  0  0  0  0  2  0  0  0  0  0  0
  190.3640  172.6640  141.7130 C   0  0  0  0  0  2  0  0  0  0  0  0
  189.2620  172.1040  141.0630 O   0  0  0  0  0  0  0  0  0  0  0  0
  187.9450  175.1520  142.3110 C   0  0  1  0  0  3  0  0  0  0  0  0
  188.8630  174.3030  140.2480 C   0  0  0  0  0  2  0  0  0  0  0  0
  188.3120  173.1240  141.0140 C   0  0  2  0  0  3  0  0  0  0  0  0
  188.1930  175.5100  140.8580 C   0  0  0  0  0  2  0  0  0  0  0  0
  186.6720  175.5790  142.6850 O   0  0  0  0  0  1  0  0  0  0  0  0
  188.0300  173.6380  142.4130 C   0  0  0  0  0  2  0  0  0  0  0  0
  3  1  1  1  0  0  0
  3  2  1  0  0  0  0
  4  3  1  0  0  0  0
  5 25  1  1  0  0  0
  5  4  1  0  0  0  0
  5  6  1  0  0  0  0
  6 21  1  6  0  0  0
  6  2  1  0  0  0  0
  7 14  1  6  0  0  0
  7 12  1  0  0  0  0
  9 10  1  0  0  0  0
  9  7  1  0  0  0  0
 11 10  1  6  0  0  0
 11 13  1  0  0  0  0
 11  3  1  0  0  0  0
 12 13  1  0  0  0  0
 13  8  1  6  0  0  0
 15 14  1  0  0  0  0
 16 17  1  0  0  0  0
 18 16  2  0  0  0  0
 19 18  1  0  0  0  0
 19 20  1  0  0  0  0
 20 22  1  6  0  0  0
 20 17  1  0  0  0  0
 21 18  1  0  0  0  0
 22 24  1  0  0  0  0
 23 22  2  0  0  0  0
 26 25  1  0  0  0  0
 27 26  1  0  0  0  0
 28 27  1  0  0  0  0
 29 34  1  0  0  0  0
 29 33  1  6  0  0  0
 30 32  1  0  0  0  0
 30 31  1  0  0  0  0
 31 28  1  1  0  0  0
 31 34  1  0  0  0  0
 32 29  1  0  0  0  0
M  END
>  <MODEL>
6

>  <REMARK>
 VINA RESULT:      -6.0      1.410      1.908
  Name = 
  9 active torsions:
  status: ('A' for Active; 'I' for Inactive)
    1  A    between atoms: C_1  and  C_10
    2  A    between atoms: C_6  and  C_30
    3  A    between atoms: O_11  and  C_12
    4  A    between atoms: O_11  and  C_31
    5  A    between atoms: C_12  and  C_26
    6  A    between atoms: O_15  and  C_16
    7  A    between atoms: O_15  and  C_26
    8  A    between atoms: N_20  and  C_25
    9  A    between atoms: N_33  and  C_34
                            x       y       z     vdW  Elec       q    Type
                         _______ _______ _______ _____ _____    ______ ____

>  <TORSDO>
F 9

$$$$
=
 OpenBabel11042418423D

 34 37  0  0  1  0  0  0  0  0999 V2000
  187.5250  173.0200  141.7280 C   0  0  0  0  0  1  0  0  0  0  0  0
  189.0070  174.5280  143.0340 C   0  0  0  0  0  2  0  0  0  0  0  0
  188.4950  174.1920  141.6420 C   0  0  2  0  0  0  0  0  0  0  0  0
  187.7400  175.4450  141.2240 C   0  0  0  0  0  2  0  0  0  0  0  0
  188.4530  176.6060  141.8830 C   0  0  2  0  0  3  0  0  0  0  0  0
  189.1900  176.0360  143.0840 C   0  0  2  0  0  3  0  0  0  0  0  0
  189.3970  171.5390  139.1620 C   0  0  2  0  0  3  0  0  0  0  0  0
  191.5170  172.9040  141.7890 N   0  0  0  0  0  1  0  0  0  0  0  0
  188.6450  172.7940  138.7030 C   0  0  0  0  0  2  0  0  0  0  0  0
  189.2540  174.0690  139.2990 C   0  0  0  0  0  2  0  0  0  0  0  0
  189.6300  173.9240  140.7220 N   0  0  2  0  0  0  0  0  0  0  0  0
  190.6470  171.8880  139.8250 N   0  0  0  0  0  2  0  0  0  0  0  0
  190.3080  172.6420  141.0320 C   0  0  1  0  0  3  0  0  0  0  0  0
  189.6850  170.6370  137.9770 C   0  0  0  0  0  2  0  0  0  0  0  0
  190.1770  171.4260  136.8620 N   0  0  0  0  0  1  0  0  0  0  0  0
  191.1930  175.5660  145.1480 N   0  0  0  0  0  0  0  0  0  0  0  0
  192.3190  175.3630  145.9430 N   0  0  0  0  0  2  0  0  0  0  0  0
  191.5380  176.0700  144.0160 C   0  0  0  0  0  0  0  0  0  0  0  0
  193.0010  176.2940  143.8830 C   0  0  0  0  0  2  0  0  0  0  0  0
  193.5190  175.7700  145.2270 C   0  0  1  0  0  3  0  0  0  0  0  0
  190.6020  176.3660  142.9780 N   0  0  0  0  0  2  0  0  0  0  0  0
  194.2330  176.8490  145.9720 C   0  0  0  0  0  0  0  0  0  0  0  0
  193.8280  177.1770  147.2590 O   0  0  0  0  0  1  0  0  0  0  0  0
  195.2120  177.4490  145.4530 O   0  0  0  0  0  0  0  0  0  0  0  0
  187.5210  177.5570  142.3040 O   0  0  0  0  0  0  0  0  0  0  0  0
  186.3340  177.2120  141.6510 C   0  0  0  0  0  2  0  0  0  0  0  0
  185.1400  177.7590  142.4110 C   0  0  0  0  0  2  0  0  0  0  0  0
  185.5800  178.5550  143.4720 O   0  0  0  0  0  0  0  0  0  0  0  0
  185.9220  177.9520  146.9510 C   0  0  1  0  0  3  0  0  0  0  0  0
  184.2080  178.6720  145.4130 C   0  0  0  0  0  2  0  0  0  0  0  0
  185.2090  177.8620  144.6240 C   0  0  2  0  0  3  0  0  0  0  0  0
  184.4460  178.2880  146.8530 C   0  0  0  0  0  2  0  0  0  0  0  0
  186.0880  176.8050  147.7260 O   0  0  0  0  0  1  0  0  0  0  0  0
  186.4090  177.6910  145.5350 C   0  0  0  0  0  2  0  0  0  0  0  0
  2  6  1  0  0  0  0
  3  1  1  1  0  0  0
  3  2  1  0  0  0  0
  4  3  1  0  0  0  0
  4  5  1  0  0  0  0
  5 25  1  1  0  0  0
  5  6  1  0  0  0  0
  6 21  1  6  0  0  0
  7 14  1  6  0  0  0
  7 12  1  0  0  0  0
  9  7  1  0  0  0  0
  9 10  1  0  0  0  0
 11 10  1  6  0  0  0
 11 13  1  0  0  0  0
 11  3  1  0  0  0  0
 12 13  1  0  0  0  0
 13  8  1  6  0  0  0
 15 14  1  0  0  0  0
 16 17  1  0  0  0  0
 18 16  2  0  0  0  0
 19 18  1  0  0  0  0
 19 20  1  0  0  0  0
 20 17  1  0  0  0  0
 20 22  1  1  0  0  0
 21 18  1  0  0  0  0
 22 23  1  0  0  0  0
 24 22  2  0  0  0  0
 26 25  1  0  0  0  0
 26 27  1  0  0  0  0
 27 28  1  0  0  0  0
 29 33  1  1  0  0  0
 30 32  1  0  0  0  0
 31 28  1  6  0  0  0
 31 30  1  0  0  0  0
 31 34  1  0  0  0  0
 32 29  1  0  0  0  0
 34 29  1  0  0  0  0
M  END
>  <MODEL>
7

>  <REMARK>
 VINA RESULT:      -5.9      3.284      6.370
  Name = 
  9 active torsions:
  status: ('A' for Active; 'I' for Inactive)
    1  A    between atoms: C_1  and  C_10
    2  A    between atoms: C_6  and  C_30
    3  A    between atoms: O_11  and  C_12
    4  A    between atoms: O_11  and  C_31
    5  A    between atoms: C_12  and  C_26
    6  A    between atoms: O_15  and  C_16
    7  A    between atoms: O_15  and  C_26
    8  A    between atoms: N_20  and  C_25
    9  A    between atoms: N_33  and  C_34
                            x       y       z     vdW  Elec       q    Type
                         _______ _______ _______ _____ _____    ______ ____

>  <TORSDO>
F 9

$$$$
=
 OpenBabel11042418423D

 34 37  0  0  1  0  0  0  0  0999 V2000
  191.0620  177.6880  143.7840 C   0  0  0  0  0  1  0  0  0  0  0  0
  190.3360  175.7030  142.4760 C   0  0  0  0  0  2  0  0  0  0  0  0
  190.1330  176.4800  143.7680 C   0  0  2  0  0  0  0  0  0  0  0  0
  188.6900  176.9530  143.6820 C   0  0  0  0  0  2  0  0  0  0  0  0
  187.9430  175.8840  142.9110 C   0  0  2  0  0  3  0  0  0  0  0  0
  188.9790  175.1450  142.0800 C   0  0  2  0  0  3  0  0  0  0  0  0
  191.3340  176.8880  147.2890 C   0  0  2  0  0  3  0  0  0  0  0  0
  192.3860  174.3610  144.8860 N   0  0  0  0  0  1  0  0  0  0  0  0
  189.8390  176.9960  146.9710 C   0  0  0  0  0  2  0  0  0  0  0  0
  189.3740  175.8750  146.0350 C   0  0  0  0  0  2  0  0  0  0  0  0
  190.3330  175.5940  144.9440 N   0  0  2  0  0  0  0  0  0  0  0  0
  191.8750  175.6100  146.8420 N   0  0  0  0  0  2  0  0  0  0  0  0
  191.7480  175.5640  145.3860 C   0  0  1  0  0  3  0  0  0  0  0  0
  191.5680  177.0460  148.7790 C   0  0  0  0  0  2  0  0  0  0  0  0
  190.9990  178.2990  149.2390 N   0  0  0  0  0  1  0  0  0  0  0  0
  190.8720  173.1300  141.1590 N   0  0  0  0  0  0  0  0  0  0  0  0
  191.6850  172.0270  140.9120 N   0  0  0  0  0  2  0  0  0  0  0  0
  189.9040  172.7980  141.9400 C   0  0  0  0  0  0  0  0  0  0  0  0
  189.9240  171.3680  142.3400 C   0  0  0  0  0  2  0  0  0  0  0  0
  191.1870  170.8640  141.6320 C   0  0  1  0  0  3  0  0  0  0  0  0
  188.9170  173.7270  142.3930 N   0  0  0  0  0  2  0  0  0  0  0  0
  190.8520  169.7630  140.6810 C   0  0  0  0  0  0  0  0  0  0  0  0
  191.0150  169.9620  139.3170 O   0  0  0  0  0  0  0  0  0  0  0  0
  190.4420  168.6490  141.1060 O   0  0  0  0  0  1  0  0  0  0  0  0
  186.9960  176.4780  142.0740 O   0  0  0  0  0  0  0  0  0  0  0  0
  186.5730  177.6200  142.7610 C   0  0  0  0  0  2  0  0  0  0  0  0
  185.1180  177.4770  143.1670 C   0  0  0  0  0  2  0  0  0  0  0  0
  184.8290  178.3570  144.2120 O   0  0  0  0  0  0  0  0  0  0  0  0
  185.8930  178.4330  147.5950 C   0  0  1  0  0  3  0  0  0  0  0  0
  185.4700  176.7880  145.8830 C   0  0  0  0  0  2  0  0  0  0  0  0
  185.7910  178.0890  145.1870 C   0  0  2  0  0  3  0  0  0  0  0  0
  186.0070  176.9530  147.2840 C   0  0  0  0  0  2  0  0  0  0  0  0
  187.0520  178.8640  148.2410 O   0  0  0  0  0  1  0  0  0  0  0  0
  185.7450  179.1540  146.2660 C   0  0  0  0  0  2  0  0  0  0  0  0
  2  3  1  0  0  0  0
  3  1  1  1  0  0  0
  3 11  1  0  0  0  0
  4  3  1  0  0  0  0
  5 25  1  6  0  0  0
  5  4  1  0  0  0  0
  6 21  1  1  0  0  0
  6  2  1  0  0  0  0
  6  5  1  0  0  0  0
  7 14  1  1  0  0  0
  9  7  1  0  0  0  0
 10  9  1  0  0  0  0
 11 13  1  0  0  0  0
 11 10  1  1  0  0  0
 12  7  1  0  0  0  0
 13  8  1  1  0  0  0
 13 12  1  0  0  0  0
 14 15  1  0  0  0  0
 16 18  2  0  0  0  0
 17 16  1  0  0  0  0
 17 20  1  0  0  0  0
 18 19  1  0  0  0  0
 18 21  1  0  0  0  0
 20 22  1  6  0  0  0
 20 19  1  0  0  0  0
 22 24  1  0  0  0  0
 23 22  2  0  0  0  0
 25 26  1  0  0  0  0
 26 27  1  0  0  0  0
 27 28  1  0  0  0  0
 29 33  1  6  0  0  0
 30 32  1  0  0  0  0
 31 28  1  6  0  0  0
 31 30  1  0  0  0  0
 31 34  1  0  0  0  0
 32 29  1  0  0  0  0
 34 29  1  0  0  0  0
M  END
>  <MODEL>
8

>  <REMARK>
 VINA RESULT:      -5.9      2.740      6.453
  Name = 
  9 active torsions:
  status: ('A' for Active; 'I' for Inactive)
    1  A    between atoms: C_1  and  C_10
    2  A    between atoms: C_6  and  C_30
    3  A    between atoms: O_11  and  C_12
    4  A    between atoms: O_11  and  C_31
    5  A    between atoms: C_12  and  C_26
    6  A    between atoms: O_15  and  C_16
    7  A    between atoms: O_15  and  C_26
    8  A    between atoms: N_20  and  C_25
    9  A    between atoms: N_33  and  C_34
                            x       y       z     vdW  Elec       q    Type
                         _______ _______ _______ _____ _____    ______ ____

>  <TORSDO>
F 9

$$$$
=
 OpenBabel11042418423D

 34 37  0  0  1  0  0  0  0  0999 V2000
  192.9470  173.5670  145.3260 C   0  0  0  0  0  1  0  0  0  0  0  0
  190.8260  174.6970  145.9620 C   0  0  0  0  0  2  0  0  0  0  0  0
  191.9570  174.6620  144.9440 C   0  0  2  0  0  0  0  0  0  0  0  0
  191.2620  174.2850  143.6450 C   0  0  0  0  0  2  0  0  0  0  0  0
  189.8710  174.8800  143.7250 C   0  0  2  0  0  3  0  0  0  0  0  0
  189.5620  175.0620  145.2020 C   0  0  2  0  0  3  0  0  0  0  0  0
  195.2690  175.9850  143.8110 C   0  0  2  0  0  3  0  0  0  0  0  0
  193.5180  176.7960  146.8990 N   0  0  0  0  0  1  0  0  0  0  0  0
  194.1010  175.8910  142.8220 C   0  0  0  0  0  2  0  0  0  0  0  0
  192.7970  176.4190  143.4320 C   0  0  0  0  0  2  0  0  0  0  0  0
  192.6000  175.9960  144.8360 N   0  0  2  0  0  0  0  0  0  0  0  0
  194.9100  176.7870  144.9740 N   0  0  0  0  0  2  0  0  0  0  0  0
  193.8240  176.0950  145.6670 C   0  0  1  0  0  3  0  0  0  0  0  0
  196.4850  176.5870  143.1320 C   0  0  0  0  0  2  0  0  0  0  0  0
  196.2140  176.7900  141.7210 N   0  0  0  0  0  1  0  0  0  0  0  0
  186.9090  176.0540  145.8870 N   0  0  0  0  0  0  0  0  0  0  0  0
  185.7660  176.7340  146.3010 N   0  0  0  0  0  2  0  0  0  0  0  0
  187.9050  176.8660  145.8210 C   0  0  0  0  0  0  0  0  0  0  0  0
  187.5610  178.2630  146.1880 C   0  0  0  0  0  2  0  0  0  0  0  0
  186.0750  178.1360  146.5420 C   0  0  1  0  0  3  0  0  0  0  0  0
  189.2220  176.4540  145.4490 N   0  0  0  0  0  2  0  0  0  0  0  0
  185.2480  179.0140  145.6610 C   0  0  0  0  0  0  0  0  0  0  0  0
  185.8670  179.7890  144.6910 O   0  0  0  0  0  0  0  0  0  0  0  0
  183.9940  179.0410  145.7770 O   0  0  0  0  0  1  0  0  0  0  0  0
  188.9480  174.0040  143.1490 O   0  0  0  0  0  0  0  0  0  0  0  0
  188.2080  174.7930  142.2620 C   0  0  0  0  0  2  0  0  0  0  0  0
  188.5460  174.4250  140.8290 C   0  0  0  0  0  2  0  0  0  0  0  0
  188.3940  173.0480  140.6460 O   0  0  0  0  0  0  0  0  0  0  0  0
  189.5620  173.7900  137.3800 C   0  0  1  0  0  3  0  0  0  0  0  0
  189.3600  171.8660  138.8210 C   0  0  0  0  0  2  0  0  0  0  0  0
  188.3240  172.8710  139.2640 C   0  0  2  0  0  3  0  0  0  0  0  0
  189.7310  172.2830  137.4180 C   0  0  0  0  0  2  0  0  0  0  0  0
  188.9430  174.1600  136.1870 O   0  0  0  0  0  1  0  0  0  0  0  0
  188.6780  174.1660  138.5570 C   0  0  0  0  0  2  0  0  0  0  0  0
  3  1  1  1  0  0  0
  3  2  1  0  0  0  0
  4  5  1  0  0  0  0
  4  3  1  0  0  0  0
  5 25  1  1  0  0  0
  5  6  1  0  0  0  0
  6 21  1  6  0  0  0
  6  2  1  0  0  0  0
  7 14  1  6  0  0  0
  7 12  1  0  0  0  0
  9 10  1  0  0  0  0
  9  7  1  0  0  0  0
 11 10  1  6  0  0  0
 11  3  1  0  0  0  0
 11 13  1  0  0  0  0
 12 13  1  0  0  0  0
 13  8  1  1  0  0  0
 15 14  1  0  0  0  0
 16 17  1  0  0  0  0
 17 20  1  0  0  0  0
 18 16  2  0  0  0  0
 18 19  1  0  0  0  0
 19 20  1  0  0  0  0
 20 22  1  6  0  0  0
 21 18  1  0  0  0  0
 22 24  1  0  0  0  0
 23 22  2  0  0  0  0
 26 25  1  0  0  0  0
 27 26  1  0  0  0  0
 28 27  1  0  0  0  0
 29 33  1  6  0  0  0
 29 32  1  0  0  0  0
 29 34  1  0  0  0  0
 30 31  1  0  0  0  0
 31 28  1  1  0  0  0
 32 30  1  0  0  0  0
 34 31  1  0  0  0  0
M  END
>  <MODEL>
9

>  <REMARK>
 VINA RESULT:      -5.9      1.824      2.864
  Name = 
  9 active torsions:
  status: ('A' for Active; 'I' for Inactive)
    1  A    between atoms: C_1  and  C_10
    2  A    between atoms: C_6  and  C_30
    3  A    between atoms: O_11  and  C_12
    4  A    between atoms: O_11  and  C_31
    5  A    between atoms: C_12  and  C_26
    6  A    between atoms: O_15  and  C_16
    7  A    between atoms: O_15  and  C_26
    8  A    between atoms: N_20  and  C_25
    9  A    between atoms: N_33  and  C_34
                            x       y       z     vdW  Elec       q    Type
                         _______ _______ _______ _____ _____    ______ ____

>  <TORSDO>
F 9

$$$$
