=
 OpenBabel11042414383D

 46 48  0  0  1  0  0  0  0  0999 V2000
  188.2860  175.4610  141.9430 C   0  0  0  0  0  0  0  0  0  0  0  0
  194.8840  172.7590  145.0040 C   0  0  2  0  0  3  0  0  0  0  0  0
  191.8000  176.4720  145.9430 C   0  0  0  0  0  2  0  0  0  0  0  0
  195.8090  174.9380  145.3270 O   0  0  0  0  0  0  0  0  0  0  0  0
  193.4830  174.7830  145.4890 N   0  0  0  0  0  2  0  0  0  0  0  0
  188.4450  175.0480  140.6160 O   0  0  0  0  0  0  0  0  0  0  0  0
  189.2380  176.1860  145.0540 S   0  0  0  0  0  0  0  0  0  0  0  0
  193.2740  176.2080  145.6940 C   0  0  0  0  0  2  0  0  0  0  0  0
  189.1890  172.6070  141.9470 N   0  0  0  0  0  2  0  0  0  0  0  0
  188.9610  176.6450  142.3820 N   0  0  0  0  0  2  0  0  0  0  0  0
  187.5230  174.8310  142.7280 O   0  0  0  0  0  0  0  0  0  0  0  0
  188.7550  177.2940  143.6790 C   0  0  1  0  0  3  0  0  0  0  0  0
  191.7350  170.1660  142.1920 C   0  0  2  0  0  3  0  0  0  0  0  0
  196.2260  170.3600  144.3040 N   0  0  0  0  0  0  0  0  0  0  0  0
  188.1090  173.7770  140.1280 C   0  0  0  0  0  3  0  0  0  0  0  0
  194.7760  174.2170  145.2870 C   0  0  0  0  0  0  0  0  0  0  0  0
  189.7200  171.4480  142.4060 O   0  0  0  0  0  0  0  0  0  0  0  0
  191.0080  176.2950  144.6610 C   0  0  0  0  0  2  0  0  0  0  0  0
  191.0720  171.5270  142.0660 C   0  0  0  0  0  2  0  0  0  0  0  0
  195.3230  170.9790  143.3210 C   0  0  2  0  0  3  0  0  0  0  0  0
  193.1800  170.3300  142.1610 N   0  0  0  0  0  2  0  0  0  0  0  0
  196.4750  170.8790  145.4720 C   0  0  0  0  0  3  0  0  0  0  0  0
  195.8860  172.1270  145.8590 N   0  0  0  0  0  2  0  0  0  0  0  0
  188.4410  172.6330  140.7310 C   0  0  0  0  0  3  0  0  0  0  0  0
  195.2090  172.4950  143.5390 C   0  0  0  0  0  2  0  0  0  0  0  0
  193.9630  170.3490  143.3540 C   0  0  0  0  0  0  0  0  0  0  0  0
  193.4860  169.9050  144.4350 O   0  0  0  0  0  0  0  0  0  0  0  0
  187.3520  177.8390  143.8150 C   0  0  0  0  0  0  0  0  0  0  0  0
  186.1860  178.7320  141.7320 O   0  0  0  0  0  0  0  0  0  0  0  0
  186.7530  178.2980  142.7460 C   0  0  0  0  0  0  0  0  0  0  0  0
  186.8630  178.3280  145.1520 C   0  0  0  0  0  2  0  0  0  0  0  0
  184.4270  178.2310  145.7960 C   0  0  0  0  0  1  0  0  0  0  0  0
  186.1040  177.0480  147.1870 C   0  0  0  0  0  1  0  0  0  0  0  0
  185.5900  176.3410  145.0040 F   0  0  0  0  0  0  0  0  0  0  0  0
  185.7470  177.4770  145.7750 C   0  0  0  0  0  0  0  0  0  0  0  0
  191.1940  169.0320  140.8630 S   0  0  0  0  0  0  0  0  0  0  0  0
  190.6950  170.2400  138.4700 C   0  0  0  0  0  3  0  0  0  0  0  0
  191.5230  170.1700  139.5110 C   0  0  0  0  0  3  0  0  0  0  0  0
  190.9570  171.1910  137.3420 C   0  0  1  0  0  3  0  0  0  0  0  0
  190.8630  171.3990  134.7970 C   0  0  0  0  0  2  0  0  0  0  0  0
  190.4100  170.6150  136.0160 C   0  0  0  0  0  3  0  0  0  0  0  0
  189.4420  171.5530  135.3140 C   0  0  0  0  0  2  0  0  0  0  0  0
  190.4750  172.6000  137.7070 C   0  0  0  0  0  2  0  0  0  0  0  0
  191.6400  173.5320  138.0040 C   0  0  0  0  0  2  0  0  0  0  0  0
  191.7060  173.8070  139.3680 O   0  0  0  0  0  0  0  0  0  0  0  0
  193.0500  173.6100  139.6940 C   0  0  0  0  0  1  0  0  0  0  0  0
  1 10  1  0  0  0  0
  1 11  2  0  0  0  0
  2 25  1  6  0  0  0
  2 16  1  0  0  0  0
  2 23  1  0  0  0  0
  5  8  1  0  0  0  0
  6  1  1  0  0  0  0
  8  3  1  0  0  0  0
  9 17  1  0  0  0  0
 10 12  1  0  0  0  0
 12 28  1  1  0  0  0
 12  7  1  0  0  0  0
 13 36  1  6  0  0  0
 14 22  2  0  0  0  0
 15  6  1  0  0  0  0
 15 24  2  0  0  0  0
 16  4  2  0  0  0  0
 16  5  1  0  0  0  0
 18  7  1  0  0  0  0
 18  3  1  0  0  0  0
 19 13  1  0  0  0  0
 19 17  1  0  0  0  0
 20 26  1  0  0  0  0
 20 25  1  1  0  0  0
 20 14  1  0  0  0  0
 21 13  1  0  0  0  0
 21 26  1  0  0  0  0
 22 23  1  0  0  0  0
 24  9  1  0  0  0  0
 26 27  2  0  0  0  0
 28 31  1  0  0  0  0
 29 30  2  0  0  0  0
 30 28  2  0  0  0  0
 31 35  1  0  0  0  0
 34 35  1  0  0  0  0
 35 32  1  0  0  0  0
 35 33  1  0  0  0  0
 37 38  2  0  0  0  0
 38 36  1  0  0  0  0
 39 43  1  1  0  0  0
 39 37  1  0  0  0  0
 40 42  1  0  0  0  0
 40 41  1  0  0  0  0
 41 39  1  0  0  0  0
 42 41  1  0  0  0  0
 43 44  1  0  0  0  0
 44 45  1  0  0  0  0
 45 46  1  0  0  0  0
M  END
>  <MODEL>
1

>  <REMARK>
 VINA RESULT:      -7.0      0.000      0.000
  Name = 
  10 active torsions:
  status: ('A' for Active; 'I' for Inactive)
    1  A    between atoms: C_4  and  C_32
    2  A    between atoms: O_11  and  C_26
    3  A    between atoms: C_13  and  C_32
    4  A    between atoms: C_14  and  S_16
    5  A    between atoms: S_16  and  C_23
    6  A    between atoms: C_19  and  C_20
    7  A    between atoms: C_19  and  C_25
    8  A    between atoms: C_25  and  C_38
    9  A    between atoms: C_26  and  C_36
   10  A    between atoms: C_32  and  C_36
                            x       y       z     vdW  Elec       q    Type
                         _______ _______ _______ _____ _____    ______ ____

>  <TORSDO>
F 10

$$$$
=
 OpenBabel11042414383D

 46 48  0  0  1  0  0  0  0  0999 V2000
  189.8790  176.0900  146.0370 C   0  0  0  0  0  0  0  0  0  0  0  0
  192.2700  172.5880  139.5390 C   0  0  2  0  0  3  0  0  0  0  0  0
  188.2940  175.1180  140.9460 C   0  0  0  0  0  2  0  0  0  0  0  0
  190.1200  171.6650  139.0590 O   0  0  0  0  0  0  0  0  0  0  0  0
  190.1220  173.7190  140.1750 N   0  0  0  0  0  2  0  0  0  0  0  0
  190.5470  175.3170  146.9910 O   0  0  0  0  0  0  0  0  0  0  0  0
  188.6170  176.8310  143.0420 S   0  0  0  0  0  0  0  0  0  0  0  0
  188.6760  173.7920  140.3110 C   0  0  0  0  0  2  0  0  0  0  0  0
  192.7200  175.7570  145.1560 N   0  0  0  0  0  0  0  0  0  0  0  0
  188.6680  175.5830  145.4640 N   0  0  0  0  0  2  0  0  0  0  0  0
  190.3060  177.2360  145.7200 O   0  0  0  0  0  0  0  0  0  0  0  0
  187.7720  176.3460  144.5920 C   0  0  1  0  0  3  0  0  0  0  0  0
  195.1940  174.1160  143.2360 C   0  0  2  0  0  3  0  0  0  0  0  0
  194.8240  171.4490  139.0620 N   0  0  0  0  0  0  0  0  0  0  0  0
  191.8690  175.5270  147.4080 C   0  0  0  0  0  2  0  0  0  0  0  0
  190.7820  172.6130  139.5600 C   0  0  0  0  0  0  0  0  0  0  0  0
  193.7950  175.7260  144.3310 O   0  0  0  0  0  0  0  0  0  0  0  0
  188.6750  175.1280  142.4150 C   0  0  0  0  0  2  0  0  0  0  0  0
  193.8510  174.4040  143.8850 C   0  0  0  0  0  2  0  0  0  0  0  0
  194.3610  171.5930  140.4520 C   0  0  2  0  0  3  0  0  0  0  0  0
  195.1130  172.8670  142.4940 N   0  0  0  0  0  2  0  0  0  0  0  0
  194.1030  171.7810  138.0300 C   0  0  0  0  0  3  0  0  0  0  0  0
  192.7760  172.2950  138.2000 N   0  0  0  0  0  2  0  0  0  0  0  0
  192.8920  175.7360  146.5740 C   0  0  0  0  0  3  0  0  0  0  0  0
  192.8280  171.5800  140.5370 C   0  0  0  0  0  2  0  0  0  0  0  0
  194.9040  172.8400  141.0820 C   0  0  0  0  0  0  0  0  0  0  0  0
  195.1060  173.8760  140.3890 O   0  0  0  0  0  0  0  0  0  0  0  0
  187.1410  177.5110  145.3190 C   0  0  0  0  0  0  0  0  0  0  0  0
  186.2890  177.1460  147.6930 O   0  0  0  0  0  0  0  0  0  0  0  0
  186.7030  177.3240  146.5370 C   0  0  0  0  0  0  0  0  0  0  0  0
  186.5580  178.6570  144.5360 C   0  0  0  0  0  2  0  0  0  0  0  0
  185.3010  178.6210  142.3500 C   0  0  0  0  0  1  0  0  0  0  0  0
  184.0880  179.1510  144.4460 C   0  0  0  0  0  1  0  0  0  0  0  0
  184.9470  177.0030  144.0260 F   0  0  0  0  0  0  0  0  0  0  0  0
  185.2240  178.3440  143.8420 C   0  0  0  0  0  0  0  0  0  0  0  0
  196.5340  174.0330  144.4780 S   0  0  0  0  0  0  0  0  0  0  0  0
  196.0890  171.6640  145.7510 C   0  0  0  0  0  3  0  0  0  0  0  0
  196.5230  172.2420  144.6330 C   0  0  0  0  0  3  0  0  0  0  0  0
  196.0690  170.1720  145.8870 C   0  0  1  0  0  3  0  0  0  0  0  0
  197.7170  168.4550  146.8190 C   0  0  0  0  0  2  0  0  0  0  0  0
  196.9370  169.7300  147.0880 C   0  0  0  0  0  3  0  0  0  0  0  0
  196.4800  168.4180  147.7020 C   0  0  0  0  0  2  0  0  0  0  0  0
  194.6260  169.6520  145.8800 C   0  0  0  0  0  2  0  0  0  0  0  0
  194.2790  168.9780  144.5620 C   0  0  0  0  0  2  0  0  0  0  0  0
  192.9390  169.1930  144.2440 O   0  0  0  0  0  0  0  0  0  0  0  0
  192.8200  170.5820  144.1770 C   0  0  0  0  0  1  0  0  0  0  0  0
  1  6  1  0  0  0  0
  2 16  1  0  0  0  0
  2 25  1  1  0  0  0
  3 18  1  0  0  0  0
  4 16  2  0  0  0  0
  5  8  1  0  0  0  0
  6 15  1  0  0  0  0
  7 12  1  0  0  0  0
  8  3  1  0  0  0  0
  9 24  2  0  0  0  0
 10  1  1  0  0  0  0
 11  1  2  0  0  0  0
 12 28  1  1  0  0  0
 12 10  1  0  0  0  0
 13 19  1  0  0  0  0
 13 36  1  1  0  0  0
 14 20  1  0  0  0  0
 16  5  1  0  0  0  0
 17  9  1  0  0  0  0
 18  7  1  0  0  0  0
 19 17  1  0  0  0  0
 20 25  1  6  0  0  0
 20 26  1  0  0  0  0
 21 13  1  0  0  0  0
 22 23  1  0  0  0  0
 22 14  2  0  0  0  0
 23  2  1  0  0  0  0
 24 15  1  0  0  0  0
 26 21  1  0  0  0  0
 27 26  2  0  0  0  0
 28 30  2  0  0  0  0
 30 29  2  0  0  0  0
 31 28  1  0  0  0  0
 32 35  1  0  0  0  0
 35 34  1  0  0  0  0
 35 33  1  0  0  0  0
 35 31  1  0  0  0  0
 36 38  1  0  0  0  0
 38 37  2  0  0  0  0
 39 37  1  1  0  0  0
 39 41  1  0  0  0  0
 40 41  1  0  0  0  0
 40 42  1  0  0  0  0
 41 42  1  0  0  0  0
 43 39  1  0  0  0  0
 44 43  1  0  0  0  0
 45 44  1  0  0  0  0
 46 45  1  0  0  0  0
M  END
>  <MODEL>
2

>  <REMARK>
 VINA RESULT:      -7.0      2.792      6.815
  Name = 
  10 active torsions:
  status: ('A' for Active; 'I' for Inactive)
    1  A    between atoms: C_4  and  C_32
    2  A    between atoms: O_11  and  C_26
    3  A    between atoms: C_13  and  C_32
    4  A    between atoms: C_14  and  S_16
    5  A    between atoms: S_16  and  C_23
    6  A    between atoms: C_19  and  C_20
    7  A    between atoms: C_19  and  C_25
    8  A    between atoms: C_25  and  C_38
    9  A    between atoms: C_26  and  C_36
   10  A    between atoms: C_32  and  C_36
                            x       y       z     vdW  Elec       q    Type
                         _______ _______ _______ _____ _____    ______ ____

>  <TORSDO>
F 10

$$$$
=
 OpenBabel11042414383D

 46 48  0  0  1  0  0  0  0  0999 V2000
  190.3500  176.2640  145.5820 C   0  0  0  0  0  0  0  0  0  0  0  0
  192.5230  172.8210  138.9770 C   0  0  2  0  0  3  0  0  0  0  0  0
  188.3930  174.8320  140.7350 C   0  0  0  0  0  2  0  0  0  0  0  0
  190.4900  171.5830  138.7710 O   0  0  0  0  0  0  0  0  0  0  0  0
  190.3130  173.6680  139.8120 N   0  0  0  0  0  2  0  0  0  0  0  0
  191.2200  175.6410  146.4810 O   0  0  0  0  0  0  0  0  0  0  0  0
  188.6840  176.6740  142.7240 S   0  0  0  0  0  0  0  0  0  0  0  0
  188.8940  173.5440  140.1060 C   0  0  0  0  0  2  0  0  0  0  0  0
  193.1000  176.2920  144.4010 N   0  0  0  0  0  0  0  0  0  0  0  0
  189.1710  175.5660  145.1650 N   0  0  0  0  0  2  0  0  0  0  0  0
  190.5700  177.4420  145.1810 O   0  0  0  0  0  0  0  0  0  0  0  0
  188.0870  176.1510  144.3740 C   0  0  1  0  0  3  0  0  0  0  0  0
  195.5680  174.9240  142.2710 C   0  0  2  0  0  3  0  0  0  0  0  0
  195.1490  172.0310  138.2560 N   0  0  0  0  0  0  0  0  0  0  0  0
  192.5340  176.0550  146.7400 C   0  0  0  0  0  2  0  0  0  0  0  0
  191.0570  172.6380  139.1640 C   0  0  0  0  0  0  0  0  0  0  0  0
  194.0740  176.3720  143.4620 O   0  0  0  0  0  0  0  0  0  0  0  0
  188.9210  174.9670  142.1510 C   0  0  0  0  0  2  0  0  0  0  0  0
  194.2740  175.0510  143.0560 C   0  0  0  0  0  2  0  0  0  0  0  0
  194.8200  172.1760  139.6830 C   0  0  2  0  0  3  0  0  0  0  0  0
  195.5910  173.6410  141.5850 N   0  0  0  0  0  2  0  0  0  0  0  0
  194.2820  172.2080  137.3010 C   0  0  0  0  0  3  0  0  0  0  0  0
  192.9200  172.5370  137.6010 N   0  0  0  0  0  2  0  0  0  0  0  0
  193.4210  176.3650  145.7910 C   0  0  0  0  0  3  0  0  0  0  0  0
  193.3230  171.9520  139.9400 C   0  0  0  0  0  2  0  0  0  0  0  0
  195.2400  173.5160  140.2070 C   0  0  0  0  0  0  0  0  0  0  0  0
  195.2150  174.5350  139.4620 O   0  0  0  0  0  0  0  0  0  0  0  0
  187.3740  177.2490  145.1280 C   0  0  0  0  0  0  0  0  0  0  0  0
  186.4570  176.7350  147.4500 O   0  0  0  0  0  0  0  0  0  0  0  0
  186.9020  176.9860  146.3200 C   0  0  0  0  0  0  0  0  0  0  0  0
  186.7630  178.4020  144.3760 C   0  0  0  0  0  2  0  0  0  0  0  0
  185.2870  178.5360  142.3360 C   0  0  0  0  0  1  0  0  0  0  0  0
  184.2900  178.8370  144.5850 C   0  0  0  0  0  1  0  0  0  0  0  0
  185.1360  176.7600  143.8780 F   0  0  0  0  0  0  0  0  0  0  0  0
  185.3700  178.1200  143.7950 C   0  0  0  0  0  0  0  0  0  0  0  0
  197.0300  175.0910  143.3580 S   0  0  0  0  0  0  0  0  0  0  0  0
  196.3670  173.0990  145.0980 C   0  0  0  0  0  3  0  0  0  0  0  0
  196.9970  173.3990  143.9640 C   0  0  0  0  0  3  0  0  0  0  0  0
  196.3280  171.6900  145.6060 C   0  0  1  0  0  3  0  0  0  0  0  0
  194.0160  171.2960  144.5890 C   0  0  0  0  0  2  0  0  0  0  0  0
  194.8660  171.2470  145.8470 C   0  0  0  0  0  3  0  0  0  0  0  0
  193.8640  172.3720  145.6510 C   0  0  0  0  0  2  0  0  0  0  0  0
  197.1640  170.7720  144.7070 C   0  0  0  0  0  2  0  0  0  0  0  0
  197.8450  169.6720  145.5070 C   0  0  0  0  0  2  0  0  0  0  0  0
  196.9960  168.5750  145.6440 O   0  0  0  0  0  0  0  0  0  0  0  0
  197.0450  168.2710  147.0060 C   0  0  0  0  0  1  0  0  0  0  0  0
  1  6  1  0  0  0  0
  2 16  1  0  0  0  0
  2 25  1  1  0  0  0
  3 18  1  0  0  0  0
  4 16  2  0  0  0  0
  5  8  1  0  0  0  0
  6 15  1  0  0  0  0
  7 12  1  0  0  0  0
  8  3  1  0  0  0  0
  9 24  2  0  0  0  0
 10  1  1  0  0  0  0
 11  1  2  0  0  0  0
 12 28  1  1  0  0  0
 12 10  1  0  0  0  0
 13 19  1  0  0  0  0
 13 36  1  1  0  0  0
 14 20  1  0  0  0  0
 16  5  1  0  0  0  0
 17  9  1  0  0  0  0
 18  7  1  0  0  0  0
 19 17  1  0  0  0  0
 20 25  1  6  0  0  0
 20 26  1  0  0  0  0
 21 13  1  0  0  0  0
 22 23  1  0  0  0  0
 22 14  2  0  0  0  0
 23  2  1  0  0  0  0
 24 15  1  0  0  0  0
 26 21  1  0  0  0  0
 27 26  2  0  0  0  0
 28 30  2  0  0  0  0
 30 29  2  0  0  0  0
 31 28  1  0  0  0  0
 32 35  1  0  0  0  0
 35 34  1  0  0  0  0
 35 31  1  0  0  0  0
 35 33  1  0  0  0  0
 36 38  1  0  0  0  0
 37 39  1  0  0  0  0
 38 37  2  0  0  0  0
 39 43  1  6  0  0  0
 39 41  1  0  0  0  0
 40 42  1  0  0  0  0
 40 41  1  0  0  0  0
 42 41  1  0  0  0  0
 43 44  1  0  0  0  0
 44 45  1  0  0  0  0
 45 46  1  0  0  0  0
M  END
>  <MODEL>
3

>  <REMARK>
 VINA RESULT:      -6.8      2.949      6.870
  Name = 
  10 active torsions:
  status: ('A' for Active; 'I' for Inactive)
    1  A    between atoms: C_4  and  C_32
    2  A    between atoms: O_11  and  C_26
    3  A    between atoms: C_13  and  C_32
    4  A    between atoms: C_14  and  S_16
    5  A    between atoms: S_16  and  C_23
    6  A    between atoms: C_19  and  C_20
    7  A    between atoms: C_19  and  C_25
    8  A    between atoms: C_25  and  C_38
    9  A    between atoms: C_26  and  C_36
   10  A    between atoms: C_32  and  C_36
                            x       y       z     vdW  Elec       q    Type
                         _______ _______ _______ _____ _____    ______ ____

>  <TORSDO>
F 10

$$$$
=
 OpenBabel11042414383D

 46 48  0  0  1  0  0  0  0  0999 V2000
  189.8980  176.3850  144.5720 C   0  0  0  0  0  0  0  0  0  0  0  0
  192.1010  172.6480  138.1390 C   0  0  2  0  0  3  0  0  0  0  0  0
  187.9630  174.7340  139.7860 C   0  0  0  0  0  2  0  0  0  0  0  0
  190.0690  171.4010  137.9800 O   0  0  0  0  0  0  0  0  0  0  0  0
  189.8870  173.5310  138.9250 N   0  0  0  0  0  2  0  0  0  0  0  0
  190.7640  175.8020  145.5020 O   0  0  0  0  0  0  0  0  0  0  0  0
  188.2440  176.6640  141.6920 S   0  0  0  0  0  0  0  0  0  0  0  0
  188.4670  173.4200  139.2180 C   0  0  0  0  0  2  0  0  0  0  0  0
  192.6530  176.3600  143.4040 N   0  0  0  0  0  0  0  0  0  0  0  0
  188.7210  175.6670  144.1830 N   0  0  0  0  0  2  0  0  0  0  0  0
  190.1200  177.5430  144.1200 O   0  0  0  0  0  0  0  0  0  0  0  0
  187.6400  176.2160  143.3600 C   0  0  1  0  0  3  0  0  0  0  0  0
  195.1320  174.8990  141.3490 C   0  0  2  0  0  3  0  0  0  0  0  0
  194.7310  171.8270  137.4660 N   0  0  0  0  0  0  0  0  0  0  0  0
  192.0770  176.2280  145.7480 C   0  0  0  0  0  2  0  0  0  0  0  0
  190.6340  172.4730  138.3270 C   0  0  0  0  0  0  0  0  0  0  0  0
  193.6310  176.3980  142.4670 O   0  0  0  0  0  0  0  0  0  0  0  0
  188.4850  174.9340  141.1970 C   0  0  0  0  0  2  0  0  0  0  0  0
  193.8330  175.0600  142.1220 C   0  0  0  0  0  2  0  0  0  0  0  0
  194.3950  172.0360  138.8830 C   0  0  2  0  0  3  0  0  0  0  0  0
  195.1570  173.5860  140.7210 N   0  0  0  0  0  2  0  0  0  0  0  0
  193.8680  171.9600  136.5000 C   0  0  0  0  0  3  0  0  0  0  0  0
  192.5050  172.3020  136.7790 N   0  0  0  0  0  2  0  0  0  0  0  0
  192.9690  176.4950  144.7900 C   0  0  0  0  0  3  0  0  0  0  0  0
  192.8970  171.8230  139.1440 C   0  0  0  0  0  2  0  0  0  0  0  0
  194.8120  173.3990  139.3490 C   0  0  0  0  0  0  0  0  0  0  0  0
  194.7910  174.3830  138.5580 O   0  0  0  0  0  0  0  0  0  0  0  0
  186.9240  177.3470  144.0610 C   0  0  0  0  0  0  0  0  0  0  0  0
  186.1100  179.3200  142.6680 O   0  0  0  0  0  0  0  0  0  0  0  0
  186.5070  178.3610  143.3460 C   0  0  0  0  0  0  0  0  0  0  0  0
  187.1390  177.5740  145.5330 C   0  0  0  0  0  2  0  0  0  0  0  0
  185.0470  178.5460  146.5510 C   0  0  0  0  0  1  0  0  0  0  0  0
  186.3110  176.8090  147.7880 C   0  0  0  0  0  1  0  0  0  0  0  0
  185.1560  176.3150  145.8000 F   0  0  0  0  0  0  0  0  0  0  0  0
  185.9080  177.3020  146.4090 C   0  0  0  0  0  0  0  0  0  0  0  0
  196.5880  175.1150  142.4330 S   0  0  0  0  0  0  0  0  0  0  0  0
  196.0900  172.7480  143.6910 C   0  0  0  0  0  3  0  0  0  0  0  0
  195.9770  174.0720  143.7640 C   0  0  0  0  0  3  0  0  0  0  0  0
  195.5910  171.8710  144.8000 C   0  0  1  0  0  3  0  0  0  0  0  0
  197.6340  170.4310  145.3300 C   0  0  0  0  0  2  0  0  0  0  0  0
  196.7330  171.5620  145.7950 C   0  0  0  0  0  3  0  0  0  0  0  0
  196.6130  170.1870  146.4290 C   0  0  0  0  0  2  0  0  0  0  0  0
  194.3130  172.4570  145.4120 C   0  0  0  0  0  2  0  0  0  0  0  0
  193.0700  171.9880  144.6700 C   0  0  0  0  0  2  0  0  0  0  0  0
  192.0350  172.9070  144.8270 O   0  0  0  0  0  0  0  0  0  0  0  0
  191.2460  172.7360  143.6880 C   0  0  0  0  0  1  0  0  0  0  0  0
  1  6  1  0  0  0  0
  2 16  1  0  0  0  0
  2 25  1  1  0  0  0
  3 18  1  0  0  0  0
  4 16  2  0  0  0  0
  5  8  1  0  0  0  0
  6 15  1  0  0  0  0
  7 12  1  0  0  0  0
  8  3  1  0  0  0  0
  9 24  2  0  0  0  0
 10  1  1  0  0  0  0
 11  1  2  0  0  0  0
 12 28  1  1  0  0  0
 12 10  1  0  0  0  0
 13 19  1  0  0  0  0
 13 36  1  1  0  0  0
 14 20  1  0  0  0  0
 16  5  1  0  0  0  0
 17  9  1  0  0  0  0
 18  7  1  0  0  0  0
 19 17  1  0  0  0  0
 20 25  1  6  0  0  0
 20 26  1  0  0  0  0
 21 13  1  0  0  0  0
 22 23  1  0  0  0  0
 22 14  2  0  0  0  0
 23  2  1  0  0  0  0
 24 15  1  0  0  0  0
 26 21  1  0  0  0  0
 27 26  2  0  0  0  0
 28 31  1  0  0  0  0
 29 30  2  0  0  0  0
 30 28  2  0  0  0  0
 31 35  1  0  0  0  0
 34 35  1  0  0  0  0
 35 32  1  0  0  0  0
 35 33  1  0  0  0  0
 36 38  1  0  0  0  0
 37 38  2  0  0  0  0
 39 37  1  6  0  0  0
 39 43  1  0  0  0  0
 39 41  1  0  0  0  0
 40 41  1  0  0  0  0
 40 42  1  0  0  0  0
 41 42  1  0  0  0  0
 44 45  1  0  0  0  0
 44 43  1  0  0  0  0
 46 45  1  0  0  0  0
M  END
>  <MODEL>
4

>  <REMARK>
 VINA RESULT:      -6.7      2.766      6.634
  Name = 
  10 active torsions:
  status: ('A' for Active; 'I' for Inactive)
    1  A    between atoms: C_4  and  C_32
    2  A    between atoms: O_11  and  C_26
    3  A    between atoms: C_13  and  C_32
    4  A    between atoms: C_14  and  S_16
    5  A    between atoms: S_16  and  C_23
    6  A    between atoms: C_19  and  C_20
    7  A    between atoms: C_19  and  C_25
    8  A    between atoms: C_25  and  C_38
    9  A    between atoms: C_26  and  C_36
   10  A    between atoms: C_32  and  C_36
                            x       y       z     vdW  Elec       q    Type
                         _______ _______ _______ _____ _____    ______ ____

>  <TORSDO>
F 10

$$$$
=
 OpenBabel11042414383D

 46 48  0  0  1  0  0  0  0  0999 V2000
  187.9780  175.2690  141.5710 C   0  0  0  0  0  0  0  0  0  0  0  0
  195.3160  174.5280  143.9810 C   0  0  2  0  0  3  0  0  0  0  0  0
  191.2640  176.7950  145.6010 C   0  0  0  0  0  2  0  0  0  0  0  0
  195.4930  176.8160  144.6440 O   0  0  0  0  0  0  0  0  0  0  0  0
  193.3680  175.8620  144.8310 N   0  0  0  0  0  2  0  0  0  0  0  0
  188.1600  175.1380  140.1910 O   0  0  0  0  0  0  0  0  0  0  0  0
  188.8790  175.7980  144.7360 S   0  0  0  0  0  0  0  0  0  0  0  0
  192.7180  177.0850  145.2770 C   0  0  0  0  0  2  0  0  0  0  0  0
  189.7680  172.9220  141.0760 N   0  0  0  0  0  2  0  0  0  0  0  0
  188.2570  176.5320  142.1860 N   0  0  0  0  0  2  0  0  0  0  0  0
  187.5290  174.3080  142.2570 O   0  0  0  0  0  0  0  0  0  0  0  0
  187.9510  176.8700  143.5780 C   0  0  1  0  0  3  0  0  0  0  0  0
  192.9870  171.4760  140.8480 C   0  0  2  0  0  3  0  0  0  0  0  0
  197.3140  172.8570  142.8580 N   0  0  0  0  0  0  0  0  0  0  0  0
  188.2230  173.9170  139.5040 C   0  0  0  0  0  3  0  0  0  0  0  0
  194.7560  175.8030  144.5060 C   0  0  0  0  0  0  0  0  0  0  0  0
  190.6850  171.9550  141.3210 O   0  0  0  0  0  0  0  0  0  0  0  0
  190.4770  176.5560  144.3260 C   0  0  0  0  0  2  0  0  0  0  0  0
  191.9050  172.5370  140.9680 C   0  0  0  0  0  2  0  0  0  0  0  0
  196.1830  173.2750  142.0140 C   0  0  2  0  0  3  0  0  0  0  0  0
  194.2900  172.1220  140.8110 N   0  0  0  0  0  2  0  0  0  0  0  0
  197.4690  173.2480  144.0900 C   0  0  0  0  0  3  0  0  0  0  0  0
  196.5340  174.1510  144.6940 N   0  0  0  0  0  2  0  0  0  0  0  0
  188.9600  172.8750  139.8990 C   0  0  0  0  0  3  0  0  0  0  0  0
  195.5940  174.6120  142.4850 C   0  0  0  0  0  2  0  0  0  0  0  0
  195.1140  172.2250  141.9720 C   0  0  0  0  0  0  0  0  0  0  0  0
  194.8960  171.4890  142.9740 O   0  0  0  0  0  0  0  0  0  0  0  0
  186.4620  176.8820  143.8360 C   0  0  0  0  0  0  0  0  0  0  0  0
  184.9280  177.8860  142.0660 O   0  0  0  0  0  0  0  0  0  0  0  0
  185.6740  177.3980  142.9280 C   0  0  0  0  0  0  0  0  0  0  0  0
  185.9450  176.8090  145.2480 C   0  0  0  0  0  2  0  0  0  0  0  0
  186.5530  178.1980  147.2620 C   0  0  0  0  0  1  0  0  0  0  0  0
  184.3340  178.4990  146.1980 C   0  0  0  0  0  1  0  0  0  0  0  0
  186.3200  179.1390  145.1140 F   0  0  0  0  0  0  0  0  0  0  0  0
  185.7950  178.1680  145.9450 C   0  0  0  0  0  0  0  0  0  0  0  0
  192.7470  170.4400  139.3610 S   0  0  0  0  0  0  0  0  0  0  0  0
  192.6060  171.8790  137.0490 C   0  0  0  0  0  3  0  0  0  0  0  0
  192.1700  171.7740  138.3030 C   0  0  0  0  0  3  0  0  0  0  0  0
  192.1240  172.9830  136.1580 C   0  0  1  0  0  3  0  0  0  0  0  0
  189.5960  173.3250  136.0000 C   0  0  0  0  0  2  0  0  0  0  0  0
  190.8680  173.6520  136.7630 C   0  0  0  0  0  3  0  0  0  0  0  0
  190.2460  174.6900  135.8440 C   0  0  0  0  0  2  0  0  0  0  0  0
  193.2790  173.9270  135.8030 C   0  0  0  0  0  2  0  0  0  0  0  0
  193.7660  174.6990  137.0200 C   0  0  0  0  0  2  0  0  0  0  0  0
  193.4680  176.0540  136.8870 O   0  0  0  0  0  0  0  0  0  0  0  0
  193.6760  176.3200  135.5320 C   0  0  0  0  0  1  0  0  0  0  0  0
  1 10  1  0  0  0  0
  1 11  2  0  0  0  0
  2 25  1  6  0  0  0
  2 16  1  0  0  0  0
  2 23  1  0  0  0  0
  5  8  1  0  0  0  0
  6  1  1  0  0  0  0
  8  3  1  0  0  0  0
  9 17  1  0  0  0  0
 10 12  1  0  0  0  0
 12 28  1  6  0  0  0
 12  7  1  0  0  0  0
 13 36  1  6  0  0  0
 13 19  1  0  0  0  0
 14 22  2  0  0  0  0
 15 24  2  0  0  0  0
 15  6  1  0  0  0  0
 16  4  2  0  0  0  0
 16  5  1  0  0  0  0
 18  7  1  0  0  0  0
 18  3  1  0  0  0  0
 19 17  1  0  0  0  0
 20 25  1  1  0  0  0
 20 14  1  0  0  0  0
 21 13  1  0  0  0  0
 21 26  1  0  0  0  0
 22 23  1  0  0  0  0
 24  9  1  0  0  0  0
 26 20  1  0  0  0  0
 26 27  2  0  0  0  0
 28 31  1  0  0  0  0
 29 30  2  0  0  0  0
 30 28  2  0  0  0  0
 31 35  1  0  0  0  0
 34 35  1  0  0  0  0
 35 33  1  0  0  0  0
 35 32  1  0  0  0  0
 37 38  2  0  0  0  0
 38 36  1  0  0  0  0
 39 43  1  1  0  0  0
 39 41  1  0  0  0  0
 39 37  1  0  0  0  0
 40 41  1  0  0  0  0
 42 40  1  0  0  0  0
 42 41  1  0  0  0  0
 43 44  1  0  0  0  0
 45 44  1  0  0  0  0
 46 45  1  0  0  0  0
M  END
>  <MODEL>
5

>  <REMARK>
 VINA RESULT:      -6.5      1.923      2.244
  Name = 
  10 active torsions:
  status: ('A' for Active; 'I' for Inactive)
    1  A    between atoms: C_4  and  C_32
    2  A    between atoms: O_11  and  C_26
    3  A    between atoms: C_13  and  C_32
    4  A    between atoms: C_14  and  S_16
    5  A    between atoms: S_16  and  C_23
    6  A    between atoms: C_19  and  C_20
    7  A    between atoms: C_19  and  C_25
    8  A    between atoms: C_25  and  C_38
    9  A    between atoms: C_26  and  C_36
   10  A    between atoms: C_32  and  C_36
                            x       y       z     vdW  Elec       q    Type
                         _______ _______ _______ _____ _____    ______ ____

>  <TORSDO>
F 10

$$$$
=
 OpenBabel11042414383D

 46 48  0  0  1  0  0  0  0  0999 V2000
  187.6890  176.8390  143.1060 C   0  0  0  0  0  0  0  0  0  0  0  0
  194.5710  173.6450  144.7280 C   0  0  2  0  0  3  0  0  0  0  0  0
  191.0820  176.0200  147.2520 C   0  0  0  0  0  2  0  0  0  0  0  0
  195.2390  175.4350  146.1630 O   0  0  0  0  0  0  0  0  0  0  0  0
  192.9470  174.9820  146.0960 N   0  0  0  0  0  2  0  0  0  0  0  0
  187.8880  177.1800  141.7650 O   0  0  0  0  0  0  0  0  0  0  0  0
  188.5670  175.9680  146.2010 S   0  0  0  0  0  0  0  0  0  0  0  0
  192.5760  176.0730  146.9840 C   0  0  0  0  0  2  0  0  0  0  0  0
  188.9170  174.4930  141.7110 N   0  0  0  0  0  2  0  0  0  0  0  0
  188.2240  177.6950  144.1220 N   0  0  0  0  0  2  0  0  0  0  0  0
  187.0080  175.8220  143.4200 O   0  0  0  0  0  0  0  0  0  0  0  0
  187.9510  177.5660  145.5550 C   0  0  1  0  0  3  0  0  0  0  0  0
  191.7300  172.5450  140.8210 C   0  0  2  0  0  3  0  0  0  0  0  0
  196.1790  172.0920  142.9830 N   0  0  0  0  0  0  0  0  0  0  0  0
  187.6990  176.3100  140.6820 C   0  0  0  0  0  3  0  0  0  0  0  0
  194.2970  174.7350  145.7060 C   0  0  0  0  0  0  0  0  0  0  0  0
  189.5810  173.3240  141.5460 O   0  0  0  0  0  0  0  0  0  0  0  0
  190.3100  176.4430  146.0160 C   0  0  0  0  0  2  0  0  0  0  0  0
  190.9130  173.7040  141.3680 C   0  0  0  0  0  2  0  0  0  0  0  0
  195.2050  173.0300  142.4020 C   0  0  2  0  0  3  0  0  0  0  0  0
  193.1460  172.8490  140.9570 N   0  0  0  0  0  2  0  0  0  0  0  0
  196.3730  171.9650  144.2640 C   0  0  0  0  0  3  0  0  0  0  0  0
  195.6450  172.7720  145.1970 N   0  0  0  0  0  2  0  0  0  0  0  0
  188.1640  175.0590  140.6370 C   0  0  0  0  0  3  0  0  0  0  0  0
  194.9180  174.2010  143.3520 C   0  0  0  0  0  2  0  0  0  0  0  0
  193.9280  172.3360  142.0350 C   0  0  0  0  0  0  0  0  0  0  0  0
  193.5120  171.3560  142.7140 O   0  0  0  0  0  0  0  0  0  0  0  0
  186.4950  177.8180  145.8720 C   0  0  0  0  0  0  0  0  0  0  0  0
  185.7920  177.9850  148.3160 O   0  0  0  0  0  0  0  0  0  0  0  0
  186.1330  177.9030  147.1260 C   0  0  0  0  0  0  0  0  0  0  0  0
  185.4350  177.4610  144.8640 C   0  0  0  0  0  2  0  0  0  0  0  0
  183.9630  178.3460  143.0180 C   0  0  0  0  0  1  0  0  0  0  0  0
  185.4540  179.9030  144.2400 C   0  0  0  0  0  1  0  0  0  0  0  0
  183.6020  178.8950  145.2800 F   0  0  0  0  0  0  0  0  0  0  0  0
  184.6050  178.6510  144.3610 C   0  0  0  0  0  0  0  0  0  0  0  0
  191.3170  172.2000  139.0730 S   0  0  0  0  0  0  0  0  0  0  0  0
  192.3750  173.7350  137.0840 C   0  0  0  0  0  3  0  0  0  0  0  0
  192.4210  173.4380  138.3810 C   0  0  0  0  0  3  0  0  0  0  0  0
  193.2850  174.7710  136.4990 C   0  0  1  0  0  3  0  0  0  0  0  0
  195.6450  175.0980  137.4270 C   0  0  0  0  0  2  0  0  0  0  0  0
  194.7490  174.2730  136.5190 C   0  0  0  0  0  3  0  0  0  0  0  0
  195.7260  175.2700  135.9190 C   0  0  0  0  0  2  0  0  0  0  0  0
  192.7590  175.2410  135.1370 C   0  0  0  0  0  2  0  0  0  0  0  0
  192.1600  176.6360  135.2190 C   0  0  0  0  0  2  0  0  0  0  0  0
  193.0580  177.5150  135.8210 O   0  0  0  0  0  0  0  0  0  0  0  0
  193.3790  178.4250  134.8110 C   0  0  0  0  0  1  0  0  0  0  0  0
  1 11  2  0  0  0  0
  1 10  1  0  0  0  0
  2 25  1  6  0  0  0
  2 23  1  0  0  0  0
  2 16  1  0  0  0  0
  5  8  1  0  0  0  0
  6  1  1  0  0  0  0
  8  3  1  0  0  0  0
 10 12  1  0  0  0  0
 12 28  1  6  0  0  0
 12  7  1  0  0  0  0
 13 36  1  6  0  0  0
 13 21  1  0  0  0  0
 13 19  1  0  0  0  0
 14 22  2  0  0  0  0
 15  6  1  0  0  0  0
 16  5  1  0  0  0  0
 16  4  2  0  0  0  0
 17  9  1  0  0  0  0
 18  7  1  0  0  0  0
 18  3  1  0  0  0  0
 19 17  1  0  0  0  0
 20 14  1  0  0  0  0
 20 25  1  1  0  0  0
 21 26  1  0  0  0  0
 22 23  1  0  0  0  0
 24 15  2  0  0  0  0
 24  9  1  0  0  0  0
 26 20  1  0  0  0  0
 26 27  2  0  0  0  0
 28 30  2  0  0  0  0
 30 29  2  0  0  0  0
 31 28  1  0  0  0  0
 32 35  1  0  0  0  0
 33 35  1  0  0  0  0
 35 31  1  0  0  0  0
 35 34  1  0  0  0  0
 37 38  2  0  0  0  0
 38 36  1  0  0  0  0
 39 43  1  6  0  0  0
 39 41  1  0  0  0  0
 39 37  1  0  0  0  0
 41 40  1  0  0  0  0
 42 41  1  0  0  0  0
 42 40  1  0  0  0  0
 43 44  1  0  0  0  0
 44 45  1  0  0  0  0
 46 45  1  0  0  0  0
M  END
>  <MODEL>
6

>  <REMARK>
 VINA RESULT:      -6.2      2.626      3.351
  Name = 
  10 active torsions:
  status: ('A' for Active; 'I' for Inactive)
    1  A    between atoms: C_4  and  C_32
    2  A    between atoms: O_11  and  C_26
    3  A    between atoms: C_13  and  C_32
    4  A    between atoms: C_14  and  S_16
    5  A    between atoms: S_16  and  C_23
    6  A    between atoms: C_19  and  C_20
    7  A    between atoms: C_19  and  C_25
    8  A    between atoms: C_25  and  C_38
    9  A    between atoms: C_26  and  C_36
   10  A    between atoms: C_32  and  C_36
                            x       y       z     vdW  Elec       q    Type
                         _______ _______ _______ _____ _____    ______ ____

>  <TORSDO>
F 10

$$$$
=
 OpenBabel11042414383D

 46 48  0  0  1  0  0  0  0  0999 V2000
  191.1200  176.0630  144.6560 C   0  0  0  0  0  0  0  0  0  0  0  0
  191.9140  173.1870  137.4940 C   0  0  2  0  0  3  0  0  0  0  0  0
  188.1820  174.7260  140.3020 C   0  0  0  0  0  2  0  0  0  0  0  0
  189.9870  171.7870  137.6740 O   0  0  0  0  0  0  0  0  0  0  0  0
  189.9080  173.7890  138.8770 N   0  0  0  0  0  2  0  0  0  0  0  0
  192.2210  175.4710  145.2810 O   0  0  0  0  0  0  0  0  0  0  0  0
  188.7990  176.4770  142.3000 S   0  0  0  0  0  0  0  0  0  0  0  0
  188.6120  173.5240  139.4820 C   0  0  0  0  0  2  0  0  0  0  0  0
  193.5020  176.3970  142.8760 N   0  0  0  0  0  0  0  0  0  0  0  0
  189.9300  175.2860  144.4740 N   0  0  0  0  0  2  0  0  0  0  0  0
  191.1520  177.2750  144.3030 O   0  0  0  0  0  0  0  0  0  0  0  0
  188.6490  175.8140  144.0000 C   0  0  1  0  0  3  0  0  0  0  0  0
  195.4900  175.3700  140.1380 C   0  0  2  0  0  3  0  0  0  0  0  0
  194.3460  172.6720  136.1280 N   0  0  0  0  0  0  0  0  0  0  0  0
  193.5250  175.9850  145.2580 C   0  0  0  0  0  2  0  0  0  0  0  0
  190.5510  172.8650  138.0010 C   0  0  0  0  0  0  0  0  0  0  0  0
  194.2180  176.6140  141.7460 O   0  0  0  0  0  0  0  0  0  0  0  0
  189.0190  174.8310  141.5640 C   0  0  0  0  0  2  0  0  0  0  0  0
  194.4120  175.3390  141.2090 C   0  0  0  0  0  2  0  0  0  0  0  0
  194.3540  172.7110  137.5990 C   0  0  2  0  0  3  0  0  0  0  0  0
  195.4430  174.1330  139.3740 N   0  0  0  0  0  2  0  0  0  0  0  0
  193.2670  172.8230  135.4150 C   0  0  0  0  0  3  0  0  0  0  0  0
  191.9940  173.0140  136.0460 N   0  0  0  0  0  2  0  0  0  0  0  0
  194.1370  176.4230  144.1550 C   0  0  0  0  0  3  0  0  0  0  0  0
  192.9810  172.3410  138.1790 C   0  0  0  0  0  2  0  0  0  0  0  0
  194.7860  174.0530  138.1090 C   0  0  0  0  0  0  0  0  0  0  0  0
  194.5110  175.1040  137.4660 O   0  0  0  0  0  0  0  0  0  0  0  0
  188.0570  176.8030  144.9770 C   0  0  0  0  0  0  0  0  0  0  0  0
  187.5760  176.0250  147.3560 O   0  0  0  0  0  0  0  0  0  0  0  0
  187.8090  176.4040  146.1980 C   0  0  0  0  0  0  0  0  0  0  0  0
  187.2970  177.9980  144.4670 C   0  0  0  0  0  2  0  0  0  0  0  0
  185.3030  178.5280  143.0180 C   0  0  0  0  0  1  0  0  0  0  0  0
  184.9770  178.1260  145.4420 C   0  0  0  0  0  1  0  0  0  0  0  0
  185.6230  176.4010  143.9800 F   0  0  0  0  0  0  0  0  0  0  0  0
  185.8010  177.7500  144.2240 C   0  0  0  0  0  0  0  0  0  0  0  0
  197.1510  175.6070  140.8660 S   0  0  0  0  0  0  0  0  0  0  0  0
  197.5130  173.3950  142.4180 C   0  0  0  0  0  3  0  0  0  0  0  0
  196.8710  174.5550  142.2970 C   0  0  0  0  0  3  0  0  0  0  0  0
  197.2930  172.5150  143.6110 C   0  0  1  0  0  3  0  0  0  0  0  0
  196.8670  173.4770  145.9410 C   0  0  0  0  0  2  0  0  0  0  0  0
  196.2750  173.1650  144.5770 C   0  0  0  0  0  3  0  0  0  0  0  0
  195.9390  172.2850  145.7690 C   0  0  0  0  0  2  0  0  0  0  0  0
  196.9710  171.0820  143.1690 C   0  0  0  0  0  2  0  0  0  0  0  0
  197.0180  170.9400  141.6550 C   0  0  0  0  0  2  0  0  0  0  0  0
  195.9580  170.1530  141.2090 O   0  0  0  0  0  0  0  0  0  0  0  0
  194.8670  171.0250  141.1890 C   0  0  0  0  0  1  0  0  0  0  0  0
  1  6  1  0  0  0  0
  2 16  1  0  0  0  0
  2 25  1  1  0  0  0
  3 18  1  0  0  0  0
  4 16  2  0  0  0  0
  5  8  1  0  0  0  0
  7 12  1  0  0  0  0
  8  3  1  0  0  0  0
  9 24  2  0  0  0  0
 10  1  1  0  0  0  0
 11  1  2  0  0  0  0
 12 10  1  0  0  0  0
 12 28  1  1  0  0  0
 13 36  1  1  0  0  0
 13 19  1  0  0  0  0
 14 20  1  0  0  0  0
 15  6  1  0  0  0  0
 16  5  1  0  0  0  0
 17  9  1  0  0  0  0
 18  7  1  0  0  0  0
 19 17  1  0  0  0  0
 20 26  1  0  0  0  0
 20 25  1  6  0  0  0
 21 13  1  0  0  0  0
 22 23  1  0  0  0  0
 22 14  2  0  0  0  0
 23  2  1  0  0  0  0
 24 15  1  0  0  0  0
 26 21  1  0  0  0  0
 27 26  2  0  0  0  0
 28 30  2  0  0  0  0
 30 29  2  0  0  0  0
 31 28  1  0  0  0  0
 32 35  1  0  0  0  0
 34 35  1  0  0  0  0
 35 31  1  0  0  0  0
 35 33  1  0  0  0  0
 36 38  1  0  0  0  0
 38 37  2  0  0  0  0
 39 37  1  6  0  0  0
 39 41  1  0  0  0  0
 41 42  1  0  0  0  0
 41 40  1  0  0  0  0
 42 40  1  0  0  0  0
 43 39  1  0  0  0  0
 44 43  1  0  0  0  0
 45 44  1  0  0  0  0
 46 45  1  0  0  0  0
M  END
>  <MODEL>
7

>  <REMARK>
 VINA RESULT:      -6.2      3.143      7.039
  Name = 
  10 active torsions:
  status: ('A' for Active; 'I' for Inactive)
    1  A    between atoms: C_4  and  C_32
    2  A    between atoms: O_11  and  C_26
    3  A    between atoms: C_13  and  C_32
    4  A    between atoms: C_14  and  S_16
    5  A    between atoms: S_16  and  C_23
    6  A    between atoms: C_19  and  C_20
    7  A    between atoms: C_19  and  C_25
    8  A    between atoms: C_25  and  C_38
    9  A    between atoms: C_26  and  C_36
   10  A    between atoms: C_32  and  C_36
                            x       y       z     vdW  Elec       q    Type
                         _______ _______ _______ _____ _____    ______ ____

>  <TORSDO>
F 10

$$$$
=
 OpenBabel11042414383D

 46 48  0  0  1  0  0  0  0  0999 V2000
  193.7510  173.3850  144.8210 C   0  0  0  0  0  0  0  0  0  0  0  0
  191.8300  172.4180  137.3660 C   0  0  2  0  0  3  0  0  0  0  0  0
  195.6980  171.3260  140.2010 C   0  0  0  0  0  2  0  0  0  0  0  0
  194.0090  172.9880  136.5690 O   0  0  0  0  0  0  0  0  0  0  0  0
  193.9280  171.9500  138.6610 N   0  0  0  0  0  2  0  0  0  0  0  0
  193.0150  174.5370  145.1160 O   0  0  0  0  0  0  0  0  0  0  0  0
  195.2270  171.1140  142.8780 S   0  0  0  0  0  0  0  0  0  0  0  0
  195.3610  172.0290  138.8980 C   0  0  0  0  0  2  0  0  0  0  0  0
  190.9800  173.0310  143.7450 N   0  0  0  0  0  0  0  0  0  0  0  0
  195.0000  173.5220  144.1330 N   0  0  0  0  0  2  0  0  0  0  0  0
  193.3490  172.2480  145.1970 O   0  0  0  0  0  0  0  0  0  0  0  0
  195.9580  172.4360  143.9120 C   0  0  1  0  0  3  0  0  0  0  0  0
  188.6490  173.1650  141.0900 C   0  0  2  0  0  3  0  0  0  0  0  0
  189.3170  172.9670  136.1730 N   0  0  0  0  0  0  0  0  0  0  0  0
  191.6670  174.5480  145.4990 C   0  0  0  0  0  2  0  0  0  0  0  0
  193.3140  172.4720  137.4850 C   0  0  0  0  0  0  0  0  0  0  0  0
  189.9680  172.5370  142.9920 O   0  0  0  0  0  0  0  0  0  0  0  0
  195.2120  172.1440  141.3830 C   0  0  0  0  0  2  0  0  0  0  0  0
  189.9430  173.3600  141.8640 C   0  0  0  0  0  2  0  0  0  0  0  0
  189.6790  173.6660  137.4160 C   0  0  2  0  0  3  0  0  0  0  0  0
  188.7830  173.7650  139.7720 N   0  0  0  0  0  2  0  0  0  0  0  0
  190.1110  172.1340  135.5640 C   0  0  0  0  0  3  0  0  0  0  0  0
  191.4230  171.8680  136.0760 N   0  0  0  0  0  2  0  0  0  0  0  0
  190.7070  173.8550  144.8800 C   0  0  0  0  0  3  0  0  0  0  0  0
  191.2010  173.7910  137.5680 C   0  0  0  0  0  2  0  0  0  0  0  0
  189.0930  172.9850  138.6170 C   0  0  0  0  0  0  0  0  0  0  0  0
  188.9420  171.7320  138.6350 O   0  0  0  0  0  0  0  0  0  0  0  0
  196.5360  171.9270  145.2120 C   0  0  0  0  0  0  0  0  0  0  0  0
  197.1920  173.6240  146.9980 O   0  0  0  0  0  0  0  0  0  0  0  0
  196.8740  172.7980  146.1290 C   0  0  0  0  0  0  0  0  0  0  0  0
  197.1870  170.5710  145.2650 C   0  0  0  0  0  2  0  0  0  0  0  0
  197.1120  169.0960  147.3080 C   0  0  0  0  0  1  0  0  0  0  0  0
  196.1400  168.2810  145.1780 C   0  0  0  0  0  1  0  0  0  0  0  0
  195.1690  170.0530  146.3810 F   0  0  0  0  0  0  0  0  0  0  0  0
  196.3910  169.5080  146.0350 C   0  0  0  0  0  0  0  0  0  0  0  0
  187.2230  173.8890  141.9780 S   0  0  0  0  0  0  0  0  0  0  0  0
  187.5990  176.1400  143.4700 C   0  0  0  0  0  3  0  0  0  0  0  0
  188.0640  175.4020  142.4650 C   0  0  0  0  0  3  0  0  0  0  0  0
  188.2970  177.3980  143.8890 C   0  0  1  0  0  3  0  0  0  0  0  0
  188.1860  176.2040  146.1460 C   0  0  0  0  0  2  0  0  0  0  0  0
  188.2710  177.5400  145.4280 C   0  0  0  0  0  3  0  0  0  0  0  0
  186.9560  177.0910  146.0440 C   0  0  0  0  0  2  0  0  0  0  0  0
  189.6810  177.4850  143.2340 C   0  0  0  0  0  2  0  0  0  0  0  0
  190.6940  178.1510  144.1520 C   0  0  0  0  0  2  0  0  0  0  0  0
  191.9570  177.5920  143.9680 O   0  0  0  0  0  0  0  0  0  0  0  0
  191.8480  176.8820  142.7710 C   0  0  0  0  0  1  0  0  0  0  0  0
  1  6  1  0  0  0  0
  1 11  2  0  0  0  0
  2 16  1  0  0  0  0
  2 25  1  6  0  0  0
  3 18  1  0  0  0  0
  4 16  2  0  0  0  0
  5  8  1  0  0  0  0
  6 15  1  0  0  0  0
  7 12  1  0  0  0  0
  8  3  1  0  0  0  0
  9 24  2  0  0  0  0
 10  1  1  0  0  0  0
 12 10  1  0  0  0  0
 12 28  1  1  0  0  0
 13 19  1  0  0  0  0
 13 36  1  1  0  0  0
 14 20  1  0  0  0  0
 16  5  1  0  0  0  0
 17  9  1  0  0  0  0
 18  7  1  0  0  0  0
 19 17  1  0  0  0  0
 20 25  1  1  0  0  0
 20 26  1  0  0  0  0
 21 13  1  0  0  0  0
 22 23  1  0  0  0  0
 22 14  2  0  0  0  0
 23  2  1  0  0  0  0
 24 15  1  0  0  0  0
 26 27  2  0  0  0  0
 26 21  1  0  0  0  0
 28 31  1  0  0  0  0
 28 30  2  0  0  0  0
 30 29  2  0  0  0  0
 31 35  1  0  0  0  0
 33 35  1  0  0  0  0
 35 34  1  0  0  0  0
 35 32  1  0  0  0  0
 36 38  1  0  0  0  0
 37 39  1  0  0  0  0
 38 37  2  0  0  0  0
 39 43  1  1  0  0  0
 39 41  1  0  0  0  0
 41 42  1  0  0  0  0
 41 40  1  0  0  0  0
 42 40  1  0  0  0  0
 43 44  1  0  0  0  0
 45 44  1  0  0  0  0
 46 45  1  0  0  0  0
M  END
>  <MODEL>
8

>  <REMARK>
 VINA RESULT:      -6.1      3.141      9.028
  Name = 
  10 active torsions:
  status: ('A' for Active; 'I' for Inactive)
    1  A    between atoms: C_4  and  C_32
    2  A    between atoms: O_11  and  C_26
    3  A    between atoms: C_13  and  C_32
    4  A    between atoms: C_14  and  S_16
    5  A    between atoms: S_16  and  C_23
    6  A    between atoms: C_19  and  C_20
    7  A    between atoms: C_19  and  C_25
    8  A    between atoms: C_25  and  C_38
    9  A    between atoms: C_26  and  C_36
   10  A    between atoms: C_32  and  C_36
                            x       y       z     vdW  Elec       q    Type
                         _______ _______ _______ _____ _____    ______ ____

>  <TORSDO>
F 10

$$$$
=
 OpenBabel11042414383D

 46 48  0  0  1  0  0  0  0  0999 V2000
  189.7380  176.2640  145.0150 C   0  0  0  0  0  0  0  0  0  0  0  0
  192.2650  172.2330  138.8860 C   0  0  2  0  0  3  0  0  0  0  0  0
  188.1750  174.6940  140.0680 C   0  0  0  0  0  2  0  0  0  0  0  0
  190.1600  171.1600  138.5270 O   0  0  0  0  0  0  0  0  0  0  0  0
  190.0660  173.3150  139.4260 N   0  0  0  0  0  2  0  0  0  0  0  0
  190.4490  175.6280  146.0360 O   0  0  0  0  0  0  0  0  0  0  0  0
  188.4230  176.6290  141.9730 S   0  0  0  0  0  0  0  0  0  0  0  0
  188.6190  173.3310  139.5700 C   0  0  0  0  0  2  0  0  0  0  0  0
  192.5870  175.9830  144.1420 N   0  0  0  0  0  0  0  0  0  0  0  0
  188.5500  175.6430  144.5100 N   0  0  0  0  0  2  0  0  0  0  0  0
  190.1050  177.3910  144.5770 O   0  0  0  0  0  0  0  0  0  0  0  0
  187.6120  176.2650  143.5740 C   0  0  1  0  0  3  0  0  0  0  0  0
  195.1290  174.2770  142.3740 C   0  0  2  0  0  3  0  0  0  0  0  0
  194.8690  171.1780  138.5020 N   0  0  0  0  0  0  0  0  0  0  0  0
  191.7610  175.9450  146.4140 C   0  0  0  0  0  2  0  0  0  0  0  0
  190.7770  172.1860  138.9210 C   0  0  0  0  0  0  0  0  0  0  0  0
  193.6570  175.9200  143.3130 O   0  0  0  0  0  0  0  0  0  0  0  0
  188.5630  174.8750  141.5240 C   0  0  0  0  0  2  0  0  0  0  0  0
  193.7770  174.5630  143.0040 C   0  0  0  0  0  2  0  0  0  0  0  0
  194.4080  171.4420  139.8740 C   0  0  2  0  0  3  0  0  0  0  0  0
  195.1060  172.9560  141.7660 N   0  0  0  0  0  2  0  0  0  0  0  0
  194.1270  171.3660  137.4490 C   0  0  0  0  0  3  0  0  0  0  0  0
  192.7760  171.8280  137.5790 N   0  0  0  0  0  2  0  0  0  0  0  0
  192.7670  176.1170  145.5530 C   0  0  0  0  0  3  0  0  0  0  0  0
  192.8780  171.3620  139.9770 C   0  0  0  0  0  2  0  0  0  0  0  0
  194.8910  172.7720  140.3670 C   0  0  0  0  0  0  0  0  0  0  0  0
  195.0370  173.7390  139.5680 O   0  0  0  0  0  0  0  0  0  0  0  0
  186.9280  177.4670  144.1840 C   0  0  0  0  0  0  0  0  0  0  0  0
  186.3090  179.4170  142.6640 O   0  0  0  0  0  0  0  0  0  0  0  0
  186.6100  178.4680  143.4040 C   0  0  0  0  0  0  0  0  0  0  0  0
  187.0760  177.7480  145.6550 C   0  0  0  0  0  2  0  0  0  0  0  0
  184.8700  178.6060  146.5220 C   0  0  0  0  0  1  0  0  0  0  0  0
  186.2100  177.0580  147.9190 C   0  0  0  0  0  1  0  0  0  0  0  0
  185.1890  176.3500  145.9220 F   0  0  0  0  0  0  0  0  0  0  0  0
  185.8320  177.4300  146.4960 C   0  0  0  0  0  0  0  0  0  0  0  0
  196.4790  174.3890  143.6030 S   0  0  0  0  0  0  0  0  0  0  0  0
  196.1320  171.9440  144.7590 C   0  0  0  0  0  3  0  0  0  0  0  0
  196.7180  172.6150  143.7690 C   0  0  0  0  0  3  0  0  0  0  0  0
  196.3190  170.4640  144.9000 C   0  0  1  0  0  3  0  0  0  0  0  0
  196.0200  168.6020  143.1750 C   0  0  0  0  0  2  0  0  0  0  0  0
  196.7910  169.8520  143.5610 C   0  0  0  0  0  3  0  0  0  0  0  0
  197.4320  168.4840  143.7250 C   0  0  0  0  0  2  0  0  0  0  0  0
  197.1900  170.1480  146.1220 C   0  0  0  0  0  2  0  0  0  0  0  0
  196.4560  169.2660  147.1210 C   0  0  0  0  0  2  0  0  0  0  0  0
  195.1960  168.9250  146.6320 O   0  0  0  0  0  0  0  0  0  0  0  0
  194.6180  168.1790  147.6620 C   0  0  0  0  0  1  0  0  0  0  0  0
  1  6  1  0  0  0  0
  2 16  1  0  0  0  0
  2 25  1  1  0  0  0
  3 18  1  0  0  0  0
  4 16  2  0  0  0  0
  5  8  1  0  0  0  0
  6 15  1  0  0  0  0
  7 12  1  0  0  0  0
  8  3  1  0  0  0  0
  9 24  2  0  0  0  0
 10  1  1  0  0  0  0
 11  1  2  0  0  0  0
 12 28  1  1  0  0  0
 12 10  1  0  0  0  0
 13 19  1  0  0  0  0
 13 36  1  1  0  0  0
 14 20  1  0  0  0  0
 16  5  1  0  0  0  0
 17  9  1  0  0  0  0
 18  7  1  0  0  0  0
 19 17  1  0  0  0  0
 20 25  1  6  0  0  0
 20 26  1  0  0  0  0
 21 13  1  0  0  0  0
 22 23  1  0  0  0  0
 22 14  2  0  0  0  0
 23  2  1  0  0  0  0
 24 15  1  0  0  0  0
 26 21  1  0  0  0  0
 27 26  2  0  0  0  0
 28 31  1  0  0  0  0
 29 30  2  0  0  0  0
 30 28  2  0  0  0  0
 31 35  1  0  0  0  0
 34 35  1  0  0  0  0
 35 32  1  0  0  0  0
 35 33  1  0  0  0  0
 36 38  1  0  0  0  0
 38 37  2  0  0  0  0
 39 37  1  6  0  0  0
 39 43  1  0  0  0  0
 40 41  1  0  0  0  0
 40 42  1  0  0  0  0
 41 42  1  0  0  0  0
 41 39  1  0  0  0  0
 43 44  1  0  0  0  0
 45 44  1  0  0  0  0
 45 46  1  0  0  0  0
M  END
>  <MODEL>
9

>  <REMARK>
 VINA RESULT:      -6.1      2.687      6.640
  Name = 
  10 active torsions:
  status: ('A' for Active; 'I' for Inactive)
    1  A    between atoms: C_4  and  C_32
    2  A    between atoms: O_11  and  C_26
    3  A    between atoms: C_13  and  C_32
    4  A    between atoms: C_14  and  S_16
    5  A    between atoms: S_16  and  C_23
    6  A    between atoms: C_19  and  C_20
    7  A    between atoms: C_19  and  C_25
    8  A    between atoms: C_25  and  C_38
    9  A    between atoms: C_26  and  C_36
   10  A    between atoms: C_32  and  C_36
                            x       y       z     vdW  Elec       q    Type
                         _______ _______ _______ _____ _____    ______ ____

>  <TORSDO>
F 10

$$$$
