=
 OpenBabel11042419353D

 32 35  0  0  1  0  0  0  0  0999 V2000
  190.5680  176.3360  146.3210 C   0  0  0  0  0  0  0  0  0  0  0  0
  193.3140  176.3690  145.6960 C   0  0  0  0  0  3  0  0  0  0  0  0
  192.3890  176.9350  144.8190 C   0  0  0  0  0  3  0  0  0  0  0  0
  192.8760  175.7800  146.8770 C   0  0  0  0  0  3  0  0  0  0  0  0
  191.0200  176.9230  145.1140 C   0  0  0  0  0  0  0  0  0  0  0  0
  191.5150  175.7640  147.1850 C   0  0  0  0  0  3  0  0  0  0  0  0
  188.4060  177.4970  146.8800 N   0  0  0  0  0  2  0  0  0  0  0  0
  189.1430  176.2810  146.7250 C   0  0  0  0  0  0  0  0  0  0  0  0
  188.5670  175.1800  146.9230 O   0  0  0  0  0  0  0  0  0  0  0  0
  187.0780  177.5420  147.4770 C   0  0  0  0  0  2  0  0  0  0  0  0
  186.0050  177.3510  146.4200 C   0  0  0  0  0  2  0  0  0  0  0  0
  184.0720  178.9460  144.6950 C   0  0  0  0  0  2  0  0  0  0  0  0
  184.2080  178.7620  143.1800 C   0  0  0  0  0  2  0  0  0  0  0  0
  185.6210  178.3180  142.7960 C   0  0  1  0  0  3  0  0  0  0  0  0
  186.2170  178.2890  145.2410 C   0  0  1  0  0  3  0  0  0  0  0  0
  186.2550  177.5010  143.9170 C   0  0  0  0  0  2  0  0  0  0  0  0
  185.2950  179.3710  145.2510 O   0  0  0  0  0  0  0  0  0  0  0  0
  185.5800  177.5120  141.5150 C   0  0  0  0  0  3  0  0  0  0  0  0
  186.4260  178.0740  140.5800 O   0  0  0  0  0  0  0  0  0  0  0  0
  185.1050  178.3020  140.4890 O   0  0  0  0  0  0  0  0  0  0  0  0
  189.9210  177.6700  143.9090 S   0  0  0  0  0  0  0  0  0  0  0  0
  190.0830  176.2920  142.7390 C   0  0  0  0  0  2  0  0  0  0  0  0
  189.1090  175.1830  143.1010 C   0  0  0  0  0  2  0  0  0  0  0  0
  189.7850  173.8160  143.0130 C   0  0  0  0  0  0  0  0  0  0  0  0
  191.2700  173.7020  143.2960 C   0  0  0  0  0  2  0  0  0  0  0  0
  190.2600  173.3390  144.3710 C   0  0  0  0  0  2  0  0  0  0  0  0
  189.1560  172.7670  142.3060 O   0  0  0  0  0  0  0  0  0  0  0  0
  189.6020  172.6790  140.9610 C   0  0  0  0  0  0  0  0  0  0  0  0
  190.3320  173.8100  140.5870 O   0  0  0  0  0  1  0  0  0  0  0  0
  188.4800  172.5970  140.1340 O   0  0  0  0  0  1  0  0  0  0  0  0
  190.3040  170.5400  141.7970 O   0  0  0  0  0  1  0  0  0  0  0  0
  190.4550  171.4360  140.7360 C   0  0  0  0  0  2  0  0  0  0  0  0
  1  8  1  0  0  0  0
  1  6  1  0  0  0  0
  2  4  1  0  0  0  0
  3  5  1  0  0  0  0
  3  2  2  0  0  0  0
  4  6  2  0  0  0  0
  5  1  2  0  0  0  0
  7 10  1  0  0  0  0
  8  7  1  0  0  0  0
  8  9  2  0  0  0  0
 11 10  1  0  0  0  0
 12 17  1  0  0  0  0
 13 12  1  0  0  0  0
 14 18  1  6  0  0  0
 14 13  1  0  0  0  0
 14 16  1  0  0  0  0
 15 17  1  0  0  0  0
 15 11  1  1  0  0  0
 16 15  1  0  0  0  0
 19 18  1  0  0  0  0
 20 19  1  0  0  0  0
 20 18  1  0  0  0  0
 21  5  1  0  0  0  0
 22 23  1  0  0  0  0
 22 21  1  0  0  0  0
 24 23  1  0  0  0  0
 24 25  1  0  0  0  0
 24 26  1  0  0  0  0
 25 26  1  0  0  0  0
 27 24  1  0  0  0  0
 28 27  1  0  0  0  0
 29 28  1  0  0  0  0
 30 28  1  0  0  0  0
 32 28  1  0  0  0  0
 32 31  1  0  0  0  0
M  END
>  <MODEL>
1

>  <REMARK>
 VINA RESULT:      -6.1      0.000      0.000
  Name = 
  12 active torsions:
  status: ('A' for Active; 'I' for Inactive)
    1  A    between atoms: C_1  and  C_15
    2  A    between atoms: C_2  and  C_10
    3  A    between atoms: C_3  and  C_9
    4  A    between atoms: C_3  and  O_11
    5  A    between atoms: C_6  and  O_11
    6  A    between atoms: C_6  and  C_21
    7  A    between atoms: C_8  and  C_18
    8  A    between atoms: C_8  and  C_24
    9  A    between atoms: C_9  and  C_30
   10  A    between atoms: S_13  and  C_26
   11  A    between atoms: S_13  and  C_30
   12  A    between atoms: N_14  and  C_24
                            x       y       z     vdW  Elec       q    Type
                         _______ _______ _______ _____ _____    ______ ____

>  <TORSDO>
F 12

$$$$
=
 OpenBabel11042419353D

 32 35  0  0  1  0  0  0  0  0999 V2000
  193.0290  175.9890  145.9070 C   0  0  0  0  0  0  0  0  0  0  0  0
  195.2880  175.8570  144.2300 C   0  0  0  0  0  3  0  0  0  0  0  0
  194.0780  176.3430  143.7370 C   0  0  0  0  0  3  0  0  0  0  0  0
  195.3750  175.4280  145.5500 C   0  0  0  0  0  3  0  0  0  0  0  0
  192.9440  176.4110  144.5570 C   0  0  0  0  0  0  0  0  0  0  0  0
  194.2540  175.4940  146.3790 C   0  0  0  0  0  3  0  0  0  0  0  0
  190.7880  175.1370  146.6720 N   0  0  0  0  0  2  0  0  0  0  0  0
  191.8900  176.0300  146.8530 C   0  0  0  0  0  0  0  0  0  0  0  0
  191.8810  176.8330  147.8230 O   0  0  0  0  0  0  0  0  0  0  0  0
  189.5430  175.2590  147.4210 C   0  0  0  0  0  2  0  0  0  0  0  0
  188.3750  175.5160  146.4850 C   0  0  0  0  0  2  0  0  0  0  0  0
  186.1000  177.2260  147.5600 C   0  0  0  0  0  2  0  0  0  0  0  0
  185.3750  178.1070  146.5370 C   0  0  0  0  0  2  0  0  0  0  0  0
  186.2750  178.4310  145.3420 C   0  0  1  0  0  3  0  0  0  0  0  0
  188.0700  177.0030  146.3780 C   0  0  1  0  0  3  0  0  0  0  0  0
  187.2710  177.3040  145.0940 C   0  0  0  0  0  2  0  0  0  0  0  0
  187.4790  177.5110  147.5660 O   0  0  0  0  0  0  0  0  0  0  0  0
  185.4310  178.6710  144.1080 C   0  0  0  0  0  3  0  0  0  0  0  0
  185.6780  179.9330  143.6080 O   0  0  0  0  0  0  0  0  0  0  0  0
  184.5690  179.7230  144.3360 O   0  0  0  0  0  0  0  0  0  0  0  0
  191.4390  177.0450  143.8150 S   0  0  0  0  0  0  0  0  0  0  0  0
  191.1020  175.5050  142.9150 C   0  0  0  0  0  2  0  0  0  0  0  0
  189.6980  175.0150  143.2270 C   0  0  0  0  0  2  0  0  0  0  0  0
  188.8220  175.0420  141.9760 C   0  0  0  0  0  0  0  0  0  0  0  0
  187.3270  175.2430  142.1210 C   0  0  0  0  0  2  0  0  0  0  0  0
  188.2200  176.4130  141.7450 C   0  0  0  0  0  2  0  0  0  0  0  0
  189.3110  174.5000  140.7660 O   0  0  0  0  0  0  0  0  0  0  0  0
  189.0710  173.1040  140.6640 C   0  0  0  0  0  0  0  0  0  0  0  0
  188.4100  172.6120  141.7930 O   0  0  0  0  0  1  0  0  0  0  0  0
  190.3030  172.4550  140.5690 O   0  0  0  0  0  1  0  0  0  0  0  0
  188.0480  173.9120  138.6470 O   0  0  0  0  0  1  0  0  0  0  0  0
  188.2550  172.7670  139.4210 C   0  0  0  0  0  2  0  0  0  0  0  0
  1  6  1  0  0  0  0
  1  8  1  0  0  0  0
  2  4  1  0  0  0  0
  3  2  2  0  0  0  0
  3  5  1  0  0  0  0
  4  6  2  0  0  0  0
  5  1  2  0  0  0  0
  7  8  1  0  0  0  0
  7 10  1  0  0  0  0
  8  9  2  0  0  0  0
 11 10  1  0  0  0  0
 12 17  1  0  0  0  0
 13 12  1  0  0  0  0
 14 18  1  6  0  0  0
 14 13  1  0  0  0  0
 15 11  1  1  0  0  0
 15 17  1  0  0  0  0
 16 14  1  0  0  0  0
 16 15  1  0  0  0  0
 18 20  1  0  0  0  0
 19 18  1  0  0  0  0
 19 20  1  0  0  0  0
 21  5  1  0  0  0  0
 22 23  1  0  0  0  0
 22 21  1  0  0  0  0
 24 25  1  0  0  0  0
 24 23  1  0  0  0  0
 26 24  1  0  0  0  0
 26 25  1  0  0  0  0
 27 24  1  0  0  0  0
 28 27  1  0  0  0  0
 28 29  1  0  0  0  0
 30 28  1  0  0  0  0
 31 32  1  0  0  0  0
 32 28  1  0  0  0  0
M  END
>  <MODEL>
2

>  <REMARK>
 VINA RESULT:      -6.0      1.803      2.991
  Name = 
  12 active torsions:
  status: ('A' for Active; 'I' for Inactive)
    1  A    between atoms: C_1  and  C_15
    2  A    between atoms: C_2  and  C_10
    3  A    between atoms: C_3  and  C_9
    4  A    between atoms: C_3  and  O_11
    5  A    between atoms: C_6  and  O_11
    6  A    between atoms: C_6  and  C_21
    7  A    between atoms: C_8  and  C_18
    8  A    between atoms: C_8  and  C_24
    9  A    between atoms: C_9  and  C_30
   10  A    between atoms: S_13  and  C_26
   11  A    between atoms: S_13  and  C_30
   12  A    between atoms: N_14  and  C_24
                            x       y       z     vdW  Elec       q    Type
                         _______ _______ _______ _____ _____    ______ ____

>  <TORSDO>
F 12

$$$$
=
 OpenBabel11042419353D

 32 35  0  0  1  0  0  0  0  0999 V2000
  185.2480  178.1930  142.9910 C   0  0  0  0  0  0  0  0  0  0  0  0
  184.1990  178.0890  140.3800 C   0  0  0  0  0  3  0  0  0  0  0  0
  185.5750  178.0030  140.5850 C   0  0  0  0  0  3  0  0  0  0  0  0
  183.3450  178.2350  141.4680 C   0  0  0  0  0  3  0  0  0  0  0  0
  186.1130  178.0570  141.8780 C   0  0  0  0  0  0  0  0  0  0  0  0
  183.8670  178.2870  142.7610 C   0  0  0  0  0  3  0  0  0  0  0  0
  186.0300  177.0380  145.0870 N   0  0  0  0  0  2  0  0  0  0  0  0
  185.7200  178.2510  144.3950 C   0  0  0  0  0  0  0  0  0  0  0  0
  185.8630  179.3540  144.9860 O   0  0  0  0  0  0  0  0  0  0  0  0
  186.2890  176.9930  146.5200 C   0  0  0  0  0  2  0  0  0  0  0  0
  187.7720  177.1510  146.8040 C   0  0  0  0  0  2  0  0  0  0  0  0
  189.9990  175.1360  147.2950 C   0  0  0  0  0  2  0  0  0  0  0  0
  191.2930  175.3530  146.5050 C   0  0  0  0  0  2  0  0  0  0  0  0
  191.0340  176.1310  145.2120 C   0  0  1  0  0  3  0  0  0  0  0  0
  188.6100  176.2960  145.8630 C   0  0  1  0  0  3  0  0  0  0  0  0
  189.8480  177.0740  145.3770 C   0  0  0  0  0  2  0  0  0  0  0  0
  188.9010  175.0220  146.4200 O   0  0  0  0  0  0  0  0  0  0  0  0
  192.2740  176.9070  144.8170 C   0  0  0  0  0  3  0  0  0  0  0  0
  192.6760  176.5350  143.5500 O   0  0  0  0  0  0  0  0  0  0  0  0
  193.3200  176.0320  144.6170 O   0  0  0  0  0  0  0  0  0  0  0  0
  187.8970  177.9470  142.0220 S   0  0  0  0  0  0  0  0  0  0  0  0
  187.9500  176.2270  141.4430 C   0  0  0  0  0  2  0  0  0  0  0  0
  188.9330  175.4250  142.2790 C   0  0  0  0  0  2  0  0  0  0  0  0
  189.2850  174.1080  141.5890 C   0  0  0  0  0  0  0  0  0  0  0  0
  188.1700  173.1850  141.1380 C   0  0  0  0  0  2  0  0  0  0  0  0
  188.8500  174.1030  140.1380 C   0  0  0  0  0  2  0  0  0  0  0  0
  190.5850  173.5710  141.7240 O   0  0  0  0  0  0  0  0  0  0  0  0
  190.7390  172.8230  142.9210 C   0  0  0  0  0  0  0  0  0  0  0  0
  189.7320  173.1160  143.8440 O   0  0  0  0  0  1  0  0  0  0  0  0
  191.9640  173.1650  143.4950 O   0  0  0  0  0  1  0  0  0  0  0  0
  191.2380  171.0620  141.3650 O   0  0  0  0  0  1  0  0  0  0  0  0
  190.7420  171.3230  142.6440 C   0  0  0  0  0  2  0  0  0  0  0  0
  1  8  1  0  0  0  0
  2  3  2  0  0  0  0
  2  4  1  0  0  0  0
  3  5  1  0  0  0  0
  4  6  2  0  0  0  0
  5 21  1  0  0  0  0
  5  1  2  0  0  0  0
  6  1  1  0  0  0  0
  7 10  1  0  0  0  0
  8  9  2  0  0  0  0
  8  7  1  0  0  0  0
 10 11  1  0  0  0  0
 13 12  1  0  0  0  0
 14 18  1  1  0  0  0
 14 16  1  0  0  0  0
 14 13  1  0  0  0  0
 15 17  1  0  0  0  0
 15 11  1  1  0  0  0
 16 15  1  0  0  0  0
 17 12  1  0  0  0  0
 19 20  1  0  0  0  0
 19 18  1  0  0  0  0
 20 18  1  0  0  0  0
 22 21  1  0  0  0  0
 22 23  1  0  0  0  0
 24 27  1  0  0  0  0
 24 23  1  0  0  0  0
 25 24  1  0  0  0  0
 26 25  1  0  0  0  0
 26 24  1  0  0  0  0
 27 28  1  0  0  0  0
 28 30  1  0  0  0  0
 28 29  1  0  0  0  0
 31 32  1  0  0  0  0
 32 28  1  0  0  0  0
M  END
>  <MODEL>
3

>  <REMARK>
 VINA RESULT:      -6.0      1.939      5.748
  Name = 
  12 active torsions:
  status: ('A' for Active; 'I' for Inactive)
    1  A    between atoms: C_1  and  C_15
    2  A    between atoms: C_2  and  C_10
    3  A    between atoms: C_3  and  C_9
    4  A    between atoms: C_3  and  O_11
    5  A    between atoms: C_6  and  O_11
    6  A    between atoms: C_6  and  C_21
    7  A    between atoms: C_8  and  C_18
    8  A    between atoms: C_8  and  C_24
    9  A    between atoms: C_9  and  C_30
   10  A    between atoms: S_13  and  C_26
   11  A    between atoms: S_13  and  C_30
   12  A    between atoms: N_14  and  C_24
                            x       y       z     vdW  Elec       q    Type
                         _______ _______ _______ _____ _____    ______ ____

>  <TORSDO>
F 12

$$$$
=
 OpenBabel11042419353D

 32 35  0  0  1  0  0  0  0  0999 V2000
  187.2420  177.4280  146.3770 C   0  0  0  0  0  0  0  0  0  0  0  0
  184.9660  178.9460  145.7080 C   0  0  0  0  0  3  0  0  0  0  0  0
  185.9450  178.6920  144.7480 C   0  0  0  0  0  3  0  0  0  0  0  0
  185.1200  178.4550  146.9990 C   0  0  0  0  0  3  0  0  0  0  0  0
  187.0840  177.9420  145.0660 C   0  0  0  0  0  0  0  0  0  0  0  0
  186.2490  177.7040  147.3290 C   0  0  0  0  0  3  0  0  0  0  0  0
  189.6760  177.2480  146.9890 N   0  0  0  0  0  2  0  0  0  0  0  0
  188.4050  176.6180  146.8070 C   0  0  0  0  0  0  0  0  0  0  0  0
  188.2910  175.3830  147.0250 O   0  0  0  0  0  0  0  0  0  0  0  0
  190.9060  176.4950  147.1980 C   0  0  0  0  0  2  0  0  0  0  0  0
  191.8250  176.6200  145.9950 C   0  0  0  0  0  2  0  0  0  0  0  0
  194.0540  175.8100  144.0900 C   0  0  0  0  0  2  0  0  0  0  0  0
  194.4210  174.3220  144.0720 C   0  0  0  0  0  2  0  0  0  0  0  0
  194.0570  173.6420  145.3940 C   0  0  1  0  0  3  0  0  0  0  0  0
  193.1100  175.8310  146.1960 C   0  0  1  0  0  3  0  0  0  0  0  0
  192.8520  174.3200  146.0370 C   0  0  0  0  0  2  0  0  0  0  0  0
  194.1710  176.3300  145.3940 O   0  0  0  0  0  0  0  0  0  0  0  0
  193.7720  172.1730  145.1590 C   0  0  0  0  0  3  0  0  0  0  0  0
  194.6310  171.4010  145.9140 O   0  0  0  0  0  0  0  0  0  0  0  0
  194.8820  171.5710  144.6050 O   0  0  0  0  0  0  0  0  0  0  0  0
  188.2820  177.6850  143.7560 S   0  0  0  0  0  0  0  0  0  0  0  0
  187.6680  176.0220  143.3680 C   0  0  0  0  0  2  0  0  0  0  0  0
  188.3680  175.4820  142.1320 C   0  0  0  0  0  2  0  0  0  0  0  0
  189.2440  174.2820  142.4850 C   0  0  0  0  0  0  0  0  0  0  0  0
  190.6610  174.5130  142.9690 C   0  0  0  0  0  2  0  0  0  0  0  0
  189.5520  174.2310  143.9670 C   0  0  0  0  0  2  0  0  0  0  0  0
  188.9030  172.9980  142.0000 O   0  0  0  0  0  0  0  0  0  0  0  0
  189.3070  172.8050  140.6530 C   0  0  0  0  0  0  0  0  0  0  0  0
  190.0400  173.8940  140.1750 O   0  0  0  0  0  1  0  0  0  0  0  0
  188.1600  172.6790  139.8680 O   0  0  0  0  0  1  0  0  0  0  0  0
  190.3300  170.9210  141.7350 O   0  0  0  0  0  1  0  0  0  0  0  0
  190.1380  171.5360  140.4960 C   0  0  0  0  0  2  0  0  0  0  0  0
  1  8  1  0  0  0  0
  1  6  1  0  0  0  0
  2  4  1  0  0  0  0
  3  5  1  0  0  0  0
  3  2  2  0  0  0  0
  4  6  2  0  0  0  0
  5  1  2  0  0  0  0
  7 10  1  0  0  0  0
  8  7  1  0  0  0  0
  8  9  2  0  0  0  0
 11 10  1  0  0  0  0
 12 17  1  0  0  0  0
 13 12  1  0  0  0  0
 13 14  1  0  0  0  0
 14 18  1  6  0  0  0
 14 16  1  0  0  0  0
 15 11  1  6  0  0  0
 16 15  1  0  0  0  0
 17 15  1  0  0  0  0
 18 19  1  0  0  0  0
 20 18  1  0  0  0  0
 20 19  1  0  0  0  0
 21  5  1  0  0  0  0
 22 21  1  0  0  0  0
 23 24  1  0  0  0  0
 23 22  1  0  0  0  0
 24 25  1  0  0  0  0
 24 26  1  0  0  0  0
 25 26  1  0  0  0  0
 27 24  1  0  0  0  0
 28 27  1  0  0  0  0
 29 28  1  0  0  0  0
 30 28  1  0  0  0  0
 32 28  1  0  0  0  0
 32 31  1  0  0  0  0
M  END
>  <MODEL>
4

>  <REMARK>
 VINA RESULT:      -5.8      2.238      6.272
  Name = 
  12 active torsions:
  status: ('A' for Active; 'I' for Inactive)
    1  A    between atoms: C_1  and  C_15
    2  A    between atoms: C_2  and  C_10
    3  A    between atoms: C_3  and  C_9
    4  A    between atoms: C_3  and  O_11
    5  A    between atoms: C_6  and  O_11
    6  A    between atoms: C_6  and  C_21
    7  A    between atoms: C_8  and  C_18
    8  A    between atoms: C_8  and  C_24
    9  A    between atoms: C_9  and  C_30
   10  A    between atoms: S_13  and  C_26
   11  A    between atoms: S_13  and  C_30
   12  A    between atoms: N_14  and  C_24
                            x       y       z     vdW  Elec       q    Type
                         _______ _______ _______ _____ _____    ______ ____

>  <TORSDO>
F 12

$$$$
=
 OpenBabel11042419353D

 32 35  0  0  1  0  0  0  0  0999 V2000
  186.9090  177.8370  144.4190 C   0  0  0  0  0  0  0  0  0  0  0  0
  185.3570  179.0790  146.4130 C   0  0  0  0  0  3  0  0  0  0  0  0
  186.2340  178.0490  146.7490 C   0  0  0  0  0  3  0  0  0  0  0  0
  185.2440  179.4870  145.0880 C   0  0  0  0  0  3  0  0  0  0  0  0
  187.0100  177.4180  145.7680 C   0  0  0  0  0  0  0  0  0  0  0  0
  186.0130  178.8690  144.1010 C   0  0  0  0  0  3  0  0  0  0  0  0
  187.2080  176.0620  142.6590 N   0  0  0  0  0  2  0  0  0  0  0  0
  187.6930  177.2380  143.3130 C   0  0  0  0  0  0  0  0  0  0  0  0
  188.7760  177.7560  142.9310 O   0  0  0  0  0  0  0  0  0  0  0  0
  188.0150  175.2940  141.7190 C   0  0  0  0  0  2  0  0  0  0  0  0
  188.6590  174.1050  142.4080 C   0  0  0  0  0  2  0  0  0  0  0  0
  191.5120  173.9090  141.3700 C   0  0  0  0  0  2  0  0  0  0  0  0
  192.5170  173.2010  142.2840 C   0  0  0  0  0  2  0  0  0  0  0  0
  192.0820  173.2680  143.7500 C   0  0  1  0  0  3  0  0  0  0  0  0
  190.0020  174.4800  143.0190 C   0  0  1  0  0  3  0  0  0  0  0  0
  190.5620  173.3170  143.8610 C   0  0  0  0  0  2  0  0  0  0  0  0
  190.9050  174.9860  142.0460 O   0  0  0  0  0  0  0  0  0  0  0  0
  192.6270  172.0750  144.5060 C   0  0  0  0  0  3  0  0  0  0  0  0
  193.5750  172.4910  145.4190 O   0  0  0  0  0  0  0  0  0  0  0  0
  193.9780  171.9490  144.2580 O   0  0  0  0  0  0  0  0  0  0  0  0
  188.0960  176.0990  146.3130 S   0  0  0  0  0  0  0  0  0  0  0  0
  189.5420  177.1900  146.4360 C   0  0  0  0  0  2  0  0  0  0  0  0
  190.7390  176.5490  145.7520 C   0  0  0  0  0  2  0  0  0  0  0  0
  191.8000  176.1490  146.7760 C   0  0  0  0  0  0  0  0  0  0  0  0
  191.7980  176.8060  148.1420 C   0  0  0  0  0  2  0  0  0  0  0  0
  191.1900  175.4260  147.9600 C   0  0  0  0  0  2  0  0  0  0  0  0
  192.9790  175.5010  146.3460 O   0  0  0  0  0  0  0  0  0  0  0  0
  193.9540  176.4140  145.8660 C   0  0  0  0  0  0  0  0  0  0  0  0
  194.3640  177.3010  146.8650 O   0  0  0  0  0  1  0  0  0  0  0  0
  193.3810  177.1610  144.8350 O   0  0  0  0  0  1  0  0  0  0  0  0
  195.7790  176.4450  144.3040 O   0  0  0  0  0  1  0  0  0  0  0  0
  195.1740  175.6880  145.3110 C   0  0  0  0  0  2  0  0  0  0  0  0
  1  5  1  0  0  0  0
  2  3  1  0  0  0  0
  4  2  2  0  0  0  0
  5 21  1  0  0  0  0
  5  3  2  0  0  0  0
  6  1  2  0  0  0  0
  6  4  1  0  0  0  0
  7  8  1  0  0  0  0
  8  1  1  0  0  0  0
  9  8  2  0  0  0  0
 10 11  1  0  0  0  0
 10  7  1  0  0  0  0
 12 17  1  0  0  0  0
 12 13  1  0  0  0  0
 13 14  1  0  0  0  0
 14 16  1  0  0  0  0
 14 18  1  1  0  0  0
 15 11  1  6  0  0  0
 15 16  1  0  0  0  0
 17 15  1  0  0  0  0
 18 19  1  0  0  0  0
 20 18  1  0  0  0  0
 20 19  1  0  0  0  0
 21 22  1  0  0  0  0
 23 22  1  0  0  0  0
 23 24  1  0  0  0  0
 24 26  1  0  0  0  0
 24 25  1  0  0  0  0
 26 25  1  0  0  0  0
 27 24  1  0  0  0  0
 28 27  1  0  0  0  0
 28 29  1  0  0  0  0
 30 28  1  0  0  0  0
 31 32  1  0  0  0  0
 32 28  1  0  0  0  0
M  END
>  <MODEL>
5

>  <REMARK>
 VINA RESULT:      -5.8      2.943      7.072
  Name = 
  12 active torsions:
  status: ('A' for Active; 'I' for Inactive)
    1  A    between atoms: C_1  and  C_15
    2  A    between atoms: C_2  and  C_10
    3  A    between atoms: C_3  and  C_9
    4  A    between atoms: C_3  and  O_11
    5  A    between atoms: C_6  and  O_11
    6  A    between atoms: C_6  and  C_21
    7  A    between atoms: C_8  and  C_18
    8  A    between atoms: C_8  and  C_24
    9  A    between atoms: C_9  and  C_30
   10  A    between atoms: S_13  and  C_26
   11  A    between atoms: S_13  and  C_30
   12  A    between atoms: N_14  and  C_24
                            x       y       z     vdW  Elec       q    Type
                         _______ _______ _______ _____ _____    ______ ____

>  <TORSDO>
F 12

$$$$
=
 OpenBabel11042419353D

 32 35  0  0  1  0  0  0  0  0999 V2000
  189.2710  174.5440  143.1420 C   0  0  0  0  0  0  0  0  0  0  0  0
  189.6750  171.9380  144.1320 C   0  0  0  0  0  3  0  0  0  0  0  0
  189.8750  173.0410  144.9610 C   0  0  0  0  0  3  0  0  0  0  0  0
  189.2850  172.1280  142.8110 C   0  0  0  0  0  3  0  0  0  0  0  0
  189.6810  174.3430  144.4830 C   0  0  0  0  0  0  0  0  0  0  0  0
  189.0860  173.4200  142.3220 C   0  0  0  0  0  3  0  0  0  0  0  0
  187.7260  176.2200  142.0750 N   0  0  0  0  0  2  0  0  0  0  0  0
  189.0330  175.8790  142.5470 C   0  0  0  0  0  0  0  0  0  0  0  0
  189.9620  176.7250  142.4590 O   0  0  0  0  0  0  0  0  0  0  0  0
  187.4600  177.4180  141.2880 C   0  0  0  0  0  2  0  0  0  0  0  0
  186.5240  178.3530  142.0320 C   0  0  0  0  0  2  0  0  0  0  0  0
  184.0670  179.0330  143.6930 C   0  0  0  0  0  2  0  0  0  0  0  0
  184.2570  179.0290  145.2130 C   0  0  0  0  0  2  0  0  0  0  0  0
  185.4180  178.1220  145.6290 C   0  0  1  0  0  3  0  0  0  0  0  0
  185.8430  177.6460  143.1950 C   0  0  1  0  0  3  0  0  0  0  0  0
  186.4780  178.0660  144.5350 C   0  0  0  0  0  2  0  0  0  0  0  0
  184.4300  177.7860  143.1480 O   0  0  0  0  0  0  0  0  0  0  0  0
  186.0230  178.6170  146.9260 C   0  0  0  0  0  3  0  0  0  0  0  0
  185.9010  177.6480  147.9010 O   0  0  0  0  0  0  0  0  0  0  0  0
  185.0450  178.6830  147.8950 O   0  0  0  0  0  0  0  0  0  0  0  0
  189.9750  175.6870  145.6350 S   0  0  0  0  0  0  0  0  0  0  0  0
  191.7240  175.2570  145.8630 C   0  0  0  0  0  2  0  0  0  0  0  0
  192.4960  175.5080  144.5780 C   0  0  0  0  0  2  0  0  0  0  0  0
  193.6640  174.5330  144.4470 C   0  0  0  0  0  0  0  0  0  0  0  0
  193.7990  173.3970  145.4410 C   0  0  0  0  0  2  0  0  0  0  0  0
  193.1920  173.1420  144.0730 C   0  0  0  0  0  2  0  0  0  0  0  0
  194.7990  174.8970  143.6880 O   0  0  0  0  0  0  0  0  0  0  0  0
  195.7870  175.5470  144.4730 C   0  0  0  0  0  0  0  0  0  0  0  0
  195.2880  175.9160  145.7250 O   0  0  0  0  0  1  0  0  0  0  0  0
  196.1790  176.7090  143.8060 O   0  0  0  0  0  1  0  0  0  0  0  0
  197.1210  173.7390  143.6250 O   0  0  0  0  0  1  0  0  0  0  0  0
  197.0170  174.6660  144.6640 C   0  0  0  0  0  2  0  0  0  0  0  0
  1  5  1  0  0  0  0
  2  3  1  0  0  0  0
  4  2  2  0  0  0  0
  5  3  2  0  0  0  0
  5 21  1  0  0  0  0
  6  4  1  0  0  0  0
  6  1  2  0  0  0  0
  7  8  1  0  0  0  0
  8  1  1  0  0  0  0
  9  8  2  0  0  0  0
 10 11  1  0  0  0  0
 10  7  1  0  0  0  0
 12 13  1  0  0  0  0
 13 14  1  0  0  0  0
 14 18  1  1  0  0  0
 15 11  1  6  0  0  0
 15 16  1  0  0  0  0
 16 14  1  0  0  0  0
 17 15  1  0  0  0  0
 17 12  1  0  0  0  0
 18 20  1  0  0  0  0
 18 19  1  0  0  0  0
 20 19  1  0  0  0  0
 21 22  1  0  0  0  0
 23 22  1  0  0  0  0
 24 23  1  0  0  0  0
 24 25  1  0  0  0  0
 26 24  1  0  0  0  0
 26 25  1  0  0  0  0
 27 24  1  0  0  0  0
 27 28  1  0  0  0  0
 28 32  1  0  0  0  0
 28 29  1  0  0  0  0
 30 28  1  0  0  0  0
 31 32  1  0  0  0  0
M  END
>  <MODEL>
6

>  <REMARK>
 VINA RESULT:      -5.8      3.181      5.284
  Name = 
  12 active torsions:
  status: ('A' for Active; 'I' for Inactive)
    1  A    between atoms: C_1  and  C_15
    2  A    between atoms: C_2  and  C_10
    3  A    between atoms: C_3  and  C_9
    4  A    between atoms: C_3  and  O_11
    5  A    between atoms: C_6  and  O_11
    6  A    between atoms: C_6  and  C_21
    7  A    between atoms: C_8  and  C_18
    8  A    between atoms: C_8  and  C_24
    9  A    between atoms: C_9  and  C_30
   10  A    between atoms: S_13  and  C_26
   11  A    between atoms: S_13  and  C_30
   12  A    between atoms: N_14  and  C_24
                            x       y       z     vdW  Elec       q    Type
                         _______ _______ _______ _____ _____    ______ ____

>  <TORSDO>
F 12

$$$$
=
 OpenBabel11042419353D

 32 35  0  0  1  0  0  0  0  0999 V2000
  191.7150  176.2570  144.8100 C   0  0  0  0  0  0  0  0  0  0  0  0
  193.9280  174.6490  145.4800 C   0  0  0  0  0  3  0  0  0  0  0  0
  192.6430  174.2680  145.8650 C   0  0  0  0  0  3  0  0  0  0  0  0
  194.1150  175.8300  144.7710 C   0  0  0  0  0  3  0  0  0  0  0  0
  191.5330  175.0590  145.5430 C   0  0  0  0  0  0  0  0  0  0  0  0
  193.0170  176.6260  144.4400 C   0  0  0  0  0  3  0  0  0  0  0  0
  190.1230  177.1330  143.0670 N   0  0  0  0  0  2  0  0  0  0  0  0
  190.6040  177.1550  144.4140 C   0  0  0  0  0  0  0  0  0  0  0  0
  190.0690  177.9310  145.2490 O   0  0  0  0  0  0  0  0  0  0  0  0
  189.1920  178.1250  142.5470 C   0  0  0  0  0  2  0  0  0  0  0  0
  188.1530  177.4720  141.6530 C   0  0  0  0  0  2  0  0  0  0  0  0
  185.2250  178.2910  141.7620 C   0  0  0  0  0  2  0  0  0  0  0  0
  184.6580  178.5900  143.1530 C   0  0  0  0  0  2  0  0  0  0  0  0
  185.4420  177.8580  144.2450 C   0  0  1  0  0  3  0  0  0  0  0  0
  186.9720  176.9560  142.4630 C   0  0  1  0  0  3  0  0  0  0  0  0
  186.8960  177.6650  143.8280 C   0  0  0  0  0  2  0  0  0  0  0  0
  185.7620  176.9900  141.7180 O   0  0  0  0  0  0  0  0  0  0  0  0
  185.3640  178.6300  145.5450 C   0  0  0  0  0  3  0  0  0  0  0  0
  184.5330  177.9750  146.4310 O   0  0  0  0  0  0  0  0  0  0  0  0
  184.0650  179.0410  145.7600 O   0  0  0  0  0  0  0  0  0  0  0  0
  189.9290  174.4760  146.0970 S   0  0  0  0  0  0  0  0  0  0  0  0
  189.9130  173.0770  144.9400 C   0  0  0  0  0  2  0  0  0  0  0  0
  189.4740  173.5450  143.5620 C   0  0  0  0  0  2  0  0  0  0  0  0
  190.3160  172.8850  142.4720 C   0  0  0  0  0  0  0  0  0  0  0  0
  191.7310  173.3710  142.2280 C   0  0  0  0  0  2  0  0  0  0  0  0
  191.4860  172.1200  143.0540 C   0  0  0  0  0  2  0  0  0  0  0  0
  189.6820  172.1330  141.4560 O   0  0  0  0  0  0  0  0  0  0  0  0
  189.2750  172.9400  140.3610 C   0  0  0  0  0  0  0  0  0  0  0  0
  189.3860  174.3010  140.6570 O   0  0  0  0  0  1  0  0  0  0  0  0
  187.9330  172.6660  140.0930 O   0  0  0  0  0  1  0  0  0  0  0  0
  190.2810  173.7920  138.3540 O   0  0  0  0  0  1  0  0  0  0  0  0
  190.0870  172.6320  139.1080 C   0  0  0  0  0  2  0  0  0  0  0  0
  1  5  1  0  0  0  0
  2  3  1  0  0  0  0
  4  2  2  0  0  0  0
  5  3  2  0  0  0  0
  5 21  1  0  0  0  0
  6  4  1  0  0  0  0
  6  1  2  0  0  0  0
  7  8  1  0  0  0  0
  8  1  1  0  0  0  0
  8  9  2  0  0  0  0
 10  7  1  0  0  0  0
 11 10  1  0  0  0  0
 12 13  1  0  0  0  0
 13 14  1  0  0  0  0
 14 18  1  1  0  0  0
 15 11  1  6  0  0  0
 15 16  1  0  0  0  0
 16 14  1  0  0  0  0
 17 12  1  0  0  0  0
 17 15  1  0  0  0  0
 18 20  1  0  0  0  0
 18 19  1  0  0  0  0
 20 19  1  0  0  0  0
 22 21  1  0  0  0  0
 23 22  1  0  0  0  0
 24 26  1  0  0  0  0
 24 23  1  0  0  0  0
 25 24  1  0  0  0  0
 25 26  1  0  0  0  0
 27 24  1  0  0  0  0
 28 29  1  0  0  0  0
 28 27  1  0  0  0  0
 30 28  1  0  0  0  0
 31 32  1  0  0  0  0
 32 28  1  0  0  0  0
M  END
>  <MODEL>
7

>  <REMARK>
 VINA RESULT:      -5.7      1.862      3.202
  Name = 
  12 active torsions:
  status: ('A' for Active; 'I' for Inactive)
    1  A    between atoms: C_1  and  C_15
    2  A    between atoms: C_2  and  C_10
    3  A    between atoms: C_3  and  C_9
    4  A    between atoms: C_3  and  O_11
    5  A    between atoms: C_6  and  O_11
    6  A    between atoms: C_6  and  C_21
    7  A    between atoms: C_8  and  C_18
    8  A    between atoms: C_8  and  C_24
    9  A    between atoms: C_9  and  C_30
   10  A    between atoms: S_13  and  C_26
   11  A    between atoms: S_13  and  C_30
   12  A    between atoms: N_14  and  C_24
                            x       y       z     vdW  Elec       q    Type
                         _______ _______ _______ _____ _____    ______ ____

>  <TORSDO>
F 12

$$$$
=
 OpenBabel11042419353D

 32 35  0  0  1  0  0  0  0  0999 V2000
  190.0920  175.8860  145.0750 C   0  0  0  0  0  0  0  0  0  0  0  0
  190.6840  175.2950  147.7640 C   0  0  0  0  0  3  0  0  0  0  0  0
  191.6460  175.8910  146.9500 C   0  0  0  0  0  3  0  0  0  0  0  0
  189.4330  174.9850  147.2420 C   0  0  0  0  0  3  0  0  0  0  0  0
  191.3680  176.1880  145.6090 C   0  0  0  0  0  0  0  0  0  0  0  0
  189.1420  175.2780  145.9090 C   0  0  0  0  0  3  0  0  0  0  0  0
  189.2500  177.4790  143.3170 N   0  0  0  0  0  2  0  0  0  0  0  0
  189.7010  176.1690  143.6740 C   0  0  0  0  0  0  0  0  0  0  0  0
  189.7690  175.2770  142.7880 O   0  0  0  0  0  0  0  0  0  0  0  0
  188.6480  177.7800  142.0240 C   0  0  0  0  0  2  0  0  0  0  0  0
  187.2350  178.3080  142.1990 C   0  0  0  0  0  2  0  0  0  0  0  0
  184.3710  178.4530  143.2170 C   0  0  0  0  0  2  0  0  0  0  0  0
  184.2000  178.6670  144.7250 C   0  0  0  0  0  2  0  0  0  0  0  0
  185.4220  178.1700  145.5020 C   0  0  1  0  0  3  0  0  0  0  0  0
  186.5020  177.5690  143.3100 C   0  0  1  0  0  3  0  0  0  0  0  0
  186.6860  178.2930  144.6580 C   0  0  0  0  0  2  0  0  0  0  0  0
  185.1480  177.3040  142.9690 O   0  0  0  0  0  0  0  0  0  0  0  0
  185.5690  178.9520  146.7900 C   0  0  0  0  0  3  0  0  0  0  0  0
  185.7240  178.0830  147.8510 O   0  0  0  0  0  0  0  0  0  0  0  0
  184.5240  178.6470  147.6370 O   0  0  0  0  0  0  0  0  0  0  0  0
  192.6830  176.9470  144.6540 S   0  0  0  0  0  0  0  0  0  0  0  0
  193.9810  175.9490  145.4400 C   0  0  0  0  0  2  0  0  0  0  0  0
  194.7740  175.1980  144.3820 C   0  0  0  0  0  2  0  0  0  0  0  0
  195.3040  173.8780  144.9370 C   0  0  0  0  0  0  0  0  0  0  0  0
  196.6260  173.3360  144.4300 C   0  0  0  0  0  2  0  0  0  0  0  0
  196.5640  174.0790  145.7530 C   0  0  0  0  0  2  0  0  0  0  0  0
  194.4210  172.9870  145.5890 O   0  0  0  0  0  0  0  0  0  0  0  0
  193.6100  172.2640  144.6750 C   0  0  0  0  0  0  0  0  0  0  0  0
  193.5860  170.9000  144.9770 O   0  0  0  0  0  1  0  0  0  0  0  0
  194.1520  172.4140  143.3980 O   0  0  0  0  0  1  0  0  0  0  0  0
  191.5880  172.5590  143.4130 O   0  0  0  0  0  1  0  0  0  0  0  0
  192.1810  172.7970  144.6550 C   0  0  0  0  0  2  0  0  0  0  0  0
  1  5  2  0  0  0  0
  1  6  1  0  0  0  0
  3  2  2  0  0  0  0
  4  2  1  0  0  0  0
  5  3  1  0  0  0  0
  6  4  2  0  0  0  0
  7  8  1  0  0  0  0
  8  1  1  0  0  0  0
  9  8  2  0  0  0  0
 10 11  1  0  0  0  0
 10  7  1  0  0  0  0
 12 13  1  0  0  0  0
 13 14  1  0  0  0  0
 14 18  1  1  0  0  0
 15 11  1  6  0  0  0
 15 16  1  0  0  0  0
 16 14  1  0  0  0  0
 17 12  1  0  0  0  0
 17 15  1  0  0  0  0
 18 20  1  0  0  0  0
 18 19  1  0  0  0  0
 20 19  1  0  0  0  0
 21 22  1  0  0  0  0
 21  5  1  0  0  0  0
 23 24  1  0  0  0  0
 23 22  1  0  0  0  0
 24 27  1  0  0  0  0
 24 26  1  0  0  0  0
 25 24  1  0  0  0  0
 25 26  1  0  0  0  0
 28 29  1  0  0  0  0
 28 27  1  0  0  0  0
 30 28  1  0  0  0  0
 31 32  1  0  0  0  0
 32 28  1  0  0  0  0
M  END
>  <MODEL>
8

>  <REMARK>
 VINA RESULT:      -5.7      2.661      4.499
  Name = 
  12 active torsions:
  status: ('A' for Active; 'I' for Inactive)
    1  A    between atoms: C_1  and  C_15
    2  A    between atoms: C_2  and  C_10
    3  A    between atoms: C_3  and  C_9
    4  A    between atoms: C_3  and  O_11
    5  A    between atoms: C_6  and  O_11
    6  A    between atoms: C_6  and  C_21
    7  A    between atoms: C_8  and  C_18
    8  A    between atoms: C_8  and  C_24
    9  A    between atoms: C_9  and  C_30
   10  A    between atoms: S_13  and  C_26
   11  A    between atoms: S_13  and  C_30
   12  A    between atoms: N_14  and  C_24
                            x       y       z     vdW  Elec       q    Type
                         _______ _______ _______ _____ _____    ______ ____

>  <TORSDO>
F 12

$$$$
=
 OpenBabel11042419353D

 32 35  0  0  1  0  0  0  0  0999 V2000
  187.1510  177.7070  145.7170 C   0  0  0  0  0  0  0  0  0  0  0  0
  185.1120  179.2370  144.5210 C   0  0  0  0  0  3  0  0  0  0  0  0
  186.2210  178.8440  143.7740 C   0  0  0  0  0  3  0  0  0  0  0  0
  185.0180  178.8790  145.8610 C   0  0  0  0  0  3  0  0  0  0  0  0
  187.2460  178.0860  144.3550 C   0  0  0  0  0  0  0  0  0  0  0  0
  186.0300  178.1210  146.4520 C   0  0  0  0  0  3  0  0  0  0  0  0
  189.3750  177.5300  146.8840 N   0  0  0  0  0  2  0  0  0  0  0  0
  188.1780  176.9000  146.4180 C   0  0  0  0  0  0  0  0  0  0  0  0
  188.0080  175.6690  146.6200 O   0  0  0  0  0  0  0  0  0  0  0  0
  190.5170  176.7770  147.3840 C   0  0  0  0  0  2  0  0  0  0  0  0
  191.5120  176.5040  146.2700 C   0  0  0  0  0  2  0  0  0  0  0  0
  194.4550  176.9200  145.6200 C   0  0  0  0  0  2  0  0  0  0  0  0
  195.2560  175.6600  145.2760 C   0  0  0  0  0  2  0  0  0  0  0  0
  194.6250  174.4110  145.8960 C   0  0  1  0  0  3  0  0  0  0  0  0
  192.7830  175.8620  146.8080 C   0  0  1  0  0  3  0  0  0  0  0  0
  193.1150  174.5750  146.0270 C   0  0  0  0  0  2  0  0  0  0  0  0
  193.8550  176.7910  146.8880 O   0  0  0  0  0  0  0  0  0  0  0  0
  194.9520  173.1930  145.0570 C   0  0  0  0  0  3  0  0  0  0  0  0
  195.7810  172.3450  145.7630 O   0  0  0  0  0  0  0  0  0  0  0  0
  196.3110  173.1460  144.8230 O   0  0  0  0  0  0  0  0  0  0  0  0
  188.6300  177.6440  143.3030 S   0  0  0  0  0  0  0  0  0  0  0  0
  187.6090  176.6250  142.1990 C   0  0  0  0  0  2  0  0  0  0  0  0
  187.7350  175.1590  142.5780 C   0  0  0  0  0  2  0  0  0  0  0  0
  188.7400  174.4490  141.6740 C   0  0  0  0  0  0  0  0  0  0  0  0
  188.4330  173.0510  141.1750 C   0  0  0  0  0  2  0  0  0  0  0  0
  188.1920  174.2500  140.2760 C   0  0  0  0  0  2  0  0  0  0  0  0
  190.0800  174.8960  141.6270 O   0  0  0  0  0  0  0  0  0  0  0  0
  190.8340  174.4620  142.7480 C   0  0  0  0  0  0  0  0  0  0  0  0
  190.0330  174.3270  143.8850 O   0  0  0  0  0  1  0  0  0  0  0  0
  191.8080  175.4250  143.0190 O   0  0  0  0  0  1  0  0  0  0  0  0
  191.6360  172.3810  143.6410 O   0  0  0  0  0  1  0  0  0  0  0  0
  191.5350  173.1360  142.4700 C   0  0  0  0  0  2  0  0  0  0  0  0
  1  8  1  0  0  0  0
  1  6  1  0  0  0  0
  2  4  1  0  0  0  0
  3  5  1  0  0  0  0
  3  2  2  0  0  0  0
  4  6  2  0  0  0  0
  5  1  2  0  0  0  0
  7 10  1  0  0  0  0
  8  9  2  0  0  0  0
  8  7  1  0  0  0  0
 11 10  1  0  0  0  0
 12 17  1  0  0  0  0
 13 12  1  0  0  0  0
 13 14  1  0  0  0  0
 14 18  1  6  0  0  0
 14 16  1  0  0  0  0
 15 11  1  6  0  0  0
 15 17  1  0  0  0  0
 16 15  1  0  0  0  0
 18 19  1  0  0  0  0
 20 18  1  0  0  0  0
 20 19  1  0  0  0  0
 21  5  1  0  0  0  0
 22 23  1  0  0  0  0
 22 21  1  0  0  0  0
 24 23  1  0  0  0  0
 25 24  1  0  0  0  0
 26 25  1  0  0  0  0
 26 24  1  0  0  0  0
 27 24  1  0  0  0  0
 27 28  1  0  0  0  0
 28 30  1  0  0  0  0
 28 29  1  0  0  0  0
 32 28  1  0  0  0  0
 32 31  1  0  0  0  0
M  END
>  <MODEL>
9

>  <REMARK>
 VINA RESULT:      -5.7      2.621      6.633
  Name = 
  12 active torsions:
  status: ('A' for Active; 'I' for Inactive)
    1  A    between atoms: C_1  and  C_15
    2  A    between atoms: C_2  and  C_10
    3  A    between atoms: C_3  and  C_9
    4  A    between atoms: C_3  and  O_11
    5  A    between atoms: C_6  and  O_11
    6  A    between atoms: C_6  and  C_21
    7  A    between atoms: C_8  and  C_18
    8  A    between atoms: C_8  and  C_24
    9  A    between atoms: C_9  and  C_30
   10  A    between atoms: S_13  and  C_26
   11  A    between atoms: S_13  and  C_30
   12  A    between atoms: N_14  and  C_24
                            x       y       z     vdW  Elec       q    Type
                         _______ _______ _______ _____ _____    ______ ____

>  <TORSDO>
F 12

$$$$
