=
 OpenBabel11042419023D

 41 45  0  0  1  0  0  0  0  0999 V2000
  193.7600  169.9460  143.5790 C   0  0  0  0  0  3  0  0  0  0  0  0
  194.7990  173.8410  143.8960 C   0  0  0  0  0  0  0  0  0  0  0  0
  194.2240  175.9130  145.0480 C   0  0  0  0  0  0  0  0  0  0  0  0
  193.3450  176.7640  145.8940 C   0  0  0  0  0  1  0  0  0  0  0  0
  189.6110  173.2980  144.3970 C   0  0  0  0  0  3  0  0  0  0  0  0
  193.8740  174.5940  144.6650 C   0  0  0  0  0  0  0  0  0  0  0  0
  194.1960  171.2700  144.7130 S   0  0  0  0  0  0  0  0  0  0  0  0
  189.6210  171.7860  142.4270 C   0  0  0  0  0  3  0  0  0  0  0  0
  190.1340  172.2920  143.6840 C   0  0  0  0  0  0  0  0  0  0  0  0
  196.0080  174.4370  143.5040 C   0  0  0  0  0  0  0  0  0  0  0  0
  191.4670  174.6020  145.3860 C   0  0  0  0  0  3  0  0  0  0  0  0
  192.5750  173.9690  145.0110 C   0  0  0  0  0  3  0  0  0  0  0  0
  191.3120  171.5750  144.0100 N   0  0  0  0  0  0  0  0  0  0  0  0
  191.4720  170.7630  143.0150 C   0  0  0  0  0  0  0  0  0  0  0  0
  195.4110  176.4400  144.6510 N   0  0  0  0  0  0  0  0  0  0  0  0
  190.4280  170.8570  142.0270 N   0  0  0  0  0  0  0  0  0  0  0  0
  194.4590  172.4710  143.3650 C   0  0  0  0  0  2  0  0  0  0  0  0
  197.1830  173.5870  142.5030 Cl  0  0  0  0  0  0  0  0  0  0  0  0
  190.2070  173.8410  145.6680 C   0  0  1  0  0  3  0  0  0  0  0  0
  192.6070  169.8050  142.9110 C   0  0  0  0  0  0  0  0  0  0  0  0
  196.2960  175.7400  143.9040 C   0  0  0  0  0  3  0  0  0  0  0  0
  188.4330  175.5430  146.7190 C   0  0  0  0  0  0  0  0  0  0  0  0
  189.2400  174.7740  146.2580 C   0  0  0  0  0  0  0  0  0  0  0  0
  187.4630  176.5100  147.2500 C   0  0  0  0  0  2  0  0  0  0  0  0
  185.3080  179.3170  145.8510 O   0  0  0  0  0  0  0  0  0  0  0  0
  185.5910  177.8460  145.9890 S   0  0  0  0  0  0  0  0  0  0  0  0
  184.7460  177.0400  146.9410 O   0  0  0  0  0  0  0  0  0  0  0  0
  187.3000  177.6300  146.3300 N   0  0  0  0  0  0  0  0  0  0  0  0
  186.9080  177.0890  145.1200 N   0  0  2  0  0  0  0  0  0  0  0  0
  186.9340  175.2570  142.6140 C   0  0  0  0  0  1  0  0  0  0  0  0
  186.8690  176.5980  141.9000 C   0  0  1  0  0  3  0  0  0  0  0  0
  186.3230  177.6940  142.8270 C   0  0  0  0  0  2  0  0  0  0  0  0
  187.2640  177.9880  144.0110 C   0  0  2  0  0  3  0  0  0  0  0  0
  188.7550  177.8680  143.6150 C   0  0  0  0  0  2  0  0  0  0  0  0
  188.9800  178.0500  142.1190 C   0  0  0  0  0  2  0  0  0  0  0  0
  188.2500  176.9560  141.3280 C   0  0  0  0  0  2  0  0  0  0  0  0
  192.5180  168.6750  142.0460 N   0  0  0  0  0  2  0  0  0  0  0  0
  193.1770  168.6190  140.8320 O   0  0  0  0  0  0  0  0  0  0  0  0
  194.1480  170.6520  139.9360 O   0  0  0  0  0  1  0  0  0  0  0  0
  193.1330  169.6940  139.9440 C   0  0  0  0  0  0  0  0  0  0  0  0
  192.1730  169.7970  139.1290 O   0  0  0  0  0  0  0  0  0  0  0  0
  1  7  1  0  0  0  0
  2  6  1  0  0  0  0
  3  4  1  0  0  0  0
  5 19  1  0  0  0  0
  6 12  1  0  0  0  0
  6  3  2  0  0  0  0
  8  9  1  0  0  0  0
  9 13  1  0  0  0  0
  9  5  2  0  0  0  0
 10  2  2  0  0  0  0
 10 21  1  0  0  0  0
 11 19  1  0  0  0  0
 12 11  2  0  0  0  0
 14 13  2  0  0  0  0
 15  3  1  0  0  0  0
 16  8  2  0  0  0  0
 16 14  1  0  0  0  0
 17  2  1  0  0  0  0
 17  7  1  0  0  0  0
 18 10  1  0  0  0  0
 19 23  1  6  0  0  0
 20 14  1  0  0  0  0
 20  1  2  0  0  0  0
 21 15  2  0  0  0  0
 22 24  1  0  0  0  0
 23 22  3  0  0  0  0
 25 26  2  0  0  0  0
 26 28  1  0  0  0  0
 26 27  2  0  0  0  0
 28 24  1  0  0  0  0
 29 26  1  0  0  0  0
 29 28  1  1  0  0  0
 31 30  1  1  0  0  0
 31 32  1  0  0  0  0
 33 32  1  6  0  0  0
 33 29  1  0  0  0  0
 34 33  1  0  0  0  0
 35 34  1  0  0  0  0
 36 31  1  0  0  0  0
 36 35  1  0  0  0  0
 37 20  1  0  0  0  0
 38 37  1  0  0  0  0
 39 40  1  0  0  0  0
 40 38  1  0  0  0  0
 41 40  2  0  0  0  0
M  END
>  <MODEL>
1

>  <REMARK>
 VINA RESULT:      -7.3      0.000      0.000
  Name = 
  7 active torsions:
  status: ('A' for Active; 'I' for Inactive)
    1  A    between atoms: N_3  and  O_31
    2  A    between atoms: N_3  and  C_39
    3  A    between atoms: C_14  and  C_35
    4  A    between atoms: C_15  and  N_34
    5  A    between atoms: N_27  and  C_35
    6  A    between atoms: C_28  and  O_31
    7  A    between atoms: C_37  and  C_40
                            x       y       z     vdW  Elec       q    Type
                         _______ _______ _______ _____ _____    ______ ____

>  <TORSDO>
F 7

$$$$
=
 OpenBabel11042419023D

 41 45  0  0  1  0  0  0  0  0999 V2000
  193.1400  169.5860  142.6990 C   0  0  0  0  0  3  0  0  0  0  0  0
  194.8760  173.0230  143.9320 C   0  0  0  0  0  0  0  0  0  0  0  0
  194.5890  174.8980  145.4660 C   0  0  0  0  0  0  0  0  0  0  0  0
  193.8030  175.7310  146.4150 C   0  0  0  0  0  1  0  0  0  0  0  0
  189.6590  173.5170  143.9400 C   0  0  0  0  0  3  0  0  0  0  0  0
  194.0350  173.7880  144.7810 C   0  0  0  0  0  0  0  0  0  0  0  0
  193.6950  170.5320  144.1220 S   0  0  0  0  0  0  0  0  0  0  0  0
  189.5980  172.4620  141.6930 C   0  0  0  0  0  3  0  0  0  0  0  0
  190.0530  172.5860  143.0630 C   0  0  0  0  0  0  0  0  0  0  0  0
  196.2150  173.4120  143.7640 C   0  0  0  0  0  0  0  0  0  0  0  0
  191.6100  174.1680  145.3180 C   0  0  0  0  0  3  0  0  0  0  0  0
  192.6080  173.4000  144.8900 C   0  0  0  0  0  3  0  0  0  0  0  0
  191.0240  171.5810  143.3050 N   0  0  0  0  0  0  0  0  0  0  0  0
  191.1350  170.9700  142.1700 C   0  0  0  0  0  0  0  0  0  0  0  0
  195.8930  175.2260  145.2770 N   0  0  0  0  0  0  0  0  0  0  0  0
  190.2470  171.4810  141.1560 N   0  0  0  0  0  0  0  0  0  0  0  0
  194.3380  171.8930  143.0910 C   0  0  0  0  0  2  0  0  0  0  0  0
  197.3070  172.5470  142.6850 Cl  0  0  0  0  0  0  0  0  0  0  0  0
  190.2020  173.6540  145.3370 C   0  0  1  0  0  3  0  0  0  0  0  0
  192.0650  169.8320  141.9380 C   0  0  0  0  0  0  0  0  0  0  0  0
  196.7030  174.5160  144.4590 C   0  0  0  0  0  3  0  0  0  0  0  0
  188.6720  175.4330  146.6220 C   0  0  0  0  0  0  0  0  0  0  0  0
  189.3750  174.6350  146.0490 C   0  0  0  0  0  0  0  0  0  0  0  0
  187.8040  176.4180  147.2790 C   0  0  0  0  0  2  0  0  0  0  0  0
  185.6540  179.3520  146.1600 O   0  0  0  0  0  0  0  0  0  0  0  0
  185.8980  177.8690  146.2100 S   0  0  0  0  0  0  0  0  0  0  0  0
  185.0920  177.0410  147.1760 O   0  0  0  0  0  0  0  0  0  0  0  0
  187.6180  177.5870  146.4260 N   0  0  0  0  0  0  0  0  0  0  0  0
  187.1310  177.1170  145.2200 N   0  0  2  0  0  0  0  0  0  0  0  0
  186.7800  175.4510  142.6250 C   0  0  0  0  0  1  0  0  0  0  0  0
  186.7450  176.8360  141.9980 C   0  0  1  0  0  3  0  0  0  0  0  0
  186.3730  177.9050  143.0360 C   0  0  0  0  0  2  0  0  0  0  0  0
  187.4430  178.0590  144.1330 C   0  0  2  0  0  3  0  0  0  0  0  0
  188.8750  177.8640  143.5830 C   0  0  0  0  0  2  0  0  0  0  0  0
  188.9670  178.1250  142.0850 C   0  0  0  0  0  2  0  0  0  0  0  0
  188.0860  177.1360  141.3100 C   0  0  0  0  0  2  0  0  0  0  0  0
  191.8560  168.9430  140.8420 N   0  0  0  0  0  2  0  0  0  0  0  0
  192.2710  169.2420  139.5580 O   0  0  0  0  0  0  0  0  0  0  0  0
  191.9130  168.9280  137.1810 O   0  0  0  0  0  0  0  0  0  0  0  0
  191.4090  169.0840  138.4730 C   0  0  0  0  0  0  0  0  0  0  0  0
  190.1590  169.0670  138.6600 O   0  0  0  0  0  1  0  0  0  0  0  0
  1  7  1  0  0  0  0
  2  6  1  0  0  0  0
  3  4  1  0  0  0  0
  5 19  1  0  0  0  0
  6 12  1  0  0  0  0
  6  3  2  0  0  0  0
  8  9  1  0  0  0  0
  9 13  1  0  0  0  0
  9  5  2  0  0  0  0
 10  2  2  0  0  0  0
 10 21  1  0  0  0  0
 11 19  1  0  0  0  0
 12 11  2  0  0  0  0
 14 13  2  0  0  0  0
 15  3  1  0  0  0  0
 16  8  2  0  0  0  0
 16 14  1  0  0  0  0
 17  2  1  0  0  0  0
 17  7  1  0  0  0  0
 18 10  1  0  0  0  0
 19 23  1  1  0  0  0
 20 14  1  0  0  0  0
 20  1  2  0  0  0  0
 21 15  2  0  0  0  0
 22 24  1  0  0  0  0
 23 22  3  0  0  0  0
 25 26  2  0  0  0  0
 26 28  1  0  0  0  0
 26 27  2  0  0  0  0
 28 24  1  0  0  0  0
 29 26  1  0  0  0  0
 29 28  1  1  0  0  0
 31 30  1  1  0  0  0
 31 32  1  0  0  0  0
 33 32  1  6  0  0  0
 33 29  1  0  0  0  0
 34 33  1  0  0  0  0
 35 34  1  0  0  0  0
 36 31  1  0  0  0  0
 36 35  1  0  0  0  0
 37 20  1  0  0  0  0
 38 37  1  0  0  0  0
 39 40  2  0  0  0  0
 40 41  1  0  0  0  0
 40 38  1  0  0  0  0
M  END
>  <MODEL>
2

>  <REMARK>
 VINA RESULT:      -7.1      0.949      1.124
  Name = 
  7 active torsions:
  status: ('A' for Active; 'I' for Inactive)
    1  A    between atoms: N_3  and  O_31
    2  A    between atoms: N_3  and  C_39
    3  A    between atoms: C_14  and  C_35
    4  A    between atoms: C_15  and  N_34
    5  A    between atoms: N_27  and  C_35
    6  A    between atoms: C_28  and  O_31
    7  A    between atoms: C_37  and  C_40
                            x       y       z     vdW  Elec       q    Type
                         _______ _______ _______ _____ _____    ______ ____

>  <TORSDO>
F 7

$$$$
=
 OpenBabel11042419023D

 41 45  0  0  1  0  0  0  0  0999 V2000
  187.3240  177.8430  141.0240 C   0  0  0  0  0  3  0  0  0  0  0  0
  187.1380  176.7220  144.9040 C   0  0  0  0  0  0  0  0  0  0  0  0
  188.4250  175.6450  146.6750 C   0  0  0  0  0  0  0  0  0  0  0  0
  189.5770  174.8570  147.1900 C   0  0  0  0  0  1  0  0  0  0  0  0
  189.9250  173.2490  142.1410 C   0  0  0  0  0  3  0  0  0  0  0  0
  188.2420  175.9200  145.2960 C   0  0  0  0  0  0  0  0  0  0  0  0
  188.1390  177.9190  142.6230 S   0  0  0  0  0  0  0  0  0  0  0  0
  188.1610  173.2890  140.3920 C   0  0  0  0  0  3  0  0  0  0  0  0
  189.0530  173.8980  141.3590 C   0  0  0  0  0  0  0  0  0  0  0  0
  186.2430  177.1800  145.8840 C   0  0  0  0  0  0  0  0  0  0  0  0
  189.9710  174.3610  144.3520 C   0  0  0  0  0  3  0  0  0  0  0  0
  189.1360  175.3910  144.2390 C   0  0  0  0  0  3  0  0  0  0  0  0
  188.8120  175.2950  141.3730 N   0  0  0  0  0  0  0  0  0  0  0  0
  187.8520  175.4580  140.5210 C   0  0  0  0  0  0  0  0  0  0  0  0
  187.5360  176.1200  147.5840 N   0  0  0  0  0  0  0  0  0  0  0  0
  187.4410  174.2340  139.8820 N   0  0  0  0  0  0  0  0  0  0  0  0
  186.8170  176.9740  143.4530 C   0  0  0  0  0  2  0  0  0  0  0  0
  184.8190  178.1330  145.4710 Cl  0  0  0  0  0  0  0  0  0  0  0  0
  190.7900  173.9080  143.1810 C   0  0  1  0  0  3  0  0  0  0  0  0
  187.2480  176.7820  140.2090 C   0  0  0  0  0  0  0  0  0  0  0  0
  186.4700  176.8720  147.2230 C   0  0  0  0  0  3  0  0  0  0  0  0
  192.5650  172.1060  144.0500 C   0  0  0  0  0  0  0  0  0  0  0  0
  191.7530  172.9120  143.6650 C   0  0  0  0  0  0  0  0  0  0  0  0
  193.5640  171.1170  144.4760 C   0  0  0  0  0  2  0  0  0  0  0  0
  197.2630  170.9010  145.3420 O   0  0  0  0  0  0  0  0  0  0  0  0
  195.8400  171.1210  145.7790 S   0  0  0  0  0  0  0  0  0  0  0  0
  195.1280  170.0030  146.4930 O   0  0  0  0  0  0  0  0  0  0  0  0
  194.9080  171.6800  144.3990 N   0  0  0  0  0  0  0  0  0  0  0  0
  194.9990  172.6130  145.4150 N   0  0  2  0  0  0  0  0  0  0  0  0
  193.5170  175.3300  145.6500 C   0  0  0  0  0  1  0  0  0  0  0  0
  194.9420  175.8560  145.7090 C   0  0  1  0  0  3  0  0  0  0  0  0
  195.9230  174.7560  146.1380 C   0  0  0  0  0  2  0  0  0  0  0  0
  196.0260  173.6200  145.1020 C   0  0  2  0  0  3  0  0  0  0  0  0
  195.9100  174.1420  143.6510 C   0  0  0  0  0  2  0  0  0  0  0  0
  196.2810  175.6140  143.5280 C   0  0  0  0  0  2  0  0  0  0  0  0
  195.3270  176.4820  144.3590 C   0  0  0  0  0  2  0  0  0  0  0  0
  186.5160  176.9710  139.0000 N   0  0  0  0  0  2  0  0  0  0  0  0
  187.1340  177.0540  137.7660 O   0  0  0  0  0  0  0  0  0  0  0  0
  185.7060  176.0400  136.0900 O   0  0  0  0  0  0  0  0  0  0  0  0
  186.9130  176.0840  136.7880 C   0  0  0  0  0  0  0  0  0  0  0  0
  187.8190  175.2440  136.5200 O   0  0  0  0  0  1  0  0  0  0  0  0
  1  7  1  0  0  0  0
  2  6  2  0  0  0  0
  2 10  1  0  0  0  0
  3  4  1  0  0  0  0
  3 15  2  0  0  0  0
  5 19  1  0  0  0  0
  6  3  1  0  0  0  0
  7 17  1  0  0  0  0
  8  9  1  0  0  0  0
  9 13  1  0  0  0  0
  9  5  2  0  0  0  0
 10 21  2  0  0  0  0
 12 11  2  0  0  0  0
 12  6  1  0  0  0  0
 14 13  2  0  0  0  0
 16  8  2  0  0  0  0
 16 14  1  0  0  0  0
 17  2  1  0  0  0  0
 18 10  1  0  0  0  0
 19 23  1  1  0  0  0
 19 11  1  0  0  0  0
 20 14  1  0  0  0  0
 20  1  2  0  0  0  0
 21 15  1  0  0  0  0
 22 24  1  0  0  0  0
 23 22  3  0  0  0  0
 25 26  2  0  0  0  0
 26 27  2  0  0  0  0
 28 24  1  0  0  0  0
 28 26  1  0  0  0  0
 29 28  1  6  0  0  0
 29 26  1  0  0  0  0
 31 30  1  6  0  0  0
 31 32  1  0  0  0  0
 33 34  1  6  0  0  0
 33 29  1  0  0  0  0
 33 32  1  0  0  0  0
 35 34  1  0  0  0  0
 35 36  1  0  0  0  0
 36 31  1  0  0  0  0
 37 20  1  0  0  0  0
 38 37  1  0  0  0  0
 39 40  2  0  0  0  0
 40 38  1  0  0  0  0
 41 40  1  0  0  0  0
M  END
>  <MODEL>
3

>  <REMARK>
 VINA RESULT:      -7.0      4.148      8.521
  Name = 
  7 active torsions:
  status: ('A' for Active; 'I' for Inactive)
    1  A    between atoms: N_3  and  O_31
    2  A    between atoms: N_3  and  C_39
    3  A    between atoms: C_14  and  C_35
    4  A    between atoms: C_15  and  N_34
    5  A    between atoms: N_27  and  C_35
    6  A    between atoms: C_28  and  O_31
    7  A    between atoms: C_37  and  C_40
                            x       y       z     vdW  Elec       q    Type
                         _______ _______ _______ _____ _____    ______ ____

>  <TORSDO>
F 7

$$$$
=
 OpenBabel11042419023D

 41 45  0  0  1  0  0  0  0  0999 V2000
  186.6580  176.2700  142.9430 C   0  0  0  0  0  3  0  0  0  0  0  0
  188.8540  174.2880  140.1880 C   0  0  0  0  0  0  0  0  0  0  0  0
  190.5430  172.5440  139.9450 C   0  0  0  0  0  0  0  0  0  0  0  0
  191.5700  171.6050  140.4710 C   0  0  0  0  0  1  0  0  0  0  0  0
  191.6320  174.9680  144.5800 C   0  0  0  0  0  3  0  0  0  0  0  0
  189.8520  173.4640  140.7720 C   0  0  0  0  0  0  0  0  0  0  0  0
  187.1500  174.6540  142.3330 S   0  0  0  0  0  0  0  0  0  0  0  0
  190.8810  177.3350  144.6380 C   0  0  0  0  0  3  0  0  0  0  0  0
  190.6880  175.9100  144.4560 C   0  0  0  0  0  0  0  0  0  0  0  0
  188.6130  174.1960  138.8080 C   0  0  0  0  0  0  0  0  0  0  0  0
  191.2390  173.2370  142.8550 C   0  0  0  0  0  3  0  0  0  0  0  0
  190.1380  173.6250  142.2180 C   0  0  0  0  0  3  0  0  0  0  0  0
  189.3410  175.6840  144.0770 N   0  0  0  0  0  0  0  0  0  0  0  0
  188.8280  176.8710  144.0150 C   0  0  0  0  0  0  0  0  0  0  0  0
  190.2660  172.4870  138.6170 N   0  0  0  0  0  0  0  0  0  0  0  0
  189.7540  177.9140  144.3770 N   0  0  0  0  0  0  0  0  0  0  0  0
  188.1490  175.3600  140.9790 C   0  0  0  0  0  2  0  0  0  0  0  0
  187.4300  175.2220  138.0000 Cl  0  0  0  0  0  0  0  0  0  0  0  0
  191.4110  173.5020  144.3200 C   0  0  1  0  0  3  0  0  0  0  0  0
  187.4140  177.1340  143.6350 C   0  0  0  0  0  0  0  0  0  0  0  0
  189.3280  173.2770  138.0440 C   0  0  0  0  0  3  0  0  0  0  0  0
  193.5710  172.1620  145.1520 C   0  0  0  0  0  0  0  0  0  0  0  0
  192.6050  172.7780  144.7710 C   0  0  0  0  0  0  0  0  0  0  0  0
  194.7290  171.4130  145.6560 C   0  0  0  0  0  2  0  0  0  0  0  0
  197.9410  169.8880  144.2990 O   0  0  0  0  0  0  0  0  0  0  0  0
  197.2230  170.6490  145.3800 S   0  0  0  0  0  0  0  0  0  0  0  0
  196.8630  169.9240  146.6500 O   0  0  0  0  0  0  0  0  0  0  0  0
  195.8140  171.4280  144.6790 N   0  0  0  0  0  0  0  0  0  0  0  0
  196.7560  172.3220  145.1550 N   0  0  2  0  0  0  0  0  0  0  0  0
  195.5680  175.1340  144.5940 C   0  0  0  0  0  1  0  0  0  0  0  0
  196.8930  175.3110  143.8700 C   0  0  1  0  0  3  0  0  0  0  0  0
  197.9410  174.3110  144.3780 C   0  0  0  0  0  2  0  0  0  0  0  0
  197.5710  172.8510  144.0510 C   0  0  2  0  0  3  0  0  0  0  0  0
  196.8590  172.7220  142.6840 C   0  0  0  0  0  2  0  0  0  0  0  0
  197.1710  173.8840  141.7490 C   0  0  0  0  0  2  0  0  0  0  0  0
  196.6790  175.2070  142.3510 C   0  0  0  0  0  2  0  0  0  0  0  0
  186.7940  178.3710  143.9820 N   0  0  0  0  0  2  0  0  0  0  0  0
  186.3410  178.6390  145.2600 O   0  0  0  0  0  0  0  0  0  0  0  0
  185.1750  176.7690  146.2710 O   0  0  0  0  0  1  0  0  0  0  0  0
  185.1660  178.0580  145.7390 C   0  0  0  0  0  0  0  0  0  0  0  0
  184.0840  178.7100  145.7040 O   0  0  0  0  0  0  0  0  0  0  0  0
  1 20  2  0  0  0  0
  2  6  1  0  0  0  0
  2 17  1  0  0  0  0
  3  4  1  0  0  0  0
  3  6  2  0  0  0  0
  6 12  1  0  0  0  0
  7  1  1  0  0  0  0
  9  5  2  0  0  0  0
  9  8  1  0  0  0  0
 10  2  2  0  0  0  0
 11 19  1  0  0  0  0
 12 11  2  0  0  0  0
 13  9  1  0  0  0  0
 14 13  2  0  0  0  0
 14 16  1  0  0  0  0
 15  3  1  0  0  0  0
 16  8  2  0  0  0  0
 17  7  1  0  0  0  0
 18 10  1  0  0  0  0
 19  5  1  0  0  0  0
 19 23  1  6  0  0  0
 20 37  1  0  0  0  0
 20 14  1  0  0  0  0
 21 15  2  0  0  0  0
 21 10  1  0  0  0  0
 22 24  1  0  0  0  0
 23 22  3  0  0  0  0
 25 26  2  0  0  0  0
 26 27  2  0  0  0  0
 28 26  1  0  0  0  0
 28 24  1  0  0  0  0
 29 28  1  6  0  0  0
 29 26  1  0  0  0  0
 31 32  1  0  0  0  0
 31 30  1  1  0  0  0
 33 34  1  6  0  0  0
 33 32  1  0  0  0  0
 33 29  1  0  0  0  0
 35 36  1  0  0  0  0
 35 34  1  0  0  0  0
 36 31  1  0  0  0  0
 37 38  1  0  0  0  0
 38 40  1  0  0  0  0
 40 39  1  0  0  0  0
 41 40  2  0  0  0  0
M  END
>  <MODEL>
4

>  <REMARK>
 VINA RESULT:      -6.9      3.437      9.358
  Name = 
  7 active torsions:
  status: ('A' for Active; 'I' for Inactive)
    1  A    between atoms: N_3  and  O_31
    2  A    between atoms: N_3  and  C_39
    3  A    between atoms: C_14  and  C_35
    4  A    between atoms: C_15  and  N_34
    5  A    between atoms: N_27  and  C_35
    6  A    between atoms: C_28  and  O_31
    7  A    between atoms: C_37  and  C_40
                            x       y       z     vdW  Elec       q    Type
                         _______ _______ _______ _____ _____    ______ ____

>  <TORSDO>
F 7

$$$$
=
 OpenBabel11042419023D

 41 45  0  0  1  0  0  0  0  0999 V2000
  186.9230  176.2760  142.9360 C   0  0  0  0  0  3  0  0  0  0  0  0
  188.6270  174.1250  139.9670 C   0  0  0  0  0  0  0  0  0  0  0  0
  189.9740  172.1360  139.5410 C   0  0  0  0  0  0  0  0  0  0  0  0
  190.8410  171.0020  139.9620 C   0  0  0  0  0  1  0  0  0  0  0  0
  191.6540  174.0350  144.2440 C   0  0  0  0  0  3  0  0  0  0  0  0
  189.4880  173.1070  140.4530 C   0  0  0  0  0  0  0  0  0  0  0  0
  187.1010  174.6420  142.2120 S   0  0  0  0  0  0  0  0  0  0  0  0
  191.3320  176.4870  144.4720 C   0  0  0  0  0  3  0  0  0  0  0  0
  190.8860  175.1310  144.2200 C   0  0  0  0  0  0  0  0  0  0  0  0
  188.3180  174.1650  138.5980 C   0  0  0  0  0  0  0  0  0  0  0  0
  190.8960  172.5110  142.4470 C   0  0  0  0  0  3  0  0  0  0  0  0
  189.8550  173.1230  141.8890 C   0  0  0  0  0  3  0  0  0  0  0  0
  189.5060  175.1660  143.8980 N   0  0  0  0  0  0  0  0  0  0  0  0
  189.2060  176.4240  143.9290 C   0  0  0  0  0  0  0  0  0  0  0  0
  189.6380  172.2130  138.2280 N   0  0  0  0  0  0  0  0  0  0  0  0
  190.3140  177.2670  144.3020 N   0  0  0  0  0  0  0  0  0  0  0  0
  188.1520  175.2500  140.8510 C   0  0  0  0  0  2  0  0  0  0  0  0
  187.3020  175.4290  137.9090 Cl  0  0  0  0  0  0  0  0  0  0  0  0
  191.1700  172.6490  143.9140 C   0  0  1  0  0  3  0  0  0  0  0  0
  187.8460  176.9510  143.6360 C   0  0  0  0  0  0  0  0  0  0  0  0
  188.8310  173.1880  137.7480 C   0  0  0  0  0  3  0  0  0  0  0  0
  193.1010  170.9210  144.5750 C   0  0  0  0  0  0  0  0  0  0  0  0
  192.2360  171.7030  144.2630 C   0  0  0  0  0  0  0  0  0  0  0  0
  194.1660  169.9980  144.9890 C   0  0  0  0  0  2  0  0  0  0  0  0
  197.9410  169.9640  145.4670 O   0  0  0  0  0  0  0  0  0  0  0  0
  196.5670  170.2360  146.0160 S   0  0  0  0  0  0  0  0  0  0  0  0
  195.9670  169.2400  146.9730 O   0  0  0  0  0  0  0  0  0  0  0  0
  195.4780  170.5550  144.6760 N   0  0  0  0  0  0  0  0  0  0  0  0
  195.6510  171.6410  145.5150 N   0  0  2  0  0  0  0  0  0  0  0  0
  194.3760  174.4260  146.0200 C   0  0  0  0  0  1  0  0  0  0  0  0
  195.7930  174.8880  145.7190 C   0  0  1  0  0  3  0  0  0  0  0  0
  196.8040  173.7530  145.9320 C   0  0  0  0  0  2  0  0  0  0  0  0
  196.6090  172.5950  144.9350 C   0  0  2  0  0  3  0  0  0  0  0  0
  196.1660  173.0950  143.5390 C   0  0  0  0  0  2  0  0  0  0  0  0
  196.5540  174.5470  143.2870 C   0  0  0  0  0  2  0  0  0  0  0  0
  195.8640  175.4720  144.2990 C   0  0  0  0  0  2  0  0  0  0  0  0
  187.4660  178.2520  144.0820 N   0  0  0  0  0  2  0  0  0  0  0  0
  186.6100  178.4460  145.1500 O   0  0  0  0  0  0  0  0  0  0  0  0
  184.2570  178.7400  145.6580 O   0  0  0  0  0  1  0  0  0  0  0  0
  185.4130  179.1450  144.9880 C   0  0  0  0  0  0  0  0  0  0  0  0
  185.3750  180.1620  144.2390 O   0  0  0  0  0  0  0  0  0  0  0  0
  1 20  2  0  0  0  0
  2  6  1  0  0  0  0
  2 17  1  0  0  0  0
  3  4  1  0  0  0  0
  3  6  2  0  0  0  0
  6 12  1  0  0  0  0
  7  1  1  0  0  0  0
  9  5  2  0  0  0  0
  9  8  1  0  0  0  0
 10  2  2  0  0  0  0
 11 19  1  0  0  0  0
 12 11  2  0  0  0  0
 13 14  2  0  0  0  0
 13  9  1  0  0  0  0
 14 16  1  0  0  0  0
 15  3  1  0  0  0  0
 16  8  2  0  0  0  0
 17  7  1  0  0  0  0
 18 10  1  0  0  0  0
 19  5  1  0  0  0  0
 19 23  1  6  0  0  0
 20 14  1  0  0  0  0
 20 37  1  0  0  0  0
 21 15  2  0  0  0  0
 21 10  1  0  0  0  0
 22 24  1  0  0  0  0
 23 22  3  0  0  0  0
 25 26  2  0  0  0  0
 26 27  2  0  0  0  0
 28 24  1  0  0  0  0
 28 26  1  0  0  0  0
 29 28  1  6  0  0  0
 29 26  1  0  0  0  0
 31 32  1  0  0  0  0
 31 30  1  6  0  0  0
 33 34  1  6  0  0  0
 33 29  1  0  0  0  0
 33 32  1  0  0  0  0
 35 34  1  0  0  0  0
 35 36  1  0  0  0  0
 36 31  1  0  0  0  0
 37 38  1  0  0  0  0
 40 38  1  0  0  0  0
 40 39  1  0  0  0  0
 41 40  2  0  0  0  0
M  END
>  <MODEL>
5

>  <REMARK>
 VINA RESULT:      -6.9      3.514      9.314
  Name = 
  7 active torsions:
  status: ('A' for Active; 'I' for Inactive)
    1  A    between atoms: N_3  and  O_31
    2  A    between atoms: N_3  and  C_39
    3  A    between atoms: C_14  and  C_35
    4  A    between atoms: C_15  and  N_34
    5  A    between atoms: N_27  and  C_35
    6  A    between atoms: C_28  and  O_31
    7  A    between atoms: C_37  and  C_40
                            x       y       z     vdW  Elec       q    Type
                         _______ _______ _______ _____ _____    ______ ____

>  <TORSDO>
F 7

$$$$
=
 OpenBabel11042419023D

 41 45  0  0  1  0  0  0  0  0999 V2000
  186.7410  177.9370  140.8960 C   0  0  0  0  0  3  0  0  0  0  0  0
  186.8790  177.7190  144.9300 C   0  0  0  0  0  0  0  0  0  0  0  0
  188.4260  177.5880  146.8130 C   0  0  0  0  0  0  0  0  0  0  0  0
  189.7710  177.3920  147.4170 C   0  0  0  0  0  1  0  0  0  0  0  0
  190.7820  174.9250  142.8240 C   0  0  0  0  0  3  0  0  0  0  0  0
  188.1870  177.4660  145.4210 C   0  0  0  0  0  0  0  0  0  0  0  0
  187.4400  178.6500  142.3890 S   0  0  0  0  0  0  0  0  0  0  0  0
  189.1600  173.9510  141.2160 C   0  0  0  0  0  3  0  0  0  0  0  0
  189.7540  175.0340  141.9740 C   0  0  0  0  0  0  0  0  0  0  0  0
  185.8580  178.0390  145.8390 C   0  0  0  0  0  0  0  0  0  0  0  0
  190.3790  176.4460  144.7350 C   0  0  0  0  0  3  0  0  0  0  0  0
  189.2350  177.0630  144.4520 C   0  0  0  0  0  3  0  0  0  0  0  0
  189.0310  176.2230  141.6990 N   0  0  0  0  0  0  0  0  0  0  0  0
  188.0950  175.8430  140.8900 C   0  0  0  0  0  0  0  0  0  0  0  0
  187.4050  177.9090  147.6480 N   0  0  0  0  0  0  0  0  0  0  0  0
  188.1620  174.4430  140.5560 N   0  0  0  0  0  0  0  0  0  0  0  0
  186.5230  177.5110  143.4800 C   0  0  0  0  0  2  0  0  0  0  0  0
  184.1980  178.3120  145.3140 Cl  0  0  0  0  0  0  0  0  0  0  0  0
  191.3320  176.0610  143.6450 C   0  0  1  0  0  3  0  0  0  0  0  0
  187.0660  176.7640  140.3350 C   0  0  0  0  0  0  0  0  0  0  0  0
  186.1500  178.1380  147.1970 C   0  0  0  0  0  3  0  0  0  0  0  0
  193.6030  175.2100  144.7710 C   0  0  0  0  0  0  0  0  0  0  0  0
  192.5750  175.6030  144.2750 C   0  0  0  0  0  0  0  0  0  0  0  0
  194.8380  174.6900  145.3730 C   0  0  0  0  0  2  0  0  0  0  0  0
  197.3940  171.9370  144.7590 O   0  0  0  0  0  0  0  0  0  0  0  0
  197.0880  173.3670  145.1140 S   0  0  0  0  0  0  0  0  0  0  0  0
  197.1910  173.7860  146.5570 O   0  0  0  0  0  0  0  0  0  0  0  0
  195.5200  173.7910  144.4470 N   0  0  0  0  0  0  0  0  0  0  0  0
  196.5630  174.5130  143.8980 N   0  0  2  0  0  0  0  0  0  0  0  0
  195.9530  176.7900  141.8790 C   0  0  0  0  0  1  0  0  0  0  0  0
  196.8570  175.9500  140.9900 C   0  0  1  0  0  3  0  0  0  0  0  0
  197.7520  175.0240  141.8260 C   0  0  0  0  0  2  0  0  0  0  0  0
  196.9450  173.9570  142.5900 C   0  0  2  0  0  3  0  0  0  0  0  0
  195.7210  173.4630  141.7840 C   0  0  0  0  0  2  0  0  0  0  0  0
  195.8820  173.6790  140.2840 C   0  0  0  0  0  2  0  0  0  0  0  0
  196.0130  175.1740  139.9670 C   0  0  0  0  0  2  0  0  0  0  0  0
  186.3420  176.4090  139.1590 N   0  0  0  0  0  2  0  0  0  0  0  0
  186.6950  176.8740  137.9060 O   0  0  0  0  0  0  0  0  0  0  0  0
  187.8420  174.8840  137.1300 O   0  0  0  0  0  1  0  0  0  0  0  0
  187.0240  175.9860  136.8810 C   0  0  0  0  0  0  0  0  0  0  0  0
  186.5680  176.1730  135.7170 O   0  0  0  0  0  0  0  0  0  0  0  0
  1  7  1  0  0  0  0
  2  6  2  0  0  0  0
  2 10  1  0  0  0  0
  3  4  1  0  0  0  0
  3 15  2  0  0  0  0
  5 19  1  0  0  0  0
  6  3  1  0  0  0  0
  7 17  1  0  0  0  0
  8  9  1  0  0  0  0
  9  5  2  0  0  0  0
 10 21  2  0  0  0  0
 12 11  2  0  0  0  0
 12  6  1  0  0  0  0
 13  9  1  0  0  0  0
 14 13  2  0  0  0  0
 16 14  1  0  0  0  0
 16  8  2  0  0  0  0
 17  2  1  0  0  0  0
 18 10  1  0  0  0  0
 19 23  1  1  0  0  0
 19 11  1  0  0  0  0
 20 14  1  0  0  0  0
 20  1  2  0  0  0  0
 21 15  1  0  0  0  0
 22 24  1  0  0  0  0
 23 22  3  0  0  0  0
 25 26  2  0  0  0  0
 26 27  2  0  0  0  0
 28 26  1  0  0  0  0
 28 24  1  0  0  0  0
 29 28  1  6  0  0  0
 29 26  1  0  0  0  0
 31 32  1  0  0  0  0
 31 30  1  1  0  0  0
 32 33  1  0  0  0  0
 33 34  1  6  0  0  0
 33 29  1  0  0  0  0
 35 34  1  0  0  0  0
 36 35  1  0  0  0  0
 36 31  1  0  0  0  0
 37 20  1  0  0  0  0
 38 37  1  0  0  0  0
 40 39  1  0  0  0  0
 40 38  1  0  0  0  0
 41 40  2  0  0  0  0
M  END
>  <MODEL>
6

>  <REMARK>
 VINA RESULT:      -6.8      4.372      8.782
  Name = 
  7 active torsions:
  status: ('A' for Active; 'I' for Inactive)
    1  A    between atoms: N_3  and  O_31
    2  A    between atoms: N_3  and  C_39
    3  A    between atoms: C_14  and  C_35
    4  A    between atoms: C_15  and  N_34
    5  A    between atoms: N_27  and  C_35
    6  A    between atoms: C_28  and  O_31
    7  A    between atoms: C_37  and  C_40
                            x       y       z     vdW  Elec       q    Type
                         _______ _______ _______ _____ _____    ______ ____

>  <TORSDO>
F 7

$$$$
=
 OpenBabel11042419023D

 41 45  0  0  1  0  0  0  0  0999 V2000
  186.6760  177.9600  141.0830 C   0  0  0  0  0  3  0  0  0  0  0  0
  186.7810  177.7710  145.1200 C   0  0  0  0  0  0  0  0  0  0  0  0
  188.3120  177.6980  147.0180 C   0  0  0  0  0  0  0  0  0  0  0  0
  189.6570  177.5470  147.6360 C   0  0  0  0  0  1  0  0  0  0  0  0
  190.7860  175.0830  143.0700 C   0  0  0  0  0  3  0  0  0  0  0  0
  188.0910  177.5610  145.6250 C   0  0  0  0  0  0  0  0  0  0  0  0
  187.3380  178.7030  142.5780 S   0  0  0  0  0  0  0  0  0  0  0  0
  189.2100  174.0510  141.4520 C   0  0  0  0  0  3  0  0  0  0  0  0
  189.7630  175.1560  142.2090 C   0  0  0  0  0  0  0  0  0  0  0  0
  185.7410  178.0660  146.0160 C   0  0  0  0  0  0  0  0  0  0  0  0
  190.3190  176.6040  144.9670 C   0  0  0  0  0  3  0  0  0  0  0  0
  189.1600  177.1840  144.6690 C   0  0  0  0  0  3  0  0  0  0  0  0
  189.0080  176.3210  141.9190 N   0  0  0  0  0  0  0  0  0  0  0  0
  188.0920  175.9070  141.1040 C   0  0  0  0  0  0  0  0  0  0  0  0
  187.2740  177.9950  147.8420 N   0  0  0  0  0  0  0  0  0  0  0  0
  188.2030  174.5080  140.7800 N   0  0  0  0  0  0  0  0  0  0  0  0
  186.4450  177.5440  143.6680 C   0  0  0  0  0  2  0  0  0  0  0  0
  184.0790  178.2860  145.4740 Cl  0  0  0  0  0  0  0  0  0  0  0  0
  191.2940  176.2400  143.8880 C   0  0  1  0  0  3  0  0  0  0  0  0
  187.0410  176.7940  140.5330 C   0  0  0  0  0  0  0  0  0  0  0  0
  186.0170  178.1820  147.3760 C   0  0  0  0  0  3  0  0  0  0  0  0
  193.5700  175.4560  145.0510 C   0  0  0  0  0  0  0  0  0  0  0  0
  192.5440  175.8240  144.5330 C   0  0  0  0  0  0  0  0  0  0  0  0
  194.7960  174.9750  145.7020 C   0  0  0  0  0  2  0  0  0  0  0  0
  196.7860  171.7580  146.1170 O   0  0  0  0  0  0  0  0  0  0  0  0
  196.4870  173.0050  145.3300 S   0  0  0  0  0  0  0  0  0  0  0  0
  197.4460  174.1620  145.4280 O   0  0  0  0  0  0  0  0  0  0  0  0
  194.8460  173.5170  145.6880 N   0  0  0  0  0  0  0  0  0  0  0  0
  195.0300  173.1450  144.3690 N   0  0  2  0  0  0  0  0  0  0  0  0
  193.5990  173.2870  141.6180 C   0  0  0  0  0  1  0  0  0  0  0  0
  193.7380  171.7770  141.7110 C   0  0  1  0  0  3  0  0  0  0  0  0
  194.8530  171.3800  142.6890 C   0  0  0  0  0  2  0  0  0  0  0  0
  194.5320  171.7790  144.1420 C   0  0  2  0  0  3  0  0  0  0  0  0
  193.0250  171.6450  144.4650 C   0  0  0  0  0  2  0  0  0  0  0  0
  192.3140  170.6650  143.5400 C   0  0  0  0  0  2  0  0  0  0  0  0
  192.3860  171.1470  142.0850 C   0  0  0  0  0  2  0  0  0  0  0  0
  186.3400  176.4090  139.3520 N   0  0  0  0  0  2  0  0  0  0  0  0
  186.7000  176.8650  138.0980 O   0  0  0  0  0  0  0  0  0  0  0  0
  187.8150  175.0360  136.9630 O   0  0  0  0  0  1  0  0  0  0  0  0
  186.7950  175.9860  137.0180 C   0  0  0  0  0  0  0  0  0  0  0  0
  185.9430  176.0390  136.0870 O   0  0  0  0  0  0  0  0  0  0  0  0
  1  7  1  0  0  0  0
  2  6  2  0  0  0  0
  2 10  1  0  0  0  0
  3  4  1  0  0  0  0
  3 15  2  0  0  0  0
  5 19  1  0  0  0  0
  6  3  1  0  0  0  0
  7 17  1  0  0  0  0
  8  9  1  0  0  0  0
  9  5  2  0  0  0  0
 10 21  2  0  0  0  0
 12 11  2  0  0  0  0
 12  6  1  0  0  0  0
 13  9  1  0  0  0  0
 14 13  2  0  0  0  0
 16 14  1  0  0  0  0
 16  8  2  0  0  0  0
 17  2  1  0  0  0  0
 18 10  1  0  0  0  0
 19 23  1  1  0  0  0
 19 11  1  0  0  0  0
 20  1  2  0  0  0  0
 20 14  1  0  0  0  0
 21 15  1  0  0  0  0
 22 24  1  0  0  0  0
 23 22  3  0  0  0  0
 26 27  2  0  0  0  0
 26 28  1  0  0  0  0
 26 25  2  0  0  0  0
 28 24  1  0  0  0  0
 29 26  1  0  0  0  0
 29 28  1  1  0  0  0
 31 30  1  1  0  0  0
 31 36  1  0  0  0  0
 31 32  1  0  0  0  0
 33 32  1  6  0  0  0
 33 29  1  0  0  0  0
 33 34  1  0  0  0  0
 35 34  1  0  0  0  0
 36 35  1  0  0  0  0
 37 20  1  0  0  0  0
 38 37  1  0  0  0  0
 39 40  1  0  0  0  0
 40 38  1  0  0  0  0
 41 40  2  0  0  0  0
M  END
>  <MODEL>
7

>  <REMARK>
 VINA RESULT:      -6.8      4.225      8.554
  Name = 
  7 active torsions:
  status: ('A' for Active; 'I' for Inactive)
    1  A    between atoms: N_3  and  O_31
    2  A    between atoms: N_3  and  C_39
    3  A    between atoms: C_14  and  C_35
    4  A    between atoms: C_15  and  N_34
    5  A    between atoms: N_27  and  C_35
    6  A    between atoms: C_28  and  O_31
    7  A    between atoms: C_37  and  C_40
                            x       y       z     vdW  Elec       q    Type
                         _______ _______ _______ _____ _____    ______ ____

>  <TORSDO>
F 7

$$$$
=
 OpenBabel11042419023D

 41 45  0  0  1  0  0  0  0  0999 V2000
  195.3090  173.2970  140.3210 C   0  0  0  0  0  3  0  0  0  0  0  0
  191.9230  171.5010  139.0360 C   0  0  0  0  0  0  0  0  0  0  0  0
  189.5200  171.8440  138.7900 C   0  0  0  0  0  0  0  0  0  0  0  0
  188.2490  172.5770  139.0370 C   0  0  0  0  0  1  0  0  0  0  0  0
  190.9120  174.5150  143.2020 C   0  0  0  0  0  3  0  0  0  0  0  0
  190.7530  172.2340  139.3680 C   0  0  0  0  0  0  0  0  0  0  0  0
  193.8590  173.4590  139.2740 S   0  0  0  0  0  0  0  0  0  0  0  0
  192.9120  173.5610  144.3240 C   0  0  0  0  0  3  0  0  0  0  0  0
  192.1900  174.1140  143.1960 C   0  0  0  0  0  0  0  0  0  0  0  0
  191.8150  170.3920  138.1810 C   0  0  0  0  0  0  0  0  0  0  0  0
  189.8940  173.9140  141.0270 C   0  0  0  0  0  3  0  0  0  0  0  0
  190.8790  173.3590  140.3250 C   0  0  0  0  0  3  0  0  0  0  0  0
  193.0500  174.1150  142.0690 N   0  0  0  0  0  0  0  0  0  0  0  0
  194.1440  173.5810  142.5080 C   0  0  0  0  0  0  0  0  0  0  0  0
  189.4710  170.7690  137.9610 N   0  0  0  0  0  0  0  0  0  0  0  0
  194.0960  173.2450  143.9080 N   0  0  0  0  0  0  0  0  0  0  0  0
  193.2510  171.7890  139.6870 C   0  0  0  0  0  2  0  0  0  0  0  0
  193.2100  169.3990  137.7650 Cl  0  0  0  0  0  0  0  0  0  0  0  0
  190.1740  175.0250  141.9940 C   0  0  1  0  0  3  0  0  0  0  0  0
  195.3470  173.3590  141.6590 C   0  0  0  0  0  0  0  0  0  0  0  0
  190.5750  170.0520  137.6470 C   0  0  0  0  0  3  0  0  0  0  0  0
  187.8400  176.0270  142.8290 C   0  0  0  0  0  0  0  0  0  0  0  0
  188.8860  175.5640  142.4450 C   0  0  0  0  0  0  0  0  0  0  0  0
  186.5810  176.5870  143.3380 C   0  0  0  0  0  2  0  0  0  0  0  0
  185.5350  178.2100  146.6180 O   0  0  0  0  0  0  0  0  0  0  0  0
  186.3840  178.2270  145.3760 S   0  0  0  0  0  0  0  0  0  0  0  0
  185.9920  179.1510  144.2520 O   0  0  0  0  0  0  0  0  0  0  0  0
  186.5700  176.5790  144.7970 N   0  0  0  0  0  0  0  0  0  0  0  0
  187.7590  177.1580  145.2000 N   0  0  2  0  0  0  0  0  0  0  0  0
  190.8630  177.1910  145.2170 C   0  0  0  0  0  1  0  0  0  0  0  0
  190.6400  177.1350  146.7190 C   0  0  1  0  0  3  0  0  0  0  0  0
  189.2330  177.6260  147.0900 C   0  0  0  0  0  2  0  0  0  0  0  0
  188.1250  176.7030  146.5510 C   0  0  2  0  0  3  0  0  0  0  0  0
  188.5440  175.2140  146.5730 C   0  0  0  0  0  2  0  0  0  0  0  0
  189.6430  174.9310  147.5880 C   0  0  0  0  0  2  0  0  0  0  0  0
  190.9150  175.7150  147.2380 C   0  0  0  0  0  2  0  0  0  0  0  0
  196.6270  173.1710  142.2600 N   0  0  0  0  0  2  0  0  0  0  0  0
  197.4860  174.2240  142.5140 O   0  0  0  0  0  0  0  0  0  0  0  0
  196.9760  176.4800  143.2420 O   0  0  0  0  0  0  0  0  0  0  0  0
  197.2160  175.1370  143.5340 C   0  0  0  0  0  0  0  0  0  0  0  0
  197.1740  174.7430  144.7340 O   0  0  0  0  0  1  0  0  0  0  0  0
  1 20  2  0  0  0  0
  2  6  1  0  0  0  0
  2 17  1  0  0  0  0
  3  4  1  0  0  0  0
  3  6  2  0  0  0  0
  6 12  1  0  0  0  0
  7 17  1  0  0  0  0
  7  1  1  0  0  0  0
  9  5  2  0  0  0  0
  9  8  1  0  0  0  0
 10  2  2  0  0  0  0
 11 19  1  0  0  0  0
 12 11  2  0  0  0  0
 13 14  2  0  0  0  0
 13  9  1  0  0  0  0
 14 16  1  0  0  0  0
 15  3  1  0  0  0  0
 16  8  2  0  0  0  0
 18 10  1  0  0  0  0
 19 23  1  1  0  0  0
 19  5  1  0  0  0  0
 20 37  1  0  0  0  0
 20 14  1  0  0  0  0
 21 15  2  0  0  0  0
 21 10  1  0  0  0  0
 22 24  1  0  0  0  0
 23 22  3  0  0  0  0
 24 28  1  0  0  0  0
 26 25  2  0  0  0  0
 27 26  2  0  0  0  0
 28 26  1  0  0  0  0
 29 28  1  6  0  0  0
 29 26  1  0  0  0  0
 29 33  1  0  0  0  0
 31 30  1  6  0  0  0
 31 32  1  0  0  0  0
 31 36  1  0  0  0  0
 33 34  1  6  0  0  0
 33 32  1  0  0  0  0
 34 35  1  0  0  0  0
 36 35  1  0  0  0  0
 37 38  1  0  0  0  0
 38 40  1  0  0  0  0
 39 40  2  0  0  0  0
 40 41  1  0  0  0  0
M  END
>  <MODEL>
8

>  <REMARK>
 VINA RESULT:      -6.7      3.267      5.786
  Name = 
  7 active torsions:
  status: ('A' for Active; 'I' for Inactive)
    1  A    between atoms: N_3  and  O_31
    2  A    between atoms: N_3  and  C_39
    3  A    between atoms: C_14  and  C_35
    4  A    between atoms: C_15  and  N_34
    5  A    between atoms: N_27  and  C_35
    6  A    between atoms: C_28  and  O_31
    7  A    between atoms: C_37  and  C_40
                            x       y       z     vdW  Elec       q    Type
                         _______ _______ _______ _____ _____    ______ ____

>  <TORSDO>
F 7

$$$$
=
 OpenBabel11042419023D

 41 45  0  0  1  0  0  0  0  0999 V2000
  193.9330  171.1830  140.6130 C   0  0  0  0  0  3  0  0  0  0  0  0
  195.3910  174.6080  142.1900 C   0  0  0  0  0  0  0  0  0  0  0  0
  195.1090  176.1580  144.0540 C   0  0  0  0  0  0  0  0  0  0  0  0
  194.3790  176.7060  145.2280 C   0  0  0  0  0  1  0  0  0  0  0  0
  190.2170  174.3070  142.9660 C   0  0  0  0  0  3  0  0  0  0  0  0
  194.6000  175.0970  143.2630 C   0  0  0  0  0  0  0  0  0  0  0  0
  194.5760  171.9690  142.0940 S   0  0  0  0  0  0  0  0  0  0  0  0
  189.9440  173.6170  140.5960 C   0  0  0  0  0  3  0  0  0  0  0  0
  190.5860  173.5930  141.8960 C   0  0  0  0  0  0  0  0  0  0  0  0
  196.6280  175.2150  141.9210 C   0  0  0  0  0  0  0  0  0  0  0  0
  192.2580  175.0220  144.1700 C   0  0  0  0  0  3  0  0  0  0  0  0
  193.2680  174.4880  143.4880 C   0  0  0  0  0  3  0  0  0  0  0  0
  191.7010  172.7210  141.8290 N   0  0  0  0  0  0  0  0  0  0  0  0
  191.7120  172.3160  140.6000 C   0  0  0  0  0  0  0  0  0  0  0  0
  196.3170  176.7040  143.7570 N   0  0  0  0  0  0  0  0  0  0  0  0
  190.6220  172.8400  139.8160 N   0  0  0  0  0  0  0  0  0  0  0  0
  194.8770  173.5540  141.2430 C   0  0  0  0  0  2  0  0  0  0  0  0
  197.6420  174.7010  140.5740 Cl  0  0  0  0  0  0  0  0  0  0  0  0
  190.9460  174.3070  144.2830 C   0  0  1  0  0  3  0  0  0  0  0  0
  192.7320  171.3800  140.0530 C   0  0  0  0  0  0  0  0  0  0  0  0
  197.0750  176.2580  142.7280 C   0  0  0  0  0  3  0  0  0  0  0  0
  189.4230  175.6070  146.0550 C   0  0  0  0  0  0  0  0  0  0  0  0
  190.1220  175.0300  145.2570 C   0  0  0  0  0  0  0  0  0  0  0  0
  188.5420  176.3150  146.9930 C   0  0  0  0  0  2  0  0  0  0  0  0
  185.8950  179.0490  146.9850 O   0  0  0  0  0  0  0  0  0  0  0  0
  186.2570  177.5950  146.8500 S   0  0  0  0  0  0  0  0  0  0  0  0
  185.9740  176.6750  148.0080 O   0  0  0  0  0  0  0  0  0  0  0  0
  187.9370  177.4770  146.3500 N   0  0  0  0  0  0  0  0  0  0  0  0
  187.0490  176.9860  145.4120 N   0  0  2  0  0  0  0  0  0  0  0  0
  186.7940  175.2920  142.8240 C   0  0  0  0  0  1  0  0  0  0  0  0
  186.1860  176.5820  142.2970 C   0  0  1  0  0  3  0  0  0  0  0  0
  185.6800  177.4660  143.4460 C   0  0  0  0  0  2  0  0  0  0  0  0
  186.8230  177.9750  144.3460 C   0  0  2  0  0  3  0  0  0  0  0  0
  188.1100  178.2720  143.5410 C   0  0  0  0  0  2  0  0  0  0  0  0
  187.8300  178.5440  142.0690 C   0  0  0  0  0  2  0  0  0  0  0  0
  187.1990  177.3140  141.4040 C   0  0  0  0  0  2  0  0  0  0  0  0
  192.4700  170.6510  138.8560 N   0  0  0  0  0  2  0  0  0  0  0  0
  192.6900  171.1870  137.6010 O   0  0  0  0  0  0  0  0  0  0  0  0
  194.8430  172.2770  137.3730 O   0  0  0  0  0  1  0  0  0  0  0  0
  193.4510  172.3450  137.4410 C   0  0  0  0  0  0  0  0  0  0  0  0
  192.8770  173.4660  137.3420 O   0  0  0  0  0  0  0  0  0  0  0  0
  1  7  1  0  0  0  0
  2  6  1  0  0  0  0
  3  4  1  0  0  0  0
  5 19  1  0  0  0  0
  6 12  1  0  0  0  0
  6  3  2  0  0  0  0
  8  9  1  0  0  0  0
  9  5  2  0  0  0  0
 10  2  2  0  0  0  0
 10 21  1  0  0  0  0
 11 19  1  0  0  0  0
 12 11  2  0  0  0  0
 13  9  1  0  0  0  0
 14 13  2  0  0  0  0
 15  3  1  0  0  0  0
 16  8  2  0  0  0  0
 16 14  1  0  0  0  0
 17  7  1  0  0  0  0
 17  2  1  0  0  0  0
 18 10  1  0  0  0  0
 19 23  1  1  0  0  0
 20 14  1  0  0  0  0
 20  1  2  0  0  0  0
 21 15  2  0  0  0  0
 22 24  1  0  0  0  0
 23 22  3  0  0  0  0
 26 25  2  0  0  0  0
 26 27  2  0  0  0  0
 28 26  1  0  0  0  0
 28 24  1  0  0  0  0
 29 28  1  1  0  0  0
 29 26  1  0  0  0  0
 31 30  1  1  0  0  0
 31 32  1  0  0  0  0
 33 32  1  6  0  0  0
 33 29  1  0  0  0  0
 34 33  1  0  0  0  0
 35 34  1  0  0  0  0
 36 35  1  0  0  0  0
 36 31  1  0  0  0  0
 37 20  1  0  0  0  0
 38 37  1  0  0  0  0
 39 40  1  0  0  0  0
 40 38  1  0  0  0  0
 41 40  2  0  0  0  0
M  END
>  <MODEL>
9

>  <REMARK>
 VINA RESULT:      -6.4      1.931      2.160
  Name = 
  7 active torsions:
  status: ('A' for Active; 'I' for Inactive)
    1  A    between atoms: N_3  and  O_31
    2  A    between atoms: N_3  and  C_39
    3  A    between atoms: C_14  and  C_35
    4  A    between atoms: C_15  and  N_34
    5  A    between atoms: N_27  and  C_35
    6  A    between atoms: C_28  and  O_31
    7  A    between atoms: C_37  and  C_40
                            x       y       z     vdW  Elec       q    Type
                         _______ _______ _______ _____ _____    ______ ____

>  <TORSDO>
F 7

$$$$
