=
 OpenBabel11042418563D

 31 33  0  0  1  0  0  0  0  0999 V2000
  190.1140  174.8670  143.4820 C   0  0  1  0  0  3  0  0  0  0  0  0
  188.5080  173.1760  140.9000 C   0  0  0  0  0  2  0  0  0  0  0  0
  189.8330  173.9000  141.1710 C   0  0  2  0  0  3  0  0  0  0  0  0
  188.2580  172.3810  142.0420 O   0  0  0  0  0  0  0  0  0  0  0  0
  190.8150  173.4010  140.3160 O   0  0  0  0  0  1  0  0  0  0  0  0
  189.2050  171.9800  144.1120 O   0  0  0  0  0  0  0  0  0  0  0  0
  189.2030  172.6010  143.0170 C   0  0  0  0  0  0  0  0  0  0  0  0
  190.2230  173.6000  142.6240 C   0  0  2  0  0  3  0  0  0  0  0  0
  191.0710  174.8070  145.8280 C   0  0  0  0  0  0  0  0  0  0  0  0
  191.2180  174.9550  144.5070 C   0  0  0  0  0  3  0  0  0  0  0  0
  192.6450  176.3610  146.9690 C   0  0  0  0  0  2  0  0  0  0  0  0
  193.8590  176.5790  146.4860 C   0  0  0  0  0  3  0  0  0  0  0  0
  192.3090  174.9350  146.6680 C   0  0  2  0  0  3  0  0  0  0  0  0
  193.4870  174.4720  145.9530 N   0  0  0  0  0  2  0  0  0  0  0  0
  194.3490  175.3990  145.8660 N   0  0  0  0  0  0  0  0  0  0  0  0
  189.7460  174.5250  146.4180 C   0  0  0  0  0  3  0  0  0  0  0  0
  189.2060  175.3080  147.2430 O   0  0  0  0  0  0  0  0  0  0  0  0
  190.1030  176.0630  142.6430 N   0  0  0  0  0  2  0  0  0  0  0  0
  189.1040  176.9820  143.1770 C   0  0  1  0  0  3  0  0  0  0  0  0
  185.4310  177.7440  143.2500 C   0  0  0  0  0  2  0  0  0  0  0  0
  187.9100  176.1920  143.7300 C   0  0  2  0  0  3  0  0  0  0  0  0
  186.9050  175.8130  142.6330 C   0  0  0  0  0  2  0  0  0  0  0  0
  187.1940  176.9450  144.8610 C   0  0  0  0  0  2  0  0  0  0  0  0
  186.4320  178.1630  144.3250 C   0  0  2  0  0  3  0  0  0  0  0  0
  186.1550  177.0370  142.1100 C   0  0  0  0  0  2  0  0  0  0  0  0
  185.7460  178.9560  145.4410 C   0  0  1  0  0  3  0  0  0  0  0  0
  184.2290  178.8210  145.4000 C   0  0  0  0  0  1  0  0  0  0  0  0
  185.0940  178.4900  147.5040 C   0  0  0  0  0  1  0  0  0  0  0  0
  186.2250  178.5460  146.6880 O   0  0  0  0  0  0  0  0  0  0  0  0
  191.0110  178.4760  143.7860 C   0  0  0  0  0  1  0  0  0  0  0  0
  189.7320  177.8270  144.2790 C   0  0  0  0  0  2  0  0  0  0  0  0
  1 10  1  1  0  0  0
  2  3  1  0  0  0  0
  2  4  1  0  0  0  0
  3  5  1  6  0  0  0
  3  8  1  0  0  0  0
  4  7  1  0  0  0  0
  7  6  2  0  0  0  0
  8  7  1  0  0  0  0
  8  1  1  1  0  0  0
  9 16  1  0  0  0  0
 10  9  2  0  0  0  0
 12 11  1  0  0  0  0
 13  9  1  6  0  0  0
 13 11  1  0  0  0  0
 14 13  1  0  0  0  0
 15 14  1  0  0  0  0
 15 12  2  0  0  0  0
 16 17  2  0  0  0  0
 18 19  1  0  0  0  0
 18  1  1  0  0  0  0
 19 31  1  1  0  0  0
 20 24  1  0  0  0  0
 21 19  1  6  0  0  0
 21 23  1  0  0  0  0
 22 21  1  0  0  0  0
 24 23  1  0  0  0  0
 24 26  1  1  0  0  0
 25 22  1  0  0  0  0
 25 20  1  0  0  0  0
 26 27  1  1  0  0  0
 26 29  1  0  0  0  0
 29 28  1  0  0  0  0
 30 31  1  0  0  0  0
M  END
>  <MODEL>
1

>  <REMARK>
 VINA RESULT:      -6.7      0.000      0.000
  Name = 
  10 active torsions:
  status: ('A' for Active; 'I' for Inactive)
    1  A    between atoms: C_3  and  N_9
    2  A    between atoms: C_3  and  C_14
    3  A    between atoms: C_3  and  C_25
    4  A    between atoms: C_5  and  C_6
    5  A    between atoms: C_6  and  C_7
    6  A    between atoms: N_9  and  C_18
    7  A    between atoms: C_12  and  C_18
    8  A    between atoms: C_15  and  C_18
    9  A    between atoms: C_21  and  C_27
   10  A    between atoms: C_21  and  O_30
                            x       y       z     vdW  Elec       q    Type
                         _______ _______ _______ _____ _____    ______ ____

>  <TORSDO>
F 10

$$$$
=
 OpenBabel11042418563D

 31 33  0  0  1  0  0  0  0  0999 V2000
  188.6460  175.2460  143.2430 C   0  0  1  0  0  3  0  0  0  0  0  0
  188.7570  173.2870  140.3690 C   0  0  0  0  0  2  0  0  0  0  0  0
  188.1780  173.2400  141.7890 C   0  0  2  0  0  3  0  0  0  0  0  0
  188.5030  174.5920  139.8880 O   0  0  0  0  0  0  0  0  0  0  0  0
  187.0670  172.3980  141.8070 O   0  0  0  0  0  1  0  0  0  0  0  0
  187.5920  176.5720  140.6560 O   0  0  0  0  0  0  0  0  0  0  0  0
  187.9370  175.3790  140.8630 C   0  0  0  0  0  0  0  0  0  0  0  0
  187.7420  174.6660  142.1460 C   0  0  2  0  0  3  0  0  0  0  0  0
  188.0350  177.3140  144.5750 C   0  0  0  0  0  0  0  0  0  0  0  0
  187.8630  176.0220  144.2720 C   0  0  0  0  0  3  0  0  0  0  0  0
  186.5310  176.8300  146.4970 C   0  0  0  0  0  2  0  0  0  0  0  0
  185.2170  176.9550  146.3840 C   0  0  0  0  0  3  0  0  0  0  0  0
  187.1430  177.8890  145.6360 C   0  0  2  0  0  3  0  0  0  0  0  0
  185.9800  178.5410  145.0560 N   0  0  0  0  0  2  0  0  0  0  0  0
  184.9100  178.0150  145.4900 N   0  0  0  0  0  0  0  0  0  0  0  0
  189.0580  178.1260  143.8830 C   0  0  0  0  0  3  0  0  0  0  0  0
  190.2300  178.2380  144.3280 O   0  0  0  0  0  0  0  0  0  0  0  0
  189.4240  174.1900  143.8860 N   0  0  0  0  0  2  0  0  0  0  0  0
  190.7160  174.7480  144.2690 C   0  0  1  0  0  3  0  0  0  0  0  0
  192.0210  176.4500  147.3480 C   0  0  0  0  0  2  0  0  0  0  0  0
  191.1370  174.1960  145.6390 C   0  0  2  0  0  3  0  0  0  0  0  0
  190.2700  174.7490  146.7800 C   0  0  0  0  0  2  0  0  0  0  0  0
  192.6210  174.4550  145.9340 C   0  0  0  0  0  2  0  0  0  0  0  0
  192.8860  175.9420  146.1960 C   0  0  2  0  0  3  0  0  0  0  0  0
  190.5470  176.2310  147.0280 C   0  0  0  0  0  2  0  0  0  0  0  0
  194.3690  176.2310  146.4490 C   0  0  1  0  0  3  0  0  0  0  0  0
  195.2580  175.0440  146.1050 C   0  0  0  0  0  1  0  0  0  0  0  0
  195.2880  176.8390  144.5290 C   0  0  0  0  0  1  0  0  0  0  0  0
  194.7730  177.3520  145.7210 O   0  0  0  0  0  0  0  0  0  0  0  0
  192.2080  175.6290  142.4700 C   0  0  0  0  0  1  0  0  0  0  0  0
  191.7560  174.3870  143.2140 C   0  0  0  0  0  2  0  0  0  0  0  0
  1 18  1  0  0  0  0
  1 10  1  1  0  0  0
  2  3  1  0  0  0  0
  3  5  1  6  0  0  0
  3  8  1  0  0  0  0
  4  2  1  0  0  0  0
  4  7  1  0  0  0  0
  6  7  2  0  0  0  0
  7  8  1  0  0  0  0
  8  1  1  1  0  0  0
 10  9  2  0  0  0  0
 12 11  1  0  0  0  0
 13  9  1  6  0  0  0
 13 11  1  0  0  0  0
 14 15  1  0  0  0  0
 14 13  1  0  0  0  0
 15 12  2  0  0  0  0
 16 17  2  0  0  0  0
 16  9  1  0  0  0  0
 18 19  1  0  0  0  0
 19 31  1  6  0  0  0
 21 19  1  6  0  0  0
 21 23  1  0  0  0  0
 21 22  1  0  0  0  0
 22 25  1  0  0  0  0
 23 24  1  0  0  0  0
 24 26  1  1  0  0  0
 24 20  1  0  0  0  0
 25 20  1  0  0  0  0
 26 27  1  6  0  0  0
 28 29  1  0  0  0  0
 29 26  1  0  0  0  0
 30 31  1  0  0  0  0
M  END
>  <MODEL>
2

>  <REMARK>
 VINA RESULT:      -6.7      2.559      6.144
  Name = 
  10 active torsions:
  status: ('A' for Active; 'I' for Inactive)
    1  A    between atoms: C_3  and  N_9
    2  A    between atoms: C_3  and  C_14
    3  A    between atoms: C_3  and  C_25
    4  A    between atoms: C_5  and  C_6
    5  A    between atoms: C_6  and  C_7
    6  A    between atoms: N_9  and  C_18
    7  A    between atoms: C_12  and  C_18
    8  A    between atoms: C_15  and  C_18
    9  A    between atoms: C_21  and  C_27
   10  A    between atoms: C_21  and  O_30
                            x       y       z     vdW  Elec       q    Type
                         _______ _______ _______ _____ _____    ______ ____

>  <TORSDO>
F 10

$$$$
=
 OpenBabel11042418563D

 31 33  0  0  1  0  0  0  0  0999 V2000
  190.2220  174.7390  142.9190 C   0  0  1  0  0  3  0  0  0  0  0  0
  188.4800  173.5500  140.1500 C   0  0  0  0  0  2  0  0  0  0  0  0
  189.8770  174.0720  140.5110 C   0  0  2  0  0  3  0  0  0  0  0  0
  188.1100  172.6730  141.1950 O   0  0  0  0  0  0  0  0  0  0  0  0
  190.8100  173.5520  139.6150 O   0  0  0  0  0  1  0  0  0  0  0  0
  188.9540  171.9340  143.2150 O   0  0  0  0  0  0  0  0  0  0  0  0
  189.0530  172.6670  142.1960 C   0  0  0  0  0  0  0  0  0  0  0  0
  190.1950  173.5690  141.9260 C   0  0  2  0  0  3  0  0  0  0  0  0
  192.3950  174.5370  144.2080 C   0  0  0  0  0  0  0  0  0  0  0  0
  191.6300  175.1360  143.2890 C   0  0  0  0  0  3  0  0  0  0  0  0
  194.2820  174.8430  145.8010 C   0  0  0  0  0  2  0  0  0  0  0  0
  194.5340  176.0250  146.3420 C   0  0  0  0  0  3  0  0  0  0  0  0
  193.7710  175.0990  144.4180 C   0  0  2  0  0  3  0  0  0  0  0  0
  193.7700  176.5500  144.3420 N   0  0  0  0  0  2  0  0  0  0  0  0
  194.2080  177.0550  145.4200 N   0  0  0  0  0  0  0  0  0  0  0  0
  191.8960  173.3720  144.9690 C   0  0  0  0  0  3  0  0  0  0  0  0
  192.1970  172.1920  144.6500 O   0  0  0  0  0  0  0  0  0  0  0  0
  189.4920  175.8870  142.3880 N   0  0  0  0  0  2  0  0  0  0  0  0
  188.3430  176.1340  143.2520 C   0  0  1  0  0  3  0  0  0  0  0  0
  188.5240  177.3560  146.7950 C   0  0  0  0  0  2  0  0  0  0  0  0
  188.4260  177.5500  143.8390 C   0  0  2  0  0  3  0  0  0  0  0  0
  189.7210  177.7750  144.6330 C   0  0  0  0  0  2  0  0  0  0  0  0
  187.2090  177.8850  144.7130 C   0  0  0  0  0  2  0  0  0  0  0  0
  187.2310  177.0920  146.0260 C   0  0  2  0  0  3  0  0  0  0  0  0
  189.7260  176.9790  145.9370 C   0  0  0  0  0  2  0  0  0  0  0  0
  186.0030  177.3760  146.8950 C   0  0  1  0  0  3  0  0  0  0  0  0
  186.0480  178.7610  147.5280 C   0  0  0  0  0  1  0  0  0  0  0  0
  184.0770  178.3690  146.4430 C   0  0  0  0  0  1  0  0  0  0  0  0
  184.8350  177.2370  146.1410 O   0  0  0  0  0  0  0  0  0  0  0  0
  187.1400  176.7700  141.1570 C   0  0  0  0  0  1  0  0  0  0  0  0
  187.0600  175.9730  142.4450 C   0  0  0  0  0  2  0  0  0  0  0  0
  1 10  1  6  0  0  0
  2  3  1  0  0  0  0
  2  4  1  0  0  0  0
  3  5  1  6  0  0  0
  3  8  1  0  0  0  0
  4  7  1  0  0  0  0
  7  6  2  0  0  0  0
  8  7  1  0  0  0  0
  8  1  1  1  0  0  0
  9 16  1  0  0  0  0
 10  9  2  0  0  0  0
 11 12  1  0  0  0  0
 13  9  1  1  0  0  0
 13 11  1  0  0  0  0
 14 13  1  0  0  0  0
 14 15  1  0  0  0  0
 15 12  2  0  0  0  0
 17 16  2  0  0  0  0
 18  1  1  0  0  0  0
 18 19  1  0  0  0  0
 19 31  1  6  0  0  0
 21 19  1  1  0  0  0
 21 22  1  0  0  0  0
 21 23  1  0  0  0  0
 22 25  1  0  0  0  0
 23 24  1  0  0  0  0
 24 20  1  0  0  0  0
 24 26  1  1  0  0  0
 25 20  1  0  0  0  0
 26 27  1  6  0  0  0
 29 28  1  0  0  0  0
 29 26  1  0  0  0  0
 30 31  1  0  0  0  0
M  END
>  <MODEL>
3

>  <REMARK>
 VINA RESULT:      -6.5      1.647      2.547
  Name = 
  10 active torsions:
  status: ('A' for Active; 'I' for Inactive)
    1  A    between atoms: C_3  and  N_9
    2  A    between atoms: C_3  and  C_14
    3  A    between atoms: C_3  and  C_25
    4  A    between atoms: C_5  and  C_6
    5  A    between atoms: C_6  and  C_7
    6  A    between atoms: N_9  and  C_18
    7  A    between atoms: C_12  and  C_18
    8  A    between atoms: C_15  and  C_18
    9  A    between atoms: C_21  and  C_27
   10  A    between atoms: C_21  and  O_30
                            x       y       z     vdW  Elec       q    Type
                         _______ _______ _______ _____ _____    ______ ____

>  <TORSDO>
F 10

$$$$
=
 OpenBabel11042418563D

 31 33  0  0  1  0  0  0  0  0999 V2000
  189.3190  176.0010  144.3430 C   0  0  1  0  0  3  0  0  0  0  0  0
  186.9170  177.6230  142.4180 C   0  0  0  0  0  2  0  0  0  0  0  0
  188.4080  177.7400  142.7610 C   0  0  2  0  0  3  0  0  0  0  0  0
  186.6770  176.2500  142.1850 O   0  0  0  0  0  0  0  0  0  0  0  0
  189.0690  178.4000  141.7270 O   0  0  0  0  0  1  0  0  0  0  0  0
  187.8360  174.2520  142.2690 O   0  0  0  0  0  0  0  0  0  0  0  0
  187.8010  175.4990  142.4390 C   0  0  0  0  0  0  0  0  0  0  0  0
  188.9550  176.3120  142.8850 C   0  0  2  0  0  3  0  0  0  0  0  0
  187.9750  176.9260  146.2820 C   0  0  0  0  0  0  0  0  0  0  0  0
  188.1210  176.0800  145.2560 C   0  0  0  0  0  3  0  0  0  0  0  0
  185.4990  176.6930  146.1770 C   0  0  0  0  0  3  0  0  0  0  0  0
  184.7060  177.7210  146.4380 C   0  0  0  0  0  3  0  0  0  0  0  0
  186.6960  176.8340  147.0630 C   0  0  2  0  0  3  0  0  0  0  0  0
  186.4200  178.0690  147.7790 N   0  0  0  0  0  0  0  0  0  0  0  0
  185.3000  178.5490  147.4260 N   0  0  0  0  0  0  0  0  0  0  0  0
  189.0300  177.9060  146.6150 C   0  0  0  0  0  3  0  0  0  0  0  0
  189.7050  177.8210  147.6740 O   0  0  0  0  0  0  0  0  0  0  0  0
  189.9550  174.6900  144.4510 N   0  0  0  0  0  2  0  0  0  0  0  0
  191.4000  174.8800  144.3930 C   0  0  1  0  0  3  0  0  0  0  0  0
  194.1530  176.1610  146.5960 C   0  0  0  0  0  2  0  0  0  0  0  0
  192.0540  174.2940  145.6520 C   0  0  2  0  0  3  0  0  0  0  0  0
  191.8590  175.1940  146.8820 C   0  0  0  0  0  2  0  0  0  0  0  0
  193.5480  174.0050  145.4460 C   0  0  0  0  0  2  0  0  0  0  0  0
  194.3590  175.3030  145.3500 C   0  0  2  0  0  3  0  0  0  0  0  0
  192.6730  176.4820  146.7700 C   0  0  0  0  0  2  0  0  0  0  0  0
  195.8460  175.0400  145.0990 C   0  0  1  0  0  3  0  0  0  0  0  0
  196.3230  173.7430  145.7390 C   0  0  0  0  0  1  0  0  0  0  0  0
  196.0880  176.3540  143.3330 C   0  0  0  0  0  1  0  0  0  0  0  0
  196.1070  175.0140  143.7270 O   0  0  0  0  0  0  0  0  0  0  0  0
  192.4360  175.2280  142.1470 C   0  0  0  0  0  1  0  0  0  0  0  0
  191.9510  174.1960  143.1470 C   0  0  0  0  0  2  0  0  0  0  0  0
  1 18  1  0  0  0  0
  1 10  1  1  0  0  0
  2  3  1  0  0  0  0
  3  5  1  6  0  0  0
  3  8  1  0  0  0  0
  4  2  1  0  0  0  0
  4  7  1  0  0  0  0
  6  7  2  0  0  0  0
  7  8  1  0  0  0  0
  8  1  1  1  0  0  0
  9 16  1  0  0  0  0
 10  9  2  0  0  0  0
 11 12  2  0  0  0  0
 11 13  1  0  0  0  0
 12 15  1  0  0  0  0
 13  9  1  6  0  0  0
 13 14  1  0  0  0  0
 15 14  2  0  0  0  0
 16 17  2  0  0  0  0
 19 31  1  6  0  0  0
 19 18  1  0  0  0  0
 20 25  1  0  0  0  0
 21 19  1  6  0  0  0
 21 22  1  0  0  0  0
 23 21  1  0  0  0  0
 24 26  1  1  0  0  0
 24 23  1  0  0  0  0
 24 20  1  0  0  0  0
 25 22  1  0  0  0  0
 26 27  1  6  0  0  0
 28 29  1  0  0  0  0
 29 26  1  0  0  0  0
 30 31  1  0  0  0  0
M  END
>  <MODEL>
4

>  <REMARK>
 VINA RESULT:      -6.4      3.041      6.832
  Name = 
  10 active torsions:
  status: ('A' for Active; 'I' for Inactive)
    1  A    between atoms: C_3  and  N_9
    2  A    between atoms: C_3  and  C_14
    3  A    between atoms: C_3  and  C_25
    4  A    between atoms: C_5  and  C_6
    5  A    between atoms: C_6  and  C_7
    6  A    between atoms: N_9  and  C_18
    7  A    between atoms: C_12  and  C_18
    8  A    between atoms: C_15  and  C_18
    9  A    between atoms: C_21  and  C_27
   10  A    between atoms: C_21  and  O_30
                            x       y       z     vdW  Elec       q    Type
                         _______ _______ _______ _____ _____    ______ ____

>  <TORSDO>
F 10

$$$$
=
 OpenBabel11042418563D

 31 33  0  0  1  0  0  0  0  0999 V2000
  190.8000  175.3390  143.6670 C   0  0  1  0  0  3  0  0  0  0  0  0
  188.6180  173.5610  141.6210 C   0  0  0  0  0  2  0  0  0  0  0  0
  189.9820  174.2590  141.5400 C   0  0  2  0  0  3  0  0  0  0  0  0
  188.6230  172.8350  142.8340 O   0  0  0  0  0  0  0  0  0  0  0  0
  190.7330  173.6870  140.5160 O   0  0  0  0  0  1  0  0  0  0  0  0
  190.0100  172.5170  144.6540 O   0  0  0  0  0  0  0  0  0  0  0  0
  189.7690  173.0790  143.5540 C   0  0  0  0  0  0  0  0  0  0  0  0
  190.6880  174.0250  142.8820 C   0  0  2  0  0  3  0  0  0  0  0  0
  193.0970  175.4880  144.7260 C   0  0  0  0  0  0  0  0  0  0  0  0
  192.2260  175.8210  143.7680 C   0  0  0  0  0  3  0  0  0  0  0  0
  195.0550  175.9550  143.2620 C   0  0  0  0  0  3  0  0  0  0  0  0
  196.1800  175.2680  143.3870 C   0  0  0  0  0  3  0  0  0  0  0  0
  194.4710  176.0860  144.6330 C   0  0  2  0  0  3  0  0  0  0  0  0
  195.4240  175.3570  145.4560 N   0  0  0  0  0  0  0  0  0  0  0  0
  196.3780  174.9140  144.7480 N   0  0  0  0  0  0  0  0  0  0  0  0
  192.7120  174.5680  145.8170 C   0  0  0  0  0  3  0  0  0  0  0  0
  192.3670  174.9910  146.9510 O   0  0  0  0  0  0  0  0  0  0  0  0
  189.9550  176.3720  143.0730 N   0  0  0  0  0  2  0  0  0  0  0  0
  189.0380  176.8550  144.0990 C   0  0  1  0  0  3  0  0  0  0  0  0
  185.9460  178.9020  143.5260 C   0  0  0  0  0  2  0  0  0  0  0  0
  187.5990  176.4520  143.7460 C   0  0  2  0  0  3  0  0  0  0  0  0
  187.1520  177.0210  142.3910 C   0  0  0  0  0  2  0  0  0  0  0  0
  186.6010  176.8560  144.8400 C   0  0  0  0  0  2  0  0  0  0  0  0
  186.4080  178.3770  144.8840 C   0  0  2  0  0  3  0  0  0  0  0  0
  186.9640  178.5360  142.4530 C   0  0  0  0  0  2  0  0  0  0  0  0
  185.4500  178.8080  145.9980 C   0  0  1  0  0  3  0  0  0  0  0  0
  183.9920  178.7650  145.5580 C   0  0  0  0  0  1  0  0  0  0  0  0
  186.4560  178.7460  147.9690 C   0  0  0  0  0  1  0  0  0  0  0  0
  185.6280  178.0030  147.1260 O   0  0  0  0  0  0  0  0  0  0  0  0
  189.7500  177.3690  146.4370 C   0  0  0  0  0  1  0  0  0  0  0  0
  189.4330  176.2640  145.4490 C   0  0  0  0  0  2  0  0  0  0  0  0
  1 10  1  6  0  0  0
  2  4  1  0  0  0  0
  3  5  1  6  0  0  0
  3  2  1  0  0  0  0
  3  8  1  0  0  0  0
  4  7  1  0  0  0  0
  7  6  2  0  0  0  0
  8  7  1  0  0  0  0
  8  1  1  1  0  0  0
  9 16  1  0  0  0  0
 10  9  2  0  0  0  0
 11 12  2  0  0  0  0
 11 13  1  0  0  0  0
 12 15  1  0  0  0  0
 13  9  1  6  0  0  0
 13 14  1  0  0  0  0
 15 14  2  0  0  0  0
 16 17  2  0  0  0  0
 18  1  1  0  0  0  0
 18 19  1  0  0  0  0
 19 31  1  1  0  0  0
 20 24  1  0  0  0  0
 21 19  1  1  0  0  0
 21 23  1  0  0  0  0
 22 25  1  0  0  0  0
 22 21  1  0  0  0  0
 23 24  1  0  0  0  0
 24 26  1  1  0  0  0
 25 20  1  0  0  0  0
 26 27  1  6  0  0  0
 26 29  1  0  0  0  0
 29 28  1  0  0  0  0
 31 30  1  0  0  0  0
M  END
>  <MODEL>
5

>  <REMARK>
 VINA RESULT:      -6.3      1.630      1.928
  Name = 
  10 active torsions:
  status: ('A' for Active; 'I' for Inactive)
    1  A    between atoms: C_3  and  N_9
    2  A    between atoms: C_3  and  C_14
    3  A    between atoms: C_3  and  C_25
    4  A    between atoms: C_5  and  C_6
    5  A    between atoms: C_6  and  C_7
    6  A    between atoms: N_9  and  C_18
    7  A    between atoms: C_12  and  C_18
    8  A    between atoms: C_15  and  C_18
    9  A    between atoms: C_21  and  C_27
   10  A    between atoms: C_21  and  O_30
                            x       y       z     vdW  Elec       q    Type
                         _______ _______ _______ _____ _____    ______ ____

>  <TORSDO>
F 10

$$$$
=
 OpenBabel11042418563D

 31 33  0  0  1  0  0  0  0  0999 V2000
  191.0430  174.3700  143.0280 C   0  0  1  0  0  3  0  0  0  0  0  0
  190.5640  172.6630  140.0330 C   0  0  0  0  0  2  0  0  0  0  0  0
  191.4680  173.7550  140.6200 C   0  0  2  0  0  3  0  0  0  0  0  0
  190.4770  171.6570  141.0220 O   0  0  0  0  0  0  0  0  0  0  0  0
  192.6730  173.7820  139.9190 O   0  0  0  0  0  1  0  0  0  0  0  0
  191.2090  171.2860  143.1820 O   0  0  0  0  0  0  0  0  0  0  0  0
  191.1250  172.0350  142.1740 C   0  0  0  0  0  0  0  0  0  0  0  0
  191.7380  173.3800  142.0830 C   0  0  2  0  0  3  0  0  0  0  0  0
  191.4940  174.5560  145.5150 C   0  0  0  0  0  0  0  0  0  0  0  0
  191.8840  174.6810  144.2410 C   0  0  0  0  0  3  0  0  0  0  0  0
  192.5760  176.4010  146.7880 C   0  0  0  0  0  2  0  0  0  0  0  0
  193.8270  176.7580  146.5420 C   0  0  0  0  0  3  0  0  0  0  0  0
  192.4960  174.9230  146.5710 C   0  0  2  0  0  3  0  0  0  0  0  0
  193.8490  174.5870  146.1610 N   0  0  0  0  0  2  0  0  0  0  0  0
  194.5850  175.6200  146.1570 N   0  0  0  0  0  0  0  0  0  0  0  0
  190.1390  174.0710  145.8510 C   0  0  0  0  0  3  0  0  0  0  0  0
  189.5260  174.4710  146.8750 O   0  0  0  0  0  0  0  0  0  0  0  0
  190.6910  175.6000  142.3240 N   0  0  0  0  0  2  0  0  0  0  0  0
  189.3250  175.9570  142.6890 C   0  0  1  0  0  3  0  0  0  0  0  0
  187.6730  177.9990  145.3680 C   0  0  0  0  0  2  0  0  0  0  0  0
  189.2190  177.4750  142.8940 C   0  0  2  0  0  3  0  0  0  0  0  0
  189.8890  177.9330  144.1980 C   0  0  0  0  0  2  0  0  0  0  0  0
  187.7640  177.9630  142.8520 C   0  0  0  0  0  2  0  0  0  0  0  0
  186.9880  177.5100  144.0940 C   0  0  2  0  0  3  0  0  0  0  0  0
  189.1030  177.4730  145.4260 C   0  0  0  0  0  2  0  0  0  0  0  0
  185.5200  177.9470  144.0530 C   0  0  1  0  0  3  0  0  0  0  0  0
  185.3690  179.4600  143.9620 C   0  0  0  0  0  1  0  0  0  0  0  0
  183.9400  178.2890  142.5410 C   0  0  0  0  0  1  0  0  0  0  0  0
  184.8660  177.3400  142.9790 O   0  0  0  0  0  0  0  0  0  0  0  0
  187.6660  174.2270  141.9850 C   0  0  0  0  0  1  0  0  0  0  0  0
  188.3730  175.5080  141.5860 C   0  0  0  0  0  2  0  0  0  0  0  0
  1 10  1  1  0  0  0
  2  3  1  0  0  0  0
  2  4  1  0  0  0  0
  3  5  1  6  0  0  0
  3  8  1  0  0  0  0
  4  7  1  0  0  0  0
  7  6  2  0  0  0  0
  8  7  1  0  0  0  0
  8  1  1  1  0  0  0
  9 16  1  0  0  0  0
 10  9  2  0  0  0  0
 12 11  1  0  0  0  0
 13  9  1  6  0  0  0
 13 11  1  0  0  0  0
 14 13  1  0  0  0  0
 15 14  1  0  0  0  0
 15 12  2  0  0  0  0
 16 17  2  0  0  0  0
 18 19  1  0  0  0  0
 18  1  1  0  0  0  0
 19 31  1  6  0  0  0
 20 25  1  0  0  0  0
 21 19  1  1  0  0  0
 21 22  1  0  0  0  0
 22 25  1  0  0  0  0
 23 21  1  0  0  0  0
 23 24  1  0  0  0  0
 24 26  1  6  0  0  0
 24 20  1  0  0  0  0
 26 27  1  6  0  0  0
 28 29  1  0  0  0  0
 29 26  1  0  0  0  0
 31 30  1  0  0  0  0
M  END
>  <MODEL>
6

>  <REMARK>
 VINA RESULT:      -6.1      1.628      2.475
  Name = 
  10 active torsions:
  status: ('A' for Active; 'I' for Inactive)
    1  A    between atoms: C_3  and  N_9
    2  A    between atoms: C_3  and  C_14
    3  A    between atoms: C_3  and  C_25
    4  A    between atoms: C_5  and  C_6
    5  A    between atoms: C_6  and  C_7
    6  A    between atoms: N_9  and  C_18
    7  A    between atoms: C_12  and  C_18
    8  A    between atoms: C_15  and  C_18
    9  A    between atoms: C_21  and  C_27
   10  A    between atoms: C_21  and  O_30
                            x       y       z     vdW  Elec       q    Type
                         _______ _______ _______ _____ _____    ______ ____

>  <TORSDO>
F 10

$$$$
=
 OpenBabel11042418563D

 31 33  0  0  1  0  0  0  0  0999 V2000
  187.7110  177.6030  145.1940 C   0  0  1  0  0  3  0  0  0  0  0  0
  184.6100  179.1760  145.3360 C   0  0  0  0  0  2  0  0  0  0  0  0
  185.4120  178.2650  144.3970 C   0  0  2  0  0  3  0  0  0  0  0  0
  184.7920  178.6520  146.6360 O   0  0  0  0  0  0  0  0  0  0  0  0
  184.5330  177.5420  143.5930 O   0  0  0  0  0  1  0  0  0  0  0  0
  185.9730  176.9550  147.6680 O   0  0  0  0  0  0  0  0  0  0  0  0
  185.6800  177.6020  146.6290 C   0  0  0  0  0  0  0  0  0  0  0  0
  186.2100  177.2970  145.2800 C   0  0  2  0  0  3  0  0  0  0  0  0
  189.4810  176.5400  146.6640 C   0  0  0  0  0  0  0  0  0  0  0  0
  188.5530  176.4600  145.7040 C   0  0  0  0  0  3  0  0  0  0  0  0
  191.5450  175.5380  147.6290 C   0  0  0  0  0  2  0  0  0  0  0  0
  192.4430  174.9480  146.8550 C   0  0  0  0  0  3  0  0  0  0  0  0
  190.2050  175.2730  147.0190 C   0  0  2  0  0  3  0  0  0  0  0  0
  190.5420  174.5040  145.8320 N   0  0  0  0  0  2  0  0  0  0  0  0
  191.7950  174.3210  145.7580 N   0  0  0  0  0  0  0  0  0  0  0  0
  189.7650  177.8230  147.3400 C   0  0  0  0  0  3  0  0  0  0  0  0
  188.9890  178.3020  148.2080 O   0  0  0  0  0  0  0  0  0  0  0  0
  188.0930  177.9450  143.8270 N   0  0  0  0  0  2  0  0  0  0  0  0
  189.3350  177.2470  143.5140 C   0  0  1  0  0  3  0  0  0  0  0  0
  187.7690  174.1100  142.1760 C   0  0  0  0  0  2  0  0  0  0  0  0
  189.2650  176.6680  142.0940 C   0  0  2  0  0  3  0  0  0  0  0  0
  187.8210  176.5460  141.5860 C   0  0  0  0  0  2  0  0  0  0  0  0
  189.9750  175.3100  141.9880 C   0  0  0  0  0  2  0  0  0  0  0  0
  189.1930  174.2140  142.7200 C   0  0  2  0  0  3  0  0  0  0  0  0
  187.0560  175.4490  142.3260 C   0  0  0  0  0  2  0  0  0  0  0  0
  189.9050  172.8590  142.6660 C   0  0  1  0  0  3  0  0  0  0  0  0
  189.3930  171.8920  143.7270 C   0  0  0  0  0  1  0  0  0  0  0  0
  190.6390  171.2020  141.3940 C   0  0  0  0  0  1  0  0  0  0  0  0
  189.7630  172.2890  141.3980 O   0  0  0  0  0  0  0  0  0  0  0  0
  191.7670  177.4810  144.0320 C   0  0  0  0  0  1  0  0  0  0  0  0
  190.5050  178.2180  143.6290 C   0  0  0  0  0  2  0  0  0  0  0  0
  1 10  1  6  0  0  0
  2  4  1  0  0  0  0
  3  5  1  6  0  0  0
  3  8  1  0  0  0  0
  3  2  1  0  0  0  0
  7  4  1  0  0  0  0
  7  6  2  0  0  0  0
  8  1  1  1  0  0  0
  8  7  1  0  0  0  0
  9 16  1  0  0  0  0
 10  9  2  0  0  0  0
 12 11  1  0  0  0  0
 13  9  1  6  0  0  0
 13 11  1  0  0  0  0
 14 13  1  0  0  0  0
 15 14  1  0  0  0  0
 15 12  2  0  0  0  0
 16 17  2  0  0  0  0
 18  1  1  0  0  0  0
 19 31  1  6  0  0  0
 19 18  1  0  0  0  0
 20 25  1  0  0  0  0
 20 24  1  0  0  0  0
 21 19  1  1  0  0  0
 22 21  1  0  0  0  0
 22 25  1  0  0  0  0
 23 21  1  0  0  0  0
 23 24  1  0  0  0  0
 24 26  1  6  0  0  0
 26 27  1  1  0  0  0
 28 29  1  0  0  0  0
 29 26  1  0  0  0  0
 31 30  1  0  0  0  0
M  END
>  <MODEL>
7

>  <REMARK>
 VINA RESULT:      -6.0      1.783      5.404
  Name = 
  10 active torsions:
  status: ('A' for Active; 'I' for Inactive)
    1  A    between atoms: C_3  and  N_9
    2  A    between atoms: C_3  and  C_14
    3  A    between atoms: C_3  and  C_25
    4  A    between atoms: C_5  and  C_6
    5  A    between atoms: C_6  and  C_7
    6  A    between atoms: N_9  and  C_18
    7  A    between atoms: C_12  and  C_18
    8  A    between atoms: C_15  and  C_18
    9  A    between atoms: C_21  and  C_27
   10  A    between atoms: C_21  and  O_30
                            x       y       z     vdW  Elec       q    Type
                         _______ _______ _______ _____ _____    ______ ____

>  <TORSDO>
F 10

$$$$
=
 OpenBabel11042418563D

 31 33  0  0  1  0  0  0  0  0999 V2000
  189.9910  174.7670  143.6830 C   0  0  1  0  0  3  0  0  0  0  0  0
  187.5880  172.9820  141.9080 C   0  0  0  0  0  2  0  0  0  0  0  0
  188.2540  174.3640  141.8990 C   0  0  2  0  0  3  0  0  0  0  0  0
  188.6300  172.0490  142.1130 O   0  0  0  0  0  0  0  0  0  0  0  0
  188.1950  174.8980  140.6130 O   0  0  0  0  0  1  0  0  0  0  0  0
  190.9070  172.0570  142.5090 O   0  0  0  0  0  0  0  0  0  0  0  0
  189.8300  172.6840  142.3340 C   0  0  0  0  0  0  0  0  0  0  0  0
  189.7220  174.1610  142.2990 C   0  0  2  0  0  3  0  0  0  0  0  0
  192.4140  175.4050  144.0630 C   0  0  0  0  0  0  0  0  0  0  0  0
  191.1710  175.7060  143.6710 C   0  0  0  0  0  3  0  0  0  0  0  0
  194.7720  175.9830  143.5160 C   0  0  0  0  0  3  0  0  0  0  0  0
  195.6410  176.2790  144.4700 C   0  0  0  0  0  3  0  0  0  0  0  0
  193.4410  176.4960  143.9670 C   0  0  2  0  0  3  0  0  0  0  0  0
  193.7420  177.0590  145.2730 N   0  0  0  0  0  0  0  0  0  0  0  0
  194.9770  176.9400  145.5370 N   0  0  0  0  0  0  0  0  0  0  0  0
  192.7470  174.0540  144.5600 C   0  0  0  0  0  3  0  0  0  0  0  0
  193.0530  173.8450  145.7640 O   0  0  0  0  0  0  0  0  0  0  0  0
  188.8040  175.4490  144.1910 N   0  0  0  0  0  2  0  0  0  0  0  0
  189.1800  176.1780  145.3960 C   0  0  1  0  0  3  0  0  0  0  0  0
  185.5190  177.0020  145.3610 C   0  0  0  0  0  2  0  0  0  0  0  0
  188.4360  177.5200  145.4480 C   0  0  2  0  0  3  0  0  0  0  0  0
  187.5440  177.6430  146.6920 C   0  0  0  0  0  2  0  0  0  0  0  0
  187.6060  177.7700  144.1800 C   0  0  0  0  0  2  0  0  0  0  0  0
  186.3910  176.8380  144.1170 C   0  0  2  0  0  3  0  0  0  0  0  0
  186.3380  176.7080  146.6130 C   0  0  0  0  0  2  0  0  0  0  0  0
  185.5720  177.0380  142.8390 C   0  0  1  0  0  3  0  0  0  0  0  0
  184.4620  178.0670  143.0150 C   0  0  0  0  0  1  0  0  0  0  0  0
  185.5940  178.1710  140.9370 C   0  0  0  0  0  1  0  0  0  0  0  0
  186.4070  177.4180  141.7860 O   0  0  0  0  0  0  0  0  0  0  0  0
  190.0860  175.0540  147.4350 C   0  0  0  0  0  1  0  0  0  0  0  0
  188.8370  175.3400  146.6230 C   0  0  0  0  0  2  0  0  0  0  0  0
  1 10  1  6  0  0  0
  1 18  1  0  0  0  0
  2  4  1  0  0  0  0
  3  5  1  6  0  0  0
  3  2  1  0  0  0  0
  3  8  1  0  0  0  0
  4  7  1  0  0  0  0
  7  6  2  0  0  0  0
  8  7  1  0  0  0  0
  8  1  1  1  0  0  0
  9 16  1  0  0  0  0
 10  9  2  0  0  0  0
 11 13  1  0  0  0  0
 11 12  2  0  0  0  0
 12 15  1  0  0  0  0
 13  9  1  1  0  0  0
 13 14  1  0  0  0  0
 14 15  2  0  0  0  0
 16 17  2  0  0  0  0
 18 19  1  0  0  0  0
 19 31  1  1  0  0  0
 20 25  1  0  0  0  0
 21 19  1  6  0  0  0
 21 22  1  0  0  0  0
 23 21  1  0  0  0  0
 24 26  1  6  0  0  0
 24 23  1  0  0  0  0
 24 20  1  0  0  0  0
 25 22  1  0  0  0  0
 26 27  1  1  0  0  0
 28 29  1  0  0  0  0
 29 26  1  0  0  0  0
 31 30  1  0  0  0  0
M  END
>  <MODEL>
8

>  <REMARK>
 VINA RESULT:      -5.9      2.135      3.073
  Name = 
  10 active torsions:
  status: ('A' for Active; 'I' for Inactive)
    1  A    between atoms: C_3  and  N_9
    2  A    between atoms: C_3  and  C_14
    3  A    between atoms: C_3  and  C_25
    4  A    between atoms: C_5  and  C_6
    5  A    between atoms: C_6  and  C_7
    6  A    between atoms: N_9  and  C_18
    7  A    between atoms: C_12  and  C_18
    8  A    between atoms: C_15  and  C_18
    9  A    between atoms: C_21  and  C_27
   10  A    between atoms: C_21  and  O_30
                            x       y       z     vdW  Elec       q    Type
                         _______ _______ _______ _____ _____    ______ ____

>  <TORSDO>
F 10

$$$$
=
 OpenBabel11042418563D

 31 33  0  0  1  0  0  0  0  0999 V2000
  193.2090  175.9230  144.0050 C   0  0  1  0  0  3  0  0  0  0  0  0
  195.7940  174.3700  142.2680 C   0  0  0  0  0  2  0  0  0  0  0  0
  195.2050  175.7720  142.4720 C   0  0  2  0  0  3  0  0  0  0  0  0
  195.8310  173.7730  143.5490 O   0  0  0  0  0  0  0  0  0  0  0  0
  196.1950  176.7260  142.2440 O   0  0  0  0  0  1  0  0  0  0  0  0
  195.1960  174.2790  145.7130 O   0  0  0  0  0  0  0  0  0  0  0  0
  195.2490  174.5870  144.4930 C   0  0  0  0  0  0  0  0  0  0  0  0
  194.7410  175.8590  143.9310 C   0  0  2  0  0  3  0  0  0  0  0  0
  191.9430  173.9730  142.9970 C   0  0  0  0  0  0  0  0  0  0  0  0
  192.5850  174.5500  144.0190 C   0  0  0  0  0  3  0  0  0  0  0  0
  190.1910  172.3140  142.3870 C   0  0  0  0  0  3  0  0  0  0  0  0
  189.1990  172.0320  143.2170 C   0  0  0  0  0  3  0  0  0  0  0  0
  191.3960  172.5940  143.2280 C   0  0  2  0  0  3  0  0  0  0  0  0
  190.8810  172.4460  144.5800 N   0  0  0  0  0  0  0  0  0  0  0  0
  189.6550  172.1230  144.5590 N   0  0  0  0  0  0  0  0  0  0  0  0
  191.7930  174.6710  141.7030 C   0  0  0  0  0  3  0  0  0  0  0  0
  192.5020  174.3770  140.7040 O   0  0  0  0  0  0  0  0  0  0  0  0
  192.7780  176.6900  145.1710 N   0  0  0  0  0  2  0  0  0  0  0  0
  191.3350  176.8860  145.0770 C   0  0  1  0  0  3  0  0  0  0  0  0
  188.5850  175.2500  147.0360 C   0  0  0  0  0  2  0  0  0  0  0  0
  190.7570  177.1850  146.4670 C   0  0  2  0  0  3  0  0  0  0  0  0
  190.9400  176.0080  147.4380 C   0  0  0  0  0  2  0  0  0  0  0  0
  189.2770  177.5870  146.4030 C   0  0  0  0  0  2  0  0  0  0  0  0
  188.3890  176.3910  146.0390 C   0  0  2  0  0  3  0  0  0  0  0  0
  190.0480  174.8260  147.0610 C   0  0  0  0  0  2  0  0  0  0  0  0
  186.9120  176.7780  145.9250 C   0  0  1  0  0  3  0  0  0  0  0  0
  186.2270  176.8580  147.2830 C   0  0  0  0  0  1  0  0  0  0  0  0
  185.7100  178.6360  145.8800 C   0  0  0  0  0  1  0  0  0  0  0  0
  186.7830  177.9980  145.2560 O   0  0  0  0  0  0  0  0  0  0  0  0
  190.1220  177.5890  143.0100 C   0  0  0  0  0  1  0  0  0  0  0  0
  191.0430  178.0420  144.1260 C   0  0  0  0  0  2  0  0  0  0  0  0
  1 10  1  1  0  0  0
  1 18  1  0  0  0  0
  2  3  1  0  0  0  0
  2  4  1  0  0  0  0
  3  5  1  1  0  0  0
  3  8  1  0  0  0  0
  4  7  1  0  0  0  0
  7  6  2  0  0  0  0
  8  1  1  6  0  0  0
  8  7  1  0  0  0  0
  9 10  2  0  0  0  0
 11 12  2  0  0  0  0
 11 13  1  0  0  0  0
 12 15  1  0  0  0  0
 13  9  1  1  0  0  0
 13 14  1  0  0  0  0
 15 14  2  0  0  0  0
 16  9  1  0  0  0  0
 17 16  2  0  0  0  0
 19 31  1  6  0  0  0
 19 18  1  0  0  0  0
 20 25  1  0  0  0  0
 21 19  1  6  0  0  0
 21 22  1  0  0  0  0
 23 21  1  0  0  0  0
 24 26  1  1  0  0  0
 24 23  1  0  0  0  0
 24 20  1  0  0  0  0
 25 22  1  0  0  0  0
 26 27  1  1  0  0  0
 29 28  1  0  0  0  0
 29 26  1  0  0  0  0
 30 31  1  0  0  0  0
M  END
>  <MODEL>
9

>  <REMARK>
 VINA RESULT:      -5.9      2.974      4.993
  Name = 
  10 active torsions:
  status: ('A' for Active; 'I' for Inactive)
    1  A    between atoms: C_3  and  N_9
    2  A    between atoms: C_3  and  C_14
    3  A    between atoms: C_3  and  C_25
    4  A    between atoms: C_5  and  C_6
    5  A    between atoms: C_6  and  C_7
    6  A    between atoms: N_9  and  C_18
    7  A    between atoms: C_12  and  C_18
    8  A    between atoms: C_15  and  C_18
    9  A    between atoms: C_21  and  C_27
   10  A    between atoms: C_21  and  O_30
                            x       y       z     vdW  Elec       q    Type
                         _______ _______ _______ _____ _____    ______ ____

>  <TORSDO>
F 10

$$$$
