=
 OpenBabel11042414033D

 31 34  0  0  0  0  0  0  0  0999 V2000
  189.2360  173.4970  143.3350 C   0  0  0  0  0  0  0  0  0  0  0  0
  188.5800  173.5760  141.0070 C   0  0  0  0  0  0  0  0  0  0  0  0
  189.0710  172.8620  142.1010 C   0  0  0  0  0  3  0  0  0  0  0  0
  189.0850  175.4990  144.7260 C   0  0  0  0  0  0  0  0  0  0  0  0
  189.9120  173.4110  145.6530 C   0  0  0  0  0  3  0  0  0  0  0  0
  188.4130  175.5700  142.3730 C   0  0  0  0  0  3  0  0  0  0  0  0
  189.7330  172.7790  144.4230 C   0  0  0  0  0  3  0  0  0  0  0  0
  188.2510  174.9280  141.1420 C   0  0  0  0  0  3  0  0  0  0  0  0
  189.5950  174.7690  145.8150 C   0  0  0  0  0  0  0  0  0  0  0  0
  188.9070  174.8640  143.4800 C   0  0  0  0  0  0  0  0  0  0  0  0
  188.4230  172.9450  139.7810 O   0  0  0  0  0  1  0  0  0  0  0  0
  188.7510  176.8860  144.8910 N   0  0  0  0  0  0  0  0  0  0  0  0
  186.8140  178.2890  144.2510 C   0  0  0  0  0  3  0  0  0  0  0  0
  186.5940  176.7350  146.0920 C   0  0  0  0  0  3  0  0  0  0  0  0
  185.2690  177.1410  146.2730 C   0  0  0  0  0  3  0  0  0  0  0  0
  184.7180  178.1210  145.4440 C   0  0  0  0  0  3  0  0  0  0  0  0
  185.4900  178.6950  144.4330 C   0  0  0  0  0  3  0  0  0  0  0  0
  187.3830  177.3060  145.0800 C   0  0  0  0  0  0  0  0  0  0  0  0
  190.2060  178.0150  143.4530 O   0  0  0  0  0  1  0  0  0  0  0  0
  189.8320  177.8610  144.7900 C   0  0  0  0  0  2  0  0  0  0  0  0
  189.7770  175.4120  147.0480 O   0  0  0  0  0  0  0  0  0  0  0  0
  190.9900  175.3520  147.7890 C   0  0  0  0  0  2  0  0  0  0  0  0
  191.9500  176.4300  147.3140 C   0  0  0  0  0  2  0  0  0  0  0  0
  193.1430  175.8400  146.8100 O   0  0  0  0  0  0  0  0  0  0  0  0
  193.6290  172.8740  144.6140 C   0  0  0  0  0  3  0  0  0  0  0  0
  192.7440  175.5240  144.4520 C   0  0  0  0  0  3  0  0  0  0  0  0
  193.2050  173.3960  143.3890 C   0  0  0  0  0  3  0  0  0  0  0  0
  193.1700  175.0100  145.6830 C   0  0  0  0  0  0  0  0  0  0  0  0
  193.6130  173.6790  145.7570 C   0  0  0  0  0  3  0  0  0  0  0  0
  192.3280  175.2790  142.0000 C   0  0  0  0  0  1  0  0  0  0  0  0
  192.7630  174.7200  143.3080 C   0  0  0  0  0  0  0  0  0  0  0  0
  1 10  1  0  0  0  0
  1  7  1  0  0  0  0
  2  8  2  0  0  0  0
  2  3  1  0  0  0  0
  3  1  2  0  0  0  0
  4 12  1  0  0  0  0
  4  9  2  0  0  0  0
  5  9  1  0  0  0  0
  6 10  2  0  0  0  0
  7  5  2  0  0  0  0
  8  6  1  0  0  0  0
  9 21  1  0  0  0  0
 10  4  1  0  0  0  0
 11  2  1  0  0  0  0
 12 18  1  0  0  0  0
 13 17  2  0  0  0  0
 13 18  1  0  0  0  0
 14 15  1  0  0  0  0
 16 15  2  0  0  0  0
 17 16  1  0  0  0  0
 18 14  2  0  0  0  0
 19 20  1  0  0  0  0
 20 12  1  0  0  0  0
 21 22  1  0  0  0  0
 23 22  1  0  0  0  0
 24 23  1  0  0  0  0
 25 29  1  0  0  0  0
 26 28  1  0  0  0  0
 27 25  2  0  0  0  0
 28 29  2  0  0  0  0
 28 24  1  0  0  0  0
 30 31  1  0  0  0  0
 31 27  1  0  0  0  0
 31 26  2  0  0  0  0
M  END
>  <MODEL>
1

>  <REMARK>
 VINA RESULT:      -6.9      0.000      0.000
  Name = 
  8 active torsions:
  status: ('A' for Active; 'I' for Inactive)
    1  A    between atoms: C_10  and  N_28
    2  A    between atoms: C_16  and  O_23
    3  A    between atoms: C_18  and  C_22
    4  A    between atoms: C_18  and  O_23
    5  A    between atoms: C_19  and  O_29
    6  A    between atoms: C_22  and  O_29
    7  A    between atoms: C_24  and  N_28
    8  A    between atoms: N_28  and  C_30
                            x       y       z     vdW  Elec       q    Type
                         _______ _______ _______ _____ _____    ______ ____

>  <TORSDO>
F 8

$$$$
=
 OpenBabel11042414033D

 31 34  0  0  0  0  0  0  0  0999 V2000
  194.0020  175.8000  145.1730 C   0  0  0  0  0  0  0  0  0  0  0  0
  195.7190  176.4660  143.6020 C   0  0  0  0  0  0  0  0  0  0  0  0
  195.2850  176.2930  144.9180 C   0  0  0  0  0  3  0  0  0  0  0  0
  191.8450  174.9860  144.3690 C   0  0  0  0  0  0  0  0  0  0  0  0
  192.2890  175.1570  146.7510 C   0  0  0  0  0  3  0  0  0  0  0  0
  193.5890  175.6510  142.7840 C   0  0  0  0  0  3  0  0  0  0  0  0
  193.5720  175.6370  146.4900 C   0  0  0  0  0  3  0  0  0  0  0  0
  194.8730  176.1440  142.5360 C   0  0  0  0  0  3  0  0  0  0  0  0
  191.4170  174.8330  145.6990 C   0  0  0  0  0  0  0  0  0  0  0  0
  193.1400  175.4750  144.1010 C   0  0  0  0  0  0  0  0  0  0  0  0
  196.9910  176.9610  143.3510 O   0  0  0  0  0  1  0  0  0  0  0  0
  190.9580  174.6460  143.2910 N   0  0  0  0  0  0  0  0  0  0  0  0
  188.6750  175.1030  142.4490 C   0  0  0  0  0  3  0  0  0  0  0  0
  190.2020  176.9470  142.7930 C   0  0  0  0  0  3  0  0  0  0  0  0
  189.2180  177.8400  142.3590 C   0  0  0  0  0  3  0  0  0  0  0  0
  187.9640  177.3630  141.9700 C   0  0  0  0  0  3  0  0  0  0  0  0
  187.6920  175.9950  142.0150 C   0  0  0  0  0  3  0  0  0  0  0  0
  189.9430  175.5680  142.8410 C   0  0  0  0  0  0  0  0  0  0  0  0
  191.4390  173.4070  141.3700 O   0  0  0  0  0  1  0  0  0  0  0  0
  191.0720  173.3110  142.7140 C   0  0  0  0  0  2  0  0  0  0  0  0
  190.1230  174.3560  145.9550 O   0  0  0  0  0  0  0  0  0  0  0  0
  189.2010  175.0170  146.8120 C   0  0  0  0  0  2  0  0  0  0  0  0
  188.7740  176.3420  146.2030 C   0  0  0  0  0  2  0  0  0  0  0  0
  187.8540  177.0060  147.0620 O   0  0  0  0  0  0  0  0  0  0  0  0
  184.3530  178.2540  146.8690 C   0  0  0  0  0  3  0  0  0  0  0  0
  186.7070  178.2690  145.3570 C   0  0  0  0  0  3  0  0  0  0  0  0
  184.3810  178.8890  145.6240 C   0  0  0  0  0  3  0  0  0  0  0  0
  186.6870  177.6280  146.6010 C   0  0  0  0  0  0  0  0  0  0  0  0
  185.5020  177.6250  147.3560 C   0  0  0  0  0  3  0  0  0  0  0  0
  185.5790  179.5570  143.5370 C   0  0  0  0  0  1  0  0  0  0  0  0
  185.5570  178.8960  144.8680 C   0  0  0  0  0  0  0  0  0  0  0  0
  1  7  1  0  0  0  0
  2  3  1  0  0  0  0
  3  1  2  0  0  0  0
  4  9  2  0  0  0  0
  6 10  2  0  0  0  0
  7  5  2  0  0  0  0
  8  6  1  0  0  0  0
  8  2  2  0  0  0  0
  9 21  1  0  0  0  0
  9  5  1  0  0  0  0
 10  4  1  0  0  0  0
 10  1  1  0  0  0  0
 11  2  1  0  0  0  0
 12  4  1  0  0  0  0
 13 18  1  0  0  0  0
 14 18  2  0  0  0  0
 15 14  1  0  0  0  0
 16 17  1  0  0  0  0
 16 15  2  0  0  0  0
 17 13  2  0  0  0  0
 18 12  1  0  0  0  0
 19 20  1  0  0  0  0
 20 12  1  0  0  0  0
 21 22  1  0  0  0  0
 23 22  1  0  0  0  0
 23 24  1  0  0  0  0
 25 29  1  0  0  0  0
 26 28  1  0  0  0  0
 27 25  2  0  0  0  0
 28 24  1  0  0  0  0
 28 29  2  0  0  0  0
 30 31  1  0  0  0  0
 31 26  2  0  0  0  0
 31 27  1  0  0  0  0
M  END
>  <MODEL>
2

>  <REMARK>
 VINA RESULT:      -6.6      2.049      6.197
  Name = 
  8 active torsions:
  status: ('A' for Active; 'I' for Inactive)
    1  A    between atoms: C_10  and  N_28
    2  A    between atoms: C_16  and  O_23
    3  A    between atoms: C_18  and  C_22
    4  A    between atoms: C_18  and  O_23
    5  A    between atoms: C_19  and  O_29
    6  A    between atoms: C_22  and  O_29
    7  A    between atoms: C_24  and  N_28
    8  A    between atoms: N_28  and  C_30
                            x       y       z     vdW  Elec       q    Type
                         _______ _______ _______ _____ _____    ______ ____

>  <TORSDO>
F 8

$$$$
=
 OpenBabel11042414033D

 31 34  0  0  0  0  0  0  0  0999 V2000
  194.4960  176.2020  144.7710 C   0  0  0  0  0  0  0  0  0  0  0  0
  195.8680  175.9940  142.7870 C   0  0  0  0  0  0  0  0  0  0  0  0
  195.7570  176.1140  144.1740 C   0  0  0  0  0  3  0  0  0  0  0  0
  192.0620  176.2670  144.5820 C   0  0  0  0  0  0  0  0  0  0  0  0
  193.1360  176.4290  146.7550 C   0  0  0  0  0  3  0  0  0  0  0  0
  193.4550  176.0460  142.5810 C   0  0  0  0  0  3  0  0  0  0  0  0
  194.3920  176.3290  146.1560 C   0  0  0  0  0  3  0  0  0  0  0  0
  194.7190  175.9590  141.9920 C   0  0  0  0  0  3  0  0  0  0  0  0
  191.9670  176.4030  145.9790 C   0  0  0  0  0  0  0  0  0  0  0  0
  193.3290  176.1690  143.9730 C   0  0  0  0  0  0  0  0  0  0  0  0
  197.1220  175.9130  142.1980 O   0  0  0  0  0  1  0  0  0  0  0  0
  190.8670  176.2300  143.7870 N   0  0  0  0  0  0  0  0  0  0  0  0
  189.1280  174.9400  142.5850 C   0  0  0  0  0  3  0  0  0  0  0  0
  190.6570  173.7820  144.0590 C   0  0  0  0  0  3  0  0  0  0  0  0
  190.0260  172.5710  143.7580 C   0  0  0  0  0  3  0  0  0  0  0  0
  188.9460  172.5470  142.8720 C   0  0  0  0  0  3  0  0  0  0  0  0
  188.4970  173.7310  142.2850 C   0  0  0  0  0  3  0  0  0  0  0  0
  190.2140  174.9810  143.4780 C   0  0  0  0  0  0  0  0  0  0  0  0
  190.7280  178.5430  144.0910 O   0  0  0  0  0  1  0  0  0  0  0  0
  190.3750  177.4920  143.2420 C   0  0  0  0  0  2  0  0  0  0  0  0
  190.7020  176.5100  146.5740 O   0  0  0  0  0  0  0  0  0  0  0  0
  190.0740  175.4410  147.2720 C   0  0  0  0  0  2  0  0  0  0  0  0
  188.5930  175.3930  146.9350 C   0  0  0  0  0  2  0  0  0  0  0  0
  188.2750  176.3850  145.9650 O   0  0  0  0  0  0  0  0  0  0  0  0
  184.9590  177.7170  147.0040 C   0  0  0  0  0  3  0  0  0  0  0  0
  186.9040  178.1380  145.0370 C   0  0  0  0  0  3  0  0  0  0  0  0
  184.7680  178.7030  146.0320 C   0  0  0  0  0  3  0  0  0  0  0  0
  187.1010  177.1470  146.0050 C   0  0  0  0  0  0  0  0  0  0  0  0
  186.1210  176.9410  146.9900 C   0  0  0  0  0  3  0  0  0  0  0  0
  185.5270  179.9510  144.0050 C   0  0  0  0  0  1  0  0  0  0  0  0
  185.7390  178.9130  145.0490 C   0  0  0  0  0  0  0  0  0  0  0  0
  1  7  1  0  0  0  0
  2  3  1  0  0  0  0
  3  1  2  0  0  0  0
  4  9  2  0  0  0  0
  6 10  2  0  0  0  0
  7  5  2  0  0  0  0
  8  6  1  0  0  0  0
  8  2  2  0  0  0  0
  9 21  1  0  0  0  0
  9  5  1  0  0  0  0
 10  4  1  0  0  0  0
 10  1  1  0  0  0  0
 11  2  1  0  0  0  0
 12  4  1  0  0  0  0
 13 18  1  0  0  0  0
 15 14  1  0  0  0  0
 16 15  2  0  0  0  0
 17 13  2  0  0  0  0
 17 16  1  0  0  0  0
 18 12  1  0  0  0  0
 18 14  2  0  0  0  0
 20 12  1  0  0  0  0
 20 19  1  0  0  0  0
 21 22  1  0  0  0  0
 23 22  1  0  0  0  0
 24 28  1  0  0  0  0
 24 23  1  0  0  0  0
 26 31  2  0  0  0  0
 26 28  1  0  0  0  0
 27 25  2  0  0  0  0
 28 29  2  0  0  0  0
 29 25  1  0  0  0  0
 30 31  1  0  0  0  0
 31 27  1  0  0  0  0
M  END
>  <MODEL>
3

>  <REMARK>
 VINA RESULT:      -6.5      2.028      6.165
  Name = 
  8 active torsions:
  status: ('A' for Active; 'I' for Inactive)
    1  A    between atoms: C_10  and  N_28
    2  A    between atoms: C_16  and  O_23
    3  A    between atoms: C_18  and  C_22
    4  A    between atoms: C_18  and  O_23
    5  A    between atoms: C_19  and  O_29
    6  A    between atoms: C_22  and  O_29
    7  A    between atoms: C_24  and  N_28
    8  A    between atoms: N_28  and  C_30
                            x       y       z     vdW  Elec       q    Type
                         _______ _______ _______ _____ _____    ______ ____

>  <TORSDO>
F 8

$$$$
=
 OpenBabel11042414033D

 31 34  0  0  0  0  0  0  0  0999 V2000
  186.5510  177.7580  143.9940 C   0  0  0  0  0  0  0  0  0  0  0  0
  185.9250  178.1020  141.6810 C   0  0  0  0  0  0  0  0  0  0  0  0
  185.5830  178.0650  143.0350 C   0  0  0  0  0  3  0  0  0  0  0  0
  188.8490  177.1680  144.5730 C   0  0  0  0  0  0  0  0  0  0  0  0
  187.1610  177.3980  146.3040 C   0  0  0  0  0  3  0  0  0  0  0  0
  188.2120  177.5270  142.2370 C   0  0  0  0  0  3  0  0  0  0  0  0
  186.2010  177.7160  145.3440 C   0  0  0  0  0  3  0  0  0  0  0  0
  187.2380  177.8350  141.2830 C   0  0  0  0  0  3  0  0  0  0  0  0
  188.4850  177.1190  145.9310 C   0  0  0  0  0  0  0  0  0  0  0  0
  187.8810  177.4850  143.5990 C   0  0  0  0  0  0  0  0  0  0  0  0
  184.9600  178.4010  140.7300 O   0  0  0  0  0  1  0  0  0  0  0  0
  190.2050  176.8920  144.1890 N   0  0  0  0  0  0  0  0  0  0  0  0
  189.8150  174.4570  143.9650 C   0  0  0  0  0  3  0  0  0  0  0  0
  191.7350  175.4540  142.8820 C   0  0  0  0  0  3  0  0  0  0  0  0
  192.1040  174.2010  142.3870 C   0  0  0  0  0  3  0  0  0  0  0  0
  191.3290  173.0760  142.6820 C   0  0  0  0  0  3  0  0  0  0  0  0
  190.1850  173.2040  143.4710 C   0  0  0  0  0  3  0  0  0  0  0  0
  190.5880  175.5970  143.6790 C   0  0  0  0  0  0  0  0  0  0  0  0
  191.1890  178.8210  143.3110 O   0  0  0  0  0  1  0  0  0  0  0  0
  191.1970  177.9420  144.3970 C   0  0  0  0  0  2  0  0  0  0  0  0
  189.4530  176.7930  146.8910 O   0  0  0  0  0  0  0  0  0  0  0  0
  189.6550  175.4730  147.3810 C   0  0  0  0  0  2  0  0  0  0  0  0
  191.0490  175.3410  147.9730 C   0  0  0  0  0  2  0  0  0  0  0  0
  191.9870  176.0760  147.1950 O   0  0  0  0  0  0  0  0  0  0  0  0
  195.2120  175.5750  145.4060 C   0  0  0  0  0  3  0  0  0  0  0  0
  192.9580  174.1120  146.1860 C   0  0  0  0  0  3  0  0  0  0  0  0
  195.1200  174.2150  145.0970 C   0  0  0  0  0  3  0  0  0  0  0  0
  193.0410  175.4740  146.4960 C   0  0  0  0  0  0  0  0  0  0  0  0
  194.1760  176.2030  146.1030 C   0  0  0  0  0  3  0  0  0  0  0  0
  193.8890  172.0420  145.1410 C   0  0  0  0  0  1  0  0  0  0  0  0
  193.9930  173.4840  145.4860 C   0  0  0  0  0  0  0  0  0  0  0  0
  1  7  1  0  0  0  0
  2  3  1  0  0  0  0
  3  1  2  0  0  0  0
  4  9  2  0  0  0  0
  6 10  2  0  0  0  0
  7  5  2  0  0  0  0
  8  2  2  0  0  0  0
  8  6  1  0  0  0  0
  9  5  1  0  0  0  0
  9 21  1  0  0  0  0
 10  1  1  0  0  0  0
 10  4  1  0  0  0  0
 11  2  1  0  0  0  0
 12 20  1  0  0  0  0
 12  4  1  0  0  0  0
 14 18  2  0  0  0  0
 15 16  2  0  0  0  0
 15 14  1  0  0  0  0
 16 17  1  0  0  0  0
 17 13  2  0  0  0  0
 18 13  1  0  0  0  0
 18 12  1  0  0  0  0
 19 20  1  0  0  0  0
 21 22  1  0  0  0  0
 22 23  1  0  0  0  0
 24 23  1  0  0  0  0
 25 29  1  0  0  0  0
 26 28  1  0  0  0  0
 27 25  2  0  0  0  0
 27 31  1  0  0  0  0
 28 24  1  0  0  0  0
 29 28  2  0  0  0  0
 30 31  1  0  0  0  0
 31 26  2  0  0  0  0
M  END
>  <MODEL>
4

>  <REMARK>
 VINA RESULT:      -6.4      1.897      4.333
  Name = 
  8 active torsions:
  status: ('A' for Active; 'I' for Inactive)
    1  A    between atoms: C_10  and  N_28
    2  A    between atoms: C_16  and  O_23
    3  A    between atoms: C_18  and  C_22
    4  A    between atoms: C_18  and  O_23
    5  A    between atoms: C_19  and  O_29
    6  A    between atoms: C_22  and  O_29
    7  A    between atoms: C_24  and  N_28
    8  A    between atoms: N_28  and  C_30
                            x       y       z     vdW  Elec       q    Type
                         _______ _______ _______ _____ _____    ______ ____

>  <TORSDO>
F 8

$$$$
=
 OpenBabel11042414033D

 31 34  0  0  0  0  0  0  0  0999 V2000
  190.7210  175.1180  146.5920 C   0  0  0  0  0  0  0  0  0  0  0  0
  191.5080  176.8500  148.0890 C   0  0  0  0  0  0  0  0  0  0  0  0
  190.4840  176.0140  147.6380 C   0  0  0  0  0  3  0  0  0  0  0  0
  192.2240  174.1520  144.9280 C   0  0  0  0  0  0  0  0  0  0  0  0
  189.9200  173.4030  145.0910 C   0  0  0  0  0  3  0  0  0  0  0  0
  193.0170  175.8960  146.4510 C   0  0  0  0  0  3  0  0  0  0  0  0
  189.6920  174.2910  146.1420 C   0  0  0  0  0  3  0  0  0  0  0  0
  192.7730  176.7910  147.4970 C   0  0  0  0  0  3  0  0  0  0  0  0
  191.1790  173.3280  144.4750 C   0  0  0  0  0  0  0  0  0  0  0  0
  191.9970  175.0530  145.9870 C   0  0  0  0  0  0  0  0  0  0  0  0
  191.2680  177.7430  149.1230 O   0  0  0  0  0  1  0  0  0  0  0  0
  193.5160  174.0710  144.3060 N   0  0  0  0  0  0  0  0  0  0  0  0
  194.4210  171.9400  145.1850 C   0  0  0  0  0  3  0  0  0  0  0  0
  195.8130  173.9180  145.2090 C   0  0  0  0  0  3  0  0  0  0  0  0
  196.8500  173.1790  145.7860 C   0  0  0  0  0  3  0  0  0  0  0  0
  196.6700  171.8220  146.0630 C   0  0  0  0  0  3  0  0  0  0  0  0
  195.4570  171.2020  145.7630 C   0  0  0  0  0  3  0  0  0  0  0  0
  194.5860  173.3080  144.9040 C   0  0  0  0  0  0  0  0  0  0  0  0
  194.1610  173.9940  142.0610 O   0  0  0  0  0  1  0  0  0  0  0  0
  193.7330  174.8420  143.0860 C   0  0  0  0  0  2  0  0  0  0  0  0
  191.4120  172.4420  143.4140 O   0  0  0  0  0  0  0  0  0  0  0  0
  190.6000  172.3870  142.2470 C   0  0  0  0  0  2  0  0  0  0  0  0
  190.7100  173.6880  141.4690 C   0  0  0  0  0  2  0  0  0  0  0  0
  189.4780  174.4000  141.5220 O   0  0  0  0  0  0  0  0  0  0  0  0
  187.7500  176.6760  143.9060 C   0  0  0  0  0  3  0  0  0  0  0  0
  190.2770  176.3080  142.7620 C   0  0  0  0  0  3  0  0  0  0  0  0
  188.7980  177.5410  144.2320 C   0  0  0  0  0  3  0  0  0  0  0  0
  189.2320  175.4390  142.4270 C   0  0  0  0  0  0  0  0  0  0  0  0
  187.9650  175.6290  143.0060 C   0  0  0  0  0  3  0  0  0  0  0  0
  191.1690  178.2890  143.9960 C   0  0  0  0  0  1  0  0  0  0  0  0
  190.0600  177.3580  143.6600 C   0  0  0  0  0  0  0  0  0  0  0  0
  1  3  2  0  0  0  0
  2 11  1  0  0  0  0
  3  2  1  0  0  0  0
  4 10  1  0  0  0  0
  5  7  2  0  0  0  0
  6  8  1  0  0  0  0
  7  1  1  0  0  0  0
  8  2  2  0  0  0  0
  9  4  2  0  0  0  0
  9  5  1  0  0  0  0
 10  6  2  0  0  0  0
 10  1  1  0  0  0  0
 12 18  1  0  0  0  0
 12  4  1  0  0  0  0
 13 17  1  0  0  0  0
 14 15  2  0  0  0  0
 15 16  1  0  0  0  0
 17 16  2  0  0  0  0
 18 13  2  0  0  0  0
 18 14  1  0  0  0  0
 19 20  1  0  0  0  0
 20 12  1  0  0  0  0
 21  9  1  0  0  0  0
 22 21  1  0  0  0  0
 23 24  1  0  0  0  0
 23 22  1  0  0  0  0
 24 28  1  0  0  0  0
 25 27  1  0  0  0  0
 26 31  1  0  0  0  0
 28 26  2  0  0  0  0
 28 29  1  0  0  0  0
 29 25  2  0  0  0  0
 31 30  1  0  0  0  0
 31 27  2  0  0  0  0
M  END
>  <MODEL>
5

>  <REMARK>
 VINA RESULT:      -6.3      2.342      7.131
  Name = 
  8 active torsions:
  status: ('A' for Active; 'I' for Inactive)
    1  A    between atoms: C_10  and  N_28
    2  A    between atoms: C_16  and  O_23
    3  A    between atoms: C_18  and  C_22
    4  A    between atoms: C_18  and  O_23
    5  A    between atoms: C_19  and  O_29
    6  A    between atoms: C_22  and  O_29
    7  A    between atoms: C_24  and  N_28
    8  A    between atoms: N_28  and  C_30
                            x       y       z     vdW  Elec       q    Type
                         _______ _______ _______ _____ _____    ______ ____

>  <TORSDO>
F 8

$$$$
=
 OpenBabel11042414033D

 31 34  0  0  0  0  0  0  0  0999 V2000
  190.3040  172.5290  142.9090 C   0  0  0  0  0  0  0  0  0  0  0  0
  190.2950  171.7270  140.6250 C   0  0  0  0  0  0  0  0  0  0  0  0
  190.4220  171.4800  141.9940 C   0  0  0  0  0  3  0  0  0  0  0  0
  189.9450  174.8980  143.3830 C   0  0  0  0  0  0  0  0  0  0  0  0
  190.3330  173.3230  145.1910 C   0  0  0  0  0  3  0  0  0  0  0  0
  189.9280  174.0790  141.0760 C   0  0  0  0  0  3  0  0  0  0  0  0
  190.4390  172.2770  144.2740 C   0  0  0  0  0  3  0  0  0  0  0  0
  190.0470  173.0250  140.1670 C   0  0  0  0  0  3  0  0  0  0  0  0
  190.0910  174.6360  144.7570 C   0  0  0  0  0  0  0  0  0  0  0  0
  190.0550  173.8450  142.4530 C   0  0  0  0  0  0  0  0  0  0  0  0
  190.4190  170.6840  139.7180 O   0  0  0  0  0  1  0  0  0  0  0  0
  189.6880  176.2390  142.9370 N   0  0  0  0  0  0  0  0  0  0  0  0
  187.2270  176.0510  143.1340 C   0  0  0  0  0  3  0  0  0  0  0  0
  188.1740  177.6850  141.6210 C   0  0  0  0  0  3  0  0  0  0  0  0
  186.8870  178.0920  141.2590 C   0  0  0  0  0  3  0  0  0  0  0  0
  185.7710  177.4780  141.8340 C   0  0  0  0  0  3  0  0  0  0  0  0
  185.9410  176.4580  142.7720 C   0  0  0  0  0  3  0  0  0  0  0  0
  188.3590  176.6580  142.5610 C   0  0  0  0  0  0  0  0  0  0  0  0
  190.7330  178.1580  143.7650 O   0  0  0  0  0  1  0  0  0  0  0  0
  190.8270  177.1430  142.8090 C   0  0  0  0  0  2  0  0  0  0  0  0
  189.9900  175.6920  145.6730 O   0  0  0  0  0  0  0  0  0  0  0  0
  189.5260  175.5290  147.0070 C   0  0  0  0  0  2  0  0  0  0  0  0
  188.0250  175.7580  147.0730 C   0  0  0  0  0  2  0  0  0  0  0  0
  187.7420  177.1500  147.1730 O   0  0  0  0  0  0  0  0  0  0  0  0
  184.1520  178.0050  146.6950 C   0  0  0  0  0  3  0  0  0  0  0  0
  186.6580  178.6550  145.6320 C   0  0  0  0  0  3  0  0  0  0  0  0
  184.2500  178.9250  145.6470 C   0  0  0  0  0  3  0  0  0  0  0  0
  186.5680  177.7310  146.6790 C   0  0  0  0  0  0  0  0  0  0  0  0
  185.3070  177.4090  147.2090 C   0  0  0  0  0  3  0  0  0  0  0  0
  185.6020  180.2160  143.9900 C   0  0  0  0  0  1  0  0  0  0  0  0
  185.5020  179.2500  145.1160 C   0  0  0  0  0  0  0  0  0  0  0  0
  1  7  1  0  0  0  0
  2  3  1  0  0  0  0
  3  1  2  0  0  0  0
  4  9  2  0  0  0  0
  6 10  2  0  0  0  0
  7  5  2  0  0  0  0
  8  2  2  0  0  0  0
  8  6  1  0  0  0  0
  9  5  1  0  0  0  0
  9 21  1  0  0  0  0
 10  1  1  0  0  0  0
 10  4  1  0  0  0  0
 11  2  1  0  0  0  0
 12  4  1  0  0  0  0
 14 18  1  0  0  0  0
 15 14  2  0  0  0  0
 15 16  1  0  0  0  0
 16 17  2  0  0  0  0
 17 13  1  0  0  0  0
 18 12  1  0  0  0  0
 18 13  2  0  0  0  0
 20 12  1  0  0  0  0
 20 19  1  0  0  0  0
 21 22  1  0  0  0  0
 22 23  1  0  0  0  0
 23 24  1  0  0  0  0
 25 29  1  0  0  0  0
 26 28  1  0  0  0  0
 27 25  2  0  0  0  0
 28 24  1  0  0  0  0
 28 29  2  0  0  0  0
 30 31  1  0  0  0  0
 31 26  2  0  0  0  0
 31 27  1  0  0  0  0
M  END
>  <MODEL>
6

>  <REMARK>
 VINA RESULT:      -6.3      2.059      4.976
  Name = 
  8 active torsions:
  status: ('A' for Active; 'I' for Inactive)
    1  A    between atoms: C_10  and  N_28
    2  A    between atoms: C_16  and  O_23
    3  A    between atoms: C_18  and  C_22
    4  A    between atoms: C_18  and  O_23
    5  A    between atoms: C_19  and  O_29
    6  A    between atoms: C_22  and  O_29
    7  A    between atoms: C_24  and  N_28
    8  A    between atoms: N_28  and  C_30
                            x       y       z     vdW  Elec       q    Type
                         _______ _______ _______ _____ _____    ______ ____

>  <TORSDO>
F 8

$$$$
=
 OpenBabel11042414033D

 31 34  0  0  0  0  0  0  0  0999 V2000
  185.8440  177.9850  144.7060 C   0  0  0  0  0  0  0  0  0  0  0  0
  184.4520  178.0700  142.7280 C   0  0  0  0  0  0  0  0  0  0  0  0
  184.6010  178.2120  144.1090 C   0  0  0  0  0  3  0  0  0  0  0  0
  188.2020  177.3760  144.5270 C   0  0  0  0  0  0  0  0  0  0  0  0
  187.2200  177.8840  146.6890 C   0  0  0  0  0  3  0  0  0  0  0  0
  186.7910  177.4750  142.5280 C   0  0  0  0  0  3  0  0  0  0  0  0
  185.9840  178.1210  146.0870 C   0  0  0  0  0  3  0  0  0  0  0  0
  185.5460  177.7030  141.9380 C   0  0  0  0  0  3  0  0  0  0  0  0
  188.3320  177.5080  145.9200 C   0  0  0  0  0  0  0  0  0  0  0  0
  186.9550  177.6110  143.9140 C   0  0  0  0  0  0  0  0  0  0  0  0
  183.2150  178.2910  142.1380 O   0  0  0  0  0  1  0  0  0  0  0  0
  189.3410  177.0000  143.7360 N   0  0  0  0  0  0  0  0  0  0  0  0
  189.4790  174.5940  144.3020 C   0  0  0  0  0  3  0  0  0  0  0  0
  189.8570  175.2980  142.0190 C   0  0  0  0  0  3  0  0  0  0  0  0
  190.0690  173.9680  141.6460 C   0  0  0  0  0  3  0  0  0  0  0  0
  189.9870  172.9520  142.6020 C   0  0  0  0  0  3  0  0  0  0  0  0
  189.6920  173.2640  143.9290 C   0  0  0  0  0  3  0  0  0  0  0  0
  189.5630  175.6270  143.3510 C   0  0  0  0  0  0  0  0  0  0  0  0
  191.5490  177.7350  143.9510 O   0  0  0  0  0  1  0  0  0  0  0  0
  190.3050  178.0430  143.3960 C   0  0  0  0  0  2  0  0  0  0  0  0
  189.5760  177.2620  146.5210 O   0  0  0  0  0  0  0  0  0  0  0  0
  189.8450  176.1160  147.3200 C   0  0  0  0  0  2  0  0  0  0  0  0
  191.1910  176.2620  148.0100 C   0  0  0  0  0  2  0  0  0  0  0  0
  192.1060  175.2890  147.5170 O   0  0  0  0  0  0  0  0  0  0  0  0
  194.8090  176.7480  145.4170 C   0  0  0  0  0  3  0  0  0  0  0  0
  192.8620  174.7420  145.2940 C   0  0  0  0  0  3  0  0  0  0  0  0
  194.6870  175.9610  144.2680 C   0  0  0  0  0  3  0  0  0  0  0  0
  192.9750  175.5280  146.4470 C   0  0  0  0  0  0  0  0  0  0  0  0
  193.9560  176.5330  146.5020 C   0  0  0  0  0  3  0  0  0  0  0  0
  193.5750  174.1340  142.9770 C   0  0  0  0  0  1  0  0  0  0  0  0
  193.7140  174.9590  144.2060 C   0  0  0  0  0  0  0  0  0  0  0  0
  1  7  1  0  0  0  0
  2  3  1  0  0  0  0
  3  1  2  0  0  0  0
  4  9  2  0  0  0  0
  6 10  2  0  0  0  0
  7  5  2  0  0  0  0
  8  6  1  0  0  0  0
  8  2  2  0  0  0  0
  9 21  1  0  0  0  0
  9  5  1  0  0  0  0
 10  4  1  0  0  0  0
 10  1  1  0  0  0  0
 11  2  1  0  0  0  0
 12  4  1  0  0  0  0
 14 18  1  0  0  0  0
 15 14  2  0  0  0  0
 15 16  1  0  0  0  0
 16 17  2  0  0  0  0
 17 13  1  0  0  0  0
 18 12  1  0  0  0  0
 18 13  2  0  0  0  0
 20 12  1  0  0  0  0
 20 19  1  0  0  0  0
 21 22  1  0  0  0  0
 22 23  1  0  0  0  0
 24 23  1  0  0  0  0
 25 29  1  0  0  0  0
 26 28  1  0  0  0  0
 27 25  2  0  0  0  0
 28 29  2  0  0  0  0
 28 24  1  0  0  0  0
 30 31  1  0  0  0  0
 31 27  1  0  0  0  0
 31 26  2  0  0  0  0
M  END
>  <MODEL>
7

>  <REMARK>
 VINA RESULT:      -6.2      1.921      4.368
  Name = 
  8 active torsions:
  status: ('A' for Active; 'I' for Inactive)
    1  A    between atoms: C_10  and  N_28
    2  A    between atoms: C_16  and  O_23
    3  A    between atoms: C_18  and  C_22
    4  A    between atoms: C_18  and  O_23
    5  A    between atoms: C_19  and  O_29
    6  A    between atoms: C_22  and  O_29
    7  A    between atoms: C_24  and  N_28
    8  A    between atoms: N_28  and  C_30
                            x       y       z     vdW  Elec       q    Type
                         _______ _______ _______ _____ _____    ______ ____

>  <TORSDO>
F 8

$$$$
=
 OpenBabel11042414033D

 31 34  0  0  0  0  0  0  0  0999 V2000
  190.6100  173.9540  143.1160 C   0  0  0  0  0  0  0  0  0  0  0  0
  191.0270  173.7680  140.7390 C   0  0  0  0  0  0  0  0  0  0  0  0
  190.1550  173.6720  141.8260 C   0  0  0  0  0  3  0  0  0  0  0  0
  192.4080  174.6120  144.6330 C   0  0  0  0  0  0  0  0  0  0  0  0
  190.1900  174.1180  145.4890 C   0  0  0  0  0  3  0  0  0  0  0  0
  192.8190  174.4330  142.2260 C   0  0  0  0  0  3  0  0  0  0  0  0
  189.7370  173.8490  144.1980 C   0  0  0  0  0  3  0  0  0  0  0  0
  192.3570  174.1490  140.9380 C   0  0  0  0  0  3  0  0  0  0  0  0
  191.5220  174.4960  145.7180 C   0  0  0  0  0  0  0  0  0  0  0  0
  191.9550  174.3380  143.3260 C   0  0  0  0  0  0  0  0  0  0  0  0
  190.5720  173.4810  139.4590 O   0  0  0  0  0  1  0  0  0  0  0  0
  193.7690  175.0080  144.8630 N   0  0  0  0  0  0  0  0  0  0  0  0
  194.5400  172.6670  145.0960 C   0  0  0  0  0  3  0  0  0  0  0  0
  195.9960  174.4690  145.7940 C   0  0  0  0  0  3  0  0  0  0  0  0
  196.9660  173.5370  146.1710 C   0  0  0  0  0  3  0  0  0  0  0  0
  196.7220  172.1700  146.0110 C   0  0  0  0  0  3  0  0  0  0  0  0
  195.5100  171.7350  145.4740 C   0  0  0  0  0  3  0  0  0  0  0  0
  194.7700  174.0460  145.2550 C   0  0  0  0  0  0  0  0  0  0  0  0
  192.9140  177.1710  144.6380 O   0  0  0  0  0  1  0  0  0  0  0  0
  194.0910  176.4280  144.7560 C   0  0  0  0  0  2  0  0  0  0  0  0
  191.9850  174.7620  147.0150 O   0  0  0  0  0  0  0  0  0  0  0  0
  191.2140  175.4440  147.9960 C   0  0  0  0  0  2  0  0  0  0  0  0
  191.3230  176.9470  147.7990 C   0  0  0  0  0  2  0  0  0  0  0  0
  190.0290  177.5190  147.6410 O   0  0  0  0  0  0  0  0  0  0  0  0
  187.1810  176.7430  145.3740 C   0  0  0  0  0  3  0  0  0  0  0  0
  189.8210  177.6620  145.2430 C   0  0  0  0  0  3  0  0  0  0  0  0
  187.7550  177.0480  144.1360 C   0  0  0  0  0  3  0  0  0  0  0  0
  189.2550  177.3560  146.4860 C   0  0  0  0  0  0  0  0  0  0  0  0
  187.9290  176.8960  146.5450 C   0  0  0  0  0  3  0  0  0  0  0  0
  189.6880  177.8140  142.7520 C   0  0  0  0  0  1  0  0  0  0  0  0
  189.0740  177.5070  144.0710 C   0  0  0  0  0  0  0  0  0  0  0  0
  1 10  1  0  0  0  0
  1  7  1  0  0  0  0
  2  8  2  0  0  0  0
  2  3  1  0  0  0  0
  3  1  2  0  0  0  0
  4 12  1  0  0  0  0
  4  9  2  0  0  0  0
  5  9  1  0  0  0  0
  6 10  2  0  0  0  0
  7  5  2  0  0  0  0
  8  6  1  0  0  0  0
  9 21  1  0  0  0  0
 10  4  1  0  0  0  0
 11  2  1  0  0  0  0
 12 18  1  0  0  0  0
 13 18  2  0  0  0  0
 13 17  1  0  0  0  0
 14 15  2  0  0  0  0
 16 15  1  0  0  0  0
 17 16  2  0  0  0  0
 18 14  1  0  0  0  0
 19 20  1  0  0  0  0
 20 12  1  0  0  0  0
 21 22  1  0  0  0  0
 23 22  1  0  0  0  0
 24 23  1  0  0  0  0
 25 29  1  0  0  0  0
 26 28  1  0  0  0  0
 27 25  2  0  0  0  0
 28 29  2  0  0  0  0
 28 24  1  0  0  0  0
 30 31  1  0  0  0  0
 31 27  1  0  0  0  0
 31 26  2  0  0  0  0
M  END
>  <MODEL>
8

>  <REMARK>
 VINA RESULT:      -6.2      1.981      5.967
  Name = 
  8 active torsions:
  status: ('A' for Active; 'I' for Inactive)
    1  A    between atoms: C_10  and  N_28
    2  A    between atoms: C_16  and  O_23
    3  A    between atoms: C_18  and  C_22
    4  A    between atoms: C_18  and  O_23
    5  A    between atoms: C_19  and  O_29
    6  A    between atoms: C_22  and  O_29
    7  A    between atoms: C_24  and  N_28
    8  A    between atoms: N_28  and  C_30
                            x       y       z     vdW  Elec       q    Type
                         _______ _______ _______ _____ _____    ______ ____

>  <TORSDO>
F 8

$$$$
=
 OpenBabel11042414033D

 31 34  0  0  0  0  0  0  0  0999 V2000
  185.6080  177.5630  145.4900 C   0  0  0  0  0  0  0  0  0  0  0  0
  184.0770  178.6620  143.9720 C   0  0  0  0  0  0  0  0  0  0  0  0
  184.4490  178.3130  145.2710 C   0  0  0  0  0  3  0  0  0  0  0  0
  187.5700  176.3920  144.6260 C   0  0  0  0  0  0  0  0  0  0  0  0
  187.1200  176.4530  147.0120 C   0  0  0  0  0  3  0  0  0  0  0  0
  186.0230  177.5140  143.0970 C   0  0  0  0  0  3  0  0  0  0  0  0
  185.9710  177.2110  146.7900 C   0  0  0  0  0  3  0  0  0  0  0  0
  184.8620  178.2640  142.8860 C   0  0  0  0  0  3  0  0  0  0  0  0
  187.9230  176.0350  145.9400 C   0  0  0  0  0  0  0  0  0  0  0  0
  186.4070  177.1550  144.3970 C   0  0  0  0  0  0  0  0  0  0  0  0
  182.9220  179.4010  143.7570 O   0  0  0  0  0  1  0  0  0  0  0  0
  188.3950  175.9740  143.5280 N   0  0  0  0  0  0  0  0  0  0  0  0
  190.7750  175.6130  142.9440 C   0  0  0  0  0  3  0  0  0  0  0  0
  190.0480  177.8090  143.6550 C   0  0  0  0  0  3  0  0  0  0  0  0
  191.3530  178.2860  143.5070 C   0  0  0  0  0  3  0  0  0  0  0  0
  192.3680  177.4260  143.0800 C   0  0  0  0  0  3  0  0  0  0  0  0
  192.0790  176.0900  142.7980 C   0  0  0  0  0  3  0  0  0  0  0  0
  189.7430  176.4660  143.3780 C   0  0  0  0  0  0  0  0  0  0  0  0
  188.1000  175.5580  141.2470 O   0  0  0  0  0  1  0  0  0  0  0  0
  187.8010  175.0910  142.5290 C   0  0  0  0  0  2  0  0  0  0  0  0
  189.0760  175.2670  146.1570 O   0  0  0  0  0  0  0  0  0  0  0  0
  189.4840  174.8140  147.4420 C   0  0  0  0  0  2  0  0  0  0  0  0
  190.6700  175.6280  147.9340 C   0  0  0  0  0  2  0  0  0  0  0  0
  191.3480  176.2260  146.8340 O   0  0  0  0  0  0  0  0  0  0  0  0
  194.9390  176.3010  145.8600 C   0  0  0  0  0  3  0  0  0  0  0  0
  192.8300  174.4770  146.0870 C   0  0  0  0  0  3  0  0  0  0  0  0
  195.1400  174.9560  145.5400 C   0  0  0  0  0  3  0  0  0  0  0  0
  192.6180  175.8230  146.4060 C   0  0  0  0  0  0  0  0  0  0  0  0
  193.6820  176.7340  146.2910 C   0  0  0  0  0  3  0  0  0  0  0  0
  194.2990  172.6170  145.2950 C   0  0  0  0  0  1  0  0  0  0  0  0
  194.0870  174.0440  145.6530 C   0  0  0  0  0  0  0  0  0  0  0  0
  1  7  1  0  0  0  0
  2  3  1  0  0  0  0
  3  1  2  0  0  0  0
  4  9  2  0  0  0  0
  6 10  2  0  0  0  0
  7  5  2  0  0  0  0
  8  6  1  0  0  0  0
  8  2  2  0  0  0  0
  9 21  1  0  0  0  0
  9  5  1  0  0  0  0
 10  4  1  0  0  0  0
 10  1  1  0  0  0  0
 11  2  1  0  0  0  0
 12  4  1  0  0  0  0
 13 18  1  0  0  0  0
 15 14  1  0  0  0  0
 16 15  2  0  0  0  0
 17 13  2  0  0  0  0
 17 16  1  0  0  0  0
 18 12  1  0  0  0  0
 18 14  2  0  0  0  0
 19 20  1  0  0  0  0
 20 12  1  0  0  0  0
 21 22  1  0  0  0  0
 22 23  1  0  0  0  0
 24 23  1  0  0  0  0
 25 29  1  0  0  0  0
 26 28  1  0  0  0  0
 27 31  1  0  0  0  0
 27 25  2  0  0  0  0
 28 24  1  0  0  0  0
 29 28  2  0  0  0  0
 30 31  1  0  0  0  0
 31 26  2  0  0  0  0
M  END
>  <MODEL>
9

>  <REMARK>
 VINA RESULT:      -6.2      2.011      4.695
  Name = 
  8 active torsions:
  status: ('A' for Active; 'I' for Inactive)
    1  A    between atoms: C_10  and  N_28
    2  A    between atoms: C_16  and  O_23
    3  A    between atoms: C_18  and  C_22
    4  A    between atoms: C_18  and  O_23
    5  A    between atoms: C_19  and  O_29
    6  A    between atoms: C_22  and  O_29
    7  A    between atoms: C_24  and  N_28
    8  A    between atoms: N_28  and  C_30
                            x       y       z     vdW  Elec       q    Type
                         _______ _______ _______ _____ _____    ______ ____

>  <TORSDO>
F 8

$$$$
