=
 OpenBabel11042413493D

 25 28  0  0  1  0  0  0  0  0999 V2000
  186.4470  177.8010  143.7630 C   0  0  0  0  0  0  0  0  0  0  0  0
  185.7810  177.7770  142.5180 C   0  0  0  0  0  0  0  0  0  0  0  0
  188.5990  177.4390  142.6730 C   0  0  0  0  0  3  0  0  0  0  0  0
  185.8960  177.9750  145.0490 C   0  0  0  0  0  0  0  0  0  0  0  0
  182.5070  178.4080  140.8790 C   0  0  0  0  0  0  0  0  0  0  0  0
  185.1800  178.2900  147.7340 C   0  0  0  0  0  3  0  0  0  0  0  0
  187.9500  177.4140  141.4340 C   0  0  0  0  0  3  0  0  0  0  0  0
  186.8570  177.9400  146.0570 C   0  0  0  0  0  0  0  0  0  0  0  0
  186.5280  178.0950  147.4020 C   0  0  0  0  0  3  0  0  0  0  0  0
  185.9040  177.5690  140.0100 C   0  0  0  0  0  0  0  0  0  0  0  0
  186.8300  177.2470  138.5520 Cl  0  0  0  0  0  0  0  0  0  0  0  0
  181.2480  178.7040  140.7140 C   0  0  0  0  0  3  0  0  0  0  0  0
  184.2780  177.8930  142.4420 C   0  0  0  0  0  2  0  0  0  0  0  0
  184.1970  178.3290  146.7290 C   0  0  0  0  0  3  0  0  0  0  0  0
  187.8310  177.6350  143.8130 C   0  0  0  0  0  0  0  0  0  0  0  0
  188.3890  177.6980  145.4040 S   0  0  0  0  0  0  0  0  0  0  0  0
  184.6050  177.8340  139.8820 C   0  0  0  0  0  3  0  0  0  0  0  0
  184.5510  178.1710  145.3800 C   0  0  0  0  0  3  0  0  0  0  0  0
  183.7650  178.1130  141.0520 C   0  0  0  0  0  0  0  0  0  0  0  0
  186.5530  177.5780  141.3420 C   0  0  0  0  0  0  0  0  0  0  0  0
  180.4790  179.3920  141.7910 C   0  0  2  0  0  3  0  0  0  0  0  0
  181.2200  179.4140  142.9750 O   0  0  0  0  0  1  0  0  0  0  0  0
  179.1770  178.7020  142.0160 C   0  0  0  0  0  0  0  0  0  0  0  0
  178.0010  179.4390  142.0280 O   0  0  0  0  0  0  0  0  0  0  0  0
  179.1330  177.4530  142.1740 O   0  0  0  0  0  1  0  0  0  0  0  0
  1 15  2  0  0  0  0
  1  4  1  0  0  0  0
  2  1  1  0  0  0  0
  3 15  1  0  0  0  0
  4 18  2  0  0  0  0
  4  8  1  0  0  0  0
  5 19  2  0  0  0  0
  7  3  2  0  0  0  0
  8  9  2  0  0  0  0
  9  6  1  0  0  0  0
 10 20  1  0  0  0  0
 11 10  1  0  0  0  0
 12  5  2  0  0  0  0
 12 21  1  0  0  0  0
 13  2  1  0  0  0  0
 14  6  2  0  0  0  0
 15 16  1  0  0  0  0
 16  8  1  0  0  0  0
 17 10  2  0  0  0  0
 17 19  1  0  0  0  0
 18 14  1  0  0  0  0
 19 13  1  0  0  0  0
 20  7  1  0  0  0  0
 20  2  2  0  0  0  0
 21 23  1  0  0  0  0
 21 22  1  1  0  0  0
 23 24  2  0  0  0  0
 23 25  1  0  0  0  0
M  END
>  <MODEL>
1

>  <REMARK>
 VINA RESULT:      -8.3      0.000      0.000
  Name = 
  2 active torsions:
  status: ('A' for Active; 'I' for Inactive)
    1  A    between atoms: C_2  and  C_21
    2  A    between atoms: C_15  and  C_21
                            x       y       z     vdW  Elec       q    Type
                         _______ _______ _______ _____ _____    ______ ____

>  <TORSDO>
F 2

$$$$
=
 OpenBabel11042413493D

 25 28  0  0  1  0  0  0  0  0999 V2000
  185.9080  177.5040  143.8450 C   0  0  0  0  0  0  0  0  0  0  0  0
  186.7200  176.8460  142.8950 C   0  0  0  0  0  0  0  0  0  0  0  0
  184.5360  178.4710  142.0750 C   0  0  0  0  0  3  0  0  0  0  0  0
  186.0160  177.4870  145.2510 C   0  0  0  0  0  0  0  0  0  0  0  0
  189.4220  174.3250  142.5210 C   0  0  0  0  0  0  0  0  0  0  0  0
  185.9060  177.6940  148.0380 C   0  0  0  0  0  3  0  0  0  0  0  0
  185.3330  177.8250  141.1250 C   0  0  0  0  0  3  0  0  0  0  0  0
  185.0370  178.2590  145.8760 C   0  0  0  0  0  0  0  0  0  0  0  0
  184.9590  178.3790  147.2610 C   0  0  0  0  0  3  0  0  0  0  0  0
  187.2280  176.3300  140.4820 C   0  0  0  0  0  0  0  0  0  0  0  0
  186.9220  176.5900  138.7710 Cl  0  0  0  0  0  0  0  0  0  0  0  0
  190.3410  173.4490  142.8200 C   0  0  0  0  0  3  0  0  0  0  0  0
  187.9160  176.0360  143.3280 C   0  0  0  0  0  2  0  0  0  0  0  0
  186.8990  176.9110  147.4240 C   0  0  0  0  0  3  0  0  0  0  0  0
  184.8410  178.2940  143.4190 C   0  0  0  0  0  0  0  0  0  0  0  0
  184.0280  178.9710  144.7320 S   0  0  0  0  0  0  0  0  0  0  0  0
  188.1880  175.4720  140.8230 C   0  0  0  0  0  3  0  0  0  0  0  0
  186.9580  176.8030  146.0260 C   0  0  0  0  0  3  0  0  0  0  0  0
  188.5030  175.2010  142.2300 C   0  0  0  0  0  0  0  0  0  0  0  0
  186.4200  177.0180  141.5160 C   0  0  0  0  0  0  0  0  0  0  0  0
  190.4000  172.8400  144.1810 C   0  0  2  0  0  3  0  0  0  0  0  0
  189.2770  172.0380  144.4000 O   0  0  0  0  0  1  0  0  0  0  0  0
  190.4770  173.9070  145.2190 C   0  0  0  0  0  0  0  0  0  0  0  0
  189.4050  174.1110  146.0770 O   0  0  0  0  0  1  0  0  0  0  0  0
  191.5150  174.6110  145.3380 O   0  0  0  0  0  0  0  0  0  0  0  0
  1  4  1  0  0  0  0
  2 13  1  0  0  0  0
  2  1  1  0  0  0  0
  3 15  1  0  0  0  0
  4  8  2  0  0  0  0
  4 18  1  0  0  0  0
  5 12  2  0  0  0  0
  7 20  1  0  0  0  0
  7  3  2  0  0  0  0
  8  9  1  0  0  0  0
  9  6  2  0  0  0  0
 10 17  2  0  0  0  0
 10 20  1  0  0  0  0
 11 10  1  0  0  0  0
 12 21  1  0  0  0  0
 14  6  1  0  0  0  0
 15  1  2  0  0  0  0
 15 16  1  0  0  0  0
 16  8  1  0  0  0  0
 17 19  1  0  0  0  0
 18 14  2  0  0  0  0
 19  5  2  0  0  0  0
 19 13  1  0  0  0  0
 20  2  2  0  0  0  0
 21 22  1  1  0  0  0
 21 23  1  0  0  0  0
 23 25  2  0  0  0  0
 23 24  1  0  0  0  0
M  END
>  <MODEL>
2

>  <REMARK>
 VINA RESULT:      -7.8      4.553      6.675
  Name = 
  2 active torsions:
  status: ('A' for Active; 'I' for Inactive)
    1  A    between atoms: C_2  and  C_21
    2  A    between atoms: C_15  and  C_21
                            x       y       z     vdW  Elec       q    Type
                         _______ _______ _______ _____ _____    ______ ____

>  <TORSDO>
F 2

$$$$
=
 OpenBabel11042413493D

 25 28  0  0  1  0  0  0  0  0999 V2000
  188.5540  175.7170  144.1390 C   0  0  0  0  0  0  0  0  0  0  0  0
  187.5840  176.6440  144.5810 C   0  0  0  0  0  0  0  0  0  0  0  0
  189.5250  175.5930  146.3730 C   0  0  0  0  0  3  0  0  0  0  0  0
  188.7330  175.1870  142.8450 C   0  0  0  0  0  0  0  0  0  0  0  0
  184.4760  178.4110  143.5740 C   0  0  0  0  0  0  0  0  0  0  0  0
  189.3950  173.9270  140.4370 C   0  0  0  0  0  3  0  0  0  0  0  0
  188.5690  176.5100  146.8220 C   0  0  0  0  0  3  0  0  0  0  0  0
  189.8000  174.2930  142.7710 C   0  0  0  0  0  0  0  0  0  0  0  0
  190.1510  173.6510  141.5860 C   0  0  0  0  0  3  0  0  0  0  0  0
  186.5910  177.9930  146.4620 C   0  0  0  0  0  0  0  0  0  0  0  0
  186.6440  178.5560  148.1260 Cl  0  0  0  0  0  0  0  0  0  0  0  0
  183.4670  178.8190  142.8550 C   0  0  0  0  0  3  0  0  0  0  0  0
  186.5950  177.2490  143.6150 C   0  0  0  0  0  2  0  0  0  0  0  0
  188.3150  174.8260  140.4930 C   0  0  0  0  0  3  0  0  0  0  0  0
  189.4950  175.2140  145.0370 C   0  0  0  0  0  0  0  0  0  0  0  0
  190.5400  174.1320  144.2740 S   0  0  0  0  0  0  0  0  0  0  0  0
  185.5980  178.4230  145.6870 C   0  0  0  0  0  3  0  0  0  0  0  0
  187.9790  175.4610  141.6990 C   0  0  0  0  0  3  0  0  0  0  0  0
  185.4850  177.9980  144.2870 C   0  0  0  0  0  0  0  0  0  0  0  0
  187.6020  177.0410  145.9450 C   0  0  0  0  0  0  0  0  0  0  0  0
  183.0830  178.1020  141.6050 C   0  0  2  0  0  3  0  0  0  0  0  0
  183.9320  178.4670  140.5570 O   0  0  0  0  0  1  0  0  0  0  0  0
  181.6690  178.4100  141.2480 C   0  0  0  0  0  0  0  0  0  0  0  0
  180.8870  179.1570  142.1170 O   0  0  0  0  0  1  0  0  0  0  0  0
  181.1840  178.0160  140.1530 O   0  0  0  0  0  0  0  0  0  0  0  0
  1  2  2  0  0  0  0
  1 15  1  0  0  0  0
  2 20  1  0  0  0  0
  3  7  1  0  0  0  0
  4  1  1  0  0  0  0
  5 19  2  0  0  0  0
  6 14  2  0  0  0  0
  6  9  1  0  0  0  0
  8  4  1  0  0  0  0
  8 16  1  0  0  0  0
  9  8  2  0  0  0  0
 10 11  1  0  0  0  0
 12  5  2  0  0  0  0
 13 19  1  0  0  0  0
 13  2  1  0  0  0  0
 14 18  1  0  0  0  0
 15  3  2  0  0  0  0
 16 15  1  0  0  0  0
 17 10  2  0  0  0  0
 18  4  2  0  0  0  0
 19 17  1  0  0  0  0
 20 10  1  0  0  0  0
 20  7  2  0  0  0  0
 21 22  1  6  0  0  0
 21 12  1  0  0  0  0
 23 21  1  0  0  0  0
 23 24  1  0  0  0  0
 25 23  2  0  0  0  0
M  END
>  <MODEL>
3

>  <REMARK>
 VINA RESULT:      -7.7      3.093      5.241
  Name = 
  2 active torsions:
  status: ('A' for Active; 'I' for Inactive)
    1  A    between atoms: C_2  and  C_21
    2  A    between atoms: C_15  and  C_21
                            x       y       z     vdW  Elec       q    Type
                         _______ _______ _______ _____ _____    ______ ____

>  <TORSDO>
F 2

$$$$
=
 OpenBabel11042413493D

 25 28  0  0  1  0  0  0  0  0999 V2000
  185.7310  177.8970  143.5190 C   0  0  0  0  0  0  0  0  0  0  0  0
  186.5060  177.7170  144.6850 C   0  0  0  0  0  0  0  0  0  0  0  0
  183.8720  178.7750  144.8310 C   0  0  0  0  0  3  0  0  0  0  0  0
  186.0780  177.6110  142.1830 C   0  0  0  0  0  0  0  0  0  0  0  0
  189.9190  176.8850  145.8940 C   0  0  0  0  0  0  0  0  0  0  0  0
  186.4020  177.1820  139.4380 C   0  0  0  0  0  3  0  0  0  0  0  0
  184.6310  178.6010  145.9930 C   0  0  0  0  0  3  0  0  0  0  0  0
  185.0580  177.9160  141.2830 C   0  0  0  0  0  0  0  0  0  0  0  0
  185.1930  177.7130  139.9110 C   0  0  0  0  0  3  0  0  0  0  0  0
  186.7190  177.9260  147.1870 C   0  0  0  0  0  0  0  0  0  0  0  0
  186.0060  178.2910  148.7510 Cl  0  0  0  0  0  0  0  0  0  0  0  0
  191.1790  176.5500  145.8950 C   0  0  0  0  0  3  0  0  0  0  0  0
  187.8800  177.0960  144.6130 C   0  0  0  0  0  2  0  0  0  0  0  0
  187.4410  176.8690  140.3310 C   0  0  0  0  0  3  0  0  0  0  0  0
  184.4410  178.4200  143.6160 C   0  0  0  0  0  0  0  0  0  0  0  0
  183.7220  178.5380  142.0950 S   0  0  0  0  0  0  0  0  0  0  0  0
  187.9930  177.5410  147.1530 C   0  0  0  0  0  3  0  0  0  0  0  0
  187.2840  177.0830  141.7100 C   0  0  0  0  0  3  0  0  0  0  0  0
  188.6600  177.2190  145.8870 C   0  0  0  0  0  0  0  0  0  0  0  0
  185.9370  178.0750  145.9370 C   0  0  0  0  0  0  0  0  0  0  0  0
  191.9890  176.6290  144.6440 C   0  0  2  0  0  3  0  0  0  0  0  0
  191.8500  177.8890  144.0570 O   0  0  0  0  0  1  0  0  0  0  0  0
  191.5620  175.5690  143.6870 C   0  0  0  0  0  0  0  0  0  0  0  0
  190.7730  175.9040  142.5960 O   0  0  0  0  0  0  0  0  0  0  0  0
  191.9300  174.3740  143.8480 O   0  0  0  0  0  1  0  0  0  0  0  0
  1 15  1  0  0  0  0
  1  2  2  0  0  0  0
  2 20  1  0  0  0  0
  3  7  1  0  0  0  0
  4  1  1  0  0  0  0
  5 12  2  0  0  0  0
  6  9  2  0  0  0  0
  6 14  1  0  0  0  0
  8 16  1  0  0  0  0
  8  4  2  0  0  0  0
  9  8  1  0  0  0  0
 10 11  1  0  0  0  0
 13  2  1  0  0  0  0
 13 19  1  0  0  0  0
 14 18  2  0  0  0  0
 15  3  2  0  0  0  0
 16 15  1  0  0  0  0
 17 10  2  0  0  0  0
 18  4  1  0  0  0  0
 19  5  2  0  0  0  0
 19 17  1  0  0  0  0
 20  7  2  0  0  0  0
 20 10  1  0  0  0  0
 21 22  1  6  0  0  0
 21 12  1  0  0  0  0
 23 25  1  0  0  0  0
 23 21  1  0  0  0  0
 24 23  2  0  0  0  0
M  END
>  <MODEL>
4

>  <REMARK>
 VINA RESULT:      -7.5      5.081      8.146
  Name = 
  2 active torsions:
  status: ('A' for Active; 'I' for Inactive)
    1  A    between atoms: C_2  and  C_21
    2  A    between atoms: C_15  and  C_21
                            x       y       z     vdW  Elec       q    Type
                         _______ _______ _______ _____ _____    ______ ____

>  <TORSDO>
F 2

$$$$
=
 OpenBabel11042413493D

 25 28  0  0  1  0  0  0  0  0999 V2000
  190.1440  175.8390  145.3300 C   0  0  0  0  0  0  0  0  0  0  0  0
  189.0640  175.7270  144.4280 C   0  0  0  0  0  0  0  0  0  0  0  0
  191.4530  174.2370  144.0370 C   0  0  0  0  0  3  0  0  0  0  0  0
  190.2370  176.6320  146.4920 C   0  0  0  0  0  0  0  0  0  0  0  0
  185.7780  177.2020  143.5190 C   0  0  0  0  0  0  0  0  0  0  0  0
  190.7920  178.0540  148.8360 C   0  0  0  0  0  3  0  0  0  0  0  0
  190.3890  174.1190  143.1370 C   0  0  0  0  0  3  0  0  0  0  0  0
  191.4600  176.4900  147.1460 C   0  0  0  0  0  0  0  0  0  0  0  0
  191.7630  177.1860  148.3140 C   0  0  0  0  0  3  0  0  0  0  0  0
  188.1010  174.7150  142.3310 C   0  0  0  0  0  0  0  0  0  0  0  0
  188.2170  173.5770  140.9970 Cl  0  0  0  0  0  0  0  0  0  0  0  0
  184.7160  177.9590  143.5450 C   0  0  0  0  0  3  0  0  0  0  0  0
  187.7730  176.4690  144.6710 C   0  0  0  0  0  2  0  0  0  0  0  0
  189.5540  178.2100  148.1880 C   0  0  0  0  0  3  0  0  0  0  0  0
  191.3070  175.0990  145.1160 C   0  0  0  0  0  0  0  0  0  0  0  0
  192.4450  175.4010  146.3240 S   0  0  0  0  0  0  0  0  0  0  0  0
  187.0110  175.4760  142.4130 C   0  0  0  0  0  3  0  0  0  0  0  0
  189.2700  177.4990  147.0120 C   0  0  0  0  0  3  0  0  0  0  0  0
  186.8410  176.4490  143.4970 C   0  0  0  0  0  0  0  0  0  0  0  0
  189.1970  174.8490  143.3190 C   0  0  0  0  0  0  0  0  0  0  0  0
  184.6970  179.2160  144.3490 C   0  0  2  0  0  3  0  0  0  0  0  0
  185.6910  180.0900  143.9040 O   0  0  0  0  0  1  0  0  0  0  0  0
  184.8980  178.9060  145.7940 C   0  0  0  0  0  0  0  0  0  0  0  0
  183.9910  178.0900  146.4550 O   0  0  0  0  0  1  0  0  0  0  0  0
  185.8970  179.3620  146.4130 O   0  0  0  0  0  0  0  0  0  0  0  0
  1  4  1  0  0  0  0
  2 13  1  0  0  0  0
  2  1  1  0  0  0  0
  3 15  1  0  0  0  0
  4 18  2  0  0  0  0
  4  8  1  0  0  0  0
  5 12  2  0  0  0  0
  7 20  1  0  0  0  0
  7  3  2  0  0  0  0
  8  9  2  0  0  0  0
  9  6  1  0  0  0  0
 10 17  2  0  0  0  0
 10 20  1  0  0  0  0
 11 10  1  0  0  0  0
 12 21  1  0  0  0  0
 14  6  2  0  0  0  0
 15  1  2  0  0  0  0
 15 16  1  0  0  0  0
 16  8  1  0  0  0  0
 17 19  1  0  0  0  0
 18 14  1  0  0  0  0
 19  5  2  0  0  0  0
 19 13  1  0  0  0  0
 20  2  2  0  0  0  0
 21 22  1  6  0  0  0
 21 23  1  0  0  0  0
 23 25  2  0  0  0  0
 23 24  1  0  0  0  0
M  END
>  <MODEL>
5

>  <REMARK>
 VINA RESULT:      -7.4      3.621      5.126
  Name = 
  2 active torsions:
  status: ('A' for Active; 'I' for Inactive)
    1  A    between atoms: C_2  and  C_21
    2  A    between atoms: C_15  and  C_21
                            x       y       z     vdW  Elec       q    Type
                         _______ _______ _______ _____ _____    ______ ____

>  <TORSDO>
F 2

$$$$
=
 OpenBabel11042413493D

 25 28  0  0  1  0  0  0  0  0999 V2000
  190.5560  174.8930  144.6680 C   0  0  0  0  0  0  0  0  0  0  0  0
  190.1160  175.8670  145.5900 C   0  0  0  0  0  0  0  0  0  0  0  0
  192.6030  174.5370  145.9450 C   0  0  0  0  0  3  0  0  0  0  0  0
  189.9100  174.4370  143.5000 C   0  0  0  0  0  0  0  0  0  0  0  0
  187.2000  177.9570  146.5520 C   0  0  0  0  0  0  0  0  0  0  0  0
  188.9470  173.2900  141.1380 C   0  0  0  0  0  3  0  0  0  0  0  0
  192.1780  175.5000  146.8650 C   0  0  0  0  0  3  0  0  0  0  0  0
  190.6430  173.4620  142.8240 C   0  0  0  0  0  0  0  0  0  0  0  0
  190.1860  172.8740  141.6470 C   0  0  0  0  0  3  0  0  0  0  0  0
  190.5210  177.1680  147.7100 C   0  0  0  0  0  0  0  0  0  0  0  0
  191.5690  177.6110  149.0480 Cl  0  0  0  0  0  0  0  0  0  0  0  0
  186.0120  178.4970  146.5410 C   0  0  0  0  0  3  0  0  0  0  0  0
  188.8270  176.6180  145.3670 C   0  0  0  0  0  2  0  0  0  0  0  0
  188.1950  174.2710  141.8080 C   0  0  0  0  0  3  0  0  0  0  0  0
  191.7800  174.2520  144.8640 C   0  0  0  0  0  0  0  0  0  0  0  0
  192.0820  173.1390  143.6340 S   0  0  0  0  0  0  0  0  0  0  0  0
  189.3160  177.7320  147.6440 C   0  0  0  0  0  3  0  0  0  0  0  0
  188.6740  174.8510  142.9930 C   0  0  0  0  0  3  0  0  0  0  0  0
  188.3830  177.4130  146.5580 C   0  0  0  0  0  0  0  0  0  0  0  0
  190.9480  176.1700  146.7010 C   0  0  0  0  0  0  0  0  0  0  0  0
  184.9110  177.9010  145.7310 C   0  0  2  0  0  3  0  0  0  0  0  0
  185.1130  176.5260  145.5800 O   0  0  0  0  0  1  0  0  0  0  0  0
  184.8420  178.5570  144.3940 C   0  0  0  0  0  0  0  0  0  0  0  0
  185.2590  179.8720  144.2510 O   0  0  0  0  0  1  0  0  0  0  0  0
  184.4270  177.9200  143.3890 O   0  0  0  0  0  0  0  0  0  0  0  0
  1 15  1  0  0  0  0
  1  2  2  0  0  0  0
  2 20  1  0  0  0  0
  3  7  1  0  0  0  0
  4  1  1  0  0  0  0
  5 19  2  0  0  0  0
  6  9  2  0  0  0  0
  6 14  1  0  0  0  0
  8  4  2  0  0  0  0
  8 16  1  0  0  0  0
  9  8  1  0  0  0  0
 10 11  1  0  0  0  0
 12  5  2  0  0  0  0
 13  2  1  0  0  0  0
 13 19  1  0  0  0  0
 14 18  2  0  0  0  0
 15  3  2  0  0  0  0
 16 15  1  0  0  0  0
 17 10  2  0  0  0  0
 18  4  1  0  0  0  0
 19 17  1  0  0  0  0
 20  7  2  0  0  0  0
 20 10  1  0  0  0  0
 21 22  1  6  0  0  0
 21 12  1  0  0  0  0
 23 21  1  0  0  0  0
 24 23  1  0  0  0  0
 25 23  2  0  0  0  0
M  END
>  <MODEL>
6

>  <REMARK>
 VINA RESULT:      -7.3      4.456      7.115
  Name = 
  2 active torsions:
  status: ('A' for Active; 'I' for Inactive)
    1  A    between atoms: C_2  and  C_21
    2  A    between atoms: C_15  and  C_21
                            x       y       z     vdW  Elec       q    Type
                         _______ _______ _______ _____ _____    ______ ____

>  <TORSDO>
F 2

$$$$
=
 OpenBabel11042413493D

 25 28  0  0  1  0  0  0  0  0999 V2000
  189.4320  176.2100  144.8610 C   0  0  0  0  0  0  0  0  0  0  0  0
  190.5230  176.2770  145.7560 C   0  0  0  0  0  0  0  0  0  0  0  0
  188.0510  177.5390  146.3710 C   0  0  0  0  0  3  0  0  0  0  0  0
  189.3630  175.5630  143.6110 C   0  0  0  0  0  0  0  0  0  0  0  0
  194.1440  175.5220  146.0990 C   0  0  0  0  0  0  0  0  0  0  0  0
  188.8470  174.4170  141.1120 C   0  0  0  0  0  3  0  0  0  0  0  0
  189.1250  177.6110  147.2640 C   0  0  0  0  0  3  0  0  0  0  0  0
  188.1180  175.7040  142.9990 C   0  0  0  0  0  0  0  0  0  0  0  0
  187.8350  175.1450  141.7550 C   0  0  0  0  0  3  0  0  0  0  0  0
  191.4770  177.1070  147.9350 C   0  0  0  0  0  0  0  0  0  0  0  0
  191.2670  177.9160  149.4800 Cl  0  0  0  0  0  0  0  0  0  0  0  0
  195.3480  175.1010  145.8230 C   0  0  0  0  0  3  0  0  0  0  0  0
  191.8130  175.5530  145.4580 C   0  0  0  0  0  2  0  0  0  0  0  0
  190.1080  174.2660  141.7150 C   0  0  0  0  0  3  0  0  0  0  0  0
  188.2300  176.8400  145.1840 C   0  0  0  0  0  0  0  0  0  0  0  0
  187.0860  176.6170  143.9650 S   0  0  0  0  0  0  0  0  0  0  0  0
  192.6840  176.6280  147.6370 C   0  0  0  0  0  3  0  0  0  0  0  0
  190.3720  174.8390  142.9680 C   0  0  0  0  0  3  0  0  0  0  0  0
  192.9400  175.9400  146.3670 C   0  0  0  0  0  0  0  0  0  0  0  0
  190.3560  176.9890  146.9740 C   0  0  0  0  0  0  0  0  0  0  0  0
  195.7430  174.7920  144.4180 C   0  0  2  0  0  3  0  0  0  0  0  0
  197.0750  174.3730  144.3720 O   0  0  0  0  0  1  0  0  0  0  0  0
  195.5550  175.9920  143.5540 C   0  0  0  0  0  0  0  0  0  0  0  0
  196.4420  177.0550  143.6510 O   0  0  0  0  0  1  0  0  0  0  0  0
  194.6100  176.0400  142.7220 O   0  0  0  0  0  0  0  0  0  0  0  0
  1 15  1  0  0  0  0
  1  2  2  0  0  0  0
  2 20  1  0  0  0  0
  3  7  1  0  0  0  0
  4  1  1  0  0  0  0
  5 19  2  0  0  0  0
  6 14  2  0  0  0  0
  6  9  1  0  0  0  0
  8  4  1  0  0  0  0
  8 16  1  0  0  0  0
  9  8  2  0  0  0  0
 10 11  1  0  0  0  0
 12  5  2  0  0  0  0
 13  2  1  0  0  0  0
 13 19  1  0  0  0  0
 14 18  1  0  0  0  0
 15  3  2  0  0  0  0
 16 15  1  0  0  0  0
 17 10  2  0  0  0  0
 18  4  2  0  0  0  0
 19 17  1  0  0  0  0
 20  7  2  0  0  0  0
 20 10  1  0  0  0  0
 21 22  1  1  0  0  0
 21 12  1  0  0  0  0
 23 24  1  0  0  0  0
 23 21  1  0  0  0  0
 25 23  2  0  0  0  0
M  END
>  <MODEL>
7

>  <REMARK>
 VINA RESULT:      -7.0      7.178     10.574
  Name = 
  2 active torsions:
  status: ('A' for Active; 'I' for Inactive)
    1  A    between atoms: C_2  and  C_21
    2  A    between atoms: C_15  and  C_21
                            x       y       z     vdW  Elec       q    Type
                         _______ _______ _______ _____ _____    ______ ____

>  <TORSDO>
F 2

$$$$
=
 OpenBabel11042413493D

 25 28  0  0  1  0  0  0  0  0999 V2000
  187.1880  177.1660  144.9250 C   0  0  0  0  0  0  0  0  0  0  0  0
  188.2410  176.2570  144.6830 C   0  0  0  0  0  0  0  0  0  0  0  0
  188.0870  177.6920  147.1320 C   0  0  0  0  0  3  0  0  0  0  0  0
  186.1100  177.5040  144.0820 C   0  0  0  0  0  0  0  0  0  0  0  0
  189.8170  174.1580  142.0530 C   0  0  0  0  0  0  0  0  0  0  0  0
  183.8560  178.4230  142.7050 C   0  0  0  0  0  3  0  0  0  0  0  0
  189.1330  176.7930  146.9020 C   0  0  0  0  0  3  0  0  0  0  0  0
  185.2530  178.4440  144.6530 C   0  0  0  0  0  0  0  0  0  0  0  0
  184.1240  178.9190  143.9890 C   0  0  0  0  0  3  0  0  0  0  0  0
  190.3580  175.1470  145.4770 C   0  0  0  0  0  0  0  0  0  0  0  0
  191.5390  174.8490  146.7440 Cl  0  0  0  0  0  0  0  0  0  0  0  0
  190.0390  173.5800  140.9050 C   0  0  0  0  0  3  0  0  0  0  0  0
  188.2860  175.4480  143.4090 C   0  0  0  0  0  2  0  0  0  0  0  0
  184.7100  177.4750  142.1140 C   0  0  0  0  0  3  0  0  0  0  0  0
  187.1350  177.8600  146.1340 C   0  0  0  0  0  0  0  0  0  0  0  0
  185.7920  178.8790  146.1870 S   0  0  0  0  0  0  0  0  0  0  0  0
  190.5310  174.5400  144.3040 C   0  0  0  0  0  3  0  0  0  0  0  0
  185.8420  177.0100  142.8010 C   0  0  0  0  0  3  0  0  0  0  0  0
  189.5900  174.7390  143.1970 C   0  0  0  0  0  0  0  0  0  0  0  0
  189.2220  176.0730  145.6930 C   0  0  0  0  0  0  0  0  0  0  0  0
  189.3750  174.0730  139.6630 C   0  0  2  0  0  3  0  0  0  0  0  0
  188.2340  174.8120  139.9860 O   0  0  0  0  0  1  0  0  0  0  0  0
  189.0080  172.9250  138.7850 C   0  0  0  0  0  0  0  0  0  0  0  0
  188.4240  173.1640  137.5500 O   0  0  0  0  0  0  0  0  0  0  0  0
  189.2440  171.7410  139.1470 O   0  0  0  0  0  1  0  0  0  0  0  0
  1 15  1  0  0  0  0
  2  1  2  0  0  0  0
  2 20  1  0  0  0  0
  4  8  1  0  0  0  0
  4  1  1  0  0  0  0
  5 19  2  0  0  0  0
  6  9  1  0  0  0  0
  7  3  1  0  0  0  0
  8 16  1  0  0  0  0
  9  8  2  0  0  0  0
 10 20  1  0  0  0  0
 10 11  1  0  0  0  0
 12  5  2  0  0  0  0
 13  2  1  0  0  0  0
 14  6  2  0  0  0  0
 14 18  1  0  0  0  0
 15 16  1  0  0  0  0
 15  3  2  0  0  0  0
 17 10  2  0  0  0  0
 18  4  2  0  0  0  0
 19 13  1  0  0  0  0
 19 17  1  0  0  0  0
 20  7  2  0  0  0  0
 21 22  1  1  0  0  0
 21 12  1  0  0  0  0
 23 25  1  0  0  0  0
 23 21  1  0  0  0  0
 24 23  2  0  0  0  0
M  END
>  <MODEL>
8

>  <REMARK>
 VINA RESULT:      -6.9      4.855      7.218
  Name = 
  2 active torsions:
  status: ('A' for Active; 'I' for Inactive)
    1  A    between atoms: C_2  and  C_21
    2  A    between atoms: C_15  and  C_21
                            x       y       z     vdW  Elec       q    Type
                         _______ _______ _______ _____ _____    ______ ____

>  <TORSDO>
F 2

$$$$
=
 OpenBabel11042413493D

 25 28  0  0  1  0  0  0  0  0999 V2000
  187.4300  176.9050  143.7870 C   0  0  0  0  0  0  0  0  0  0  0  0
  188.3720  175.9600  144.2500 C   0  0  0  0  0  0  0  0  0  0  0  0
  187.1170  177.7700  146.0470 C   0  0  0  0  0  3  0  0  0  0  0  0
  186.9700  177.1120  142.4710 C   0  0  0  0  0  0  0  0  0  0  0  0
  190.8750  173.4550  143.1270 C   0  0  0  0  0  0  0  0  0  0  0  0
  185.8310  177.8160  140.0150 C   0  0  0  0  0  3  0  0  0  0  0  0
  188.0480  176.8380  146.5160 C   0  0  0  0  0  3  0  0  0  0  0  0
  186.0300  178.1380  142.3830 C   0  0  0  0  0  0  0  0  0  0  0  0
  185.4480  178.5100  141.1730 C   0  0  0  0  0  3  0  0  0  0  0  0
  189.6760  174.9760  146.1680 C   0  0  0  0  0  0  0  0  0  0  0  0
  190.0090  174.8750  147.8900 Cl  0  0  0  0  0  0  0  0  0  0  0  0
  191.6000  172.6990  142.3500 C   0  0  0  0  0  3  0  0  0  0  0  0
  188.9900  174.9580  143.3060 C   0  0  0  0  0  2  0  0  0  0  0  0
  186.7780  176.7790  140.0860 C   0  0  0  0  0  3  0  0  0  0  0  0
  186.8290  177.7850  144.6880 C   0  0  0  0  0  0  0  0  0  0  0  0
  185.7450  178.8090  143.9000 S   0  0  0  0  0  0  0  0  0  0  0  0
  190.3690  174.1870  145.3480 C   0  0  0  0  0  3  0  0  0  0  0  0
  187.3520  176.4220  141.3160 C   0  0  0  0  0  3  0  0  0  0  0  0
  190.1480  174.2140  143.8980 C   0  0  0  0  0  0  0  0  0  0  0  0
  188.6770  175.9330  145.6370 C   0  0  0  0  0  0  0  0  0  0  0  0
  191.7120  172.9910  140.8920 C   0  0  2  0  0  3  0  0  0  0  0  0
  192.2050  174.2830  140.6940 O   0  0  0  0  0  1  0  0  0  0  0  0
  190.3810  172.8460  140.2340 C   0  0  0  0  0  0  0  0  0  0  0  0
  189.6370  173.9780  139.9300 O   0  0  0  0  0  0  0  0  0  0  0  0
  189.9370  171.7060  139.9330 O   0  0  0  0  0  1  0  0  0  0  0  0
  1  2  2  0  0  0  0
  1 15  1  0  0  0  0
  2 20  1  0  0  0  0
  3  7  1  0  0  0  0
  4  1  1  0  0  0  0
  5 19  2  0  0  0  0
  6 14  2  0  0  0  0
  6  9  1  0  0  0  0
  8  4  1  0  0  0  0
  8 16  1  0  0  0  0
  9  8  2  0  0  0  0
 10 11  1  0  0  0  0
 12  5  2  0  0  0  0
 13 19  1  0  0  0  0
 13  2  1  0  0  0  0
 14 18  1  0  0  0  0
 15  3  2  0  0  0  0
 16 15  1  0  0  0  0
 17 10  2  0  0  0  0
 18  4  2  0  0  0  0
 19 17  1  0  0  0  0
 20 10  1  0  0  0  0
 20  7  2  0  0  0  0
 21 22  1  1  0  0  0
 21 12  1  0  0  0  0
 23 21  1  0  0  0  0
 24 23  2  0  0  0  0
 25 23  1  0  0  0  0
M  END
>  <MODEL>
9

>  <REMARK>
 VINA RESULT:      -6.8      5.340      8.205
  Name = 
  2 active torsions:
  status: ('A' for Active; 'I' for Inactive)
    1  A    between atoms: C_2  and  C_21
    2  A    between atoms: C_15  and  C_21
                            x       y       z     vdW  Elec       q    Type
                         _______ _______ _______ _____ _____    ______ ____

>  <TORSDO>
F 2

$$$$
