=
 OpenBabel11042414413D

 28 32  0  0  1  0  0  0  0  0999 V2000
  189.4400  176.0240  142.4070 C   0  0  2  0  0  3  0  0  0  0  0  0
  189.2020  176.9890  146.1640 C   0  0  0  0  0  1  0  0  0  0  0  0
  187.3050  177.2610  142.9070 C   0  0  0  0  0  0  0  0  0  0  0  0
  185.7180  177.4950  139.7840 O   0  0  0  0  0  0  0  0  0  0  0  0
  188.8820  176.8180  144.7100 C   0  0  0  0  0  0  0  0  0  0  0  0
  186.4590  177.3370  140.7890 C   0  0  0  0  0  0  0  0  0  0  0  0
  189.8140  176.3230  143.8470 C   0  0  0  0  0  0  0  0  0  0  0  0
  187.5250  177.2390  144.2290 C   0  0  0  0  0  0  0  0  0  0  0  0
  187.7860  176.8350  140.6950 N   0  0  0  0  0  2  0  0  0  0  0  0
  188.2960  176.8230  141.9930 N   0  0  0  0  0  0  0  0  0  0  0  0
  186.0420  177.6360  142.1940 C   0  0  0  0  0  2  0  0  0  0  0  0
  189.1190  174.6120  142.2710 N   0  0  0  0  0  1  0  0  0  0  0  0
  194.6830  176.4550  144.6420 C   0  0  0  0  0  3  0  0  0  0  0  0
  196.0160  173.3420  146.0790 F   0  0  0  0  0  0  0  0  0  0  0  0
  193.7680  173.9060  145.5010 C   0  0  0  0  0  3  0  0  0  0  0  0
  191.1600  176.0090  144.2670 N   0  0  0  0  0  0  0  0  0  0  0  0
  192.2540  176.7990  144.1160 C   0  0  0  0  0  3  0  0  0  0  0  0
  195.5860  175.5080  145.1590 C   0  0  0  0  0  3  0  0  0  0  0  0
  195.1330  174.2410  145.5860 C   0  0  0  0  0  0  0  0  0  0  0  0
  193.3410  176.0930  144.5750 C   0  0  0  0  0  0  0  0  0  0  0  0
  192.9000  174.8660  144.9890 C   0  0  0  0  0  0  0  0  0  0  0  0
  191.5420  174.8140  144.7850 C   0  0  0  0  0  3  0  0  0  0  0  0
  185.2090  179.3700  146.3430 C   0  0  0  0  0  3  0  0  0  0  0  0
  186.2110  178.9970  145.4430 C   0  0  0  0  0  3  0  0  0  0  0  0
  184.4510  178.3900  146.9910 C   0  0  0  0  0  3  0  0  0  0  0  0
  184.6970  177.0380  146.7390 C   0  0  0  0  0  3  0  0  0  0  0  0
  186.4630  177.6410  145.1830 C   0  0  0  0  0  0  0  0  0  0  0  0
  185.6990  176.6650  145.8380 C   0  0  0  0  0  3  0  0  0  0  0  0
  1 12  1  1  0  0  0
  1  7  1  0  0  0  0
  3  8  2  0  0  0  0
  4  6  2  0  0  0  0
  5  2  1  0  0  0  0
  6 11  1  0  0  0  0
  7 16  1  0  0  0  0
  7  5  2  0  0  0  0
  8  5  1  0  0  0  0
  8 27  1  0  0  0  0
  9  6  1  0  0  0  0
  9 10  1  0  0  0  0
 10  1  1  0  0  0  0
 10  3  1  0  0  0  0
 11  3  1  0  0  0  0
 13 18  2  0  0  0  0
 15 19  2  0  0  0  0
 16 22  1  0  0  0  0
 17 16  1  0  0  0  0
 17 20  2  0  0  0  0
 18 19  1  0  0  0  0
 19 14  1  0  0  0  0
 20 13  1  0  0  0  0
 20 21  1  0  0  0  0
 21 15  1  0  0  0  0
 22 21  2  0  0  0  0
 23 25  1  0  0  0  0
 24 23  2  0  0  0  0
 26 25  2  0  0  0  0
 27 24  1  0  0  0  0
 27 28  2  0  0  0  0
 28 26  1  0  0  0  0
M  END
>  <MODEL>
1

>  <REMARK>
 VINA RESULT:      -8.5      0.000      0.000
  Name = 
  2 active torsions:
  status: ('A' for Active; 'I' for Inactive)
    1  A    between atoms: N_8  and  C_16
    2  A    between atoms: C_18  and  C_25
                            x       y       z     vdW  Elec       q    Type
                         _______ _______ _______ _____ _____    ______ ____

>  <TORSDO>
F 2

$$$$
=
 OpenBabel11042414413D

 28 32  0  0  1  0  0  0  0  0999 V2000
  190.3900  175.4780  143.8510 C   0  0  2  0  0  3  0  0  0  0  0  0
  186.6830  175.7110  142.7080 C   0  0  0  0  0  1  0  0  0  0  0  0
  188.9480  176.5550  145.6120 C   0  0  0  0  0  0  0  0  0  0  0  0
  191.1780  177.1930  148.2490 O   0  0  0  0  0  0  0  0  0  0  0  0
  187.9390  175.8340  143.5160 C   0  0  0  0  0  0  0  0  0  0  0  0
  190.5460  176.8510  147.2160 C   0  0  0  0  0  0  0  0  0  0  0  0
  189.0930  175.2350  143.1030 C   0  0  0  0  0  0  0  0  0  0  0  0
  187.8810  176.6020  144.8030 C   0  0  0  0  0  0  0  0  0  0  0  0
  191.1250  176.0620  146.1840 N   0  0  0  0  0  2  0  0  0  0  0  0
  190.1280  175.8680  145.2290 N   0  0  0  0  0  0  0  0  0  0  0  0
  189.1280  177.2370  146.9350 C   0  0  0  0  0  2  0  0  0  0  0  0
  191.1460  176.5280  143.1870 N   0  0  0  0  0  1  0  0  0  0  0  0
  190.0370  171.5920  139.9110 C   0  0  0  0  0  3  0  0  0  0  0  0
  188.9830  172.3530  136.4690 F   0  0  0  0  0  0  0  0  0  0  0  0
  188.7780  173.6770  138.4460 C   0  0  0  0  0  3  0  0  0  0  0  0
  189.1470  174.4050  141.9230 N   0  0  0  0  0  0  0  0  0  0  0  0
  189.7100  173.1720  141.8320 C   0  0  0  0  0  3  0  0  0  0  0  0
  189.8140  171.4610  138.5280 C   0  0  0  0  0  3  0  0  0  0  0  0
  189.1880  172.4960  137.7990 C   0  0  0  0  0  0  0  0  0  0  0  0
  189.6160  172.7700  140.5200 C   0  0  0  0  0  0  0  0  0  0  0  0
  189.0100  173.7740  139.8160 C   0  0  0  0  0  0  0  0  0  0  0  0
  188.7290  174.7960  140.6910 C   0  0  0  0  0  3  0  0  0  0  0  0
  185.3190  179.3870  145.0380 C   0  0  0  0  0  3  0  0  0  0  0  0
  186.4590  178.6650  144.6760 C   0  0  0  0  0  3  0  0  0  0  0  0
  184.3830  178.8240  145.9110 C   0  0  0  0  0  3  0  0  0  0  0  0
  184.5890  177.5400  146.4220 C   0  0  0  0  0  3  0  0  0  0  0  0
  186.6730  177.3730  145.1830 C   0  0  0  0  0  0  0  0  0  0  0  0
  185.7290  176.8170  146.0590 C   0  0  0  0  0  3  0  0  0  0  0  0
  1 12  1  6  0  0  0
  1 10  1  0  0  0  0
  2  5  1  0  0  0  0
  3 11  1  0  0  0  0
  5  8  1  0  0  0  0
  6  4  2  0  0  0  0
  7  5  2  0  0  0  0
  7  1  1  0  0  0  0
  8 27  1  0  0  0  0
  8  3  2  0  0  0  0
  9  6  1  0  0  0  0
 10  3  1  0  0  0  0
 10  9  1  0  0  0  0
 11  6  1  0  0  0  0
 13 20  1  0  0  0  0
 14 19  1  0  0  0  0
 15 21  1  0  0  0  0
 16  7  1  0  0  0  0
 17 16  1  0  0  0  0
 18 13  2  0  0  0  0
 19 15  2  0  0  0  0
 19 18  1  0  0  0  0
 20 17  2  0  0  0  0
 21 20  1  0  0  0  0
 21 22  2  0  0  0  0
 22 16  1  0  0  0  0
 23 25  1  0  0  0  0
 24 23  2  0  0  0  0
 24 27  1  0  0  0  0
 25 26  2  0  0  0  0
 27 28  2  0  0  0  0
 28 26  1  0  0  0  0
M  END
>  <MODEL>
2

>  <REMARK>
 VINA RESULT:      -8.1      3.897      5.750
  Name = 
  2 active torsions:
  status: ('A' for Active; 'I' for Inactive)
    1  A    between atoms: N_8  and  C_16
    2  A    between atoms: C_18  and  C_25
                            x       y       z     vdW  Elec       q    Type
                         _______ _______ _______ _____ _____    ______ ____

>  <TORSDO>
F 2

$$$$
=
 OpenBabel11042414413D

 28 32  0  0  1  0  0  0  0  0999 V2000
  188.9220  174.3070  142.8370 C   0  0  2  0  0  3  0  0  0  0  0  0
  190.6500  177.0870  144.9320 C   0  0  0  0  0  1  0  0  0  0  0  0
  191.2430  173.6260  143.5350 C   0  0  0  0  0  0  0  0  0  0  0  0
  191.5930  170.3840  142.2350 O   0  0  0  0  0  0  0  0  0  0  0  0
  190.3890  175.8110  144.1900 C   0  0  0  0  0  0  0  0  0  0  0  0
  191.2570  171.5260  142.6410 C   0  0  0  0  0  0  0  0  0  0  0  0
  189.1450  175.5320  143.7040 C   0  0  0  0  0  0  0  0  0  0  0  0
  191.5210  174.8400  144.0300 C   0  0  0  0  0  0  0  0  0  0  0  0
  189.9310  172.0260  142.5230 N   0  0  0  0  0  2  0  0  0  0  0  0
  189.9350  173.2950  143.0990 N   0  0  0  0  0  0  0  0  0  0  0  0
  192.1970  172.4990  143.2790 C   0  0  0  0  0  2  0  0  0  0  0  0
  188.9680  174.6880  141.4350 N   0  0  0  0  0  1  0  0  0  0  0  0
  185.9090  179.2520  143.4970 C   0  0  0  0  0  3  0  0  0  0  0  0
  183.3960  179.1560  146.1830 F   0  0  0  0  0  0  0  0  0  0  0  0
  185.1880  177.6440  145.7270 C   0  0  0  0  0  3  0  0  0  0  0  0
  188.0170  176.4030  143.9360 N   0  0  0  0  0  0  0  0  0  0  0  0
  187.7110  177.5260  143.2360 C   0  0  0  0  0  3  0  0  0  0  0  0
  184.8130  179.6010  144.3060 C   0  0  0  0  0  3  0  0  0  0  0  0
  184.4530  178.8040  145.4140 C   0  0  0  0  0  0  0  0  0  0  0  0
  186.6110  178.0970  143.8310 C   0  0  0  0  0  0  0  0  0  0  0  0
  186.2640  177.3240  144.9040 C   0  0  0  0  0  0  0  0  0  0  0  0
  187.1500  176.2740  144.9720 C   0  0  0  0  0  3  0  0  0  0  0  0
  194.6700  175.2760  146.0960 C   0  0  0  0  0  3  0  0  0  0  0  0
  193.3660  174.9340  145.7260 C   0  0  0  0  0  3  0  0  0  0  0  0
  195.5210  175.8870  145.1710 C   0  0  0  0  0  3  0  0  0  0  0  0
  195.0670  176.1570  143.8770 C   0  0  0  0  0  3  0  0  0  0  0  0
  192.9030  175.2000  144.4280 C   0  0  0  0  0  0  0  0  0  0  0  0
  193.7640  175.8140  143.5070 C   0  0  0  0  0  3  0  0  0  0  0  0
  1 12  1  6  0  0  0
  1 10  1  0  0  0  0
  1  7  1  0  0  0  0
  3  8  2  0  0  0  0
  4  6  2  0  0  0  0
  5  2  1  0  0  0  0
  6 11  1  0  0  0  0
  7 16  1  0  0  0  0
  7  5  2  0  0  0  0
  8  5  1  0  0  0  0
  8 27  1  0  0  0  0
  9  6  1  0  0  0  0
  9 10  1  0  0  0  0
 10  3  1  0  0  0  0
 11  3  1  0  0  0  0
 13 20  1  0  0  0  0
 13 18  2  0  0  0  0
 16 22  1  0  0  0  0
 17 20  2  0  0  0  0
 17 16  1  0  0  0  0
 18 19  1  0  0  0  0
 19 15  2  0  0  0  0
 19 14  1  0  0  0  0
 20 21  1  0  0  0  0
 21 22  2  0  0  0  0
 21 15  1  0  0  0  0
 24 23  1  0  0  0  0
 25 23  2  0  0  0  0
 26 25  1  0  0  0  0
 27 24  2  0  0  0  0
 28 26  2  0  0  0  0
 28 27  1  0  0  0  0
M  END
>  <MODEL>
3

>  <REMARK>
 VINA RESULT:      -7.8      3.555      7.695
  Name = 
  2 active torsions:
  status: ('A' for Active; 'I' for Inactive)
    1  A    between atoms: N_8  and  C_16
    2  A    between atoms: C_18  and  C_25
                            x       y       z     vdW  Elec       q    Type
                         _______ _______ _______ _____ _____    ______ ____

>  <TORSDO>
F 2

$$$$
=
 OpenBabel11042414413D

 28 32  0  0  1  0  0  0  0  0999 V2000
  189.8140  174.1840  144.1660 C   0  0  2  0  0  3  0  0  0  0  0  0
  191.6210  177.6130  143.8760 C   0  0  0  0  0  1  0  0  0  0  0  0
  192.3060  173.8970  143.9600 C   0  0  0  0  0  0  0  0  0  0  0  0
  192.7700  170.4210  144.1380 O   0  0  0  0  0  0  0  0  0  0  0  0
  191.3550  176.1400  143.9430 C   0  0  0  0  0  0  0  0  0  0  0  0
  192.3950  171.6230  144.1300 C   0  0  0  0  0  0  0  0  0  0  0  0
  190.1070  175.6710  144.2360 C   0  0  0  0  0  0  0  0  0  0  0  0
  192.5020  175.2010  143.7170 C   0  0  0  0  0  0  0  0  0  0  0  0
  191.0610  172.0160  144.4230 N   0  0  0  0  0  2  0  0  0  0  0  0
  191.0320  173.4070  144.3420 N   0  0  0  0  0  0  0  0  0  0  0  0
  193.2890  172.7770  143.8030 C   0  0  0  0  0  2  0  0  0  0  0  0
  189.2170  173.8660  142.8790 N   0  0  0  0  0  1  0  0  0  0  0  0
  186.5350  178.1200  146.6010 C   0  0  0  0  0  3  0  0  0  0  0  0
  184.3930  180.1060  144.3640 F   0  0  0  0  0  0  0  0  0  0  0  0
  186.2840  178.7430  143.8400 C   0  0  0  0  0  3  0  0  0  0  0  0
  189.0120  176.5550  144.5600 N   0  0  0  0  0  0  0  0  0  0  0  0
  188.4780  176.7550  145.7930 C   0  0  0  0  0  3  0  0  0  0  0  0
  185.5120  178.9740  146.1510 C   0  0  0  0  0  3  0  0  0  0  0  0
  185.3860  179.2840  144.7790 C   0  0  0  0  0  0  0  0  0  0  0  0
  187.4090  177.6060  145.6470 C   0  0  0  0  0  0  0  0  0  0  0  0
  187.2880  177.9060  144.3180 C   0  0  0  0  0  0  0  0  0  0  0  0
  188.2830  177.2400  143.6420 C   0  0  0  0  0  3  0  0  0  0  0  0
  196.0760  176.4660  143.7460 C   0  0  0  0  0  3  0  0  0  0  0  0
  194.8350  175.9970  144.1840 C   0  0  0  0  0  3  0  0  0  0  0  0
  196.3160  176.6410  142.3800 C   0  0  0  0  0  3  0  0  0  0  0  0
  195.3130  176.3470  141.4520 C   0  0  0  0  0  3  0  0  0  0  0  0
  193.8220  175.6980  143.2590 C   0  0  0  0  0  0  0  0  0  0  0  0
  194.0710  175.8770  141.8900 C   0  0  0  0  0  3  0  0  0  0  0  0
  1 12  1  6  0  0  0
  1  7  1  0  0  0  0
  1 10  1  0  0  0  0
  2  5  1  0  0  0  0
  3 10  1  0  0  0  0
  5  7  2  0  0  0  0
  6  4  2  0  0  0  0
  6  9  1  0  0  0  0
  7 16  1  0  0  0  0
  8  5  1  0  0  0  0
  8  3  2  0  0  0  0
 10  9  1  0  0  0  0
 11  3  1  0  0  0  0
 11  6  1  0  0  0  0
 14 19  1  0  0  0  0
 15 21  1  0  0  0  0
 15 19  2  0  0  0  0
 16 17  1  0  0  0  0
 18 13  2  0  0  0  0
 19 18  1  0  0  0  0
 20 17  2  0  0  0  0
 20 13  1  0  0  0  0
 21 20  1  0  0  0  0
 22 21  2  0  0  0  0
 22 16  1  0  0  0  0
 23 24  1  0  0  0  0
 25 23  2  0  0  0  0
 26 28  2  0  0  0  0
 26 25  1  0  0  0  0
 27  8  1  0  0  0  0
 27 24  2  0  0  0  0
 28 27  1  0  0  0  0
M  END
>  <MODEL>
4

>  <REMARK>
 VINA RESULT:      -7.8      3.759      8.038
  Name = 
  2 active torsions:
  status: ('A' for Active; 'I' for Inactive)
    1  A    between atoms: N_8  and  C_16
    2  A    between atoms: C_18  and  C_25
                            x       y       z     vdW  Elec       q    Type
                         _______ _______ _______ _____ _____    ______ ____

>  <TORSDO>
F 2

$$$$
=
 OpenBabel11042414413D

 28 32  0  0  1  0  0  0  0  0999 V2000
  191.1840  176.6520  145.1040 C   0  0  2  0  0  3  0  0  0  0  0  0
  188.8920  174.4880  142.8300 C   0  0  0  0  0  1  0  0  0  0  0  0
  192.5320  175.2540  143.5010 C   0  0  0  0  0  0  0  0  0  0  0  0
  195.8550  176.1450  144.2000 O   0  0  0  0  0  0  0  0  0  0  0  0
  190.1010  175.1030  143.4680 C   0  0  0  0  0  0  0  0  0  0  0  0
  194.6120  175.9930  144.0820 C   0  0  0  0  0  0  0  0  0  0  0  0
  189.9700  176.1290  144.3590 C   0  0  0  0  0  0  0  0  0  0  0  0
  191.4520  174.5840  143.0750 C   0  0  0  0  0  0  0  0  0  0  0  0
  193.6680  176.8190  144.7530 N   0  0  0  0  0  2  0  0  0  0  0  0
  192.4060  176.3720  144.3640 N   0  0  0  0  0  0  0  0  0  0  0  0
  193.9720  174.9300  143.2460 C   0  0  0  0  0  2  0  0  0  0  0  0
  191.2570  176.0280  146.4150 N   0  0  0  0  0  1  0  0  0  0  0  0
  185.9680  179.0140  144.4330 C   0  0  0  0  0  3  0  0  0  0  0  0
  183.6940  178.2900  147.2340 F   0  0  0  0  0  0  0  0  0  0  0  0
  185.7540  177.2370  146.6410 C   0  0  0  0  0  3  0  0  0  0  0  0
  188.6890  176.7130  144.6740 N   0  0  0  0  0  0  0  0  0  0  0  0
  188.0980  177.7520  144.0280 C   0  0  0  0  0  3  0  0  0  0  0  0
  184.8670  179.0860  145.3060 C   0  0  0  0  0  3  0  0  0  0  0  0
  184.7590  178.2040  146.4030 C   0  0  0  0  0  0  0  0  0  0  0  0
  186.9310  178.0440  144.6940 C   0  0  0  0  0  0  0  0  0  0  0  0
  186.8280  177.1880  145.7560 C   0  0  0  0  0  0  0  0  0  0  0  0
  187.9310  176.3680  145.7460 C   0  0  0  0  0  3  0  0  0  0  0  0
  191.8070  172.3590  140.0260 C   0  0  0  0  0  3  0  0  0  0  0  0
  191.6740  173.4970  140.8250 C   0  0  0  0  0  3  0  0  0  0  0  0
  191.8590  171.0930  140.6160 C   0  0  0  0  0  3  0  0  0  0  0  0
  191.7770  170.9670  142.0060 C   0  0  0  0  0  3  0  0  0  0  0  0
  191.5930  173.3800  142.2220 C   0  0  0  0  0  0  0  0  0  0  0  0
  191.6450  172.1060  142.8050 C   0  0  0  0  0  3  0  0  0  0  0  0
  1 12  1  1  0  0  0
  2  5  1  0  0  0  0
  3 10  1  0  0  0  0
  5  7  2  0  0  0  0
  6  4  2  0  0  0  0
  6  9  1  0  0  0  0
  7 16  1  0  0  0  0
  7  1  1  0  0  0  0
  8  5  1  0  0  0  0
  8  3  2  0  0  0  0
 10  9  1  0  0  0  0
 10  1  1  0  0  0  0
 11  3  1  0  0  0  0
 11  6  1  0  0  0  0
 13 20  1  0  0  0  0
 13 18  2  0  0  0  0
 16 22  1  0  0  0  0
 17 16  1  0  0  0  0
 17 20  2  0  0  0  0
 18 19  1  0  0  0  0
 19 15  2  0  0  0  0
 19 14  1  0  0  0  0
 20 21  1  0  0  0  0
 21 15  1  0  0  0  0
 22 21  2  0  0  0  0
 23 25  2  0  0  0  0
 23 24  1  0  0  0  0
 24 27  2  0  0  0  0
 25 26  1  0  0  0  0
 26 28  2  0  0  0  0
 27 28  1  0  0  0  0
 27  8  1  0  0  0  0
M  END
>  <MODEL>
5

>  <REMARK>
 VINA RESULT:      -7.6      4.048      7.952
  Name = 
  2 active torsions:
  status: ('A' for Active; 'I' for Inactive)
    1  A    between atoms: N_8  and  C_16
    2  A    between atoms: C_18  and  C_25
                            x       y       z     vdW  Elec       q    Type
                         _______ _______ _______ _____ _____    ______ ____

>  <TORSDO>
F 2

$$$$
=
 OpenBabel11042414413D

 28 32  0  0  1  0  0  0  0  0999 V2000
  191.4610  176.6650  145.3620 C   0  0  2  0  0  3  0  0  0  0  0  0
  189.1080  174.5520  143.1030 C   0  0  0  0  0  1  0  0  0  0  0  0
  192.7540  175.4090  143.6050 C   0  0  0  0  0  0  0  0  0  0  0  0
  196.0830  176.3780  144.1600 O   0  0  0  0  0  0  0  0  0  0  0  0
  190.3320  175.1730  143.7050 C   0  0  0  0  0  0  0  0  0  0  0  0
  194.8410  176.1890  144.1060 C   0  0  0  0  0  0  0  0  0  0  0  0
  190.2220  176.1410  144.6600 C   0  0  0  0  0  0  0  0  0  0  0  0
  191.6730  174.7260  143.2040 C   0  0  0  0  0  0  0  0  0  0  0  0
  193.9130  176.9410  144.8780 N   0  0  0  0  0  2  0  0  0  0  0  0
  192.6450  176.4720  144.5380 N   0  0  0  0  0  0  0  0  0  0  0  0
  194.1870  175.1520  143.2480 C   0  0  0  0  0  2  0  0  0  0  0  0
  191.6330  175.9710  146.6280 N   0  0  0  0  0  1  0  0  0  0  0  0
  185.9020  176.8110  146.9490 C   0  0  0  0  0  3  0  0  0  0  0  0
  183.8540  179.4790  145.4560 F   0  0  0  0  0  0  0  0  0  0  0  0
  186.0250  178.7040  144.8320 C   0  0  0  0  0  3  0  0  0  0  0  0
  188.9430  176.6610  145.0830 N   0  0  0  0  0  0  0  0  0  0  0  0
  188.1750  176.1800  146.0940 C   0  0  0  0  0  3  0  0  0  0  0  0
  184.8330  177.6960  146.7170 C   0  0  0  0  0  3  0  0  0  0  0  0
  184.8930  178.6370  145.6660 C   0  0  0  0  0  0  0  0  0  0  0  0
  187.0080  176.9070  146.1100 C   0  0  0  0  0  0  0  0  0  0  0  0
  187.0680  177.8180  145.0910 C   0  0  0  0  0  0  0  0  0  0  0  0
  188.2710  177.6540  144.4460 C   0  0  0  0  0  3  0  0  0  0  0  0
  191.9210  172.6920  140.0140 C   0  0  0  0  0  3  0  0  0  0  0  0
  191.8000  173.7780  140.8850 C   0  0  0  0  0  3  0  0  0  0  0  0
  192.0450  171.3960  140.5260 C   0  0  0  0  0  3  0  0  0  0  0  0
  192.0460  171.1880  141.9080 C   0  0  0  0  0  3  0  0  0  0  0  0
  191.8020  173.5780  142.2750 C   0  0  0  0  0  0  0  0  0  0  0  0
  191.9250  172.2750  142.7790 C   0  0  0  0  0  3  0  0  0  0  0  0
  1 12  1  1  0  0  0
  2  5  1  0  0  0  0
  3 10  1  0  0  0  0
  5  7  2  0  0  0  0
  6  4  2  0  0  0  0
  6  9  1  0  0  0  0
  7 16  1  0  0  0  0
  7  1  1  0  0  0  0
  8  3  2  0  0  0  0
  8  5  1  0  0  0  0
 10  9  1  0  0  0  0
 10  1  1  0  0  0  0
 11  3  1  0  0  0  0
 11  6  1  0  0  0  0
 14 19  1  0  0  0  0
 15 21  1  0  0  0  0
 15 19  2  0  0  0  0
 16 17  1  0  0  0  0
 17 20  2  0  0  0  0
 18 13  2  0  0  0  0
 19 18  1  0  0  0  0
 20 13  1  0  0  0  0
 21 20  1  0  0  0  0
 22 16  1  0  0  0  0
 22 21  2  0  0  0  0
 23 25  2  0  0  0  0
 23 24  1  0  0  0  0
 24 27  2  0  0  0  0
 25 26  1  0  0  0  0
 26 28  2  0  0  0  0
 27 28  1  0  0  0  0
 27  8  1  0  0  0  0
M  END
>  <MODEL>
6

>  <REMARK>
 VINA RESULT:      -7.6      4.082      8.030
  Name = 
  2 active torsions:
  status: ('A' for Active; 'I' for Inactive)
    1  A    between atoms: N_8  and  C_16
    2  A    between atoms: C_18  and  C_25
                            x       y       z     vdW  Elec       q    Type
                         _______ _______ _______ _____ _____    ______ ____

>  <TORSDO>
F 2

$$$$
=
 OpenBabel11042414413D

 28 32  0  0  1  0  0  0  0  0999 V2000
  189.1480  173.9790  142.8010 C   0  0  2  0  0  3  0  0  0  0  0  0
  189.9210  177.4590  144.3490 C   0  0  0  0  0  1  0  0  0  0  0  0
  191.1980  173.9030  144.2610 C   0  0  0  0  0  0  0  0  0  0  0  0
  192.1960  170.5390  144.1320 O   0  0  0  0  0  0  0  0  0  0  0  0
  190.0050  176.0080  143.9820 C   0  0  0  0  0  0  0  0  0  0  0  0
  191.6580  171.6750  144.0740 C   0  0  0  0  0  0  0  0  0  0  0  0
  188.9950  175.4070  143.2890 C   0  0  0  0  0  0  0  0  0  0  0  0
  191.2090  175.2330  144.4260 C   0  0  0  0  0  0  0  0  0  0  0  0
  190.3930  171.8970  143.4630 N   0  0  0  0  0  2  0  0  0  0  0  0
  190.1160  173.2550  143.6120 N   0  0  0  0  0  0  0  0  0  0  0  0
  192.2750  172.9240  144.6170 C   0  0  0  0  0  2  0  0  0  0  0  0
  189.5850  173.9820  141.4140 N   0  0  0  0  0  1  0  0  0  0  0  0
  185.4990  177.9200  140.8770 C   0  0  0  0  0  3  0  0  0  0  0  0
  182.7430  179.0380  143.0440 F   0  0  0  0  0  0  0  0  0  0  0  0
  184.6910  177.7720  143.5980 C   0  0  0  0  0  3  0  0  0  0  0  0
  187.7810  176.1060  142.9410 N   0  0  0  0  0  0  0  0  0  0  0  0
  187.4550  176.5910  141.7140 C   0  0  0  0  0  3  0  0  0  0  0  0
  184.3010  178.5230  141.3020 C   0  0  0  0  0  3  0  0  0  0  0  0
  183.8980  178.4500  142.6530 C   0  0  0  0  0  0  0  0  0  0  0  0
  186.2570  177.2540  141.8360 C   0  0  0  0  0  0  0  0  0  0  0  0
  185.8680  177.1830  143.1450 C   0  0  0  0  0  0  0  0  0  0  0  0
  186.8260  176.4760  143.8330 C   0  0  0  0  0  3  0  0  0  0  0  0
  194.5290  177.0120  144.8590 C   0  0  0  0  0  3  0  0  0  0  0  0
  193.4370  176.3750  144.2640 C   0  0  0  0  0  3  0  0  0  0  0  0
  194.5650  177.1900  146.2440 C   0  0  0  0  0  3  0  0  0  0  0  0
  193.5090  176.7300  147.0350 C   0  0  0  0  0  3  0  0  0  0  0  0
  192.3700  175.9100  145.0510 C   0  0  0  0  0  0  0  0  0  0  0  0
  192.4160  176.0930  146.4410 C   0  0  0  0  0  3  0  0  0  0  0  0
  1 12  1  6  0  0  0
  1  7  1  0  0  0  0
  1 10  1  0  0  0  0
  3  8  2  0  0  0  0
  3 11  1  0  0  0  0
  5  2  1  0  0  0  0
  5  8  1  0  0  0  0
  6  4  2  0  0  0  0
  6 11  1  0  0  0  0
  7  5  2  0  0  0  0
  8 27  1  0  0  0  0
  9 10  1  0  0  0  0
  9  6  1  0  0  0  0
 10  3  1  0  0  0  0
 13 18  2  0  0  0  0
 13 20  1  0  0  0  0
 16  7  1  0  0  0  0
 16 22  1  0  0  0  0
 17 20  2  0  0  0  0
 17 16  1  0  0  0  0
 18 19  1  0  0  0  0
 19 14  1  0  0  0  0
 19 15  2  0  0  0  0
 20 21  1  0  0  0  0
 21 15  1  0  0  0  0
 21 22  2  0  0  0  0
 23 25  1  0  0  0  0
 24 23  2  0  0  0  0
 24 27  1  0  0  0  0
 25 26  2  0  0  0  0
 27 28  2  0  0  0  0
 28 26  1  0  0  0  0
M  END
>  <MODEL>
7

>  <REMARK>
 VINA RESULT:      -7.5      3.896      7.776
  Name = 
  2 active torsions:
  status: ('A' for Active; 'I' for Inactive)
    1  A    between atoms: N_8  and  C_16
    2  A    between atoms: C_18  and  C_25
                            x       y       z     vdW  Elec       q    Type
                         _______ _______ _______ _____ _____    ______ ____

>  <TORSDO>
F 2

$$$$
=
 OpenBabel11042414413D

 28 32  0  0  1  0  0  0  0  0999 V2000
  192.2440  176.4320  145.3560 C   0  0  2  0  0  3  0  0  0  0  0  0
  190.1240  173.2720  144.5660 C   0  0  0  0  0  1  0  0  0  0  0  0
  193.6200  174.6620  144.2110 C   0  0  0  0  0  0  0  0  0  0  0  0
  196.7900  176.1380  143.8910 O   0  0  0  0  0  0  0  0  0  0  0  0
  191.2700  174.2310  144.6820 C   0  0  0  0  0  0  0  0  0  0  0  0
  195.5880  175.8090  144.0700 C   0  0  0  0  0  0  0  0  0  0  0  0
  191.0640  175.5110  145.1090 C   0  0  0  0  0  0  0  0  0  0  0  0
  192.6350  173.7560  144.2840 C   0  0  0  0  0  0  0  0  0  0  0  0
  194.5990  176.7240  144.5240 N   0  0  0  0  0  2  0  0  0  0  0  0
  193.4000  176.0140  144.5770 N   0  0  0  0  0  0  0  0  0  0  0  0
  195.0550  174.4300  143.8460 C   0  0  0  0  0  2  0  0  0  0  0  0
  192.5830  176.4200  146.7700 N   0  0  0  0  0  1  0  0  0  0  0  0
  186.7400  176.5190  147.2620 C   0  0  0  0  0  3  0  0  0  0  0  0
  184.3910  178.3030  145.0630 F   0  0  0  0  0  0  0  0  0  0  0  0
  186.6210  177.5690  144.6240 C   0  0  0  0  0  3  0  0  0  0  0  0
  189.7450  176.0210  145.3980 N   0  0  0  0  0  0  0  0  0  0  0  0
  189.0510  175.8490  146.5530 C   0  0  0  0  0  3  0  0  0  0  0  0
  185.5780  177.1640  146.8010 C   0  0  0  0  0  3  0  0  0  0  0  0
  185.5180  177.6860  145.4900 C   0  0  0  0  0  0  0  0  0  0  0  0
  187.8140  176.4230  146.3820 C   0  0  0  0  0  0  0  0  0  0  0  0
  187.7570  176.9290  145.1120 C   0  0  0  0  0  0  0  0  0  0  0  0
  188.9590  176.6660  144.4980 C   0  0  0  0  0  3  0  0  0  0  0  0
  192.8600  170.4890  142.3730 C   0  0  0  0  0  3  0  0  0  0  0  0
  192.6210  171.8330  142.6740 C   0  0  0  0  0  3  0  0  0  0  0  0
  193.3670  169.6330  143.3550 C   0  0  0  0  0  3  0  0  0  0  0  0
  193.6340  170.1210  144.6370 C   0  0  0  0  0  3  0  0  0  0  0  0
  192.8870  172.3320  143.9590 C   0  0  0  0  0  0  0  0  0  0  0  0
  193.3960  171.4650  144.9380 C   0  0  0  0  0  3  0  0  0  0  0  0
  1 12  1  1  0  0  0
  2  5  1  0  0  0  0
  3  8  2  0  0  0  0
  3 10  1  0  0  0  0
  4  6  2  0  0  0  0
  5  7  2  0  0  0  0
  6  9  1  0  0  0  0
  7  1  1  0  0  0  0
  7 16  1  0  0  0  0
  8  5  1  0  0  0  0
  9 10  1  0  0  0  0
 10  1  1  0  0  0  0
 11  6  1  0  0  0  0
 11  3  1  0  0  0  0
 14 19  1  0  0  0  0
 15 21  1  0  0  0  0
 15 19  2  0  0  0  0
 16 17  1  0  0  0  0
 18 13  2  0  0  0  0
 19 18  1  0  0  0  0
 20 17  2  0  0  0  0
 20 13  1  0  0  0  0
 21 20  1  0  0  0  0
 22 21  2  0  0  0  0
 22 16  1  0  0  0  0
 23 24  2  0  0  0  0
 23 25  1  0  0  0  0
 24 27  1  0  0  0  0
 25 26  2  0  0  0  0
 26 28  1  0  0  0  0
 27  8  1  0  0  0  0
 27 28  2  0  0  0  0
M  END
>  <MODEL>
8

>  <REMARK>
 VINA RESULT:      -7.1      3.973      8.265
  Name = 
  2 active torsions:
  status: ('A' for Active; 'I' for Inactive)
    1  A    between atoms: N_8  and  C_16
    2  A    between atoms: C_18  and  C_25
                            x       y       z     vdW  Elec       q    Type
                         _______ _______ _______ _____ _____    ______ ____

>  <TORSDO>
F 2

$$$$
=
 OpenBabel11042414413D

 28 32  0  0  1  0  0  0  0  0999 V2000
  192.0780  174.4440  142.9620 C   0  0  2  0  0  3  0  0  0  0  0  0
  188.1960  174.3600  142.8020 C   0  0  0  0  0  1  0  0  0  0  0  0
  191.0490  175.6900  144.8920 C   0  0  0  0  0  0  0  0  0  0  0  0
  193.8160  176.7790  146.7600 O   0  0  0  0  0  0  0  0  0  0  0  0
  189.6010  174.6470  143.2350 C   0  0  0  0  0  0  0  0  0  0  0  0
  192.9720  176.2710  145.9770 C   0  0  0  0  0  0  0  0  0  0  0  0
  190.6560  174.0460  142.6120 C   0  0  0  0  0  0  0  0  0  0  0  0
  189.8110  175.5800  144.3890 C   0  0  0  0  0  0  0  0  0  0  0  0
  193.3300  175.3740  144.9340 N   0  0  0  0  0  2  0  0  0  0  0  0
  192.1430  175.0080  144.3030 N   0  0  0  0  0  0  0  0  0  0  0  0
  191.5040  176.5540  146.0290 C   0  0  0  0  0  2  0  0  0  0  0  0
  192.5590  175.4240  142.0010 N   0  0  0  0  0  1  0  0  0  0  0  0
  190.6740  169.8760  139.9720 C   0  0  0  0  0  3  0  0  0  0  0  0
  189.5720  170.3430  136.4930 F   0  0  0  0  0  0  0  0  0  0  0  0
  189.7530  171.9450  138.2550 C   0  0  0  0  0  3  0  0  0  0  0  0
  190.4740  173.0650  141.5680 N   0  0  0  0  0  0  0  0  0  0  0  0
  190.7800  171.7440  141.6440 C   0  0  0  0  0  3  0  0  0  0  0  0
  190.3420  169.6000  138.6330 C   0  0  0  0  0  3  0  0  0  0  0  0
  189.8850  170.6270  137.7790 C   0  0  0  0  0  0  0  0  0  0  0  0
  190.5280  171.1890  140.4120 C   0  0  0  0  0  0  0  0  0  0  0  0
  190.0850  172.1840  139.5850 C   0  0  0  0  0  0  0  0  0  0  0  0
  190.0630  173.3550  140.3070 C   0  0  0  0  0  3  0  0  0  0  0  0
  187.1090  178.1950  144.8770 C   0  0  0  0  0  3  0  0  0  0  0  0
  188.1720  177.4780  144.3220 C   0  0  0  0  0  3  0  0  0  0  0  0
  186.5480  177.7840  146.0900 C   0  0  0  0  0  3  0  0  0  0  0  0
  187.0510  176.6570  146.7460 C   0  0  0  0  0  3  0  0  0  0  0  0
  188.6830  176.3440  144.9730 C   0  0  0  0  0  0  0  0  0  0  0  0
  188.1140  175.9400  146.1900 C   0  0  0  0  0  3  0  0  0  0  0  0
  1 12  1  6  0  0  0
  1 10  1  0  0  0  0
  2  5  1  0  0  0  0
  3 11  1  0  0  0  0
  5  8  1  0  0  0  0
  6 11  1  0  0  0  0
  6  4  2  0  0  0  0
  7  1  1  0  0  0  0
  7  5  2  0  0  0  0
  8  3  2  0  0  0  0
  8 27  1  0  0  0  0
  9  6  1  0  0  0  0
 10  3  1  0  0  0  0
 10  9  1  0  0  0  0
 13 20  1  0  0  0  0
 14 19  1  0  0  0  0
 15 21  1  0  0  0  0
 16 17  1  0  0  0  0
 16  7  1  0  0  0  0
 18 13  2  0  0  0  0
 19 15  2  0  0  0  0
 19 18  1  0  0  0  0
 20 17  2  0  0  0  0
 21 22  2  0  0  0  0
 21 20  1  0  0  0  0
 22 16  1  0  0  0  0
 23 25  1  0  0  0  0
 24 23  2  0  0  0  0
 24 27  1  0  0  0  0
 25 26  2  0  0  0  0
 27 28  2  0  0  0  0
 28 26  1  0  0  0  0
M  END
>  <MODEL>
9

>  <REMARK>
 VINA RESULT:      -6.8      4.546      6.267
  Name = 
  2 active torsions:
  status: ('A' for Active; 'I' for Inactive)
    1  A    between atoms: N_8  and  C_16
    2  A    between atoms: C_18  and  C_25
                            x       y       z     vdW  Elec       q    Type
                         _______ _______ _______ _____ _____    ______ ____

>  <TORSDO>
F 2

$$$$
