=
 OpenBabel11042416573D

 35 38  0  0  1  0  0  0  0  0999 V2000
  189.6590  173.5060  143.4220 O   0  0  0  0  0  0  0  0  0  0  0  0
  188.9850  172.4460  142.7500 C   0  0  0  0  0  2  0  0  0  0  0  0
  189.5300  172.2770  141.4070 N   0  0  0  0  0  2  0  0  0  0  0  0
  191.4570  176.5430  142.9770 C   0  0  0  0  0  0  0  0  0  0  0  0
  189.6800  174.8030  142.9000 C   0  0  0  0  0  0  0  0  0  0  0  0
  191.5100  171.0540  141.4670 O   0  0  0  0  0  0  0  0  0  0  0  0
  190.7260  177.6660  143.0190 C   0  0  0  0  0  3  0  0  0  0  0  0
  191.7280  173.3490  140.7960 C   0  0  1  0  0  3  0  0  0  0  0  0
  188.4390  176.9210  142.4130 C   0  0  0  0  0  0  0  0  0  0  0  0
  188.5640  175.5310  142.9110 C   0  0  0  0  0  3  0  0  0  0  0  0
  190.9350  172.1430  141.2000 C   0  0  0  0  0  0  0  0  0  0  0  0
  189.3910  177.8100  142.5040 N   0  0  0  0  0  0  0  0  0  0  0  0
  192.8060  173.9580  142.8080 O   0  0  0  0  0  0  0  0  0  0  0  0
  190.9310  175.3280  142.2640 C   0  0  2  0  0  3  0  0  0  0  0  0
  191.9390  174.2350  141.9900 C   0  0  0  0  0  0  0  0  0  0  0  0
  187.1290  177.3620  141.9070 C   0  0  0  0  0  0  0  0  0  0  0  0
  186.9060  177.6980  140.6610 O   0  0  0  0  0  0  0  0  0  0  0  0
  185.0150  177.9240  141.7550 C   0  0  0  0  0  3  0  0  0  0  0  0
  185.6480  178.0430  140.5280 C   0  0  0  0  0  3  0  0  0  0  0  0
  185.9720  177.4820  142.6520 C   0  0  0  0  0  3  0  0  0  0  0  0
  192.9500  172.9860  140.2190 O   0  0  0  0  0  0  0  0  0  0  0  0
  193.2430  174.0200  139.3280 C   0  0  0  0  0  2  0  0  0  0  0  0
  192.2850  173.9630  138.1560 C   0  0  0  0  0  1  0  0  0  0  0  0
  192.7220  176.5020  143.5800 O   0  0  0  0  0  0  0  0  0  0  0  0
  192.9530  176.8600  144.9360 C   0  0  0  0  0  2  0  0  0  0  0  0
  192.4420  175.7580  145.8430 C   0  0  0  0  0  2  0  0  0  0  0  0
  191.7270  176.3560  147.0440 C   0  0  0  0  0  2  0  0  0  0  0  0
  190.5250  177.0670  146.6250 N   0  0  0  0  0  2  0  0  0  0  0  0
  188.9640  174.9220  146.9980 S   0  0  0  0  0  0  0  0  0  0  0  0
  189.2250  176.4690  146.5260 C   0  0  0  0  0  0  0  0  0  0  0  0
  188.1230  177.2350  146.0410 N   0  0  0  0  0  2  0  0  0  0  0  0
  184.5640  177.7400  146.0210 O   0  0  0  0  0  1  0  0  0  0  0  0
  185.8840  178.1250  146.2480 C   0  0  1  0  0  3  0  0  0  0  0  0
  186.3200  177.6260  147.6070 C   0  0  0  0  0  2  0  0  0  0  0  0
  186.7490  176.8840  146.3580 C   0  0  2  0  0  3  0  0  0  0  0  0
  2  1  1  0  0  0  0
  3  2  1  0  0  0  0
  4  7  2  0  0  0  0
  4 24  1  0  0  0  0
  5 10  2  0  0  0  0
  5  1  1  0  0  0  0
  8 21  1  1  0  0  0
  8 11  1  0  0  0  0
  8 15  1  0  0  0  0
  9 12  2  0  0  0  0
  9 10  1  0  0  0  0
 11  3  1  0  0  0  0
 11  6  2  0  0  0  0
 12  7  1  0  0  0  0
 14 15  1  1  0  0  0
 14  5  1  0  0  0  0
 14  4  1  0  0  0  0
 15 13  2  0  0  0  0
 16  9  1  0  0  0  0
 16 20  2  0  0  0  0
 17 16  1  0  0  0  0
 18 20  1  0  0  0  0
 19 17  1  0  0  0  0
 19 18  2  0  0  0  0
 22 21  1  0  0  0  0
 23 22  1  0  0  0  0
 24 25  1  0  0  0  0
 25 26  1  0  0  0  0
 26 27  1  0  0  0  0
 28 27  1  0  0  0  0
 30 28  1  0  0  0  0
 30 29  2  0  0  0  0
 31 30  1  0  0  0  0
 33 32  1  1  0  0  0
 33 35  1  0  0  0  0
 33 34  1  0  0  0  0
 35 31  1  6  0  0  0
 35 34  1  0  0  0  0
M  END
>  <MODEL>
1

>  <REMARK>
 VINA RESULT:      -6.0      0.000      0.000
  Name = 
  11 active torsions:
  status: ('A' for Active; 'I' for Inactive)
    1  A    between atoms: C_1  and  C_20
    2  A    between atoms: C_1  and  C_25
    3  A    between atoms: C_4  and  C_26
    4  A    between atoms: C_9  and  O_14
    5  A    between atoms: N_11  and  C_20
    6  A    between atoms: N_11  and  C_33
    7  A    between atoms: O_14  and  C_23
    8  A    between atoms: C_16  and  O_29
    9  A    between atoms: C_21  and  N_30
   10  A    between atoms: C_25  and  O_29
   11  A    between atoms: N_30  and  C_33
                            x       y       z     vdW  Elec       q    Type
                         _______ _______ _______ _____ _____    ______ ____

>  <TORSDO>
F 11

$$$$
=
 OpenBabel11042416573D

 35 38  0  0  1  0  0  0  0  0999 V2000
  190.3960  173.4310  145.1520 O   0  0  0  0  0  0  0  0  0  0  0  0
  189.5770  172.3030  144.8570 C   0  0  0  0  0  2  0  0  0  0  0  0
  189.3640  172.2010  143.4180 N   0  0  0  0  0  2  0  0  0  0  0  0
  191.4050  176.6530  144.0350 C   0  0  0  0  0  0  0  0  0  0  0  0
  190.0210  174.7230  144.7730 C   0  0  0  0  0  0  0  0  0  0  0  0
  191.1970  171.2100  142.3800 O   0  0  0  0  0  0  0  0  0  0  0  0
  190.6970  177.6860  144.5130 C   0  0  0  0  0  3  0  0  0  0  0  0
  190.8160  173.5170  141.8330 C   0  0  1  0  0  3  0  0  0  0  0  0
  188.5100  176.6880  145.1220 C   0  0  0  0  0  0  0  0  0  0  0  0
  189.0060  175.3200  145.4000 C   0  0  0  0  0  3  0  0  0  0  0  0
  190.4650  172.2270  142.5120 C   0  0  0  0  0  0  0  0  0  0  0  0
  189.2820  177.6790  144.7660 N   0  0  0  0  0  0  0  0  0  0  0  0
  192.7140  174.2390  143.0400 O   0  0  0  0  0  0  0  0  0  0  0  0
  190.7060  175.3890  143.6190 C   0  0  2  0  0  3  0  0  0  0  0  0
  191.5270  174.4180  142.8020 C   0  0  0  0  0  0  0  0  0  0  0  0
  187.0910  176.9790  145.3870 C   0  0  0  0  0  0  0  0  0  0  0  0
  186.3050  177.5950  144.5410 O   0  0  0  0  0  0  0  0  0  0  0  0
  185.1150  177.1240  146.3250 C   0  0  0  0  0  3  0  0  0  0  0  0
  185.1080  177.7020  145.0670 C   0  0  0  0  0  3  0  0  0  0  0  0
  186.3990  176.6530  146.5370 C   0  0  0  0  0  3  0  0  0  0  0  0
  191.5930  173.2970  140.6900 O   0  0  0  0  0  0  0  0  0  0  0  0
  190.6940  173.3850  139.6260 C   0  0  0  0  0  2  0  0  0  0  0  0
  191.4610  173.5260  138.3280 C   0  0  0  0  0  1  0  0  0  0  0  0
  192.7970  176.7550  143.9000 O   0  0  0  0  0  0  0  0  0  0  0  0
  193.6770  176.9480  144.9990 C   0  0  0  0  0  2  0  0  0  0  0  0
  193.2620  176.0430  146.1420 C   0  0  0  0  0  2  0  0  0  0  0  0
  194.1080  174.7790  146.1450 C   0  0  0  0  0  2  0  0  0  0  0  0
  195.5120  175.1010  145.9200 N   0  0  0  0  0  2  0  0  0  0  0  0
  196.8010  172.7520  145.9370 S   0  0  0  0  0  0  0  0  0  0  0  0
  196.4530  174.2180  145.2940 C   0  0  0  0  0  0  0  0  0  0  0  0
  197.0810  174.5980  144.0690 N   0  0  0  0  0  2  0  0  0  0  0  0
  196.6940  176.0940  140.8240 O   0  0  0  0  0  1  0  0  0  0  0  0
  197.3800  175.8240  142.0060 C   0  0  1  0  0  3  0  0  0  0  0  0
  196.9340  176.7990  143.0730 C   0  0  0  0  0  2  0  0  0  0  0  0
  196.3870  175.3860  143.0650 C   0  0  2  0  0  3  0  0  0  0  0  0
  2  1  1  0  0  0  0
  3  2  1  0  0  0  0
  4  7  2  0  0  0  0
  5  1  1  0  0  0  0
  5 10  2  0  0  0  0
  6 11  2  0  0  0  0
  7 12  1  0  0  0  0
  8 21  1  6  0  0  0
  8 11  1  0  0  0  0
  8 15  1  0  0  0  0
  9 16  1  0  0  0  0
  9 10  1  0  0  0  0
 11  3  1  0  0  0  0
 12  9  2  0  0  0  0
 14 15  1  1  0  0  0
 14  4  1  0  0  0  0
 14  5  1  0  0  0  0
 15 13  2  0  0  0  0
 16 20  2  0  0  0  0
 17 19  1  0  0  0  0
 17 16  1  0  0  0  0
 18 20  1  0  0  0  0
 19 18  2  0  0  0  0
 22 21  1  0  0  0  0
 23 22  1  0  0  0  0
 24  4  1  0  0  0  0
 24 25  1  0  0  0  0
 25 26  1  0  0  0  0
 26 27  1  0  0  0  0
 28 27  1  0  0  0  0
 30 28  1  0  0  0  0
 30 29  2  0  0  0  0
 31 30  1  0  0  0  0
 33 32  1  6  0  0  0
 33 35  1  0  0  0  0
 33 34  1  0  0  0  0
 35 34  1  0  0  0  0
 35 31  1  1  0  0  0
M  END
>  <MODEL>
2

>  <REMARK>
 VINA RESULT:      -5.7      3.001      5.269
  Name = 
  11 active torsions:
  status: ('A' for Active; 'I' for Inactive)
    1  A    between atoms: C_1  and  C_20
    2  A    between atoms: C_1  and  C_25
    3  A    between atoms: C_4  and  C_26
    4  A    between atoms: C_9  and  O_14
    5  A    between atoms: N_11  and  C_20
    6  A    between atoms: N_11  and  C_33
    7  A    between atoms: O_14  and  C_23
    8  A    between atoms: C_16  and  O_29
    9  A    between atoms: C_21  and  N_30
   10  A    between atoms: C_25  and  O_29
   11  A    between atoms: N_30  and  C_33
                            x       y       z     vdW  Elec       q    Type
                         _______ _______ _______ _____ _____    ______ ____

>  <TORSDO>
F 11

$$$$
=
 OpenBabel11042416573D

 35 38  0  0  1  0  0  0  0  0999 V2000
  189.5580  177.3240  142.9230 O   0  0  0  0  0  0  0  0  0  0  0  0
  188.5180  177.9800  142.2030 C   0  0  0  0  0  2  0  0  0  0  0  0
  187.2250  177.6870  142.8110 N   0  0  0  0  0  2  0  0  0  0  0  0
  190.3420  174.5440  144.9980 C   0  0  0  0  0  0  0  0  0  0  0  0
  189.5680  175.9370  143.0870 C   0  0  0  0  0  0  0  0  0  0  0  0
  186.8630  179.0390  144.6720 O   0  0  0  0  0  0  0  0  0  0  0  0
  190.7890  173.4500  144.3650 C   0  0  0  0  0  3  0  0  0  0  0  0
  187.1180  176.6950  145.1260 C   0  0  1  0  0  3  0  0  0  0  0  0
  189.8920  173.6750  142.0630 C   0  0  0  0  0  0  0  0  0  0  0  0
  189.8280  175.1550  142.0380 C   0  0  0  0  0  3  0  0  0  0  0  0
  187.0160  177.8770  144.2100 C   0  0  0  0  0  0  0  0  0  0  0  0
  190.3360  172.9880  143.0800 N   0  0  0  0  0  0  0  0  0  0  0  0
  189.2360  176.9990  146.1290 O   0  0  0  0  0  0  0  0  0  0  0  0
  189.2090  175.3410  144.4140 C   0  0  2  0  0  3  0  0  0  0  0  0
  188.5650  176.3480  145.3390 C   0  0  0  0  0  0  0  0  0  0  0  0
  189.5600  172.9450  140.8290 C   0  0  0  0  0  0  0  0  0  0  0  0
  188.5360  173.2350  140.0660 O   0  0  0  0  0  0  0  0  0  0  0  0
  189.5790  171.5310  139.1540 C   0  0  0  0  0  3  0  0  0  0  0  0
  188.5120  172.4070  139.0480 C   0  0  0  0  0  3  0  0  0  0  0  0
  190.2620  171.8770  140.3070 C   0  0  0  0  0  3  0  0  0  0  0  0
  186.4760  176.9370  146.3450 O   0  0  0  0  0  0  0  0  0  0  0  0
  185.1210  176.7340  146.0800 C   0  0  0  0  0  2  0  0  0  0  0  0
  184.3140  177.8660  146.6800 C   0  0  0  0  0  1  0  0  0  0  0  0
  190.9130  174.9370  146.2160 O   0  0  0  0  0  0  0  0  0  0  0  0
  192.3160  175.0090  146.4330 C   0  0  0  0  0  2  0  0  0  0  0  0
  192.7870  176.4340  146.2210 C   0  0  0  0  0  2  0  0  0  0  0  0
  194.2840  176.5350  146.4660 C   0  0  0  0  0  2  0  0  0  0  0  0
  194.9410  175.2690  146.1610 N   0  0  0  0  0  2  0  0  0  0  0  0
  197.1130  174.0460  145.1770 S   0  0  0  0  0  0  0  0  0  0  0  0
  195.8390  175.0700  145.0600 C   0  0  0  0  0  0  0  0  0  0  0  0
  195.6110  175.7450  143.8230 N   0  0  0  0  0  2  0  0  0  0  0  0
  194.3320  175.5670  140.4680 O   0  0  0  0  0  1  0  0  0  0  0  0
  194.4990  176.1630  141.7170 C   0  0  1  0  0  3  0  0  0  0  0  0
  193.4830  175.5900  142.6800 C   0  0  0  0  0  2  0  0  0  0  0  0
  194.9170  175.1040  142.7180 C   0  0  2  0  0  3  0  0  0  0  0  0
  1  5  1  0  0  0  0
  2  3  1  0  0  0  0
  2  1  1  0  0  0  0
  3 11  1  0  0  0  0
  4 24  1  0  0  0  0
  7  4  2  0  0  0  0
  8 15  1  0  0  0  0
  8 21  1  1  0  0  0
  9 12  2  0  0  0  0
 10  9  1  0  0  0  0
 10  5  2  0  0  0  0
 11  6  2  0  0  0  0
 11  8  1  0  0  0  0
 12  7  1  0  0  0  0
 14  5  1  6  0  0  0
 14  4  1  0  0  0  0
 14 15  1  0  0  0  0
 15 13  2  0  0  0  0
 16  9  1  0  0  0  0
 17 16  1  0  0  0  0
 18 20  1  0  0  0  0
 19 18  2  0  0  0  0
 19 17  1  0  0  0  0
 20 16  2  0  0  0  0
 22 21  1  0  0  0  0
 22 23  1  0  0  0  0
 24 25  1  0  0  0  0
 26 25  1  0  0  0  0
 26 27  1  0  0  0  0
 28 27  1  0  0  0  0
 30 29  2  0  0  0  0
 30 28  1  0  0  0  0
 31 30  1  0  0  0  0
 33 32  1  6  0  0  0
 33 34  1  0  0  0  0
 33 35  1  0  0  0  0
 34 35  1  0  0  0  0
 35 31  1  1  0  0  0
M  END
>  <MODEL>
3

>  <REMARK>
 VINA RESULT:      -5.7      2.965      6.821
  Name = 
  11 active torsions:
  status: ('A' for Active; 'I' for Inactive)
    1  A    between atoms: C_1  and  C_20
    2  A    between atoms: C_1  and  C_25
    3  A    between atoms: C_4  and  C_26
    4  A    between atoms: C_9  and  O_14
    5  A    between atoms: N_11  and  C_20
    6  A    between atoms: N_11  and  C_33
    7  A    between atoms: O_14  and  C_23
    8  A    between atoms: C_16  and  O_29
    9  A    between atoms: C_21  and  N_30
   10  A    between atoms: C_25  and  O_29
   11  A    between atoms: N_30  and  C_33
                            x       y       z     vdW  Elec       q    Type
                         _______ _______ _______ _____ _____    ______ ____

>  <TORSDO>
F 11

$$$$
=
 OpenBabel11042416573D

 35 38  0  0  1  0  0  0  0  0999 V2000
  191.2810  172.2320  144.3960 O   0  0  0  0  0  0  0  0  0  0  0  0
  192.3050  171.3470  143.9510 C   0  0  0  0  0  2  0  0  0  0  0  0
  193.5380  172.0870  143.7080 N   0  0  0  0  0  2  0  0  0  0  0  0
  190.1090  175.5880  144.3060 C   0  0  0  0  0  0  0  0  0  0  0  0
  190.8730  173.3220  143.6220 C   0  0  0  0  0  0  0  0  0  0  0  0
  194.6700  172.4820  145.7030 O   0  0  0  0  0  0  0  0  0  0  0  0
  189.2250  175.8730  143.3390 C   0  0  0  0  0  3  0  0  0  0  0  0
  193.7960  174.4300  144.6030 C   0  0  1  0  0  3  0  0  0  0  0  0
  189.6620  174.1610  141.5990 C   0  0  0  0  0  0  0  0  0  0  0  0
  190.1760  173.1080  142.5060 C   0  0  0  0  0  3  0  0  0  0  0  0
  194.0740  172.9600  144.7010 C   0  0  0  0  0  0  0  0  0  0  0  0
  189.2420  175.3270  142.0090 N   0  0  0  0  0  0  0  0  0  0  0  0
  192.1280  174.7530  146.2440 O   0  0  0  0  0  0  0  0  0  0  0  0
  191.2910  174.7080  144.0110 C   0  0  2  0  0  3  0  0  0  0  0  0
  192.3890  174.7060  145.0490 C   0  0  0  0  0  0  0  0  0  0  0  0
  189.4930  173.8280  140.1750 C   0  0  0  0  0  0  0  0  0  0  0  0
  188.4820  174.2330  139.4490 O   0  0  0  0  0  0  0  0  0  0  0  0
  189.7820  173.0270  138.1550 C   0  0  0  0  0  3  0  0  0  0  0  0
  188.6180  173.7720  138.2280 C   0  0  0  0  0  3  0  0  0  0  0  0
  190.3530  173.0600  139.4150 C   0  0  0  0  0  3  0  0  0  0  0  0
  194.7150  175.1730  145.3520 O   0  0  0  0  0  0  0  0  0  0  0  0
  194.8880  176.3560  144.6300 C   0  0  0  0  0  2  0  0  0  0  0  0
  195.8360  176.1080  143.4760 C   0  0  0  0  0  1  0  0  0  0  0  0
  189.9460  176.1270  145.5900 O   0  0  0  0  0  0  0  0  0  0  0  0
  189.5300  177.4650  145.8300 C   0  0  0  0  0  2  0  0  0  0  0  0
  188.4540  177.4740  146.8970 C   0  0  0  0  0  2  0  0  0  0  0  0
  187.5700  176.2450  146.7630 C   0  0  0  0  0  2  0  0  0  0  0  0
  186.1610  176.6150  146.8290 N   0  0  0  0  0  2  0  0  0  0  0  0
  184.4210  178.5190  146.1030 S   0  0  0  0  0  0  0  0  0  0  0  0
  185.4540  177.2890  145.7790 C   0  0  0  0  0  0  0  0  0  0  0  0
  185.6680  176.9120  144.4180 N   0  0  0  0  0  2  0  0  0  0  0  0
  185.3330  177.7760  140.9450 O   0  0  0  0  0  1  0  0  0  0  0  0
  186.0380  177.3480  142.0690 C   0  0  1  0  0  3  0  0  0  0  0  0
  186.5070  178.5540  142.8510 C   0  0  0  0  0  2  0  0  0  0  0  0
  185.2910  177.7800  143.3160 C   0  0  2  0  0  3  0  0  0  0  0  0
  2  1  1  0  0  0  0
  3  2  1  0  0  0  0
  3 11  1  0  0  0  0
  4 24  1  0  0  0  0
  5  1  1  0  0  0  0
  7  4  2  0  0  0  0
  8 11  1  0  0  0  0
  8 15  1  0  0  0  0
  8 21  1  1  0  0  0
  9 12  2  0  0  0  0
  9 10  1  0  0  0  0
 10  5  2  0  0  0  0
 11  6  2  0  0  0  0
 12  7  1  0  0  0  0
 14  5  1  1  0  0  0
 14  4  1  0  0  0  0
 14 15  1  0  0  0  0
 15 13  2  0  0  0  0
 16  9  1  0  0  0  0
 17 16  1  0  0  0  0
 18 19  2  0  0  0  0
 18 20  1  0  0  0  0
 19 17  1  0  0  0  0
 20 16  2  0  0  0  0
 22 21  1  0  0  0  0
 23 22  1  0  0  0  0
 24 25  1  0  0  0  0
 25 26  1  0  0  0  0
 27 28  1  0  0  0  0
 27 26  1  0  0  0  0
 30 29  2  0  0  0  0
 30 28  1  0  0  0  0
 31 30  1  0  0  0  0
 33 32  1  6  0  0  0
 33 34  1  0  0  0  0
 33 35  1  0  0  0  0
 34 35  1  0  0  0  0
 35 31  1  1  0  0  0
M  END
>  <MODEL>
4

>  <REMARK>
 VINA RESULT:      -5.6      2.631      4.449
  Name = 
  11 active torsions:
  status: ('A' for Active; 'I' for Inactive)
    1  A    between atoms: C_1  and  C_20
    2  A    between atoms: C_1  and  C_25
    3  A    between atoms: C_4  and  C_26
    4  A    between atoms: C_9  and  O_14
    5  A    between atoms: N_11  and  C_20
    6  A    between atoms: N_11  and  C_33
    7  A    between atoms: O_14  and  C_23
    8  A    between atoms: C_16  and  O_29
    9  A    between atoms: C_21  and  N_30
   10  A    between atoms: C_25  and  O_29
   11  A    between atoms: N_30  and  C_33
                            x       y       z     vdW  Elec       q    Type
                         _______ _______ _______ _____ _____    ______ ____

>  <TORSDO>
F 11

$$$$
=
 OpenBabel11042416573D

 35 38  0  0  1  0  0  0  0  0999 V2000
  190.5300  177.7480  142.7500 O   0  0  0  0  0  0  0  0  0  0  0  0
  191.2390  178.3270  143.8420 C   0  0  0  0  0  2  0  0  0  0  0  0
  191.7690  177.2800  144.7080 N   0  0  0  0  0  2  0  0  0  0  0  0
  188.6780  174.9090  141.6760 C   0  0  0  0  0  0  0  0  0  0  0  0
  189.4400  176.8990  142.9590 C   0  0  0  0  0  0  0  0  0  0  0  0
  193.7340  176.3950  143.8280 O   0  0  0  0  0  0  0  0  0  0  0  0
  187.3490  174.9830  141.8350 C   0  0  0  0  0  3  0  0  0  0  0  0
  191.8590  174.8970  143.8920 C   0  0  1  0  0  3  0  0  0  0  0  0
  187.0510  176.6350  143.6610 C   0  0  0  0  0  0  0  0  0  0  0  0
  188.2920  177.4060  143.4110 C   0  0  0  0  0  3  0  0  0  0  0  0
  192.5360  176.2050  144.1700 C   0  0  0  0  0  0  0  0  0  0  0  0
  186.6770  175.6140  142.9380 N   0  0  0  0  0  0  0  0  0  0  0  0
  191.5960  174.9380  141.5440 O   0  0  0  0  0  0  0  0  0  0  0  0
  189.5950  175.4230  142.7500 C   0  0  2  0  0  3  0  0  0  0  0  0
  191.0440  175.0100  142.6350 C   0  0  0  0  0  0  0  0  0  0  0  0
  186.1260  177.1270  144.6940 C   0  0  0  0  0  0  0  0  0  0  0  0
  185.0790  177.8700  144.4380 O   0  0  0  0  0  0  0  0  0  0  0  0
  185.1410  177.5420  146.6080 C   0  0  0  0  0  3  0  0  0  0  0  0
  184.4600  178.1420  145.5620 C   0  0  0  0  0  3  0  0  0  0  0  0
  186.2220  176.8820  146.0500 C   0  0  0  0  0  3  0  0  0  0  0  0
  192.7850  173.8530  143.7960 O   0  0  0  0  0  0  0  0  0  0  0  0
  192.7040  173.1910  145.0230 C   0  0  0  0  0  2  0  0  0  0  0  0
  194.0080  172.4720  145.2960 C   0  0  0  0  0  1  0  0  0  0  0  0
  189.2180  174.3320  140.5180 O   0  0  0  0  0  0  0  0  0  0  0  0
  188.4570  173.5500  139.6060 C   0  0  0  0  0  2  0  0  0  0  0  0
  188.7770  173.9770  138.1870 C   0  0  0  0  0  2  0  0  0  0  0  0
  190.2100  173.6090  137.8380 C   0  0  0  0  0  2  0  0  0  0  0  0
  190.4540  172.1950  138.0960 N   0  0  0  0  0  2  0  0  0  0  0  0
  193.0080  171.4400  137.7980 S   0  0  0  0  0  0  0  0  0  0  0  0
  191.6530  171.6770  138.6890 C   0  0  0  0  0  0  0  0  0  0  0  0
  191.6910  171.3890  140.0870 N   0  0  0  0  0  2  0  0  0  0  0  0
  189.4470  171.6220  142.8850 O   0  0  0  0  0  1  0  0  0  0  0  0
  190.6910  171.4280  142.2880 C   0  0  1  0  0  3  0  0  0  0  0  0
  190.8130  169.9850  141.8530 C   0  0  0  0  0  2  0  0  0  0  0  0
  190.4890  171.0560  140.8320 C   0  0  2  0  0  3  0  0  0  0  0  0
  1  5  1  0  0  0  0
  1  2  1  0  0  0  0
  2  3  1  0  0  0  0
  4  7  2  0  0  0  0
  5 10  2  0  0  0  0
  6 11  2  0  0  0  0
  7 12  1  0  0  0  0
  8 21  1  6  0  0  0
  8 11  1  0  0  0  0
  9 16  1  0  0  0  0
 10  9  1  0  0  0  0
 11  3  1  0  0  0  0
 12  9  2  0  0  0  0
 13 15  2  0  0  0  0
 14  4  1  6  0  0  0
 14  5  1  0  0  0  0
 15 14  1  0  0  0  0
 15  8  1  0  0  0  0
 16 20  2  0  0  0  0
 17 16  1  0  0  0  0
 17 19  1  0  0  0  0
 19 18  2  0  0  0  0
 20 18  1  0  0  0  0
 21 22  1  0  0  0  0
 22 23  1  0  0  0  0
 24  4  1  0  0  0  0
 25 24  1  0  0  0  0
 26 25  1  0  0  0  0
 27 28  1  0  0  0  0
 27 26  1  0  0  0  0
 28 30  1  0  0  0  0
 29 30  2  0  0  0  0
 30 31  1  0  0  0  0
 33 32  1  1  0  0  0
 34 33  1  0  0  0  0
 35 31  1  6  0  0  0
 35 34  1  0  0  0  0
 35 33  1  0  0  0  0
M  END
>  <MODEL>
5

>  <REMARK>
 VINA RESULT:      -5.5      2.830      6.368
  Name = 
  11 active torsions:
  status: ('A' for Active; 'I' for Inactive)
    1  A    between atoms: C_1  and  C_20
    2  A    between atoms: C_1  and  C_25
    3  A    between atoms: C_4  and  C_26
    4  A    between atoms: C_9  and  O_14
    5  A    between atoms: N_11  and  C_20
    6  A    between atoms: N_11  and  C_33
    7  A    between atoms: O_14  and  C_23
    8  A    between atoms: C_16  and  O_29
    9  A    between atoms: C_21  and  N_30
   10  A    between atoms: C_25  and  O_29
   11  A    between atoms: N_30  and  C_33
                            x       y       z     vdW  Elec       q    Type
                         _______ _______ _______ _____ _____    ______ ____

>  <TORSDO>
F 11

$$$$
=
 OpenBabel11042416573D

 35 38  0  0  1  0  0  0  0  0999 V2000
  189.5910  172.3570  143.6170 O   0  0  0  0  0  0  0  0  0  0  0  0
  190.7020  171.8240  144.3320 C   0  0  0  0  0  2  0  0  0  0  0  0
  191.7650  172.8200  144.4210 N   0  0  0  0  0  2  0  0  0  0  0  0
  188.5920  174.7110  141.1450 C   0  0  0  0  0  0  0  0  0  0  0  0
  189.7250  172.8250  142.3070 C   0  0  0  0  0  0  0  0  0  0  0  0
  191.3280  174.3450  146.1250 O   0  0  0  0  0  0  0  0  0  0  0  0
  188.5250  174.2480  139.8900 C   0  0  0  0  0  3  0  0  0  0  0  0
  191.2750  175.2350  143.8950 C   0  0  1  0  0  3  0  0  0  0  0  0
  190.0610  172.3000  139.8830 C   0  0  0  0  0  0  0  0  0  0  0  0
  189.9210  171.9540  141.3170 C   0  0  0  0  0  3  0  0  0  0  0  0
  191.4940  174.1380  144.8930 C   0  0  0  0  0  0  0  0  0  0  0  0
  189.4200  173.2820  139.3100 N   0  0  0  0  0  0  0  0  0  0  0  0
  188.9280  175.5110  143.9350 O   0  0  0  0  0  0  0  0  0  0  0  0
  189.7270  174.3000  142.0410 C   0  0  2  0  0  3  0  0  0  0  0  0
  189.8990  175.1110  143.3050 C   0  0  0  0  0  0  0  0  0  0  0  0
  190.8640  171.4090  139.0290 C   0  0  0  0  0  0  0  0  0  0  0  0
  190.6870  171.2860  137.7380 O   0  0  0  0  0  0  0  0  0  0  0  0
  192.3380  169.9550  138.3080 C   0  0  0  0  0  3  0  0  0  0  0  0
  191.5530  170.4210  137.2670 C   0  0  0  0  0  3  0  0  0  0  0  0
  191.8950  170.5940  139.4530 C   0  0  0  0  0  3  0  0  0  0  0  0
  191.4590  176.4960  144.4740 O   0  0  0  0  0  0  0  0  0  0  0  0
  191.8890  177.3100  143.4250 C   0  0  0  0  0  2  0  0  0  0  0  0
  191.1910  178.6520  143.5090 C   0  0  0  0  0  1  0  0  0  0  0  0
  187.6160  175.5970  141.6230 O   0  0  0  0  0  0  0  0  0  0  0  0
  187.2380  176.7850  140.9400 C   0  0  0  0  0  2  0  0  0  0  0  0
  187.9210  177.9760  141.5840 C   0  0  0  0  0  2  0  0  0  0  0  0
  187.3590  178.2140  142.9770 C   0  0  0  0  0  2  0  0  0  0  0  0
  186.1740  179.0610  142.9140 N   0  0  0  0  0  2  0  0  0  0  0  0
  183.8230  178.2910  141.8840 S   0  0  0  0  0  0  0  0  0  0  0  0
  184.8360  178.5960  143.1360 C   0  0  0  0  0  0  0  0  0  0  0  0
  184.3740  178.3570  144.4660 N   0  0  0  0  0  2  0  0  0  0  0  0
  186.5870  177.3100  147.0990 O   0  0  0  0  0  1  0  0  0  0  0  0
  185.4100  177.2580  146.3550 C   0  0  1  0  0  3  0  0  0  0  0  0
  184.4400  178.2910  146.8850 C   0  0  0  0  0  2  0  0  0  0  0  0
  185.2280  178.5730  145.6220 C   0  0  2  0  0  3  0  0  0  0  0  0
  1  2  1  0  0  0  0
  2  3  1  0  0  0  0
  3 11  1  0  0  0  0
  4 24  1  0  0  0  0
  5  1  1  0  0  0  0
  7  4  2  0  0  0  0
  8 21  1  1  0  0  0
  8 11  1  0  0  0  0
  9 10  1  0  0  0  0
 10  5  2  0  0  0  0
 11  6  2  0  0  0  0
 12  9  2  0  0  0  0
 12  7  1  0  0  0  0
 14  4  1  1  0  0  0
 14  5  1  0  0  0  0
 14 15  1  0  0  0  0
 15  8  1  0  0  0  0
 15 13  2  0  0  0  0
 16 20  2  0  0  0  0
 16  9  1  0  0  0  0
 17 16  1  0  0  0  0
 18 20  1  0  0  0  0
 19 17  1  0  0  0  0
 19 18  2  0  0  0  0
 22 23  1  0  0  0  0
 22 21  1  0  0  0  0
 25 26  1  0  0  0  0
 25 24  1  0  0  0  0
 26 27  1  0  0  0  0
 28 27  1  0  0  0  0
 28 30  1  0  0  0  0
 29 30  2  0  0  0  0
 30 31  1  0  0  0  0
 33 34  1  0  0  0  0
 33 32  1  1  0  0  0
 35 31  1  6  0  0  0
 35 33  1  0  0  0  0
 35 34  1  0  0  0  0
M  END
>  <MODEL>
6

>  <REMARK>
 VINA RESULT:      -5.5      2.734      5.683
  Name = 
  11 active torsions:
  status: ('A' for Active; 'I' for Inactive)
    1  A    between atoms: C_1  and  C_20
    2  A    between atoms: C_1  and  C_25
    3  A    between atoms: C_4  and  C_26
    4  A    between atoms: C_9  and  O_14
    5  A    between atoms: N_11  and  C_20
    6  A    between atoms: N_11  and  C_33
    7  A    between atoms: O_14  and  C_23
    8  A    between atoms: C_16  and  O_29
    9  A    between atoms: C_21  and  N_30
   10  A    between atoms: C_25  and  O_29
   11  A    between atoms: N_30  and  C_33
                            x       y       z     vdW  Elec       q    Type
                         _______ _______ _______ _____ _____    ______ ____

>  <TORSDO>
F 11

$$$$
=
 OpenBabel11042416573D

 35 38  0  0  1  0  0  0  0  0999 V2000
  190.1010  173.1100  143.3200 O   0  0  0  0  0  0  0  0  0  0  0  0
  188.9990  172.3360  142.8540 C   0  0  0  0  0  2  0  0  0  0  0  0
  188.9760  172.3230  141.3960 N   0  0  0  0  0  2  0  0  0  0  0  0
  192.2970  175.7950  142.5330 C   0  0  0  0  0  0  0  0  0  0  0  0
  190.2460  174.4550  142.9680 C   0  0  0  0  0  0  0  0  0  0  0  0
  190.4930  170.7680  140.5590 O   0  0  0  0  0  0  0  0  0  0  0  0
  191.9210  177.0040  142.9690 C   0  0  0  0  0  3  0  0  0  0  0  0
  191.0030  173.0690  140.0970 C   0  0  1  0  0  3  0  0  0  0  0  0
  189.4600  176.8180  143.2200 C   0  0  0  0  0  0  0  0  0  0  0  0
  189.4160  175.3610  143.4850 C   0  0  0  0  0  3  0  0  0  0  0  0
  190.1400  171.9750  140.6490 C   0  0  0  0  0  0  0  0  0  0  0  0
  190.5660  177.4840  143.0290 N   0  0  0  0  0  0  0  0  0  0  0  0
  192.8370  173.0840  141.5880 O   0  0  0  0  0  0  0  0  0  0  0  0
  191.2780  174.8520  141.9560 C   0  0  2  0  0  3  0  0  0  0  0  0
  191.8300  173.6630  141.2030 C   0  0  0  0  0  0  0  0  0  0  0  0
  188.2030  177.5780  143.3090 C   0  0  0  0  0  0  0  0  0  0  0  0
  187.5590  177.7910  144.4290 O   0  0  0  0  0  0  0  0  0  0  0  0
  186.4200  178.7560  142.8190 C   0  0  0  0  0  3  0  0  0  0  0  0
  186.4820  178.4950  144.1780 C   0  0  0  0  0  3  0  0  0  0  0  0
  187.5340  178.1640  142.2520 C   0  0  0  0  0  3  0  0  0  0  0  0
  191.8170  172.6020  139.0590 O   0  0  0  0  0  0  0  0  0  0  0  0
  191.3320  173.2370  137.9140 C   0  0  0  0  0  2  0  0  0  0  0  0
  190.8290  172.1960  136.9350 C   0  0  0  0  0  1  0  0  0  0  0  0
  193.6440  175.4110  142.5920 O   0  0  0  0  0  0  0  0  0  0  0  0
  194.7230  176.3080  142.3660 C   0  0  0  0  0  2  0  0  0  0  0  0
  195.7480  176.1530  143.4720 C   0  0  0  0  0  2  0  0  0  0  0  0
  195.1860  176.6720  144.7860 C   0  0  0  0  0  2  0  0  0  0  0  0
  195.0190  175.5810  145.7390 N   0  0  0  0  0  2  0  0  0  0  0  0
  193.3930  173.4730  145.4340 S   0  0  0  0  0  0  0  0  0  0  0  0
  193.7640  174.9510  146.0350 C   0  0  0  0  0  0  0  0  0  0  0  0
  192.8260  175.5990  146.8950 N   0  0  0  0  0  2  0  0  0  0  0  0
  189.7090  177.3890  146.8690 O   0  0  0  0  0  1  0  0  0  0  0  0
  190.7890  176.7600  147.4850 C   0  0  1  0  0  3  0  0  0  0  0  0
  190.5220  175.2740  147.5600 C   0  0  0  0  0  2  0  0  0  0  0  0
  191.4480  175.8210  146.4940 C   0  0  2  0  0  3  0  0  0  0  0  0
  2  1  1  0  0  0  0
  3  2  1  0  0  0  0
  4 24  1  0  0  0  0
  4  7  2  0  0  0  0
  5  1  1  0  0  0  0
  5 10  2  0  0  0  0
  6 11  2  0  0  0  0
  7 12  1  0  0  0  0
  8 21  1  6  0  0  0
  8 11  1  0  0  0  0
  8 15  1  0  0  0  0
  9 16  1  0  0  0  0
  9 10  1  0  0  0  0
 11  3  1  0  0  0  0
 12  9  2  0  0  0  0
 14 15  1  1  0  0  0
 14  4  1  0  0  0  0
 14  5  1  0  0  0  0
 15 13  2  0  0  0  0
 16 17  1  0  0  0  0
 18 19  2  0  0  0  0
 19 17  1  0  0  0  0
 20 18  1  0  0  0  0
 20 16  2  0  0  0  0
 22 21  1  0  0  0  0
 23 22  1  0  0  0  0
 25 24  1  0  0  0  0
 25 26  1  0  0  0  0
 26 27  1  0  0  0  0
 27 28  1  0  0  0  0
 28 30  1  0  0  0  0
 29 30  2  0  0  0  0
 30 31  1  0  0  0  0
 33 32  1  6  0  0  0
 33 34  1  0  0  0  0
 35 31  1  1  0  0  0
 35 33  1  0  0  0  0
 35 34  1  0  0  0  0
M  END
>  <MODEL>
7

>  <REMARK>
 VINA RESULT:      -5.5      2.106      3.002
  Name = 
  11 active torsions:
  status: ('A' for Active; 'I' for Inactive)
    1  A    between atoms: C_1  and  C_20
    2  A    between atoms: C_1  and  C_25
    3  A    between atoms: C_4  and  C_26
    4  A    between atoms: C_9  and  O_14
    5  A    between atoms: N_11  and  C_20
    6  A    between atoms: N_11  and  C_33
    7  A    between atoms: O_14  and  C_23
    8  A    between atoms: C_16  and  O_29
    9  A    between atoms: C_21  and  N_30
   10  A    between atoms: C_25  and  O_29
   11  A    between atoms: N_30  and  C_33
                            x       y       z     vdW  Elec       q    Type
                         _______ _______ _______ _____ _____    ______ ____

>  <TORSDO>
F 11

$$$$
=
 OpenBabel11042416573D

 35 38  0  0  1  0  0  0  0  0999 V2000
  190.5030  173.2180  145.0080 O   0  0  0  0  0  0  0  0  0  0  0  0
  189.6170  172.1010  145.0100 C   0  0  0  0  0  2  0  0  0  0  0  0
  189.0020  171.9460  143.6960 N   0  0  0  0  0  2  0  0  0  0  0  0
  191.1980  176.3640  143.5020 C   0  0  0  0  0  0  0  0  0  0  0  0
  190.0530  174.5030  144.6910 C   0  0  0  0  0  0  0  0  0  0  0  0
  190.4500  170.8660  142.2280 O   0  0  0  0  0  0  0  0  0  0  0  0
  190.6700  177.4340  144.1130 C   0  0  0  0  0  3  0  0  0  0  0  0
  189.9620  173.1580  141.7050 C   0  0  1  0  0  3  0  0  0  0  0  0
  188.7310  176.5200  145.3620 C   0  0  0  0  0  0  0  0  0  0  0  0
  189.2670  175.1520  145.5510 C   0  0  0  0  0  3  0  0  0  0  0  0
  189.8010  171.9070  142.5150 C   0  0  0  0  0  0  0  0  0  0  0  0
  189.3850  177.4750  144.7570 N   0  0  0  0  0  0  0  0  0  0  0  0
  192.1350  173.8770  142.2900 O   0  0  0  0  0  0  0  0  0  0  0  0
  190.3920  175.1030  143.3610 C   0  0  2  0  0  3  0  0  0  0  0  0
  190.9320  174.0780  142.3900 C   0  0  0  0  0  0  0  0  0  0  0  0
  187.4520  176.8590  146.0050 C   0  0  0  0  0  0  0  0  0  0  0  0
  187.3470  177.2750  147.2420 O   0  0  0  0  0  0  0  0  0  0  0  0
  185.3220  177.2020  146.3960 C   0  0  0  0  0  3  0  0  0  0  0  0
  186.0830  177.4910  147.5170 C   0  0  0  0  0  3  0  0  0  0  0  0
  186.2050  176.7920  145.4130 C   0  0  0  0  0  3  0  0  0  0  0  0
  190.3790  172.8710  140.4010 O   0  0  0  0  0  0  0  0  0  0  0  0
  189.1990  172.7920  139.6600 C   0  0  0  0  0  2  0  0  0  0  0  0
  188.5660  174.1650  139.5690 C   0  0  0  0  0  1  0  0  0  0  0  0
  192.4950  176.4220  142.9730 O   0  0  0  0  0  0  0  0  0  0  0  0
  193.6540  176.6390  143.7680 C   0  0  0  0  0  2  0  0  0  0  0  0
  193.7330  175.5740  144.8440 C   0  0  0  0  0  2  0  0  0  0  0  0
  194.9410  175.8160  145.7350 C   0  0  0  0  0  2  0  0  0  0  0  0
  195.7350  174.6000  145.8650 N   0  0  0  0  0  2  0  0  0  0  0  0
  197.1910  175.1500  143.6840 S   0  0  0  0  0  0  0  0  0  0  0  0
  196.7290  174.1790  144.9210 C   0  0  0  0  0  0  0  0  0  0  0  0
  197.3610  172.9070  145.0690 N   0  0  0  0  0  2  0  0  0  0  0  0
  195.4520  170.0300  146.0670 O   0  0  0  0  0  1  0  0  0  0  0  0
  196.5370  170.9010  146.1380 C   0  0  1  0  0  3  0  0  0  0  0  0
  197.5680  170.4960  145.1080 C   0  0  0  0  0  2  0  0  0  0  0  0
  196.6450  171.6660  144.8330 C   0  0  2  0  0  3  0  0  0  0  0  0
  1  2  1  0  0  0  0
  3  2  1  0  0  0  0
  4  7  2  0  0  0  0
  5  1  1  0  0  0  0
  5 10  2  0  0  0  0
  6 11  2  0  0  0  0
  7 12  1  0  0  0  0
  8 21  1  6  0  0  0
  8 15  1  0  0  0  0
  8 11  1  0  0  0  0
  9 10  1  0  0  0  0
  9 16  1  0  0  0  0
 11  3  1  0  0  0  0
 12  9  2  0  0  0  0
 13 15  2  0  0  0  0
 14 15  1  6  0  0  0
 14  4  1  0  0  0  0
 14  5  1  0  0  0  0
 16 17  1  0  0  0  0
 17 19  1  0  0  0  0
 18 19  2  0  0  0  0
 20 16  2  0  0  0  0
 20 18  1  0  0  0  0
 22 21  1  0  0  0  0
 23 22  1  0  0  0  0
 24  4  1  0  0  0  0
 24 25  1  0  0  0  0
 25 26  1  0  0  0  0
 26 27  1  0  0  0  0
 27 28  1  0  0  0  0
 29 30  2  0  0  0  0
 30 31  1  0  0  0  0
 30 28  1  0  0  0  0
 33 32  1  6  0  0  0
 34 33  1  0  0  0  0
 35 31  1  1  0  0  0
 35 34  1  0  0  0  0
 35 33  1  0  0  0  0
M  END
>  <MODEL>
8

>  <REMARK>
 VINA RESULT:      -5.4      3.567      5.827
  Name = 
  11 active torsions:
  status: ('A' for Active; 'I' for Inactive)
    1  A    between atoms: C_1  and  C_20
    2  A    between atoms: C_1  and  C_25
    3  A    between atoms: C_4  and  C_26
    4  A    between atoms: C_9  and  O_14
    5  A    between atoms: N_11  and  C_20
    6  A    between atoms: N_11  and  C_33
    7  A    between atoms: O_14  and  C_23
    8  A    between atoms: C_16  and  O_29
    9  A    between atoms: C_21  and  N_30
   10  A    between atoms: C_25  and  O_29
   11  A    between atoms: N_30  and  C_33
                            x       y       z     vdW  Elec       q    Type
                         _______ _______ _______ _____ _____    ______ ____

>  <TORSDO>
F 11

$$$$
=
 OpenBabel11042416573D

 35 38  0  0  1  0  0  0  0  0999 V2000
  190.5660  177.7960  142.7630 O   0  0  0  0  0  0  0  0  0  0  0  0
  191.3240  178.4010  143.8070 C   0  0  0  0  0  2  0  0  0  0  0  0
  191.8250  177.3800  144.7200 N   0  0  0  0  0  2  0  0  0  0  0  0
  188.5660  174.9890  141.8850 C   0  0  0  0  0  0  0  0  0  0  0  0
  189.4440  177.0100  143.0400 C   0  0  0  0  0  0  0  0  0  0  0  0
  193.7300  176.3590  143.8530 O   0  0  0  0  0  0  0  0  0  0  0  0
  187.2460  175.1330  142.0660 C   0  0  0  0  0  3  0  0  0  0  0  0
  191.7910  174.9540  144.0370 C   0  0  1  0  0  3  0  0  0  0  0  0
  187.0620  176.8950  143.8020 C   0  0  0  0  0  0  0  0  0  0  0  0
  188.3300  177.5930  143.4860 C   0  0  0  0  0  3  0  0  0  0  0  0
  192.5320  176.2430  144.2280 C   0  0  0  0  0  0  0  0  0  0  0  0
  186.6270  175.8540  143.1450 N   0  0  0  0  0  0  0  0  0  0  0  0
  191.4790  174.8780  141.6960 O   0  0  0  0  0  0  0  0  0  0  0  0
  189.5290  175.5200  142.9110 C   0  0  2  0  0  3  0  0  0  0  0  0
  190.9550  175.0350  142.7910 C   0  0  0  0  0  0  0  0  0  0  0  0
  186.1820  177.4840  144.8240 C   0  0  0  0  0  0  0  0  0  0  0  0
  185.5330  176.7800  145.7170 O   0  0  0  0  0  0  0  0  0  0  0  0
  185.0470  178.8940  146.0610 C   0  0  0  0  0  3  0  0  0  0  0  0
  184.8380  177.5910  146.4800 C   0  0  0  0  0  3  0  0  0  0  0  0
  185.9180  178.8300  144.9870 C   0  0  0  0  0  3  0  0  0  0  0  0
  192.6680  173.8650  143.9820 O   0  0  0  0  0  0  0  0  0  0  0  0
  192.8770  173.5090  145.3160 C   0  0  0  0  0  2  0  0  0  0  0  0
  193.9010  172.3950  145.3860 C   0  0  0  0  0  1  0  0  0  0  0  0
  189.0550  174.3260  140.7510 O   0  0  0  0  0  0  0  0  0  0  0  0
  188.8610  172.9380  140.5130 C   0  0  0  0  0  2  0  0  0  0  0  0
  188.1880  172.7460  139.1680 C   0  0  0  0  0  2  0  0  0  0  0  0
  188.5170  173.9090  138.2460 C   0  0  0  0  0  2  0  0  0  0  0  0
  189.4040  173.4770  137.1720 N   0  0  0  0  0  2  0  0  0  0  0  0
  191.9370  173.7940  137.9900 S   0  0  0  0  0  0  0  0  0  0  0  0
  190.7040  172.9050  137.3780 C   0  0  0  0  0  0  0  0  0  0  0  0
  190.9320  171.5280  137.0800 N   0  0  0  0  0  2  0  0  0  0  0  0
  192.2410  168.6930  138.8610 O   0  0  0  0  0  1  0  0  0  0  0  0
  191.8420  169.3800  137.7160 C   0  0  1  0  0  3  0  0  0  0  0  0
  190.3480  169.2240  137.5380 C   0  0  0  0  0  2  0  0  0  0  0  0
  190.9100  170.5070  138.1140 C   0  0  2  0  0  3  0  0  0  0  0  0
  1  5  1  0  0  0  0
  1  2  1  0  0  0  0
  2  3  1  0  0  0  0
  4  7  2  0  0  0  0
  5 10  2  0  0  0  0
  6 11  2  0  0  0  0
  7 12  1  0  0  0  0
  8 21  1  6  0  0  0
  8 11  1  0  0  0  0
  9 16  1  0  0  0  0
 10  9  1  0  0  0  0
 11  3  1  0  0  0  0
 12  9  2  0  0  0  0
 13 15  2  0  0  0  0
 14  4  1  6  0  0  0
 14  5  1  0  0  0  0
 15 14  1  0  0  0  0
 15  8  1  0  0  0  0
 16 20  2  0  0  0  0
 16 17  1  0  0  0  0
 17 19  1  0  0  0  0
 18 19  2  0  0  0  0
 20 18  1  0  0  0  0
 21 22  1  0  0  0  0
 22 23  1  0  0  0  0
 24  4  1  0  0  0  0
 25 24  1  0  0  0  0
 26 25  1  0  0  0  0
 27 26  1  0  0  0  0
 28 30  1  0  0  0  0
 28 27  1  0  0  0  0
 30 29  2  0  0  0  0
 31 30  1  0  0  0  0
 33 35  1  0  0  0  0
 33 32  1  1  0  0  0
 34 33  1  0  0  0  0
 34 35  1  0  0  0  0
 35 31  1  6  0  0  0
M  END
>  <MODEL>
9

>  <REMARK>
 VINA RESULT:      -5.3      3.024      7.186
  Name = 
  11 active torsions:
  status: ('A' for Active; 'I' for Inactive)
    1  A    between atoms: C_1  and  C_20
    2  A    between atoms: C_1  and  C_25
    3  A    between atoms: C_4  and  C_26
    4  A    between atoms: C_9  and  O_14
    5  A    between atoms: N_11  and  C_20
    6  A    between atoms: N_11  and  C_33
    7  A    between atoms: O_14  and  C_23
    8  A    between atoms: C_16  and  O_29
    9  A    between atoms: C_21  and  N_30
   10  A    between atoms: C_25  and  O_29
   11  A    between atoms: N_30  and  C_33
                            x       y       z     vdW  Elec       q    Type
                         _______ _______ _______ _____ _____    ______ ____

>  <TORSDO>
F 11

$$$$
