=
 OpenBabel11042416283D

 69 73  0  0  1  0  0  0  0  0999 V2000
  190.4100  175.4460  144.7080 C   0  0  2  0  0  3  0  0  0  0  0  0
  189.5510  171.9800  141.6540 C   0  0  0  0  0  3  0  0  0  0  0  0
  190.8340  172.3870  141.6420 C   0  0  0  0  0  0  0  0  0  0  0  0
  194.1140  173.8350  139.3160 C   0  0  0  0  0  2  0  0  0  0  0  0
  195.9620  175.4060  143.5680 C   0  0  0  0  0  0  0  0  0  0  0  0
  194.1630  176.2290  146.4540 C   0  0  0  0  0  1  0  0  0  0  0  0
  187.2900  172.3900  142.4070 N   0  0  0  0  0  1  0  0  0  0  0  0
  192.6620  176.5140  144.4130 C   0  0  0  0  0  0  0  0  0  0  0  0
  195.1170  174.7950  139.9240 C   0  0  0  0  0  2  0  0  0  0  0  0
  196.0190  175.5980  142.0850 C   0  0  0  0  0  2  0  0  0  0  0  0
  189.0610  173.4760  143.4760 O   0  0  0  0  0  0  0  0  0  0  0  0
  191.6990  172.0130  140.4600 C   0  0  0  0  0  2  0  0  0  0  0  0
  188.6710  172.2810  142.8440 C   0  0  2  0  0  3  0  0  0  0  0  0
  195.3730  174.4250  141.3720 C   0  0  0  0  0  2  0  0  0  0  0  0
  191.8210  173.0480  139.4200 N   0  0  0  0  0  0  0  0  0  0  0  0
  190.3840  173.2640  143.9240 C   0  0  2  0  0  3  0  0  0  0  0  0
  190.7650  174.1120  144.9920 O   0  0  0  0  0  0  0  0  0  0  0  0
  194.6730  175.0160  144.2260 C   0  0  2  0  0  3  0  0  0  0  0  0
  196.9550  175.6370  144.2450 O   0  0  0  0  0  0  0  0  0  0  0  0
  192.7260  174.0840  139.8890 C   0  0  0  0  0  2  0  0  0  0  0  0
  192.5360  176.9280  143.2720 O   0  0  0  0  0  0  0  0  0  0  0  0
  194.0450  176.2260  144.9310 C   0  0  2  0  0  3  0  0  0  0  0  0
  191.4500  176.4010  145.2860 C   0  0  0  0  0  2  0  0  0  0  0  0
  191.3650  173.2780  142.7440 C   0  0  0  0  0  2  0  0  0  0  0  0
  194.8700  173.7640  145.0860 C   0  0  0  0  0  2  0  0  0  0  0  0
  196.0540  172.9470  144.6120 C   0  0  0  0  0  2  0  0  0  0  0  0
  196.6240  172.1470  145.7630 C   0  0  0  0  0  2  0  0  0  0  0  0
  195.9670  170.7790  145.8110 C   0  0  0  0  0  2  0  0  0  0  0  0
  196.5770  169.9360  144.8830 O   0  0  0  0  0  0  0  0  0  0  0  0
  195.5230  169.2790  144.2320 C   0  0  2  0  0  3  0  0  0  0  0  0
  196.7130  170.2320  142.3750 O   0  0  0  0  0  1  0  0  0  0  0  0
  195.2890  168.3890  141.8780 C   0  0  0  0  0  1  0  0  0  0  0  0
  194.3760  170.6090  142.4530 C   0  0  0  0  0  1  0  0  0  0  0  0
  195.5030  169.6300  142.7350 C   0  0  0  0  0  0  0  0  0  0  0  0
  193.3760  168.3680  145.1370 C   0  0  0  0  0  1  0  0  0  0  0  0
  194.1990  169.6240  144.9110 C   0  0  0  0  0  2  0  0  0  0  0  0
  189.0320  175.7710  145.2980 C   0  0  0  0  0  2  0  0  0  0  0  0
  187.2430  177.1050  142.0620 C   0  0  1  0  0  3  0  0  0  0  0  0
  187.3750  177.5280  145.0790 C   0  0  0  0  0  3  0  0  0  0  0  0
  188.4070  176.6330  142.9420 C   0  0  2  0  0  3  0  0  0  0  0  0
  185.7210  177.6800  142.9380 S   0  0  0  0  0  0  0  0  0  0  0  0
  188.2290  176.7100  144.4510 C   0  0  0  0  0  0  0  0  0  0  0  0
  188.4540  178.0050  142.2860 C   0  0  0  0  0  2  0  0  0  0  0  0
  186.5240  178.5050  144.3470 C   0  0  1  0  0  3  0  0  0  0  0  0
  185.5090  179.1060  145.2600 C   0  0  0  0  0  0  0  0  0  0  0  0
  184.2900  179.5230  144.7460 O   0  0  0  0  0  0  0  0  0  0  0  0
  185.7560  179.2560  146.4850 O   0  0  0  0  0  1  0  0  0  0  0  0
  190.5240  173.6500  139.1150 C   0  0  0  0  0  2  0  0  0  0  0  0
  190.0680  173.2580  137.7210 C   0  0  0  0  0  2  0  0  0  0  0  0
  191.2110  173.3600  136.7290 C   0  0  2  0  0  3  0  0  0  0  0  0
  197.4900  174.4980  135.5650 C   0  0  0  0  0  2  0  0  0  0  0  0
  191.3160  174.7400  136.2830 N   0  0  0  0  0  2  0  0  0  0  0  0
  192.5820  176.5460  135.5760 O   0  0  0  0  0  0  0  0  0  0  0  0
  196.8250  176.8550  135.3300 C   0  0  0  0  0  2  0  0  0  0  0  0
  195.1050  175.0480  135.7610 C   0  0  0  0  0  0  0  0  0  0  0  0
  192.5670  175.3520  135.9660 C   0  0  0  0  0  0  0  0  0  0  0  0
  193.7810  174.5930  136.0700 N   0  0  0  0  0  2  0  0  0  0  0  0
  196.0800  174.1800  135.8050 N   0  0  0  0  0  0  0  0  0  0  0  0
  195.3500  176.4670  135.2990 C   0  0  0  0  0  2  0  0  0  0  0  0
  197.6480  175.7450  134.7030 C   0  0  0  0  0  2  0  0  0  0  0  0
  191.2980  171.1090  135.5500 C   0  0  0  0  0  0  0  0  0  0  0  0
  190.9510  172.4970  135.5820 N   0  0  0  0  0  2  0  0  0  0  0  0
  191.0520  170.4380  134.5130 O   0  0  0  0  0  0  0  0  0  0  0  0
  191.9320  170.4440  136.7430 C   0  0  2  0  0  3  0  0  0  0  0  0
  193.4420  170.2230  136.5750 C   0  0  2  0  0  3  0  0  0  0  0  0
  194.1640  170.4240  137.8970 C   0  0  0  0  0  1  0  0  0  0  0  0
  193.9600  171.1270  135.6450 O   0  0  0  0  0  1  0  0  0  0  0  0
  191.1760  169.1740  137.1530 C   0  0  0  0  0  2  0  0  0  0  0  0
  189.8690  169.4770  137.8680 C   0  0  0  0  0  1  0  0  0  0  0  0
  1 17  1  0  0  0  0
  1 23  1  0  0  0  0
  1 37  1  1  0  0  0
  2 13  1  0  0  0  0
  3  2  2  0  0  0  0
  3 24  1  0  0  0  0
  4 20  1  0  0  0  0
  4  9  1  0  0  0  0
  5 18  1  0  0  0  0
  5 19  2  0  0  0  0
  8 22  1  0  0  0  0
  8 23  1  0  0  0  0
  9 14  1  0  0  0  0
 10  5  1  0  0  0  0
 11 16  1  0  0  0  0
 12  3  1  0  0  0  0
 13  7  1  6  0  0  0
 13 11  1  0  0  0  0
 14 10  1  0  0  0  0
 15 20  1  0  0  0  0
 15 12  1  0  0  0  0
 16 24  1  6  0  0  0
 16 17  1  0  0  0  0
 18 22  1  0  0  0  0
 18 25  1  1  0  0  0
 21  8  2  0  0  0  0
 22  6  1  1  0  0  0
 26 25  1  0  0  0  0
 26 27  1  0  0  0  0
 27 28  1  0  0  0  0
 29 28  1  0  0  0  0
 30 29  1  0  0  0  0
 30 36  1  1  0  0  0
 31 34  1  0  0  0  0
 32 34  1  0  0  0  0
 33 34  1  0  0  0  0
 34 30  1  0  0  0  0
 36 35  1  0  0  0  0
 38 43  1  1  0  0  0
 38 41  1  0  0  0  0
 38 40  1  0  0  0  0
 40 43  1  6  0  0  0
 40 42  1  0  0  0  0
 41 44  1  0  0  0  0
 42 39  2  0  0  0  0
 42 37  1  0  0  0  0
 44 39  1  0  0  0  0
 44 45  1  1  0  0  0
 45 47  1  0  0  0  0
 46 45  2  0  0  0  0
 48 15  1  0  0  0  0
 49 48  1  0  0  0  0
 50 49  1  1  0  0  0
 51 58  1  0  0  0  0
 52 50  1  0  0  0  0
 53 56  2  0  0  0  0
 55 58  2  0  0  0  0
 55 57  1  0  0  0  0
 56 57  1  0  0  0  0
 56 52  1  0  0  0  0
 59 54  1  0  0  0  0
 59 55  1  0  0  0  0
 60 54  1  0  0  0  0
 60 51  1  0  0  0  0
 61 62  1  0  0  0  0
 61 64  1  0  0  0  0
 62 50  1  0  0  0  0
 63 61  2  0  0  0  0
 64 68  1  6  0  0  0
 65 64  1  0  0  0  0
 65 66  1  1  0  0  0
 67 65  1  0  0  0  0
 68 69  1  0  0  0  0
M  END
>  <MODEL>
1

>  <REMARK>
 VINA RESULT:      -6.9      0.000      0.000
  Name = 
  19 active torsions:
  status: ('A' for Active; 'I' for Inactive)
    1  A    between atoms: C_2  and  C_43
    2  A    between atoms: C_3  and  C_51
    3  A    between atoms: C_10  and  C_64
    4  A    between atoms: N_17  and  C_69
    5  A    between atoms: C_18  and  C_43
    6  A    between atoms: C_26  and  C_51
    7  A    between atoms: N_33  and  C_46
    8  A    between atoms: C_37  and  C_43
    9  A    between atoms: C_39  and  C_67
   10  A    between atoms: O_41  and  C_47
   11  A    between atoms: O_41  and  C_67
   12  A    between atoms: C_42  and  C_47
   13  A    between atoms: C_42  and  C_65
   14  A    between atoms: C_46  and  C_61
   15  A    between atoms: C_50  and  C_55
   16  A    between atoms: N_52  and  C_69
   17  A    between atoms: C_55  and  C_65
   18  A    between atoms: C_60  and  C_67
   19  A    between atoms: C_61  and  C_69
                            x       y       z     vdW  Elec       q    Type
                         _______ _______ _______ _____ _____    ______ ____

>  <TORSDO>
F 19

$$$$
=
 OpenBabel11042416283D

 69 73  0  0  1  0  0  0  0  0999 V2000
  192.4040  172.8750  140.4960 C   0  0  2  0  0  3  0  0  0  0  0  0
  193.3210  176.3050  143.5740 C   0  0  0  0  0  3  0  0  0  0  0  0
  194.2190  175.3030  143.6180 C   0  0  0  0  0  0  0  0  0  0  0  0
  196.2310  172.3960  146.0200 C   0  0  0  0  0  2  0  0  0  0  0  0
  197.1660  170.0940  141.8030 C   0  0  0  0  0  0  0  0  0  0  0  0
  195.2960  170.2910  138.8520 C   0  0  0  0  0  1  0  0  0  0  0  0
  191.1920  177.0970  142.7470 N   0  0  0  0  0  1  0  0  0  0  0  0
  193.7910  170.8120  140.8440 C   0  0  0  0  0  0  0  0  0  0  0  0
  196.6270  171.0580  145.4290 C   0  0  0  0  0  2  0  0  0  0  0  0
  197.0690  169.9040  143.2840 C   0  0  0  0  0  2  0  0  0  0  0  0
  192.2010  175.2600  141.7170 O   0  0  0  0  0  0  0  0  0  0  0  0
  195.1150  175.1890  144.8310 C   0  0  0  0  0  2  0  0  0  0  0  0
  192.4500  176.4900  142.3540 C   0  0  2  0  0  3  0  0  0  0  0  0
  197.0840  171.2440  143.9940 C   0  0  0  0  0  2  0  0  0  0  0  0
  194.6590  174.2380  145.8590 N   0  0  0  0  0  0  0  0  0  0  0  0
  193.4620  174.7700  141.3110 C   0  0  2  0  0  3  0  0  0  0  0  0
  193.3960  173.8440  140.2430 O   0  0  0  0  0  0  0  0  0  0  0  0
  196.2760  171.0830  141.1120 C   0  0  2  0  0  3  0  0  0  0  0  0
  197.9270  169.3890  141.1530 O   0  0  0  0  0  0  0  0  0  0  0  0
  194.9290  172.8850  145.4020 C   0  0  0  0  0  2  0  0  0  0  0  0
  193.4340  170.5230  141.9740 O   0  0  0  0  0  0  0  0  0  0  0  0
  195.1450  170.3570  140.3710 C   0  0  2  0  0  3  0  0  0  0  0  0
  192.8340  171.5230  139.9360 C   0  0  0  0  0  2  0  0  0  0  0  0
  194.2610  174.2630  142.5200 C   0  0  0  0  0  2  0  0  0  0  0  0
  197.1100  172.0590  140.2770 C   0  0  0  0  0  2  0  0  0  0  0  0
  197.0190  173.4700  140.8200 C   0  0  0  0  0  2  0  0  0  0  0  0
  197.8900  174.3970  139.9990 C   0  0  0  0  0  2  0  0  0  0  0  0
  197.9410  173.9110  138.5610 C   0  0  0  0  0  2  0  0  0  0  0  0
  197.3870  174.8780  137.7230 O   0  0  0  0  0  0  0  0  0  0  0  0
  197.0410  174.1930  136.5490 C   0  0  2  0  0  3  0  0  0  0  0  0
  195.3020  175.8280  136.2760 O   0  0  0  0  0  1  0  0  0  0  0  0
  195.2740  173.9970  134.7530 C   0  0  0  0  0  1  0  0  0  0  0  0
  194.6560  173.7140  137.1260 C   0  0  0  0  0  1  0  0  0  0  0  0
  195.5740  174.4600  136.1720 C   0  0  0  0  0  0  0  0  0  0  0  0
  197.9410  172.1300  135.4560 C   0  0  0  0  0  1  0  0  0  0  0  0
  197.3180  172.7000  136.7190 C   0  0  0  0  0  2  0  0  0  0  0  0
  191.0720  173.2940  139.8610 C   0  0  0  0  0  2  0  0  0  0  0  0
  190.1270  171.4590  136.5150 C   0  0  1  0  0  3  0  0  0  0  0  0
  191.1580  174.1230  137.5830 C   0  0  0  0  0  3  0  0  0  0  0  0
  190.7620  171.6380  137.8990 C   0  0  2  0  0  3  0  0  0  0  0  0
  189.6980  173.0030  135.5930 S   0  0  0  0  0  0  0  0  0  0  0  0
  191.0190  173.0570  138.3820 C   0  0  0  0  0  0  0  0  0  0  0  0
  191.6260  171.2580  136.7070 C   0  0  0  0  0  2  0  0  0  0  0  0
  191.1230  174.0150  136.0990 C   0  0  1  0  0  3  0  0  0  0  0  0
  191.0620  175.3690  135.4760 C   0  0  0  0  0  0  0  0  0  0  0  0
  192.2380  176.0670  135.2450 O   0  0  0  0  0  1  0  0  0  0  0  0
  189.9560  175.8900  135.1780 O   0  0  0  0  0  0  0  0  0  0  0  0
  193.2270  174.3790  146.1160 C   0  0  0  0  0  2  0  0  0  0  0  0
  192.9270  175.7290  146.7400 C   0  0  0  0  0  2  0  0  0  0  0  0
  191.4510  176.0640  146.6240 C   0  0  2  0  0  3  0  0  0  0  0  0
  185.1070  177.2950  146.0690 C   0  0  0  0  0  2  0  0  0  0  0  0
  191.1500  177.1540  147.5380 N   0  0  0  0  0  2  0  0  0  0  0  0
  189.6520  178.6510  148.4770 O   0  0  0  0  0  0  0  0  0  0  0  0
  185.5630  179.2780  147.4520 C   0  0  0  0  0  2  0  0  0  0  0  0
  187.3960  177.6240  146.8930 C   0  0  0  0  0  0  0  0  0  0  0  0
  189.8420  177.7170  147.6580 C   0  0  0  0  0  0  0  0  0  0  0  0
  188.7630  177.1950  146.8680 N   0  0  0  0  0  2  0  0  0  0  0  0
  186.5280  176.9540  146.1860 N   0  0  0  0  0  0  0  0  0  0  0  0
  186.9560  178.7580  147.7920 C   0  0  0  0  0  2  0  0  0  0  0  0
  184.6220  178.1040  147.2660 C   0  0  0  0  0  2  0  0  0  0  0  0
  189.9900  174.0770  146.0070 C   0  0  0  0  0  0  0  0  0  0  0  0
  190.6490  174.8990  146.9770 N   0  0  0  0  0  2  0  0  0  0  0  0
  189.3030  173.0960  146.3970 O   0  0  0  0  0  0  0  0  0  0  0  0
  190.1280  174.3590  144.5350 C   0  0  2  0  0  3  0  0  0  0  0  0
  188.7870  174.6730  143.8560 C   0  0  2  0  0  3  0  0  0  0  0  0
  188.8240  174.2810  142.3880 C   0  0  0  0  0  1  0  0  0  0  0  0
  188.5110  176.0380  143.9440 O   0  0  0  0  0  1  0  0  0  0  0  0
  190.9280  173.2640  143.8180 C   0  0  0  0  0  2  0  0  0  0  0  0
  190.0480  172.1320  143.3150 C   0  0  0  0  0  1  0  0  0  0  0  0
  1 37  1  6  0  0  0
  2  3  2  0  0  0  0
  3 12  1  0  0  0  0
  5 10  1  0  0  0  0
  8 21  2  0  0  0  0
  9  4  1  0  0  0  0
 10 14  1  0  0  0  0
 11 13  1  0  0  0  0
 12 15  1  0  0  0  0
 13  7  1  1  0  0  0
 13  2  1  0  0  0  0
 14  9  1  0  0  0  0
 15 48  1  0  0  0  0
 16 11  1  0  0  0  0
 16 24  1  1  0  0  0
 17  1  1  0  0  0  0
 17 16  1  0  0  0  0
 18 25  1  6  0  0  0
 18  5  1  0  0  0  0
 19  5  2  0  0  0  0
 20 15  1  0  0  0  0
 20  4  1  0  0  0  0
 22  6  1  6  0  0  0
 22  8  1  0  0  0  0
 22 18  1  0  0  0  0
 23  1  1  0  0  0  0
 23  8  1  0  0  0  0
 24  3  1  0  0  0  0
 25 26  1  0  0  0  0
 27 26  1  0  0  0  0
 28 27  1  0  0  0  0
 29 28  1  0  0  0  0
 30 36  1  1  0  0  0
 30 29  1  0  0  0  0
 32 34  1  0  0  0  0
 34 31  1  0  0  0  0
 34 30  1  0  0  0  0
 34 33  1  0  0  0  0
 35 36  1  0  0  0  0
 38 43  1  6  0  0  0
 38 40  1  0  0  0  0
 39 42  2  0  0  0  0
 40 43  1  6  0  0  0
 40 42  1  0  0  0  0
 41 44  1  0  0  0  0
 41 38  1  0  0  0  0
 42 37  1  0  0  0  0
 44 45  1  6  0  0  0
 44 39  1  0  0  0  0
 46 45  1  0  0  0  0
 47 45  2  0  0  0  0
 48 49  1  0  0  0  0
 50 49  1  1  0  0  0
 50 62  1  0  0  0  0
 50 52  1  0  0  0  0
 51 58  1  0  0  0  0
 51 60  1  0  0  0  0
 52 56  1  0  0  0  0
 54 59  1  0  0  0  0
 55 59  1  0  0  0  0
 56 53  2  0  0  0  0
 57 55  1  0  0  0  0
 57 56  1  0  0  0  0
 58 55  2  0  0  0  0
 60 54  1  0  0  0  0
 61 63  2  0  0  0  0
 61 62  1  0  0  0  0
 64 68  1  6  0  0  0
 64 61  1  0  0  0  0
 65 66  1  6  0  0  0
 65 67  1  0  0  0  0
 65 64  1  0  0  0  0
 69 68  1  0  0  0  0
M  END
>  <MODEL>
2

>  <REMARK>
 VINA RESULT:      -4.8      3.342      9.332
  Name = 
  19 active torsions:
  status: ('A' for Active; 'I' for Inactive)
    1  A    between atoms: C_2  and  C_43
    2  A    between atoms: C_3  and  C_51
    3  A    between atoms: C_10  and  C_64
    4  A    between atoms: N_17  and  C_69
    5  A    between atoms: C_18  and  C_43
    6  A    between atoms: C_26  and  C_51
    7  A    between atoms: N_33  and  C_46
    8  A    between atoms: C_37  and  C_43
    9  A    between atoms: C_39  and  C_67
   10  A    between atoms: O_41  and  C_47
   11  A    between atoms: O_41  and  C_67
   12  A    between atoms: C_42  and  C_47
   13  A    between atoms: C_42  and  C_65
   14  A    between atoms: C_46  and  C_61
   15  A    between atoms: C_50  and  C_55
   16  A    between atoms: N_52  and  C_69
   17  A    between atoms: C_55  and  C_65
   18  A    between atoms: C_60  and  C_67
   19  A    between atoms: C_61  and  C_69
                            x       y       z     vdW  Elec       q    Type
                         _______ _______ _______ _____ _____    ______ ____

>  <TORSDO>
F 19

$$$$
=
 OpenBabel11042416283D

 69 73  0  0  1  0  0  0  0  0999 V2000
  196.9690  173.1050  141.3500 C   0  0  2  0  0  3  0  0  0  0  0  0
  193.3010  175.9780  141.9500 C   0  0  0  0  0  3  0  0  0  0  0  0
  193.1120  174.7610  142.4940 C   0  0  0  0  0  0  0  0  0  0  0  0
  190.6320  171.2890  142.7390 C   0  0  0  0  0  2  0  0  0  0  0  0
  194.6020  169.0250  144.4930 C   0  0  0  0  0  0  0  0  0  0  0  0
  197.9390  169.8900  143.8930 C   0  0  0  0  0  1  0  0  0  0  0  0
  194.6500  177.3820  140.5170 N   0  0  0  0  0  1  0  0  0  0  0  0
  196.4920  170.7180  141.9650 C   0  0  0  0  0  0  0  0  0  0  0  0
  191.2490  169.9240  142.9710 C   0  0  0  0  0  2  0  0  0  0  0  0
  193.2770  168.7990  143.8360 C   0  0  0  0  0  2  0  0  0  0  0  0
  195.5510  175.3860  141.3320 O   0  0  0  0  0  0  0  0  0  0  0  0
  191.7040  174.3390  142.8470 C   0  0  0  0  0  2  0  0  0  0  0  0
  194.6970  176.4620  141.6390 C   0  0  2  0  0  3  0  0  0  0  0  0
  192.4150  170.0420  143.9350 C   0  0  0  0  0  2  0  0  0  0  0  0
  191.0280  173.5070  141.8370 N   0  0  0  0  0  0  0  0  0  0  0  0
  195.5910  174.5790  142.4900 C   0  0  2  0  0  3  0  0  0  0  0  0
  196.7440  173.7630  142.5750 O   0  0  0  0  0  0  0  0  0  0  0  0
  195.3940  170.2590  144.1800 C   0  0  2  0  0  3  0  0  0  0  0  0
  195.0650  168.1670  145.2330 O   0  0  0  0  0  0  0  0  0  0  0  0
  191.5630  172.1570  141.9040 C   0  0  0  0  0  2  0  0  0  0  0  0
  195.5930  170.4870  141.1730 O   0  0  0  0  0  0  0  0  0  0  0  0
  196.5590  169.9210  143.2390 C   0  0  2  0  0  3  0  0  0  0  0  0
  197.5480  171.7150  141.5980 C   0  0  0  0  0  2  0  0  0  0  0  0
  194.2750  173.8080  142.6600 C   0  0  0  0  0  2  0  0  0  0  0  0
  195.7640  170.9980  145.4690 C   0  0  0  0  0  2  0  0  0  0  0  0
  195.3760  172.4610  145.3990 C   0  0  0  0  0  2  0  0  0  0  0  0
  193.8780  172.6070  145.5650 C   0  0  0  0  0  2  0  0  0  0  0  0
  193.5700  173.8740  146.3440 C   0  0  0  0  0  2  0  0  0  0  0  0
  192.3380  174.3850  145.9340 O   0  0  0  0  0  0  0  0  0  0  0  0
  192.3040  175.7000  146.4190 C   0  0  2  0  0  3  0  0  0  0  0  0
  190.5780  176.9680  145.3310 O   0  0  0  0  0  1  0  0  0  0  0  0
  189.8620  175.0770  146.5900 C   0  0  0  0  0  1  0  0  0  0  0  0
  190.6910  177.1240  147.6920 C   0  0  0  0  0  1  0  0  0  0  0  0
  190.8600  176.2220  146.4810 C   0  0  0  0  0  0  0  0  0  0  0  0
  194.3490  177.1410  146.3730 C   0  0  0  0  0  1  0  0  0  0  0  0
  193.1920  176.5940  145.5550 C   0  0  0  0  0  2  0  0  0  0  0  0
  197.9360  173.9150  140.4760 C   0  0  0  0  0  2  0  0  0  0  0  0
  197.7770  175.3130  136.8060 C   0  0  1  0  0  3  0  0  0  0  0  0
  197.1780  172.8160  138.4510 C   0  0  0  0  0  3  0  0  0  0  0  0
  197.5980  175.3140  138.3280 C   0  0  2  0  0  3  0  0  0  0  0  0
  197.9370  173.6610  135.9910 S   0  0  0  0  0  0  0  0  0  0  0  0
  197.5310  173.9680  139.0350 C   0  0  0  0  0  0  0  0  0  0  0  0
  196.4030  175.5600  137.4190 C   0  0  0  0  0  2  0  0  0  0  0  0
  196.7560  172.7420  137.0260 C   0  0  1  0  0  3  0  0  0  0  0  0
  196.6540  171.3210  136.5820 C   0  0  0  0  0  0  0  0  0  0  0  0
  196.8200  171.0120  135.2400 O   0  0  0  0  0  0  0  0  0  0  0  0
  196.3980  170.4070  137.4080 O   0  0  0  0  0  1  0  0  0  0  0  0
  191.2320  174.0360  140.4900 C   0  0  0  0  0  2  0  0  0  0  0  0
  190.9010  172.9840  139.4470 C   0  0  0  0  0  2  0  0  0  0  0  0
  189.4730  173.1360  138.9580 C   0  0  2  0  0  3  0  0  0  0  0  0
  187.4470  178.4540  142.0720 C   0  0  0  0  0  2  0  0  0  0  0  0
  188.5730  172.6930  140.0120 N   0  0  0  0  0  2  0  0  0  0  0  0
  187.1830  173.1480  141.8080 O   0  0  0  0  0  0  0  0  0  0  0  0
  186.4780  176.8960  143.7110 C   0  0  0  0  0  2  0  0  0  0  0  0
  187.6500  176.0470  141.6340 C   0  0  0  0  0  0  0  0  0  0  0  0
  187.9590  173.6000  140.9290 C   0  0  0  0  0  0  0  0  0  0  0  0
  188.2100  175.0090  140.8180 N   0  0  0  0  0  2  0  0  0  0  0  0
  187.9040  177.2860  141.3130 N   0  0  0  0  0  0  0  0  0  0  0  0
  186.7100  175.7160  142.7720 C   0  0  0  0  0  2  0  0  0  0  0  0
  186.2010  178.1410  142.8900 C   0  0  0  0  0  2  0  0  0  0  0  0
  190.0620  172.4410  136.5850 C   0  0  0  0  0  0  0  0  0  0  0  0
  189.2660  172.3190  137.7680 N   0  0  0  0  0  2  0  0  0  0  0  0
  189.8080  171.7070  135.5940 O   0  0  0  0  0  0  0  0  0  0  0  0
  191.2070  173.4180  136.5220 C   0  0  2  0  0  3  0  0  0  0  0  0
  190.7700  174.8270  136.0930 C   0  0  2  0  0  3  0  0  0  0  0  0
  190.0550  174.7820  134.7530 C   0  0  0  0  0  1  0  0  0  0  0  0
  191.8840  175.6600  135.9740 O   0  0  0  0  0  1  0  0  0  0  0  0
  192.3780  172.8690  135.6970 C   0  0  0  0  0  2  0  0  0  0  0  0
  193.1830  171.8230  136.4500 C   0  0  0  0  0  1  0  0  0  0  0  0
  1 37  1  6  0  0  0
  1 23  1  0  0  0  0
  1 17  1  0  0  0  0
  2  3  2  0  0  0  0
  3 24  1  0  0  0  0
  3 12  1  0  0  0  0
  4  9  1  0  0  0  0
  5 19  2  0  0  0  0
  8 22  1  0  0  0  0
  9 14  1  0  0  0  0
 10 14  1  0  0  0  0
 10  5  1  0  0  0  0
 11 13  1  0  0  0  0
 11 16  1  0  0  0  0
 13  7  1  6  0  0  0
 13  2  1  0  0  0  0
 15 20  1  0  0  0  0
 15 12  1  0  0  0  0
 16 17  1  0  0  0  0
 16 24  1  6  0  0  0
 18  5  1  0  0  0  0
 18 25  1  1  0  0  0
 20  4  1  0  0  0  0
 21  8  2  0  0  0  0
 22  6  1  1  0  0  0
 22 18  1  0  0  0  0
 23  8  1  0  0  0  0
 26 25  1  0  0  0  0
 26 27  1  0  0  0  0
 27 28  1  0  0  0  0
 29 28  1  0  0  0  0
 29 30  1  0  0  0  0
 30 36  1  6  0  0  0
 30 34  1  0  0  0  0
 31 34  1  0  0  0  0
 34 32  1  0  0  0  0
 34 33  1  0  0  0  0
 36 35  1  0  0  0  0
 38 43  1  6  0  0  0
 38 40  1  0  0  0  0
 39 42  2  0  0  0  0
 40 43  1  6  0  0  0
 40 42  1  0  0  0  0
 41 38  1  0  0  0  0
 41 44  1  0  0  0  0
 42 37  1  0  0  0  0
 44 45  1  6  0  0  0
 44 39  1  0  0  0  0
 45 47  1  0  0  0  0
 46 45  2  0  0  0  0
 48 15  1  0  0  0  0
 49 48  1  0  0  0  0
 50 49  1  1  0  0  0
 50 52  1  0  0  0  0
 51 60  1  0  0  0  0
 52 56  1  0  0  0  0
 55 59  1  0  0  0  0
 56 53  2  0  0  0  0
 57 56  1  0  0  0  0
 57 55  1  0  0  0  0
 58 55  2  0  0  0  0
 58 51  1  0  0  0  0
 59 54  1  0  0  0  0
 60 54  1  0  0  0  0
 61 62  1  0  0  0  0
 62 50  1  0  0  0  0
 63 61  2  0  0  0  0
 64 68  1  6  0  0  0
 64 61  1  0  0  0  0
 65 66  1  6  0  0  0
 65 64  1  0  0  0  0
 67 65  1  0  0  0  0
 68 69  1  0  0  0  0
M  END
>  <MODEL>
3

>  <REMARK>
 VINA RESULT:      -4.6      2.943      8.375
  Name = 
  19 active torsions:
  status: ('A' for Active; 'I' for Inactive)
    1  A    between atoms: C_2  and  C_43
    2  A    between atoms: C_3  and  C_51
    3  A    between atoms: C_10  and  C_64
    4  A    between atoms: N_17  and  C_69
    5  A    between atoms: C_18  and  C_43
    6  A    between atoms: C_26  and  C_51
    7  A    between atoms: N_33  and  C_46
    8  A    between atoms: C_37  and  C_43
    9  A    between atoms: C_39  and  C_67
   10  A    between atoms: O_41  and  C_47
   11  A    between atoms: O_41  and  C_67
   12  A    between atoms: C_42  and  C_47
   13  A    between atoms: C_42  and  C_65
   14  A    between atoms: C_46  and  C_61
   15  A    between atoms: C_50  and  C_55
   16  A    between atoms: N_52  and  C_69
   17  A    between atoms: C_55  and  C_65
   18  A    between atoms: C_60  and  C_67
   19  A    between atoms: C_61  and  C_69
                            x       y       z     vdW  Elec       q    Type
                         _______ _______ _______ _____ _____    ______ ____

>  <TORSDO>
F 19

$$$$
=
 OpenBabel11042416283D

 69 73  0  0  1  0  0  0  0  0999 V2000
  188.2530  173.2280  140.6400 C   0  0  2  0  0  3  0  0  0  0  0  0
  186.6620  177.5130  139.5530 C   0  0  0  0  0  3  0  0  0  0  0  0
  187.0940  177.4180  140.8240 C   0  0  0  0  0  0  0  0  0  0  0  0
  186.1960  177.9650  144.9670 C   0  0  0  0  0  2  0  0  0  0  0  0
  189.9060  174.8830  145.8030 C   0  0  0  0  0  0  0  0  0  0  0  0
  191.1070  172.4170  143.6310 C   0  0  0  0  0  1  0  0  0  0  0  0
  186.0770  176.3620  137.5090 N   0  0  0  0  0  1  0  0  0  0  0  0
  188.6610  172.8970  143.0950 C   0  0  0  0  0  0  0  0  0  0  0  0
  186.7970  177.0410  146.0070 C   0  0  0  0  0  2  0  0  0  0  0  0
  188.6640  175.4650  146.4010 C   0  0  0  0  0  2  0  0  0  0  0  0
  187.3580  175.2510  139.1150 O   0  0  0  0  0  0  0  0  0  0  0  0
  186.6760  178.4850  141.8110 C   0  0  0  0  0  2  0  0  0  0  0  0
  187.1060  176.5020  138.5230 C   0  0  2  0  0  3  0  0  0  0  0  0
  188.2210  176.6890  145.6230 C   0  0  0  0  0  2  0  0  0  0  0  0
  185.5120  178.1440  142.6450 N   0  0  0  0  0  0  0  0  0  0  0  0
  188.4080  175.4610  140.0360 C   0  0  2  0  0  3  0  0  0  0  0  0
  189.1350  174.2870  140.3470 O   0  0  0  0  0  0  0  0  0  0  0  0
  189.9870  174.6440  144.3250 C   0  0  2  0  0  3  0  0  0  0  0  0
  190.8270  174.5430  146.5340 O   0  0  0  0  0  0  0  0  0  0  0  0
  185.9280  177.2060  143.6750 C   0  0  0  0  0  2  0  0  0  0  0  0
  187.5290  173.0860  143.5090 O   0  0  0  0  0  0  0  0  0  0  0  0
  189.8230  173.1490  144.0170 C   0  0  2  0  0  3  0  0  0  0  0  0
  188.8490  172.3310  141.7210 C   0  0  0  0  0  2  0  0  0  0  0  0
  187.9030  176.2200  141.2710 C   0  0  0  0  0  2  0  0  0  0  0  0
  191.2330  175.3180  143.7410 C   0  0  0  0  0  2  0  0  0  0  0  0
  191.0040  176.7980  143.5120 C   0  0  0  0  0  2  0  0  0  0  0  0
  192.3250  177.4890  143.2460 C   0  0  0  0  0  2  0  0  0  0  0  0
  193.4690  176.6000  143.7040 C   0  0  0  0  0  2  0  0  0  0  0  0
  194.2200  176.2010  142.5990 O   0  0  0  0  0  0  0  0  0  0  0  0
  195.2760  175.4420  143.1260 C   0  0  2  0  0  3  0  0  0  0  0  0
  197.3680  176.6230  143.1440 O   0  0  0  0  0  1  0  0  0  0  0  0
  197.3820  174.4710  142.1230 C   0  0  0  0  0  1  0  0  0  0  0  0
  196.2840  176.4030  141.0490 C   0  0  0  0  0  1  0  0  0  0  0  0
  196.5880  175.7440  142.3840 C   0  0  0  0  0  0  0  0  0  0  0  0
  195.0150  173.3380  144.4540 C   0  0  0  0  0  1  0  0  0  0  0  0
  194.9240  173.9560  143.0700 C   0  0  0  0  0  2  0  0  0  0  0  0
  187.9750  172.3980  139.3800 C   0  0  0  0  0  2  0  0  0  0  0  0
  190.8060  173.2080  136.7760 C   0  0  1  0  0  3  0  0  0  0  0  0
  190.0700  171.2410  138.9880 C   0  0  0  0  0  3  0  0  0  0  0  0
  189.3780  172.9960  137.2920 C   0  0  2  0  0  3  0  0  0  0  0  0
  192.1680  172.4480  137.7690 S   0  0  0  0  0  0  0  0  0  0  0  0
  189.1960  172.1550  138.5470 C   0  0  0  0  0  0  0  0  0  0  0  0
  189.8910  172.1850  136.1110 C   0  0  0  0  0  2  0  0  0  0  0  0
  191.3180  170.9120  138.2480 C   0  0  1  0  0  3  0  0  0  0  0  0
  192.2080  170.0490  139.0770 C   0  0  0  0  0  0  0  0  0  0  0  0
  193.5820  170.2340  139.0230 O   0  0  0  0  0  0  0  0  0  0  0  0
  191.7270  169.1450  139.8090 O   0  0  0  0  0  1  0  0  0  0  0  0
  184.4460  177.5370  141.8490 C   0  0  0  0  0  2  0  0  0  0  0  0
  183.1340  178.2690  142.0660 C   0  0  0  0  0  2  0  0  0  0  0  0
  182.1430  177.9410  140.9650 C   0  0  2  0  0  3  0  0  0  0  0  0
  177.6940  175.6180  136.8560 C   0  0  0  0  0  2  0  0  0  0  0  0
  182.8650  177.3390  139.8560 N   0  0  0  0  0  2  0  0  0  0  0  0
  182.8890  176.2020  137.8380 O   0  0  0  0  0  0  0  0  0  0  0  0
  179.5890  174.5540  135.7020 C   0  0  0  0  0  2  0  0  0  0  0  0
  179.9540  176.0510  137.7110 C   0  0  0  0  0  0  0  0  0  0  0  0
  182.2010  176.6910  138.7690 C   0  0  0  0  0  0  0  0  0  0  0  0
  180.7670  176.6320  138.7380 N   0  0  0  0  0  2  0  0  0  0  0  0
  178.6600  176.1920  137.7970 N   0  0  0  0  0  0  0  0  0  0  0  0
  180.5850  175.3820  136.5100 C   0  0  0  0  0  2  0  0  0  0  0  0
  178.3220  175.3610  135.4920 C   0  0  0  0  0  2  0  0  0  0  0  0
  180.1680  179.5410  140.9240 C   0  0  0  0  0  0  0  0  0  0  0  0
  181.4840  179.1600  140.5110 N   0  0  0  0  0  2  0  0  0  0  0  0
  179.6650  180.6040  140.4730 O   0  0  0  0  0  0  0  0  0  0  0  0
  179.3920  178.7000  141.9030 C   0  0  2  0  0  3  0  0  0  0  0  0
  178.0010  178.3060  141.3850 C   0  0  2  0  0  3  0  0  0  0  0  0
  177.8390  176.7950  141.3790 C   0  0  0  0  0  1  0  0  0  0  0  0
  177.8230  178.7750  140.0820 O   0  0  0  0  0  1  0  0  0  0  0  0
  179.3600  179.3350  143.2990 C   0  0  0  0  0  2  0  0  0  0  0  0
  178.4330  178.6020  144.2540 C   0  0  0  0  0  1  0  0  0  0  0  0
  1 37  1  6  0  0  0
  1 23  1  0  0  0  0
  2  3  2  0  0  0  0
  3 24  1  0  0  0  0
  3 12  1  0  0  0  0
  4  9  1  0  0  0  0
  5 10  1  0  0  0  0
  5 19  2  0  0  0  0
  8 21  2  0  0  0  0
  8 22  1  0  0  0  0
 11 16  1  0  0  0  0
 12 15  1  0  0  0  0
 13  7  1  6  0  0  0
 13 11  1  0  0  0  0
 13  2  1  0  0  0  0
 14  9  1  0  0  0  0
 14 10  1  0  0  0  0
 15 20  1  0  0  0  0
 16 17  1  0  0  0  0
 16 24  1  1  0  0  0
 17  1  1  0  0  0  0
 18 25  1  1  0  0  0
 18  5  1  0  0  0  0
 20  4  1  0  0  0  0
 22  6  1  6  0  0  0
 22 18  1  0  0  0  0
 23  8  1  0  0  0  0
 26 25  1  0  0  0  0
 27 26  1  0  0  0  0
 27 28  1  0  0  0  0
 29 30  1  0  0  0  0
 29 28  1  0  0  0  0
 30 36  1  6  0  0  0
 32 34  1  0  0  0  0
 33 34  1  0  0  0  0
 34 30  1  0  0  0  0
 34 31  1  0  0  0  0
 36 35  1  0  0  0  0
 38 43  1  6  0  0  0
 38 40  1  0  0  0  0
 38 41  1  0  0  0  0
 40 43  1  6  0  0  0
 40 42  1  0  0  0  0
 41 44  1  0  0  0  0
 42 39  2  0  0  0  0
 42 37  1  0  0  0  0
 44 39  1  0  0  0  0
 44 45  1  1  0  0  0
 45 47  1  0  0  0  0
 46 45  2  0  0  0  0
 48 49  1  0  0  0  0
 48 15  1  0  0  0  0
 50 49  1  1  0  0  0
 51 58  1  0  0  0  0
 52 50  1  0  0  0  0
 53 56  2  0  0  0  0
 54 59  1  0  0  0  0
 55 58  2  0  0  0  0
 55 57  1  0  0  0  0
 56 52  1  0  0  0  0
 57 56  1  0  0  0  0
 59 55  1  0  0  0  0
 60 54  1  0  0  0  0
 60 51  1  0  0  0  0
 61 64  1  0  0  0  0
 62 61  1  0  0  0  0
 62 50  1  0  0  0  0
 63 61  2  0  0  0  0
 64 68  1  1  0  0  0
 65 66  1  6  0  0  0
 65 64  1  0  0  0  0
 67 65  1  0  0  0  0
 68 69  1  0  0  0  0
M  END
>  <MODEL>
4

>  <REMARK>
 VINA RESULT:      -4.2      5.053     10.602
  Name = 
  19 active torsions:
  status: ('A' for Active; 'I' for Inactive)
    1  A    between atoms: C_2  and  C_43
    2  A    between atoms: C_3  and  C_51
    3  A    between atoms: C_10  and  C_64
    4  A    between atoms: N_17  and  C_69
    5  A    between atoms: C_18  and  C_43
    6  A    between atoms: C_26  and  C_51
    7  A    between atoms: N_33  and  C_46
    8  A    between atoms: C_37  and  C_43
    9  A    between atoms: C_39  and  C_67
   10  A    between atoms: O_41  and  C_47
   11  A    between atoms: O_41  and  C_67
   12  A    between atoms: C_42  and  C_47
   13  A    between atoms: C_42  and  C_65
   14  A    between atoms: C_46  and  C_61
   15  A    between atoms: C_50  and  C_55
   16  A    between atoms: N_52  and  C_69
   17  A    between atoms: C_55  and  C_65
   18  A    between atoms: C_60  and  C_67
   19  A    between atoms: C_61  and  C_69
                            x       y       z     vdW  Elec       q    Type
                         _______ _______ _______ _____ _____    ______ ____

>  <TORSDO>
F 19

$$$$
