=
 OpenBabel11042419143D

 46 50  0  0  1  0  0  0  0  0999 V2000
  189.8360  176.1330  146.5490 C   0  0  0  0  0  0  0  0  0  0  0  0
  190.5350  176.9450  145.4880 C   0  0  0  0  0  2  0  0  0  0  0  0
  191.9880  175.0470  147.2150 C   0  0  0  0  0  2  0  0  0  0  0  0
  192.6960  176.1760  146.4770 C   0  0  2  0  0  3  0  0  0  0  0  0
  190.5210  175.3280  147.3780 C   0  0  0  0  0  3  0  0  0  0  0  0
  191.9480  176.4470  145.1780 C   0  0  0  0  0  2  0  0  0  0  0  0
  188.4320  176.3380  146.7360 N   0  0  0  0  0  2  0  0  0  0  0  0
  187.6850  178.3080  147.9380 C   0  0  0  0  0  2  0  0  0  0  0  0
  187.7840  177.6330  146.5870 C   0  0  2  0  0  3  0  0  0  0  0  0
  186.4710  177.6260  147.3410 C   0  0  2  0  0  3  0  0  0  0  0  0
  185.5910  178.6260  146.7620 N   0  0  0  0  0  2  0  0  0  0  0  0
  184.5760  177.9360  146.0790 N   0  0  0  0  0  0  0  0  0  0  0  0
  183.4040  178.4540  146.5220 O   0  0  0  0  0  1  0  0  0  0  0  0
  185.6020  179.4710  144.4610 C   0  0  0  0  0  2  0  0  0  0  0  0
  185.3600  177.1440  143.8870 C   0  0  0  0  0  2  0  0  0  0  0  0
  186.2290  177.7920  142.8180 C   0  0  1  0  0  0  0  0  0  0  0  0
  184.6940  178.2720  144.6600 C   0  0  1  0  0  3  0  0  0  0  0  0
  186.2010  179.2950  143.0840 C   0  0  0  0  0  2  0  0  0  0  0  0
  187.6280  177.2450  142.9300 C   0  0  0  0  0  0  0  0  0  0  0  0
  187.8180  176.0150  143.1400 O   0  0  0  0  0  0  0  0  0  0  0  0
  188.7200  178.0880  142.7260 O   0  0  0  0  0  0  0  0  0  0  0  0
  189.0630  178.4800  141.4910 O   0  0  0  0  0  1  0  0  0  0  0  0
  184.4060  178.0820  141.2550 O   0  0  0  0  0  1  0  0  0  0  0  0
  185.6690  177.5070  141.4240 C   0  0  0  0  0  2  0  0  0  0  0  0
  194.1250  175.7610  146.1860 C   0  0  0  0  0  2  0  0  0  0  0  0
  194.1750  174.8450  144.9690 C   0  0  0  0  0  2  0  0  0  0  0  0
  195.6140  174.5260  144.5400 C   0  0  1  0  0  3  0  0  0  0  0  0
  196.8620  171.1440  146.0410 C   0  0  0  0  0  2  0  0  0  0  0  0
  194.7020  172.1920  144.2770 C   0  0  0  0  0  2  0  0  0  0  0  0
  195.0350  170.7120  144.1880 C   0  0  0  0  0  2  0  0  0  0  0  0
  196.4560  172.6140  146.0210 C   0  0  2  0  0  3  0  0  0  0  0  0
  195.4070  170.0690  145.8470 S   0  0  0  0  0  0  0  0  0  0  0  0
  195.9440  173.0190  144.6250 C   0  0  2  0  0  3  0  0  0  0  0  0
  197.5590  173.3610  146.3880 F   0  0  0  0  0  0  0  0  0  0  0  0
  195.8600  175.0870  143.1410 C   0  0  0  0  0  2  0  0  0  0  0  0
  194.5540  175.4380  142.4320 C   0  0  0  0  0  2  0  0  0  0  0  0
  194.2380  174.5500  141.2240 C   0  0  2  0  0  3  0  0  0  0  0  0
  194.0620  175.3220  140.0770 O   0  0  0  0  0  1  0  0  0  0  0  0
  193.0220  173.6560  141.4460 C   0  0  0  0  0  2  0  0  0  0  0  0
  191.7090  174.4090  141.2230 C   0  0  0  0  0  2  0  0  0  0  0  0
  189.9300  173.0240  144.3710 C   0  0  0  0  0  2  0  0  0  0  0  0
  188.6130  172.4460  142.4810 C   0  0  0  0  0  2  0  0  0  0  0  0
  189.2280  171.9290  143.7040 N   0  0  0  0  0  2  0  0  0  0  0  0
  190.5770  173.9580  142.1480 C   0  0  0  0  0  3  0  0  0  0  0  0
  191.0980  173.4970  143.5090 C   0  0  0  0  0  2  0  0  0  0  0  0
  189.6950  172.8900  141.4970 C   0  0  0  0  0  2  0  0  0  0  0  0
  1  7  1  0  0  0  0
  1  5  2  0  0  0  0
  2  1  1  0  0  0  0
  3  5  1  0  0  0  0
  4 25  1  6  0  0  0
  4  3  1  0  0  0  0
  6  2  1  0  0  0  0
  6  4  1  0  0  0  0
  9  7  1  1  0  0  0
  9 10  1  0  0  0  0
  9  8  1  0  0  0  0
 10 11  1  6  0  0  0
 10  8  1  0  0  0  0
 12 13  1  0  0  0  0
 12 11  1  0  0  0  0
 14 17  1  0  0  0  0
 15 17  1  0  0  0  0
 16 24  1  6  0  0  0
 16 19  1  0  0  0  0
 16 18  1  0  0  0  0
 16 15  1  0  0  0  0
 17 12  1  1  0  0  0
 18 14  1  0  0  0  0
 19 20  2  0  0  0  0
 21 19  1  0  0  0  0
 22 21  1  0  0  0  0
 23 24  1  0  0  0  0
 26 25  1  0  0  0  0
 27 35  1  6  0  0  0
 27 26  1  0  0  0  0
 29 33  1  0  0  0  0
 30 29  1  0  0  0  0
 30 32  1  0  0  0  0
 31 28  1  0  0  0  0
 31 34  1  6  0  0  0
 32 28  1  0  0  0  0
 33 27  1  1  0  0  0
 33 31  1  0  0  0  0
 36 35  1  0  0  0  0
 37 38  1  6  0  0  0
 37 39  1  0  0  0  0
 37 36  1  0  0  0  0
 40 39  1  0  0  0  0
 40 44  1  0  0  0  0
 42 43  1  0  0  0  0
 43 41  1  0  0  0  0
 44 45  1  0  0  0  0
 45 41  1  0  0  0  0
 46 44  1  0  0  0  0
 46 42  1  0  0  0  0
M  END
>  <MODEL>
1

>  <REMARK>
 VINA RESULT:      -6.4      0.000      0.000
  Name = 
  18 active torsions:
  status: ('A' for Active; 'I' for Inactive)
    1  A    between atoms: N_1  and  N_11
    2  A    between atoms: N_1  and  C_33
    3  A    between atoms: C_3  and  N_44
    4  A    between atoms: N_11  and  C_20
    5  A    between atoms: C_12  and  C_21
    6  A    between atoms: C_12  and  C_30
    7  A    between atoms: C_14  and  C_23
    8  A    between atoms: C_14  and  C_29
    9  A    between atoms: C_14  and  C_32
   10  A    between atoms: O_17  and  C_21
   11  A    between atoms: C_18  and  N_44
   12  A    between atoms: C_19  and  C_23
   13  A    between atoms: C_19  and  C_27
   14  A    between atoms: C_27  and  C_28
   15  A    between atoms: C_28  and  C_42
   16  A    between atoms: C_29  and  C_37
   17  A    between atoms: C_31  and  C_37
   18  A    between atoms: C_40  and  C_42
                            x       y       z     vdW  Elec       q    Type
                         _______ _______ _______ _____ _____    ______ ____

>  <TORSDO>
F 18

$$$$
=
 OpenBabel11042419143D

 46 50  0  0  1  0  0  0  0  0999 V2000
  189.6180  174.1430  144.0500 C   0  0  0  0  0  0  0  0  0  0  0  0
  190.0930  172.7120  144.0610 C   0  0  0  0  0  2  0  0  0  0  0  0
  189.3260  174.0860  141.5680 C   0  0  0  0  0  2  0  0  0  0  0  0
  189.3670  172.5660  141.6750 C   0  0  2  0  0  3  0  0  0  0  0  0
  189.2010  174.7320  142.9180 C   0  0  0  0  0  3  0  0  0  0  0  0
  190.4540  172.1830  142.6720 C   0  0  0  0  0  2  0  0  0  0  0  0
  189.5020  174.8230  145.3050 N   0  0  0  0  0  2  0  0  0  0  0  0
  189.5850  176.7740  146.7430 C   0  0  0  0  0  2  0  0  0  0  0  0
  189.0870  176.2130  145.4280 C   0  0  2  0  0  3  0  0  0  0  0  0
  188.1380  176.3500  146.5990 C   0  0  2  0  0  3  0  0  0  0  0  0
  187.3070  177.5240  146.3960 N   0  0  0  0  0  2  0  0  0  0  0  0
  185.9740  177.0860  146.3700 N   0  0  0  0  0  0  0  0  0  0  0  0
  185.3970  177.5630  147.5010 O   0  0  0  0  0  1  0  0  0  0  0  0
  185.8490  179.1470  145.0420 C   0  0  0  0  0  2  0  0  0  0  0  0
  185.6340  177.0170  143.9350 C   0  0  0  0  0  2  0  0  0  0  0  0
  185.7600  178.0840  142.8560 C   0  0  1  0  0  0  0  0  0  0  0  0
  185.3180  177.7390  145.2360 C   0  0  1  0  0  3  0  0  0  0  0  0
  185.6890  179.4340  143.5650 C   0  0  0  0  0  2  0  0  0  0  0  0
  187.0790  177.9090  142.1500 C   0  0  0  0  0  0  0  0  0  0  0  0
  187.1120  177.6340  140.9180 O   0  0  0  0  0  0  0  0  0  0  0  0
  188.2690  178.1240  142.8420 O   0  0  0  0  0  0  0  0  0  0  0  0
  189.4380  178.2010  142.1910 O   0  0  0  0  0  1  0  0  0  0  0  0
  183.3870  178.3040  142.4380 O   0  0  0  0  0  1  0  0  0  0  0  0
  184.6130  177.9700  141.8520 C   0  0  0  0  0  2  0  0  0  0  0  0
  189.6710  171.9790  140.3110 C   0  0  0  0  0  2  0  0  0  0  0  0
  190.6930  172.8400  139.5770 C   0  0  0  0  0  2  0  0  0  0  0  0
  191.3700  172.0840  138.4260 C   0  0  1  0  0  3  0  0  0  0  0  0
  189.6560  173.3820  135.1670 C   0  0  0  0  0  2  0  0  0  0  0  0
  191.6690  174.2550  137.1830 C   0  0  0  0  0  2  0  0  0  0  0  0
  191.6830  174.9370  135.8250 C   0  0  0  0  0  2  0  0  0  0  0  0
  189.7580  172.7560  136.5540 C   0  0  2  0  0  3  0  0  0  0  0  0
  189.9770  175.1720  135.2420 S   0  0  0  0  0  0  0  0  0  0  0  0
  191.2120  172.7970  137.0650 C   0  0  2  0  0  3  0  0  0  0  0  0
  189.2940  171.4560  136.4640 F   0  0  0  0  0  0  0  0  0  0  0  0
  192.8370  171.8400  138.7760 C   0  0  0  0  0  2  0  0  0  0  0  0
  193.2190  172.4860  140.1070 C   0  0  0  0  0  2  0  0  0  0  0  0
  194.3870  173.4730  140.0120 C   0  0  2  0  0  3  0  0  0  0  0  0
  195.4580  173.0440  140.7930 O   0  0  0  0  0  1  0  0  0  0  0  0
  193.9940  174.8960  140.3970 C   0  0  0  0  0  2  0  0  0  0  0  0
  192.8740  174.9190  141.4390 C   0  0  0  0  0  2  0  0  0  0  0  0
  193.9140  174.7010  145.1630 C   0  0  0  0  0  2  0  0  0  0  0  0
  192.9050  176.8220  144.8160 C   0  0  0  0  0  2  0  0  0  0  0  0
  192.9160  175.6390  145.6760 N   0  0  0  0  0  2  0  0  0  0  0  0
  193.3360  175.3670  142.8280 C   0  0  0  0  0  3  0  0  0  0  0  0
  193.4910  174.1880  143.7890 C   0  0  0  0  0  2  0  0  0  0  0  0
  192.4240  176.4480  143.4140 C   0  0  0  0  0  2  0  0  0  0  0  0
  1  2  1  0  0  0  0
  1  7  1  0  0  0  0
  3  4  1  0  0  0  0
  3  5  1  0  0  0  0
  4 25  1  6  0  0  0
  4  6  1  0  0  0  0
  5  1  2  0  0  0  0
  6  2  1  0  0  0  0
  9  7  1  1  0  0  0
  9 10  1  0  0  0  0
  9  8  1  0  0  0  0
 10 11  1  6  0  0  0
 10  8  1  0  0  0  0
 12 11  1  0  0  0  0
 12 13  1  0  0  0  0
 14 17  1  0  0  0  0
 15 17  1  0  0  0  0
 16 24  1  6  0  0  0
 16 18  1  0  0  0  0
 16 15  1  0  0  0  0
 17 12  1  1  0  0  0
 18 14  1  0  0  0  0
 19 21  1  0  0  0  0
 19 16  1  0  0  0  0
 20 19  2  0  0  0  0
 22 21  1  0  0  0  0
 24 23  1  0  0  0  0
 26 25  1  0  0  0  0
 27 35  1  1  0  0  0
 27 26  1  0  0  0  0
 28 32  1  0  0  0  0
 28 31  1  0  0  0  0
 30 29  1  0  0  0  0
 31 34  1  6  0  0  0
 31 33  1  0  0  0  0
 32 30  1  0  0  0  0
 33 29  1  0  0  0  0
 33 27  1  1  0  0  0
 35 36  1  0  0  0  0
 37 36  1  0  0  0  0
 37 39  1  0  0  0  0
 37 38  1  1  0  0  0
 39 40  1  0  0  0  0
 40 44  1  0  0  0  0
 41 43  1  0  0  0  0
 42 43  1  0  0  0  0
 44 46  1  0  0  0  0
 44 45  1  0  0  0  0
 45 41  1  0  0  0  0
 46 42  1  0  0  0  0
M  END
>  <MODEL>
2

>  <REMARK>
 VINA RESULT:      -6.2      3.578      5.688
  Name = 
  18 active torsions:
  status: ('A' for Active; 'I' for Inactive)
    1  A    between atoms: N_1  and  N_11
    2  A    between atoms: N_1  and  C_33
    3  A    between atoms: C_3  and  N_44
    4  A    between atoms: N_11  and  C_20
    5  A    between atoms: C_12  and  C_21
    6  A    between atoms: C_12  and  C_30
    7  A    between atoms: C_14  and  C_23
    8  A    between atoms: C_14  and  C_29
    9  A    between atoms: C_14  and  C_32
   10  A    between atoms: O_17  and  C_21
   11  A    between atoms: C_18  and  N_44
   12  A    between atoms: C_19  and  C_23
   13  A    between atoms: C_19  and  C_27
   14  A    between atoms: C_27  and  C_28
   15  A    between atoms: C_28  and  C_42
   16  A    between atoms: C_29  and  C_37
   17  A    between atoms: C_31  and  C_37
   18  A    between atoms: C_40  and  C_42
                            x       y       z     vdW  Elec       q    Type
                         _______ _______ _______ _____ _____    ______ ____

>  <TORSDO>
F 18

$$$$
=
 OpenBabel11042419143D

 46 50  0  0  1  0  0  0  0  0999 V2000
  194.1560  171.7480  143.6710 C   0  0  0  0  0  0  0  0  0  0  0  0
  193.0240  172.0200  144.6290 C   0  0  0  0  0  2  0  0  0  0  0  0
  192.5500  171.1110  141.8650 C   0  0  0  0  0  2  0  0  0  0  0  0
  191.4720  171.8100  142.6830 C   0  0  2  0  0  3  0  0  0  0  0  0
  193.9240  171.4070  142.3940 C   0  0  0  0  0  3  0  0  0  0  0  0
  191.6810  171.4640  144.1520 C   0  0  0  0  0  2  0  0  0  0  0  0
  195.4930  171.9870  144.1250 N   0  0  0  0  0  2  0  0  0  0  0  0
  196.9890  173.6170  145.1200 C   0  0  0  0  0  2  0  0  0  0  0  0
  196.2120  173.2290  143.8800 C   0  0  2  0  0  3  0  0  0  0  0  0
  195.6780  174.3060  144.8010 C   0  0  2  0  0  3  0  0  0  0  0  0
  195.9470  175.6060  144.2100 N   0  0  0  0  0  2  0  0  0  0  0  0
  194.7280  176.3020  144.1750 N   0  0  0  0  0  0  0  0  0  0  0  0
  194.1360  175.9660  143.0010 O   0  0  0  0  0  1  0  0  0  0  0  0
  193.8570  176.7330  146.4290 C   0  0  0  0  0  2  0  0  0  0  0  0
  192.4410  175.6550  144.8050 C   0  0  0  0  0  2  0  0  0  0  0  0
  191.5750  176.0060  146.0080 C   0  0  1  0  0  0  0  0  0  0  0  0
  193.8890  175.7760  145.2530 C   0  0  1  0  0  3  0  0  0  0  0  0
  192.5220  176.4980  147.1000 C   0  0  0  0  0  2  0  0  0  0  0  0
  190.6000  177.0820  145.6080 C   0  0  0  0  0  0  0  0  0  0  0  0
  189.8820  177.6490  146.4780 O   0  0  0  0  0  0  0  0  0  0  0  0
  190.5420  177.5060  144.2810 O   0  0  0  0  0  0  0  0  0  0  0  0
  191.3150  178.5110  143.8470 O   0  0  0  0  0  1  0  0  0  0  0  0
  189.9170  174.3090  145.5370 O   0  0  0  0  0  1  0  0  0  0  0  0
  190.8170  174.7740  146.5010 C   0  0  0  0  0  2  0  0  0  0  0  0
  190.1080  171.3370  142.2180 C   0  0  0  0  0  2  0  0  0  0  0  0
  189.1860  172.5260  141.9760 C   0  0  0  0  0  2  0  0  0  0  0  0
  189.9410  173.7450  141.4300 C   0  0  1  0  0  3  0  0  0  0  0  0
  190.9350  173.5540  137.6590 C   0  0  0  0  0  2  0  0  0  0  0  0
  188.5500  173.1810  139.4050 C   0  0  0  0  0  2  0  0  0  0  0  0
  188.3130  173.4430  137.9280 C   0  0  0  0  0  2  0  0  0  0  0  0
  191.0440  173.3100  139.1590 C   0  0  2  0  0  3  0  0  0  0  0  0
  189.5740  172.5790  136.9440 S   0  0  0  0  0  0  0  0  0  0  0  0
  189.8190  173.8880  139.8960 C   0  0  2  0  0  3  0  0  0  0  0  0
  192.2160  173.8990  139.5980 F   0  0  0  0  0  0  0  0  0  0  0  0
  189.4690  175.0010  142.1590 C   0  0  0  0  0  2  0  0  0  0  0  0
  188.0120  174.8850  142.6050 C   0  0  0  0  0  2  0  0  0  0  0  0
  187.1320  176.0680  142.1870 C   0  0  2  0  0  3  0  0  0  0  0  0
  187.3670  176.4100  140.8560 O   0  0  0  0  0  1  0  0  0  0  0  0
  187.3150  177.2900  143.0820 C   0  0  0  0  0  2  0  0  0  0  0  0
  185.9760  177.8990  143.5000 C   0  0  0  0  0  2  0  0  0  0  0  0
  185.3260  178.9430  147.1710 C   0  0  0  0  0  2  0  0  0  0  0  0
  186.3830  176.8170  147.1990 C   0  0  0  0  0  2  0  0  0  0  0  0
  186.4110  178.1640  147.7660 N   0  0  0  0  0  2  0  0  0  0  0  0
  185.6830  177.7720  144.9960 C   0  0  0  0  0  3  0  0  0  0  0  0
  185.5790  179.1360  145.6790 C   0  0  0  0  0  2  0  0  0  0  0  0
  186.6960  176.8690  145.7050 C   0  0  0  0  0  2  0  0  0  0  0  0
  1  7  1  0  0  0  0
  1  2  1  0  0  0  0
  3  5  1  0  0  0  0
  3  4  1  0  0  0  0
  4 25  1  6  0  0  0
  4  6  1  0  0  0  0
  5  1  2  0  0  0  0
  6  2  1  0  0  0  0
  9  7  1  1  0  0  0
  9 10  1  0  0  0  0
  9  8  1  0  0  0  0
 10 11  1  6  0  0  0
 10  8  1  0  0  0  0
 12 11  1  0  0  0  0
 13 12  1  0  0  0  0
 14 18  1  0  0  0  0
 15 17  1  0  0  0  0
 15 16  1  0  0  0  0
 16 24  1  1  0  0  0
 16 18  1  0  0  0  0
 17 12  1  6  0  0  0
 17 14  1  0  0  0  0
 19 16  1  0  0  0  0
 19 20  2  0  0  0  0
 21 19  1  0  0  0  0
 22 21  1  0  0  0  0
 23 24  1  0  0  0  0
 26 25  1  0  0  0  0
 27 26  1  1  0  0  0
 27 35  1  0  0  0  0
 28 31  1  0  0  0  0
 29 33  1  0  0  0  0
 30 29  1  0  0  0  0
 31 34  1  1  0  0  0
 31 33  1  0  0  0  0
 32 28  1  0  0  0  0
 32 30  1  0  0  0  0
 33 27  1  1  0  0  0
 35 36  1  0  0  0  0
 37 38  1  6  0  0  0
 37 36  1  0  0  0  0
 37 39  1  0  0  0  0
 39 40  1  0  0  0  0
 40 44  1  0  0  0  0
 41 43  1  0  0  0  0
 42 43  1  0  0  0  0
 44 45  1  0  0  0  0
 44 46  1  0  0  0  0
 45 41  1  0  0  0  0
 46 42  1  0  0  0  0
M  END
>  <MODEL>
3

>  <REMARK>
 VINA RESULT:      -6.2      3.296      7.858
  Name = 
  18 active torsions:
  status: ('A' for Active; 'I' for Inactive)
    1  A    between atoms: N_1  and  N_11
    2  A    between atoms: N_1  and  C_33
    3  A    between atoms: C_3  and  N_44
    4  A    between atoms: N_11  and  C_20
    5  A    between atoms: C_12  and  C_21
    6  A    between atoms: C_12  and  C_30
    7  A    between atoms: C_14  and  C_23
    8  A    between atoms: C_14  and  C_29
    9  A    between atoms: C_14  and  C_32
   10  A    between atoms: O_17  and  C_21
   11  A    between atoms: C_18  and  N_44
   12  A    between atoms: C_19  and  C_23
   13  A    between atoms: C_19  and  C_27
   14  A    between atoms: C_27  and  C_28
   15  A    between atoms: C_28  and  C_42
   16  A    between atoms: C_29  and  C_37
   17  A    between atoms: C_31  and  C_37
   18  A    between atoms: C_40  and  C_42
                            x       y       z     vdW  Elec       q    Type
                         _______ _______ _______ _____ _____    ______ ____

>  <TORSDO>
F 18

$$$$
=
 OpenBabel11042419143D

 46 50  0  0  1  0  0  0  0  0999 V2000
  189.3960  175.9310  146.6770 C   0  0  0  0  0  0  0  0  0  0  0  0
  190.5050  176.8010  147.2120 C   0  0  0  0  0  2  0  0  0  0  0  0
  191.0470  174.3140  145.7230 C   0  0  0  0  0  2  0  0  0  0  0  0
  192.0840  174.9510  146.6400 C   0  0  2  0  0  3  0  0  0  0  0  0
  189.6560  174.7640  146.0670 C   0  0  0  0  0  3  0  0  0  0  0  0
  191.8770  176.4610  146.6250 C   0  0  0  0  0  2  0  0  0  0  0  0
  188.0460  176.3200  146.9500 N   0  0  0  0  0  2  0  0  0  0  0  0
  187.1280  178.3170  147.9760 C   0  0  0  0  0  2  0  0  0  0  0  0
  187.5250  177.6510  146.6750 C   0  0  2  0  0  3  0  0  0  0  0  0
  186.0670  177.7110  147.0800 C   0  0  2  0  0  3  0  0  0  0  0  0
  185.4120  178.7650  146.3250 N   0  0  0  0  0  2  0  0  0  0  0  0
  184.3810  178.1630  145.5860 N   0  0  0  0  0  0  0  0  0  0  0  0
  183.2650  178.8950  145.8300 O   0  0  0  0  0  1  0  0  0  0  0  0
  185.6320  179.5020  143.9530 C   0  0  0  0  0  2  0  0  0  0  0  0
  185.4760  177.1170  143.6490 C   0  0  0  0  0  2  0  0  0  0  0  0
  186.4930  177.6420  142.6450 C   0  0  1  0  0  0  0  0  0  0  0  0
  184.7050  178.3200  144.1680 C   0  0  1  0  0  3  0  0  0  0  0  0
  186.4270  179.1660  142.7110 C   0  0  0  0  0  2  0  0  0  0  0  0
  187.8600  177.1390  143.0270 C   0  0  0  0  0  0  0  0  0  0  0  0
  188.0310  175.9270  143.3400 O   0  0  0  0  0  0  0  0  0  0  0  0
  188.9570  177.9960  142.9620 O   0  0  0  0  0  0  0  0  0  0  0  0
  189.9570  177.9000  143.8480 O   0  0  0  0  0  1  0  0  0  0  0  0
  185.7880  178.2490  140.4120 O   0  0  0  0  0  1  0  0  0  0  0  0
  186.1430  177.1740  141.2320 C   0  0  0  0  0  2  0  0  0  0  0  0
  193.4730  174.6050  146.1380 C   0  0  0  0  0  2  0  0  0  0  0  0
  193.4670  173.2410  145.4580 C   0  0  0  0  0  2  0  0  0  0  0  0
  194.8840  172.6940  145.2400 C   0  0  1  0  0  3  0  0  0  0  0  0
  194.6120  168.7990  145.2760 C   0  0  0  0  0  2  0  0  0  0  0  0
  196.5260  170.9540  146.0310 C   0  0  0  0  0  2  0  0  0  0  0  0
  196.7010  169.5910  146.6790 C   0  0  0  0  0  2  0  0  0  0  0  0
  194.5220  170.2140  144.7140 C   0  0  2  0  0  3  0  0  0  0  0  0
  196.3480  168.2870  145.4620 S   0  0  0  0  0  0  0  0  0  0  0  0
  195.0490  171.2400  145.7370 C   0  0  2  0  0  3  0  0  0  0  0  0
  193.1990  170.4570  144.3950 F   0  0  0  0  0  0  0  0  0  0  0  0
  195.2610  172.8400  143.7660 C   0  0  0  0  0  2  0  0  0  0  0  0
  195.8660  174.2110  143.4680 C   0  0  0  0  0  2  0  0  0  0  0  0
  195.2380  174.9250  142.2660 C   0  0  2  0  0  3  0  0  0  0  0  0
  194.8620  176.2230  142.6070 O   0  0  0  0  0  1  0  0  0  0  0  0
  194.0480  174.1700  141.6820 C   0  0  0  0  0  2  0  0  0  0  0  0
  192.7180  174.6760  142.2430 C   0  0  0  0  0  2  0  0  0  0  0  0
  189.9720  171.9750  141.8470 C   0  0  0  0  0  2  0  0  0  0  0  0
  190.4190  172.8750  139.6950 C   0  0  0  0  0  2  0  0  0  0  0  0
  190.2640  171.6350  140.4550 N   0  0  0  0  0  2  0  0  0  0  0  0
  191.4960  173.9450  141.6820 C   0  0  0  0  0  3  0  0  0  0  0  0
  191.1710  172.6790  142.4750 C   0  0  0  0  0  2  0  0  0  0  0  0
  191.6430  173.6450  140.1880 C   0  0  0  0  0  2  0  0  0  0  0  0
  1  7  1  0  0  0  0
  1  2  1  0  0  0  0
  3  5  1  0  0  0  0
  3  4  1  0  0  0  0
  4 25  1  6  0  0  0
  5  1  2  0  0  0  0
  6  4  1  0  0  0  0
  6  2  1  0  0  0  0
  9  7  1  1  0  0  0
  9 10  1  0  0  0  0
  9  8  1  0  0  0  0
 10 11  1  6  0  0  0
 10  8  1  0  0  0  0
 12 13  1  0  0  0  0
 12 11  1  0  0  0  0
 14 17  1  0  0  0  0
 15 17  1  0  0  0  0
 16 24  1  6  0  0  0
 16 18  1  0  0  0  0
 16 19  1  0  0  0  0
 16 15  1  0  0  0  0
 17 12  1  1  0  0  0
 18 14  1  0  0  0  0
 19 20  2  0  0  0  0
 21 19  1  0  0  0  0
 21 22  1  0  0  0  0
 23 24  1  0  0  0  0
 26 25  1  0  0  0  0
 27 35  1  6  0  0  0
 27 26  1  0  0  0  0
 28 32  1  0  0  0  0
 29 30  1  0  0  0  0
 31 34  1  1  0  0  0
 31 28  1  0  0  0  0
 31 33  1  0  0  0  0
 32 30  1  0  0  0  0
 33 27  1  6  0  0  0
 33 29  1  0  0  0  0
 36 35  1  0  0  0  0
 37 38  1  1  0  0  0
 37 36  1  0  0  0  0
 39 40  1  0  0  0  0
 39 37  1  0  0  0  0
 41 45  1  0  0  0  0
 42 46  1  0  0  0  0
 42 43  1  0  0  0  0
 43 41  1  0  0  0  0
 44 40  1  0  0  0  0
 44 45  1  0  0  0  0
 46 44  1  0  0  0  0
M  END
>  <MODEL>
4

>  <REMARK>
 VINA RESULT:      -6.1      1.504      1.981
  Name = 
  18 active torsions:
  status: ('A' for Active; 'I' for Inactive)
    1  A    between atoms: N_1  and  N_11
    2  A    between atoms: N_1  and  C_33
    3  A    between atoms: C_3  and  N_44
    4  A    between atoms: N_11  and  C_20
    5  A    between atoms: C_12  and  C_21
    6  A    between atoms: C_12  and  C_30
    7  A    between atoms: C_14  and  C_23
    8  A    between atoms: C_14  and  C_29
    9  A    between atoms: C_14  and  C_32
   10  A    between atoms: O_17  and  C_21
   11  A    between atoms: C_18  and  N_44
   12  A    between atoms: C_19  and  C_23
   13  A    between atoms: C_19  and  C_27
   14  A    between atoms: C_27  and  C_28
   15  A    between atoms: C_28  and  C_42
   16  A    between atoms: C_29  and  C_37
   17  A    between atoms: C_31  and  C_37
   18  A    between atoms: C_40  and  C_42
                            x       y       z     vdW  Elec       q    Type
                         _______ _______ _______ _____ _____    ______ ____

>  <TORSDO>
F 18

$$$$
=
 OpenBabel11042419143D

 46 50  0  0  1  0  0  0  0  0999 V2000
  191.8980  174.9970  145.9830 C   0  0  0  0  0  0  0  0  0  0  0  0
  190.4040  175.0610  146.1720 C   0  0  0  0  0  2  0  0  0  0  0  0
  191.6940  172.9050  144.6310 C   0  0  0  0  0  2  0  0  0  0  0  0
  190.2190  173.2480  144.4630 C   0  0  2  0  0  3  0  0  0  0  0  0
  192.4660  174.0530  145.2170 C   0  0  0  0  0  3  0  0  0  0  0  0
  189.6900  173.7610  145.7970 C   0  0  0  0  0  2  0  0  0  0  0  0
  192.6920  176.0510  146.5410 N   0  0  0  0  0  2  0  0  0  0  0  0
  194.5600  177.5290  146.0850 C   0  0  0  0  0  2  0  0  0  0  0  0
  194.1410  176.1130  146.4180 C   0  0  2  0  0  3  0  0  0  0  0  0
  194.5070  176.4770  144.9950 C   0  0  2  0  0  3  0  0  0  0  0  0
  195.8510  176.0010  144.7180 N   0  0  0  0  0  2  0  0  0  0  0  0
  195.7330  174.9600  143.7830 N   0  0  0  0  0  0  0  0  0  0  0  0
  196.2580  175.4330  142.6240 O   0  0  0  0  0  1  0  0  0  0  0  0
  196.5380  173.7220  145.7440 C   0  0  0  0  0  2  0  0  0  0  0  0
  196.0950  172.5290  143.6980 C   0  0  0  0  0  2  0  0  0  0  0  0
  196.3410  171.4950  144.7880 C   0  0  1  0  0  0  0  0  0  0  0  0
  196.5910  173.8630  144.2340 C   0  0  1  0  0  3  0  0  0  0  0  0
  196.8180  172.2610  146.0190 C   0  0  0  0  0  2  0  0  0  0  0  0
  195.0530  170.7650  145.0660 C   0  0  0  0  0  0  0  0  0  0  0  0
  194.2310  170.5410  144.1340 O   0  0  0  0  0  0  0  0  0  0  0  0
  194.8010  170.2680  146.3440 O   0  0  0  0  0  0  0  0  0  0  0  0
  195.4690  169.2050  146.8110 O   0  0  0  0  0  1  0  0  0  0  0  0
  197.6950  170.6160  142.9860 O   0  0  0  0  0  1  0  0  0  0  0  0
  197.4180  170.5010  144.3520 C   0  0  0  0  0  2  0  0  0  0  0  0
  189.4640  172.0040  144.0390 C   0  0  0  0  0  2  0  0  0  0  0  0
  188.6660  172.2740  142.7690 C   0  0  0  0  0  2  0  0  0  0  0  0
  189.2840  173.3930  141.9210 C   0  0  1  0  0  3  0  0  0  0  0  0
  191.3350  171.1990  139.4260 C   0  0  0  0  0  2  0  0  0  0  0  0
  188.7060  172.5880  139.6040 C   0  0  0  0  0  2  0  0  0  0  0  0
  189.2350  172.2450  138.2220 C   0  0  0  0  0  2  0  0  0  0  0  0
  190.7140  171.6170  140.7540 C   0  0  2  0  0  3  0  0  0  0  0  0
  190.0560  170.6240  138.2670 S   0  0  0  0  0  0  0  0  0  0  0  0
  189.8530  172.8840  140.5770 C   0  0  2  0  0  3  0  0  0  0  0  0
  191.7430  171.8320  141.6520 F   0  0  0  0  0  0  0  0  0  0  0  0
  188.2550  174.5040  141.7210 C   0  0  0  0  0  2  0  0  0  0  0  0
  188.2150  175.4620  142.9100 C   0  0  0  0  0  2  0  0  0  0  0  0
  189.0650  176.7240  142.7270 C   0  0  2  0  0  3  0  0  0  0  0  0
  190.4110  176.4480  142.9620 O   0  0  0  0  0  1  0  0  0  0  0  0
  188.6050  177.8820  143.6060 C   0  0  0  0  0  2  0  0  0  0  0  0
  187.9410  177.3940  144.8950 C   0  0  0  0  0  2  0  0  0  0  0  0
  184.4620  178.2080  146.3870 C   0  0  0  0  0  2  0  0  0  0  0  0
  184.8200  179.6660  144.5480 C   0  0  0  0  0  2  0  0  0  0  0  0
  183.8690  178.7400  145.1610 N   0  0  0  0  0  2  0  0  0  0  0  0
  186.7070  178.2050  145.2960 C   0  0  0  0  0  3  0  0  0  0  0  0
  185.6820  177.3560  146.0490 C   0  0  0  0  0  2  0  0  0  0  0  0
  186.0710  178.9130  144.0970 C   0  0  0  0  0  2  0  0  0  0  0  0
  1  2  1  0  0  0  0
  1  7  1  0  0  0  0
  3  5  1  0  0  0  0
  4 25  1  1  0  0  0
  4  3  1  0  0  0  0
  4  6  1  0  0  0  0
  5  1  2  0  0  0  0
  6  2  1  0  0  0  0
  8  9  1  0  0  0  0
  9  7  1  6  0  0  0
 10 11  1  1  0  0  0
 10  8  1  0  0  0  0
 10  9  1  0  0  0  0
 12 11  1  0  0  0  0
 13 12  1  0  0  0  0
 14 18  1  0  0  0  0
 15 17  1  0  0  0  0
 15 16  1  0  0  0  0
 16 24  1  6  0  0  0
 16 19  1  0  0  0  0
 16 18  1  0  0  0  0
 17 12  1  6  0  0  0
 17 14  1  0  0  0  0
 19 21  1  0  0  0  0
 20 19  2  0  0  0  0
 21 22  1  0  0  0  0
 23 24  1  0  0  0  0
 26 25  1  0  0  0  0
 27 35  1  6  0  0  0
 27 26  1  0  0  0  0
 28 31  1  0  0  0  0
 29 33  1  0  0  0  0
 30 32  1  0  0  0  0
 30 29  1  0  0  0  0
 31 34  1  1  0  0  0
 32 28  1  0  0  0  0
 33 31  1  0  0  0  0
 33 27  1  1  0  0  0
 35 36  1  0  0  0  0
 37 36  1  0  0  0  0
 37 38  1  1  0  0  0
 37 39  1  0  0  0  0
 39 40  1  0  0  0  0
 40 44  1  0  0  0  0
 42 43  1  0  0  0  0
 43 41  1  0  0  0  0
 44 45  1  0  0  0  0
 45 41  1  0  0  0  0
 46 42  1  0  0  0  0
 46 44  1  0  0  0  0
M  END
>  <MODEL>
5

>  <REMARK>
 VINA RESULT:      -6.1      3.644      8.748
  Name = 
  18 active torsions:
  status: ('A' for Active; 'I' for Inactive)
    1  A    between atoms: N_1  and  N_11
    2  A    between atoms: N_1  and  C_33
    3  A    between atoms: C_3  and  N_44
    4  A    between atoms: N_11  and  C_20
    5  A    between atoms: C_12  and  C_21
    6  A    between atoms: C_12  and  C_30
    7  A    between atoms: C_14  and  C_23
    8  A    between atoms: C_14  and  C_29
    9  A    between atoms: C_14  and  C_32
   10  A    between atoms: O_17  and  C_21
   11  A    between atoms: C_18  and  N_44
   12  A    between atoms: C_19  and  C_23
   13  A    between atoms: C_19  and  C_27
   14  A    between atoms: C_27  and  C_28
   15  A    between atoms: C_28  and  C_42
   16  A    between atoms: C_29  and  C_37
   17  A    between atoms: C_31  and  C_37
   18  A    between atoms: C_40  and  C_42
                            x       y       z     vdW  Elec       q    Type
                         _______ _______ _______ _____ _____    ______ ____

>  <TORSDO>
F 18

$$$$
=
 OpenBabel11042419143D

 46 50  0  0  1  0  0  0  0  0999 V2000
  189.6920  172.4920  142.4200 C   0  0  0  0  0  0  0  0  0  0  0  0
  190.2000  171.7030  143.6000 C   0  0  0  0  0  2  0  0  0  0  0  0
  188.9180  174.3390  143.9160 C   0  0  0  0  0  2  0  0  0  0  0  0
  189.8210  173.7440  144.9890 C   0  0  2  0  0  3  0  0  0  0  0  0
  189.1780  173.7220  142.5710 C   0  0  0  0  0  3  0  0  0  0  0  0
  189.6900  172.2270  144.9430 C   0  0  0  0  0  2  0  0  0  0  0  0
  189.8870  171.9440  141.1110 N   0  0  0  0  0  2  0  0  0  0  0  0
  191.1910  171.5300  139.1080 C   0  0  0  0  0  2  0  0  0  0  0  0
  190.7160  172.5760  140.0940 C   0  0  2  0  0  3  0  0  0  0  0  0
  192.1260  172.0300  140.1890 C   0  0  2  0  0  3  0  0  0  0  0  0
  193.0450  173.0010  139.6220 N   0  0  0  0  0  2  0  0  0  0  0  0
  194.3090  172.7440  140.1770 N   0  0  0  0  0  0  0  0  0  0  0  0
  195.0450  173.8660  139.9750 O   0  0  0  0  0  1  0  0  0  0  0  0
  195.1890  171.6650  142.1990 C   0  0  0  0  0  2  0  0  0  0  0  0
  194.3390  173.9160  142.3380 C   0  0  0  0  0  2  0  0  0  0  0  0
  195.0270  173.6020  143.6600 C   0  0  1  0  0  0  0  0  0  0  0  0
  194.1340  172.5900  141.6210 C   0  0  1  0  0  3  0  0  0  0  0  0
  195.3750  172.1160  143.6310 C   0  0  0  0  0  2  0  0  0  0  0  0
  196.2660  174.4490  143.7770 C   0  0  0  0  0  0  0  0  0  0  0  0
  197.3020  173.9930  144.3360 O   0  0  0  0  0  0  0  0  0  0  0  0
  196.2960  175.7180  143.2000 O   0  0  0  0  0  0  0  0  0  0  0  0
  196.0680  176.8130  143.9370 O   0  0  0  0  0  1  0  0  0  0  0  0
  193.2450  172.8010  145.0870 O   0  0  0  0  0  1  0  0  0  0  0  0
  194.0890  173.8870  144.8340 C   0  0  0  0  0  2  0  0  0  0  0  0
  189.3960  174.2700  146.3460 C   0  0  0  0  0  2  0  0  0  0  0  0
  188.5780  175.5470  146.1880 C   0  0  0  0  0  2  0  0  0  0  0  0
  189.2850  176.7680  146.7920 C   0  0  1  0  0  3  0  0  0  0  0  0
  192.6800  177.1830  144.9080 C   0  0  0  0  0  2  0  0  0  0  0  0
  189.7590  177.5400  144.4400 C   0  0  0  0  0  2  0  0  0  0  0  0
  190.7200  178.2860  143.5300 C   0  0  0  0  0  2  0  0  0  0  0  0
  191.6200  176.5080  145.7710 C   0  0  2  0  0  3  0  0  0  0  0  0
  192.1580  177.2340  143.1650 S   0  0  0  0  0  0  0  0  0  0  0  0
  190.3460  177.3740  145.8470 C   0  0  2  0  0  3  0  0  0  0  0  0
  192.1630  176.3060  147.0260 F   0  0  0  0  0  0  0  0  0  0  0  0
  188.2400  177.8000  147.2130 C   0  0  0  0  0  2  0  0  0  0  0  0
  186.8270  177.3680  146.8250 C   0  0  0  0  0  2  0  0  0  0  0  0
  185.8470  178.5310  146.6330 C   0  0  2  0  0  3  0  0  0  0  0  0
  185.0170  178.6630  147.7450 O   0  0  0  0  0  1  0  0  0  0  0  0
  185.0090  178.3970  145.3660 C   0  0  0  0  0  2  0  0  0  0  0  0
  185.5700  177.3350  144.4180 C   0  0  0  0  0  2  0  0  0  0  0  0
  184.9010  178.4720  140.7770 C   0  0  0  0  0  2  0  0  0  0  0  0
  187.0870  177.5470  140.8570 C   0  0  0  0  0  2  0  0  0  0  0  0
  185.8170  177.5310  140.1320 N   0  0  0  0  0  2  0  0  0  0  0  0
  185.8430  177.8560  143.0050 C   0  0  0  0  0  3  0  0  0  0  0  0
  184.5610  177.9870  142.1830 C   0  0  0  0  0  2  0  0  0  0  0  0
  186.8890  177.0100  142.2740 C   0  0  0  0  0  2  0  0  0  0  0  0
  1  5  2  0  0  0  0
  1  2  1  0  0  0  0
  2  6  1  0  0  0  0
  3  4  1  0  0  0  0
  4 25  1  1  0  0  0
  5  3  1  0  0  0  0
  6  4  1  0  0  0  0
  7  1  1  0  0  0  0
  8  9  1  0  0  0  0
  8 10  1  0  0  0  0
  9 10  1  0  0  0  0
  9  7  1  1  0  0  0
 10 11  1  6  0  0  0
 11 12  1  0  0  0  0
 13 12  1  0  0  0  0
 14 18  1  0  0  0  0
 15 16  1  0  0  0  0
 16 19  1  0  0  0  0
 16 24  1  1  0  0  0
 17 12  1  6  0  0  0
 17 14  1  0  0  0  0
 17 15  1  0  0  0  0
 18 16  1  0  0  0  0
 19 20  2  0  0  0  0
 21 19  1  0  0  0  0
 21 22  1  0  0  0  0
 24 23  1  0  0  0  0
 26 25  1  0  0  0  0
 27 26  1  6  0  0  0
 27 35  1  0  0  0  0
 28 31  1  0  0  0  0
 29 33  1  0  0  0  0
 30 29  1  0  0  0  0
 31 33  1  0  0  0  0
 31 34  1  1  0  0  0
 32 30  1  0  0  0  0
 32 28  1  0  0  0  0
 33 27  1  1  0  0  0
 36 35  1  0  0  0  0
 37 36  1  0  0  0  0
 37 38  1  1  0  0  0
 39 37  1  0  0  0  0
 40 39  1  0  0  0  0
 41 45  1  0  0  0  0
 42 46  1  0  0  0  0
 43 41  1  0  0  0  0
 43 42  1  0  0  0  0
 44 40  1  0  0  0  0
 45 44  1  0  0  0  0
 46 44  1  0  0  0  0
M  END
>  <MODEL>
6

>  <REMARK>
 VINA RESULT:      -5.9      3.305      8.744
  Name = 
  18 active torsions:
  status: ('A' for Active; 'I' for Inactive)
    1  A    between atoms: N_1  and  N_11
    2  A    between atoms: N_1  and  C_33
    3  A    between atoms: C_3  and  N_44
    4  A    between atoms: N_11  and  C_20
    5  A    between atoms: C_12  and  C_21
    6  A    between atoms: C_12  and  C_30
    7  A    between atoms: C_14  and  C_23
    8  A    between atoms: C_14  and  C_29
    9  A    between atoms: C_14  and  C_32
   10  A    between atoms: O_17  and  C_21
   11  A    between atoms: C_18  and  N_44
   12  A    between atoms: C_19  and  C_23
   13  A    between atoms: C_19  and  C_27
   14  A    between atoms: C_27  and  C_28
   15  A    between atoms: C_28  and  C_42
   16  A    between atoms: C_29  and  C_37
   17  A    between atoms: C_31  and  C_37
   18  A    between atoms: C_40  and  C_42
                            x       y       z     vdW  Elec       q    Type
                         _______ _______ _______ _____ _____    ______ ____

>  <TORSDO>
F 18

$$$$
=
 OpenBabel11042419143D

 46 50  0  0  1  0  0  0  0  0999 V2000
  194.9850  176.0760  144.7700 C   0  0  0  0  0  0  0  0  0  0  0  0
  194.5680  177.2050  145.6780 C   0  0  0  0  0  2  0  0  0  0  0  0
  193.3480  174.5270  145.8530 C   0  0  0  0  0  2  0  0  0  0  0  0
  192.6620  175.7670  146.4130 C   0  0  2  0  0  3  0  0  0  0  0  0
  194.3690  174.8840  144.8100 C   0  0  0  0  0  2  0  0  0  0  0  0
  193.7370  176.7440  146.8760 C   0  0  0  0  0  2  0  0  0  0  0  0
  195.9740  176.3460  143.7710 N   0  0  0  0  0  0  0  0  0  0  0  0
  197.2670  176.0690  141.7370 C   0  0  0  0  0  2  0  0  0  0  0  0
  196.3400  175.3980  142.7280 C   0  0  2  0  0  3  0  0  0  0  0  0
  195.8020  175.8850  141.3990 C   0  0  2  0  0  3  0  0  0  0  0  0
  195.6510  174.7480  140.5080 N   0  0  0  0  0  2  0  0  0  0  0  0
  194.4890  174.0660  140.9040 N   0  0  0  0  0  0  0  0  0  0  0  0
  193.4740  174.9590  140.7980 O   0  0  0  0  0  1  0  0  0  0  0  0
  193.3140  171.9510  140.4890 C   0  0  0  0  0  2  0  0  0  0  0  0
  193.5220  173.5540  138.7020 C   0  0  0  0  0  2  0  0  0  0  0  0
  192.5570  172.4710  138.2380 C   0  0  1  0  0  0  0  0  0  0  0  0
  194.2450  173.0070  139.9240 C   0  0  1  0  0  3  0  0  0  0  0  0
  192.5970  171.3680  139.2920 C   0  0  0  0  0  2  0  0  0  0  0  0
  191.1780  173.0650  138.1220 C   0  0  0  0  0  0  0  0  0  0  0  0
  190.9970  174.1430  137.4910 O   0  0  0  0  0  0  0  0  0  0  0  0
  190.0840  172.3830  138.6510 O   0  0  0  0  0  0  0  0  0  0  0  0
  188.8640  172.5160  138.1110 O   0  0  0  0  0  1  0  0  0  0  0  0
  194.1000  172.5970  136.3780 O   0  0  0  0  0  1  0  0  0  0  0  0
  192.9950  171.9060  136.8860 C   0  0  0  0  0  2  0  0  0  0  0  0
  191.7780  175.3640  147.5770 C   0  0  0  0  0  2  0  0  0  0  0  0
  190.4110  174.9130  147.0750 C   0  0  0  0  0  2  0  0  0  0  0  0
  189.6430  176.0480  146.3830 C   0  0  1  0  0  3  0  0  0  0  0  0
  189.7860  176.3570  142.4940 C   0  0  0  0  0  2  0  0  0  0  0  0
  189.5880  174.2630  144.6050 C   0  0  0  0  0  2  0  0  0  0  0  0
  189.1380  173.8990  143.2000 C   0  0  0  0  0  2  0  0  0  0  0  0
  190.1830  176.6100  143.9440 C   0  0  2  0  0  3  0  0  0  0  0  0
  190.2460  174.6710  141.9830 S   0  0  0  0  0  0  0  0  0  0  0  0
  189.3360  175.7460  144.8990 C   0  0  2  0  0  3  0  0  0  0  0  0
  190.0090  177.9580  144.1990 F   0  0  0  0  0  0  0  0  0  0  0  0
  188.3750  176.3570  147.1780 C   0  0  0  0  0  2  0  0  0  0  0  0
  187.8470  177.7590  146.8810 C   0  0  0  0  0  2  0  0  0  0  0  0
  186.5680  178.1210  147.6430 C   0  0  2  0  0  3  0  0  0  0  0  0
  185.8690  176.9710  148.0070 O   0  0  0  0  0  1  0  0  0  0  0  0
  185.6570  179.0620  146.8610 C   0  0  0  0  0  2  0  0  0  0  0  0
  184.5650  178.3040  146.1030 C   0  0  0  0  0  2  0  0  0  0  0  0
  185.9450  176.6810  142.8700 C   0  0  0  0  0  2  0  0  0  0  0  0
  185.9240  179.0340  142.5470 C   0  0  0  0  0  2  0  0  0  0  0  0
  186.7400  177.8260  142.4290 N   0  0  0  0  0  2  0  0  0  0  0  0
  184.8720  178.1050  144.6180 C   0  0  0  0  0  3  0  0  0  0  0  0
  185.6350  176.8050  144.3590 C   0  0  0  0  0  2  0  0  0  0  0  0
  185.6020  179.3080  144.0160 C   0  0  0  0  0  2  0  0  0  0  0  0
  1  5  1  0  0  0  0
  1  2  1  0  0  0  0
  2  6  1  0  0  0  0
  3  4  1  0  0  0  0
  4  6  1  0  0  0  0
  4 25  1  1  0  0  0
  5  3  1  0  0  0  0
  7  1  2  0  0  0  0
  8  9  1  0  0  0  0
  9  7  1  1  0  0  0
 10 11  1  6  0  0  0
 10  8  1  0  0  0  0
 10  9  1  0  0  0  0
 11 12  1  0  0  0  0
 13 12  1  0  0  0  0
 15 17  1  0  0  0  0
 16 24  1  6  0  0  0
 16 15  1  0  0  0  0
 16 18  1  0  0  0  0
 17 14  1  0  0  0  0
 17 12  1  1  0  0  0
 18 14  1  0  0  0  0
 19 16  1  0  0  0  0
 19 21  1  0  0  0  0
 20 19  2  0  0  0  0
 22 21  1  0  0  0  0
 23 24  1  0  0  0  0
 26 25  1  0  0  0  0
 27 26  1  1  0  0  0
 27 35  1  0  0  0  0
 28 31  1  0  0  0  0
 29 33  1  0  0  0  0
 30 29  1  0  0  0  0
 31 34  1  1  0  0  0
 31 33  1  0  0  0  0
 32 28  1  0  0  0  0
 32 30  1  0  0  0  0
 33 27  1  1  0  0  0
 36 35  1  0  0  0  0
 36 37  1  0  0  0  0
 37 38  1  6  0  0  0
 39 37  1  0  0  0  0
 40 39  1  0  0  0  0
 41 45  1  0  0  0  0
 42 46  1  0  0  0  0
 43 42  1  0  0  0  0
 43 41  1  0  0  0  0
 44 40  1  0  0  0  0
 45 44  1  0  0  0  0
 46 44  1  0  0  0  0
M  END
>  <MODEL>
7

>  <REMARK>
 VINA RESULT:      -5.9      3.489      8.528
  Name = 
  18 active torsions:
  status: ('A' for Active; 'I' for Inactive)
    1  A    between atoms: N_1  and  N_11
    2  A    between atoms: N_1  and  C_33
    3  A    between atoms: C_3  and  N_44
    4  A    between atoms: N_11  and  C_20
    5  A    between atoms: C_12  and  C_21
    6  A    between atoms: C_12  and  C_30
    7  A    between atoms: C_14  and  C_23
    8  A    between atoms: C_14  and  C_29
    9  A    between atoms: C_14  and  C_32
   10  A    between atoms: O_17  and  C_21
   11  A    between atoms: C_18  and  N_44
   12  A    between atoms: C_19  and  C_23
   13  A    between atoms: C_19  and  C_27
   14  A    between atoms: C_27  and  C_28
   15  A    between atoms: C_28  and  C_42
   16  A    between atoms: C_29  and  C_37
   17  A    between atoms: C_31  and  C_37
   18  A    between atoms: C_40  and  C_42
                            x       y       z     vdW  Elec       q    Type
                         _______ _______ _______ _____ _____    ______ ____

>  <TORSDO>
F 18

$$$$
=
 OpenBabel11042419143D

 46 50  0  0  1  0  0  0  0  0999 V2000
  193.3540  176.1860  145.1260 C   0  0  0  0  0  0  0  0  0  0  0  0
  192.3750  177.2020  144.5960 C   0  0  0  0  0  2  0  0  0  0  0  0
  191.5390  174.4870  145.3840 C   0  0  0  0  0  2  0  0  0  0  0  0
  190.7010  175.3530  144.4510 C   0  0  2  0  0  3  0  0  0  0  0  0
  192.9740  174.9310  145.4100 C   0  0  0  0  0  3  0  0  0  0  0  0
  190.9130  176.8140  144.8300 C   0  0  0  0  0  2  0  0  0  0  0  0
  194.7350  176.5590  145.1990 N   0  0  0  0  0  2  0  0  0  0  0  0
  196.4770  176.7750  143.5250 C   0  0  0  0  0  2  0  0  0  0  0  0
  195.7950  175.8430  144.5050 C   0  0  2  0  0  3  0  0  0  0  0  0
  195.4630  175.7640  143.0300 C   0  0  2  0  0  3  0  0  0  0  0  0
  196.1560  174.6270  142.4510 N   0  0  0  0  0  2  0  0  0  0  0  0
  195.2890  174.0510  141.5090 N   0  0  0  0  0  0  0  0  0  0  0  0
  195.8370  174.2950  140.2920 O   0  0  0  0  0  1  0  0  0  0  0  0
  196.7370  172.0970  141.8400 C   0  0  0  0  0  2  0  0  0  0  0  0
  194.6480  172.2310  143.0330 C   0  0  0  0  0  2  0  0  0  0  0  0
  195.4300  171.0580  143.6070 C   0  0  1  0  0  0  0  0  0  0  0  0
  195.3120  172.6030  141.7160 C   0  0  1  0  0  3  0  0  0  0  0  0
  196.6490  170.8620  142.7090 C   0  0  0  0  0  2  0  0  0  0  0  0
  195.8410  171.3900  145.0180 C   0  0  0  0  0  0  0  0  0  0  0  0
  195.1640  172.2030  145.7070 O   0  0  0  0  0  0  0  0  0  0  0  0
  196.9320  170.7390  145.5930 O   0  0  0  0  0  0  0  0  0  0  0  0
  196.8100  170.0950  146.7620 O   0  0  0  0  0  1  0  0  0  0  0  0
  193.2150  170.0910  143.5150 O   0  0  0  0  0  1  0  0  0  0  0  0
  194.5780  169.7890  143.5990 C   0  0  0  0  0  2  0  0  0  0  0  0
  189.2400  174.9760  144.5990 C   0  0  0  0  0  2  0  0  0  0  0  0
  188.6660  174.5360  143.2580 C   0  0  0  0  0  2  0  0  0  0  0  0
  189.3830  175.1970  142.0730 C   0  0  1  0  0  3  0  0  0  0  0  0
  191.8230  172.6330  140.4240 C   0  0  0  0  0  2  0  0  0  0  0  0
  188.9030  173.0470  140.8490 C   0  0  0  0  0  2  0  0  0  0  0  0
  189.3310  172.1130  139.7300 C   0  0  0  0  0  2  0  0  0  0  0  0
  191.2710  173.5660  141.4970 C   0  0  2  0  0  3  0  0  0  0  0  0
  190.7800  171.1500  140.2590 S   0  0  0  0  0  0  0  0  0  0  0  0
  189.9250  174.1720  141.0530 C   0  0  2  0  0  3  0  0  0  0  0  0
  192.2140  174.5510  141.7240 F   0  0  0  0  0  0  0  0  0  0  0  0
  188.4480  176.2130  141.4210 C   0  0  0  0  0  2  0  0  0  0  0  0
  187.0500  176.1750  142.0350 C   0  0  0  0  0  2  0  0  0  0  0  0
  186.2070  177.4240  141.7540 C   0  0  2  0  0  3  0  0  0  0  0  0
  186.3590  177.8320  140.4300 O   0  0  0  0  0  1  0  0  0  0  0  0
  186.5230  178.5780  142.6990 C   0  0  0  0  0  2  0  0  0  0  0  0
  187.2780  178.1090  143.9440 C   0  0  0  0  0  2  0  0  0  0  0  0
  184.4130  178.4300  146.5290 C   0  0  0  0  0  2  0  0  0  0  0  0
  186.1910  177.2440  147.5630 C   0  0  0  0  0  2  0  0  0  0  0  0
  185.2510  178.3520  147.7250 N   0  0  0  0  0  2  0  0  0  0  0  0
  186.3650  177.7640  145.1220 C   0  0  0  0  0  3  0  0  0  0  0  0
  185.2640  178.8060  145.3190 C   0  0  0  0  0  2  0  0  0  0  0  0
  187.1550  177.5370  146.4140 C   0  0  0  0  0  2  0  0  0  0  0  0
  1  7  1  0  0  0  0
  1  5  2  0  0  0  0
  2  6  1  0  0  0  0
  2  1  1  0  0  0  0
  3  5  1  0  0  0  0
  4 25  1  1  0  0  0
  4  6  1  0  0  0  0
  4  3  1  0  0  0  0
  8  9  1  0  0  0  0
  9  7  1  1  0  0  0
 10 11  1  6  0  0  0
 10  8  1  0  0  0  0
 10  9  1  0  0  0  0
 12 11  1  0  0  0  0
 13 12  1  0  0  0  0
 14 18  1  0  0  0  0
 15 16  1  0  0  0  0
 16 24  1  6  0  0  0
 16 19  1  0  0  0  0
 17 12  1  1  0  0  0
 17 14  1  0  0  0  0
 17 15  1  0  0  0  0
 18 16  1  0  0  0  0
 19 21  1  0  0  0  0
 19 20  2  0  0  0  0
 21 22  1  0  0  0  0
 23 24  1  0  0  0  0
 26 25  1  0  0  0  0
 27 35  1  6  0  0  0
 27 26  1  0  0  0  0
 28 31  1  0  0  0  0
 29 33  1  0  0  0  0
 30 32  1  0  0  0  0
 30 29  1  0  0  0  0
 31 34  1  6  0  0  0
 32 28  1  0  0  0  0
 33 31  1  0  0  0  0
 33 27  1  1  0  0  0
 35 36  1  0  0  0  0
 37 38  1  6  0  0  0
 37 36  1  0  0  0  0
 37 39  1  0  0  0  0
 39 40  1  0  0  0  0
 40 44  1  0  0  0  0
 41 43  1  0  0  0  0
 42 43  1  0  0  0  0
 44 45  1  0  0  0  0
 44 46  1  0  0  0  0
 45 41  1  0  0  0  0
 46 42  1  0  0  0  0
M  END
>  <MODEL>
8

>  <REMARK>
 VINA RESULT:      -5.8      3.508      8.810
  Name = 
  18 active torsions:
  status: ('A' for Active; 'I' for Inactive)
    1  A    between atoms: N_1  and  N_11
    2  A    between atoms: N_1  and  C_33
    3  A    between atoms: C_3  and  N_44
    4  A    between atoms: N_11  and  C_20
    5  A    between atoms: C_12  and  C_21
    6  A    between atoms: C_12  and  C_30
    7  A    between atoms: C_14  and  C_23
    8  A    between atoms: C_14  and  C_29
    9  A    between atoms: C_14  and  C_32
   10  A    between atoms: O_17  and  C_21
   11  A    between atoms: C_18  and  N_44
   12  A    between atoms: C_19  and  C_23
   13  A    between atoms: C_19  and  C_27
   14  A    between atoms: C_27  and  C_28
   15  A    between atoms: C_28  and  C_42
   16  A    between atoms: C_29  and  C_37
   17  A    between atoms: C_31  and  C_37
   18  A    between atoms: C_40  and  C_42
                            x       y       z     vdW  Elec       q    Type
                         _______ _______ _______ _____ _____    ______ ____

>  <TORSDO>
F 18

$$$$
=
 OpenBabel11042419143D

 46 50  0  0  1  0  0  0  0  0999 V2000
  190.1300  174.1780  145.6020 C   0  0  0  0  0  0  0  0  0  0  0  0
  189.7790  173.0000  144.7300 C   0  0  0  0  0  2  0  0  0  0  0  0
  192.5520  173.9550  145.0260 C   0  0  0  0  0  2  0  0  0  0  0  0
  192.1130  173.0970  143.8460 C   0  0  2  0  0  3  0  0  0  0  0  0
  191.3850  174.6490  145.6690 C   0  0  0  0  0  3  0  0  0  0  0  0
  190.9960  172.1720  144.3120 C   0  0  0  0  0  2  0  0  0  0  0  0
  189.0620  174.8670  146.2630 N   0  0  0  0  0  2  0  0  0  0  0  0
  189.0140  177.2080  146.8970 C   0  0  0  0  0  2  0  0  0  0  0  0
  188.5910  176.1850  145.8640 C   0  0  2  0  0  3  0  0  0  0  0  0
  187.5910  176.6890  146.8830 C   0  0  2  0  0  3  0  0  0  0  0  0
  186.7260  177.6680  146.2490 N   0  0  0  0  0  2  0  0  0  0  0  0
  185.6350  176.9660  145.7110 N   0  0  0  0  0  0  0  0  0  0  0  0
  184.5760  177.2430  146.5130 O   0  0  0  0  0  1  0  0  0  0  0  0
  185.9950  178.9050  144.2480 C   0  0  0  0  0  2  0  0  0  0  0  0
  185.9580  176.6950  143.2890 C   0  0  0  0  0  2  0  0  0  0  0  0
  186.4330  177.6570  142.2080 C   0  0  1  0  0  0  0  0  0  0  0  0
  185.3480  177.5400  144.3960 C   0  0  1  0  0  3  0  0  0  0  0  0
  186.2540  179.0660  142.7670 C   0  0  0  0  0  2  0  0  0  0  0  0
  187.8800  177.3720  141.9030 C   0  0  0  0  0  0  0  0  0  0  0  0
  188.7510  178.2770  142.0310 O   0  0  0  0  0  0  0  0  0  0  0  0
  188.2720  176.0810  141.5500 O   0  0  0  0  0  0  0  0  0  0  0  0
  188.9830  175.3230  142.3960 O   0  0  0  0  0  1  0  0  0  0  0  0
  186.2970  177.9150  139.8060 O   0  0  0  0  0  1  0  0  0  0  0  0
  185.5930  177.4970  140.9400 C   0  0  0  0  0  2  0  0  0  0  0  0
  193.2960  172.2870  143.3520 C   0  0  0  0  0  2  0  0  0  0  0  0
  192.8690  171.3550  142.2240 C   0  0  0  0  0  2  0  0  0  0  0  0
  193.3330  171.8540  140.8500 C   0  0  1  0  0  3  0  0  0  0  0  0
  190.2750  170.9960  138.5780 C   0  0  0  0  0  2  0  0  0  0  0  0
  191.2280  173.1610  140.3900 C   0  0  0  0  0  2  0  0  0  0  0  0
  190.1620  173.5110  139.3660 C   0  0  0  0  0  2  0  0  0  0  0  0
  191.3580  170.7740  139.6280 C   0  0  2  0  0  3  0  0  0  0  0  0
  188.9940  172.1280  139.2030 S   0  0  0  0  0  0  0  0  0  0  0  0
  192.1640  172.0670  139.8630 C   0  0  2  0  0  3  0  0  0  0  0  0
  192.1730  169.7500  139.1820 F   0  0  0  0  0  0  0  0  0  0  0  0
  194.1680  173.1200  141.0280 C   0  0  0  0  0  2  0  0  0  0  0  0
  195.0050  173.4280  139.7870 C   0  0  0  0  0  2  0  0  0  0  0  0
  195.0760  174.9170  139.4320 C   0  0  2  0  0  3  0  0  0  0  0  0
  196.2720  175.2110  138.7810 O   0  0  0  0  0  1  0  0  0  0  0  0
  194.9020  175.8250  140.6450 C   0  0  0  0  0  2  0  0  0  0  0  0
  196.2380  176.3810  141.1410 C   0  0  0  0  0  2  0  0  0  0  0  0
  197.5940  174.5450  144.2690 C   0  0  0  0  0  2  0  0  0  0  0  0
  195.5800  175.6410  144.8880 C   0  0  0  0  0  2  0  0  0  0  0  0
  196.3050  174.3720  144.9390 N   0  0  0  0  0  2  0  0  0  0  0  0
  196.5230  176.0760  142.6130 C   0  0  0  0  0  3  0  0  0  0  0  0
  197.3770  174.8190  142.7840 C   0  0  0  0  0  2  0  0  0  0  0  0
  195.2380  175.9930  143.4410 C   0  0  0  0  0  2  0  0  0  0  0  0
  1  5  2  0  0  0  0
  1  7  1  0  0  0  0
  2  1  1  0  0  0  0
  3  5  1  0  0  0  0
  4 25  1  1  0  0  0
  4  6  1  0  0  0  0
  4  3  1  0  0  0  0
  6  2  1  0  0  0  0
  9  7  1  1  0  0  0
  9 10  1  0  0  0  0
  9  8  1  0  0  0  0
 10 11  1  6  0  0  0
 10  8  1  0  0  0  0
 12 11  1  0  0  0  0
 12 13  1  0  0  0  0
 14 17  1  0  0  0  0
 15 17  1  0  0  0  0
 16 24  1  6  0  0  0
 16 18  1  0  0  0  0
 16 15  1  0  0  0  0
 17 12  1  1  0  0  0
 18 14  1  0  0  0  0
 19 20  2  0  0  0  0
 19 16  1  0  0  0  0
 21 19  1  0  0  0  0
 21 22  1  0  0  0  0
 23 24  1  0  0  0  0
 26 25  1  0  0  0  0
 27 35  1  1  0  0  0
 27 26  1  0  0  0  0
 28 32  1  0  0  0  0
 28 31  1  0  0  0  0
 30 29  1  0  0  0  0
 31 34  1  6  0  0  0
 31 33  1  0  0  0  0
 32 30  1  0  0  0  0
 33 29  1  0  0  0  0
 33 27  1  1  0  0  0
 36 35  1  0  0  0  0
 37 38  1  1  0  0  0
 37 36  1  0  0  0  0
 37 39  1  0  0  0  0
 39 40  1  0  0  0  0
 40 44  1  0  0  0  0
 41 43  1  0  0  0  0
 42 43  1  0  0  0  0
 44 45  1  0  0  0  0
 44 46  1  0  0  0  0
 45 41  1  0  0  0  0
 46 42  1  0  0  0  0
M  END
>  <MODEL>
9

>  <REMARK>
 VINA RESULT:      -5.7      2.828      4.754
  Name = 
  18 active torsions:
  status: ('A' for Active; 'I' for Inactive)
    1  A    between atoms: N_1  and  N_11
    2  A    between atoms: N_1  and  C_33
    3  A    between atoms: C_3  and  N_44
    4  A    between atoms: N_11  and  C_20
    5  A    between atoms: C_12  and  C_21
    6  A    between atoms: C_12  and  C_30
    7  A    between atoms: C_14  and  C_23
    8  A    between atoms: C_14  and  C_29
    9  A    between atoms: C_14  and  C_32
   10  A    between atoms: O_17  and  C_21
   11  A    between atoms: C_18  and  N_44
   12  A    between atoms: C_19  and  C_23
   13  A    between atoms: C_19  and  C_27
   14  A    between atoms: C_27  and  C_28
   15  A    between atoms: C_28  and  C_42
   16  A    between atoms: C_29  and  C_37
   17  A    between atoms: C_31  and  C_37
   18  A    between atoms: C_40  and  C_42
                            x       y       z     vdW  Elec       q    Type
                         _______ _______ _______ _____ _____    ______ ____

>  <TORSDO>
F 18

$$$$
