=
 OpenBabel11042417423D

 54 58  0  0  1  0  0  0  0  0999 V2000
  189.2010  175.5040  141.6890 O   0  0  0  0  0  0  0  0  0  0  0  0
  191.0280  175.6880  144.8070 C   0  0  1  0  0  3  0  0  0  0  0  0
  189.0730  176.6360  143.7430 N   0  0  0  0  0  0  0  0  0  0  0  0
  189.6870  175.7580  142.8220 C   0  0  0  0  0  0  0  0  0  0  0  0
  189.8770  176.6400  144.9120 C   0  0  0  0  0  0  0  0  0  0  0  0
  189.1430  177.7260  147.0930 O   0  0  0  0  0  0  0  0  0  0  0  0
  189.5000  177.1980  146.0320 C   0  0  0  0  0  0  0  0  0  0  0  0
  190.9260  175.1220  143.3590 C   0  0  1  0  0  3  0  0  0  0  0  0
  192.1110  175.4420  142.4470 C   0  0  0  0  0  2  0  0  0  0  0  0
  192.7210  174.2380  141.9930 O   0  0  0  0  0  0  0  0  0  0  0  0
  191.2990  173.6640  139.5170 N   0  0  0  0  0  0  0  0  0  0  0  0
  191.3310  172.7730  140.5450 C   0  0  0  0  0  0  0  0  0  0  0  0
  191.3930  170.8490  142.5520 C   0  0  0  0  0  3  0  0  0  0  0  0
  192.0690  172.0570  142.7350 C   0  0  0  0  0  3  0  0  0  0  0  0
  189.9610  171.2620  139.2320 C   0  0  0  0  0  3  0  0  0  0  0  0
  189.9400  172.2040  138.2030 C   0  0  0  0  0  3  0  0  0  0  0  0
  192.0370  173.0380  141.7400 C   0  0  0  0  0  0  0  0  0  0  0  0
  190.6240  173.4100  138.3640 C   0  0  0  0  0  3  0  0  0  0  0  0
  190.7050  170.6160  141.4060 N   0  0  0  0  0  0  0  0  0  0  0  0
  190.6600  171.5360  140.4080 C   0  0  0  0  0  0  0  0  0  0  0  0
  192.3430  176.3960  145.1450 C   0  0  0  0  0  2  0  0  0  0  0  0
  192.9650  175.8150  146.4040 C   0  0  0  0  0  2  0  0  0  0  0  0
  194.4540  175.5870  146.2010 C   0  0  0  0  0  2  0  0  0  0  0  0
  194.8850  176.0600  144.8230 C   0  0  0  0  0  2  0  0  0  0  0  0
  197.2750  177.2060  143.3240 O   0  0  0  0  0  0  0  0  0  0  0  0
  195.1810  171.8700  144.9170 O   0  0  0  0  0  0  0  0  0  0  0  0
  196.1090  174.0390  142.2390 C   0  0  0  0  0  0  0  0  0  0  0  0
  196.5920  173.3340  140.0170 N   0  0  0  0  0  0  0  0  0  0  0  0
  196.7560  176.0650  143.2000 C   0  0  0  0  0  0  0  0  0  0  0  0
  195.7060  174.0080  143.6440 C   0  0  0  0  0  0  0  0  0  0  0  0
  196.5810  172.2690  139.0340 C   0  0  0  0  0  1  0  0  0  0  0  0
  197.0700  174.6690  139.6070 C   0  0  0  0  0  2  0  0  0  0  0  0
  196.7280  175.3050  141.9630 C   0  0  0  0  0  0  0  0  0  0  0  0
  196.0560  173.0730  141.3260 C   0  0  0  0  0  3  0  0  0  0  0  0
  195.4360  172.9100  144.2980 C   0  0  0  0  0  0  0  0  0  0  0  0
  196.1100  175.2980  144.3220 C   0  0  2  0  0  3  0  0  0  0  0  0
  197.2240  175.6270  140.7690 C   0  0  0  0  0  3  0  0  0  0  0  0
  187.9500  177.5180  143.4560 C   0  0  0  0  0  2  0  0  0  0  0  0
  186.6410  176.7900  143.7190 C   0  0  0  0  0  2  0  0  0  0  0  0
  185.4770  177.7670  143.7350 C   0  0  1  0  0  3  0  0  0  0  0  0
  185.7560  178.8560  144.6600 N   0  0  0  0  0  2  0  0  0  0  0  0
  184.5970  178.9800  145.5250 C   0  0  0  0  0  2  0  0  0  0  0  0
  184.6030  177.8590  146.5440 C   0  0  0  0  0  2  0  0  0  0  0  0
  185.6080  178.1760  147.6320 C   0  0  0  0  0  1  0  0  0  0  0  0
  185.2960  178.3050  142.3970 N   0  0  0  0  0  2  0  0  0  0  0  0
  183.8920  178.1530  142.0430 C   0  0  0  0  0  2  0  0  0  0  0  0
  183.7310  178.1830  140.5950 N   0  0  0  0  0  2  0  0  0  0  0  0
  182.3770  177.9390  140.3210 N   0  0  0  0  0  2  0  0  0  0  0  0
  181.6030  178.5340  141.4010 C   0  0  0  0  0  2  0  0  0  0  0  0
  180.1260  178.1790  141.2630 C   0  0  0  0  0  2  0  0  0  0  0  0
  179.7310  180.3450  140.2700 N   0  0  0  0  0  0  0  0  0  0  0  0
  179.2960  179.3980  141.0170 C   0  0  0  0  0  3  0  0  0  0  0  0
  178.9320  181.5190  140.0330 C   0  0  0  0  0  2  0  0  0  0  0  0
  179.6100  182.3960  139.1860 O   0  0  0  0  0  1  0  0  0  0  0  0
  1  4  2  0  0  0  0
  2  5  1  0  0  0  0
  2 21  1  6  0  0  0
  3  5  1  0  0  0  0
  4  8  1  0  0  0  0
  4  3  1  0  0  0  0
  5  7  2  0  0  0  0
  7  6  2  0  0  0  0
  8  9  1  6  0  0  0
  8  2  1  0  0  0  0
 10  9  1  0  0  0  0
 11 12  1  0  0  0  0
 12 17  1  0  0  0  0
 13 14  1  0  0  0  0
 15 20  1  0  0  0  0
 16 18  1  0  0  0  0
 16 15  2  0  0  0  0
 17 10  1  0  0  0  0
 17 14  2  0  0  0  0
 18 11  2  0  0  0  0
 19 13  2  0  0  0  0
 20 12  2  0  0  0  0
 20 19  1  0  0  0  0
 21 22  1  0  0  0  0
 23 22  1  0  0  0  0
 24 23  1  0  0  0  0
 27 30  1  0  0  0  0
 28 34  1  0  0  0  0
 29 25  2  0  0  0  0
 29 36  1  0  0  0  0
 30 35  2  0  0  0  0
 30 36  1  0  0  0  0
 31 28  1  0  0  0  0
 32 28  1  0  0  0  0
 32 37  1  0  0  0  0
 33 27  1  0  0  0  0
 33 29  1  0  0  0  0
 34 27  2  0  0  0  0
 35 26  2  0  0  0  0
 36 24  1  6  0  0  0
 37 33  2  0  0  0  0
 38 39  1  0  0  0  0
 38  3  1  0  0  0  0
 40 39  1  6  0  0  0
 40 41  1  0  0  0  0
 41 42  1  0  0  0  0
 42 43  1  0  0  0  0
 43 44  1  0  0  0  0
 45 40  1  0  0  0  0
 46 45  1  0  0  0  0
 47 46  1  0  0  0  0
 48 47  1  0  0  0  0
 48 49  1  0  0  0  0
 50 49  1  0  0  0  0
 51 52  2  0  0  0  0
 52 50  1  0  0  0  0
 53 51  1  0  0  0  0
 54 53  1  0  0  0  0
M  END
>  <MODEL>
1

>  <REMARK>
 VINA RESULT:      -6.6      0.000      0.000
  Name = 
  22 active torsions:
  status: ('A' for Active; 'I' for Inactive)
    1  A    between atoms: C_1  and  C_12
    2  A    between atoms: N_2  and  C_17
    3  A    between atoms: N_2  and  C_46
    4  A    between atoms: O_5  and  C_23
    5  A    between atoms: O_5  and  C_36
    6  A    between atoms: C_7  and  C_15
    7  A    between atoms: C_7  and  N_21
    8  A    between atoms: C_8  and  C_35
    9  A    between atoms: C_12  and  N_30
   10  A    between atoms: C_15  and  C_17
   11  A    between atoms: C_17  and  N_30
   12  A    between atoms: C_19  and  N_47
   13  A    between atoms: C_19  and  C_52
   14  A    between atoms: C_23  and  C_53
   15  A    between atoms: N_24  and  C_41
   16  A    between atoms: N_26  and  C_46
   17  A    between atoms: N_26  and  N_47
   18  A    between atoms: C_28  and  C_34
   19  A    between atoms: C_28  and  C_40
   20  A    between atoms: C_34  and  C_35
   21  A    between atoms: C_40  and  C_49
   22  A    between atoms: C_44  and  C_52
                            x       y       z     vdW  Elec       q    Type
                         _______ _______ _______ _____ _____    ______ ____

>  <TORSDO>
F 22

$$$$
=
 OpenBabel11042417423D

 54 58  0  0  1  0  0  0  0  0999 V2000
  191.3030  175.3190  147.5430 O   0  0  0  0  0  0  0  0  0  0  0  0
  190.3130  175.7220  144.0850 C   0  0  1  0  0  3  0  0  0  0  0  0
  192.3040  175.7360  145.4590 N   0  0  0  0  0  0  0  0  0  0  0  0
  191.1920  175.5290  146.3060 C   0  0  0  0  0  0  0  0  0  0  0  0
  191.7990  175.8940  144.1430 C   0  0  0  0  0  0  0  0  0  0  0  0
  193.2910  175.9310  142.0820 O   0  0  0  0  0  0  0  0  0  0  0  0
  192.5660  175.9130  143.0840 C   0  0  0  0  0  0  0  0  0  0  0  0
  189.8930  175.5210  145.5730 C   0  0  1  0  0  3  0  0  0  0  0  0
  188.9690  176.5990  146.1420 C   0  0  0  0  0  2  0  0  0  0  0  0
  187.6130  176.1670  146.0790 O   0  0  0  0  0  0  0  0  0  0  0  0
  186.0770  176.9400  143.7280 N   0  0  0  0  0  0  0  0  0  0  0  0
  185.7680  177.4080  144.9680 C   0  0  0  0  0  0  0  0  0  0  0  0
  185.0030  178.3630  147.4650 C   0  0  0  0  0  3  0  0  0  0  0  0
  186.0930  177.4990  147.3640 C   0  0  0  0  0  3  0  0  0  0  0  0
  183.9430  178.6770  143.9970 C   0  0  0  0  0  3  0  0  0  0  0  0
  184.2960  178.1880  142.7390 C   0  0  0  0  0  3  0  0  0  0  0  0
  186.4970  177.0190  146.1150 C   0  0  0  0  0  0  0  0  0  0  0  0
  185.3740  177.3090  142.6240 C   0  0  0  0  0  3  0  0  0  0  0  0
  184.3230  178.7410  146.3530 N   0  0  0  0  0  0  0  0  0  0  0  0
  184.6720  178.2870  145.1220 C   0  0  0  0  0  0  0  0  0  0  0  0
  189.6610  176.9100  143.3730 C   0  0  0  0  0  2  0  0  0  0  0  0
  189.0880  176.4910  142.0290 C   0  0  0  0  0  2  0  0  0  0  0  0
  188.5140  175.0870  142.1130 C   0  0  0  0  0  2  0  0  0  0  0  0
  188.3520  174.4910  140.7250 C   0  0  0  0  0  2  0  0  0  0  0  0
  188.5490  172.2320  142.7580 O   0  0  0  0  0  0  0  0  0  0  0  0
  190.9780  173.7260  137.5370 O   0  0  0  0  0  0  0  0  0  0  0  0
  191.5200  173.0250  140.9940 C   0  0  0  0  0  0  0  0  0  0  0  0
  193.6190  172.4460  141.9560 N   0  0  0  0  0  0  0  0  0  0  0  0
  189.4250  172.6180  141.9400 C   0  0  0  0  0  0  0  0  0  0  0  0
  190.5100  173.4340  140.0190 C   0  0  0  0  0  0  0  0  0  0  0  0
  195.0560  172.3290  141.7980 C   0  0  0  0  0  1  0  0  0  0  0  0
  193.0250  172.1190  143.2660 C   0  0  0  0  0  2  0  0  0  0  0  0
  190.8570  172.5500  142.1760 C   0  0  0  0  0  0  0  0  0  0  0  0
  192.8420  172.9610  140.8610 C   0  0  0  0  0  3  0  0  0  0  0  0
  190.7500  173.5840  138.7440 C   0  0  0  0  0  0  0  0  0  0  0  0
  189.1270  173.1840  140.5780 C   0  0  2  0  0  3  0  0  0  0  0  0
  191.5110  172.0840  143.2380 C   0  0  0  0  0  3  0  0  0  0  0  0
  193.6770  175.9510  145.8960 C   0  0  0  0  0  2  0  0  0  0  0  0
  194.4390  174.6350  145.8720 C   0  0  0  0  0  2  0  0  0  0  0  0
  195.8840  174.8600  145.4610 C   0  0  1  0  0  3  0  0  0  0  0  0
  196.4940  173.5950  145.0780 N   0  0  0  0  0  2  0  0  0  0  0  0
  195.6510  172.5420  145.6160 C   0  0  0  0  0  2  0  0  0  0  0  0
  196.2100  171.1920  145.2180 C   0  0  0  0  0  2  0  0  0  0  0  0
  197.6730  171.3420  144.8520 C   0  0  0  0  0  1  0  0  0  0  0  0
  195.9150  175.7720  144.3290 N   0  0  0  0  0  2  0  0  0  0  0  0
  197.0360  175.3900  143.4810 C   0  0  0  0  0  2  0  0  0  0  0  0
  196.7830  175.7890  142.1020 N   0  0  0  0  0  2  0  0  0  0  0  0
  197.6870  175.0850  141.2930 N   0  0  0  0  0  2  0  0  0  0  0  0
  197.6080  175.6570  139.9560 C   0  0  0  0  0  2  0  0  0  0  0  0
  196.3410  175.1910  139.2460 C   0  0  0  0  0  2  0  0  0  0  0  0
  196.4100  173.9740  137.1610 N   0  0  0  0  0  0  0  0  0  0  0  0
  196.5520  175.0940  137.7680 C   0  0  0  0  0  3  0  0  0  0  0  0
  196.6110  173.8800  135.7380 C   0  0  0  0  0  2  0  0  0  0  0  0
  195.7230  172.9540  135.1900 O   0  0  0  0  0  1  0  0  0  0  0  0
  2 21  1  1  0  0  0
  2  5  1  0  0  0  0
  2  8  1  0  0  0  0
  3 38  1  0  0  0  0
  3  4  1  0  0  0  0
  4  1  2  0  0  0  0
  5  3  1  0  0  0  0
  6  7  2  0  0  0  0
  7  5  2  0  0  0  0
  8  9  1  1  0  0  0
  8  4  1  0  0  0  0
 10 17  1  0  0  0  0
 10  9  1  0  0  0  0
 11 12  1  0  0  0  0
 12 20  2  0  0  0  0
 12 17  1  0  0  0  0
 14 13  1  0  0  0  0
 15 20  1  0  0  0  0
 16 15  2  0  0  0  0
 17 14  2  0  0  0  0
 18 16  1  0  0  0  0
 18 11  2  0  0  0  0
 19 13  2  0  0  0  0
 20 19  1  0  0  0  0
 22 23  1  0  0  0  0
 22 21  1  0  0  0  0
 24 23  1  0  0  0  0
 26 35  2  0  0  0  0
 27 33  1  0  0  0  0
 28 32  1  0  0  0  0
 29 33  1  0  0  0  0
 29 25  2  0  0  0  0
 30 36  1  0  0  0  0
 30 27  1  0  0  0  0
 31 28  1  0  0  0  0
 33 37  2  0  0  0  0
 34 27  2  0  0  0  0
 34 28  1  0  0  0  0
 35 30  2  0  0  0  0
 36 24  1  1  0  0  0
 36 29  1  0  0  0  0
 37 32  1  0  0  0  0
 39 38  1  0  0  0  0
 40 39  1  6  0  0  0
 41 40  1  0  0  0  0
 41 42  1  0  0  0  0
 43 42  1  0  0  0  0
 44 43  1  0  0  0  0
 45 40  1  0  0  0  0
 46 45  1  0  0  0  0
 47 46  1  0  0  0  0
 48 47  1  0  0  0  0
 49 48  1  0  0  0  0
 50 49  1  0  0  0  0
 51 52  2  0  0  0  0
 52 50  1  0  0  0  0
 53 51  1  0  0  0  0
 54 53  1  0  0  0  0
M  END
>  <MODEL>
2

>  <REMARK>
 VINA RESULT:      -6.6      3.169     10.060
  Name = 
  22 active torsions:
  status: ('A' for Active; 'I' for Inactive)
    1  A    between atoms: C_1  and  C_12
    2  A    between atoms: N_2  and  C_17
    3  A    between atoms: N_2  and  C_46
    4  A    between atoms: O_5  and  C_23
    5  A    between atoms: O_5  and  C_36
    6  A    between atoms: C_7  and  C_15
    7  A    between atoms: C_7  and  N_21
    8  A    between atoms: C_8  and  C_35
    9  A    between atoms: C_12  and  N_30
   10  A    between atoms: C_15  and  C_17
   11  A    between atoms: C_17  and  N_30
   12  A    between atoms: C_19  and  N_47
   13  A    between atoms: C_19  and  C_52
   14  A    between atoms: C_23  and  C_53
   15  A    between atoms: N_24  and  C_41
   16  A    between atoms: N_26  and  C_46
   17  A    between atoms: N_26  and  N_47
   18  A    between atoms: C_28  and  C_34
   19  A    between atoms: C_28  and  C_40
   20  A    between atoms: C_34  and  C_35
   21  A    between atoms: C_40  and  C_49
   22  A    between atoms: C_44  and  C_52
                            x       y       z     vdW  Elec       q    Type
                         _______ _______ _______ _____ _____    ______ ____

>  <TORSDO>
F 22

$$$$
=
 OpenBabel11042417423D

 54 58  0  0  1  0  0  0  0  0999 V2000
  187.8890  175.4280  140.3350 O   0  0  0  0  0  0  0  0  0  0  0  0
  189.9530  173.6770  142.7370 C   0  0  1  0  0  3  0  0  0  0  0  0
  188.9190  173.3310  140.5770 N   0  0  0  0  0  0  0  0  0  0  0  0
  188.5660  174.6230  141.0280 C   0  0  0  0  0  0  0  0  0  0  0  0
  189.7080  172.7380  141.5960 C   0  0  0  0  0  0  0  0  0  0  0  0
  190.9770  170.5570  141.2720 O   0  0  0  0  0  0  0  0  0  0  0  0
  190.3600  171.6170  141.4300 C   0  0  0  0  0  0  0  0  0  0  0  0
  189.1310  174.9490  142.3700 C   0  0  1  0  0  3  0  0  0  0  0  0
  188.0000  175.2980  143.3390 C   0  0  0  0  0  2  0  0  0  0  0  0
  187.7650  176.7020  143.3350 O   0  0  0  0  0  0  0  0  0  0  0  0
  186.6120  177.5270  145.8790 N   0  0  0  0  0  0  0  0  0  0  0  0
  185.9400  177.6840  144.7060 C   0  0  0  0  0  0  0  0  0  0  0  0
  184.5100  178.1220  142.3610 C   0  0  0  0  0  3  0  0  0  0  0  0
  185.7780  177.5420  142.2960 C   0  0  0  0  0  3  0  0  0  0  0  0
  184.0850  178.6460  145.9370 C   0  0  0  0  0  3  0  0  0  0  0  0
  184.7980  178.4580  147.1220 C   0  0  0  0  0  3  0  0  0  0  0  0
  186.5040  177.3050  143.4660 C   0  0  0  0  0  0  0  0  0  0  0  0
  186.0730  177.8950  147.0710 C   0  0  0  0  0  3  0  0  0  0  0  0
  183.9750  178.4650  143.5600 N   0  0  0  0  0  0  0  0  0  0  0  0
  184.6520  178.2660  144.7200 C   0  0  0  0  0  0  0  0  0  0  0  0
  189.5820  173.0150  144.0670 C   0  0  0  0  0  2  0  0  0  0  0  0
  190.1420  173.8010  145.2410 C   0  0  0  0  0  2  0  0  0  0  0  0
  191.6550  173.8970  145.1390 C   0  0  0  0  0  2  0  0  0  0  0  0
  192.2060  174.8220  146.2120 C   0  0  0  0  0  2  0  0  0  0  0  0
  194.2540  177.0540  146.5190 O   0  0  0  0  0  0  0  0  0  0  0  0
  194.2030  171.1520  145.7730 O   0  0  0  0  0  0  0  0  0  0  0  0
  195.2000  174.3200  144.4690 C   0  0  0  0  0  0  0  0  0  0  0  0
  196.8850  174.6480  142.8200 N   0  0  0  0  0  0  0  0  0  0  0  0
  194.3970  175.9430  145.9420 C   0  0  0  0  0  0  0  0  0  0  0  0
  194.2650  173.6640  145.3800 C   0  0  0  0  0  0  0  0  0  0  0  0
  197.7800  174.0620  141.8410 C   0  0  0  0  0  1  0  0  0  0  0  0
  196.8680  176.1160  142.9710 C   0  0  0  0  0  2  0  0  0  0  0  0
  195.2620  175.7170  144.7970 C   0  0  0  0  0  0  0  0  0  0  0  0
  195.9880  173.7860  143.5400 C   0  0  0  0  0  3  0  0  0  0  0  0
  194.2320  172.3730  145.5820 C   0  0  0  0  0  0  0  0  0  0  0  0
  193.7170  174.6700  146.3670 C   0  0  2  0  0  3  0  0  0  0  0  0
  196.0490  176.5800  144.1570 C   0  0  0  0  0  3  0  0  0  0  0  0
  188.3940  172.6730  139.3890 C   0  0  0  0  0  2  0  0  0  0  0  0
  189.1820  173.1110  138.1650 C   0  0  0  0  0  2  0  0  0  0  0  0
  190.3610  172.1830  137.9240 C   0  0  1  0  0  3  0  0  0  0  0  0
  190.0520  171.2570  136.8450 N   0  0  0  0  0  2  0  0  0  0  0  0
  191.3210  170.7800  136.3240 C   0  0  0  0  0  2  0  0  0  0  0  0
  191.2100  169.3080  135.9890 C   0  0  0  0  0  2  0  0  0  0  0  0
  190.9260  168.5250  137.2540 C   0  0  0  0  0  1  0  0  0  0  0  0
  191.5200  172.9810  137.5580 N   0  0  0  0  0  2  0  0  0  0  0  0
  192.4290  172.9920  138.6960 C   0  0  0  0  0  2  0  0  0  0  0  0
  192.9030  174.3470  138.9480 N   0  0  0  0  0  2  0  0  0  0  0  0
  194.1750  174.2410  139.5310 N   0  0  0  0  0  2  0  0  0  0  0  0
  194.2770  175.2860  140.5400 C   0  0  0  0  0  2  0  0  0  0  0  0
  193.1530  175.1590  141.5620 C   0  0  0  0  0  2  0  0  0  0  0  0
  192.0890  176.5380  143.2350 N   0  0  0  0  0  0  0  0  0  0  0  0
  192.8580  176.4740  142.2110 C   0  0  0  0  0  3  0  0  0  0  0  0
  191.8050  177.8040  143.8610 C   0  0  0  0  0  2  0  0  0  0  0  0
  190.6030  178.3180  143.3760 O   0  0  0  0  0  1  0  0  0  0  0  0
  1  4  2  0  0  0  0
  2 21  1  1  0  0  0
  3  4  1  0  0  0  0
  3  5  1  0  0  0  0
  4  8  1  0  0  0  0
  5  2  1  0  0  0  0
  6  7  2  0  0  0  0
  7  5  2  0  0  0  0
  8  2  1  0  0  0  0
  8  9  1  1  0  0  0
 10  9  1  0  0  0  0
 10 17  1  0  0  0  0
 11 18  1  0  0  0  0
 12 20  1  0  0  0  0
 12 11  2  0  0  0  0
 13 19  2  0  0  0  0
 14 13  1  0  0  0  0
 14 17  2  0  0  0  0
 15 16  1  0  0  0  0
 17 12  1  0  0  0  0
 18 16  2  0  0  0  0
 19 20  1  0  0  0  0
 20 15  2  0  0  0  0
 21 22  1  0  0  0  0
 23 22  1  0  0  0  0
 23 24  1  0  0  0  0
 27 33  1  0  0  0  0
 27 30  1  0  0  0  0
 28 32  1  0  0  0  0
 28 34  1  0  0  0  0
 29 36  1  0  0  0  0
 29 25  2  0  0  0  0
 30 35  2  0  0  0  0
 30 36  1  0  0  0  0
 31 28  1  0  0  0  0
 32 37  1  0  0  0  0
 33 29  1  0  0  0  0
 34 27  2  0  0  0  0
 35 26  2  0  0  0  0
 36 24  1  6  0  0  0
 37 33  2  0  0  0  0
 38  3  1  0  0  0  0
 39 38  1  0  0  0  0
 40 39  1  6  0  0  0
 41 40  1  0  0  0  0
 42 41  1  0  0  0  0
 43 42  1  0  0  0  0
 43 44  1  0  0  0  0
 45 40  1  0  0  0  0
 45 46  1  0  0  0  0
 46 47  1  0  0  0  0
 47 48  1  0  0  0  0
 48 49  1  0  0  0  0
 49 50  1  0  0  0  0
 50 52  1  0  0  0  0
 51 53  1  0  0  0  0
 52 51  2  0  0  0  0
 54 53  1  0  0  0  0
M  END
>  <MODEL>
3

>  <REMARK>
 VINA RESULT:      -6.5      2.946      8.518
  Name = 
  22 active torsions:
  status: ('A' for Active; 'I' for Inactive)
    1  A    between atoms: C_1  and  C_12
    2  A    between atoms: N_2  and  C_17
    3  A    between atoms: N_2  and  C_46
    4  A    between atoms: O_5  and  C_23
    5  A    between atoms: O_5  and  C_36
    6  A    between atoms: C_7  and  C_15
    7  A    between atoms: C_7  and  N_21
    8  A    between atoms: C_8  and  C_35
    9  A    between atoms: C_12  and  N_30
   10  A    between atoms: C_15  and  C_17
   11  A    between atoms: C_17  and  N_30
   12  A    between atoms: C_19  and  N_47
   13  A    between atoms: C_19  and  C_52
   14  A    between atoms: C_23  and  C_53
   15  A    between atoms: N_24  and  C_41
   16  A    between atoms: N_26  and  C_46
   17  A    between atoms: N_26  and  N_47
   18  A    between atoms: C_28  and  C_34
   19  A    between atoms: C_28  and  C_40
   20  A    between atoms: C_34  and  C_35
   21  A    between atoms: C_40  and  C_49
   22  A    between atoms: C_44  and  C_52
                            x       y       z     vdW  Elec       q    Type
                         _______ _______ _______ _____ _____    ______ ____

>  <TORSDO>
F 22

$$$$
=
 OpenBabel11042417423D

 54 58  0  0  1  0  0  0  0  0999 V2000
  194.0770  173.2270  141.8500 O   0  0  0  0  0  0  0  0  0  0  0  0
  190.6190  174.1890  142.3140 C   0  0  1  0  0  3  0  0  0  0  0  0
  192.3060  172.7830  143.3290 N   0  0  0  0  0  0  0  0  0  0  0  0
  192.8720  173.3840  142.1810 C   0  0  0  0  0  0  0  0  0  0  0  0
  190.9580  173.2160  143.4010 C   0  0  0  0  0  0  0  0  0  0  0  0
  189.4770  172.8010  145.4280 O   0  0  0  0  0  0  0  0  0  0  0  0
  190.1970  173.0020  144.4420 C   0  0  0  0  0  0  0  0  0  0  0  0
  191.9150  174.2650  141.4510 C   0  0  1  0  0  3  0  0  0  0  0  0
  191.7660  173.7860  140.0060 C   0  0  0  0  0  2  0  0  0  0  0  0
  191.9250  172.3720  139.9380 O   0  0  0  0  0  0  0  0  0  0  0  0
  193.2700  172.0180  137.3800 N   0  0  0  0  0  0  0  0  0  0  0  0
  192.0850  171.4080  137.6540 C   0  0  0  0  0  0  0  0  0  0  0  0
  189.7040  170.0530  138.1360 C   0  0  0  0  0  3  0  0  0  0  0  0
  190.2490  170.8640  139.1330 C   0  0  0  0  0  3  0  0  0  0  0  0
  192.1220  170.4180  135.4390 C   0  0  0  0  0  3  0  0  0  0  0  0
  193.3300  171.0690  135.1880 C   0  0  0  0  0  3  0  0  0  0  0  0
  191.4390  171.5600  138.9020 C   0  0  0  0  0  0  0  0  0  0  0  0
  193.8960  171.8690  136.1810 C   0  0  0  0  0  3  0  0  0  0  0  0
  190.3280  169.9310  136.9360 N   0  0  0  0  0  0  0  0  0  0  0  0
  191.4930  170.5780  136.6750 C   0  0  0  0  0  0  0  0  0  0  0  0
  189.3580  173.7430  141.5680 C   0  0  0  0  0  2  0  0  0  0  0  0
  188.4570  174.9290  141.2660 C   0  0  0  0  0  2  0  0  0  0  0  0
  187.4920  175.1670  142.4150 C   0  0  0  0  0  2  0  0  0  0  0  0
  186.9400  176.5820  142.3670 C   0  0  0  0  0  2  0  0  0  0  0  0
  189.4970  178.2290  142.2280 O   0  0  0  0  0  0  0  0  0  0  0  0
  185.4500  176.6550  146.2940 O   0  0  0  0  0  0  0  0  0  0  0  0
  188.8720  176.5490  145.2860 C   0  0  0  0  0  0  0  0  0  0  0  0
  190.7040  176.0600  146.7260 N   0  0  0  0  0  0  0  0  0  0  0  0
  189.0070  177.6410  143.2270 C   0  0  0  0  0  0  0  0  0  0  0  0
  187.5070  176.7440  144.8010 C   0  0  0  0  0  0  0  0  0  0  0  0
  191.1620  175.5940  148.0200 C   0  0  0  0  0  1  0  0  0  0  0  0
  191.7100  176.4060  145.7030 C   0  0  0  0  0  2  0  0  0  0  0  0
  189.7880  177.0750  144.3140 C   0  0  0  0  0  0  0  0  0  0  0  0
  189.2910  176.0800  146.4580 C   0  0  0  0  0  3  0  0  0  0  0  0
  186.4500  176.6980  145.5680 C   0  0  0  0  0  0  0  0  0  0  0  0
  187.5330  177.4580  143.4680 C   0  0  2  0  0  3  0  0  0  0  0  0
  191.1100  177.0680  144.4810 C   0  0  0  0  0  3  0  0  0  0  0  0
  192.9370  171.7580  144.1490 C   0  0  0  0  0  2  0  0  0  0  0  0
  193.8250  172.4080  145.1980 C   0  0  0  0  0  2  0  0  0  0  0  0
  195.1610  171.6910  145.2900 C   0  0  1  0  0  3  0  0  0  0  0  0
  195.1050  170.4390  144.5490 N   0  0  0  0  0  2  0  0  0  0  0  0
  195.6680  169.4150  145.4100 C   0  0  0  0  0  2  0  0  0  0  0  0
  194.6420  169.0010  146.4430 C   0  0  0  0  0  2  0  0  0  0  0  0
  195.3500  168.5710  147.7120 C   0  0  0  0  0  1  0  0  0  0  0  0
  196.1930  172.5420  144.7200 N   0  0  0  0  0  2  0  0  0  0  0  0
  196.1380  173.8260  145.4060 C   0  0  0  0  0  2  0  0  0  0  0  0
  196.7160  174.8690  144.5680 N   0  0  0  0  0  2  0  0  0  0  0  0
  195.6510  175.5780  143.9920 N   0  0  0  0  0  2  0  0  0  0  0  0
  196.2240  176.5290  143.0490 C   0  0  0  0  0  2  0  0  0  0  0  0
  196.9220  175.7980  141.9070 C   0  0  0  0  0  2  0  0  0  0  0  0
  196.0830  174.9180  139.8210 N   0  0  0  0  0  0  0  0  0  0  0  0
  196.1410  175.9050  140.6360 C   0  0  0  0  0  3  0  0  0  0  0  0
  195.3300  175.0200  138.5970 C   0  0  0  0  0  2  0  0  0  0  0  0
  196.1810  175.3320  137.5380 O   0  0  0  0  0  1  0  0  0  0  0  0
  1  4  2  0  0  0  0
  2 21  1  6  0  0  0
  2  5  1  0  0  0  0
  3  5  1  0  0  0  0
  3 38  1  0  0  0  0
  4  3  1  0  0  0  0
  5  7  2  0  0  0  0
  7  6  2  0  0  0  0
  8  9  1  6  0  0  0
  8  4  1  0  0  0  0
  8  2  1  0  0  0  0
 10  9  1  0  0  0  0
 11 12  1  0  0  0  0
 12 17  1  0  0  0  0
 13 14  1  0  0  0  0
 15 20  1  0  0  0  0
 16 15  2  0  0  0  0
 16 18  1  0  0  0  0
 17 14  2  0  0  0  0
 17 10  1  0  0  0  0
 18 11  2  0  0  0  0
 19 13  2  0  0  0  0
 20 19  1  0  0  0  0
 20 12  2  0  0  0  0
 22 21  1  0  0  0  0
 22 23  1  0  0  0  0
 24 23  1  0  0  0  0
 25 29  2  0  0  0  0
 27 34  2  0  0  0  0
 28 31  1  0  0  0  0
 29 36  1  0  0  0  0
 29 33  1  0  0  0  0
 30 27  1  0  0  0  0
 30 35  2  0  0  0  0
 32 28  1  0  0  0  0
 33 37  2  0  0  0  0
 33 27  1  0  0  0  0
 34 28  1  0  0  0  0
 35 26  2  0  0  0  0
 36 24  1  6  0  0  0
 36 30  1  0  0  0  0
 37 32  1  0  0  0  0
 38 39  1  0  0  0  0
 40 39  1  6  0  0  0
 41 40  1  0  0  0  0
 41 42  1  0  0  0  0
 42 43  1  0  0  0  0
 43 44  1  0  0  0  0
 45 40  1  0  0  0  0
 45 46  1  0  0  0  0
 47 46  1  0  0  0  0
 48 47  1  0  0  0  0
 49 48  1  0  0  0  0
 50 49  1  0  0  0  0
 51 52  2  0  0  0  0
 52 50  1  0  0  0  0
 53 51  1  0  0  0  0
 54 53  1  0  0  0  0
M  END
>  <MODEL>
4

>  <REMARK>
 VINA RESULT:      -6.2      4.439      9.669
  Name = 
  22 active torsions:
  status: ('A' for Active; 'I' for Inactive)
    1  A    between atoms: C_1  and  C_12
    2  A    between atoms: N_2  and  C_17
    3  A    between atoms: N_2  and  C_46
    4  A    between atoms: O_5  and  C_23
    5  A    between atoms: O_5  and  C_36
    6  A    between atoms: C_7  and  C_15
    7  A    between atoms: C_7  and  N_21
    8  A    between atoms: C_8  and  C_35
    9  A    between atoms: C_12  and  N_30
   10  A    between atoms: C_15  and  C_17
   11  A    between atoms: C_17  and  N_30
   12  A    between atoms: C_19  and  N_47
   13  A    between atoms: C_19  and  C_52
   14  A    between atoms: C_23  and  C_53
   15  A    between atoms: N_24  and  C_41
   16  A    between atoms: N_26  and  C_46
   17  A    between atoms: N_26  and  N_47
   18  A    between atoms: C_28  and  C_34
   19  A    between atoms: C_28  and  C_40
   20  A    between atoms: C_34  and  C_35
   21  A    between atoms: C_40  and  C_49
   22  A    between atoms: C_44  and  C_52
                            x       y       z     vdW  Elec       q    Type
                         _______ _______ _______ _____ _____    ______ ____

>  <TORSDO>
F 22

$$$$
=
 OpenBabel11042417423D

 54 58  0  0  1  0  0  0  0  0999 V2000
  191.8080  174.9100  147.5800 O   0  0  0  0  0  0  0  0  0  0  0  0
  193.1360  176.3880  144.5550 C   0  0  1  0  0  3  0  0  0  0  0  0
  191.1660  176.4820  145.9570 N   0  0  0  0  0  0  0  0  0  0  0  0
  192.0450  175.5190  146.5040 C   0  0  0  0  0  0  0  0  0  0  0  0
  191.7780  176.9780  144.7770 C   0  0  0  0  0  0  0  0  0  0  0  0
  190.8990  179.0010  143.5080 O   0  0  0  0  0  0  0  0  0  0  0  0
  191.3260  178.0170  144.1250 C   0  0  0  0  0  0  0  0  0  0  0  0
  193.2970  175.3530  145.7100 C   0  0  1  0  0  3  0  0  0  0  0  0
  193.4420  173.8970  145.2660 C   0  0  0  0  0  2  0  0  0  0  0  0
  194.6450  173.3420  145.7880 O   0  0  0  0  0  0  0  0  0  0  0  0
  195.9210  170.8060  146.4390 N   0  0  0  0  0  0  0  0  0  0  0  0
  196.2890  171.5300  145.3470 C   0  0  0  0  0  0  0  0  0  0  0  0
  197.0650  172.8910  143.0490 C   0  0  0  0  0  3  0  0  0  0  0  0
  196.0510  173.4170  143.8510 C   0  0  0  0  0  3  0  0  0  0  0  0
  197.9410  169.8350  144.8210 C   0  0  0  0  0  3  0  0  0  0  0  0
  197.5480  169.1240  145.9550 C   0  0  0  0  0  3  0  0  0  0  0  0
  195.6580  172.7510  145.0150 C   0  0  0  0  0  0  0  0  0  0  0  0
  196.5240  169.6290  146.7580 C   0  0  0  0  0  3  0  0  0  0  0  0
  197.6730  171.7270  143.3910 N   0  0  0  0  0  0  0  0  0  0  0  0
  197.3120  171.0400  144.5050 C   0  0  0  0  0  0  0  0  0  0  0  0
  193.2490  175.8160  143.1390 C   0  0  0  0  0  2  0  0  0  0  0  0
  194.5980  176.1470  142.5250 C   0  0  0  0  0  2  0  0  0  0  0  0
  194.5250  176.0620  141.0100 C   0  0  0  0  0  2  0  0  0  0  0  0
  195.6970  175.2660  140.4610 C   0  0  0  0  0  2  0  0  0  0  0  0
  195.7680  175.3100  137.4170 O   0  0  0  0  0  0  0  0  0  0  0  0
  193.6410  171.8370  141.7540 O   0  0  0  0  0  0  0  0  0  0  0  0
  192.8980  173.8510  138.9030 C   0  0  0  0  0  0  0  0  0  0  0  0
  190.8800  173.7450  137.6460 N   0  0  0  0  0  0  0  0  0  0  0  0
  194.9210  174.7540  138.1650 C   0  0  0  0  0  0  0  0  0  0  0  0
  193.8970  173.6030  139.9420 C   0  0  0  0  0  0  0  0  0  0  0  0
  189.5250  173.2410  137.5330 C   0  0  0  0  0  1  0  0  0  0  0  0
  191.3890  174.6430  136.5910 C   0  0  0  0  0  2  0  0  0  0  0  0
  193.5190  174.5750  137.8290 C   0  0  0  0  0  0  0  0  0  0  0  0
  191.6410  173.4240  138.8220 C   0  0  0  0  0  3  0  0  0  0  0  0
  193.7660  172.6960  140.8730 C   0  0  0  0  0  0  0  0  0  0  0  0
  195.2350  174.1620  139.5120 C   0  0  2  0  0  3  0  0  0  0  0  0
  192.8700  174.9290  136.7210 C   0  0  0  0  0  3  0  0  0  0  0  0
  189.8090  176.7480  146.4120 C   0  0  0  0  0  2  0  0  0  0  0  0
  188.8290  175.8570  145.6660 C   0  0  0  0  0  2  0  0  0  0  0  0
  187.5490  176.6130  145.3500 C   0  0  1  0  0  3  0  0  0  0  0  0
  186.8180  176.8890  146.5780 N   0  0  0  0  0  2  0  0  0  0  0  0
  185.4080  176.7260  146.2740 C   0  0  0  0  0  2  0  0  0  0  0  0
  184.6680  178.0050  146.6050 C   0  0  0  0  0  2  0  0  0  0  0  0
  185.6030  178.9550  147.3250 C   0  0  0  0  0  1  0  0  0  0  0  0
  187.8920  177.8680  144.7010 N   0  0  0  0  0  2  0  0  0  0  0  0
  187.2130  177.9030  143.4130 C   0  0  0  0  0  2  0  0  0  0  0  0
  186.7990  176.5610  143.0260 N   0  0  0  0  0  2  0  0  0  0  0  0
  187.1390  176.3940  141.6750 N   0  0  0  0  0  2  0  0  0  0  0  0
  188.4590  175.7810  141.6330 C   0  0  0  0  0  2  0  0  0  0  0  0
  188.4610  174.5730  140.7030 C   0  0  0  0  0  2  0  0  0  0  0  0
  189.4750  173.0480  142.2780 N   0  0  0  0  0  0  0  0  0  0  0  0
  188.5060  173.2930  141.4760 C   0  0  0  0  0  3  0  0  0  0  0  0
  189.5180  171.8170  143.0240 C   0  0  0  0  0  2  0  0  0  0  0  0
  190.4050  170.9250  142.4210 O   0  0  0  0  0  1  0  0  0  0  0  0
  2 21  1  6  0  0  0
  2  5  1  0  0  0  0
  2  8  1  0  0  0  0
  3 38  1  0  0  0  0
  3  4  1  0  0  0  0
  4  1  2  0  0  0  0
  5  3  1  0  0  0  0
  6  7  2  0  0  0  0
  7  5  2  0  0  0  0
  8  9  1  6  0  0  0
  8  4  1  0  0  0  0
  9 10  1  0  0  0  0
 11 18  1  0  0  0  0
 12 11  2  0  0  0  0
 13 19  2  0  0  0  0
 13 14  1  0  0  0  0
 14 17  2  0  0  0  0
 15 16  1  0  0  0  0
 16 18  2  0  0  0  0
 17 12  1  0  0  0  0
 17 10  1  0  0  0  0
 19 20  1  0  0  0  0
 20 15  2  0  0  0  0
 20 12  1  0  0  0  0
 22 21  1  0  0  0  0
 23 22  1  0  0  0  0
 24 23  1  0  0  0  0
 25 29  2  0  0  0  0
 27 30  1  0  0  0  0
 28 34  1  0  0  0  0
 29 36  1  0  0  0  0
 30 35  2  0  0  0  0
 31 28  1  0  0  0  0
 32 37  1  0  0  0  0
 32 28  1  0  0  0  0
 33 29  1  0  0  0  0
 33 27  1  0  0  0  0
 34 27  2  0  0  0  0
 35 26  2  0  0  0  0
 36 30  1  0  0  0  0
 36 24  1  1  0  0  0
 37 33  2  0  0  0  0
 39 38  1  0  0  0  0
 40 39  1  1  0  0  0
 40 41  1  0  0  0  0
 42 41  1  0  0  0  0
 42 43  1  0  0  0  0
 43 44  1  0  0  0  0
 45 40  1  0  0  0  0
 46 45  1  0  0  0  0
 47 46  1  0  0  0  0
 48 47  1  0  0  0  0
 49 48  1  0  0  0  0
 50 52  1  0  0  0  0
 50 49  1  0  0  0  0
 51 53  1  0  0  0  0
 52 51  2  0  0  0  0
 54 53  1  0  0  0  0
M  END
>  <MODEL>
5

>  <REMARK>
 VINA RESULT:      -6.1      3.682      6.481
  Name = 
  22 active torsions:
  status: ('A' for Active; 'I' for Inactive)
    1  A    between atoms: C_1  and  C_12
    2  A    between atoms: N_2  and  C_17
    3  A    between atoms: N_2  and  C_46
    4  A    between atoms: O_5  and  C_23
    5  A    between atoms: O_5  and  C_36
    6  A    between atoms: C_7  and  C_15
    7  A    between atoms: C_7  and  N_21
    8  A    between atoms: C_8  and  C_35
    9  A    between atoms: C_12  and  N_30
   10  A    between atoms: C_15  and  C_17
   11  A    between atoms: C_17  and  N_30
   12  A    between atoms: C_19  and  N_47
   13  A    between atoms: C_19  and  C_52
   14  A    between atoms: C_23  and  C_53
   15  A    between atoms: N_24  and  C_41
   16  A    between atoms: N_26  and  C_46
   17  A    between atoms: N_26  and  N_47
   18  A    between atoms: C_28  and  C_34
   19  A    between atoms: C_28  and  C_40
   20  A    between atoms: C_34  and  C_35
   21  A    between atoms: C_40  and  C_49
   22  A    between atoms: C_44  and  C_52
                            x       y       z     vdW  Elec       q    Type
                         _______ _______ _______ _____ _____    ______ ____

>  <TORSDO>
F 22

$$$$
=
 OpenBabel11042417423D

 54 58  0  0  1  0  0  0  0  0999 V2000
  191.8520  177.1680  145.6940 O   0  0  0  0  0  0  0  0  0  0  0  0
  192.7030  173.8040  144.6690 C   0  0  1  0  0  3  0  0  0  0  0  0
  190.7850  175.1010  145.3700 N   0  0  0  0  0  0  0  0  0  0  0  0
  191.9190  175.9440  145.4080 C   0  0  0  0  0  0  0  0  0  0  0  0
  191.2370  173.8170  144.9740 C   0  0  0  0  0  0  0  0  0  0  0  0
  189.6540  171.9240  144.3510 O   0  0  0  0  0  0  0  0  0  0  0  0
  190.4240  172.8440  144.6540 C   0  0  0  0  0  0  0  0  0  0  0  0
  193.1780  175.2470  145.0140 C   0  0  1  0  0  3  0  0  0  0  0  0
  194.2020  175.3450  146.1460 C   0  0  0  0  0  2  0  0  0  0  0  0
  195.4600  175.7770  145.6350 O   0  0  0  0  0  0  0  0  0  0  0  0
  195.9070  176.3730  142.8190 N   0  0  0  0  0  0  0  0  0  0  0  0
  196.4850  175.2970  143.4220 C   0  0  0  0  0  0  0  0  0  0  0  0
  197.7740  173.1180  144.5710 C   0  0  0  0  0  3  0  0  0  0  0  0
  196.9510  173.9240  145.3580 C   0  0  0  0  0  3  0  0  0  0  0  0
  197.5300  174.7180  141.3110 C   0  0  0  0  0  3  0  0  0  0  0  0
  196.9120  175.8220  140.7230 C   0  0  0  0  0  3  0  0  0  0  0  0
  196.2870  175.0160  144.7930 C   0  0  0  0  0  0  0  0  0  0  0  0
  196.0990  176.6470  141.5020 C   0  0  0  0  0  3  0  0  0  0  0  0
  197.9400  173.3910  143.2520 N   0  0  0  0  0  0  0  0  0  0  0  0
  197.3260  174.4500  142.6650 C   0  0  0  0  0  0  0  0  0  0  0  0
  193.4020  172.6800  145.4390 C   0  0  0  0  0  2  0  0  0  0  0  0
  193.5330  171.4330  144.5810 C   0  0  0  0  0  2  0  0  0  0  0  0
  194.5620  171.6510  143.4850 C   0  0  0  0  0  2  0  0  0  0  0  0
  193.9980  171.2490  142.1320 C   0  0  0  0  0  2  0  0  0  0  0  0
  191.5350  169.4700  141.9280 O   0  0  0  0  0  0  0  0  0  0  0  0
  192.8980  175.2360  141.3970 O   0  0  0  0  0  0  0  0  0  0  0  0
  191.6020  172.3130  139.8120 C   0  0  0  0  0  0  0  0  0  0  0  0
  190.2770  172.3070  137.8340 N   0  0  0  0  0  0  0  0  0  0  0  0
  191.7380  170.5800  141.3700 C   0  0  0  0  0  0  0  0  0  0  0  0
  192.4310  172.7820  140.9210 C   0  0  0  0  0  0  0  0  0  0  0  0
  189.7450  173.0470  136.7070 C   0  0  0  0  0  1  0  0  0  0  0  0
  189.9750  170.8660  137.9390 C   0  0  0  0  0  2  0  0  0  0  0  0
  191.2000  170.9600  140.0750 C   0  0  0  0  0  0  0  0  0  0  0  0
  191.1510  172.9820  138.7550 C   0  0  0  0  0  3  0  0  0  0  0  0
  192.6720  174.0430  141.1650 C   0  0  0  0  0  0  0  0  0  0  0  0
  192.5480  171.6980  141.9690 C   0  0  2  0  0  3  0  0  0  0  0  0
  190.4140  170.2620  139.2560 C   0  0  0  0  0  3  0  0  0  0  0  0
  189.4540  175.4470  145.8500 C   0  0  0  0  0  2  0  0  0  0  0  0
  188.4520  175.3440  144.7110 C   0  0  0  0  0  2  0  0  0  0  0  0
  188.7770  176.3470  143.6170 C   0  0  1  0  0  3  0  0  0  0  0  0
  189.4360  175.6750  142.5070 N   0  0  0  0  0  2  0  0  0  0  0  0
  188.5450  175.7750  141.3650 C   0  0  0  0  0  2  0  0  0  0  0  0
  188.5900  174.4860  140.5720 C   0  0  0  0  0  2  0  0  0  0  0  0
  188.3520  173.3150  141.5030 C   0  0  0  0  0  1  0  0  0  0  0  0
  187.5390  176.9500  143.1480 N   0  0  0  0  0  2  0  0  0  0  0  0
  186.4330  176.1790  143.6990 C   0  0  0  0  0  2  0  0  0  0  0  0
  185.1860  176.9210  143.5640 N   0  0  0  0  0  2  0  0  0  0  0  0
  185.4980  178.1550  142.9750 N   0  0  0  0  0  2  0  0  0  0  0  0
  184.5240  179.1240  143.4600 C   0  0  0  0  0  2  0  0  0  0  0  0
  185.1770  180.1040  144.4280 C   0  0  0  0  0  2  0  0  0  0  0  0
  185.3130  178.9790  146.5610 N   0  0  0  0  0  0  0  0  0  0  0  0
  185.9220  179.3850  145.5080 C   0  0  0  0  0  3  0  0  0  0  0  0
  186.0290  178.2860  147.6010 C   0  0  0  0  0  2  0  0  0  0  0  0
  185.9420  176.9080  147.4030 O   0  0  0  0  0  1  0  0  0  0  0  0
  2  5  1  0  0  0  0
  2  8  1  0  0  0  0
  2 21  1  1  0  0  0
  3  4  1  0  0  0  0
  3 38  1  0  0  0  0
  4  1  2  0  0  0  0
  5  3  1  0  0  0  0
  6  7  2  0  0  0  0
  7  5  2  0  0  0  0
  8  4  1  0  0  0  0
  8  9  1  1  0  0  0
 10  9  1  0  0  0  0
 11 12  1  0  0  0  0
 12 17  1  0  0  0  0
 13 14  1  0  0  0  0
 15 20  1  0  0  0  0
 16 15  2  0  0  0  0
 16 18  1  0  0  0  0
 17 14  2  0  0  0  0
 17 10  1  0  0  0  0
 18 11  2  0  0  0  0
 19 13  2  0  0  0  0
 20 19  1  0  0  0  0
 20 12  2  0  0  0  0
 22 21  1  0  0  0  0
 23 22  1  0  0  0  0
 24 23  1  0  0  0  0
 27 33  1  0  0  0  0
 27 30  1  0  0  0  0
 28 32  1  0  0  0  0
 28 34  1  0  0  0  0
 29 25  2  0  0  0  0
 29 36  1  0  0  0  0
 30 35  2  0  0  0  0
 30 36  1  0  0  0  0
 31 28  1  0  0  0  0
 32 37  1  0  0  0  0
 33 29  1  0  0  0  0
 34 27  2  0  0  0  0
 35 26  2  0  0  0  0
 36 24  1  6  0  0  0
 37 33  2  0  0  0  0
 39 38  1  0  0  0  0
 40 39  1  1  0  0  0
 41 40  1  0  0  0  0
 42 41  1  0  0  0  0
 43 42  1  0  0  0  0
 43 44  1  0  0  0  0
 45 40  1  0  0  0  0
 45 46  1  0  0  0  0
 47 46  1  0  0  0  0
 48 49  1  0  0  0  0
 48 47  1  0  0  0  0
 49 50  1  0  0  0  0
 50 52  1  0  0  0  0
 51 53  1  0  0  0  0
 52 51  2  0  0  0  0
 54 53  1  0  0  0  0
M  END
>  <MODEL>
6

>  <REMARK>
 VINA RESULT:      -6.1      3.027      6.255
  Name = 
  22 active torsions:
  status: ('A' for Active; 'I' for Inactive)
    1  A    between atoms: C_1  and  C_12
    2  A    between atoms: N_2  and  C_17
    3  A    between atoms: N_2  and  C_46
    4  A    between atoms: O_5  and  C_23
    5  A    between atoms: O_5  and  C_36
    6  A    between atoms: C_7  and  C_15
    7  A    between atoms: C_7  and  N_21
    8  A    between atoms: C_8  and  C_35
    9  A    between atoms: C_12  and  N_30
   10  A    between atoms: C_15  and  C_17
   11  A    between atoms: C_17  and  N_30
   12  A    between atoms: C_19  and  N_47
   13  A    between atoms: C_19  and  C_52
   14  A    between atoms: C_23  and  C_53
   15  A    between atoms: N_24  and  C_41
   16  A    between atoms: N_26  and  C_46
   17  A    between atoms: N_26  and  N_47
   18  A    between atoms: C_28  and  C_34
   19  A    between atoms: C_28  and  C_40
   20  A    between atoms: C_34  and  C_35
   21  A    between atoms: C_40  and  C_49
   22  A    between atoms: C_44  and  C_52
                            x       y       z     vdW  Elec       q    Type
                         _______ _______ _______ _____ _____    ______ ____

>  <TORSDO>
F 22

$$$$
=
 OpenBabel11042417423D

 54 58  0  0  1  0  0  0  0  0999 V2000
  193.8550  173.3660  142.2040 O   0  0  0  0  0  0  0  0  0  0  0  0
  190.2570  173.6540  142.4650 C   0  0  1  0  0  3  0  0  0  0  0  0
  192.1830  173.1460  143.8390 N   0  0  0  0  0  0  0  0  0  0  0  0
  192.6360  173.3710  142.5190 C   0  0  0  0  0  0  0  0  0  0  0  0
  190.7700  173.2690  143.8180 C   0  0  0  0  0  0  0  0  0  0  0  0
  189.3560  173.3470  145.9320 O   0  0  0  0  0  0  0  0  0  0  0  0
  190.0430  173.3090  144.9040 C   0  0  0  0  0  0  0  0  0  0  0  0
  191.5300  173.6750  141.5650 C   0  0  1  0  0  3  0  0  0  0  0  0
  191.5370  172.6620  140.4200 C   0  0  0  0  0  2  0  0  0  0  0  0
  192.0930  173.2490  139.2480 O   0  0  0  0  0  0  0  0  0  0  0  0
  193.0810  175.0800  137.2090 N   0  0  0  0  0  0  0  0  0  0  0  0
  191.8310  174.5460  137.1440 C   0  0  0  0  0  0  0  0  0  0  0  0
  189.2870  173.4550  136.8720 C   0  0  0  0  0  3  0  0  0  0  0  0
  190.0790  173.0920  137.9620 C   0  0  0  0  0  3  0  0  0  0  0  0
  191.4510  175.7760  135.0880 C   0  0  0  0  0  3  0  0  0  0  0  0
  192.7340  176.3130  135.1940 C   0  0  0  0  0  3  0  0  0  0  0  0
  191.3540  173.6410  138.1190 C   0  0  0  0  0  0  0  0  0  0  0  0
  193.5430  175.9470  136.2700 C   0  0  0  0  0  3  0  0  0  0  0  0
  189.7520  174.3390  135.9520 N   0  0  0  0  0  0  0  0  0  0  0  0
  190.9910  174.8840  136.0590 C   0  0  0  0  0  0  0  0  0  0  0  0
  189.1510  172.6950  142.0160 C   0  0  0  0  0  2  0  0  0  0  0  0
  188.0310  173.4460  141.3150 C   0  0  0  0  0  2  0  0  0  0  0  0
  187.7660  174.7710  142.0100 C   0  0  0  0  0  2  0  0  0  0  0  0
  187.9580  175.9290  141.0460 C   0  0  0  0  0  2  0  0  0  0  0  0
  189.6940  177.1160  143.2480 O   0  0  0  0  0  0  0  0  0  0  0  0
  184.5810  178.3630  140.4720 O   0  0  0  0  0  0  0  0  0  0  0  0
  186.1970  177.6080  143.5640 C   0  0  0  0  0  0  0  0  0  0  0  0
  185.2850  178.0380  145.7200 N   0  0  0  0  0  0  0  0  0  0  0  0
  188.4530  177.2520  143.0810 C   0  0  0  0  0  0  0  0  0  0  0  0
  186.3250  177.5010  142.1110 C   0  0  0  0  0  0  0  0  0  0  0  0
  184.1380  178.4290  146.5160 C   0  0  0  0  0  1  0  0  0  0  0  0
  186.5390  177.6860  146.4140 C   0  0  0  0  0  2  0  0  0  0  0  0
  187.4930  177.4310  144.1560 C   0  0  0  0  0  0  0  0  0  0  0  0
  185.1320  177.9230  144.2950 C   0  0  0  0  0  3  0  0  0  0  0  0
  185.4290  177.9440  141.2690 C   0  0  0  0  0  0  0  0  0  0  0  0
  187.7740  177.2780  141.7390 C   0  0  2  0  0  3  0  0  0  0  0  0
  187.7070  177.4980  145.4690 C   0  0  0  0  0  3  0  0  0  0  0  0
  193.0000  172.6750  144.9490 C   0  0  0  0  0  2  0  0  0  0  0  0
  193.5030  171.2700  144.6600 C   0  0  0  0  0  2  0  0  0  0  0  0
  194.9910  171.1640  144.9480 C   0  0  1  0  0  3  0  0  0  0  0  0
  195.7290  171.0100  143.7030 N   0  0  0  0  0  2  0  0  0  0  0  0
  195.1040  169.9200  142.9760 C   0  0  0  0  0  2  0  0  0  0  0  0
  195.4840  170.0030  141.5130 C   0  0  0  0  0  2  0  0  0  0  0  0
  194.2280  170.1190  140.6730 C   0  0  0  0  0  1  0  0  0  0  0  0
  195.4290  172.3770  145.6210 N   0  0  0  0  0  2  0  0  0  0  0  0
  196.5250  172.9430  144.8470 C   0  0  0  0  0  2  0  0  0  0  0  0
  196.9060  174.2410  145.3890 N   0  0  0  0  0  2  0  0  0  0  0  0
  196.6380  175.1990  144.4000 N   0  0  0  0  0  2  0  0  0  0  0  0
  195.2240  175.5350  144.4930 C   0  0  0  0  0  2  0  0  0  0  0  0
  194.9470  176.3540  145.7480 C   0  0  0  0  0  2  0  0  0  0  0  0
  192.5510  176.6290  145.8760 N   0  0  0  0  0  0  0  0  0  0  0  0
  193.6000  176.0370  146.3160 C   0  0  0  0  0  3  0  0  0  0  0  0
  191.2530  176.3240  146.4210 C   0  0  0  0  0  2  0  0  0  0  0  0
  191.3890  175.5430  147.5690 O   0  0  0  0  0  1  0  0  0  0  0  0
  1  4  2  0  0  0  0
  2 21  1  6  0  0  0
  2  5  1  0  0  0  0
  3 38  1  0  0  0  0
  4  3  1  0  0  0  0
  5  3  1  0  0  0  0
  5  7  2  0  0  0  0
  7  6  2  0  0  0  0
  8  9  1  6  0  0  0
  8  2  1  0  0  0  0
  8  4  1  0  0  0  0
 10  9  1  0  0  0  0
 12 11  1  0  0  0  0
 12 17  1  0  0  0  0
 13 14  1  0  0  0  0
 14 17  2  0  0  0  0
 15 16  2  0  0  0  0
 15 20  1  0  0  0  0
 16 18  1  0  0  0  0
 17 10  1  0  0  0  0
 18 11  2  0  0  0  0
 19 20  1  0  0  0  0
 19 13  2  0  0  0  0
 20 12  2  0  0  0  0
 22 23  1  0  0  0  0
 22 21  1  0  0  0  0
 24 23  1  0  0  0  0
 26 35  2  0  0  0  0
 27 33  1  0  0  0  0
 27 34  2  0  0  0  0
 28 32  1  0  0  0  0
 28 31  1  0  0  0  0
 29 25  2  0  0  0  0
 29 33  1  0  0  0  0
 30 27  1  0  0  0  0
 33 37  2  0  0  0  0
 34 28  1  0  0  0  0
 35 30  2  0  0  0  0
 36 24  1  1  0  0  0
 36 30  1  0  0  0  0
 36 29  1  0  0  0  0
 37 32  1  0  0  0  0
 39 38  1  0  0  0  0
 40 39  1  6  0  0  0
 40 45  1  0  0  0  0
 41 40  1  0  0  0  0
 42 41  1  0  0  0  0
 43 42  1  0  0  0  0
 44 43  1  0  0  0  0
 46 47  1  0  0  0  0
 46 45  1  0  0  0  0
 48 49  1  0  0  0  0
 48 47  1  0  0  0  0
 49 50  1  0  0  0  0
 50 52  1  0  0  0  0
 51 52  2  0  0  0  0
 51 53  1  0  0  0  0
 53 54  1  0  0  0  0
M  END
>  <MODEL>
7

>  <REMARK>
 VINA RESULT:      -6.1      3.314     10.105
  Name = 
  22 active torsions:
  status: ('A' for Active; 'I' for Inactive)
    1  A    between atoms: C_1  and  C_12
    2  A    between atoms: N_2  and  C_17
    3  A    between atoms: N_2  and  C_46
    4  A    between atoms: O_5  and  C_23
    5  A    between atoms: O_5  and  C_36
    6  A    between atoms: C_7  and  C_15
    7  A    between atoms: C_7  and  N_21
    8  A    between atoms: C_8  and  C_35
    9  A    between atoms: C_12  and  N_30
   10  A    between atoms: C_15  and  C_17
   11  A    between atoms: C_17  and  N_30
   12  A    between atoms: C_19  and  N_47
   13  A    between atoms: C_19  and  C_52
   14  A    between atoms: C_23  and  C_53
   15  A    between atoms: N_24  and  C_41
   16  A    between atoms: N_26  and  C_46
   17  A    between atoms: N_26  and  N_47
   18  A    between atoms: C_28  and  C_34
   19  A    between atoms: C_28  and  C_40
   20  A    between atoms: C_34  and  C_35
   21  A    between atoms: C_40  and  C_49
   22  A    between atoms: C_44  and  C_52
                            x       y       z     vdW  Elec       q    Type
                         _______ _______ _______ _____ _____    ______ ____

>  <TORSDO>
F 22

$$$$
=
 OpenBabel11042417423D

 54 58  0  0  1  0  0  0  0  0999 V2000
  191.7690  176.9310  147.0230 O   0  0  0  0  0  0  0  0  0  0  0  0
  192.4080  174.1280  144.8260 C   0  0  1  0  0  3  0  0  0  0  0  0
  190.6550  175.0190  146.2350 N   0  0  0  0  0  0  0  0  0  0  0  0
  191.7790  175.8690  146.3470 C   0  0  0  0  0  0  0  0  0  0  0  0
  191.0240  173.9570  145.3700 C   0  0  0  0  0  0  0  0  0  0  0  0
  189.3490  172.2760  144.4510 O   0  0  0  0  0  0  0  0  0  0  0  0
  190.1640  173.0930  144.8980 C   0  0  0  0  0  0  0  0  0  0  0  0
  192.9420  175.4100  145.5330 C   0  0  1  0  0  3  0  0  0  0  0  0
  194.1570  175.1990  146.4370 C   0  0  0  0  0  2  0  0  0  0  0  0
  195.3290  175.7180  145.8150 O   0  0  0  0  0  0  0  0  0  0  0  0
  195.8460  176.4420  143.0420 N   0  0  0  0  0  0  0  0  0  0  0  0
  196.4020  175.3350  143.6070 C   0  0  0  0  0  0  0  0  0  0  0  0
  197.6510  173.0940  144.6820 C   0  0  0  0  0  3  0  0  0  0  0  0
  196.8150  173.8690  145.4870 C   0  0  0  0  0  3  0  0  0  0  0  0
  197.4930  174.8470  141.4960 C   0  0  0  0  0  3  0  0  0  0  0  0
  196.8970  175.9820  140.9460 C   0  0  0  0  0  3  0  0  0  0  0  0
  196.1710  174.9920  144.9580 C   0  0  0  0  0  0  0  0  0  0  0  0
  196.0710  176.7760  141.7430 C   0  0  0  0  0  3  0  0  0  0  0  0
  197.8490  173.4270  143.3810 N   0  0  0  0  0  0  0  0  0  0  0  0
  197.2550  174.5180  142.8310 C   0  0  0  0  0  0  0  0  0  0  0  0
  193.2350  172.8590  145.0530 C   0  0  0  0  0  2  0  0  0  0  0  0
  193.2400  171.9840  143.8100 C   0  0  0  0  0  2  0  0  0  0  0  0
  194.3720  172.3910  142.8810 C   0  0  0  0  0  2  0  0  0  0  0  0
  193.8610  173.3170  141.7900 C   0  0  0  0  0  2  0  0  0  0  0  0
  195.2340  173.4550  139.0750 O   0  0  0  0  0  0  0  0  0  0  0  0
  190.3670  171.0060  141.4660 O   0  0  0  0  0  0  0  0  0  0  0  0
  191.6940  173.2630  139.0410 C   0  0  0  0  0  0  0  0  0  0  0  0
  190.5160  174.0610  137.1320 N   0  0  0  0  0  0  0  0  0  0  0  0
  194.0120  173.2720  139.3180 C   0  0  0  0  0  0  0  0  0  0  0  0
  191.9890  172.5790  140.2980 C   0  0  0  0  0  0  0  0  0  0  0  0
  189.2590  174.1720  136.4190 C   0  0  0  0  0  1  0  0  0  0  0  0
  191.7130  174.7080  136.5590 C   0  0  0  0  0  2  0  0  0  0  0  0
  192.9270  173.7070  138.4550 C   0  0  0  0  0  0  0  0  0  0  0  0
  190.5310  173.4030  138.4100 C   0  0  0  0  0  3  0  0  0  0  0  0
  191.1560  171.7710  140.8990 C   0  0  0  0  0  0  0  0  0  0  0  0
  193.4840  172.5470  140.5260 C   0  0  2  0  0  3  0  0  0  0  0  0
  192.9900  174.3460  137.2870 C   0  0  0  0  0  3  0  0  0  0  0  0
  189.4360  175.1140  147.0260 C   0  0  0  0  0  2  0  0  0  0  0  0
  188.2370  175.2850  146.1070 C   0  0  0  0  0  2  0  0  0  0  0  0
  188.0130  176.7520  145.7830 C   0  0  1  0  0  3  0  0  0  0  0  0
  188.3820  177.5760  146.9250 N   0  0  0  0  0  2  0  0  0  0  0  0
  187.1550  177.8700  147.6440 C   0  0  0  0  0  2  0  0  0  0  0  0
  186.0300  178.0940  146.6560 C   0  0  0  0  0  2  0  0  0  0  0  0
  184.8070  178.5990  147.3930 C   0  0  0  0  0  1  0  0  0  0  0  0
  188.8400  177.1130  144.6420 N   0  0  0  0  0  2  0  0  0  0  0  0
  188.5770  176.1510  143.5810 C   0  0  0  0  0  2  0  0  0  0  0  0
  189.1970  176.5910  142.3380 N   0  0  0  0  0  2  0  0  0  0  0  0
  188.7910  177.9160  142.1160 N   0  0  0  0  0  2  0  0  0  0  0  0
  187.6850  177.8770  141.1680 C   0  0  0  0  0  2  0  0  0  0  0  0
  186.4380  177.2900  141.8210 C   0  0  0  0  0  2  0  0  0  0  0  0
  184.5910  178.0370  143.1850 N   0  0  0  0  0  0  0  0  0  0  0  0
  185.6660  178.3390  142.5560 C   0  0  0  0  0  3  0  0  0  0  0  0
  183.8480  179.0460  143.8940 C   0  0  0  0  0  2  0  0  0  0  0  0
  184.6820  180.1180  144.2130 O   0  0  0  0  0  1  0  0  0  0  0  0
  2 21  1  1  0  0  0
  2  5  1  0  0  0  0
  2  8  1  0  0  0  0
  3  4  1  0  0  0  0
  3 38  1  0  0  0  0
  4  1  2  0  0  0  0
  5  3  1  0  0  0  0
  6  7  2  0  0  0  0
  7  5  2  0  0  0  0
  8  4  1  0  0  0  0
  8  9  1  1  0  0  0
 10  9  1  0  0  0  0
 11 12  1  0  0  0  0
 12 17  1  0  0  0  0
 13 14  1  0  0  0  0
 15 20  1  0  0  0  0
 16 15  2  0  0  0  0
 16 18  1  0  0  0  0
 17 14  2  0  0  0  0
 17 10  1  0  0  0  0
 18 11  2  0  0  0  0
 19 13  2  0  0  0  0
 20 19  1  0  0  0  0
 20 12  2  0  0  0  0
 22 21  1  0  0  0  0
 23 22  1  0  0  0  0
 24 23  1  0  0  0  0
 25 29  2  0  0  0  0
 27 30  1  0  0  0  0
 28 34  1  0  0  0  0
 29 36  1  0  0  0  0
 30 36  1  0  0  0  0
 30 35  2  0  0  0  0
 31 28  1  0  0  0  0
 32 28  1  0  0  0  0
 32 37  1  0  0  0  0
 33 27  1  0  0  0  0
 33 29  1  0  0  0  0
 34 27  2  0  0  0  0
 35 26  2  0  0  0  0
 36 24  1  1  0  0  0
 37 33  2  0  0  0  0
 39 38  1  0  0  0  0
 40 39  1  1  0  0  0
 40 41  1  0  0  0  0
 41 42  1  0  0  0  0
 43 44  1  0  0  0  0
 43 42  1  0  0  0  0
 45 40  1  0  0  0  0
 46 45  1  0  0  0  0
 47 46  1  0  0  0  0
 48 47  1  0  0  0  0
 49 50  1  0  0  0  0
 49 48  1  0  0  0  0
 50 52  1  0  0  0  0
 51 53  1  0  0  0  0
 52 51  2  0  0  0  0
 53 54  1  0  0  0  0
M  END
>  <MODEL>
8

>  <REMARK>
 VINA RESULT:      -6.0      2.838      5.615
  Name = 
  22 active torsions:
  status: ('A' for Active; 'I' for Inactive)
    1  A    between atoms: C_1  and  C_12
    2  A    between atoms: N_2  and  C_17
    3  A    between atoms: N_2  and  C_46
    4  A    between atoms: O_5  and  C_23
    5  A    between atoms: O_5  and  C_36
    6  A    between atoms: C_7  and  C_15
    7  A    between atoms: C_7  and  N_21
    8  A    between atoms: C_8  and  C_35
    9  A    between atoms: C_12  and  N_30
   10  A    between atoms: C_15  and  C_17
   11  A    between atoms: C_17  and  N_30
   12  A    between atoms: C_19  and  N_47
   13  A    between atoms: C_19  and  C_52
   14  A    between atoms: C_23  and  C_53
   15  A    between atoms: N_24  and  C_41
   16  A    between atoms: N_26  and  C_46
   17  A    between atoms: N_26  and  N_47
   18  A    between atoms: C_28  and  C_34
   19  A    between atoms: C_28  and  C_40
   20  A    between atoms: C_34  and  C_35
   21  A    between atoms: C_40  and  C_49
   22  A    between atoms: C_44  and  C_52
                            x       y       z     vdW  Elec       q    Type
                         _______ _______ _______ _____ _____    ______ ____

>  <TORSDO>
F 22

$$$$
=
 OpenBabel11042417423D

 54 58  0  0  1  0  0  0  0  0999 V2000
  191.5420  175.1390  147.7810 O   0  0  0  0  0  0  0  0  0  0  0  0
  192.7590  176.2000  144.5420 C   0  0  1  0  0  3  0  0  0  0  0  0
  190.9580  176.6610  146.0900 N   0  0  0  0  0  0  0  0  0  0  0  0
  191.7530  175.6300  146.6410 C   0  0  0  0  0  0  0  0  0  0  0  0
  191.5150  176.9830  144.8260 C   0  0  0  0  0  0  0  0  0  0  0  0
  190.7880  179.0090  143.4690 O   0  0  0  0  0  0  0  0  0  0  0  0
  191.1410  178.0240  144.1290 C   0  0  0  0  0  0  0  0  0  0  0  0
  192.8940  175.2390  145.7620 C   0  0  1  0  0  3  0  0  0  0  0  0
  192.8090  173.7490  145.4320 C   0  0  0  0  0  2  0  0  0  0  0  0
  193.8960  173.0500  146.0300 O   0  0  0  0  0  0  0  0  0  0  0  0
  194.5900  170.2240  146.1470 N   0  0  0  0  0  0  0  0  0  0  0  0
  195.3100  171.1060  145.4010 C   0  0  0  0  0  0  0  0  0  0  0  0
  196.8050  172.8050  143.7860 C   0  0  0  0  0  3  0  0  0  0  0  0
  195.7190  173.3130  144.5000 C   0  0  0  0  0  3  0  0  0  0  0  0
  196.7700  169.2900  144.7270 C   0  0  0  0  0  3  0  0  0  0  0  0
  196.0160  168.4160  145.5120 C   0  0  0  0  0  3  0  0  0  0  0  0
  194.9650  172.4740  145.3240 C   0  0  0  0  0  0  0  0  0  0  0  0
  194.9180  168.9060  146.2190 C   0  0  0  0  0  3  0  0  0  0  0  0
  197.1350  171.4920  143.8830 N   0  0  0  0  0  0  0  0  0  0  0  0
  196.4200  170.6390  144.6610 C   0  0  0  0  0  0  0  0  0  0  0  0
  192.6640  175.5170  143.1750 C   0  0  0  0  0  2  0  0  0  0  0  0
  191.2540  175.6130  142.6170 C   0  0  0  0  0  2  0  0  0  0  0  0
  190.3950  174.4800  143.1530 C   0  0  0  0  0  2  0  0  0  0  0  0
  189.4050  174.0130  142.0990 C   0  0  0  0  0  2  0  0  0  0  0  0
  189.7210  172.0560  144.4100 O   0  0  0  0  0  0  0  0  0  0  0  0
  189.1920  171.8790  138.4870 O   0  0  0  0  0  0  0  0  0  0  0  0
  191.2050  171.1100  141.3320 C   0  0  0  0  0  0  0  0  0  0  0  0
  192.9980  169.5440  141.3520 N   0  0  0  0  0  0  0  0  0  0  0  0
  190.0580  171.8960  143.2070 C   0  0  0  0  0  0  0  0  0  0  0  0
  190.1120  171.9570  140.8560 C   0  0  0  0  0  0  0  0  0  0  0  0
  193.8900  168.6840  140.5990 C   0  0  0  0  0  1  0  0  0  0  0  0
  193.1610  169.6210  142.8170 C   0  0  0  0  0  2  0  0  0  0  0  0
  191.1860  171.0930  142.7680 C   0  0  0  0  0  0  0  0  0  0  0  0
  192.0510  170.3550  140.6360 C   0  0  0  0  0  3  0  0  0  0  0  0
  189.6400  171.9170  139.6390 C   0  0  0  0  0  0  0  0  0  0  0  0
  189.3260  172.4900  142.0330 C   0  0  2  0  0  3  0  0  0  0  0  0
  192.0470  170.3860  143.4980 C   0  0  0  0  0  3  0  0  0  0  0  0
  189.6940  177.1410  146.6330 C   0  0  0  0  0  2  0  0  0  0  0  0
  188.6120  176.0920  146.4290 C   0  0  0  0  0  2  0  0  0  0  0  0
  187.2930  176.7480  146.0540 C   0  0  1  0  0  3  0  0  0  0  0  0
  186.6190  177.2260  147.2520 N   0  0  0  0  0  2  0  0  0  0  0  0
  185.9750  178.4790  146.8990 C   0  0  0  0  0  2  0  0  0  0  0  0
  184.4860  178.2560  146.7370 C   0  0  0  0  0  2  0  0  0  0  0  0
  183.9920  179.0210  145.5270 C   0  0  0  0  0  1  0  0  0  0  0  0
  187.5610  177.8710  145.1700 N   0  0  0  0  0  2  0  0  0  0  0  0
  187.7020  177.3480  143.8180 C   0  0  0  0  0  2  0  0  0  0  0  0
  186.4730  176.6850  143.4030 N   0  0  0  0  0  2  0  0  0  0  0  0
  186.2730  176.9880  142.0480 N   0  0  0  0  0  2  0  0  0  0  0  0
  185.2370  178.0090  141.9810 C   0  0  0  0  0  2  0  0  0  0  0  0
  184.7320  178.1690  140.5510 C   0  0  0  0  0  2  0  0  0  0  0  0
  182.5540  178.2350  141.5940 N   0  0  0  0  0  0  0  0  0  0  0  0
  183.2420  178.2960  140.5130 C   0  0  0  0  0  3  0  0  0  0  0  0
  181.1200  178.3580  141.5590 C   0  0  0  0  0  2  0  0  0  0  0  0
  180.7610  179.6570  141.1980 O   0  0  0  0  0  1  0  0  0  0  0  0
  2 21  1  6  0  0  0
  2  5  1  0  0  0  0
  2  8  1  0  0  0  0
  3 38  1  0  0  0  0
  3  4  1  0  0  0  0
  4  1  2  0  0  0  0
  5  3  1  0  0  0  0
  6  7  2  0  0  0  0
  7  5  2  0  0  0  0
  8  9  1  6  0  0  0
  8  4  1  0  0  0  0
  9 10  1  0  0  0  0
 11 18  1  0  0  0  0
 12 11  2  0  0  0  0
 13 19  2  0  0  0  0
 13 14  1  0  0  0  0
 14 17  2  0  0  0  0
 15 16  1  0  0  0  0
 16 18  2  0  0  0  0
 17 12  1  0  0  0  0
 17 10  1  0  0  0  0
 19 20  1  0  0  0  0
 20 15  2  0  0  0  0
 20 12  1  0  0  0  0
 22 23  1  0  0  0  0
 22 21  1  0  0  0  0
 24 23  1  0  0  0  0
 26 35  2  0  0  0  0
 27 33  1  0  0  0  0
 28 32  1  0  0  0  0
 29 25  2  0  0  0  0
 30 27  1  0  0  0  0
 30 36  1  0  0  0  0
 31 28  1  0  0  0  0
 32 37  1  0  0  0  0
 33 29  1  0  0  0  0
 33 37  2  0  0  0  0
 34 27  2  0  0  0  0
 34 28  1  0  0  0  0
 35 30  2  0  0  0  0
 36 24  1  1  0  0  0
 36 29  1  0  0  0  0
 39 38  1  0  0  0  0
 40 39  1  1  0  0  0
 40 41  1  0  0  0  0
 42 41  1  0  0  0  0
 43 42  1  0  0  0  0
 44 43  1  0  0  0  0
 45 40  1  0  0  0  0
 46 45  1  0  0  0  0
 47 46  1  0  0  0  0
 48 47  1  0  0  0  0
 49 48  1  0  0  0  0
 50 49  1  0  0  0  0
 52 50  1  0  0  0  0
 52 51  2  0  0  0  0
 53 51  1  0  0  0  0
 54 53  1  0  0  0  0
M  END
>  <MODEL>
9

>  <REMARK>
 VINA RESULT:      -5.9      2.532      5.574
  Name = 
  22 active torsions:
  status: ('A' for Active; 'I' for Inactive)
    1  A    between atoms: C_1  and  C_12
    2  A    between atoms: N_2  and  C_17
    3  A    between atoms: N_2  and  C_46
    4  A    between atoms: O_5  and  C_23
    5  A    between atoms: O_5  and  C_36
    6  A    between atoms: C_7  and  C_15
    7  A    between atoms: C_7  and  N_21
    8  A    between atoms: C_8  and  C_35
    9  A    between atoms: C_12  and  N_30
   10  A    between atoms: C_15  and  C_17
   11  A    between atoms: C_17  and  N_30
   12  A    between atoms: C_19  and  N_47
   13  A    between atoms: C_19  and  C_52
   14  A    between atoms: C_23  and  C_53
   15  A    between atoms: N_24  and  C_41
   16  A    between atoms: N_26  and  C_46
   17  A    between atoms: N_26  and  N_47
   18  A    between atoms: C_28  and  C_34
   19  A    between atoms: C_28  and  C_40
   20  A    between atoms: C_34  and  C_35
   21  A    between atoms: C_40  and  C_49
   22  A    between atoms: C_44  and  C_52
                            x       y       z     vdW  Elec       q    Type
                         _______ _______ _______ _____ _____    ______ ____

>  <TORSDO>
F 22

$$$$
