=
 OpenBabel11042415283D

 44 48  0  0  1  0  0  0  0  0999 V2000
  189.0820  176.9940  142.4360 N   0  0  0  0  0  0  0  0  0  0  0  0
  190.4030  176.2920  143.9580 C   0  0  0  0  0  0  0  0  0  0  0  0
  189.9330  177.4060  143.3650 N   0  0  0  0  0  0  0  0  0  0  0  0
  189.9720  173.8360  143.6700 N   0  0  0  0  0  2  0  0  0  0  0  0
  188.9590  175.6760  142.3980 N   0  0  0  0  0  0  0  0  0  0  0  0
  189.7880  175.2170  143.3510 C   0  0  0  0  0  0  0  0  0  0  0  0
  191.3790  176.2830  145.0600 C   0  0  0  0  0  0  0  0  0  0  0  0
  190.9050  176.4250  146.4100 N   0  0  0  0  0  2  0  0  0  0  0  0
  192.6410  176.1480  144.7700 N   0  0  0  0  0  0  0  0  0  0  0  0
  191.7100  176.4190  147.4980 O   0  0  0  0  0  1  0  0  0  0  0  0
  193.7370  176.1240  145.7270 C   0  0  0  0  0  2  0  0  0  0  0  0
  194.3860  172.4280  145.3200 C   0  0  0  0  0  0  0  0  0  0  0  0
  196.2580  170.7890  145.4620 S   0  0  0  0  0  0  0  0  0  0  0  0
  196.4870  173.5090  145.8950 C   0  0  0  0  0  3  0  0  0  0  0  0
  194.4350  174.8120  145.6610 C   0  0  0  0  0  0  0  0  0  0  0  0
  194.7440  170.1410  145.0670 C   0  0  0  0  0  3  0  0  0  0  0  0
  195.7430  172.3740  145.5840 C   0  0  0  0  0  0  0  0  0  0  0  0
  193.7100  173.6470  145.3580 C   0  0  0  0  0  3  0  0  0  0  0  0
  193.8150  171.1870  145.0310 C   0  0  0  0  0  3  0  0  0  0  0  0
  195.8160  174.7410  145.9340 C   0  0  0  0  0  3  0  0  0  0  0  0
  189.2370  172.7800  142.9910 C   0  0  0  0  0  2  0  0  0  0  0  0
  190.1540  171.6050  142.7120 C   0  0  0  0  0  2  0  0  0  0  0  0
  191.4620  172.1120  142.1360 C   0  0  0  0  0  2  0  0  0  0  0  0
  192.9270  171.9290  140.1340 C   0  0  0  0  0  1  0  0  0  0  0  0
  191.4950  171.8880  140.6330 C   0  0  2  0  0  3  0  0  0  0  0  0
  190.7260  172.9280  139.9690 N   0  0  0  0  0  2  0  0  0  0  0  0
  189.8150  170.6440  138.9110 O   0  0  0  0  0  1  0  0  0  0  0  0
  189.8920  172.6980  137.2960 O   0  0  0  0  0  0  0  0  0  0  0  0
  188.0170  172.5060  139.3100 O   0  0  0  0  0  1  0  0  0  0  0  0
  189.6090  172.1420  138.8670 P   0  0  0  0  0  0  0  0  0  0  0  0
  188.3060  177.8960  141.6020 C   0  0  0  0  0  2  0  0  0  0  0  0
  187.2900  177.1040  140.8050 C   0  0  0  0  0  2  0  0  0  0  0  0
  186.0610  177.9540  140.5610 C   0  0  0  0  0  2  0  0  0  0  0  0
  185.6470  178.6140  141.8580 C   0  0  0  0  0  2  0  0  0  0  0  0
  184.6810  177.7130  142.6020 C   0  0  0  0  0  2  0  0  0  0  0  0
  186.9260  176.9060  147.2360 C   0  0  0  0  0  3  0  0  0  0  0  0
  185.4980  177.5930  144.9670 C   0  0  0  0  0  0  0  0  0  0  0  0
  183.7770  178.8610  144.6310 C   0  0  0  0  0  3  0  0  0  0  0  0
  184.0430  178.9250  146.0030 C   0  0  0  0  0  3  0  0  0  0  0  0
  185.1420  178.1070  146.1820 C   0  0  0  0  0  0  0  0  0  0  0  0
  186.5730  176.7160  144.8220 C   0  0  0  0  0  3  0  0  0  0  0  0
  185.8340  177.7860  147.3470 C   0  0  0  0  0  3  0  0  0  0  0  0
  184.6730  178.0550  144.0170 N   0  0  0  0  0  0  0  0  0  0  0  0
  187.2920  176.3730  145.9810 C   0  0  0  0  0  3  0  0  0  0  0  0
  1  3  1  0  0  0  0
  2  7  1  0  0  0  0
  3  2  2  0  0  0  0
  5  1  1  0  0  0  0
  5  6  2  0  0  0  0
  6  4  1  0  0  0  0
  6  2  1  0  0  0  0
  7  8  1  0  0  0  0
  8 10  1  0  0  0  0
  9  7  2  0  0  0  0
  9 11  1  0  0  0  0
 12 18  2  0  0  0  0
 12 17  1  0  0  0  0
 13 17  1  0  0  0  0
 14 20  1  0  0  0  0
 15 11  1  0  0  0  0
 15 20  2  0  0  0  0
 16 13  1  0  0  0  0
 17 14  2  0  0  0  0
 18 15  1  0  0  0  0
 19 16  2  0  0  0  0
 19 12  1  0  0  0  0
 21  4  1  0  0  0  0
 22 21  1  0  0  0  0
 23 22  1  0  0  0  0
 25 24  1  6  0  0  0
 25 23  1  0  0  0  0
 26 25  1  0  0  0  0
 28 30  2  0  0  0  0
 30 27  1  0  0  0  0
 30 29  1  0  0  0  0
 30 26  1  0  0  0  0
 31  1  1  0  0  0  0
 32 31  1  0  0  0  0
 33 32  1  0  0  0  0
 33 34  1  0  0  0  0
 34 35  1  0  0  0  0
 35 43  1  0  0  0  0
 36 42  1  0  0  0  0
 37 40  1  0  0  0  0
 38 39  2  0  0  0  0
 39 40  1  0  0  0  0
 40 42  2  0  0  0  0
 41 37  2  0  0  0  0
 41 44  1  0  0  0  0
 43 38  1  0  0  0  0
 43 37  1  0  0  0  0
 44 36  2  0  0  0  0
M  END
>  <MODEL>
1

>  <REMARK>
 VINA RESULT:      -7.3      0.000      0.000
  Name = 
  15 active torsions:
  status: ('A' for Active; 'I' for Inactive)
    1  A    between atoms: C_3  and  C_16
    2  A    between atoms: C_8  and  C_12
    3  A    between atoms: C_8  and  C_24
    4  A    between atoms: N_9  and  C_24
    5  A    between atoms: C_10  and  C_21
    6  A    between atoms: C_10  and  N_23
    7  A    between atoms: C_11  and  C_25
    8  A    between atoms: C_11  and  N_38
    9  A    between atoms: C_12  and  C_22
   10  A    between atoms: N_13  and  P_39
   11  A    between atoms: N_13  and  C_42
   12  A    between atoms: C_21  and  C_33
   13  A    between atoms: C_22  and  C_36
   14  A    between atoms: C_33  and  C_42
   15  A    between atoms: C_36  and  N_40
                            x       y       z     vdW  Elec       q    Type
                         _______ _______ _______ _____ _____    ______ ____

>  <TORSDO>
F 15

$$$$
=
 OpenBabel11042415283D

 44 48  0  0  1  0  0  0  0  0999 V2000
  192.6980  173.3270  144.0400 N   0  0  0  0  0  0  0  0  0  0  0  0
  191.0360  173.6800  142.7480 C   0  0  0  0  0  0  0  0  0  0  0  0
  191.3720  173.3570  144.0120 N   0  0  0  0  0  0  0  0  0  0  0  0
  192.3350  174.2150  140.6670 N   0  0  0  0  0  2  0  0  0  0  0  0
  193.2450  173.6260  142.8710 N   0  0  0  0  0  0  0  0  0  0  0  0
  192.2100  173.8490  142.0440 C   0  0  0  0  0  0  0  0  0  0  0  0
  189.6530  173.8310  142.2680 C   0  0  0  0  0  0  0  0  0  0  0  0
  188.7780  172.6910  142.2970 N   0  0  0  0  0  2  0  0  0  0  0  0
  189.2720  174.9970  141.8300 N   0  0  0  0  0  0  0  0  0  0  0  0
  187.4870  172.7180  141.8920 O   0  0  0  0  0  1  0  0  0  0  0  0
  187.9500  175.3220  141.3140 C   0  0  0  0  0  2  0  0  0  0  0  0
  186.1700  177.0730  144.1450 C   0  0  0  0  0  0  0  0  0  0  0  0
  185.3820  179.3480  144.7910 S   0  0  0  0  0  0  0  0  0  0  0  0
  186.7000  178.7270  142.4430 C   0  0  0  0  0  3  0  0  0  0  0  0
  187.3320  176.3860  142.1490 C   0  0  0  0  0  0  0  0  0  0  0  0
  185.0620  178.1150  145.9080 C   0  0  0  0  0  3  0  0  0  0  0  0
  186.1490  178.3730  143.6710 C   0  0  0  0  0  0  0  0  0  0  0  0
  186.7590  176.0590  143.3910 C   0  0  0  0  0  3  0  0  0  0  0  0
  185.5650  176.9150  145.3940 C   0  0  0  0  0  3  0  0  0  0  0  0
  187.2970  177.7140  141.6770 C   0  0  0  0  0  3  0  0  0  0  0  0
  193.6300  174.4080  140.0330 C   0  0  0  0  0  2  0  0  0  0  0  0
  193.5050  174.2250  138.5330 C   0  0  0  0  0  2  0  0  0  0  0  0
  192.9260  172.8550  138.2370 C   0  0  0  0  0  2  0  0  0  0  0  0
  192.6450  172.9600  135.7680 C   0  0  0  0  0  1  0  0  0  0  0  0
  191.9200  172.9450  137.1020 C   0  0  2  0  0  3  0  0  0  0  0  0
  191.1400  174.1640  137.2370 N   0  0  0  0  0  2  0  0  0  0  0  0
  188.5870  174.1990  138.0420 O   0  0  0  0  0  1  0  0  0  0  0  0
  189.3240  172.0950  136.6770 O   0  0  0  0  0  1  0  0  0  0  0  0
  188.9720  174.5540  135.4760 O   0  0  0  0  0  0  0  0  0  0  0  0
  189.4660  173.7660  136.8900 P   0  0  0  0  0  0  0  0  0  0  0  0
  193.4690  173.0710  145.2440 C   0  0  0  0  0  2  0  0  0  0  0  0
  194.9170  173.4510  145.0110 C   0  0  0  0  0  2  0  0  0  0  0  0
  195.2600  174.6750  145.8340 C   0  0  0  0  0  2  0  0  0  0  0  0
  195.0140  175.9170  145.0060 C   0  0  0  0  0  2  0  0  0  0  0  0
  194.1940  176.9080  145.8080 C   0  0  0  0  0  2  0  0  0  0  0  0
  189.3680  175.3220  146.9740 C   0  0  0  0  0  3  0  0  0  0  0  0
  191.7690  176.3220  146.0260 C   0  0  0  0  0  0  0  0  0  0  0  0
  192.3310  177.3300  144.1950 C   0  0  0  0  0  3  0  0  0  0  0  0
  190.9570  177.0830  144.0950 C   0  0  0  0  0  3  0  0  0  0  0  0
  190.6330  176.4410  145.2750 C   0  0  0  0  0  0  0  0  0  0  0  0
  191.7670  175.7030  147.2760 C   0  0  0  0  0  3  0  0  0  0  0  0
  189.4060  175.9510  145.7150 C   0  0  0  0  0  3  0  0  0  0  0  0
  192.8050  176.8690  145.3750 N   0  0  0  0  0  0  0  0  0  0  0  0
  190.5420  175.1980  147.7480 C   0  0  0  0  0  3  0  0  0  0  0  0
  1 31  1  0  0  0  0
  2  3  2  0  0  0  0
  3  1  1  0  0  0  0
  4  6  1  0  0  0  0
  5  1  1  0  0  0  0
  6  2  1  0  0  0  0
  6  5  2  0  0  0  0
  7  8  1  0  0  0  0
  7  2  1  0  0  0  0
  9  7  2  0  0  0  0
 10  8  1  0  0  0  0
 11  9  1  0  0  0  0
 11 15  1  0  0  0  0
 12 19  1  0  0  0  0
 13 16  1  0  0  0  0
 14 17  2  0  0  0  0
 15 18  1  0  0  0  0
 17 12  1  0  0  0  0
 17 13  1  0  0  0  0
 18 12  2  0  0  0  0
 19 16  2  0  0  0  0
 20 15  2  0  0  0  0
 20 14  1  0  0  0  0
 21  4  1  0  0  0  0
 22 21  1  0  0  0  0
 23 22  1  0  0  0  0
 25 24  1  6  0  0  0
 25 26  1  0  0  0  0
 25 23  1  0  0  0  0
 28 30  1  0  0  0  0
 29 30  2  0  0  0  0
 30 26  1  0  0  0  0
 30 27  1  0  0  0  0
 32 31  1  0  0  0  0
 32 33  1  0  0  0  0
 34 35  1  0  0  0  0
 34 33  1  0  0  0  0
 36 44  1  0  0  0  0
 37 41  1  0  0  0  0
 38 43  1  0  0  0  0
 39 38  2  0  0  0  0
 39 40  1  0  0  0  0
 40 42  1  0  0  0  0
 40 37  2  0  0  0  0
 41 44  2  0  0  0  0
 42 36  2  0  0  0  0
 43 35  1  0  0  0  0
 43 37  1  0  0  0  0
M  END
>  <MODEL>
2

>  <REMARK>
 VINA RESULT:      -7.2      3.066      7.274
  Name = 
  15 active torsions:
  status: ('A' for Active; 'I' for Inactive)
    1  A    between atoms: C_3  and  C_16
    2  A    between atoms: C_8  and  C_12
    3  A    between atoms: C_8  and  C_24
    4  A    between atoms: N_9  and  C_24
    5  A    between atoms: C_10  and  C_21
    6  A    between atoms: C_10  and  N_23
    7  A    between atoms: C_11  and  C_25
    8  A    between atoms: C_11  and  N_38
    9  A    between atoms: C_12  and  C_22
   10  A    between atoms: N_13  and  P_39
   11  A    between atoms: N_13  and  C_42
   12  A    between atoms: C_21  and  C_33
   13  A    between atoms: C_22  and  C_36
   14  A    between atoms: C_33  and  C_42
   15  A    between atoms: C_36  and  N_40
                            x       y       z     vdW  Elec       q    Type
                         _______ _______ _______ _____ _____    ______ ____

>  <TORSDO>
F 15

$$$$
=
 OpenBabel11042415283D

 44 48  0  0  1  0  0  0  0  0999 V2000
  188.6590  175.6460  141.6790 N   0  0  0  0  0  0  0  0  0  0  0  0
  190.2150  175.5170  143.1350 C   0  0  0  0  0  0  0  0  0  0  0  0
  189.4920  176.3850  142.4000 N   0  0  0  0  0  0  0  0  0  0  0  0
  190.2380  173.0190  143.3820 N   0  0  0  0  0  2  0  0  0  0  0  0
  188.7870  174.3490  141.9120 N   0  0  0  0  0  0  0  0  0  0  0  0
  189.7670  174.2500  142.8260 C   0  0  0  0  0  0  0  0  0  0  0  0
  191.2640  175.9080  144.0910 C   0  0  0  0  0  0  0  0  0  0  0  0
  192.0150  177.1090  143.8460 N   0  0  0  0  0  2  0  0  0  0  0  0
  191.4750  175.1460  145.1260 N   0  0  0  0  0  0  0  0  0  0  0  0
  192.9930  177.5680  144.6620 O   0  0  0  0  0  1  0  0  0  0  0  0
  192.4700  175.3760  146.1630 C   0  0  0  0  0  2  0  0  0  0  0  0
  194.5890  172.3120  145.5500 C   0  0  0  0  0  0  0  0  0  0  0  0
  196.9810  171.6630  145.2940 S   0  0  0  0  0  0  0  0  0  0  0  0
  196.0680  174.2330  145.7410 C   0  0  0  0  0  3  0  0  0  0  0  0
  193.6480  174.4970  145.9330 C   0  0  0  0  0  0  0  0  0  0  0  0
  195.8610  170.3980  145.1780 C   0  0  0  0  0  3  0  0  0  0  0  0
  195.8550  172.8710  145.5490 C   0  0  0  0  0  0  0  0  0  0  0  0
  193.4660  173.1160  145.7450 C   0  0  0  0  0  3  0  0  0  0  0  0
  194.5780  170.9310  145.3440 C   0  0  0  0  0  3  0  0  0  0  0  0
  194.9440  175.0500  145.9370 C   0  0  0  0  0  3  0  0  0  0  0  0
  189.6620  171.7340  143.0140 C   0  0  0  0  0  2  0  0  0  0  0  0
  190.6600  170.9340  142.1990 C   0  0  0  0  0  2  0  0  0  0  0  0
  192.0430  171.0870  142.8020 C   0  0  0  0  0  2  0  0  0  0  0  0
  194.1830  170.5840  141.6380 C   0  0  0  0  0  1  0  0  0  0  0  0
  193.0260  171.5610  141.7440 C   0  0  2  0  0  3  0  0  0  0  0  0
  193.5380  172.8720  142.1060 N   0  0  0  0  0  2  0  0  0  0  0  0
  194.3210  173.5840  139.6470 O   0  0  0  0  0  0  0  0  0  0  0  0
  193.5470  175.5340  141.2080 O   0  0  0  0  0  1  0  0  0  0  0  0
  191.7490  173.7520  140.1120 O   0  0  0  0  0  1  0  0  0  0  0  0
  193.3160  173.9310  140.7240 P   0  0  0  0  0  0  0  0  0  0  0  0
  187.6580  176.2060  140.7880 C   0  0  0  0  0  2  0  0  0  0  0  0
  187.2630  177.5870  141.2700 C   0  0  0  0  0  2  0  0  0  0  0  0
  185.8700  177.9180  140.7800 C   0  0  0  0  0  2  0  0  0  0  0  0
  184.9680  178.1620  141.9700 C   0  0  0  0  0  2  0  0  0  0  0  0
  185.6660  179.0760  142.9580 C   0  0  0  0  0  2  0  0  0  0  0  0
  187.3420  176.4880  147.1600 C   0  0  0  0  0  3  0  0  0  0  0  0
  186.1270  177.9470  145.1450 C   0  0  0  0  0  0  0  0  0  0  0  0
  184.1900  178.8930  144.9670 C   0  0  0  0  0  3  0  0  0  0  0  0
  184.2230  178.3160  146.2410 C   0  0  0  0  0  3  0  0  0  0  0  0
  185.4680  177.7220  146.3210 C   0  0  0  0  0  0  0  0  0  0  0  0
  187.4140  177.4590  144.9140 C   0  0  0  0  0  3  0  0  0  0  0  0
  186.0430  176.9930  147.3580 C   0  0  0  0  0  3  0  0  0  0  0  0
  185.3550  178.6660  144.3190 N   0  0  0  0  0  0  0  0  0  0  0  0
  188.0220  176.7190  145.9440 C   0  0  0  0  0  3  0  0  0  0  0  0
  1  5  1  0  0  0  0
  1  3  1  0  0  0  0
  2  7  1  0  0  0  0
  3  2  2  0  0  0  0
  5  6  2  0  0  0  0
  6  2  1  0  0  0  0
  6  4  1  0  0  0  0
  7  9  2  0  0  0  0
  8  7  1  0  0  0  0
  8 10  1  0  0  0  0
  9 11  1  0  0  0  0
 12 18  1  0  0  0  0
 13 17  1  0  0  0  0
 14 20  2  0  0  0  0
 15 20  1  0  0  0  0
 15 11  1  0  0  0  0
 16 13  1  0  0  0  0
 16 19  2  0  0  0  0
 17 12  2  0  0  0  0
 17 14  1  0  0  0  0
 18 15  2  0  0  0  0
 19 12  1  0  0  0  0
 21  4  1  0  0  0  0
 22 23  1  0  0  0  0
 22 21  1  0  0  0  0
 25 24  1  1  0  0  0
 25 26  1  0  0  0  0
 25 23  1  0  0  0  0
 27 30  2  0  0  0  0
 29 30  1  0  0  0  0
 30 28  1  0  0  0  0
 30 26  1  0  0  0  0
 31 32  1  0  0  0  0
 31  1  1  0  0  0  0
 33 32  1  0  0  0  0
 33 34  1  0  0  0  0
 34 35  1  0  0  0  0
 35 43  1  0  0  0  0
 36 42  1  0  0  0  0
 37 40  1  0  0  0  0
 38 39  2  0  0  0  0
 39 40  1  0  0  0  0
 40 42  2  0  0  0  0
 41 37  2  0  0  0  0
 41 44  1  0  0  0  0
 43 38  1  0  0  0  0
 43 37  1  0  0  0  0
 44 36  2  0  0  0  0
M  END
>  <MODEL>
3

>  <REMARK>
 VINA RESULT:      -7.1      1.900      2.045
  Name = 
  15 active torsions:
  status: ('A' for Active; 'I' for Inactive)
    1  A    between atoms: C_3  and  C_16
    2  A    between atoms: C_8  and  C_12
    3  A    between atoms: C_8  and  C_24
    4  A    between atoms: N_9  and  C_24
    5  A    between atoms: C_10  and  C_21
    6  A    between atoms: C_10  and  N_23
    7  A    between atoms: C_11  and  C_25
    8  A    between atoms: C_11  and  N_38
    9  A    between atoms: C_12  and  C_22
   10  A    between atoms: N_13  and  P_39
   11  A    between atoms: N_13  and  C_42
   12  A    between atoms: C_21  and  C_33
   13  A    between atoms: C_22  and  C_36
   14  A    between atoms: C_33  and  C_42
   15  A    between atoms: C_36  and  N_40
                            x       y       z     vdW  Elec       q    Type
                         _______ _______ _______ _____ _____    ______ ____

>  <TORSDO>
F 15

$$$$
=
 OpenBabel11042415283D

 44 48  0  0  1  0  0  0  0  0999 V2000
  188.9140  176.9440  141.9380 N   0  0  0  0  0  0  0  0  0  0  0  0
  189.8830  175.0610  142.2040 C   0  0  0  0  0  0  0  0  0  0  0  0
  188.8400  175.6630  141.6020 N   0  0  0  0  0  0  0  0  0  0  0  0
  191.7630  175.8550  143.6660 N   0  0  0  0  0  2  0  0  0  0  0  0
  189.9530  177.2140  142.7130 N   0  0  0  0  0  0  0  0  0  0  0  0
  190.5740  176.0360  142.8930 C   0  0  0  0  0  0  0  0  0  0  0  0
  190.1920  173.6260  142.0970 C   0  0  0  0  0  0  0  0  0  0  0  0
  190.2670  173.0260  140.7930 N   0  0  0  0  0  2  0  0  0  0  0  0
  190.3840  172.9500  143.1930 N   0  0  0  0  0  0  0  0  0  0  0  0
  190.5550  171.7220  140.5760 O   0  0  0  0  0  1  0  0  0  0  0  0
  190.6910  171.5290  143.2740 C   0  0  0  0  0  2  0  0  0  0  0  0
  193.8380  169.9130  144.5920 C   0  0  0  0  0  0  0  0  0  0  0  0
  195.8570  170.4790  145.9380 S   0  0  0  0  0  0  0  0  0  0  0  0
  193.8250  172.2400  145.2990 C   0  0  0  0  0  3  0  0  0  0  0  0
  192.0000  171.3340  143.9520 C   0  0  0  0  0  0  0  0  0  0  0  0
  195.7630  168.8780  145.3930 C   0  0  0  0  0  3  0  0  0  0  0  0
  194.4170  170.9810  145.2550 C   0  0  0  0  0  0  0  0  0  0  0  0
  192.6190  170.0720  143.9320 C   0  0  0  0  0  3  0  0  0  0  0  0
  194.5790  168.7320  144.6610 C   0  0  0  0  0  3  0  0  0  0  0  0
  192.5990  172.4110  144.6370 C   0  0  0  0  0  3  0  0  0  0  0  0
  192.4370  176.9670  144.3200 C   0  0  0  0  0  2  0  0  0  0  0  0
  193.1550  176.4790  145.5630 C   0  0  0  0  0  2  0  0  0  0  0  0
  194.6410  176.7470  145.4270 C   0  0  0  0  0  2  0  0  0  0  0  0
  196.2110  174.8220  145.3200 C   0  0  0  0  0  1  0  0  0  0  0  0
  195.2800  175.7110  144.5180 C   0  0  2  0  0  3  0  0  0  0  0  0
  196.0380  176.3800  143.4730 N   0  0  0  0  0  2  0  0  0  0  0  0
  194.8470  176.7480  141.1040 O   0  0  0  0  0  1  0  0  0  0  0  0
  194.4800  174.4100  142.2140 O   0  0  0  0  0  1  0  0  0  0  0  0
  196.9010  175.1240  141.1000 O   0  0  0  0  0  0  0  0  0  0  0  0
  195.5440  175.6930  141.9350 P   0  0  0  0  0  0  0  0  0  0  0  0
  187.9980  177.9570  141.4430 C   0  0  0  0  0  2  0  0  0  0  0  0
  186.7850  177.2880  140.8260 C   0  0  0  0  0  2  0  0  0  0  0  0
  185.5790  178.1910  140.9710 C   0  0  0  0  0  2  0  0  0  0  0  0
  184.9160  177.9270  142.3050 C   0  0  0  0  0  2  0  0  0  0  0  0
  185.2060  179.0740  143.2530 C   0  0  0  0  0  2  0  0  0  0  0  0
  187.4580  176.3770  147.1020 C   0  0  0  0  0  3  0  0  0  0  0  0
  185.9700  177.8850  145.3200 C   0  0  0  0  0  0  0  0  0  0  0  0
  184.0220  178.8200  145.4410 C   0  0  0  0  0  3  0  0  0  0  0  0
  184.2340  178.2050  146.6790 C   0  0  0  0  0  3  0  0  0  0  0  0
  185.4810  177.6200  146.5680 C   0  0  0  0  0  0  0  0  0  0  0  0
  187.2150  177.4140  144.8990 C   0  0  0  0  0  3  0  0  0  0  0  0
  186.1970  176.8650  147.4940 C   0  0  0  0  0  3  0  0  0  0  0  0
  185.0880  178.6220  144.6310 N   0  0  0  0  0  0  0  0  0  0  0  0
  187.9620  176.6490  145.8120 C   0  0  0  0  0  3  0  0  0  0  0  0
  1  5  1  0  0  0  0
  2  6  1  0  0  0  0
  3  1  1  0  0  0  0
  3  2  2  0  0  0  0
  4 21  1  0  0  0  0
  5  6  2  0  0  0  0
  6  4  1  0  0  0  0
  7  2  1  0  0  0  0
  7  9  2  0  0  0  0
  8  7  1  0  0  0  0
  9 11  1  0  0  0  0
 10  8  1  0  0  0  0
 11 15  1  0  0  0  0
 12 19  1  0  0  0  0
 12 17  1  0  0  0  0
 15 20  2  0  0  0  0
 16 13  1  0  0  0  0
 17 14  2  0  0  0  0
 17 13  1  0  0  0  0
 18 15  1  0  0  0  0
 18 12  2  0  0  0  0
 19 16  2  0  0  0  0
 20 14  1  0  0  0  0
 21 22  1  0  0  0  0
 23 22  1  0  0  0  0
 25 24  1  1  0  0  0
 25 23  1  0  0  0  0
 26 25  1  0  0  0  0
 27 30  1  0  0  0  0
 29 30  2  0  0  0  0
 30 28  1  0  0  0  0
 30 26  1  0  0  0  0
 31  1  1  0  0  0  0
 32 33  1  0  0  0  0
 32 31  1  0  0  0  0
 33 34  1  0  0  0  0
 34 35  1  0  0  0  0
 35 43  1  0  0  0  0
 36 42  1  0  0  0  0
 37 40  1  0  0  0  0
 38 39  2  0  0  0  0
 40 39  1  0  0  0  0
 40 42  2  0  0  0  0
 41 37  2  0  0  0  0
 41 44  1  0  0  0  0
 43 37  1  0  0  0  0
 43 38  1  0  0  0  0
 44 36  2  0  0  0  0
M  END
>  <MODEL>
4

>  <REMARK>
 VINA RESULT:      -7.1      2.528      4.327
  Name = 
  15 active torsions:
  status: ('A' for Active; 'I' for Inactive)
    1  A    between atoms: C_3  and  C_16
    2  A    between atoms: C_8  and  C_12
    3  A    between atoms: C_8  and  C_24
    4  A    between atoms: N_9  and  C_24
    5  A    between atoms: C_10  and  C_21
    6  A    between atoms: C_10  and  N_23
    7  A    between atoms: C_11  and  C_25
    8  A    between atoms: C_11  and  N_38
    9  A    between atoms: C_12  and  C_22
   10  A    between atoms: N_13  and  P_39
   11  A    between atoms: N_13  and  C_42
   12  A    between atoms: C_21  and  C_33
   13  A    between atoms: C_22  and  C_36
   14  A    between atoms: C_33  and  C_42
   15  A    between atoms: C_36  and  N_40
                            x       y       z     vdW  Elec       q    Type
                         _______ _______ _______ _____ _____    ______ ____

>  <TORSDO>
F 15

$$$$
=
 OpenBabel11042415283D

 44 48  0  0  1  0  0  0  0  0999 V2000
  189.2970  174.9900  145.2200 N   0  0  0  0  0  0  0  0  0  0  0  0
  189.6130  174.3410  143.2110 C   0  0  0  0  0  0  0  0  0  0  0  0
  189.6800  173.9460  144.4970 N   0  0  0  0  0  0  0  0  0  0  0  0
  188.9300  176.4650  142.0600 N   0  0  0  0  0  2  0  0  0  0  0  0
  188.9700  176.0380  144.4790 N   0  0  0  0  0  0  0  0  0  0  0  0
  189.1670  175.6460  143.2080 C   0  0  0  0  0  0  0  0  0  0  0  0
  189.9480  173.4880  142.0590 C   0  0  0  0  0  0  0  0  0  0  0  0
  188.9150  173.1550  141.1160 N   0  0  0  0  0  2  0  0  0  0  0  0
  191.1730  173.0630  141.9380 N   0  0  0  0  0  0  0  0  0  0  0  0
  189.1130  172.3900  140.0180 O   0  0  0  0  0  1  0  0  0  0  0  0
  191.6760  172.2100  140.8710 C   0  0  0  0  0  2  0  0  0  0  0  0
  195.3820  172.3360  141.5780 C   0  0  0  0  0  0  0  0  0  0  0  0
  197.5140  173.0170  140.4830 S   0  0  0  0  0  0  0  0  0  0  0  0
  195.0080  173.1930  139.3330 C   0  0  0  0  0  3  0  0  0  0  0  0
  193.1390  172.4230  140.7040 C   0  0  0  0  0  0  0  0  0  0  0  0
  197.6600  172.4040  142.0560 C   0  0  0  0  0  3  0  0  0  0  0  0
  195.8530  172.8650  140.3890 C   0  0  0  0  0  0  0  0  0  0  0  0
  194.0170  172.1090  141.7550 C   0  0  0  0  0  3  0  0  0  0  0  0
  196.3810  172.0750  142.5180 C   0  0  0  0  0  3  0  0  0  0  0  0
  193.6330  172.9670  139.5010 C   0  0  0  0  0  3  0  0  0  0  0  0
  188.4160  177.8220  142.1710 C   0  0  0  0  0  2  0  0  0  0  0  0
  186.9420  177.8490  141.8150 C   0  0  0  0  0  2  0  0  0  0  0  0
  186.2600  178.9720  142.5720 C   0  0  0  0  0  2  0  0  0  0  0  0
  184.0450  178.6660  143.6610 C   0  0  0  0  0  1  0  0  0  0  0  0
  185.5370  178.4200  143.7900 C   0  0  2  0  0  3  0  0  0  0  0  0
  186.0300  179.0800  144.9890 N   0  0  0  0  0  2  0  0  0  0  0  0
  185.7150  176.5440  145.7870 O   0  0  0  0  0  0  0  0  0  0  0  0
  184.4880  178.3520  147.2220 O   0  0  0  0  0  1  0  0  0  0  0  0
  187.2270  178.0360  147.3190 O   0  0  0  0  0  1  0  0  0  0  0  0
  185.8620  177.9510  146.3230 P   0  0  0  0  0  0  0  0  0  0  0  0
  189.1730  174.9610  146.6660 C   0  0  0  0  0  2  0  0  0  0  0  0
  190.0880  176.0030  147.2770 C   0  0  0  0  0  2  0  0  0  0  0  0
  191.3610  175.3420  147.7600 C   0  0  0  0  0  2  0  0  0  0  0  0
  192.5040  175.7390  146.8520 C   0  0  0  0  0  2  0  0  0  0  0  0
  193.0050  174.5200  146.1030 C   0  0  0  0  0  2  0  0  0  0  0  0
  194.8020  176.2110  141.5120 C   0  0  0  0  0  3  0  0  0  0  0  0
  194.2300  175.3100  144.0660 C   0  0  0  0  0  0  0  0  0  0  0  0
  195.4710  174.7320  145.7420 C   0  0  0  0  0  3  0  0  0  0  0  0
  196.3500  175.1130  144.7230 C   0  0  0  0  0  3  0  0  0  0  0  0
  195.5280  175.4730  143.6720 C   0  0  0  0  0  0  0  0  0  0  0  0
  193.1590  175.5830  143.2140 C   0  0  0  0  0  3  0  0  0  0  0  0
  195.8580  175.9240  142.3960 C   0  0  0  0  0  3  0  0  0  0  0  0
  194.1890  174.8650  145.3290 N   0  0  0  0  0  0  0  0  0  0  0  0
  193.4610  176.0400  141.9190 C   0  0  0  0  0  3  0  0  0  0  0  0
  1 31  1  0  0  0  0
  2  3  2  0  0  0  0
  3  1  1  0  0  0  0
  4 21  1  0  0  0  0
  4  6  1  0  0  0  0
  5  1  1  0  0  0  0
  6  2  1  0  0  0  0
  6  5  2  0  0  0  0
  7  2  1  0  0  0  0
  8  7  1  0  0  0  0
  9  7  2  0  0  0  0
 10  8  1  0  0  0  0
 11  9  1  0  0  0  0
 12 18  1  0  0  0  0
 12 19  1  0  0  0  0
 13 16  1  0  0  0  0
 14 20  2  0  0  0  0
 14 17  1  0  0  0  0
 15 11  1  0  0  0  0
 15 18  2  0  0  0  0
 16 19  2  0  0  0  0
 17 13  1  0  0  0  0
 17 12  2  0  0  0  0
 20 15  1  0  0  0  0
 22 21  1  0  0  0  0
 22 23  1  0  0  0  0
 23 25  1  0  0  0  0
 25 24  1  6  0  0  0
 25 26  1  0  0  0  0
 26 30  1  0  0  0  0
 27 30  2  0  0  0  0
 30 28  1  0  0  0  0
 30 29  1  0  0  0  0
 31 32  1  0  0  0  0
 32 33  1  0  0  0  0
 34 33  1  0  0  0  0
 35 34  1  0  0  0  0
 36 44  2  0  0  0  0
 36 42  1  0  0  0  0
 37 43  1  0  0  0  0
 39 38  2  0  0  0  0
 40 37  1  0  0  0  0
 40 39  1  0  0  0  0
 41 37  2  0  0  0  0
 42 40  2  0  0  0  0
 43 38  1  0  0  0  0
 43 35  1  0  0  0  0
 44 41  1  0  0  0  0
M  END
>  <MODEL>
5

>  <REMARK>
 VINA RESULT:      -7.0      3.149      7.860
  Name = 
  15 active torsions:
  status: ('A' for Active; 'I' for Inactive)
    1  A    between atoms: C_3  and  C_16
    2  A    between atoms: C_8  and  C_12
    3  A    between atoms: C_8  and  C_24
    4  A    between atoms: N_9  and  C_24
    5  A    between atoms: C_10  and  C_21
    6  A    between atoms: C_10  and  N_23
    7  A    between atoms: C_11  and  C_25
    8  A    between atoms: C_11  and  N_38
    9  A    between atoms: C_12  and  C_22
   10  A    between atoms: N_13  and  P_39
   11  A    between atoms: N_13  and  C_42
   12  A    between atoms: C_21  and  C_33
   13  A    between atoms: C_22  and  C_36
   14  A    between atoms: C_33  and  C_42
   15  A    between atoms: C_36  and  N_40
                            x       y       z     vdW  Elec       q    Type
                         _______ _______ _______ _____ _____    ______ ____

>  <TORSDO>
F 15

$$$$
=
 OpenBabel11042415283D

 44 48  0  0  1  0  0  0  0  0999 V2000
  189.8230  172.6470  140.7690 N   0  0  0  0  0  0  0  0  0  0  0  0
  188.9540  174.5200  141.3100 C   0  0  0  0  0  0  0  0  0  0  0  0
  189.2430  173.7260  140.2610 N   0  0  0  0  0  0  0  0  0  0  0  0
  189.2530  174.3230  143.7950 N   0  0  0  0  0  2  0  0  0  0  0  0
  189.9150  172.6840  142.0900 N   0  0  0  0  0  0  0  0  0  0  0  0
  189.3740  173.8610  142.4480 C   0  0  0  0  0  0  0  0  0  0  0  0
  188.2930  175.8310  141.2060 C   0  0  0  0  0  0  0  0  0  0  0  0
  187.3280  176.0420  140.1610 N   0  0  0  0  0  2  0  0  0  0  0  0
  188.6100  176.7550  142.0660 N   0  0  0  0  0  0  0  0  0  0  0  0
  186.6530  177.2000  139.9790 O   0  0  0  0  0  1  0  0  0  0  0  0
  188.0640  178.1040  142.1070 C   0  0  0  0  0  2  0  0  0  0  0  0
  186.7350  177.7710  145.6240 C   0  0  0  0  0  0  0  0  0  0  0  0
  184.8200  178.5350  147.0240 S   0  0  0  0  0  0  0  0  0  0  0  0
  185.2130  179.1930  144.3690 C   0  0  0  0  0  3  0  0  0  0  0  0
  187.2110  178.2660  143.3150 C   0  0  0  0  0  0  0  0  0  0  0  0
  185.9450  177.5350  147.8010 C   0  0  0  0  0  3  0  0  0  0  0  0
  185.5910  178.5450  145.5410 C   0  0  0  0  0  0  0  0  0  0  0  0
  187.5620  177.6170  144.5120 C   0  0  0  0  0  3  0  0  0  0  0  0
  186.9440  177.2000  146.8810 C   0  0  0  0  0  3  0  0  0  0  0  0
  186.0390  179.0460  143.2440 C   0  0  0  0  0  3  0  0  0  0  0  0
  189.6940  173.5240  144.9290 C   0  0  0  0  0  2  0  0  0  0  0  0
  189.8280  174.4000  146.1590 C   0  0  0  0  0  2  0  0  0  0  0  0
  191.2960  174.6430  146.4490 C   0  0  0  0  0  2  0  0  0  0  0  0
  191.1550  176.6460  147.9170 C   0  0  0  0  0  1  0  0  0  0  0  0
  191.5700  176.1350  146.5500 C   0  0  2  0  0  3  0  0  0  0  0  0
  190.8160  176.8400  145.5260 N   0  0  0  0  0  2  0  0  0  0  0  0
  191.8280  176.2360  143.1220 O   0  0  0  0  0  0  0  0  0  0  0  0
  193.5090  177.2590  144.8430 O   0  0  0  0  0  1  0  0  0  0  0  0
  191.5610  178.7910  143.6310 O   0  0  0  0  0  1  0  0  0  0  0  0
  191.9310  177.2550  144.2350 P   0  0  0  0  0  0  0  0  0  0  0  0
  190.2400  171.5090  139.9690 C   0  0  0  0  0  2  0  0  0  0  0  0
  190.8150  170.4360  140.8710 C   0  0  0  0  0  2  0  0  0  0  0  0
  192.3150  170.3580  140.6750 C   0  0  0  0  0  2  0  0  0  0  0  0
  192.9290  169.6040  141.8340 C   0  0  0  0  0  2  0  0  0  0  0  0
  192.2490  170.0140  143.1250 C   0  0  0  0  0  2  0  0  0  0  0  0
  195.1370  173.8530  145.1480 C   0  0  0  0  0  3  0  0  0  0  0  0
  193.7740  171.5800  144.3480 C   0  0  0  0  0  0  0  0  0  0  0  0
  193.8720  169.5060  144.9590 C   0  0  0  0  0  3  0  0  0  0  0  0
  194.8080  170.1860  145.7460 C   0  0  0  0  0  3  0  0  0  0  0  0
  194.7200  171.5010  145.3320 C   0  0  0  0  0  0  0  0  0  0  0  0
  193.4630  172.7850  143.7170 C   0  0  0  0  0  3  0  0  0  0  0  0
  195.4280  172.6210  145.7620 C   0  0  0  0  0  3  0  0  0  0  0  0
  193.2490  170.3680  144.1220 N   0  0  0  0  0  0  0  0  0  0  0  0
  194.1610  173.9330  144.1310 C   0  0  0  0  0  3  0  0  0  0  0  0
  1  5  1  0  0  0  0
  2  6  1  0  0  0  0
  3  1  1  0  0  0  0
  3  2  2  0  0  0  0
  4 21  1  0  0  0  0
  5  6  2  0  0  0  0
  6  4  1  0  0  0  0
  7  2  1  0  0  0  0
  7  9  2  0  0  0  0
  8  7  1  0  0  0  0
  9 11  1  0  0  0  0
 10  8  1  0  0  0  0
 11 15  1  0  0  0  0
 12 19  1  0  0  0  0
 13 16  1  0  0  0  0
 14 17  2  0  0  0  0
 15 18  1  0  0  0  0
 17 12  1  0  0  0  0
 17 13  1  0  0  0  0
 18 12  2  0  0  0  0
 19 16  2  0  0  0  0
 20 15  2  0  0  0  0
 20 14  1  0  0  0  0
 21 22  1  0  0  0  0
 22 23  1  0  0  0  0
 23 25  1  0  0  0  0
 25 24  1  1  0  0  0
 26 25  1  0  0  0  0
 27 30  2  0  0  0  0
 29 30  1  0  0  0  0
 30 28  1  0  0  0  0
 30 26  1  0  0  0  0
 31  1  1  0  0  0  0
 31 32  1  0  0  0  0
 33 32  1  0  0  0  0
 33 34  1  0  0  0  0
 34 35  1  0  0  0  0
 35 43  1  0  0  0  0
 36 42  1  0  0  0  0
 37 40  1  0  0  0  0
 38 39  2  0  0  0  0
 40 39  1  0  0  0  0
 40 42  2  0  0  0  0
 41 44  1  0  0  0  0
 41 37  2  0  0  0  0
 43 37  1  0  0  0  0
 43 38  1  0  0  0  0
 44 36  2  0  0  0  0
M  END
>  <MODEL>
6

>  <REMARK>
 VINA RESULT:      -7.0      3.323      8.790
  Name = 
  15 active torsions:
  status: ('A' for Active; 'I' for Inactive)
    1  A    between atoms: C_3  and  C_16
    2  A    between atoms: C_8  and  C_12
    3  A    between atoms: C_8  and  C_24
    4  A    between atoms: N_9  and  C_24
    5  A    between atoms: C_10  and  C_21
    6  A    between atoms: C_10  and  N_23
    7  A    between atoms: C_11  and  C_25
    8  A    between atoms: C_11  and  N_38
    9  A    between atoms: C_12  and  C_22
   10  A    between atoms: N_13  and  P_39
   11  A    between atoms: N_13  and  C_42
   12  A    between atoms: C_21  and  C_33
   13  A    between atoms: C_22  and  C_36
   14  A    between atoms: C_33  and  C_42
   15  A    between atoms: C_36  and  N_40
                            x       y       z     vdW  Elec       q    Type
                         _______ _______ _______ _____ _____    ______ ____

>  <TORSDO>
F 15

$$$$
=
 OpenBabel11042415283D

 44 48  0  0  1  0  0  0  0  0999 V2000
  189.2870  172.7940  141.7200 N   0  0  0  0  0  0  0  0  0  0  0  0
  188.5010  174.6530  141.0260 C   0  0  0  0  0  0  0  0  0  0  0  0
  188.8660  173.9810  142.1350 N   0  0  0  0  0  0  0  0  0  0  0  0
  188.5090  174.1240  138.5720 N   0  0  0  0  0  2  0  0  0  0  0  0
  189.2310  172.6580  140.4040 N   0  0  0  0  0  0  0  0  0  0  0  0
  188.7340  173.8210  139.9500 C   0  0  0  0  0  0  0  0  0  0  0  0
  187.9730  176.0270  141.0200 C   0  0  0  0  0  0  0  0  0  0  0  0
  187.0510  176.4140  139.9880 N   0  0  0  0  0  2  0  0  0  0  0  0
  188.3660  176.8450  141.9540 N   0  0  0  0  0  0  0  0  0  0  0  0
  186.4960  177.6440  139.8930 O   0  0  0  0  0  1  0  0  0  0  0  0
  187.9530  178.2340  142.0970 C   0  0  0  0  0  2  0  0  0  0  0  0
  186.6910  177.8880  145.6380 C   0  0  0  0  0  0  0  0  0  0  0  0
  184.7980  178.6390  147.0740 S   0  0  0  0  0  0  0  0  0  0  0  0
  185.1380  179.3030  144.4130 C   0  0  0  0  0  3  0  0  0  0  0  0
  187.1220  178.3890  143.3210 C   0  0  0  0  0  0  0  0  0  0  0  0
  185.9420  177.6440  147.8290 C   0  0  0  0  0  3  0  0  0  0  0  0
  185.5410  178.6550  145.5770 C   0  0  0  0  0  0  0  0  0  0  0  0
  187.4980  177.7400  144.5100 C   0  0  0  0  0  3  0  0  0  0  0  0
  186.9270  177.3170  146.8900 C   0  0  0  0  0  3  0  0  0  0  0  0
  185.9440  179.1620  143.2730 C   0  0  0  0  0  3  0  0  0  0  0  0
  188.8320  173.1840  137.5100 C   0  0  0  0  0  2  0  0  0  0  0  0
  189.9720  173.7230  136.6690 C   0  0  0  0  0  2  0  0  0  0  0  0
  191.2870  173.1720  137.1880 C   0  0  0  0  0  2  0  0  0  0  0  0
  192.3180  175.2900  136.3910 C   0  0  0  0  0  1  0  0  0  0  0  0
  192.2270  174.3110  137.5470 C   0  0  2  0  0  3  0  0  0  0  0  0
  193.5500  173.7790  137.8300 N   0  0  0  0  0  2  0  0  0  0  0  0
  193.7940  172.1100  139.9090 O   0  0  0  0  0  0  0  0  0  0  0  0
  192.3040  174.2200  140.3080 O   0  0  0  0  0  1  0  0  0  0  0  0
  195.0520  174.3960  140.1360 O   0  0  0  0  0  1  0  0  0  0  0  0
  193.6830  173.5800  139.5690 P   0  0  0  0  0  0  0  0  0  0  0  0
  189.8270  171.7800  142.6090 C   0  0  0  0  0  2  0  0  0  0  0  0
  191.3380  171.7550  142.4930 C   0  0  0  0  0  2  0  0  0  0  0  0
  191.9270  171.0100  143.6720 C   0  0  0  0  0  2  0  0  0  0  0  0
  193.0780  171.8090  144.2420 C   0  0  0  0  0  2  0  0  0  0  0  0
  192.9820  173.2460  143.7710 C   0  0  0  0  0  2  0  0  0  0  0  0
  189.8260  175.4730  147.2700 C   0  0  0  0  0  3  0  0  0  0  0  0
  191.7980  174.4790  145.6010 C   0  0  0  0  0  0  0  0  0  0  0  0
  193.9270  174.8370  145.4530 C   0  0  0  0  0  3  0  0  0  0  0  0
  193.4750  175.6310  146.5120 C   0  0  0  0  0  3  0  0  0  0  0  0
  192.1180  175.3800  146.5790 C   0  0  0  0  0  0  0  0  0  0  0  0
  190.4910  174.0330  145.4070 C   0  0  0  0  0  3  0  0  0  0  0  0
  191.1550  175.9040  147.4380 C   0  0  0  0  0  3  0  0  0  0  0  0
  192.8990  174.1400  144.9170 N   0  0  0  0  0  0  0  0  0  0  0  0
  189.4970  174.5440  146.2600 C   0  0  0  0  0  3  0  0  0  0  0  0
  1  3  1  0  0  0  0
  1 31  1  0  0  0  0
  2  3  2  0  0  0  0
  4  6  1  0  0  0  0
  5  1  1  0  0  0  0
  6  5  2  0  0  0  0
  6  2  1  0  0  0  0
  7  2  1  0  0  0  0
  7  9  2  0  0  0  0
  8  7  1  0  0  0  0
  9 11  1  0  0  0  0
 10  8  1  0  0  0  0
 11 15  1  0  0  0  0
 12 19  1  0  0  0  0
 13 16  1  0  0  0  0
 14 17  2  0  0  0  0
 15 18  1  0  0  0  0
 17 12  1  0  0  0  0
 17 13  1  0  0  0  0
 18 12  2  0  0  0  0
 19 16  2  0  0  0  0
 20 15  2  0  0  0  0
 20 14  1  0  0  0  0
 21  4  1  0  0  0  0
 22 23  1  0  0  0  0
 22 21  1  0  0  0  0
 23 25  1  0  0  0  0
 25 24  1  6  0  0  0
 25 26  1  0  0  0  0
 26 30  1  0  0  0  0
 30 27  2  0  0  0  0
 30 29  1  0  0  0  0
 30 28  1  0  0  0  0
 32 31  1  0  0  0  0
 32 33  1  0  0  0  0
 33 34  1  0  0  0  0
 35 34  1  0  0  0  0
 35 43  1  0  0  0  0
 36 42  1  0  0  0  0
 37 40  1  0  0  0  0
 38 39  2  0  0  0  0
 39 40  1  0  0  0  0
 40 42  2  0  0  0  0
 41 37  2  0  0  0  0
 41 44  1  0  0  0  0
 43 38  1  0  0  0  0
 43 37  1  0  0  0  0
 44 36  2  0  0  0  0
M  END
>  <MODEL>
7

>  <REMARK>
 VINA RESULT:      -6.9      3.489      7.611
  Name = 
  15 active torsions:
  status: ('A' for Active; 'I' for Inactive)
    1  A    between atoms: C_3  and  C_16
    2  A    between atoms: C_8  and  C_12
    3  A    between atoms: C_8  and  C_24
    4  A    between atoms: N_9  and  C_24
    5  A    between atoms: C_10  and  C_21
    6  A    between atoms: C_10  and  N_23
    7  A    between atoms: C_11  and  C_25
    8  A    between atoms: C_11  and  N_38
    9  A    between atoms: C_12  and  C_22
   10  A    between atoms: N_13  and  P_39
   11  A    between atoms: N_13  and  C_42
   12  A    between atoms: C_21  and  C_33
   13  A    between atoms: C_22  and  C_36
   14  A    between atoms: C_33  and  C_42
   15  A    between atoms: C_36  and  N_40
                            x       y       z     vdW  Elec       q    Type
                         _______ _______ _______ _____ _____    ______ ____

>  <TORSDO>
F 15

$$$$
=
 OpenBabel11042415283D

 44 48  0  0  1  0  0  0  0  0999 V2000
  190.1240  176.6780  143.9890 N   0  0  0  0  0  0  0  0  0  0  0  0
  190.8420  174.6780  143.7800 C   0  0  0  0  0  0  0  0  0  0  0  0
  189.9770  175.5740  143.2670 N   0  0  0  0  0  0  0  0  0  0  0  0
  192.5280  174.7310  145.6390 N   0  0  0  0  0  2  0  0  0  0  0  0
  191.0450  176.5570  144.9330 N   0  0  0  0  0  0  0  0  0  0  0  0
  191.5060  175.2990  144.8170 C   0  0  0  0  0  0  0  0  0  0  0  0
  191.0170  173.3070  143.2750 C   0  0  0  0  0  0  0  0  0  0  0  0
  189.8610  172.4650  143.1320 N   0  0  0  0  0  2  0  0  0  0  0  0
  192.2190  172.9050  142.9770 N   0  0  0  0  0  0  0  0  0  0  0  0
  189.9030  171.1950  142.6670 O   0  0  0  0  0  1  0  0  0  0  0  0
  192.5760  171.5860  142.4730 C   0  0  0  0  0  2  0  0  0  0  0  0
  195.1490  170.5850  145.0460 C   0  0  0  0  0  0  0  0  0  0  0  0
  195.6520  168.7210  146.6210 S   0  0  0  0  0  0  0  0  0  0  0  0
  193.4700  168.8300  144.9290 C   0  0  0  0  0  3  0  0  0  0  0  0
  193.2950  170.8220  143.5260 C   0  0  0  0  0  0  0  0  0  0  0  0
  196.7620  170.0000  146.6200 C   0  0  0  0  0  3  0  0  0  0  0  0
  194.6420  169.3650  145.4560 C   0  0  0  0  0  0  0  0  0  0  0  0
  194.4860  171.3320  144.0720 C   0  0  0  0  0  3  0  0  0  0  0  0
  196.3340  170.9520  145.6880 C   0  0  0  0  0  3  0  0  0  0  0  0
  192.7940  169.5740  143.9490 C   0  0  0  0  0  3  0  0  0  0  0  0
  193.1950  175.4940  146.6830 C   0  0  0  0  0  2  0  0  0  0  0  0
  194.6080  175.8380  146.2510 C   0  0  0  0  0  2  0  0  0  0  0  0
  195.3370  174.5700  145.8520 C   0  0  0  0  0  2  0  0  0  0  0  0
  197.4450  174.5470  144.5320 C   0  0  0  0  0  1  0  0  0  0  0  0
  195.9400  174.7270  144.4660 C   0  0  2  0  0  3  0  0  0  0  0  0
  195.6380  176.0520  143.9500 N   0  0  0  0  0  2  0  0  0  0  0  0
  195.1060  174.4040  141.9090 O   0  0  0  0  0  1  0  0  0  0  0  0
  196.0340  176.7600  141.2600 O   0  0  0  0  0  0  0  0  0  0  0  0
  193.4600  176.4210  142.1960 O   0  0  0  0  0  1  0  0  0  0  0  0
  195.0540  175.8630  142.3060 P   0  0  0  0  0  0  0  0  0  0  0  0
  189.4090  177.9130  143.7200 C   0  0  0  0  0  2  0  0  0  0  0  0
  189.0440  177.9790  142.2510 C   0  0  0  0  0  2  0  0  0  0  0  0
  187.5650  178.2700  142.1070 C   0  0  0  0  0  2  0  0  0  0  0  0
  186.8090  176.9640  142.0010 C   0  0  0  0  0  2  0  0  0  0  0  0
  185.4240  177.1290  142.5960 C   0  0  0  0  0  2  0  0  0  0  0  0
  186.3320  177.9990  147.6540 C   0  0  0  0  0  3  0  0  0  0  0  0
  185.7770  177.9290  144.9430 C   0  0  0  0  0  0  0  0  0  0  0  0
  185.0960  179.4240  143.5340 C   0  0  0  0  0  3  0  0  0  0  0  0
  185.2030  180.0750  144.7680 C   0  0  0  0  0  3  0  0  0  0  0  0
  185.6380  179.0960  145.6400 C   0  0  0  0  0  0  0  0  0  0  0  0
  186.1950  176.7470  145.5560 C   0  0  0  0  0  3  0  0  0  0  0  0
  185.9060  179.1730  147.0050 C   0  0  0  0  0  3  0  0  0  0  0  0
  185.4540  178.1250  143.6570 N   0  0  0  0  0  0  0  0  0  0  0  0
  186.4730  176.7930  146.9330 C   0  0  0  0  0  3  0  0  0  0  0  0
  1  5  1  0  0  0  0
  2  6  1  0  0  0  0
  3  2  2  0  0  0  0
  3  1  1  0  0  0  0
  4 21  1  0  0  0  0
  6  5  2  0  0  0  0
  6  4  1  0  0  0  0
  7  2  1  0  0  0  0
  8  7  1  0  0  0  0
  9  7  2  0  0  0  0
 10  8  1  0  0  0  0
 11  9  1  0  0  0  0
 11 15  1  0  0  0  0
 12 17  1  0  0  0  0
 12 19  1  0  0  0  0
 14 17  2  0  0  0  0
 15 20  2  0  0  0  0
 15 18  1  0  0  0  0
 16 13  1  0  0  0  0
 17 13  1  0  0  0  0
 18 12  2  0  0  0  0
 19 16  2  0  0  0  0
 20 14  1  0  0  0  0
 22 21  1  0  0  0  0
 23 22  1  0  0  0  0
 25 24  1  1  0  0  0
 25 23  1  0  0  0  0
 26 25  1  0  0  0  0
 27 30  1  0  0  0  0
 28 30  2  0  0  0  0
 29 30  1  0  0  0  0
 30 26  1  0  0  0  0
 31  1  1  0  0  0  0
 32 31  1  0  0  0  0
 33 32  1  0  0  0  0
 34 33  1  0  0  0  0
 34 35  1  0  0  0  0
 35 43  1  0  0  0  0
 37 41  2  0  0  0  0
 37 40  1  0  0  0  0
 38 43  1  0  0  0  0
 38 39  2  0  0  0  0
 39 40  1  0  0  0  0
 40 42  2  0  0  0  0
 41 44  1  0  0  0  0
 42 36  1  0  0  0  0
 43 37  1  0  0  0  0
 44 36  2  0  0  0  0
M  END
>  <MODEL>
8

>  <REMARK>
 VINA RESULT:      -6.9      2.597      4.370
  Name = 
  15 active torsions:
  status: ('A' for Active; 'I' for Inactive)
    1  A    between atoms: C_3  and  C_16
    2  A    between atoms: C_8  and  C_12
    3  A    between atoms: C_8  and  C_24
    4  A    between atoms: N_9  and  C_24
    5  A    between atoms: C_10  and  C_21
    6  A    between atoms: C_10  and  N_23
    7  A    between atoms: C_11  and  C_25
    8  A    between atoms: C_11  and  N_38
    9  A    between atoms: C_12  and  C_22
   10  A    between atoms: N_13  and  P_39
   11  A    between atoms: N_13  and  C_42
   12  A    between atoms: C_21  and  C_33
   13  A    between atoms: C_22  and  C_36
   14  A    between atoms: C_33  and  C_42
   15  A    between atoms: C_36  and  N_40
                            x       y       z     vdW  Elec       q    Type
                         _______ _______ _______ _____ _____    ______ ____

>  <TORSDO>
F 15

$$$$
=
 OpenBabel11042415283D

 44 48  0  0  1  0  0  0  0  0999 V2000
  189.8380  175.2340  145.7580 N   0  0  0  0  0  0  0  0  0  0  0  0
  190.3930  174.4130  143.8670 C   0  0  0  0  0  0  0  0  0  0  0  0
  190.3110  174.1360  145.1830 N   0  0  0  0  0  0  0  0  0  0  0  0
  189.8360  176.4140  142.4560 N   0  0  0  0  0  2  0  0  0  0  0  0
  189.5930  176.2050  144.8910 N   0  0  0  0  0  0  0  0  0  0  0  0
  189.9410  175.7050  143.6930 C   0  0  0  0  0  0  0  0  0  0  0  0
  190.8680  173.4670  142.8450 C   0  0  0  0  0  0  0  0  0  0  0  0
  189.9450  172.9970  141.8490 N   0  0  0  0  0  2  0  0  0  0  0  0
  192.1130  173.0870  142.8830 N   0  0  0  0  0  0  0  0  0  0  0  0
  190.2750  172.1370  140.8570 O   0  0  0  0  0  1  0  0  0  0  0  0
  192.7480  172.1570  141.9600 C   0  0  0  0  0  2  0  0  0  0  0  0
  194.7920  170.6010  144.7260 C   0  0  0  0  0  0  0  0  0  0  0  0
  196.7890  169.1430  145.0370 S   0  0  0  0  0  0  0  0  0  0  0  0
  195.7640  169.9380  142.5970 C   0  0  0  0  0  3  0  0  0  0  0  0
  193.7840  171.3650  142.6750 C   0  0  0  0  0  0  0  0  0  0  0  0
  196.0320  169.6650  146.4600 C   0  0  0  0  0  3  0  0  0  0  0  0
  195.7460  169.9210  143.9890 C   0  0  0  0  0  0  0  0  0  0  0  0
  193.7980  171.3360  144.0810 C   0  0  0  0  0  3  0  0  0  0  0  0
  194.9400  170.4660  146.1080 C   0  0  0  0  0  3  0  0  0  0  0  0
  194.7670  170.6740  141.9390 C   0  0  0  0  0  3  0  0  0  0  0  0
  189.3020  177.7650  142.3820 C   0  0  0  0  0  2  0  0  0  0  0  0
  187.9740  177.7590  141.6510 C   0  0  0  0  0  2  0  0  0  0  0  0
  186.9530  178.5430  142.4520 C   0  0  0  0  0  2  0  0  0  0  0  0
  185.9600  176.4410  143.3360 C   0  0  0  0  0  1  0  0  0  0  0  0
  186.5730  177.7780  143.7090 C   0  0  2  0  0  3  0  0  0  0  0  0
  185.6090  178.5500  144.4770 N   0  0  0  0  0  2  0  0  0  0  0  0
  187.2450  177.7440  146.4380 O   0  0  0  0  0  0  0  0  0  0  0  0
  184.8140  176.7860  146.5140 O   0  0  0  0  0  1  0  0  0  0  0  0
  185.3570  179.4150  147.1490 O   0  0  0  0  0  1  0  0  0  0  0  0
  185.8020  178.1120  146.1660 P   0  0  0  0  0  0  0  0  0  0  0  0
  189.5430  175.3320  147.1770 C   0  0  0  0  0  2  0  0  0  0  0  0
  190.8350  175.2950  147.9680 C   0  0  0  0  0  2  0  0  0  0  0  0
  191.8590  176.1990  147.3140 C   0  0  0  0  0  2  0  0  0  0  0  0
  193.0500  175.3710  146.8810 C   0  0  0  0  0  2  0  0  0  0  0  0
  194.1040  176.2760  146.2740 C   0  0  0  0  0  2  0  0  0  0  0  0
  197.4970  173.0150  144.0350 C   0  0  0  0  0  3  0  0  0  0  0  0
  195.5580  174.8130  144.8550 C   0  0  0  0  0  0  0  0  0  0  0  0
  194.1470  176.0550  143.7840 C   0  0  0  0  0  3  0  0  0  0  0  0
  194.8590  175.3490  142.8080 C   0  0  0  0  0  3  0  0  0  0  0  0
  195.7480  174.5700  143.5240 C   0  0  0  0  0  0  0  0  0  0  0  0
  196.3200  174.1800  145.8380 C   0  0  0  0  0  3  0  0  0  0  0  0
  196.7120  173.6730  143.0700 C   0  0  0  0  0  3  0  0  0  0  0  0
  194.5790  175.7130  145.0190 N   0  0  0  0  0  0  0  0  0  0  0  0
  197.3030  173.2680  145.4100 C   0  0  0  0  0  3  0  0  0  0  0  0
  1 31  1  0  0  0  0
  2  3  2  0  0  0  0
  3  1  1  0  0  0  0
  4  6  1  0  0  0  0
  5  1  1  0  0  0  0
  6  2  1  0  0  0  0
  6  5  2  0  0  0  0
  7  9  2  0  0  0  0
  7  2  1  0  0  0  0
  8  7  1  0  0  0  0
 10  8  1  0  0  0  0
 11 15  1  0  0  0  0
 11  9  1  0  0  0  0
 12 19  1  0  0  0  0
 13 16  1  0  0  0  0
 14 17  1  0  0  0  0
 15 18  2  0  0  0  0
 17 12  2  0  0  0  0
 17 13  1  0  0  0  0
 18 12  1  0  0  0  0
 19 16  2  0  0  0  0
 20 14  2  0  0  0  0
 20 15  1  0  0  0  0
 21  4  1  0  0  0  0
 22 21  1  0  0  0  0
 22 23  1  0  0  0  0
 23 25  1  0  0  0  0
 25 24  1  6  0  0  0
 25 26  1  0  0  0  0
 26 30  1  0  0  0  0
 30 27  2  0  0  0  0
 30 28  1  0  0  0  0
 30 29  1  0  0  0  0
 31 32  1  0  0  0  0
 33 32  1  0  0  0  0
 34 33  1  0  0  0  0
 35 34  1  0  0  0  0
 36 44  1  0  0  0  0
 37 43  1  0  0  0  0
 37 41  1  0  0  0  0
 38 43  1  0  0  0  0
 39 40  1  0  0  0  0
 39 38  2  0  0  0  0
 40 37  2  0  0  0  0
 42 40  1  0  0  0  0
 42 36  2  0  0  0  0
 43 35  1  0  0  0  0
 44 41  2  0  0  0  0
M  END
>  <MODEL>
9

>  <REMARK>
 VINA RESULT:      -6.8      2.872      7.712
  Name = 
  15 active torsions:
  status: ('A' for Active; 'I' for Inactive)
    1  A    between atoms: C_3  and  C_16
    2  A    between atoms: C_8  and  C_12
    3  A    between atoms: C_8  and  C_24
    4  A    between atoms: N_9  and  C_24
    5  A    between atoms: C_10  and  C_21
    6  A    between atoms: C_10  and  N_23
    7  A    between atoms: C_11  and  C_25
    8  A    between atoms: C_11  and  N_38
    9  A    between atoms: C_12  and  C_22
   10  A    between atoms: N_13  and  P_39
   11  A    between atoms: N_13  and  C_42
   12  A    between atoms: C_21  and  C_33
   13  A    between atoms: C_22  and  C_36
   14  A    between atoms: C_33  and  C_42
   15  A    between atoms: C_36  and  N_40
                            x       y       z     vdW  Elec       q    Type
                         _______ _______ _______ _____ _____    ______ ____

>  <TORSDO>
F 15

$$$$
