=
 OpenBabel11042414173D

 45 50  0  0  1  0  0  0  0  0999 V2000
  192.4330  176.3170  147.0440 C   0  0  0  0  0  2  0  0  0  0  0  0
  191.4590  176.7540  147.9550 C   0  0  0  0  0  3  0  0  0  0  0  0
  192.0090  174.7060  145.1480 C   0  0  0  0  0  0  0  0  0  0  0  0
  189.8190  174.5660  145.7630 N   0  0  0  0  0  0  0  0  0  0  0  0
  190.7540  174.1290  144.8700 C   0  0  0  0  0  0  0  0  0  0  0  0
  191.7990  175.4910  146.2090 N   0  0  0  0  0  0  0  0  0  0  0  0
  190.2230  176.1550  147.6360 C   0  0  0  0  0  3  0  0  0  0  0  0
  190.5420  175.3920  146.5410 C   0  0  0  0  0  0  0  0  0  0  0  0
  195.7390  174.2010  143.2070 C   0  0  0  0  0  3  0  0  0  0  0  0
  193.5140  175.0490  143.2280 N   0  0  0  0  0  0  0  0  0  0  0  0
  194.7020  174.9010  142.5840 C   0  0  0  0  0  0  0  0  0  0  0  0
  194.3090  173.8440  145.0800 N   0  0  0  0  0  0  0  0  0  0  0  0
  195.5130  173.6720  144.4760 C   0  0  0  0  0  3  0  0  0  0  0  0
  193.3080  174.5310  144.4670 C   0  0  0  0  0  0  0  0  0  0  0  0
  195.5560  176.5260  141.0830 O   0  0  0  0  0  0  0  0  0  0  0  0
  194.8770  175.4750  141.2410 C   0  0  0  0  0  0  0  0  0  0  0  0
  194.2790  174.8310  140.1130 N   0  0  0  0  0  2  0  0  0  0  0  0
  194.3890  175.3540  138.7610 C   0  0  0  0  0  2  0  0  0  0  0  0
  193.4360  174.6820  137.8950 N   0  0  0  0  0  2  0  0  0  0  0  0
  192.6620  173.8520  138.7170 N   0  0  0  0  0  2  0  0  0  0  0  0
  191.7640  173.1100  137.8480 C   0  0  0  0  0  2  0  0  0  0  0  0
  188.1500  173.3170  138.3830 O   0  0  0  0  0  0  0  0  0  0  0  0
  190.4130  173.6340  137.9730 N   0  0  0  0  0  2  0  0  0  0  0  0
  189.2940  172.8030  138.2880 C   0  0  0  0  0  0  0  0  0  0  0  0
  189.4560  171.3380  138.5060 C   0  0  0  0  0  1  0  0  0  0  0  0
  190.4090  173.1570  143.7790 C   0  0  2  0  0  3  0  0  0  0  0  0
  188.8710  172.8250  141.8540 C   0  0  1  0  0  3  0  0  0  0  0  0
  189.0760  174.3290  142.0480 C   0  0  2  0  0  3  0  0  0  0  0  0
  189.0060  173.4060  143.2460 C   0  0  2  0  0  3  0  0  0  0  0  0
  187.5330  172.4950  141.6160 O   0  0  0  0  0  1  0  0  0  0  0  0
  187.7960  175.1520  141.9650 C   0  0  0  0  0  2  0  0  0  0  0  0
  188.0880  176.4360  141.4980 O   0  0  0  0  0  0  0  0  0  0  0  0
  187.6480  177.5000  142.7450 P   0  0  2  0  0  0  0  0  0  0  0  0
  187.1380  178.7970  142.1530 O   0  0  0  0  0  0  0  0  0  0  0  0
  189.0160  177.8290  143.6810 O   0  0  0  0  0  1  0  0  0  0  0  0
  186.7450  176.6230  145.2460 C   0  0  0  0  0  2  0  0  0  0  0  0
  185.0550  177.3020  143.5180 O   0  0  0  0  0  0  0  0  0  0  0  0
  185.5450  176.8510  146.1500 C   0  0  1  0  0  3  0  0  0  0  0  0
  185.9610  176.8600  147.4800 O   0  0  0  0  0  1  0  0  0  0  0  0
  184.6060  178.3870  144.3370 C   0  0  2  0  0  3  0  0  0  0  0  0
  185.6540  179.1820  145.1100 C   0  0  0  0  0  2  0  0  0  0  0  0
  184.7940  178.1520  145.8370 C   0  0  2  0  0  3  0  0  0  0  0  0
  186.3420  176.7550  143.7800 C   0  0  1  0  0  3  0  0  0  0  0  0
  191.6570  171.3390  143.5810 C   0  0  0  0  0  1  0  0  0  0  0  0
  190.5330  171.8420  144.2350 O   0  0  0  0  0  0  0  0  0  0  0  0
  1  2  1  0  0  0  0
  3  6  1  0  0  0  0
  4  8  2  0  0  0  0
  5  3  2  0  0  0  0
  5  4  1  0  0  0  0
  6  8  1  0  0  0  0
  6  1  1  0  0  0  0
  7  2  2  0  0  0  0
  8  7  1  0  0  0  0
  9 13  1  0  0  0  0
 10 14  2  0  0  0  0
 11  9  2  0  0  0  0
 11 10  1  0  0  0  0
 13 12  2  0  0  0  0
 14 12  1  0  0  0  0
 14  3  1  0  0  0  0
 15 16  2  0  0  0  0
 16 11  1  0  0  0  0
 17 16  1  0  0  0  0
 18 17  1  0  0  0  0
 19 20  1  0  0  0  0
 19 18  1  0  0  0  0
 21 23  1  0  0  0  0
 21 20  1  0  0  0  0
 23 24  1  0  0  0  0
 24 22  2  0  0  0  0
 24 25  1  0  0  0  0
 26 45  1  1  0  0  0
 26  5  1  0  0  0  0
 27 30  1  1  0  0  0
 27 28  1  0  0  0  0
 27 29  1  0  0  0  0
 28 31  1  1  0  0  0
 28 29  1  0  0  0  0
 29 26  1  6  0  0  0
 32 31  1  0  0  0  0
 32 33  1  0  0  0  0
 33 34  2  6  0  0  0
 33 35  1  0  0  0  0
 36 38  1  0  0  0  0
 37 43  1  0  0  0  0
 37 40  1  0  0  0  0
 38 39  1  1  0  0  0
 40 41  1  6  0  0  0
 40 42  1  0  0  0  0
 42 41  1  6  0  0  0
 42 38  1  0  0  0  0
 43 33  1  6  0  0  0
 43 36  1  0  0  0  0
 44 45  1  0  0  0  0
M  END
>  <MODEL>
1

>  <REMARK>
 VINA RESULT:      -6.7      0.000      0.000
  Name = 
  14 active torsions:
  status: ('A' for Active; 'I' for Inactive)
    1  A    between atoms: N_2  and  C_34
    2  A    between atoms: N_2  and  N_37
    3  A    between atoms: P_6  and  O_21
    4  A    between atoms: P_6  and  C_45
    5  A    between atoms: N_7  and  C_34
    6  A    between atoms: C_11  and  O_21
    7  A    between atoms: C_11  and  C_22
    8  A    between atoms: C_12  and  C_29
    9  A    between atoms: C_20  and  C_36
   10  A    between atoms: O_26  and  C_33
   11  A    between atoms: C_27  and  C_33
   12  A    between atoms: C_30  and  C_33
   13  A    between atoms: N_35  and  C_39
   14  A    between atoms: N_37  and  C_39
                            x       y       z     vdW  Elec       q    Type
                         _______ _______ _______ _____ _____    ______ ____

>  <TORSDO>
F 14

$$$$
=
 OpenBabel11042414173D

 45 50  0  0  1  0  0  0  0  0999 V2000
  192.3290  176.2250  147.1740 C   0  0  0  0  0  2  0  0  0  0  0  0
  191.2190  176.4510  148.0040 C   0  0  0  0  0  3  0  0  0  0  0  0
  192.2310  175.1040  144.9150 C   0  0  0  0  0  0  0  0  0  0  0  0
  189.9780  174.8520  145.1430 N   0  0  0  0  0  0  0  0  0  0  0  0
  191.0460  174.6220  144.3250 C   0  0  0  0  0  0  0  0  0  0  0  0
  191.8470  175.6230  146.0850 N   0  0  0  0  0  0  0  0  0  0  0  0
  190.0590  175.9590  147.3710 C   0  0  0  0  0  3  0  0  0  0  0  0
  190.5570  175.4660  146.1910 C   0  0  0  0  0  0  0  0  0  0  0  0
  196.2150  175.0280  143.4800 C   0  0  0  0  0  3  0  0  0  0  0  0
  194.4340  174.0210  144.6960 N   0  0  0  0  0  0  0  0  0  0  0  0
  195.7150  173.9720  144.2480 C   0  0  0  0  0  0  0  0  0  0  0  0
  194.1000  176.1100  143.6760 N   0  0  0  0  0  0  0  0  0  0  0  0
  195.3740  176.1050  143.2040 C   0  0  0  0  0  3  0  0  0  0  0  0
  193.6210  175.0740  144.4180 C   0  0  0  0  0  0  0  0  0  0  0  0
  197.6240  172.5990  143.9400 O   0  0  0  0  0  0  0  0  0  0  0  0
  196.5580  172.8140  144.5790 C   0  0  0  0  0  0  0  0  0  0  0  0
  196.1660  171.9340  145.6360 N   0  0  0  0  0  2  0  0  0  0  0  0
  196.9360  170.7550  146.0020 C   0  0  0  0  0  2  0  0  0  0  0  0
  196.0370  169.6800  146.3830 N   0  0  0  0  0  2  0  0  0  0  0  0
  194.7340  170.1570  146.1880 N   0  0  0  0  0  2  0  0  0  0  0  0
  194.1180  169.3150  145.1770 C   0  0  0  0  0  2  0  0  0  0  0  0
  194.0780  170.9460  141.9010 O   0  0  0  0  0  0  0  0  0  0  0  0
  193.7080  170.1270  144.0420 N   0  0  0  0  0  2  0  0  0  0  0  0
  194.4880  170.2280  142.8500 C   0  0  0  0  0  0  0  0  0  0  0  0
  195.7800  169.4990  142.7070 C   0  0  0  0  0  1  0  0  0  0  0  0
  190.8920  173.9340  143.0000 C   0  0  2  0  0  3  0  0  0  0  0  0
  189.3140  173.6820  141.0940 C   0  0  1  0  0  3  0  0  0  0  0  0
  189.0620  175.0430  141.7460 C   0  0  2  0  0  3  0  0  0  0  0  0
  189.4270  173.8450  142.5960 C   0  0  2  0  0  3  0  0  0  0  0  0
  188.1270  173.0090  140.7890 O   0  0  0  0  0  1  0  0  0  0  0  0
  187.5900  175.3790  141.9470 C   0  0  0  0  0  2  0  0  0  0  0  0
  187.3210  176.6540  141.4410 O   0  0  0  0  0  0  0  0  0  0  0  0
  187.1240  177.6630  142.7920 P   0  0  2  0  0  0  0  0  0  0  0  0
  186.6270  179.0220  142.3460 O   0  0  0  0  0  0  0  0  0  0  0  0
  188.6260  177.8520  143.5460 O   0  0  0  0  0  1  0  0  0  0  0  0
  186.5120  176.6800  145.3410 C   0  0  0  0  0  2  0  0  0  0  0  0
  184.6550  177.5760  143.9100 O   0  0  0  0  0  0  0  0  0  0  0  0
  185.4670  176.9220  146.4160 C   0  0  1  0  0  3  0  0  0  0  0  0
  186.0600  176.8160  147.6730 O   0  0  0  0  0  1  0  0  0  0  0  0
  184.4000  178.6300  144.8450 C   0  0  2  0  0  3  0  0  0  0  0  0
  185.5980  179.3050  145.5060 C   0  0  0  0  0  2  0  0  0  0  0  0
  184.7740  178.2850  146.2880 C   0  0  2  0  0  3  0  0  0  0  0  0
  185.9230  176.9340  143.9570 C   0  0  1  0  0  3  0  0  0  0  0  0
  190.6090  171.9020  143.8330 C   0  0  0  0  0  1  0  0  0  0  0  0
  191.4670  172.6610  143.0370 O   0  0  0  0  0  0  0  0  0  0  0  0
  1  2  1  0  0  0  0
  3  6  1  0  0  0  0
  4  8  2  0  0  0  0
  5  3  2  0  0  0  0
  5  4  1  0  0  0  0
  6  8  1  0  0  0  0
  6  1  1  0  0  0  0
  7  2  2  0  0  0  0
  8  7  1  0  0  0  0
  9 11  2  0  0  0  0
 11 16  1  0  0  0  0
 11 10  1  0  0  0  0
 12 14  1  0  0  0  0
 13  9  1  0  0  0  0
 13 12  2  0  0  0  0
 14 10  2  0  0  0  0
 14  3  1  0  0  0  0
 15 16  2  0  0  0  0
 16 17  1  0  0  0  0
 17 18  1  0  0  0  0
 18 19  1  0  0  0  0
 20 19  1  0  0  0  0
 21 20  1  0  0  0  0
 22 24  2  0  0  0  0
 23 21  1  0  0  0  0
 24 23  1  0  0  0  0
 25 24  1  0  0  0  0
 26 45  1  1  0  0  0
 26  5  1  0  0  0  0
 27 30  1  1  0  0  0
 27 28  1  0  0  0  0
 27 29  1  0  0  0  0
 28 31  1  1  0  0  0
 28 29  1  0  0  0  0
 29 26  1  6  0  0  0
 32 31  1  0  0  0  0
 32 33  1  0  0  0  0
 33 34  2  6  0  0  0
 33 35  1  0  0  0  0
 36 38  1  0  0  0  0
 37 43  1  0  0  0  0
 37 40  1  0  0  0  0
 38 39  1  1  0  0  0
 40 41  1  6  0  0  0
 40 42  1  0  0  0  0
 42 41  1  6  0  0  0
 42 38  1  0  0  0  0
 43 33  1  6  0  0  0
 43 36  1  0  0  0  0
 45 44  1  0  0  0  0
M  END
>  <MODEL>
2

>  <REMARK>
 VINA RESULT:      -6.6      2.368      3.919
  Name = 
  14 active torsions:
  status: ('A' for Active; 'I' for Inactive)
    1  A    between atoms: N_2  and  C_34
    2  A    between atoms: N_2  and  N_37
    3  A    between atoms: P_6  and  O_21
    4  A    between atoms: P_6  and  C_45
    5  A    between atoms: N_7  and  C_34
    6  A    between atoms: C_11  and  O_21
    7  A    between atoms: C_11  and  C_22
    8  A    between atoms: C_12  and  C_29
    9  A    between atoms: C_20  and  C_36
   10  A    between atoms: O_26  and  C_33
   11  A    between atoms: C_27  and  C_33
   12  A    between atoms: C_30  and  C_33
   13  A    between atoms: N_35  and  C_39
   14  A    between atoms: N_37  and  C_39
                            x       y       z     vdW  Elec       q    Type
                         _______ _______ _______ _____ _____    ______ ____

>  <TORSDO>
F 14

$$$$
=
 OpenBabel11042414173D

 45 50  0  0  1  0  0  0  0  0999 V2000
  192.0560  175.2830  146.8540 C   0  0  0  0  0  2  0  0  0  0  0  0
  191.0380  176.0730  147.4130 C   0  0  0  0  0  3  0  0  0  0  0  0
  191.7780  173.7990  144.8320 C   0  0  0  0  0  0  0  0  0  0  0  0
  189.5950  174.4340  144.6720 N   0  0  0  0  0  0  0  0  0  0  0  0
  190.5710  173.6580  144.1170 C   0  0  0  0  0  0  0  0  0  0  0  0
  191.5000  174.6690  145.8080 N   0  0  0  0  0  0  0  0  0  0  0  0
  189.8550  175.9030  146.6640 C   0  0  0  0  0  3  0  0  0  0  0  0
  190.2480  175.0150  145.6950 C   0  0  0  0  0  0  0  0  0  0  0  0
  195.5470  171.9690  144.2210 C   0  0  0  0  0  3  0  0  0  0  0  0
  193.7160  173.2570  143.4120 N   0  0  0  0  0  0  0  0  0  0  0  0
  194.9260  172.6790  143.1900 C   0  0  0  0  0  0  0  0  0  0  0  0
  193.6860  172.4670  145.6240 N   0  0  0  0  0  0  0  0  0  0  0  0
  194.8950  171.8740  145.4500 C   0  0  0  0  0  3  0  0  0  0  0  0
  193.0920  173.1610  144.6150 C   0  0  0  0  0  0  0  0  0  0  0  0
  196.7760  172.5000  141.7170 O   0  0  0  0  0  0  0  0  0  0  0  0
  195.5620  172.8050  141.8700 C   0  0  0  0  0  0  0  0  0  0  0  0
  194.7930  173.2710  140.7570 N   0  0  0  0  0  2  0  0  0  0  0  0
  195.3600  173.4450  139.4290 C   0  0  0  0  0  2  0  0  0  0  0  0
  195.9790  174.7540  139.3280 N   0  0  0  0  0  2  0  0  0  0  0  0
  195.1580  175.6440  140.0330 N   0  0  0  0  0  2  0  0  0  0  0  0
  196.0150  176.3870  140.9410 C   0  0  0  0  0  2  0  0  0  0  0  0
  195.6360  176.0620  144.5660 O   0  0  0  0  0  0  0  0  0  0  0  0
  195.4370  176.3860  142.2760 N   0  0  0  0  0  2  0  0  0  0  0  0
  196.1930  176.0430  143.4380 C   0  0  0  0  0  0  0  0  0  0  0  0
  197.6310  175.6610  143.3410 C   0  0  0  0  0  1  0  0  0  0  0  0
  190.3080  172.7950  142.9180 C   0  0  2  0  0  3  0  0  0  0  0  0
  189.3180  173.1070  140.6580 C   0  0  1  0  0  3  0  0  0  0  0  0
  189.4800  174.4850  141.3030 C   0  0  2  0  0  3  0  0  0  0  0  0
  189.0930  173.2870  142.1450 C   0  0  2  0  0  3  0  0  0  0  0  0
  188.0850  172.9590  140.0160 O   0  0  0  0  0  1  0  0  0  0  0  0
  188.2720  175.4000  141.1370 C   0  0  0  0  0  2  0  0  0  0  0  0
  187.4170  175.2580  142.2340 O   0  0  0  0  0  0  0  0  0  0  0  0
  187.0370  176.8350  142.7380 P   0  0  2  0  0  0  0  0  0  0  0  0
  186.7760  177.7070  141.5290 O   0  0  0  0  0  0  0  0  0  0  0  0
  188.3580  177.4610  143.5870 O   0  0  0  0  0  1  0  0  0  0  0  0
  185.8860  176.9310  145.2880 C   0  0  0  0  0  2  0  0  0  0  0  0
  184.5190  177.6610  143.3120 O   0  0  0  0  0  0  0  0  0  0  0  0
  184.8220  177.7410  146.0100 C   0  0  1  0  0  3  0  0  0  0  0  0
  185.2110  177.9460  147.3320 O   0  0  0  0  0  1  0  0  0  0  0  0
  184.4440  178.9990  143.8180 C   0  0  2  0  0  3  0  0  0  0  0  0
  185.6910  179.5860  144.4720 C   0  0  0  0  0  2  0  0  0  0  0  0
  184.5380  179.0930  145.3420 C   0  0  2  0  0  3  0  0  0  0  0  0
  185.5550  176.8190  143.8030 C   0  0  1  0  0  3  0  0  0  0  0  0
  191.1250  170.7610  142.6050 C   0  0  0  0  0  1  0  0  0  0  0  0
  190.1380  171.4620  143.2990 O   0  0  0  0  0  0  0  0  0  0  0  0
  1  2  1  0  0  0  0
  3  6  1  0  0  0  0
  4  8  2  0  0  0  0
  5  4  1  0  0  0  0
  5  3  2  0  0  0  0
  6  1  1  0  0  0  0
  7  2  2  0  0  0  0
  8  6  1  0  0  0  0
  8  7  1  0  0  0  0
  9 13  1  0  0  0  0
 10 14  2  0  0  0  0
 11 10  1  0  0  0  0
 11  9  2  0  0  0  0
 13 12  2  0  0  0  0
 14  3  1  0  0  0  0
 14 12  1  0  0  0  0
 15 16  2  0  0  0  0
 16 11  1  0  0  0  0
 17 16  1  0  0  0  0
 18 17  1  0  0  0  0
 19 18  1  0  0  0  0
 19 20  1  0  0  0  0
 20 21  1  0  0  0  0
 21 23  1  0  0  0  0
 23 24  1  0  0  0  0
 24 22  2  0  0  0  0
 25 24  1  0  0  0  0
 26 45  1  1  0  0  0
 26  5  1  0  0  0  0
 27 30  1  6  0  0  0
 27 28  1  0  0  0  0
 27 29  1  0  0  0  0
 28 31  1  6  0  0  0
 28 29  1  0  0  0  0
 29 26  1  1  0  0  0
 31 32  1  0  0  0  0
 32 33  1  0  0  0  0
 33 34  2  6  0  0  0
 33 35  1  0  0  0  0
 36 38  1  0  0  0  0
 37 43  1  0  0  0  0
 37 40  1  0  0  0  0
 38 39  1  1  0  0  0
 40 41  1  6  0  0  0
 40 42  1  0  0  0  0
 42 41  1  6  0  0  0
 42 38  1  0  0  0  0
 43 33  1  6  0  0  0
 43 36  1  0  0  0  0
 44 45  1  0  0  0  0
M  END
>  <MODEL>
3

>  <REMARK>
 VINA RESULT:      -6.6      1.779      3.318
  Name = 
  14 active torsions:
  status: ('A' for Active; 'I' for Inactive)
    1  A    between atoms: N_2  and  C_34
    2  A    between atoms: N_2  and  N_37
    3  A    between atoms: P_6  and  O_21
    4  A    between atoms: P_6  and  C_45
    5  A    between atoms: N_7  and  C_34
    6  A    between atoms: C_11  and  O_21
    7  A    between atoms: C_11  and  C_22
    8  A    between atoms: C_12  and  C_29
    9  A    between atoms: C_20  and  C_36
   10  A    between atoms: O_26  and  C_33
   11  A    between atoms: C_27  and  C_33
   12  A    between atoms: C_30  and  C_33
   13  A    between atoms: N_35  and  C_39
   14  A    between atoms: N_37  and  C_39
                            x       y       z     vdW  Elec       q    Type
                         _______ _______ _______ _____ _____    ______ ____

>  <TORSDO>
F 14

$$$$
=
 OpenBabel11042414173D

 45 50  0  0  1  0  0  0  0  0999 V2000
  194.1030  175.3850  145.7090 C   0  0  0  0  0  2  0  0  0  0  0  0
  195.2580  174.6360  145.9820 C   0  0  0  0  0  3  0  0  0  0  0  0
  192.1030  174.5280  144.4300 C   0  0  0  0  0  0  0  0  0  0  0  0
  193.1360  172.5130  144.1740 N   0  0  0  0  0  0  0  0  0  0  0  0
  192.0060  173.2270  143.8970 C   0  0  0  0  0  0  0  0  0  0  0  0
  193.2970  174.5670  145.0270 N   0  0  0  0  0  0  0  0  0  0  0  0
  195.1130  173.3440  145.4360 C   0  0  0  0  0  3  0  0  0  0  0  0
  193.8670  173.4050  144.8650 C   0  0  0  0  0  0  0  0  0  0  0  0
  189.3610  177.7520  144.2770 C   0  0  0  0  0  3  0  0  0  0  0  0
  190.1050  175.7120  145.2520 N   0  0  0  0  0  0  0  0  0  0  0  0
  189.2120  176.7360  145.2250 C   0  0  0  0  0  0  0  0  0  0  0  0
  191.2950  176.6320  143.4490 N   0  0  0  0  0  0  0  0  0  0  0  0
  190.4290  177.6760  143.3840 C   0  0  0  0  0  3  0  0  0  0  0  0
  191.1440  175.6500  144.3790 C   0  0  0  0  0  0  0  0  0  0  0  0
  187.9610  175.8210  147.0200 O   0  0  0  0  0  0  0  0  0  0  0  0
  188.1010  176.7580  146.1870 C   0  0  0  0  0  0  0  0  0  0  0  0
  187.1810  177.8540  146.1790 N   0  0  0  0  0  2  0  0  0  0  0  0
  186.0450  177.9320  147.0840 C   0  0  0  0  0  2  0  0  0  0  0  0
  184.8180  177.6630  146.3560 N   0  0  0  0  0  2  0  0  0  0  0  0
  184.3270  178.9020  145.9230 N   0  0  0  0  0  2  0  0  0  0  0  0
  183.9850  178.7570  144.5180 C   0  0  0  0  0  2  0  0  0  0  0  0
  186.8400  178.8960  142.2330 O   0  0  0  0  0  0  0  0  0  0  0  0
  185.0710  179.2610  143.6920 N   0  0  0  0  0  2  0  0  0  0  0  0
  185.9180  178.3990  142.9300 C   0  0  0  0  0  0  0  0  0  0  0  0
  185.7300  176.9200  142.9430 C   0  0  0  0  0  1  0  0  0  0  0  0
  190.8690  172.6350  143.1160 C   0  0  2  0  0  3  0  0  0  0  0  0
  190.8180  172.0290  140.7040 C   0  0  1  0  0  3  0  0  0  0  0  0
  192.1180  172.7880  140.9790 C   0  0  2  0  0  3  0  0  0  0  0  0
  190.8410  173.1760  141.6940 C   0  0  2  0  0  3  0  0  0  0  0  0
  190.1960  172.4460  139.5240 O   0  0  0  0  0  1  0  0  0  0  0  0
  192.4580  173.8460  139.9370 C   0  0  0  0  0  2  0  0  0  0  0  0
  193.3730  174.7590  140.4690 O   0  0  0  0  0  0  0  0  0  0  0  0
  194.7060  174.7550  139.4170 P   0  0  2  0  0  0  0  0  0  0  0  0
  194.3090  175.3670  138.0900 O   0  0  0  0  0  0  0  0  0  0  0  0
  195.1830  173.1540  139.1580 O   0  0  0  0  0  1  0  0  0  0  0  0
  195.7070  176.4100  141.4410 C   0  0  0  0  0  2  0  0  0  0  0  0
  197.3130  174.9990  140.1230 O   0  0  0  0  0  0  0  0  0  0  0  0
  196.8910  176.4280  142.3930 C   0  0  1  0  0  3  0  0  0  0  0  0
  196.4900  176.9460  143.6230 O   0  0  0  0  0  1  0  0  0  0  0  0
  197.6720  174.2580  141.2940 C   0  0  2  0  0  3  0  0  0  0  0  0
  196.5650  173.8970  142.2800 C   0  0  0  0  0  2  0  0  0  0  0  0
  197.5210  175.0440  142.5980 C   0  0  2  0  0  3  0  0  0  0  0  0
  196.0820  175.7130  140.1360 C   0  0  1  0  0  3  0  0  0  0  0  0
  189.6270  171.9900  144.8310 C   0  0  0  0  0  1  0  0  0  0  0  0
  189.6520  172.8800  143.7560 O   0  0  0  0  0  0  0  0  0  0  0  0
  1  2  1  0  0  0  0
  3  6  1  0  0  0  0
  4  8  2  0  0  0  0
  5  4  1  0  0  0  0
  5  3  2  0  0  0  0
  6  1  1  0  0  0  0
  7  2  2  0  0  0  0
  8  6  1  0  0  0  0
  8  7  1  0  0  0  0
  9 11  2  0  0  0  0
 11 10  1  0  0  0  0
 11 16  1  0  0  0  0
 12 14  1  0  0  0  0
 13 12  2  0  0  0  0
 13  9  1  0  0  0  0
 14  3  1  0  0  0  0
 14 10  2  0  0  0  0
 16 15  2  0  0  0  0
 17 16  1  0  0  0  0
 17 18  1  0  0  0  0
 19 18  1  0  0  0  0
 20 19  1  0  0  0  0
 21 20  1  0  0  0  0
 22 24  2  0  0  0  0
 23 21  1  0  0  0  0
 24 25  1  0  0  0  0
 24 23  1  0  0  0  0
 26 45  1  1  0  0  0
 26  5  1  0  0  0  0
 27 30  1  6  0  0  0
 27 28  1  0  0  0  0
 27 29  1  0  0  0  0
 28 31  1  6  0  0  0
 28 29  1  0  0  0  0
 29 26  1  1  0  0  0
 31 32  1  0  0  0  0
 33 34  2  6  0  0  0
 33 32  1  0  0  0  0
 35 33  1  0  0  0  0
 36 38  1  0  0  0  0
 37 43  1  0  0  0  0
 37 40  1  0  0  0  0
 38 42  1  0  0  0  0
 38 39  1  1  0  0  0
 40 41  1  1  0  0  0
 40 42  1  0  0  0  0
 42 41  1  1  0  0  0
 43 33  1  1  0  0  0
 43 36  1  0  0  0  0
 45 44  1  0  0  0  0
M  END
>  <MODEL>
4

>  <REMARK>
 VINA RESULT:      -6.5      2.990      8.043
  Name = 
  14 active torsions:
  status: ('A' for Active; 'I' for Inactive)
    1  A    between atoms: N_2  and  C_34
    2  A    between atoms: N_2  and  N_37
    3  A    between atoms: P_6  and  O_21
    4  A    between atoms: P_6  and  C_45
    5  A    between atoms: N_7  and  C_34
    6  A    between atoms: C_11  and  O_21
    7  A    between atoms: C_11  and  C_22
    8  A    between atoms: C_12  and  C_29
    9  A    between atoms: C_20  and  C_36
   10  A    between atoms: O_26  and  C_33
   11  A    between atoms: C_27  and  C_33
   12  A    between atoms: C_30  and  C_33
   13  A    between atoms: N_35  and  C_39
   14  A    between atoms: N_37  and  C_39
                            x       y       z     vdW  Elec       q    Type
                         _______ _______ _______ _____ _____    ______ ____

>  <TORSDO>
F 14

$$$$
=
 OpenBabel11042414173D

 45 50  0  0  1  0  0  0  0  0999 V2000
  192.3060  176.4100  147.2180 C   0  0  0  0  0  2  0  0  0  0  0  0
  191.1840  176.8550  147.9350 C   0  0  0  0  0  3  0  0  0  0  0  0
  192.2070  175.0620  145.0860 C   0  0  0  0  0  0  0  0  0  0  0  0
  189.9300  175.1010  145.1720 N   0  0  0  0  0  0  0  0  0  0  0  0
  191.0100  174.6590  144.4630 C   0  0  0  0  0  0  0  0  0  0  0  0
  191.8200  175.7500  146.1640 N   0  0  0  0  0  0  0  0  0  0  0  0
  190.0130  176.4330  147.2730 C   0  0  0  0  0  3  0  0  0  0  0  0
  190.5160  175.7570  146.1900 C   0  0  0  0  0  0  0  0  0  0  0  0
  196.2350  174.3530  143.9840 C   0  0  0  0  0  3  0  0  0  0  0  0
  194.1210  175.3630  143.5630 N   0  0  0  0  0  0  0  0  0  0  0  0
  195.4090  175.1510  143.1880 C   0  0  0  0  0  0  0  0  0  0  0  0
  194.4050  174.0330  145.4780 N   0  0  0  0  0  0  0  0  0  0  0  0
  195.6990  173.7940  145.1440 C   0  0  0  0  0  3  0  0  0  0  0  0
  193.6110  174.8160  144.6980 C   0  0  0  0  0  0  0  0  0  0  0  0
  195.3770  176.8020  141.4860 O   0  0  0  0  0  0  0  0  0  0  0  0
  195.9150  175.7600  141.9480 C   0  0  0  0  0  0  0  0  0  0  0  0
  197.0280  175.1670  141.2730 N   0  0  0  0  0  2  0  0  0  0  0  0
  197.5660  175.6990  140.0310 C   0  0  0  0  0  2  0  0  0  0  0  0
  197.7480  174.6220  139.0730 N   0  0  0  0  0  2  0  0  0  0  0  0
  197.4060  175.1400  137.8170 N   0  0  0  0  0  2  0  0  0  0  0  0
  196.4590  174.2140  137.2180 C   0  0  0  0  0  2  0  0  0  0  0  0
  193.2470  175.9250  136.8320 O   0  0  0  0  0  0  0  0  0  0  0  0
  195.3470  174.9530  136.6410 N   0  0  0  0  0  2  0  0  0  0  0  0
  194.1740  175.2820  137.3880 C   0  0  0  0  0  0  0  0  0  0  0  0
  194.0280  174.8770  138.8150 C   0  0  0  0  0  1  0  0  0  0  0  0
  190.8520  173.8490  143.2090 C   0  0  2  0  0  3  0  0  0  0  0  0
  189.3160  173.5820  141.2720 C   0  0  1  0  0  3  0  0  0  0  0  0
  189.0980  174.9760  141.8660 C   0  0  2  0  0  3  0  0  0  0  0  0
  189.3960  173.7980  142.7690 C   0  0  2  0  0  3  0  0  0  0  0  0
  188.1130  172.9420  140.9590 O   0  0  0  0  0  1  0  0  0  0  0  0
  187.6350  175.3720  142.0150 C   0  0  0  0  0  2  0  0  0  0  0  0
  187.4360  176.6540  141.4940 O   0  0  0  0  0  0  0  0  0  0  0  0
  187.1930  177.6700  142.8330 P   0  0  2  0  0  0  0  0  0  0  0  0
  186.6650  179.0100  142.3670 O   0  0  0  0  0  0  0  0  0  0  0  0
  188.6780  177.9080  143.6050 O   0  0  0  0  0  1  0  0  0  0  0  0
  186.5710  176.7010  145.3850 C   0  0  0  0  0  2  0  0  0  0  0  0
  184.7100  177.5220  143.9130 O   0  0  0  0  0  0  0  0  0  0  0  0
  185.5010  176.9240  146.4410 C   0  0  1  0  0  3  0  0  0  0  0  0
  186.0780  176.8520  147.7080 O   0  0  0  0  0  1  0  0  0  0  0  0
  184.4080  178.5790  144.8310 C   0  0  2  0  0  3  0  0  0  0  0  0
  185.5750  179.2980  145.5020 C   0  0  0  0  0  2  0  0  0  0  0  0
  184.7700  178.2630  146.2830 C   0  0  2  0  0  3  0  0  0  0  0  0
  185.9960  176.9190  143.9880 C   0  0  1  0  0  3  0  0  0  0  0  0
  190.4090  171.9150  144.1910 C   0  0  0  0  0  1  0  0  0  0  0  0
  191.3540  172.5580  143.3910 O   0  0  0  0  0  0  0  0  0  0  0  0
  1  2  1  0  0  0  0
  3  6  1  0  0  0  0
  4  8  2  0  0  0  0
  5  3  2  0  0  0  0
  5  4  1  0  0  0  0
  6  8  1  0  0  0  0
  6  1  1  0  0  0  0
  7  2  2  0  0  0  0
  8  7  1  0  0  0  0
  9 13  1  0  0  0  0
 10 14  2  0  0  0  0
 11 10  1  0  0  0  0
 11  9  2  0  0  0  0
 13 12  2  0  0  0  0
 14  3  1  0  0  0  0
 14 12  1  0  0  0  0
 15 16  2  0  0  0  0
 16 11  1  0  0  0  0
 17 16  1  0  0  0  0
 18 17  1  0  0  0  0
 19 18  1  0  0  0  0
 20 19  1  0  0  0  0
 21 20  1  0  0  0  0
 22 24  2  0  0  0  0
 23 21  1  0  0  0  0
 23 24  1  0  0  0  0
 24 25  1  0  0  0  0
 26 45  1  1  0  0  0
 26  5  1  0  0  0  0
 27 30  1  1  0  0  0
 27 28  1  0  0  0  0
 27 29  1  0  0  0  0
 28 31  1  1  0  0  0
 28 29  1  0  0  0  0
 29 26  1  6  0  0  0
 32 31  1  0  0  0  0
 32 33  1  0  0  0  0
 33 34  2  6  0  0  0
 33 35  1  0  0  0  0
 36 38  1  0  0  0  0
 37 43  1  0  0  0  0
 37 40  1  0  0  0  0
 38 39  1  1  0  0  0
 40 41  1  6  0  0  0
 40 42  1  0  0  0  0
 42 41  1  6  0  0  0
 42 38  1  0  0  0  0
 43 33  1  6  0  0  0
 43 36  1  0  0  0  0
 45 44  1  0  0  0  0
M  END
>  <MODEL>
5

>  <REMARK>
 VINA RESULT:      -6.5      1.575      2.285
  Name = 
  14 active torsions:
  status: ('A' for Active; 'I' for Inactive)
    1  A    between atoms: N_2  and  C_34
    2  A    between atoms: N_2  and  N_37
    3  A    between atoms: P_6  and  O_21
    4  A    between atoms: P_6  and  C_45
    5  A    between atoms: N_7  and  C_34
    6  A    between atoms: C_11  and  O_21
    7  A    between atoms: C_11  and  C_22
    8  A    between atoms: C_12  and  C_29
    9  A    between atoms: C_20  and  C_36
   10  A    between atoms: O_26  and  C_33
   11  A    between atoms: C_27  and  C_33
   12  A    between atoms: C_30  and  C_33
   13  A    between atoms: N_35  and  C_39
   14  A    between atoms: N_37  and  C_39
                            x       y       z     vdW  Elec       q    Type
                         _______ _______ _______ _____ _____    ______ ____

>  <TORSDO>
F 14

$$$$
=
 OpenBabel11042414173D

 45 50  0  0  1  0  0  0  0  0999 V2000
  184.7160  178.2130  144.8960 C   0  0  0  0  0  2  0  0  0  0  0  0
  184.0930  178.7170  146.0500 C   0  0  0  0  0  3  0  0  0  0  0  0
  187.0040  177.1500  144.8450 C   0  0  0  0  0  0  0  0  0  0  0  0
  187.2030  177.4790  147.0910 N   0  0  0  0  0  0  0  0  0  0  0  0
  187.8240  176.9870  145.9800 C   0  0  0  0  0  0  0  0  0  0  0  0
  185.8950  177.7380  145.3030 N   0  0  0  0  0  0  0  0  0  0  0  0
  184.9460  178.5270  147.1570 C   0  0  0  0  0  3  0  0  0  0  0  0
  186.0340  177.9150  146.5870 C   0  0  0  0  0  0  0  0  0  0  0  0
  187.6990  176.1090  140.7990 C   0  0  0  0  0  3  0  0  0  0  0  0
  187.5510  175.5030  143.0960 N   0  0  0  0  0  0  0  0  0  0  0  0
  187.7780  175.1430  141.8060 C   0  0  0  0  0  0  0  0  0  0  0  0
  187.1740  177.7330  142.4630 N   0  0  0  0  0  0  0  0  0  0  0  0
  187.3910  177.4200  141.1590 C   0  0  0  0  0  3  0  0  0  0  0  0
  187.2490  176.7840  143.4350 C   0  0  0  0  0  0  0  0  0  0  0  0
  187.3560  172.8100  141.8780 O   0  0  0  0  0  0  0  0  0  0  0  0
  188.1070  173.7450  141.4870 C   0  0  0  0  0  0  0  0  0  0  0  0
  189.2810  173.4520  140.7250 N   0  0  0  0  0  2  0  0  0  0  0  0
  189.6820  172.0940  140.3940 C   0  0  0  0  0  2  0  0  0  0  0  0
  191.0140  172.1020  139.8150 N   0  0  0  0  0  2  0  0  0  0  0  0
  191.1980  173.3720  139.2500 N   0  0  0  0  0  2  0  0  0  0  0  0
  192.5510  173.7910  139.5770 C   0  0  0  0  0  2  0  0  0  0  0  0
  194.9980  175.3550  137.3500 O   0  0  0  0  0  0  0  0  0  0  0  0
  193.2210  174.2700  138.3780 N   0  0  0  0  0  2  0  0  0  0  0  0
  194.4670  174.9680  138.4230 C   0  0  0  0  0  0  0  0  0  0  0  0
  195.1510  175.2460  139.7170 C   0  0  0  0  0  1  0  0  0  0  0  0
  189.1960  176.3820  146.0450 C   0  0  2  0  0  3  0  0  0  0  0  0
  190.5480  175.7550  144.0540 C   0  0  1  0  0  3  0  0  0  0  0  0
  191.4860  176.3740  145.0940 C   0  0  2  0  0  3  0  0  0  0  0  0
  190.0790  176.9060  144.9220 C   0  0  2  0  0  3  0  0  0  0  0  0
  190.8030  176.2230  142.7610 O   0  0  0  0  0  1  0  0  0  0  0  0
  192.4810  177.3760  144.5230 C   0  0  0  0  0  2  0  0  0  0  0  0
  193.6610  177.3520  145.2720 O   0  0  0  0  0  0  0  0  0  0  0  0
  194.6350  176.1490  144.5740 P   0  0  2  0  0  0  0  0  0  0  0  0
  196.0160  176.7050  144.3020 O   0  0  0  0  0  1  0  0  0  0  0  0
  193.9390  175.6760  143.1080 O   0  0  0  0  0  0  0  0  0  0  0  0
  193.8940  173.5410  145.2730 C   0  0  0  0  0  2  0  0  0  0  0  0
  196.1180  174.4170  146.0420 O   0  0  0  0  0  0  0  0  0  0  0  0
  194.5840  172.2230  145.5850 C   0  0  1  0  0  3  0  0  0  0  0  0
  193.8290  171.1710  145.0700 O   0  0  0  0  0  1  0  0  0  0  0  0
  196.8100  173.4340  145.2630 C   0  0  2  0  0  3  0  0  0  0  0  0
  196.2640  173.1070  143.8760 C   0  0  0  0  0  2  0  0  0  0  0  0
  196.0150  172.1470  145.0370 C   0  0  2  0  0  3  0  0  0  0  0  0
  194.7710  174.7160  145.6960 C   0  0  1  0  0  3  0  0  0  0  0  0
  189.2130  174.5790  147.3300 C   0  0  0  0  0  1  0  0  0  0  0  0
  189.1210  174.9880  145.9990 O   0  0  0  0  0  0  0  0  0  0  0  0
  1  6  1  0  0  0  0
  1  2  1  0  0  0  0
  2  7  2  0  0  0  0
  3  6  1  0  0  0  0
  3  5  2  0  0  0  0
  5 26  1  0  0  0  0
  5  4  1  0  0  0  0
  6  8  1  0  0  0  0
  8  4  2  0  0  0  0
  8  7  1  0  0  0  0
  9 13  1  0  0  0  0
  9 11  2  0  0  0  0
 10 14  2  0  0  0  0
 11 10  1  0  0  0  0
 12 14  1  0  0  0  0
 13 12  2  0  0  0  0
 14  3  1  0  0  0  0
 16 11  1  0  0  0  0
 16 15  2  0  0  0  0
 17 16  1  0  0  0  0
 18 17  1  0  0  0  0
 19 18  1  0  0  0  0
 20 21  1  0  0  0  0
 20 19  1  0  0  0  0
 22 24  2  0  0  0  0
 23 24  1  0  0  0  0
 23 21  1  0  0  0  0
 24 25  1  0  0  0  0
 26 45  1  6  0  0  0
 27 30  1  6  0  0  0
 27 29  1  0  0  0  0
 27 28  1  0  0  0  0
 28 31  1  6  0  0  0
 29 28  1  0  0  0  0
 29 26  1  1  0  0  0
 31 32  1  0  0  0  0
 33 35  2  6  0  0  0
 33 32  1  0  0  0  0
 34 33  1  0  0  0  0
 36 38  1  0  0  0  0
 36 43  1  0  0  0  0
 38 39  1  6  0  0  0
 40 41  1  6  0  0  0
 40 37  1  0  0  0  0
 42 41  1  6  0  0  0
 42 40  1  0  0  0  0
 42 38  1  0  0  0  0
 43 33  1  6  0  0  0
 43 37  1  0  0  0  0
 45 44  1  0  0  0  0
M  END
>  <MODEL>
6

>  <REMARK>
 VINA RESULT:      -6.5      2.854      7.270
  Name = 
  14 active torsions:
  status: ('A' for Active; 'I' for Inactive)
    1  A    between atoms: N_2  and  C_34
    2  A    between atoms: N_2  and  N_37
    3  A    between atoms: P_6  and  O_21
    4  A    between atoms: P_6  and  C_45
    5  A    between atoms: N_7  and  C_34
    6  A    between atoms: C_11  and  O_21
    7  A    between atoms: C_11  and  C_22
    8  A    between atoms: C_12  and  C_29
    9  A    between atoms: C_20  and  C_36
   10  A    between atoms: O_26  and  C_33
   11  A    between atoms: C_27  and  C_33
   12  A    between atoms: C_30  and  C_33
   13  A    between atoms: N_35  and  C_39
   14  A    between atoms: N_37  and  C_39
                            x       y       z     vdW  Elec       q    Type
                         _______ _______ _______ _____ _____    ______ ____

>  <TORSDO>
F 14

$$$$
=
 OpenBabel11042414173D

 45 50  0  0  1  0  0  0  0  0999 V2000
  191.4060  174.5450  136.5490 C   0  0  0  0  0  2  0  0  0  0  0  0
  190.2680  174.7070  135.7420 C   0  0  0  0  0  3  0  0  0  0  0  0
  191.3990  173.5120  138.8520 C   0  0  0  0  0  0  0  0  0  0  0  0
  189.1490  173.1860  138.6950 N   0  0  0  0  0  0  0  0  0  0  0  0
  190.2440  173.0220  139.4940 C   0  0  0  0  0  0  0  0  0  0  0  0
  190.9720  173.9580  137.6680 N   0  0  0  0  0  0  0  0  0  0  0  0
  189.1410  174.2000  136.4220 C   0  0  0  0  0  3  0  0  0  0  0  0
  189.6850  173.7620  137.6030 C   0  0  0  0  0  0  0  0  0  0  0  0
  195.4150  173.6340  140.1910 C   0  0  0  0  0  3  0  0  0  0  0  0
  193.2100  174.5310  140.1760 N   0  0  0  0  0  0  0  0  0  0  0  0
  194.4930  174.5920  140.6200 C   0  0  0  0  0  0  0  0  0  0  0  0
  193.6910  172.6230  138.8920 N   0  0  0  0  0  0  0  0  0  0  0  0
  194.9820  172.6430  139.3110 C   0  0  0  0  0  3  0  0  0  0  0  0
  192.7990  173.5580  139.3200 C   0  0  0  0  0  0  0  0  0  0  0  0
  194.8270  176.8720  141.1800 O   0  0  0  0  0  0  0  0  0  0  0  0
  194.8930  175.6660  141.5420 C   0  0  0  0  0  0  0  0  0  0  0  0
  195.3500  175.3340  142.8560 N   0  0  0  0  0  2  0  0  0  0  0  0
  195.7850  176.3400  143.8120 C   0  0  0  0  0  2  0  0  0  0  0  0
  195.2050  176.0640  145.1140 N   0  0  0  0  0  2  0  0  0  0  0  0
  194.0190  176.8070  145.1920 N   0  0  0  0  0  2  0  0  0  0  0  0
  192.9360  175.8610  145.4010 C   0  0  0  0  0  2  0  0  0  0  0  0
  189.6610  177.0500  146.5220 O   0  0  0  0  0  0  0  0  0  0  0  0
  191.6670  176.5700  145.4550 N   0  0  0  0  0  2  0  0  0  0  0  0
  190.7430  176.4070  146.5320 C   0  0  0  0  0  0  0  0  0  0  0  0
  191.0350  175.4900  147.6700 C   0  0  0  0  0  1  0  0  0  0  0  0
  190.1400  172.4070  140.8580 C   0  0  2  0  0  3  0  0  0  0  0  0
  189.4070  172.9080  143.1810 C   0  0  1  0  0  3  0  0  0  0  0  0
  188.6060  173.7960  142.2250 C   0  0  2  0  0  3  0  0  0  0  0  0
  190.0580  173.4770  141.9370 C   0  0  2  0  0  3  0  0  0  0  0  0
  189.8610  173.6070  144.3040 O   0  0  0  0  0  1  0  0  0  0  0  0
  188.4850  175.2470  142.6720 C   0  0  0  0  0  2  0  0  0  0  0  0
  187.6750  175.9520  141.7760 O   0  0  0  0  0  0  0  0  0  0  0  0
  187.1660  177.3460  142.6020 P   0  0  2  0  0  0  0  0  0  0  0  0
  186.7580  178.4090  141.6040 O   0  0  0  0  0  0  0  0  0  0  0  0
  188.4590  177.9290  143.5220 O   0  0  0  0  0  1  0  0  0  0  0  0
  186.1200  176.9200  145.1630 C   0  0  0  0  0  2  0  0  0  0  0  0
  184.5780  177.6880  143.3360 O   0  0  0  0  0  0  0  0  0  0  0  0
  184.9770  177.4510  146.0120 C   0  0  1  0  0  3  0  0  0  0  0  0
  185.3850  177.5340  147.3420 O   0  0  0  0  0  1  0  0  0  0  0  0
  184.3240  178.9180  144.0240 C   0  0  2  0  0  3  0  0  0  0  0  0
  185.4950  179.5990  144.7280 C   0  0  0  0  0  2  0  0  0  0  0  0
  184.4650  178.8210  145.5450 C   0  0  2  0  0  3  0  0  0  0  0  0
  185.7490  176.9580  143.6840 C   0  0  1  0  0  3  0  0  0  0  0  0
  190.8160  170.3150  140.5990 C   0  0  0  0  0  1  0  0  0  0  0  0
  191.2210  171.5540  141.0970 O   0  0  0  0  0  0  0  0  0  0  0  0
  1  6  1  0  0  0  0
  2  7  2  0  0  0  0
  2  1  1  0  0  0  0
  3 14  1  0  0  0  0
  3  5  2  0  0  0  0
  4  5  1  0  0  0  0
  5 26  1  0  0  0  0
  6  3  1  0  0  0  0
  7  8  1  0  0  0  0
  8  6  1  0  0  0  0
  8  4  2  0  0  0  0
  9 11  2  0  0  0  0
 10 11  1  0  0  0  0
 11 16  1  0  0  0  0
 12 13  2  0  0  0  0
 12 14  1  0  0  0  0
 13  9  1  0  0  0  0
 14 10  2  0  0  0  0
 15 16  2  0  0  0  0
 16 17  1  0  0  0  0
 17 18  1  0  0  0  0
 18 19  1  0  0  0  0
 19 20  1  0  0  0  0
 20 21  1  0  0  0  0
 21 23  1  0  0  0  0
 22 24  2  0  0  0  0
 23 24  1  0  0  0  0
 24 25  1  0  0  0  0
 26 45  1  1  0  0  0
 27 30  1  1  0  0  0
 28 31  1  1  0  0  0
 28 27  1  0  0  0  0
 29 26  1  6  0  0  0
 29 28  1  0  0  0  0
 29 27  1  0  0  0  0
 32 33  1  0  0  0  0
 32 31  1  0  0  0  0
 33 34  2  6  0  0  0
 33 35  1  0  0  0  0
 36 38  1  0  0  0  0
 37 43  1  0  0  0  0
 37 40  1  0  0  0  0
 38 39  1  1  0  0  0
 40 41  1  6  0  0  0
 40 42  1  0  0  0  0
 42 41  1  6  0  0  0
 42 38  1  0  0  0  0
 43 33  1  6  0  0  0
 43 36  1  0  0  0  0
 44 45  1  0  0  0  0
M  END
>  <MODEL>
7

>  <REMARK>
 VINA RESULT:      -6.4      1.668      5.594
  Name = 
  14 active torsions:
  status: ('A' for Active; 'I' for Inactive)
    1  A    between atoms: N_2  and  C_34
    2  A    between atoms: N_2  and  N_37
    3  A    between atoms: P_6  and  O_21
    4  A    between atoms: P_6  and  C_45
    5  A    between atoms: N_7  and  C_34
    6  A    between atoms: C_11  and  O_21
    7  A    between atoms: C_11  and  C_22
    8  A    between atoms: C_12  and  C_29
    9  A    between atoms: C_20  and  C_36
   10  A    between atoms: O_26  and  C_33
   11  A    between atoms: C_27  and  C_33
   12  A    between atoms: C_30  and  C_33
   13  A    between atoms: N_35  and  C_39
   14  A    between atoms: N_37  and  C_39
                            x       y       z     vdW  Elec       q    Type
                         _______ _______ _______ _____ _____    ______ ____

>  <TORSDO>
F 14

$$$$
=
 OpenBabel11042414173D

 45 50  0  0  1  0  0  0  0  0999 V2000
  193.8000  170.1600  142.3540 C   0  0  0  0  0  2  0  0  0  0  0  0
  193.2820  168.9050  142.7110 C   0  0  0  0  0  3  0  0  0  0  0  0
  192.4540  172.0300  141.3230 C   0  0  0  0  0  0  0  0  0  0  0  0
  190.5910  170.7170  141.3860 N   0  0  0  0  0  0  0  0  0  0  0  0
  191.0780  171.9420  141.0300 C   0  0  0  0  0  0  0  0  0  0  0  0
  192.7680  170.8460  141.8580 N   0  0  0  0  0  0  0  0  0  0  0  0
  191.9060  168.8670  142.4060 C   0  0  0  0  0  3  0  0  0  0  0  0
  191.6880  170.1160  141.8810 C   0  0  0  0  0  0  0  0  0  0  0  0
  195.1760  175.2150  140.7070 C   0  0  0  0  0  3  0  0  0  0  0  0
  193.8100  173.9100  142.1550 N   0  0  0  0  0  0  0  0  0  0  0  0
  194.6830  174.9370  141.9850 C   0  0  0  0  0  0  0  0  0  0  0  0
  193.8720  173.4070  139.8620 N   0  0  0  0  0  0  0  0  0  0  0  0
  194.7470  174.4220  139.6430 C   0  0  0  0  0  3  0  0  0  0  0  0
  193.4020  173.1420  141.1110 C   0  0  0  0  0  0  0  0  0  0  0  0
  195.8880  176.7120  142.9960 O   0  0  0  0  0  0  0  0  0  0  0  0
  195.0930  175.7440  143.1440 C   0  0  0  0  0  0  0  0  0  0  0  0
  194.5790  175.4280  144.4410 N   0  0  0  0  0  2  0  0  0  0  0  0
  194.9590  176.1650  145.6360 C   0  0  0  0  0  2  0  0  0  0  0  0
  193.8080  176.3110  146.5100 N   0  0  0  0  0  2  0  0  0  0  0  0
  193.0120  175.1730  146.3190 N   0  0  0  0  0  2  0  0  0  0  0  0
  191.9090  175.2620  147.2610 C   0  0  0  0  0  2  0  0  0  0  0  0
  189.1240  177.5690  146.7020 O   0  0  0  0  0  0  0  0  0  0  0  0
  191.1500  176.4780  147.0180 N   0  0  0  0  0  2  0  0  0  0  0  0
  189.7250  176.4840  146.9120 C   0  0  0  0  0  0  0  0  0  0  0  0
  188.9340  175.2270  147.0470 C   0  0  0  0  0  1  0  0  0  0  0  0
  190.2010  172.9900  140.4090 C   0  0  2  0  0  3  0  0  0  0  0  0
  189.9530  173.9180  142.7030 C   0  0  1  0  0  3  0  0  0  0  0  0
  188.8110  174.4610  141.8410 C   0  0  2  0  0  3  0  0  0  0  0  0
  190.1890  174.2600  141.2460 C   0  0  2  0  0  3  0  0  0  0  0  0
  190.5280  174.9030  143.5110 O   0  0  0  0  0  1  0  0  0  0  0  0
  188.5470  175.9510  142.0190 C   0  0  0  0  0  2  0  0  0  0  0  0
  187.2320  176.2470  141.6480 O   0  0  0  0  0  0  0  0  0  0  0  0
  186.7690  177.5820  142.5900 P   0  0  2  0  0  0  0  0  0  0  0  0
  186.1800  178.6550  141.6990 O   0  0  0  0  0  0  0  0  0  0  0  0
  188.1410  178.2020  143.3570 O   0  0  0  0  0  1  0  0  0  0  0  0
  186.1400  176.7550  145.1900 C   0  0  0  0  0  2  0  0  0  0  0  0
  184.3810  177.9220  143.8300 O   0  0  0  0  0  0  0  0  0  0  0  0
  185.2060  177.1840  146.3090 C   0  0  1  0  0  3  0  0  0  0  0  0
  185.8400  177.0020  147.5370 O   0  0  0  0  0  1  0  0  0  0  0  0
  184.3520  179.0190  144.7510 C   0  0  2  0  0  3  0  0  0  0  0  0
  185.6780  179.4970  145.3340 C   0  0  0  0  0  2  0  0  0  0  0  0
  184.7400  178.6400  146.1810 C   0  0  2  0  0  3  0  0  0  0  0  0
  185.5270  177.0800  143.8300 C   0  0  1  0  0  3  0  0  0  0  0  0
  188.5990  172.7580  138.8990 C   0  0  0  0  0  1  0  0  0  0  0  0
  188.9020  172.5050  140.2370 O   0  0  0  0  0  0  0  0  0  0  0  0
  1  2  1  0  0  0  0
  3  6  1  0  0  0  0
  4  8  2  0  0  0  0
  5  3  2  0  0  0  0
  5  4  1  0  0  0  0
  6  8  1  0  0  0  0
  6  1  1  0  0  0  0
  7  2  2  0  0  0  0
  8  7  1  0  0  0  0
  9 11  2  0  0  0  0
 11 10  1  0  0  0  0
 11 16  1  0  0  0  0
 12 14  1  0  0  0  0
 13 12  2  0  0  0  0
 13  9  1  0  0  0  0
 14  3  1  0  0  0  0
 14 10  2  0  0  0  0
 15 16  2  0  0  0  0
 16 17  1  0  0  0  0
 17 18  1  0  0  0  0
 18 19  1  0  0  0  0
 20 19  1  0  0  0  0
 20 21  1  0  0  0  0
 22 24  2  0  0  0  0
 23 21  1  0  0  0  0
 24 23  1  0  0  0  0
 24 25  1  0  0  0  0
 26 45  1  1  0  0  0
 26  5  1  0  0  0  0
 27 30  1  1  0  0  0
 28 31  1  1  0  0  0
 28 27  1  0  0  0  0
 29 26  1  6  0  0  0
 29 28  1  0  0  0  0
 29 27  1  0  0  0  0
 32 31  1  0  0  0  0
 32 33  1  0  0  0  0
 33 34  2  6  0  0  0
 33 35  1  0  0  0  0
 36 38  1  0  0  0  0
 37 40  1  0  0  0  0
 38 39  1  1  0  0  0
 40 41  1  6  0  0  0
 40 42  1  0  0  0  0
 42 41  1  6  0  0  0
 42 38  1  0  0  0  0
 43 33  1  6  0  0  0
 43 37  1  0  0  0  0
 43 36  1  0  0  0  0
 44 45  1  0  0  0  0
M  END
>  <MODEL>
8

>  <REMARK>
 VINA RESULT:      -6.3      1.899      5.253
  Name = 
  14 active torsions:
  status: ('A' for Active; 'I' for Inactive)
    1  A    between atoms: N_2  and  C_34
    2  A    between atoms: N_2  and  N_37
    3  A    between atoms: P_6  and  O_21
    4  A    between atoms: P_6  and  C_45
    5  A    between atoms: N_7  and  C_34
    6  A    between atoms: C_11  and  O_21
    7  A    between atoms: C_11  and  C_22
    8  A    between atoms: C_12  and  C_29
    9  A    between atoms: C_20  and  C_36
   10  A    between atoms: O_26  and  C_33
   11  A    between atoms: C_27  and  C_33
   12  A    between atoms: C_30  and  C_33
   13  A    between atoms: N_35  and  C_39
   14  A    between atoms: N_37  and  C_39
                            x       y       z     vdW  Elec       q    Type
                         _______ _______ _______ _____ _____    ______ ____

>  <TORSDO>
F 14

$$$$
=
 OpenBabel11042414173D

 45 50  0  0  1  0  0  0  0  0999 V2000
  191.7940  175.4010  146.9840 C   0  0  0  0  0  2  0  0  0  0  0  0
  190.7080  175.4320  147.8740 C   0  0  0  0  0  3  0  0  0  0  0  0
  191.7100  174.4580  144.6450 C   0  0  0  0  0  0  0  0  0  0  0  0
  189.5120  173.9320  144.9410 N   0  0  0  0  0  0  0  0  0  0  0  0
  190.5580  173.8910  144.0640 C   0  0  0  0  0  0  0  0  0  0  0  0
  191.3280  174.8360  145.8680 N   0  0  0  0  0  0  0  0  0  0  0  0
  189.5800  174.8610  147.2480 C   0  0  0  0  0  3  0  0  0  0  0  0
  190.0700  174.5230  146.0120 C   0  0  0  0  0  0  0  0  0  0  0  0
  195.6030  174.9570  143.0540 C   0  0  0  0  0  3  0  0  0  0  0  0
  193.8430  173.5460  143.8160 N   0  0  0  0  0  0  0  0  0  0  0  0
  195.0950  173.6790  143.3050 C   0  0  0  0  0  0  0  0  0  0  0  0
  193.5550  175.8770  143.8550 N   0  0  0  0  0  0  0  0  0  0  0  0
  194.8000  176.0590  143.3430 C   0  0  0  0  0  3  0  0  0  0  0  0
  193.0680  174.6280  144.0910 C   0  0  0  0  0  0  0  0  0  0  0  0
  196.8370  172.1480  143.8020 O   0  0  0  0  0  0  0  0  0  0  0  0
  195.8990  172.4790  143.0270 C   0  0  0  0  0  0  0  0  0  0  0  0
  195.6060  171.6840  141.8740 N   0  0  0  0  0  2  0  0  0  0  0  0
  196.3730  170.5000  141.5230 C   0  0  0  0  0  2  0  0  0  0  0  0
  195.6310  169.3070  141.8920 N   0  0  0  0  0  2  0  0  0  0  0  0
  196.4460  168.5840  142.7750 N   0  0  0  0  0  2  0  0  0  0  0  0
  195.6050  168.1670  143.8850 C   0  0  0  0  0  2  0  0  0  0  0  0
  194.5710  170.8610  146.1340 O   0  0  0  0  0  0  0  0  0  0  0  0
  195.6250  169.1820  144.9260 N   0  0  0  0  0  2  0  0  0  0  0  0
  194.4920  170.0010  145.2200 C   0  0  0  0  0  0  0  0  0  0  0  0
  193.2160  169.8560  144.4630 C   0  0  0  0  0  1  0  0  0  0  0  0
  190.4160  173.2970  142.6930 C   0  0  2  0  0  3  0  0  0  0  0  0
  189.3170  174.1650  140.6380 C   0  0  1  0  0  3  0  0  0  0  0  0
  189.0930  175.1770  141.7630 C   0  0  2  0  0  3  0  0  0  0  0  0
  189.0900  173.6920  142.0590 C   0  0  2  0  0  3  0  0  0  0  0  0
  188.1610  173.9410  139.8840 O   0  0  0  0  0  1  0  0  0  0  0  0
  187.6700  175.7140  141.8490 C   0  0  0  0  0  2  0  0  0  0  0  0
  187.1200  175.4030  143.0960 O   0  0  0  0  0  0  0  0  0  0  0  0
  186.5060  176.8610  143.7140 P   0  0  2  0  0  0  0  0  0  0  0  0
  185.2160  177.2120  143.0040 O   0  0  0  0  0  0  0  0  0  0  0  0
  187.6360  178.0850  143.4290 O   0  0  0  0  0  1  0  0  0  0  0  0
  187.2110  177.4400  146.3610 C   0  0  0  0  0  2  0  0  0  0  0  0
  184.8160  176.8990  145.8350 O   0  0  0  0  0  0  0  0  0  0  0  0
  186.5480  178.0250  147.5970 C   0  0  1  0  0  3  0  0  0  0  0  0
  187.4700  178.8050  148.2920 O   0  0  0  0  0  1  0  0  0  0  0  0
  184.4000  178.2120  146.2260 C   0  0  2  0  0  3  0  0  0  0  0  0
  185.2910  179.3890  145.8400 C   0  0  0  0  0  2  0  0  0  0  0  0
  185.3050  178.8640  147.2740 C   0  0  2  0  0  3  0  0  0  0  0  0
  186.1850  176.7030  145.5040 C   0  0  1  0  0  3  0  0  0  0  0  0
  191.3910  171.5810  141.6900 C   0  0  0  0  0  1  0  0  0  0  0  0
  190.5370  171.9060  142.7450 O   0  0  0  0  0  0  0  0  0  0  0  0
  1  2  1  0  0  0  0
  3  6  1  0  0  0  0
  4  8  2  0  0  0  0
  5  3  2  0  0  0  0
  5  4  1  0  0  0  0
  6  8  1  0  0  0  0
  6  1  1  0  0  0  0
  7  2  2  0  0  0  0
  8  7  1  0  0  0  0
  9 11  2  0  0  0  0
  9 13  1  0  0  0  0
 10 14  2  0  0  0  0
 11 10  1  0  0  0  0
 12 14  1  0  0  0  0
 13 12  2  0  0  0  0
 14  3  1  0  0  0  0
 16 11  1  0  0  0  0
 16 15  2  0  0  0  0
 17 16  1  0  0  0  0
 18 17  1  0  0  0  0
 18 19  1  0  0  0  0
 19 20  1  0  0  0  0
 20 21  1  0  0  0  0
 21 23  1  0  0  0  0
 23 24  1  0  0  0  0
 24 22  2  0  0  0  0
 25 24  1  0  0  0  0
 26 45  1  1  0  0  0
 26  5  1  0  0  0  0
 27 30  1  6  0  0  0
 27 28  1  0  0  0  0
 27 29  1  0  0  0  0
 28 31  1  6  0  0  0
 28 29  1  0  0  0  0
 29 26  1  1  0  0  0
 31 32  1  0  0  0  0
 32 33  1  0  0  0  0
 33 34  2  6  0  0  0
 35 33  1  0  0  0  0
 36 38  1  0  0  0  0
 37 40  1  0  0  0  0
 38 39  1  6  0  0  0
 40 41  1  6  0  0  0
 40 42  1  0  0  0  0
 42 41  1  6  0  0  0
 42 38  1  0  0  0  0
 43 33  1  6  0  0  0
 43 37  1  0  0  0  0
 43 36  1  0  0  0  0
 44 45  1  0  0  0  0
M  END
>  <MODEL>
9

>  <REMARK>
 VINA RESULT:      -6.3      2.494      3.961
  Name = 
  14 active torsions:
  status: ('A' for Active; 'I' for Inactive)
    1  A    between atoms: N_2  and  C_34
    2  A    between atoms: N_2  and  N_37
    3  A    between atoms: P_6  and  O_21
    4  A    between atoms: P_6  and  C_45
    5  A    between atoms: N_7  and  C_34
    6  A    between atoms: C_11  and  O_21
    7  A    between atoms: C_11  and  C_22
    8  A    between atoms: C_12  and  C_29
    9  A    between atoms: C_20  and  C_36
   10  A    between atoms: O_26  and  C_33
   11  A    between atoms: C_27  and  C_33
   12  A    between atoms: C_30  and  C_33
   13  A    between atoms: N_35  and  C_39
   14  A    between atoms: N_37  and  C_39
                            x       y       z     vdW  Elec       q    Type
                         _______ _______ _______ _____ _____    ______ ____

>  <TORSDO>
F 14

$$$$
