=
 OpenBabel11042419233D

 42 47  0  0  1  0  0  0  0  0999 V2000
  190.5780  173.7380  141.6970 C   0  0  1  0  0  3  0  0  0  0  0  0
  191.8510  176.9440  144.5190 S   0  0  0  0  0  0  0  0  0  0  0  0
  192.6690  175.6290  145.4030 C   0  0  0  0  0  0  0  0  0  0  0  0
  191.6930  173.8010  142.7510 C   0  0  0  0  0  2  0  0  0  0  0  0
  189.5480  174.8700  141.8340 C   0  0  0  0  0  2  0  0  0  0  0  0
  192.2730  174.3990  145.0820 C   0  0  0  0  0  0  0  0  0  0  0  0
  192.8670  173.1620  145.6790 C   0  0  0  0  0  1  0  0  0  0  0  0
  191.1680  174.3230  144.0880 C   0  0  1  0  0  3  0  0  0  0  0  0
  190.1340  176.0990  142.5330 C   0  0  2  0  0  3  0  0  0  0  0  0
  190.5940  175.7490  143.9540 C   0  0  2  0  0  3  0  0  0  0  0  0
  188.1830  177.1050  143.4220 C   0  0  0  0  0  3  0  0  0  0  0  0
  189.1570  177.1550  142.5880 N   0  0  0  0  0  0  0  0  0  0  0  0
  185.9470  177.7380  144.2600 C   0  0  2  0  0  3  0  0  0  0  0  0
  186.6720  178.5100  142.1020 C   0  0  0  0  0  3  0  0  0  0  0  0
  184.9240  178.8420  144.4820 C   0  0  1  0  0  0  0  0  0  0  0  0
  187.1730  178.2040  143.4710 C   0  0  2  0  0  3  0  0  0  0  0  0
  185.2640  180.1670  144.1770 O   0  0  0  0  0  1  0  0  0  0  0  0
  185.3580  178.3670  142.0280 C   0  0  0  0  0  3  0  0  0  0  0  0
  184.7470  177.8900  143.3080 C   0  0  1  0  0  3  0  0  0  0  0  0
  183.9690  178.6350  145.5620 N   0  0  0  0  0  2  0  0  0  0  0  0
  185.4280  178.7630  147.4930 C   0  0  0  0  0  1  0  0  0  0  0  0
  184.6200  177.8480  146.5970 C   0  0  0  0  0  2  0  0  0  0  0  0
  191.1720  173.7560  140.2970 C   0  0  0  0  0  2  0  0  0  0  0  0
  190.5400  172.6920  139.4140 C   0  0  0  0  0  2  0  0  0  0  0  0
  189.3870  173.2250  138.7400 N   0  0  0  0  0  0  0  0  0  0  0  0
  188.2320  172.7120  138.9450 C   0  0  0  0  0  2  0  0  0  0  0  0
  193.7370  175.9310  146.4080 C   0  0  0  0  0  2  0  0  0  0  0  0
  194.9740  176.4720  145.7170 C   0  0  0  0  0  2  0  0  0  0  0  0
  195.8120  175.3170  145.2050 C   0  0  0  0  0  2  0  0  0  0  0  0
  195.4080  174.3100  143.0450 C   0  0  0  0  0  0  0  0  0  0  0  0
  196.3380  176.3780  141.5330 N   0  0  0  0  0  2  0  0  0  0  0  0
  194.9840  173.4000  142.2190 C   0  0  0  0  0  3  0  0  0  0  0  0
  196.1790  176.6040  142.9740 C   0  0  0  0  0  2  0  0  0  0  0  0
  194.7260  172.4810  139.8970 N   0  0  0  0  0  0  0  0  0  0  0  0
  194.8180  175.0450  138.6860 C   0  0  0  0  0  2  0  0  0  0  0  0
  194.4610  172.6190  138.4690 C   0  0  0  0  0  2  0  0  0  0  0  0
  195.0150  176.1710  140.9490 C   0  0  0  0  0  2  0  0  0  0  0  0
  195.2430  173.7980  137.9240 C   0  0  0  0  0  2  0  0  0  0  0  0
  194.9650  174.8790  140.1750 C   0  0  0  0  0  0  0  0  0  0  0  0
  194.8740  171.1310  140.4210 C   0  0  0  0  0  1  0  0  0  0  0  0
  194.8840  173.6390  140.7490 C   0  0  0  0  0  0  0  0  0  0  0  0
  195.8520  175.3330  143.7160 C   0  0  0  0  0  0  0  0  0  0  0  0
  1 23  1  6  0  0  0
  1  5  1  0  0  0  0
  1  4  1  0  0  0  0
  2  3  1  0  0  0  0
  3 27  1  0  0  0  0
  5  9  1  0  0  0  0
  6  3  2  0  0  0  0
  6  7  1  0  0  0  0
  8  4  1  6  0  0  0
  8  6  1  0  0  0  0
  9 12  1  1  0  0  0
  9 10  1  0  0  0  0
 10  8  1  0  0  0  0
 10  2  1  6  0  0  0
 11 16  1  0  0  0  0
 12 11  2  0  0  0  0
 13 15  1  0  0  0  0
 14 16  1  0  0  0  0
 15 20  1  0  0  0  0
 16 13  1  0  0  0  0
 17 15  1  0  0  0  0
 18 14  2  0  0  0  0
 18 19  1  0  0  0  0
 19 13  1  0  0  0  0
 19 15  1  0  0  0  0
 20 22  1  0  0  0  0
 22 21  1  0  0  0  0
 24 23  1  0  0  0  0
 25 26  2  0  0  0  0
 25 24  1  0  0  0  0
 28 27  1  0  0  0  0
 29 28  1  0  0  0  0
 30 42  2  0  0  0  0
 31 33  1  0  0  0  0
 32 30  2  0  0  0  0
 33 42  1  0  0  0  0
 34 40  1  0  0  0  0
 34 41  1  0  0  0  0
 35 39  1  0  0  0  0
 36 34  1  0  0  0  0
 37 31  1  0  0  0  0
 38 36  1  0  0  0  0
 38 35  1  0  0  0  0
 39 41  2  0  0  0  0
 39 37  1  0  0  0  0
 41 32  1  0  0  0  0
 42 29  1  0  0  0  0
M  END
>  <MODEL>
1

>  <REMARK>
 VINA RESULT:      -6.9      0.000      0.000
  Name = 
  11 active torsions:
  status: ('A' for Active; 'I' for Inactive)
    1  A    between atoms: N_1  and  C_9
    2  A    between atoms: C_3  and  C_6
    3  A    between atoms: C_6  and  C_9
    4  A    between atoms: C_10  and  C_18
    5  A    between atoms: C_10  and  C_35
    6  A    between atoms: C_11  and  C_35
    7  A    between atoms: C_16  and  C_27
    8  A    between atoms: C_18  and  C_41
    9  A    between atoms: N_21  and  C_25
   10  A    between atoms: N_21  and  C_40
   11  A    between atoms: N_29  and  C_38
                            x       y       z     vdW  Elec       q    Type
                         _______ _______ _______ _____ _____    ______ ____

>  <TORSDO>
F 11

$$$$
=
 OpenBabel11042419233D

 42 47  0  0  1  0  0  0  0  0999 V2000
  187.5990  176.9440  142.2780 C   0  0  1  0  0  3  0  0  0  0  0  0
  191.2960  174.8960  143.6900 S   0  0  0  0  0  0  0  0  0  0  0  0
  191.8290  176.5260  144.1790 C   0  0  0  0  0  0  0  0  0  0  0  0
  188.7050  177.3710  143.2550 C   0  0  0  0  0  2  0  0  0  0  0  0
  187.9760  175.7200  141.4300 C   0  0  0  0  0  2  0  0  0  0  0  0
  191.1460  177.5320  143.6360 C   0  0  0  0  0  0  0  0  0  0  0  0
  191.4090  178.9700  143.9530 C   0  0  0  0  0  1  0  0  0  0  0  0
  190.0940  177.1350  142.6610 C   0  0  1  0  0  3  0  0  0  0  0  0
  189.0350  174.8510  142.1140 C   0  0  2  0  0  3  0  0  0  0  0  0
  190.3280  175.6450  142.3380 C   0  0  2  0  0  3  0  0  0  0  0  0
  189.0140  173.6570  140.0690 C   0  0  0  0  0  3  0  0  0  0  0  0
  189.3150  173.6860  141.3150 N   0  0  0  0  0  0  0  0  0  0  0  0
  190.2910  171.5440  139.9960 C   0  0  2  0  0  3  0  0  0  0  0  0
  190.0000  172.8290  137.9850 C   0  0  0  0  0  3  0  0  0  0  0  0
  190.5390  170.2160  139.2950 C   0  0  1  0  0  0  0  0  0  0  0  0
  189.3070  172.4450  139.2480 C   0  0  2  0  0  3  0  0  0  0  0  0
  189.7250  169.8450  138.2170 O   0  0  0  0  0  1  0  0  0  0  0  0
  191.1720  172.2230  137.8780 C   0  0  0  0  0  3  0  0  0  0  0  0
  191.5030  171.3710  139.0620 C   0  0  1  0  0  3  0  0  0  0  0  0
  191.0880  169.1430  140.1120 N   0  0  0  0  0  2  0  0  0  0  0  0
  192.1720  169.3620  142.2690 C   0  0  0  0  0  1  0  0  0  0  0  0
  190.8680  169.4810  141.5090 C   0  0  0  0  0  2  0  0  0  0  0  0
  186.3080  176.6640  143.0320 C   0  0  0  0  0  2  0  0  0  0  0  0
  185.2050  177.6250  142.6160 C   0  0  0  0  0  2  0  0  0  0  0  0
  185.6740  178.9830  142.6890 N   0  0  0  0  0  0  0  0  0  0  0  0
  185.5060  179.6610  143.7610 C   0  0  0  0  0  2  0  0  0  0  0  0
  192.9530  176.7040  145.1530 C   0  0  0  0  0  2  0  0  0  0  0  0
  192.7180  175.8590  146.3900 C   0  0  0  0  0  2  0  0  0  0  0  0
  192.0160  176.6910  147.4450 C   0  0  0  0  0  2  0  0  0  0  0  0
  189.7210  177.4490  147.4260 C   0  0  0  0  0  0  0  0  0  0  0  0
  188.5580  174.9890  147.2600 N   0  0  0  0  0  2  0  0  0  0  0  0
  188.7580  178.3230  147.4120 C   0  0  0  0  0  3  0  0  0  0  0  0
  190.0130  175.0690  147.0890 C   0  0  0  0  0  2  0  0  0  0  0  0
  186.3190  178.9130  147.4750 N   0  0  0  0  0  0  0  0  0  0  0  0
  185.5120  176.4360  146.3540 C   0  0  0  0  0  2  0  0  0  0  0  0
  184.9240  178.7050  147.1060 C   0  0  0  0  0  2  0  0  0  0  0  0
  187.9230  175.6800  146.1410 C   0  0  0  0  0  2  0  0  0  0  0  0
  184.5790  177.2350  147.2520 C   0  0  0  0  0  2  0  0  0  0  0  0
  186.9610  176.7310  146.6340 C   0  0  0  0  0  0  0  0  0  0  0  0
  186.6360  180.1140  148.2350 C   0  0  0  0  0  1  0  0  0  0  0  0
  187.3400  177.9440  147.1420 C   0  0  0  0  0  0  0  0  0  0  0  0
  190.5480  176.4440  147.4000 C   0  0  0  0  0  0  0  0  0  0  0  0
  1 23  1  1  0  0  0
  1  4  1  0  0  0  0
  2  3  1  0  0  0  0
  3 27  1  0  0  0  0
  5  9  1  0  0  0  0
  5  1  1  0  0  0  0
  6  7  1  0  0  0  0
  6  3  2  0  0  0  0
  8  4  1  1  0  0  0
  8  6  1  0  0  0  0
  9 12  1  6  0  0  0
  9 10  1  0  0  0  0
 10  8  1  0  0  0  0
 10  2  1  1  0  0  0
 11 12  2  0  0  0  0
 14 16  1  0  0  0  0
 15 13  1  0  0  0  0
 15 20  1  0  0  0  0
 16 13  1  0  0  0  0
 16 11  1  0  0  0  0
 17 15  1  0  0  0  0
 18 14  2  0  0  0  0
 18 19  1  0  0  0  0
 19 15  1  0  0  0  0
 19 13  1  0  0  0  0
 20 22  1  0  0  0  0
 22 21  1  0  0  0  0
 24 25  1  0  0  0  0
 24 23  1  0  0  0  0
 25 26  2  0  0  0  0
 27 28  1  0  0  0  0
 28 29  1  0  0  0  0
 32 30  2  0  0  0  0
 33 31  1  0  0  0  0
 33 42  1  0  0  0  0
 34 40  1  0  0  0  0
 35 39  1  0  0  0  0
 35 38  1  0  0  0  0
 36 38  1  0  0  0  0
 36 34  1  0  0  0  0
 37 39  1  0  0  0  0
 37 31  1  0  0  0  0
 39 41  2  0  0  0  0
 41 32  1  0  0  0  0
 41 34  1  0  0  0  0
 42 30  2  0  0  0  0
 42 29  1  0  0  0  0
M  END
>  <MODEL>
2

>  <REMARK>
 VINA RESULT:      -6.6      3.596      8.691
  Name = 
  11 active torsions:
  status: ('A' for Active; 'I' for Inactive)
    1  A    between atoms: N_1  and  C_9
    2  A    between atoms: C_3  and  C_6
    3  A    between atoms: C_6  and  C_9
    4  A    between atoms: C_10  and  C_18
    5  A    between atoms: C_10  and  C_35
    6  A    between atoms: C_11  and  C_35
    7  A    between atoms: C_16  and  C_27
    8  A    between atoms: C_18  and  C_41
    9  A    between atoms: N_21  and  C_25
   10  A    between atoms: N_21  and  C_40
   11  A    between atoms: N_29  and  C_38
                            x       y       z     vdW  Elec       q    Type
                         _______ _______ _______ _____ _____    ______ ____

>  <TORSDO>
F 11

$$$$
=
 OpenBabel11042419233D

 42 47  0  0  1  0  0  0  0  0999 V2000
  190.0050  171.7330  140.4700 C   0  0  1  0  0  3  0  0  0  0  0  0
  193.1560  174.7770  141.2830 S   0  0  0  0  0  0  0  0  0  0  0  0
  194.2540  173.3790  141.4280 C   0  0  0  0  0  0  0  0  0  0  0  0
  191.5380  171.6710  140.4110 C   0  0  0  0  0  2  0  0  0  0  0  0
  189.4750  172.9730  141.2050 C   0  0  0  0  0  2  0  0  0  0  0  0
  193.6530  172.2010  141.5830 C   0  0  0  0  0  0  0  0  0  0  0  0
  194.3960  170.9050  141.6790 C   0  0  0  0  0  1  0  0  0  0  0  0
  192.1680  172.2500  141.6780 C   0  0  1  0  0  3  0  0  0  0  0  0
  190.4780  174.1300  141.1800 C   0  0  2  0  0  3  0  0  0  0  0  0
  191.7850  173.7300  141.8760 C   0  0  2  0  0  3  0  0  0  0  0  0
  188.6980  175.2980  142.2160 C   0  0  0  0  0  3  0  0  0  0  0  0
  189.9200  175.2890  141.8260 N   0  0  0  0  0  0  0  0  0  0  0  0
  186.8920  176.1050  143.6960 C   0  0  2  0  0  3  0  0  0  0  0  0
  187.6360  177.4770  141.8680 C   0  0  0  0  0  3  0  0  0  0  0  0
  186.3250  177.2480  144.5250 C   0  0  1  0  0  0  0  0  0  0  0  0
  188.1270  176.5040  142.8840 C   0  0  2  0  0  3  0  0  0  0  0  0
  187.0620  178.4320  144.6590 O   0  0  0  0  0  1  0  0  0  0  0  0
  186.3500  177.7410  142.0360 C   0  0  0  0  0  3  0  0  0  0  0  0
  185.7320  176.9600  143.1530 C   0  0  1  0  0  3  0  0  0  0  0  0
  185.4570  176.8780  145.6340 N   0  0  0  0  0  2  0  0  0  0  0  0
  183.9440  178.7630  145.8180 C   0  0  0  0  0  1  0  0  0  0  0  0
  185.1640  178.0800  146.3990 C   0  0  0  0  0  2  0  0  0  0  0  0
  189.4200  171.6840  139.0670 C   0  0  0  0  0  2  0  0  0  0  0  0
  188.2550  172.6510  138.9190 C   0  0  0  0  0  2  0  0  0  0  0  0
  188.4800  173.5350  137.8070 N   0  0  0  0  0  0  0  0  0  0  0  0
  189.6730  173.7680  137.4050 C   0  0  0  0  0  2  0  0  0  0  0  0
  195.7380  173.5600  141.3490 C   0  0  0  0  0  2  0  0  0  0  0  0
  196.1940  174.6220  142.3310 C   0  0  0  0  0  2  0  0  0  0  0  0
  196.0150  174.1120  143.7470 C   0  0  0  0  0  2  0  0  0  0  0  0
  193.8370  174.3650  144.7650 C   0  0  0  0  0  0  0  0  0  0  0  0
  194.1240  176.9680  145.5210 N   0  0  0  0  0  2  0  0  0  0  0  0
  192.6670  173.9800  145.1780 C   0  0  0  0  0  3  0  0  0  0  0  0
  195.3120  176.2690  145.0200 C   0  0  0  0  0  2  0  0  0  0  0  0
  190.4210  174.4590  146.1930 N   0  0  0  0  0  0  0  0  0  0  0  0
  191.3630  176.7060  147.6430 C   0  0  0  0  0  2  0  0  0  0  0  0
  189.5470  175.1190  147.1550 C   0  0  0  0  0  2  0  0  0  0  0  0
  193.7200  176.3490  146.7810 C   0  0  0  0  0  2  0  0  0  0  0  0
  189.9030  176.5910  147.2320 C   0  0  0  0  0  2  0  0  0  0  0  0
  192.2750  175.9270  146.7340 C   0  0  0  0  0  0  0  0  0  0  0  0
  189.8220  173.4510  145.3290 C   0  0  0  0  0  1  0  0  0  0  0  0
  191.8150  174.8230  146.0670 C   0  0  0  0  0  0  0  0  0  0  0  0
  194.9770  174.9120  144.4530 C   0  0  0  0  0  0  0  0  0  0  0  0
  1 23  1  6  0  0  0
  1  5  1  0  0  0  0
  2  3  1  0  0  0  0
  3  6  2  0  0  0  0
  4  1  1  0  0  0  0
  6  8  1  0  0  0  0
  6  7  1  0  0  0  0
  8  4  1  6  0  0  0
  8 10  1  0  0  0  0
  9  5  1  0  0  0  0
  9 12  1  1  0  0  0
  9 10  1  0  0  0  0
 10  2  1  6  0  0  0
 11 16  1  0  0  0  0
 12 11  2  0  0  0  0
 13 15  1  0  0  0  0
 14 18  2  0  0  0  0
 14 16  1  0  0  0  0
 15 17  1  0  0  0  0
 15 20  1  0  0  0  0
 16 13  1  0  0  0  0
 18 19  1  0  0  0  0
 19 13  1  0  0  0  0
 19 15  1  0  0  0  0
 20 22  1  0  0  0  0
 21 22  1  0  0  0  0
 24 23  1  0  0  0  0
 25 24  1  0  0  0  0
 26 25  2  0  0  0  0
 27  3  1  0  0  0  0
 27 28  1  0  0  0  0
 28 29  1  0  0  0  0
 29 42  1  0  0  0  0
 30 32  2  0  0  0  0
 31 37  1  0  0  0  0
 32 41  1  0  0  0  0
 33 31  1  0  0  0  0
 34 36  1  0  0  0  0
 36 38  1  0  0  0  0
 38 35  1  0  0  0  0
 39 37  1  0  0  0  0
 39 35  1  0  0  0  0
 40 34  1  0  0  0  0
 41 34  1  0  0  0  0
 41 39  2  0  0  0  0
 42 30  2  0  0  0  0
 42 33  1  0  0  0  0
M  END
>  <MODEL>
3

>  <REMARK>
 VINA RESULT:      -6.5      2.068      4.539
  Name = 
  11 active torsions:
  status: ('A' for Active; 'I' for Inactive)
    1  A    between atoms: N_1  and  C_9
    2  A    between atoms: C_3  and  C_6
    3  A    between atoms: C_6  and  C_9
    4  A    between atoms: C_10  and  C_18
    5  A    between atoms: C_10  and  C_35
    6  A    between atoms: C_11  and  C_35
    7  A    between atoms: C_16  and  C_27
    8  A    between atoms: C_18  and  C_41
    9  A    between atoms: N_21  and  C_25
   10  A    between atoms: N_21  and  C_40
   11  A    between atoms: N_29  and  C_38
                            x       y       z     vdW  Elec       q    Type
                         _______ _______ _______ _____ _____    ______ ____

>  <TORSDO>
F 11

$$$$
=
 OpenBabel11042419233D

 42 47  0  0  1  0  0  0  0  0999 V2000
  188.4140  172.9440  139.4510 C   0  0  1  0  0  3  0  0  0  0  0  0
  192.5000  172.9470  141.2300 S   0  0  0  0  0  0  0  0  0  0  0  0
  192.5750  171.2530  140.6790 C   0  0  0  0  0  0  0  0  0  0  0  0
  189.6270  172.0240  139.2500 C   0  0  0  0  0  2  0  0  0  0  0  0
  188.5390  173.8530  140.6820 C   0  0  0  0  0  2  0  0  0  0  0  0
  191.4020  170.7070  140.3660 C   0  0  0  0  0  0  0  0  0  0  0  0
  191.2570  169.3120  139.8420 C   0  0  0  0  0  1  0  0  0  0  0  0
  190.2140  171.5750  140.5890 C   0  0  1  0  0  3  0  0  0  0  0  0
  189.9990  174.0970  141.0720 C   0  0  2  0  0  3  0  0  0  0  0  0
  190.6950  172.7770  141.4280 C   0  0  2  0  0  3  0  0  0  0  0  0
  190.0220  174.5570  143.3950 C   0  0  0  0  0  3  0  0  0  0  0  0
  190.0730  174.9990  142.1920 N   0  0  0  0  0  0  0  0  0  0  0  0
  188.6850  175.8750  145.0000 C   0  0  2  0  0  3  0  0  0  0  0  0
  190.7370  176.7790  144.1360 C   0  0  0  0  0  3  0  0  0  0  0  0
  188.6630  176.7220  146.2640 C   0  0  1  0  0  0  0  0  0  0  0  0
  190.0980  175.4980  144.5510 C   0  0  2  0  0  3  0  0  0  0  0  0
  189.8420  176.8830  147.0040 O   0  0  0  0  0  1  0  0  0  0  0  0
  189.9370  177.8090  144.3580 C   0  0  0  0  0  3  0  0  0  0  0  0
  188.6040  177.4090  144.9070 C   0  0  1  0  0  3  0  0  0  0  0  0
  187.4080  176.7580  147.0010 N   0  0  0  0  0  2  0  0  0  0  0  0
  185.0850  177.0950  146.3970 C   0  0  0  0  0  1  0  0  0  0  0  0
  186.4930  177.6390  146.2940 C   0  0  0  0  0  2  0  0  0  0  0  0
  188.1870  173.7950  138.2100 C   0  0  0  0  0  2  0  0  0  0  0  0
  189.4800  174.0040  137.4380 C   0  0  0  0  0  2  0  0  0  0  0  0
  189.2230  173.9940  136.0240 N   0  0  0  0  0  0  0  0  0  0  0  0
  189.1070  175.0980  135.3860 C   0  0  0  0  0  2  0  0  0  0  0  0
  193.8880  170.5410  140.5680 C   0  0  0  0  0  2  0  0  0  0  0  0
  194.2300  169.8560  141.8770 C   0  0  0  0  0  2  0  0  0  0  0  0
  195.4840  170.4780  142.4600 C   0  0  0  0  0  2  0  0  0  0  0  0
  195.3350  172.7220  143.3450 C   0  0  0  0  0  0  0  0  0  0  0  0
  194.2100  172.0620  145.7390 N   0  0  0  0  0  2  0  0  0  0  0  0
  195.4420  174.0170  143.3240 C   0  0  0  0  0  3  0  0  0  0  0  0
  194.3110  171.0110  144.7200 C   0  0  0  0  0  2  0  0  0  0  0  0
  195.2930  176.2590  144.4450 N   0  0  0  0  0  0  0  0  0  0  0  0
  193.3280  175.3940  146.2990 C   0  0  0  0  0  2  0  0  0  0  0  0
  194.6550  177.2260  145.3300 C   0  0  0  0  0  2  0  0  0  0  0  0
  193.2800  173.0820  145.2600 C   0  0  0  0  0  2  0  0  0  0  0  0
  194.2690  176.5440  146.6280 C   0  0  0  0  0  2  0  0  0  0  0  0
  193.9180  174.4470  145.2890 C   0  0  0  0  0  0  0  0  0  0  0  0
  196.4360  176.7170  143.6680 C   0  0  0  0  0  1  0  0  0  0  0  0
  194.8400  174.8870  144.3770 C   0  0  0  0  0  0  0  0  0  0  0  0
  195.1250  171.4500  143.5290 C   0  0  0  0  0  0  0  0  0  0  0  0
  1 23  1  6  0  0  0
  1  5  1  0  0  0  0
  3  2  1  0  0  0  0
  4  1  1  0  0  0  0
  5  9  1  0  0  0  0
  6  8  1  0  0  0  0
  6  3  2  0  0  0  0
  7  6  1  0  0  0  0
  8  4  1  6  0  0  0
  8 10  1  0  0  0  0
  9 10  1  0  0  0  0
  9 12  1  1  0  0  0
 10  2  1  6  0  0  0
 11 16  1  0  0  0  0
 12 11  2  0  0  0  0
 13 15  1  0  0  0  0
 14 18  2  0  0  0  0
 14 16  1  0  0  0  0
 15 20  1  0  0  0  0
 15 17  1  0  0  0  0
 16 13  1  0  0  0  0
 18 19  1  0  0  0  0
 19 13  1  0  0  0  0
 19 15  1  0  0  0  0
 22 21  1  0  0  0  0
 22 20  1  0  0  0  0
 24 23  1  0  0  0  0
 25 24  1  0  0  0  0
 26 25  2  0  0  0  0
 27  3  1  0  0  0  0
 27 28  1  0  0  0  0
 28 29  1  0  0  0  0
 29 42  1  0  0  0  0
 30 42  2  0  0  0  0
 32 30  2  0  0  0  0
 32 41  1  0  0  0  0
 33 31  1  0  0  0  0
 34 36  1  0  0  0  0
 35 38  1  0  0  0  0
 36 38  1  0  0  0  0
 37 39  1  0  0  0  0
 37 31  1  0  0  0  0
 39 35  1  0  0  0  0
 40 34  1  0  0  0  0
 41 34  1  0  0  0  0
 41 39  2  0  0  0  0
 42 33  1  0  0  0  0
M  END
>  <MODEL>
4

>  <REMARK>
 VINA RESULT:      -6.5      2.736      5.108
  Name = 
  11 active torsions:
  status: ('A' for Active; 'I' for Inactive)
    1  A    between atoms: N_1  and  C_9
    2  A    between atoms: C_3  and  C_6
    3  A    between atoms: C_6  and  C_9
    4  A    between atoms: C_10  and  C_18
    5  A    between atoms: C_10  and  C_35
    6  A    between atoms: C_11  and  C_35
    7  A    between atoms: C_16  and  C_27
    8  A    between atoms: C_18  and  C_41
    9  A    between atoms: N_21  and  C_25
   10  A    between atoms: N_21  and  C_40
   11  A    between atoms: N_29  and  C_38
                            x       y       z     vdW  Elec       q    Type
                         _______ _______ _______ _____ _____    ______ ____

>  <TORSDO>
F 11

$$$$
=
 OpenBabel11042419233D

 42 47  0  0  1  0  0  0  0  0999 V2000
  186.7930  177.4960  143.1620 C   0  0  1  0  0  3  0  0  0  0  0  0
  189.5810  174.4940  144.9140 S   0  0  0  0  0  0  0  0  0  0  0  0
  189.7860  175.6780  146.2310 C   0  0  0  0  0  0  0  0  0  0  0  0
  187.3460  177.3090  144.5820 C   0  0  0  0  0  2  0  0  0  0  0  0
  187.5470  176.6780  142.1030 C   0  0  0  0  0  2  0  0  0  0  0  0
  189.3700  176.9120  145.9530 C   0  0  0  0  0  0  0  0  0  0  0  0
  189.4150  178.0370  146.9380 C   0  0  0  0  0  1  0  0  0  0  0  0
  188.8630  177.1170  144.5680 C   0  0  1  0  0  3  0  0  0  0  0  0
  188.2350  175.4510  142.7060 C   0  0  2  0  0  3  0  0  0  0  0  0
  189.2700  175.8700  143.7580 C   0  0  2  0  0  3  0  0  0  0  0  0
  188.5020  173.4820  141.4180 C   0  0  0  0  0  3  0  0  0  0  0  0
  188.8790  174.6810  141.6730 N   0  0  0  0  0  0  0  0  0  0  0  0
  190.4630  173.3960  139.9180 C   0  0  2  0  0  3  0  0  0  0  0  0
  188.3240  172.6420  139.1250 C   0  0  0  0  0  3  0  0  0  0  0  0
  191.2890  172.5880  138.9280 C   0  0  1  0  0  0  0  0  0  0  0  0
  189.1760  172.6900  140.3470 C   0  0  2  0  0  3  0  0  0  0  0  0
  190.9520  171.2510  138.6810 O   0  0  0  0  0  1  0  0  0  0  0  0
  188.9630  173.1330  138.0740 C   0  0  0  0  0  3  0  0  0  0  0  0
  190.3280  173.6470  138.4060 C   0  0  1  0  0  3  0  0  0  0  0  0
  192.6940  172.9520  138.8040 N   0  0  0  0  0  2  0  0  0  0  0  0
  193.9910  174.8580  139.5530 C   0  0  0  0  0  1  0  0  0  0  0  0
  193.0610  173.7390  139.9710 C   0  0  0  0  0  2  0  0  0  0  0  0
  185.3140  177.1430  143.1210 C   0  0  0  0  0  2  0  0  0  0  0  0
  184.4820  178.3060  142.6030 C   0  0  0  0  0  2  0  0  0  0  0  0
  184.4280  178.2780  141.1660 N   0  0  0  0  0  0  0  0  0  0  0  0
  183.2950  178.2770  140.5680 C   0  0  0  0  0  2  0  0  0  0  0  0
  190.3660  175.2650  147.5480 C   0  0  0  0  0  2  0  0  0  0  0  0
  191.8420  174.9470  147.3990 C   0  0  0  0  0  2  0  0  0  0  0  0
  192.6000  176.2140  147.0560 C   0  0  0  0  0  2  0  0  0  0  0  0
  193.9820  174.6810  145.7980 C   0  0  0  0  0  0  0  0  0  0  0  0
  195.4070  176.5620  144.4330 N   0  0  0  0  0  2  0  0  0  0  0  0
  194.3960  173.5210  145.3840 C   0  0  0  0  0  3  0  0  0  0  0  0
  194.2490  177.0150  145.2110 C   0  0  0  0  0  2  0  0  0  0  0  0
  195.9810  172.0900  144.0640 N   0  0  0  0  0  0  0  0  0  0  0  0
  196.5430  174.1410  142.1870 C   0  0  0  0  0  2  0  0  0  0  0  0
  196.7840  171.7930  142.8830 C   0  0  0  0  0  2  0  0  0  0  0  0
  194.9280  175.7190  143.3400 C   0  0  0  0  0  2  0  0  0  0  0  0
  197.5480  173.0350  142.4680 C   0  0  0  0  0  2  0  0  0  0  0  0
  195.6180  174.3800  143.3500 C   0  0  0  0  0  0  0  0  0  0  0  0
  195.9020  171.0640  145.0930 C   0  0  0  0  0  1  0  0  0  0  0  0
  195.3290  173.3700  144.2290 C   0  0  0  0  0  0  0  0  0  0  0  0
  193.6750  175.9170  146.0700 C   0  0  0  0  0  0  0  0  0  0  0  0
  1 23  1  1  0  0  0
  1  4  1  0  0  0  0
  2  3  1  0  0  0  0
  3 27  1  0  0  0  0
  5  9  1  0  0  0  0
  5  1  1  0  0  0  0
  6  3  2  0  0  0  0
  6  7  1  0  0  0  0
  8  4  1  1  0  0  0
  8  6  1  0  0  0  0
  9 12  1  6  0  0  0
  9 10  1  0  0  0  0
 10  8  1  0  0  0  0
 10  2  1  1  0  0  0
 11 12  2  0  0  0  0
 13 16  1  0  0  0  0
 14 16  1  0  0  0  0
 15 13  1  0  0  0  0
 16 11  1  0  0  0  0
 17 15  1  0  0  0  0
 18 19  1  0  0  0  0
 18 14  2  0  0  0  0
 19 15  1  0  0  0  0
 19 13  1  0  0  0  0
 20 15  1  0  0  0  0
 20 22  1  0  0  0  0
 21 22  1  0  0  0  0
 24 23  1  0  0  0  0
 25 24  1  0  0  0  0
 26 25  2  0  0  0  0
 28 27  1  0  0  0  0
 29 28  1  0  0  0  0
 30 42  2  0  0  0  0
 31 33  1  0  0  0  0
 32 30  2  0  0  0  0
 33 42  1  0  0  0  0
 34 41  1  0  0  0  0
 34 40  1  0  0  0  0
 35 38  1  0  0  0  0
 35 39  1  0  0  0  0
 36 34  1  0  0  0  0
 37 39  1  0  0  0  0
 37 31  1  0  0  0  0
 38 36  1  0  0  0  0
 39 41  2  0  0  0  0
 41 32  1  0  0  0  0
 42 29  1  0  0  0  0
M  END
>  <MODEL>
5

>  <REMARK>
 VINA RESULT:      -6.5      2.812      6.237
  Name = 
  11 active torsions:
  status: ('A' for Active; 'I' for Inactive)
    1  A    between atoms: N_1  and  C_9
    2  A    between atoms: C_3  and  C_6
    3  A    between atoms: C_6  and  C_9
    4  A    between atoms: C_10  and  C_18
    5  A    between atoms: C_10  and  C_35
    6  A    between atoms: C_11  and  C_35
    7  A    between atoms: C_16  and  C_27
    8  A    between atoms: C_18  and  C_41
    9  A    between atoms: N_21  and  C_25
   10  A    between atoms: N_21  and  C_40
   11  A    between atoms: N_29  and  C_38
                            x       y       z     vdW  Elec       q    Type
                         _______ _______ _______ _____ _____    ______ ____

>  <TORSDO>
F 11

$$$$
=
 OpenBabel11042419233D

 42 47  0  0  1  0  0  0  0  0999 V2000
  186.7710  177.7150  143.4180 C   0  0  1  0  0  3  0  0  0  0  0  0
  189.6980  174.7210  144.9420 S   0  0  0  0  0  0  0  0  0  0  0  0
  189.8260  175.7930  146.3610 C   0  0  0  0  0  0  0  0  0  0  0  0
  187.3190  177.4320  144.8250 C   0  0  0  0  0  2  0  0  0  0  0  0
  187.5790  177.0350  142.3030 C   0  0  0  0  0  2  0  0  0  0  0  0
  189.3460  177.0230  146.1850 C   0  0  0  0  0  0  0  0  0  0  0  0
  189.3200  178.0580  147.2670 C   0  0  0  0  0  1  0  0  0  0  0  0
  188.8440  177.3230  144.8170 C   0  0  1  0  0  3  0  0  0  0  0  0
  188.3250  175.7970  142.8070 C   0  0  2  0  0  3  0  0  0  0  0  0
  189.3260  176.1750  143.9060 C   0  0  2  0  0  3  0  0  0  0  0  0
  189.8910  174.2420  141.9480 C   0  0  0  0  0  3  0  0  0  0  0  0
  189.0200  175.1560  141.7210 N   0  0  0  0  0  0  0  0  0  0  0  0
  189.8190  172.3590  140.3500 C   0  0  2  0  0  3  0  0  0  0  0  0
  191.9250  173.0560  141.2740 C   0  0  0  0  0  3  0  0  0  0  0  0
  190.4040  171.7050  139.1070 C   0  0  1  0  0  0  0  0  0  0  0  0
  190.6090  173.5830  140.8160 C   0  0  2  0  0  3  0  0  0  0  0  0
  191.4130  172.3660  138.3930 O   0  0  0  0  0  1  0  0  0  0  0  0
  192.0210  171.7530  141.0620 C   0  0  0  0  0  3  0  0  0  0  0  0
  190.7770  171.1610  140.4780 C   0  0  1  0  0  3  0  0  0  0  0  0
  189.5140  170.8390  138.3480 N   0  0  0  0  0  2  0  0  0  0  0  0
  190.5120  168.7660  137.5830 C   0  0  0  0  0  1  0  0  0  0  0  0
  190.2830  170.2300  137.2740 C   0  0  0  0  0  2  0  0  0  0  0  0
  185.3130  177.2890  143.3240 C   0  0  0  0  0  2  0  0  0  0  0  0
  184.4210  178.4560  142.9320 C   0  0  0  0  0  2  0  0  0  0  0  0
  183.6490  178.1230  141.7660 N   0  0  0  0  0  0  0  0  0  0  0  0
  184.1460  178.2930  140.5980 C   0  0  0  0  0  2  0  0  0  0  0  0
  190.4130  175.2970  147.6460 C   0  0  0  0  0  2  0  0  0  0  0  0
  191.9020  175.0530  147.4860 C   0  0  0  0  0  2  0  0  0  0  0  0
  192.5670  176.3120  146.9650 C   0  0  0  0  0  2  0  0  0  0  0  0
  193.6010  174.7820  145.4050 C   0  0  0  0  0  0  0  0  0  0  0  0
  195.5630  176.4650  144.5390 N   0  0  0  0  0  2  0  0  0  0  0  0
  193.7330  173.6750  144.7370 C   0  0  0  0  0  3  0  0  0  0  0  0
  194.5040  177.0290  145.3840 C   0  0  0  0  0  2  0  0  0  0  0  0
  194.9930  172.2000  143.1430 N   0  0  0  0  0  0  0  0  0  0  0  0
  196.2060  174.3880  141.8060 C   0  0  0  0  0  2  0  0  0  0  0  0
  195.7800  171.9670  141.9380 C   0  0  0  0  0  2  0  0  0  0  0  0
  194.9680  176.0460  143.2720 C   0  0  0  0  0  2  0  0  0  0  0  0
  196.8680  173.0190  141.8370 C   0  0  0  0  0  2  0  0  0  0  0  0
  195.2880  174.6020  142.9800 C   0  0  0  0  0  0  0  0  0  0  0  0
  194.5730  171.0310  143.9030 C   0  0  0  0  0  1  0  0  0  0  0  0
  194.6820  173.5390  143.5930 C   0  0  0  0  0  0  0  0  0  0  0  0
  193.6020  175.9630  145.9530 C   0  0  0  0  0  0  0  0  0  0  0  0
  1 23  1  1  0  0  0
  1  4  1  0  0  0  0
  2  3  1  0  0  0  0
  3 27  1  0  0  0  0
  5  9  1  0  0  0  0
  5  1  1  0  0  0  0
  6  3  2  0  0  0  0
  6  7  1  0  0  0  0
  8  4  1  1  0  0  0
  8  6  1  0  0  0  0
  9 12  1  6  0  0  0
  9 10  1  0  0  0  0
 10  8  1  0  0  0  0
 10  2  1  1  0  0  0
 12 11  2  0  0  0  0
 13 19  1  0  0  0  0
 13 16  1  0  0  0  0
 15 13  1  0  0  0  0
 15 19  1  0  0  0  0
 16 14  1  0  0  0  0
 16 11  1  0  0  0  0
 17 15  1  0  0  0  0
 18 14  2  0  0  0  0
 19 18  1  0  0  0  0
 20 15  1  0  0  0  0
 22 21  1  0  0  0  0
 22 20  1  0  0  0  0
 24 23  1  0  0  0  0
 25 24  1  0  0  0  0
 26 25  2  0  0  0  0
 28 27  1  0  0  0  0
 29 28  1  0  0  0  0
 30 42  2  0  0  0  0
 31 33  1  0  0  0  0
 32 30  2  0  0  0  0
 33 42  1  0  0  0  0
 34 41  1  0  0  0  0
 34 40  1  0  0  0  0
 35 38  1  0  0  0  0
 35 39  1  0  0  0  0
 36 34  1  0  0  0  0
 37 31  1  0  0  0  0
 38 36  1  0  0  0  0
 39 37  1  0  0  0  0
 39 41  2  0  0  0  0
 41 32  1  0  0  0  0
 42 29  1  0  0  0  0
M  END
>  <MODEL>
6

>  <REMARK>
 VINA RESULT:      -6.3      2.758      6.450
  Name = 
  11 active torsions:
  status: ('A' for Active; 'I' for Inactive)
    1  A    between atoms: N_1  and  C_9
    2  A    between atoms: C_3  and  C_6
    3  A    between atoms: C_6  and  C_9
    4  A    between atoms: C_10  and  C_18
    5  A    between atoms: C_10  and  C_35
    6  A    between atoms: C_11  and  C_35
    7  A    between atoms: C_16  and  C_27
    8  A    between atoms: C_18  and  C_41
    9  A    between atoms: N_21  and  C_25
   10  A    between atoms: N_21  and  C_40
   11  A    between atoms: N_29  and  C_38
                            x       y       z     vdW  Elec       q    Type
                         _______ _______ _______ _____ _____    ______ ____

>  <TORSDO>
F 11

$$$$
=
 OpenBabel11042419233D

 42 47  0  0  1  0  0  0  0  0999 V2000
  187.5390  177.3940  141.6930 C   0  0  1  0  0  3  0  0  0  0  0  0
  189.4290  174.1350  144.0720 S   0  0  0  0  0  0  0  0  0  0  0  0
  190.2090  175.4570  144.9790 C   0  0  0  0  0  0  0  0  0  0  0  0
  188.2120  177.3830  143.0730 C   0  0  0  0  0  2  0  0  0  0  0  0
  187.8140  176.1260  140.8720 C   0  0  0  0  0  2  0  0  0  0  0  0
  190.1800  176.6470  144.3830 C   0  0  0  0  0  0  0  0  0  0  0  0
  190.7400  177.8900  145.0000 C   0  0  0  0  0  1  0  0  0  0  0  0
  189.5630  176.6670  143.0290 C   0  0  1  0  0  3  0  0  0  0  0  0
  188.1480  174.9260  141.7630 C   0  0  2  0  0  3  0  0  0  0  0  0
  189.4110  175.1970  142.5890 C   0  0  2  0  0  3  0  0  0  0  0  0
  188.9830  173.8050  139.8510 C   0  0  0  0  0  3  0  0  0  0  0  0
  188.3390  173.7460  140.9590 N   0  0  0  0  0  0  0  0  0  0  0  0
  190.1440  171.6270  139.7320 C   0  0  2  0  0  3  0  0  0  0  0  0
  189.8330  172.9220  137.7310 C   0  0  0  0  0  3  0  0  0  0  0  0
  190.2920  170.2870  139.0260 C   0  0  1  0  0  0  0  0  0  0  0  0
  189.1760  172.5770  139.0230 C   0  0  2  0  0  3  0  0  0  0  0  0
  189.4130  169.9570  137.9860 O   0  0  0  0  0  1  0  0  0  0  0  0
  190.9660  172.2560  137.5750 C   0  0  0  0  0  3  0  0  0  0  0  0
  191.3030  171.3890  138.7470 C   0  0  1  0  0  3  0  0  0  0  0  0
  190.8180  169.1880  139.8230 N   0  0  0  0  0  2  0  0  0  0  0  0
  192.3230  169.2660  141.7220 C   0  0  0  0  0  1  0  0  0  0  0  0
  190.9570  169.6510  141.1950 C   0  0  0  0  0  2  0  0  0  0  0  0
  186.0380  177.5920  141.8390 C   0  0  0  0  0  2  0  0  0  0  0  0
  185.5570  177.1690  143.2180 C   0  0  0  0  0  2  0  0  0  0  0  0
  184.7490  178.2040  143.8030 N   0  0  0  0  0  0  0  0  0  0  0  0
  185.1960  179.4020  143.8750 C   0  0  0  0  0  2  0  0  0  0  0  0
  190.8170  175.2080  146.3250 C   0  0  0  0  0  2  0  0  0  0  0  0
  192.1660  174.5280  146.1770 C   0  0  0  0  0  2  0  0  0  0  0  0
  193.2680  175.5580  146.3190 C   0  0  0  0  0  2  0  0  0  0  0  0
  193.7560  175.3850  143.9570 C   0  0  0  0  0  0  0  0  0  0  0  0
  196.4730  175.3600  144.1790 N   0  0  0  0  0  2  0  0  0  0  0  0
  193.4810  175.3360  142.6880 C   0  0  0  0  0  3  0  0  0  0  0  0
  195.6930  175.6710  145.3820 C   0  0  0  0  0  2  0  0  0  0  0  0
  194.1790  175.0610  140.2920 N   0  0  0  0  0  0  0  0  0  0  0  0
  196.8060  176.0200  140.7660 C   0  0  0  0  0  2  0  0  0  0  0  0
  195.0810  175.2900  139.1690 C   0  0  0  0  0  2  0  0  0  0  0  0
  196.2760  176.4360  143.2100 C   0  0  0  0  0  2  0  0  0  0  0  0
  196.5120  175.0650  139.6190 C   0  0  0  0  0  2  0  0  0  0  0  0
  195.8090  175.8880  141.8860 C   0  0  0  0  0  0  0  0  0  0  0  0
  192.9270  174.3740  140.0120 C   0  0  0  0  0  1  0  0  0  0  0  0
  194.5340  175.4580  141.6370 C   0  0  0  0  0  0  0  0  0  0  0  0
  194.2150  175.4560  145.1740 C   0  0  0  0  0  0  0  0  0  0  0  0
  1 23  1  1  0  0  0
  1  4  1  0  0  0  0
  2  3  1  0  0  0  0
  3 27  1  0  0  0  0
  5  1  1  0  0  0  0
  5  9  1  0  0  0  0
  6  3  2  0  0  0  0
  6  7  1  0  0  0  0
  8  4  1  1  0  0  0
  8  6  1  0  0  0  0
  9 12  1  6  0  0  0
  9 10  1  0  0  0  0
 10  8  1  0  0  0  0
 10  2  1  1  0  0  0
 11 12  2  0  0  0  0
 14 16  1  0  0  0  0
 15 13  1  0  0  0  0
 15 20  1  0  0  0  0
 16 13  1  0  0  0  0
 16 11  1  0  0  0  0
 17 15  1  0  0  0  0
 18 14  2  0  0  0  0
 18 19  1  0  0  0  0
 19 15  1  0  0  0  0
 19 13  1  0  0  0  0
 20 22  1  0  0  0  0
 22 21  1  0  0  0  0
 23 24  1  0  0  0  0
 24 25  1  0  0  0  0
 25 26  2  0  0  0  0
 28 29  1  0  0  0  0
 28 27  1  0  0  0  0
 30 42  2  0  0  0  0
 31 33  1  0  0  0  0
 32 30  2  0  0  0  0
 34 41  1  0  0  0  0
 35 39  1  0  0  0  0
 36 38  1  0  0  0  0
 36 34  1  0  0  0  0
 37 31  1  0  0  0  0
 38 35  1  0  0  0  0
 39 37  1  0  0  0  0
 40 34  1  0  0  0  0
 41 39  2  0  0  0  0
 41 32  1  0  0  0  0
 42 33  1  0  0  0  0
 42 29  1  0  0  0  0
M  END
>  <MODEL>
7

>  <REMARK>
 VINA RESULT:      -6.3      2.740      6.354
  Name = 
  11 active torsions:
  status: ('A' for Active; 'I' for Inactive)
    1  A    between atoms: N_1  and  C_9
    2  A    between atoms: C_3  and  C_6
    3  A    between atoms: C_6  and  C_9
    4  A    between atoms: C_10  and  C_18
    5  A    between atoms: C_10  and  C_35
    6  A    between atoms: C_11  and  C_35
    7  A    between atoms: C_16  and  C_27
    8  A    between atoms: C_18  and  C_41
    9  A    between atoms: N_21  and  C_25
   10  A    between atoms: N_21  and  C_40
   11  A    between atoms: N_29  and  C_38
                            x       y       z     vdW  Elec       q    Type
                         _______ _______ _______ _____ _____    ______ ____

>  <TORSDO>
F 11

$$$$
=
 OpenBabel11042419233D

 42 47  0  0  1  0  0  0  0  0999 V2000
  185.0880  179.3550  144.8220 C   0  0  1  0  0  3  0  0  0  0  0  0
  185.8160  176.5520  141.4360 S   0  0  0  0  0  0  0  0  0  0  0  0
  187.5440  176.8400  141.7680 C   0  0  0  0  0  0  0  0  0  0  0  0
  186.3240  178.5460  144.4010 C   0  0  0  0  0  2  0  0  0  0  0  0
  184.0080  179.4260  143.7330 C   0  0  0  0  0  2  0  0  0  0  0  0
  187.8050  177.9050  142.5230 C   0  0  0  0  0  0  0  0  0  0  0  0
  189.1860  178.2920  142.9510 C   0  0  0  0  0  1  0  0  0  0  0  0
  186.6200  178.7190  142.9100 C   0  0  1  0  0  3  0  0  0  0  0  0
  184.0920  178.2460  142.7610 C   0  0  2  0  0  3  0  0  0  0  0  0
  185.4450  178.2330  142.0380 C   0  0  2  0  0  3  0  0  0  0  0  0
  181.8160  178.5160  142.1660 C   0  0  0  0  0  3  0  0  0  0  0  0
  183.0270  178.3190  141.7940 N   0  0  0  0  0  0  0  0  0  0  0  0
  180.3160  180.0500  140.9400 C   0  0  2  0  0  3  0  0  0  0  0  0
  179.4940  177.9140  141.6730 C   0  0  0  0  0  3  0  0  0  0  0  0
  179.2990  180.2320  139.8240 C   0  0  1  0  0  0  0  0  0  0  0  0
  180.7180  178.5900  141.1570 C   0  0  2  0  0  3  0  0  0  0  0  0
  179.0040  179.1540  138.9790 O   0  0  0  0  0  1  0  0  0  0  0  0
  178.4620  178.7430  141.7000 C   0  0  0  0  0  3  0  0  0  0  0  0
  178.8130  180.1300  141.2630 C   0  0  1  0  0  3  0  0  0  0  0  0
  179.1900  181.5690  139.2560 N   0  0  0  0  0  2  0  0  0  0  0  0
  177.8440  183.5810  139.3880 C   0  0  0  0  0  1  0  0  0  0  0  0
  178.3520  182.3670  140.1360 C   0  0  0  0  0  2  0  0  0  0  0  0
  184.4900  178.7780  146.0970 C   0  0  0  0  0  2  0  0  0  0  0  0
  184.9770  177.3580  146.3430 C   0  0  0  0  0  2  0  0  0  0  0  0
  185.6380  177.2720  147.6160 N   0  0  0  0  0  0  0  0  0  0  0  0
  186.3900  178.2300  148.0140 C   0  0  0  0  0  2  0  0  0  0  0  0
  188.5920  175.9100  141.2380 C   0  0  0  0  0  2  0  0  0  0  0  0
  188.2120  174.4700  141.5230 C   0  0  0  0  0  2  0  0  0  0  0  0
  189.4680  173.6270  141.6240 C   0  0  0  0  0  2  0  0  0  0  0  0
  191.3620  174.6600  142.7150 C   0  0  0  0  0  0  0  0  0  0  0  0
  190.6130  174.1070  145.2770 N   0  0  0  0  0  2  0  0  0  0  0  0
  192.4700  175.3350  142.7840 C   0  0  0  0  0  3  0  0  0  0  0  0
  189.6400  173.8470  144.2100 C   0  0  0  0  0  2  0  0  0  0  0  0
  194.4030  176.2700  144.0860 N   0  0  0  0  0  0  0  0  0  0  0  0
  192.9270  176.4160  146.5030 C   0  0  0  0  0  2  0  0  0  0  0  0
  194.9870  176.9180  145.2540 C   0  0  0  0  0  2  0  0  0  0  0  0
  190.8420  175.5480  145.3520 C   0  0  0  0  0  2  0  0  0  0  0  0
  194.4420  176.2730  146.5130 C   0  0  0  0  0  2  0  0  0  0  0  0
  192.3110  175.8650  145.2450 C   0  0  0  0  0  0  0  0  0  0  0  0
  195.2760  176.0370  142.9450 C   0  0  0  0  0  1  0  0  0  0  0  0
  193.0240  175.8330  144.0770 C   0  0  0  0  0  0  0  0  0  0  0  0
  190.2430  174.0040  142.8380 C   0  0  0  0  0  0  0  0  0  0  0  0
  1 23  1  1  0  0  0
  2  3  1  0  0  0  0
  3  6  2  0  0  0  0
  4  1  1  0  0  0  0
  5  1  1  0  0  0  0
  6  8  1  0  0  0  0
  6  7  1  0  0  0  0
  8  4  1  1  0  0  0
  9 12  1  6  0  0  0
  9  5  1  0  0  0  0
 10  2  1  1  0  0  0
 10  9  1  0  0  0  0
 10  8  1  0  0  0  0
 12 11  2  0  0  0  0
 13 16  1  0  0  0  0
 13 19  1  0  0  0  0
 14 18  2  0  0  0  0
 15 13  1  0  0  0  0
 15 19  1  0  0  0  0
 16 14  1  0  0  0  0
 16 11  1  0  0  0  0
 17 15  1  0  0  0  0
 19 18  1  0  0  0  0
 20 15  1  0  0  0  0
 20 22  1  0  0  0  0
 21 22  1  0  0  0  0
 23 24  1  0  0  0  0
 24 25  1  0  0  0  0
 25 26  2  0  0  0  0
 27 28  1  0  0  0  0
 27  3  1  0  0  0  0
 28 29  1  0  0  0  0
 29 42  1  0  0  0  0
 30 32  2  0  0  0  0
 30 42  2  0  0  0  0
 31 37  1  0  0  0  0
 32 41  1  0  0  0  0
 33 31  1  0  0  0  0
 34 36  1  0  0  0  0
 35 38  1  0  0  0  0
 36 38  1  0  0  0  0
 39 37  1  0  0  0  0
 39 35  1  0  0  0  0
 40 34  1  0  0  0  0
 41 34  1  0  0  0  0
 41 39  2  0  0  0  0
 42 33  1  0  0  0  0
M  END
>  <MODEL>
8

>  <REMARK>
 VINA RESULT:      -6.2      3.952      7.517
  Name = 
  11 active torsions:
  status: ('A' for Active; 'I' for Inactive)
    1  A    between atoms: N_1  and  C_9
    2  A    between atoms: C_3  and  C_6
    3  A    between atoms: C_6  and  C_9
    4  A    between atoms: C_10  and  C_18
    5  A    between atoms: C_10  and  C_35
    6  A    between atoms: C_11  and  C_35
    7  A    between atoms: C_16  and  C_27
    8  A    between atoms: C_18  and  C_41
    9  A    between atoms: N_21  and  C_25
   10  A    between atoms: N_21  and  C_40
   11  A    between atoms: N_29  and  C_38
                            x       y       z     vdW  Elec       q    Type
                         _______ _______ _______ _____ _____    ______ ____

>  <TORSDO>
F 11

$$$$
=
 OpenBabel11042419233D

 42 47  0  0  1  0  0  0  0  0999 V2000
  186.1050  178.1610  142.4770 C   0  0  1  0  0  3  0  0  0  0  0  0
  188.5100  174.9240  144.3740 S   0  0  0  0  0  0  0  0  0  0  0  0
  188.3510  175.8890  145.8650 C   0  0  0  0  0  0  0  0  0  0  0  0
  186.3120  177.7540  143.9440 C   0  0  0  0  0  2  0  0  0  0  0  0
  187.1200  177.5180  141.5200 C   0  0  0  0  0  2  0  0  0  0  0  0
  187.9650  177.1510  145.6850 C   0  0  0  0  0  0  0  0  0  0  0  0
  187.7320  178.1090  146.8110 C   0  0  0  0  0  1  0  0  0  0  0  0
  187.7950  177.5690  144.2670 C   0  0  1  0  0  3  0  0  0  0  0  0
  187.6910  176.2130  142.0790 C   0  0  2  0  0  3  0  0  0  0  0  0
  188.4300  176.4630  143.3990 C   0  0  2  0  0  3  0  0  0  0  0  0
  188.5460  174.3550  140.8840 C   0  0  0  0  0  3  0  0  0  0  0  0
  188.5910  175.6140  141.1270 N   0  0  0  0  0  0  0  0  0  0  0  0
  189.2030  172.2410  139.7880 C   0  0  2  0  0  3  0  0  0  0  0  0
  190.8890  173.8490  140.3810 C   0  0  0  0  0  3  0  0  0  0  0  0
  190.0180  171.5570  138.7000 C   0  0  1  0  0  0  0  0  0  0  0  0
  189.4830  173.7410  139.8970 C   0  0  2  0  0  3  0  0  0  0  0  0
  190.7370  172.3390  137.7860 O   0  0  0  0  0  1  0  0  0  0  0  0
  191.4560  172.6570  140.4790 C   0  0  0  0  0  3  0  0  0  0  0  0
  190.5270  171.5350  140.1340 C   0  0  1  0  0  3  0  0  0  0  0  0
  189.5230  170.2720  138.2280 N   0  0  0  0  0  2  0  0  0  0  0  0
  191.2790  168.6790  137.7210 C   0  0  0  0  0  1  0  0  0  0  0  0
  190.4160  169.8000  137.1820 C   0  0  0  0  0  2  0  0  0  0  0  0
  184.6930  177.8170  142.0290 C   0  0  0  0  0  2  0  0  0  0  0  0
  184.4200  178.3270  140.6220 C   0  0  0  0  0  2  0  0  0  0  0  0
  183.0450  178.7290  140.4960 N   0  0  0  0  0  0  0  0  0  0  0  0
  182.1080  177.9110  140.7980 C   0  0  0  0  0  2  0  0  0  0  0  0
  188.6170  175.2770  147.2060 C   0  0  0  0  0  2  0  0  0  0  0  0
  190.0020  174.6590  147.2390 C   0  0  0  0  0  2  0  0  0  0  0  0
  191.0100  175.7030  147.6750 C   0  0  0  0  0  2  0  0  0  0  0  0
  193.0410  175.2080  146.4600 C   0  0  0  0  0  0  0  0  0  0  0  0
  192.7990  177.1780  144.5920 N   0  0  0  0  0  2  0  0  0  0  0  0
  194.1210  174.5460  146.1720 C   0  0  0  0  0  3  0  0  0  0  0  0
  191.6530  176.9300  145.4730 C   0  0  0  0  0  2  0  0  0  0  0  0
  196.2320  174.2440  144.8460 N   0  0  0  0  0  0  0  0  0  0  0  0
  195.2280  175.6540  142.6000 C   0  0  0  0  0  2  0  0  0  0  0  0
  197.0030  174.2800  143.6090 C   0  0  0  0  0  2  0  0  0  0  0  0
  192.9930  176.0050  143.7440 C   0  0  0  0  0  2  0  0  0  0  0  0
  196.7220  175.5790  142.8790 C   0  0  0  0  0  2  0  0  0  0  0  0
  194.4070  175.4920  143.8500 C   0  0  0  0  0  0  0  0  0  0  0  0
  196.8850  173.6900  146.0240 C   0  0  0  0  0  1  0  0  0  0  0  0
  194.8900  174.7790  144.9140 C   0  0  0  0  0  0  0  0  0  0  0  0
  191.9860  175.9620  146.5800 C   0  0  0  0  0  0  0  0  0  0  0  0
  1 23  1  6  0  0  0
  1  4  1  0  0  0  0
  2  3  1  0  0  0  0
  3 27  1  0  0  0  0
  5  9  1  0  0  0  0
  5  1  1  0  0  0  0
  6  3  2  0  0  0  0
  6  7  1  0  0  0  0
  8  4  1  6  0  0  0
  8  6  1  0  0  0  0
  9 12  1  6  0  0  0
  9 10  1  0  0  0  0
 10  8  1  0  0  0  0
 10  2  1  1  0  0  0
 11 12  2  0  0  0  0
 13 16  1  0  0  0  0
 13 19  1  0  0  0  0
 14 18  2  0  0  0  0
 15 13  1  0  0  0  0
 15 19  1  0  0  0  0
 16 14  1  0  0  0  0
 16 11  1  0  0  0  0
 17 15  1  0  0  0  0
 19 18  1  0  0  0  0
 20 15  1  0  0  0  0
 22 21  1  0  0  0  0
 22 20  1  0  0  0  0
 24 23  1  0  0  0  0
 25 24  1  0  0  0  0
 25 26  2  0  0  0  0
 27 28  1  0  0  0  0
 28 29  1  0  0  0  0
 30 42  2  0  0  0  0
 31 33  1  0  0  0  0
 32 30  2  0  0  0  0
 33 42  1  0  0  0  0
 34 41  1  0  0  0  0
 34 40  1  0  0  0  0
 35 38  1  0  0  0  0
 35 39  1  0  0  0  0
 36 34  1  0  0  0  0
 37 39  1  0  0  0  0
 37 31  1  0  0  0  0
 38 36  1  0  0  0  0
 39 41  2  0  0  0  0
 41 32  1  0  0  0  0
 42 29  1  0  0  0  0
M  END
>  <MODEL>
9

>  <REMARK>
 VINA RESULT:      -6.2      3.059      6.981
  Name = 
  11 active torsions:
  status: ('A' for Active; 'I' for Inactive)
    1  A    between atoms: N_1  and  C_9
    2  A    between atoms: C_3  and  C_6
    3  A    between atoms: C_6  and  C_9
    4  A    between atoms: C_10  and  C_18
    5  A    between atoms: C_10  and  C_35
    6  A    between atoms: C_11  and  C_35
    7  A    between atoms: C_16  and  C_27
    8  A    between atoms: C_18  and  C_41
    9  A    between atoms: N_21  and  C_25
   10  A    between atoms: N_21  and  C_40
   11  A    between atoms: N_29  and  C_38
                            x       y       z     vdW  Elec       q    Type
                         _______ _______ _______ _____ _____    ______ ____

>  <TORSDO>
F 11

$$$$
