=
 OpenBabel11042418273D

 28 30  0  0  1  0  0  0  0  0999 V2000
  186.9440  177.8030  146.4980 C   0  0  2  0  0  3  0  0  0  0  0  0
  185.8090  178.5410  147.2270 C   0  0  0  0  0  2  0  0  0  0  0  0
  185.9990  176.4810  143.0300 C   0  0  2  0  0  3  0  0  0  0  0  0
  184.5460  178.1850  144.1630 C   0  0  2  0  0  3  0  0  0  0  0  0
  186.0990  177.4830  141.8820 C   0  0  0  0  0  2  0  0  0  0  0  0
  184.8750  178.3950  141.9300 C   0  0  0  0  0  2  0  0  0  0  0  0
  184.1440  178.9550  145.4250 C   0  0  0  0  0  2  0  0  0  0  0  0
  186.9450  177.8490  144.9620 C   0  0  0  0  0  2  0  0  0  0  0  0
  184.4130  178.1980  146.7180 C   0  0  0  0  0  2  0  0  0  0  0  0
  185.7050  177.1820  144.3630 C   0  0  2  0  0  3  0  0  0  0  0  0
  184.8580  179.1060  143.1420 O   0  0  0  0  0  0  0  0  0  0  0  0
  187.1590  175.7070  143.1050 O   0  0  0  0  0  0  0  0  0  0  0  0
  187.7010  175.7540  141.8190 C   0  0  0  0  0  2  0  0  0  0  0  0
  190.3310  174.4110  143.6030 C   0  0  0  0  0  2  0  0  0  0  0  0
  189.3190  173.8800  141.6910 C   0  0  2  0  0  3  0  0  0  0  0  0
  189.7260  175.6660  143.1660 N   0  0  0  0  0  0  0  0  0  0  0  0
  189.1680  175.3670  141.8670 C   0  0  2  0  0  3  0  0  0  0  0  0
  190.3500  173.4820  142.5490 O   0  0  0  0  0  0  0  0  0  0  0  0
  190.8060  176.6160  142.9540 C   0  0  0  0  0  2  0  0  0  0  0  0
  190.3360  178.0150  143.3070 C   0  0  0  0  0  1  0  0  0  0  0  0
  189.6450  173.5240  140.2690 C   0  0  0  0  0  0  0  0  0  0  0  0
  190.8840  173.4620  139.8930 N   0  0  0  0  0  2  0  0  0  0  0  0
  188.6190  173.1820  139.3820 O   0  0  0  0  0  0  0  0  0  0  0  0
  188.2420  174.0170  138.2970 C   0  0  0  0  0  1  0  0  0  0  0  0
  187.2680  176.4880  147.0610 N   0  0  0  0  0  2  0  0  0  0  0  0
  188.4690  175.9350  146.4460 C   0  0  0  0  0  2  0  0  0  0  0  0
  189.9210  176.8890  146.9700 S   0  0  0  0  0  0  0  0  0  0  0  0
  190.7910  175.4150  147.5720 C   0  0  0  0  0  1  0  0  0  0  0  0
  1 25  1  6  0  0  0
  1  2  1  0  0  0  0
  3 12  1  1  0  0  0
  3 10  1  0  0  0  0
  4 10  1  0  0  0  0
  4  7  1  1  0  0  0
  5  6  1  0  0  0  0
  5  3  1  0  0  0  0
  6 11  1  0  0  0  0
  7  9  1  0  0  0  0
  8  1  1  0  0  0  0
  9  2  1  0  0  0  0
 10  8  1  6  0  0  0
 11  4  1  0  0  0  0
 13 12  1  0  0  0  0
 15 21  1  6  0  0  0
 15 17  1  0  0  0  0
 15 18  1  0  0  0  0
 16 14  1  0  0  0  0
 17 13  1  1  0  0  0
 17 16  1  0  0  0  0
 18 14  1  0  0  0  0
 19 16  1  0  0  0  0
 19 20  1  0  0  0  0
 22 21  2  0  0  0  0
 23 21  1  0  0  0  0
 24 23  1  0  0  0  0
 26 27  1  0  0  0  0
 26 25  1  0  0  0  0
 27 28  1  0  0  0  0
M  END
>  <MODEL>
1

>  <REMARK>
 VINA RESULT:      -6.6      0.000      0.000
  Name = 
  9 active torsions:
  status: ('A' for Active; 'I' for Inactive)
    1  A    between atoms: C_2  and  N_20
    2  A    between atoms: C_4  and  C_7
    3  A    between atoms: O_5  and  C_8
    4  A    between atoms: O_5  and  C_21
    5  A    between atoms: C_6  and  N_22
    6  A    between atoms: C_7  and  O_16
    7  A    between atoms: S_9  and  C_12
    8  A    between atoms: C_12  and  N_20
    9  A    between atoms: C_21  and  C_25
                            x       y       z     vdW  Elec       q    Type
                         _______ _______ _______ _____ _____    ______ ____

>  <TORSDO>
F 9

$$$$
=
 OpenBabel11042418273D

 28 30  0  0  1  0  0  0  0  0999 V2000
  186.9320  178.0560  146.3650 C   0  0  2  0  0  3  0  0  0  0  0  0
  185.7040  178.7100  147.0210 C   0  0  0  0  0  2  0  0  0  0  0  0
  186.2370  176.4520  142.9570 C   0  0  2  0  0  3  0  0  0  0  0  0
  184.5800  178.0520  143.9520 C   0  0  2  0  0  3  0  0  0  0  0  0
  186.2670  177.3930  141.7560 C   0  0  0  0  0  2  0  0  0  0  0  0
  184.9540  178.1720  141.7200 C   0  0  0  0  0  2  0  0  0  0  0  0
  184.0610  178.8440  145.1580 C   0  0  0  0  0  2  0  0  0  0  0  0
  186.9750  178.0170  144.8290 C   0  0  0  0  0  2  0  0  0  0  0  0
  184.3670  178.1930  146.4990 C   0  0  0  0  0  2  0  0  0  0  0  0
  185.8300  177.1910  144.2400 C   0  0  2  0  0  3  0  0  0  0  0  0
  184.8250  178.9430  142.8880 O   0  0  0  0  0  0  0  0  0  0  0  0
  187.4680  175.8100  143.1060 O   0  0  0  0  0  0  0  0  0  0  0  0
  187.6400  175.0930  141.9210 C   0  0  0  0  0  2  0  0  0  0  0  0
  189.4190  172.6730  143.6190 C   0  0  0  0  0  2  0  0  0  0  0  0
  188.5930  172.8330  141.5570 C   0  0  2  0  0  3  0  0  0  0  0  0
  189.3090  174.1120  143.3960 N   0  0  0  0  0  0  0  0  0  0  0  0
  188.8880  174.2340  142.0190 C   0  0  2  0  0  3  0  0  0  0  0  0
  189.3070  171.9780  142.4030 O   0  0  0  0  0  0  0  0  0  0  0  0
  190.6500  174.6670  143.4790 C   0  0  0  0  0  2  0  0  0  0  0  0
  191.5200  173.7790  144.3490 C   0  0  0  0  0  1  0  0  0  0  0  0
  189.0020  172.6260  140.1270 C   0  0  0  0  0  0  0  0  0  0  0  0
  190.1730  172.1390  139.8610 N   0  0  0  0  0  2  0  0  0  0  0  0
  188.0910  172.8830  139.0960 O   0  0  0  0  0  0  0  0  0  0  0  0
  188.2120  174.0070  138.2370 C   0  0  0  0  0  1  0  0  0  0  0  0
  187.3730  176.8160  147.0120 N   0  0  0  0  0  2  0  0  0  0  0  0
  188.6920  176.4170  146.5360 C   0  0  0  0  0  2  0  0  0  0  0  0
  189.1510  174.8210  147.2650 S   0  0  0  0  0  0  0  0  0  0  0  0
  190.8110  175.3960  147.7180 C   0  0  0  0  0  1  0  0  0  0  0  0
  1 25  1  1  0  0  0
  1  2  1  0  0  0  0
  3 12  1  1  0  0  0
  3 10  1  0  0  0  0
  4 10  1  0  0  0  0
  4  7  1  1  0  0  0
  5  3  1  0  0  0  0
  6  5  1  0  0  0  0
  6 11  1  0  0  0  0
  7  9  1  0  0  0  0
  8  1  1  0  0  0  0
  9  2  1  0  0  0  0
 10  8  1  6  0  0  0
 11  4  1  0  0  0  0
 13 12  1  0  0  0  0
 15 21  1  6  0  0  0
 15 17  1  0  0  0  0
 15 18  1  0  0  0  0
 16 19  1  0  0  0  0
 16 14  1  0  0  0  0
 17 13  1  1  0  0  0
 17 16  1  0  0  0  0
 18 14  1  0  0  0  0
 19 20  1  0  0  0  0
 22 21  2  0  0  0  0
 23 21  1  0  0  0  0
 24 23  1  0  0  0  0
 26 25  1  0  0  0  0
 26 27  1  0  0  0  0
 27 28  1  0  0  0  0
M  END
>  <MODEL>
2

>  <REMARK>
 VINA RESULT:      -6.4      1.103      1.310
  Name = 
  9 active torsions:
  status: ('A' for Active; 'I' for Inactive)
    1  A    between atoms: C_2  and  N_20
    2  A    between atoms: C_4  and  C_7
    3  A    between atoms: O_5  and  C_8
    4  A    between atoms: O_5  and  C_21
    5  A    between atoms: C_6  and  N_22
    6  A    between atoms: C_7  and  O_16
    7  A    between atoms: S_9  and  C_12
    8  A    between atoms: C_12  and  N_20
    9  A    between atoms: C_21  and  C_25
                            x       y       z     vdW  Elec       q    Type
                         _______ _______ _______ _____ _____    ______ ____

>  <TORSDO>
F 9

$$$$
=
 OpenBabel11042418273D

 28 30  0  0  1  0  0  0  0  0999 V2000
  186.3120  176.5460  143.0750 C   0  0  2  0  0  3  0  0  0  0  0  0
  185.4090  177.4650  142.2350 C   0  0  0  0  0  2  0  0  0  0  0  0
  187.0060  177.8190  146.6190 C   0  0  2  0  0  3  0  0  0  0  0  0
  185.1390  178.8140  145.2720 C   0  0  2  0  0  3  0  0  0  0  0  0
  185.9410  177.4990  147.6660 C   0  0  0  0  0  2  0  0  0  0  0  0
  184.7790  178.4730  147.4830 C   0  0  0  0  0  2  0  0  0  0  0  0
  184.4320  179.0080  143.9250 C   0  0  0  0  0  2  0  0  0  0  0  0
  186.1070  176.5520  144.5970 C   0  0  0  0  0  2  0  0  0  0  0  0
  185.3620  178.9090  142.7240 C   0  0  0  0  0  2  0  0  0  0  0  0
  186.3990  177.9230  145.2130 C   0  0  2  0  0  3  0  0  0  0  0  0
  184.2140  178.3070  146.2070 O   0  0  0  0  0  0  0  0  0  0  0  0
  188.0330  176.8730  146.6630 O   0  0  0  0  0  0  0  0  0  0  0  0
  189.1390  177.5250  146.1140 C   0  0  0  0  0  2  0  0  0  0  0  0
  190.3030  174.2840  145.9070 C   0  0  0  0  0  2  0  0  0  0  0  0
  190.5630  176.1100  144.6590 C   0  0  2  0  0  3  0  0  0  0  0  0
  190.0400  175.3820  146.8330 N   0  0  0  0  0  0  0  0  0  0  0  0
  190.3230  176.5760  146.0690 C   0  0  2  0  0  3  0  0  0  0  0  0
  190.9280  174.7620  144.7430 O   0  0  0  0  0  0  0  0  0  0  0  0
  191.0390  175.3070  147.8870 C   0  0  0  0  0  2  0  0  0  0  0  0
  191.5310  176.7010  148.2280 C   0  0  0  0  0  1  0  0  0  0  0  0
  191.6430  176.9110  143.9910 C   0  0  0  0  0  0  0  0  0  0  0  0
  191.4640  177.3420  142.7820 N   0  0  0  0  0  2  0  0  0  0  0  0
  192.7980  177.2550  144.7010 O   0  0  0  0  0  0  0  0  0  0  0  0
  193.9700  176.4540  144.6820 C   0  0  0  0  0  1  0  0  0  0  0  0
  187.7170  176.5350  142.6560 N   0  0  0  0  0  2  0  0  0  0  0  0
  187.9010  175.7210  141.4600 C   0  0  0  0  0  2  0  0  0  0  0  0
  188.2650  174.0080  141.9330 S   0  0  0  0  0  0  0  0  0  0  0  0
  189.9940  174.1250  141.3960 C   0  0  0  0  0  1  0  0  0  0  0  0
  1 25  1  1  0  0  0
  1  8  1  0  0  0  0
  2  9  1  0  0  0  0
  2  1  1  0  0  0  0
  3 12  1  6  0  0  0
  3  5  1  0  0  0  0
  4  7  1  6  0  0  0
  4 11  1  0  0  0  0
  6  5  1  0  0  0  0
  9  7  1  0  0  0  0
 10  8  1  1  0  0  0
 10  4  1  0  0  0  0
 10  3  1  0  0  0  0
 11  6  1  0  0  0  0
 13 12  1  0  0  0  0
 14 16  1  0  0  0  0
 15 21  1  1  0  0  0
 15 18  1  0  0  0  0
 15 17  1  0  0  0  0
 16 19  1  0  0  0  0
 17 13  1  6  0  0  0
 17 16  1  0  0  0  0
 18 14  1  0  0  0  0
 19 20  1  0  0  0  0
 21 23  1  0  0  0  0
 22 21  2  0  0  0  0
 24 23  1  0  0  0  0
 26 27  1  0  0  0  0
 26 25  1  0  0  0  0
 28 27  1  0  0  0  0
M  END
>  <MODEL>
3

>  <REMARK>
 VINA RESULT:      -6.2      2.528      4.730
  Name = 
  9 active torsions:
  status: ('A' for Active; 'I' for Inactive)
    1  A    between atoms: C_2  and  N_20
    2  A    between atoms: C_4  and  C_7
    3  A    between atoms: O_5  and  C_8
    4  A    between atoms: O_5  and  C_21
    5  A    between atoms: C_6  and  N_22
    6  A    between atoms: C_7  and  O_16
    7  A    between atoms: S_9  and  C_12
    8  A    between atoms: C_12  and  N_20
    9  A    between atoms: C_21  and  C_25
                            x       y       z     vdW  Elec       q    Type
                         _______ _______ _______ _____ _____    ______ ____

>  <TORSDO>
F 9

$$$$
=
 OpenBabel11042418273D

 28 30  0  0  1  0  0  0  0  0999 V2000
  185.5160  177.8800  142.9340 C   0  0  2  0  0  3  0  0  0  0  0  0
  184.1700  178.5480  143.2660 C   0  0  0  0  0  2  0  0  0  0  0  0
  187.9010  177.5660  145.9130 C   0  0  2  0  0  3  0  0  0  0  0  0
  185.4750  178.0780  146.2970 C   0  0  2  0  0  3  0  0  0  0  0  0
  187.6830  176.3580  146.8210 C   0  0  0  0  0  2  0  0  0  0  0  0
  186.4930  176.6500  147.7330 C   0  0  0  0  0  2  0  0  0  0  0  0
  184.1090  178.5110  145.7530 C   0  0  0  0  0  2  0  0  0  0  0  0
  186.2150  177.1020  144.0590 C   0  0  0  0  0  2  0  0  0  0  0  0
  184.1940  179.4070  144.5260 C   0  0  0  0  0  2  0  0  0  0  0  0
  186.5950  178.0030  145.2360 C   0  0  2  0  0  3  0  0  0  0  0  0
  185.3350  176.8410  146.9590 O   0  0  0  0  0  0  0  0  0  0  0  0
  188.8990  177.2970  144.9740 O   0  0  0  0  0  0  0  0  0  0  0  0
  190.0360  177.0180  145.7340 C   0  0  0  0  0  2  0  0  0  0  0  0
  191.3660  175.7890  142.7970 C   0  0  0  0  0  2  0  0  0  0  0  0
  192.2390  176.5080  144.7160 C   0  0  2  0  0  3  0  0  0  0  0  0
  190.2840  175.6140  143.7620 N   0  0  0  0  0  0  0  0  0  0  0  0
  190.8740  175.9630  145.0350 C   0  0  2  0  0  3  0  0  0  0  0  0
  192.5870  175.9980  143.4620 O   0  0  0  0  0  0  0  0  0  0  0  0
  189.9760  174.1940  143.8130 C   0  0  0  0  0  2  0  0  0  0  0  0
  189.9170  173.7330  145.2560 C   0  0  0  0  0  1  0  0  0  0  0  0
  193.2490  176.1040  145.7520 C   0  0  0  0  0  0  0  0  0  0  0  0
  194.1320  176.9640  146.1520 N   0  0  0  0  0  2  0  0  0  0  0  0
  193.1820  174.8350  146.3350 O   0  0  0  0  0  0  0  0  0  0  0  0
  193.7030  173.6760  145.7000 C   0  0  0  0  0  1  0  0  0  0  0  0
  186.4160  178.7080  142.1250 N   0  0  0  0  0  2  0  0  0  0  0  0
  187.5680  177.9400  141.6710 C   0  0  0  0  0  2  0  0  0  0  0  0
  187.0920  176.8870  140.2720 S   0  0  0  0  0  0  0  0  0  0  0  0
  188.0360  175.4680  140.8930 C   0  0  0  0  0  1  0  0  0  0  0  0
  1 25  1  1  0  0  0
  1  2  1  0  0  0  0
  1  8  1  0  0  0  0
  2  9  1  0  0  0  0
  3 12  1  6  0  0  0
  3  5  1  0  0  0  0
  4  7  1  6  0  0  0
  4 11  1  0  0  0  0
  5  6  1  0  0  0  0
  9  7  1  0  0  0  0
 10  8  1  6  0  0  0
 10  3  1  0  0  0  0
 10  4  1  0  0  0  0
 11  6  1  0  0  0  0
 12 13  1  0  0  0  0
 14 18  1  0  0  0  0
 14 16  1  0  0  0  0
 15 17  1  0  0  0  0
 15 21  1  1  0  0  0
 16 19  1  0  0  0  0
 16 17  1  0  0  0  0
 17 13  1  6  0  0  0
 18 15  1  0  0  0  0
 19 20  1  0  0  0  0
 21 22  2  0  0  0  0
 21 23  1  0  0  0  0
 24 23  1  0  0  0  0
 26 25  1  0  0  0  0
 27 28  1  0  0  0  0
 27 26  1  0  0  0  0
M  END
>  <MODEL>
4

>  <REMARK>
 VINA RESULT:      -6.1      2.852      4.987
  Name = 
  9 active torsions:
  status: ('A' for Active; 'I' for Inactive)
    1  A    between atoms: C_2  and  N_20
    2  A    between atoms: C_4  and  C_7
    3  A    between atoms: O_5  and  C_8
    4  A    between atoms: O_5  and  C_21
    5  A    between atoms: C_6  and  N_22
    6  A    between atoms: C_7  and  O_16
    7  A    between atoms: S_9  and  C_12
    8  A    between atoms: C_12  and  N_20
    9  A    between atoms: C_21  and  C_25
                            x       y       z     vdW  Elec       q    Type
                         _______ _______ _______ _____ _____    ______ ____

>  <TORSDO>
F 9

$$$$
=
 OpenBabel11042418273D

 28 30  0  0  1  0  0  0  0  0999 V2000
  185.0860  177.7150  142.9890 C   0  0  2  0  0  3  0  0  0  0  0  0
  183.8590  178.5570  143.3770 C   0  0  0  0  0  2  0  0  0  0  0  0
  187.7390  177.4280  145.7360 C   0  0  2  0  0  3  0  0  0  0  0  0
  185.4330  178.2420  146.2980 C   0  0  2  0  0  3  0  0  0  0  0  0
  187.5000  176.3470  146.7870 C   0  0  0  0  0  2  0  0  0  0  0  0
  186.4520  176.8560  147.7740 C   0  0  0  0  0  2  0  0  0  0  0  0
  184.0660  178.7700  145.8470 C   0  0  0  0  0  2  0  0  0  0  0  0
  185.8210  176.9760  144.1180 C   0  0  0  0  0  2  0  0  0  0  0  0
  184.1060  179.5280  144.5270 C   0  0  0  0  0  2  0  0  0  0  0  0
  186.4170  177.9400  145.1460 C   0  0  2  0  0  3  0  0  0  0  0  0
  185.2420  177.1000  147.1010 O   0  0  0  0  0  0  0  0  0  0  0  0
  188.5950  176.9590  144.7390 O   0  0  0  0  0  0  0  0  0  0  0  0
  189.8410  177.5040  145.0550 C   0  0  0  0  0  2  0  0  0  0  0  0
  191.8240  174.9690  146.2980 C   0  0  0  0  0  2  0  0  0  0  0  0
  190.3230  175.1040  144.6580 C   0  0  2  0  0  3  0  0  0  0  0  0
  191.8080  176.3870  145.9540 N   0  0  0  0  0  0  0  0  0  0  0  0
  190.9280  176.4730  144.8100 C   0  0  2  0  0  3  0  0  0  0  0  0
  191.1920  174.2130  145.2950 O   0  0  0  0  0  0  0  0  0  0  0  0
  193.1420  176.7340  145.4890 C   0  0  0  0  0  2  0  0  0  0  0  0
  194.1810  176.1320  146.4140 C   0  0  0  0  0  1  0  0  0  0  0  0
  190.1510  174.7350  143.2130 C   0  0  0  0  0  0  0  0  0  0  0  0
  190.9890  175.1870  142.3330 N   0  0  0  0  0  2  0  0  0  0  0  0
  189.1410  173.8440  142.8350 O   0  0  0  0  0  0  0  0  0  0  0  0
  189.2410  172.4440  143.0540 C   0  0  0  0  0  1  0  0  0  0  0  0
  185.9710  178.3540  142.0100 N   0  0  0  0  0  2  0  0  0  0  0  0
  186.1240  177.5250  140.8210 C   0  0  0  0  0  2  0  0  0  0  0  0
  187.6650  176.5740  140.9290 S   0  0  0  0  0  0  0  0  0  0  0  0
  188.5860  177.9630  141.6460 C   0  0  0  0  0  1  0  0  0  0  0  0
  1 25  1  1  0  0  0
  1  2  1  0  0  0  0
  1  8  1  0  0  0  0
  2  9  1  0  0  0  0
  3 12  1  6  0  0  0
  3  5  1  0  0  0  0
  4  7  1  6  0  0  0
  4 11  1  0  0  0  0
  5  6  1  0  0  0  0
  9  7  1  0  0  0  0
 10  8  1  6  0  0  0
 10  3  1  0  0  0  0
 10  4  1  0  0  0  0
 11  6  1  0  0  0  0
 12 13  1  0  0  0  0
 15 21  1  6  0  0  0
 15 17  1  0  0  0  0
 15 18  1  0  0  0  0
 16 14  1  0  0  0  0
 17 13  1  1  0  0  0
 17 16  1  0  0  0  0
 18 14  1  0  0  0  0
 19 16  1  0  0  0  0
 19 20  1  0  0  0  0
 22 21  2  0  0  0  0
 23 24  1  0  0  0  0
 23 21  1  0  0  0  0
 26 27  1  0  0  0  0
 26 25  1  0  0  0  0
 27 28  1  0  0  0  0
M  END
>  <MODEL>
5

>  <REMARK>
 VINA RESULT:      -6.1      2.546      4.161
  Name = 
  9 active torsions:
  status: ('A' for Active; 'I' for Inactive)
    1  A    between atoms: C_2  and  N_20
    2  A    between atoms: C_4  and  C_7
    3  A    between atoms: O_5  and  C_8
    4  A    between atoms: O_5  and  C_21
    5  A    between atoms: C_6  and  N_22
    6  A    between atoms: C_7  and  O_16
    7  A    between atoms: S_9  and  C_12
    8  A    between atoms: C_12  and  N_20
    9  A    between atoms: C_21  and  C_25
                            x       y       z     vdW  Elec       q    Type
                         _______ _______ _______ _____ _____    ______ ____

>  <TORSDO>
F 9

$$$$
=
 OpenBabel11042418273D

 28 30  0  0  1  0  0  0  0  0999 V2000
  185.9990  176.6480  143.0470 C   0  0  2  0  0  3  0  0  0  0  0  0
  185.2520  177.7840  142.3270 C   0  0  0  0  0  2  0  0  0  0  0  0
  187.2750  177.5610  146.5400 C   0  0  2  0  0  3  0  0  0  0  0  0
  185.5630  179.0080  145.4120 C   0  0  2  0  0  3  0  0  0  0  0  0
  186.2640  177.4320  147.6770 C   0  0  0  0  0  2  0  0  0  0  0  0
  185.3360  178.6440  147.6370 C   0  0  0  0  0  2  0  0  0  0  0  0
  184.8000  179.4180  144.1480 C   0  0  0  0  0  2  0  0  0  0  0  0
  185.9380  176.6250  144.5820 C   0  0  0  0  0  2  0  0  0  0  0  0
  185.5720  179.1770  142.8590 C   0  0  0  0  0  2  0  0  0  0  0  0
  186.5830  177.8650  145.2050 C   0  0  2  0  0  3  0  0  0  0  0  0
  184.6360  178.6700  146.4190 O   0  0  0  0  0  0  0  0  0  0  0  0
  188.0650  176.4130  146.4560 O   0  0  0  0  0  0  0  0  0  0  0  0
  189.2650  176.8480  145.8910 C   0  0  0  0  0  2  0  0  0  0  0  0
  191.1920  174.6700  144.0350 C   0  0  0  0  0  2  0  0  0  0  0  0
  191.6420  176.2250  145.5650 C   0  0  2  0  0  3  0  0  0  0  0  0
  189.9490  174.7870  144.7920 N   0  0  0  0  0  0  0  0  0  0  0  0
  190.2630  175.7050  145.8640 C   0  0  2  0  0  3  0  0  0  0  0  0
  192.2500  175.2810  144.7300 O   0  0  0  0  0  0  0  0  0  0  0  0
  189.6910  173.4930  145.4040 C   0  0  0  0  0  2  0  0  0  0  0  0
  189.8080  172.3990  144.3600 C   0  0  0  0  0  1  0  0  0  0  0  0
  192.4440  176.4160  146.8200 C   0  0  0  0  0  0  0  0  0  0  0  0
  191.8360  176.4910  147.9620 N   0  0  0  0  0  2  0  0  0  0  0  0
  193.8410  176.4300  146.7610 O   0  0  0  0  0  0  0  0  0  0  0  0
  194.5660  177.4810  146.1370 C   0  0  0  0  0  1  0  0  0  0  0  0
  187.3230  176.3500  142.4910 N   0  0  0  0  0  2  0  0  0  0  0  0
  187.5210  174.9120  142.3530 C   0  0  0  0  0  2  0  0  0  0  0  0
  188.7100  174.5820  141.0220 S   0  0  0  0  0  0  0  0  0  0  0  0
  188.1940  172.8500  140.8600 C   0  0  0  0  0  1  0  0  0  0  0  0
  1 25  1  1  0  0  0
  1  8  1  0  0  0  0
  2  9  1  0  0  0  0
  2  1  1  0  0  0  0
  3 12  1  6  0  0  0
  3  5  1  0  0  0  0
  4  7  1  6  0  0  0
  4 11  1  0  0  0  0
  6  5  1  0  0  0  0
  9  7  1  0  0  0  0
 10  8  1  1  0  0  0
 10  4  1  0  0  0  0
 10  3  1  0  0  0  0
 11  6  1  0  0  0  0
 13 12  1  0  0  0  0
 14 18  1  0  0  0  0
 14 16  1  0  0  0  0
 15 17  1  0  0  0  0
 15 21  1  1  0  0  0
 16 19  1  0  0  0  0
 16 17  1  0  0  0  0
 17 13  1  6  0  0  0
 18 15  1  0  0  0  0
 20 19  1  0  0  0  0
 21 22  2  0  0  0  0
 23 21  1  0  0  0  0
 24 23  1  0  0  0  0
 26 25  1  0  0  0  0
 27 26  1  0  0  0  0
 28 27  1  0  0  0  0
M  END
>  <MODEL>
6

>  <REMARK>
 VINA RESULT:      -6.0      2.775      5.281
  Name = 
  9 active torsions:
  status: ('A' for Active; 'I' for Inactive)
    1  A    between atoms: C_2  and  N_20
    2  A    between atoms: C_4  and  C_7
    3  A    between atoms: O_5  and  C_8
    4  A    between atoms: O_5  and  C_21
    5  A    between atoms: C_6  and  N_22
    6  A    between atoms: C_7  and  O_16
    7  A    between atoms: S_9  and  C_12
    8  A    between atoms: C_12  and  N_20
    9  A    between atoms: C_21  and  C_25
                            x       y       z     vdW  Elec       q    Type
                         _______ _______ _______ _____ _____    ______ ____

>  <TORSDO>
F 9

$$$$
=
 OpenBabel11042418273D

 28 30  0  0  1  0  0  0  0  0999 V2000
  185.6260  176.8520  142.9620 C   0  0  2  0  0  3  0  0  0  0  0  0
  184.8520  178.1480  142.6670 C   0  0  0  0  0  2  0  0  0  0  0  0
  187.8110  176.9940  146.1040 C   0  0  2  0  0  3  0  0  0  0  0  0
  186.0400  178.7310  145.7260 C   0  0  2  0  0  3  0  0  0  0  0  0
  187.1020  176.7080  147.4250 C   0  0  0  0  0  2  0  0  0  0  0  0
  186.3290  177.9590  147.8380 C   0  0  0  0  0  2  0  0  0  0  0  0
  185.0390  179.4230  144.7950 C   0  0  0  0  0  2  0  0  0  0  0  0
  185.9420  176.5350  144.4310 C   0  0  0  0  0  2  0  0  0  0  0  0
  185.4410  179.3900  143.3280 C   0  0  0  0  0  2  0  0  0  0  0  0
  186.8490  177.5910  145.0670 C   0  0  2  0  0  3  0  0  0  0  0  0
  185.3580  178.2610  146.8670 O   0  0  0  0  0  0  0  0  0  0  0  0
  188.4280  175.8380  145.6210 O   0  0  0  0  0  0  0  0  0  0  0  0
  189.7470  175.9260  146.0680 C   0  0  0  0  0  2  0  0  0  0  0  0
  192.6580  176.9470  144.5230 C   0  0  0  0  0  2  0  0  0  0  0  0
  191.9000  174.9910  145.2720 C   0  0  2  0  0  3  0  0  0  0  0  0
  191.2070  177.1090  144.5220 N   0  0  0  0  0  0  0  0  0  0  0  0
  190.6960  175.8080  144.8900 C   0  0  2  0  0  3  0  0  0  0  0  0
  193.0000  175.5900  144.6490 O   0  0  0  0  0  0  0  0  0  0  0  0
  190.8000  177.3490  143.1460 C   0  0  0  0  0  2  0  0  0  0  0  0
  189.6090  178.2880  143.1200 C   0  0  0  0  0  1  0  0  0  0  0  0
  191.7580  173.5610  144.8350 C   0  0  0  0  0  0  0  0  0  0  0  0
  192.7260  172.7270  145.0510 N   0  0  0  0  0  2  0  0  0  0  0  0
  190.5550  173.1190  144.2740 O   0  0  0  0  0  0  0  0  0  0  0  0
  189.6800  172.2300  144.9530 C   0  0  0  0  0  1  0  0  0  0  0  0
  186.7330  176.5870  142.0370 N   0  0  0  0  0  2  0  0  0  0  0  0
  187.4000  175.3330  142.3630 C   0  0  0  0  0  2  0  0  0  0  0  0
  188.5110  174.8580  141.0100 S   0  0  0  0  0  0  0  0  0  0  0  0
  188.2240  173.0850  141.2660 C   0  0  0  0  0  1  0  0  0  0  0  0
  1 25  1  6  0  0  0
  1  8  1  0  0  0  0
  2  1  1  0  0  0  0
  2  9  1  0  0  0  0
  3 12  1  6  0  0  0
  3  5  1  0  0  0  0
  4  7  1  6  0  0  0
  4 11  1  0  0  0  0
  5  6  1  0  0  0  0
  9  7  1  0  0  0  0
 10  8  1  1  0  0  0
 10  4  1  0  0  0  0
 10  3  1  0  0  0  0
 11  6  1  0  0  0  0
 12 13  1  0  0  0  0
 14 18  1  0  0  0  0
 15 21  1  6  0  0  0
 16 14  1  0  0  0  0
 16 17  1  0  0  0  0
 17 15  1  0  0  0  0
 17 13  1  1  0  0  0
 18 15  1  0  0  0  0
 19 16  1  0  0  0  0
 20 19  1  0  0  0  0
 21 22  2  0  0  0  0
 23 21  1  0  0  0  0
 23 24  1  0  0  0  0
 25 26  1  0  0  0  0
 27 28  1  0  0  0  0
 27 26  1  0  0  0  0
M  END
>  <MODEL>
7

>  <REMARK>
 VINA RESULT:      -5.9      2.650      4.344
  Name = 
  9 active torsions:
  status: ('A' for Active; 'I' for Inactive)
    1  A    between atoms: C_2  and  N_20
    2  A    between atoms: C_4  and  C_7
    3  A    between atoms: O_5  and  C_8
    4  A    between atoms: O_5  and  C_21
    5  A    between atoms: C_6  and  N_22
    6  A    between atoms: C_7  and  O_16
    7  A    between atoms: S_9  and  C_12
    8  A    between atoms: C_12  and  N_20
    9  A    between atoms: C_21  and  C_25
                            x       y       z     vdW  Elec       q    Type
                         _______ _______ _______ _____ _____    ______ ____

>  <TORSDO>
F 9

$$$$
=
 OpenBabel11042418273D

 28 30  0  0  1  0  0  0  0  0999 V2000
  191.7560  174.8170  143.3630 C   0  0  2  0  0  3  0  0  0  0  0  0
  193.1300  174.1840  143.6430 C   0  0  0  0  0  2  0  0  0  0  0  0
  189.7010  175.5860  146.5020 C   0  0  2  0  0  3  0  0  0  0  0  0
  192.1550  175.0990  146.6960 C   0  0  2  0  0  3  0  0  0  0  0  0
  190.0140  176.9070  147.2000 C   0  0  0  0  0  2  0  0  0  0  0  0
  191.2950  176.7320  148.0130 C   0  0  0  0  0  2  0  0  0  0  0  0
  193.4550  174.5740  146.0780 C   0  0  0  0  0  2  0  0  0  0  0  0
  191.1800  175.7580  144.4320 C   0  0  0  0  0  2  0  0  0  0  0  0
  193.2420  173.5130  145.0080 C   0  0  0  0  0  2  0  0  0  0  0  0
  190.9280  175.0380  145.7590 C   0  0  2  0  0  3  0  0  0  0  0  0
  192.3640  176.4150  147.1560 O   0  0  0  0  0  0  0  0  0  0  0  0
  188.6090  175.7330  145.6450 O   0  0  0  0  0  0  0  0  0  0  0  0
  188.1650  177.0400  145.8560 C   0  0  0  0  0  2  0  0  0  0  0  0
  186.2640  176.3630  143.0580 C   0  0  0  0  0  2  0  0  0  0  0  0
  185.9910  177.6670  144.8430 C   0  0  2  0  0  3  0  0  0  0  0  0
  187.6250  176.6120  143.5220 N   0  0  0  0  0  0  0  0  0  0  0  0
  187.4720  177.5540  144.6070 C   0  0  2  0  0  3  0  0  0  0  0  0
  185.3680  177.2660  143.6560 O   0  0  0  0  0  0  0  0  0  0  0  0
  188.3260  177.3070  142.4540 C   0  0  0  0  0  2  0  0  0  0  0  0
  187.6430  177.0320  141.1280 C   0  0  0  0  0  1  0  0  0  0  0  0
  185.5950  179.0700  145.2020 C   0  0  0  0  0  0  0  0  0  0  0  0
  185.3840  179.9350  144.2610 N   0  0  0  0  0  2  0  0  0  0  0  0
  185.3780  179.4140  146.5410 O   0  0  0  0  0  0  0  0  0  0  0  0
  185.2040  178.4380  147.5580 C   0  0  0  0  0  1  0  0  0  0  0  0
  190.7750  173.8950  142.7800 N   0  0  0  0  0  2  0  0  0  0  0  0
  190.5880  174.1590  141.3590 C   0  0  0  0  0  2  0  0  0  0  0  0
  189.3850  172.9890  140.6700 S   0  0  0  0  0  0  0  0  0  0  0  0
  188.1940  173.2750  142.0090 C   0  0  0  0  0  1  0  0  0  0  0  0
  1 25  1  1  0  0  0
  1  2  1  0  0  0  0
  1  8  1  0  0  0  0
  2  9  1  0  0  0  0
  3 12  1  6  0  0  0
  3  5  1  0  0  0  0
  4  7  1  6  0  0  0
  4 11  1  0  0  0  0
  5  6  1  0  0  0  0
  9  7  1  0  0  0  0
 10  8  1  6  0  0  0
 10  3  1  0  0  0  0
 10  4  1  0  0  0  0
 11  6  1  0  0  0  0
 12 13  1  0  0  0  0
 14 16  1  0  0  0  0
 14 18  1  0  0  0  0
 15 21  1  6  0  0  0
 16 17  1  0  0  0  0
 17 15  1  0  0  0  0
 17 13  1  1  0  0  0
 18 15  1  0  0  0  0
 19 16  1  0  0  0  0
 20 19  1  0  0  0  0
 21 23  1  0  0  0  0
 22 21  2  0  0  0  0
 23 24  1  0  0  0  0
 26 25  1  0  0  0  0
 27 26  1  0  0  0  0
 27 28  1  0  0  0  0
M  END
>  <MODEL>
8

>  <REMARK>
 VINA RESULT:      -5.7      2.759      7.090
  Name = 
  9 active torsions:
  status: ('A' for Active; 'I' for Inactive)
    1  A    between atoms: C_2  and  N_20
    2  A    between atoms: C_4  and  C_7
    3  A    between atoms: O_5  and  C_8
    4  A    between atoms: O_5  and  C_21
    5  A    between atoms: C_6  and  N_22
    6  A    between atoms: C_7  and  O_16
    7  A    between atoms: S_9  and  C_12
    8  A    between atoms: C_12  and  N_20
    9  A    between atoms: C_21  and  C_25
                            x       y       z     vdW  Elec       q    Type
                         _______ _______ _______ _____ _____    ______ ____

>  <TORSDO>
F 9

$$$$
=
 OpenBabel11042418273D

 28 30  0  0  1  0  0  0  0  0999 V2000
  184.9390  177.7880  144.4170 C   0  0  2  0  0  3  0  0  0  0  0  0
  184.4870  178.6430  145.6130 C   0  0  0  0  0  2  0  0  0  0  0  0
  188.5630  176.5660  144.6270 C   0  0  2  0  0  3  0  0  0  0  0  0
  187.4230  177.4710  146.6710 C   0  0  2  0  0  3  0  0  0  0  0  0
  188.7950  175.2990  145.4460 C   0  0  0  0  0  2  0  0  0  0  0  0
  188.7760  175.6710  146.9270 C   0  0  0  0  0  2  0  0  0  0  0  0
  186.2600  178.2380  147.3110 C   0  0  0  0  0  2  0  0  0  0  0  0
  186.0190  176.7260  144.6760 C   0  0  0  0  0  2  0  0  0  0  0  0
  185.6330  179.2790  146.3950 C   0  0  0  0  0  2  0  0  0  0  0  0
  187.3410  177.3460  145.1330 C   0  0  2  0  0  3  0  0  0  0  0  0
  187.5190  176.1980  147.2690 O   0  0  0  0  0  0  0  0  0  0  0  0
  188.4450  176.2570  143.2710 O   0  0  0  0  0  0  0  0  0  0  0  0
  189.6620  176.6510  142.7100 C   0  0  0  0  0  2  0  0  0  0  0  0
  191.7950  174.3360  141.2980 C   0  0  0  0  0  2  0  0  0  0  0  0
  192.0760  176.0880  142.6450 C   0  0  2  0  0  3  0  0  0  0  0  0
  190.4940  174.4970  141.9390 N   0  0  0  0  0  0  0  0  0  0  0  0
  190.6940  175.5540  142.9050 C   0  0  2  0  0  3  0  0  0  0  0  0
  192.7760  175.0720  141.9860 O   0  0  0  0  0  0  0  0  0  0  0  0
  190.2290  173.2810  142.6920 C   0  0  0  0  0  2  0  0  0  0  0  0
  188.8220  172.7950  142.4020 C   0  0  0  0  0  1  0  0  0  0  0  0
  192.7690  176.4680  143.9210 C   0  0  0  0  0  0  0  0  0  0  0  0
  192.0730  176.9080  144.9210 N   0  0  0  0  0  2  0  0  0  0  0  0
  194.1480  176.2690  144.0530 O   0  0  0  0  0  0  0  0  0  0  0  0
  194.8670  176.6650  145.2120 C   0  0  0  0  0  1  0  0  0  0  0  0
  185.1210  178.5410  143.1720 N   0  0  0  0  0  2  0  0  0  0  0  0
  185.2870  177.6430  142.0360 C   0  0  0  0  0  2  0  0  0  0  0  0
  184.4850  178.3510  140.5700 S   0  0  0  0  0  0  0  0  0  0  0  0
  182.8220  178.1620  141.2700 C   0  0  0  0  0  1  0  0  0  0  0  0
  1 25  1  6  0  0  0
  1  8  1  0  0  0  0
  1  2  1  0  0  0  0
  2  9  1  0  0  0  0
  3 12  1  6  0  0  0
  3 10  1  0  0  0  0
  3  5  1  0  0  0  0
  4 11  1  0  0  0  0
  4  7  1  1  0  0  0
  5  6  1  0  0  0  0
  6 11  1  0  0  0  0
  9  7  1  0  0  0  0
 10  8  1  1  0  0  0
 10  4  1  0  0  0  0
 13 12  1  0  0  0  0
 14 16  1  0  0  0  0
 14 18  1  0  0  0  0
 15 17  1  0  0  0  0
 15 21  1  1  0  0  0
 16 19  1  0  0  0  0
 16 17  1  0  0  0  0
 17 13  1  6  0  0  0
 18 15  1  0  0  0  0
 20 19  1  0  0  0  0
 21 23  1  0  0  0  0
 21 22  2  0  0  0  0
 23 24  1  0  0  0  0
 26 25  1  0  0  0  0
 27 28  1  0  0  0  0
 27 26  1  0  0  0  0
M  END
>  <MODEL>
9

>  <REMARK>
 VINA RESULT:      -5.7      2.795      5.054
  Name = 
  9 active torsions:
  status: ('A' for Active; 'I' for Inactive)
    1  A    between atoms: C_2  and  N_20
    2  A    between atoms: C_4  and  C_7
    3  A    between atoms: O_5  and  C_8
    4  A    between atoms: O_5  and  C_21
    5  A    between atoms: C_6  and  N_22
    6  A    between atoms: C_7  and  O_16
    7  A    between atoms: S_9  and  C_12
    8  A    between atoms: C_12  and  N_20
    9  A    between atoms: C_21  and  C_25
                            x       y       z     vdW  Elec       q    Type
                         _______ _______ _______ _____ _____    ______ ____

>  <TORSDO>
F 9

$$$$
