=
 OpenBabel11042414033D

 31 34  0  0  1  0  0  0  0  0999 V2000
  186.9090  176.9290  143.4420 C   0  0  2  0  0  3  0  0  0  0  0  0
  190.1170  175.2830  143.5670 C   0  0  0  0  0  0  0  0  0  0  0  0
  188.7410  175.2460  143.5390 C   0  0  0  0  0  3  0  0  0  0  0  0
  192.8330  175.9090  144.0860 C   0  0  1  0  0  3  0  0  0  0  0  0
  190.5080  176.5900  143.5040 C   0  0  0  0  0  0  0  0  0  0  0  0
  188.3130  176.5260  143.4580 N   0  0  0  0  0  0  0  0  0  0  0  0
  191.0820  174.1850  143.6340 C   0  0  0  0  0  3  0  0  0  0  0  0
  191.9450  176.9960  143.4380 C   0  0  0  0  0  2  0  0  0  0  0  0
  189.3760  177.3640  143.4170 C   0  0  0  0  0  3  0  0  0  0  0  0
  192.3800  174.4800  143.8040 C   0  0  0  0  0  0  0  0  0  0  0  0
  193.2750  173.4630  143.8720 F   0  0  0  0  0  0  0  0  0  0  0  0
  194.2850  176.1140  143.6830 C   0  0  0  0  0  2  0  0  0  0  0  0
  195.1740  176.2160  144.9150 C   0  0  0  0  0  2  0  0  0  0  0  0
  195.7530  174.1340  145.9230 O   0  0  0  0  0  0  0  0  0  0  0  0
  197.1700  174.8280  144.2190 N   0  0  0  0  0  1  0  0  0  0  0  0
  196.0230  174.9950  145.0470 C   0  0  0  0  0  0  0  0  0  0  0  0
  186.9240  176.7150  140.9650 O   0  0  0  0  0  0  0  0  0  0  0  0
  185.5990  178.2910  141.7200 C   0  0  0  0  0  3  0  0  0  0  0  0
  186.5350  176.9560  138.5420 C   0  0  0  0  0  1  0  0  0  0  0  0
  186.3210  177.3130  139.9680 C   0  0  0  0  0  0  0  0  0  0  0  0
  186.4980  177.2990  142.0560 C   0  0  0  0  0  0  0  0  0  0  0  0
  185.4850  178.2930  140.3730 N   0  0  0  0  0  0  0  0  0  0  0  0
  186.7020  178.0590  144.3450 N   0  0  0  0  0  2  0  0  0  0  0  0
  186.2480  177.5600  145.6420 C   0  0  0  0  0  2  0  0  0  0  0  0
  187.2410  177.8170  146.6830 N   0  0  0  0  0  2  0  0  0  0  0  0
  190.7790  176.7070  147.2220 C   0  0  0  0  0  3  0  0  0  0  0  0
  189.6720  177.5410  147.0290 C   0  0  0  0  0  3  0  0  0  0  0  0
  189.3210  174.7710  147.2120 C   0  0  0  0  0  3  0  0  0  0  0  0
  190.6030  175.3230  147.3090 C   0  0  0  0  0  3  0  0  0  0  0  0
  188.3850  176.9920  146.9290 C   0  0  0  0  0  0  0  0  0  0  0  0
  188.2150  175.6060  147.0220 C   0  0  0  0  0  3  0  0  0  0  0  0
  1  6  1  0  0  0  0
  1 23  1  1  0  0  0
  2  7  1  0  0  0  0
  3  2  2  0  0  0  0
  4 12  1  6  0  0  0
  5  2  1  0  0  0  0
  6  3  1  0  0  0  0
  7 10  2  0  0  0  0
  8  5  1  0  0  0  0
  8  4  1  0  0  0  0
  9  6  1  0  0  0  0
  9  5  2  0  0  0  0
 10 11  1  0  0  0  0
 10  4  1  0  0  0  0
 12 13  1  0  0  0  0
 13 16  1  0  0  0  0
 15 16  1  0  0  0  0
 16 14  2  0  0  0  0
 17 21  1  0  0  0  0
 18 21  2  0  0  0  0
 19 20  1  0  0  0  0
 20 22  2  0  0  0  0
 20 17  1  0  0  0  0
 21  1  1  0  0  0  0
 22 18  1  0  0  0  0
 23 24  1  0  0  0  0
 24 25  1  0  0  0  0
 25 30  1  0  0  0  0
 26 29  1  0  0  0  0
 27 26  2  0  0  0  0
 28 29  2  0  0  0  0
 30 31  2  0  0  0  0
 30 27  1  0  0  0  0
 31 28  1  0  0  0  0
M  END
>  <MODEL>
1

>  <REMARK>
 VINA RESULT:      -6.5      0.000      0.000
  Name = 
  9 active torsions:
  status: ('A' for Active; 'I' for Inactive)
    1  A    between atoms: C_2  and  N_13
    2  A    between atoms: C_2  and  N_25
    3  A    between atoms: C_2  and  C_28
    4  A    between atoms: N_4  and  C_22
    5  A    between atoms: N_4  and  C_27
    6  A    between atoms: C_8  and  C_23
    7  A    between atoms: C_11  and  C_21
    8  A    between atoms: C_11  and  C_23
    9  A    between atoms: C_22  and  N_25
                            x       y       z     vdW  Elec       q    Type
                         _______ _______ _______ _____ _____    ______ ____

>  <TORSDO>
F 9

$$$$
=
 OpenBabel11042414033D

 31 34  0  0  1  0  0  0  0  0999 V2000
  193.4340  176.4950  144.3840 C   0  0  2  0  0  3  0  0  0  0  0  0
  190.0170  175.7560  143.4970 C   0  0  0  0  0  0  0  0  0  0  0  0
  191.2940  175.3560  143.8190 C   0  0  0  0  0  3  0  0  0  0  0  0
  187.7410  177.0710  142.4330 C   0  0  1  0  0  3  0  0  0  0  0  0
  189.9760  177.1200  143.5330 C   0  0  0  0  0  0  0  0  0  0  0  0
  192.0130  176.4780  144.0480 N   0  0  0  0  0  0  0  0  0  0  0  0
  188.8380  174.9510  143.1740 C   0  0  0  0  0  3  0  0  0  0  0  0
  188.7180  177.8930  143.3070 C   0  0  0  0  0  2  0  0  0  0  0  0
  191.2240  177.5680  143.8970 C   0  0  0  0  0  3  0  0  0  0  0  0
  187.7320  175.5770  142.7410 C   0  0  0  0  0  0  0  0  0  0  0  0
  186.6400  174.8330  142.4350 F   0  0  0  0  0  0  0  0  0  0  0  0
  186.3420  177.6590  142.5230 C   0  0  0  0  0  2  0  0  0  0  0  0
  185.8240  177.5940  143.9530 C   0  0  0  0  0  2  0  0  0  0  0  0
  185.6090  179.9660  143.8370 O   0  0  0  0  0  0  0  0  0  0  0  0
  184.1520  178.9190  145.3110 N   0  0  0  0  0  1  0  0  0  0  0  0
  185.1920  178.8910  144.3380 C   0  0  0  0  0  0  0  0  0  0  0  0
  194.1880  176.1920  142.0330 O   0  0  0  0  0  0  0  0  0  0  0  0
  195.1250  174.8130  143.4590 C   0  0  0  0  0  3  0  0  0  0  0  0
  195.2830  175.4580  139.9500 C   0  0  0  0  0  1  0  0  0  0  0  0
  195.0310  175.4040  141.4130 C   0  0  0  0  0  0  0  0  0  0  0  0
  194.2260  175.8480  143.2960 C   0  0  0  0  0  0  0  0  0  0  0  0
  195.6430  174.5340  142.2430 N   0  0  0  0  0  0  0  0  0  0  0  0
  193.6590  175.7980  145.6490 N   0  0  0  0  0  2  0  0  0  0  0  0
  193.2530  176.6660  146.7530 C   0  0  0  0  0  2  0  0  0  0  0  0
  192.2500  176.0150  147.5930 N   0  0  0  0  0  2  0  0  0  0  0  0
  188.7000  175.0080  146.9460 C   0  0  0  0  0  3  0  0  0  0  0  0
  190.0680  174.9160  147.2170 C   0  0  0  0  0  3  0  0  0  0  0  0
  188.8590  177.4260  146.9610 C   0  0  0  0  0  3  0  0  0  0  0  0
  188.0970  176.2620  146.8130 C   0  0  0  0  0  3  0  0  0  0  0  0
  190.8390  176.0800  147.3640 C   0  0  0  0  0  0  0  0  0  0  0  0
  190.2280  177.3330  147.2350 C   0  0  0  0  0  3  0  0  0  0  0  0
  1 23  1  1  0  0  0
  2  5  1  0  0  0  0
  2  3  2  0  0  0  0
  3  6  1  0  0  0  0
  4 12  1  1  0  0  0
  4 10  1  0  0  0  0
  4  8  1  0  0  0  0
  5  9  2  0  0  0  0
  6  1  1  0  0  0  0
  7  2  1  0  0  0  0
  8  5  1  0  0  0  0
  9  6  1  0  0  0  0
 10  7  2  0  0  0  0
 11 10  1  0  0  0  0
 12 13  1  0  0  0  0
 13 16  1  0  0  0  0
 14 16  2  0  0  0  0
 16 15  1  0  0  0  0
 17 21  1  0  0  0  0
 19 20  1  0  0  0  0
 20 17  1  0  0  0  0
 20 22  2  0  0  0  0
 21 18  2  0  0  0  0
 21  1  1  0  0  0  0
 22 18  1  0  0  0  0
 23 24  1  0  0  0  0
 24 25  1  0  0  0  0
 26 27  1  0  0  0  0
 27 30  2  0  0  0  0
 28 31  2  0  0  0  0
 29 26  2  0  0  0  0
 29 28  1  0  0  0  0
 30 25  1  0  0  0  0
 31 30  1  0  0  0  0
M  END
>  <MODEL>
2

>  <REMARK>
 VINA RESULT:      -6.5      2.615      6.937
  Name = 
  9 active torsions:
  status: ('A' for Active; 'I' for Inactive)
    1  A    between atoms: C_2  and  N_13
    2  A    between atoms: C_2  and  N_25
    3  A    between atoms: C_2  and  C_28
    4  A    between atoms: N_4  and  C_22
    5  A    between atoms: N_4  and  C_27
    6  A    between atoms: C_8  and  C_23
    7  A    between atoms: C_11  and  C_21
    8  A    between atoms: C_11  and  C_23
    9  A    between atoms: C_22  and  N_25
                            x       y       z     vdW  Elec       q    Type
                         _______ _______ _______ _____ _____    ______ ____

>  <TORSDO>
F 9

$$$$
=
 OpenBabel11042414033D

 31 34  0  0  1  0  0  0  0  0999 V2000
  187.4960  177.4840  142.9920 C   0  0  2  0  0  3  0  0  0  0  0  0
  189.6070  176.1680  145.6050 C   0  0  0  0  0  0  0  0  0  0  0  0
  188.3710  176.3460  145.0260 C   0  0  0  0  0  3  0  0  0  0  0  0
  192.2350  176.5000  146.6160 C   0  0  1  0  0  3  0  0  0  0  0  0
  190.5390  176.7700  144.8100 C   0  0  0  0  0  0  0  0  0  0  0  0
  188.5640  177.0500  143.8890 N   0  0  0  0  0  0  0  0  0  0  0  0
  189.9720  175.4650  146.8360 C   0  0  0  0  0  3  0  0  0  0  0  0
  192.0040  176.7080  145.1000 C   0  0  0  0  0  2  0  0  0  0  0  0
  189.8850  177.3050  143.7260 C   0  0  0  0  0  3  0  0  0  0  0  0
  191.2350  175.5580  147.2780 C   0  0  0  0  0  0  0  0  0  0  0  0
  191.5740  174.9120  148.4220 F   0  0  0  0  0  0  0  0  0  0  0  0
  193.6650  176.0490  146.8670 C   0  0  0  0  0  2  0  0  0  0  0  0
  194.0400  174.9100  145.9280 C   0  0  0  0  0  2  0  0  0  0  0  0
  195.6860  176.0090  144.5980 O   0  0  0  0  0  0  0  0  0  0  0  0
  196.4640  174.1950  145.8220 N   0  0  0  0  0  1  0  0  0  0  0  0
  195.4320  175.0920  145.4200 C   0  0  0  0  0  0  0  0  0  0  0  0
  185.8230  177.6660  144.8230 O   0  0  0  0  0  0  0  0  0  0  0  0
  185.9090  179.4210  143.5100 C   0  0  0  0  0  3  0  0  0  0  0  0
  184.0640  178.3930  146.3900 C   0  0  0  0  0  1  0  0  0  0  0  0
  184.9620  178.5700  145.2200 C   0  0  0  0  0  0  0  0  0  0  0  0
  186.4190  178.1650  143.7700 C   0  0  0  0  0  0  0  0  0  0  0  0
  184.9740  179.6780  144.4500 N   0  0  0  0  0  0  0  0  0  0  0  0
  186.9460  176.3350  142.2750 N   0  0  0  0  0  2  0  0  0  0  0  0
  187.8070  176.0250  141.1350 C   0  0  0  0  0  2  0  0  0  0  0  0
  188.2680  174.6400  141.1840 N   0  0  0  0  0  2  0  0  0  0  0  0
  191.6620  173.9410  142.6100 C   0  0  0  0  0  3  0  0  0  0  0  0
  190.6590  174.4560  141.7830 C   0  0  0  0  0  3  0  0  0  0  0  0
  189.9790  172.8370  143.9610 C   0  0  0  0  0  3  0  0  0  0  0  0
  191.3220  173.1280  143.6960 C   0  0  0  0  0  3  0  0  0  0  0  0
  189.3110  174.1650  142.0420 C   0  0  0  0  0  0  0  0  0  0  0  0
  188.9770  173.3560  143.1340 C   0  0  0  0  0  3  0  0  0  0  0  0
  1 23  1  1  0  0  0
  1 21  1  0  0  0  0
  1  6  1  0  0  0  0
  2  7  1  0  0  0  0
  3  2  2  0  0  0  0
  4 12  1  6  0  0  0
  4 10  1  0  0  0  0
  5  8  1  0  0  0  0
  5  2  1  0  0  0  0
  6  3  1  0  0  0  0
  7 10  2  0  0  0  0
  8  4  1  0  0  0  0
  9  6  1  0  0  0  0
  9  5  2  0  0  0  0
 10 11  1  0  0  0  0
 13 12  1  0  0  0  0
 14 16  2  0  0  0  0
 16 15  1  0  0  0  0
 16 13  1  0  0  0  0
 17 20  1  0  0  0  0
 18 21  2  0  0  0  0
 18 22  1  0  0  0  0
 20 19  1  0  0  0  0
 21 17  1  0  0  0  0
 22 20  2  0  0  0  0
 24 25  1  0  0  0  0
 24 23  1  0  0  0  0
 25 30  1  0  0  0  0
 26 29  1  0  0  0  0
 27 30  1  0  0  0  0
 27 26  2  0  0  0  0
 29 28  2  0  0  0  0
 30 31  2  0  0  0  0
 31 28  1  0  0  0  0
M  END
>  <MODEL>
3

>  <REMARK>
 VINA RESULT:      -6.3      2.125      3.903
  Name = 
  9 active torsions:
  status: ('A' for Active; 'I' for Inactive)
    1  A    between atoms: C_2  and  N_13
    2  A    between atoms: C_2  and  N_25
    3  A    between atoms: C_2  and  C_28
    4  A    between atoms: N_4  and  C_22
    5  A    between atoms: N_4  and  C_27
    6  A    between atoms: C_8  and  C_23
    7  A    between atoms: C_11  and  C_21
    8  A    between atoms: C_11  and  C_23
    9  A    between atoms: C_22  and  N_25
                            x       y       z     vdW  Elec       q    Type
                         _______ _______ _______ _____ _____    ______ ____

>  <TORSDO>
F 9

$$$$
=
 OpenBabel11042414033D

 31 34  0  0  1  0  0  0  0  0999 V2000
  190.6620  174.0970  141.9900 C   0  0  2  0  0  3  0  0  0  0  0  0
  188.4170  176.8910  142.3970 C   0  0  0  0  0  0  0  0  0  0  0  0
  189.6220  176.3590  141.9990 C   0  0  0  0  0  3  0  0  0  0  0  0
  186.0340  177.5470  143.7880 C   0  0  1  0  0  3  0  0  0  0  0  0
  187.6410  175.8750  142.8770 C   0  0  0  0  0  0  0  0  0  0  0  0
  189.5660  175.0290  142.2390 N   0  0  0  0  0  0  0  0  0  0  0  0
  187.9410  178.2740  142.3470 C   0  0  0  0  0  3  0  0  0  0  0  0
  186.2320  176.0830  143.3290 C   0  0  0  0  0  2  0  0  0  0  0  0
  188.3570  174.7080  142.7580 C   0  0  0  0  0  3  0  0  0  0  0  0
  186.7750  178.5750  142.9390 C   0  0  0  0  0  0  0  0  0  0  0  0
  186.3360  179.8580  142.8980 F   0  0  0  0  0  0  0  0  0  0  0  0
  184.5510  177.8700  143.8720 C   0  0  0  0  0  2  0  0  0  0  0  0
  184.2650  178.7740  145.0630 C   0  0  0  0  0  2  0  0  0  0  0  0
  184.6180  176.9500  146.5590 O   0  0  0  0  0  0  0  0  0  0  0  0
  185.4930  178.9820  147.2650 N   0  0  0  0  0  1  0  0  0  0  0  0
  184.8080  178.1690  146.3170 C   0  0  0  0  0  0  0  0  0  0  0  0
  189.9480  173.6390  139.6520 O   0  0  0  0  0  0  0  0  0  0  0  0
  190.4030  171.8380  140.8200 C   0  0  0  0  0  3  0  0  0  0  0  0
  189.3290  172.6050  137.5010 C   0  0  0  0  0  1  0  0  0  0  0  0
  189.7770  172.5680  138.9170 C   0  0  0  0  0  0  0  0  0  0  0  0
  190.3330  173.2160  140.8300 C   0  0  0  0  0  0  0  0  0  0  0  0
  190.0490  171.4260  139.5820 N   0  0  0  0  0  0  0  0  0  0  0  0
  190.9100  173.2860  143.1800 N   0  0  0  0  0  2  0  0  0  0  0  0
  191.8560  173.9860  144.0480 C   0  0  0  0  0  2  0  0  0  0  0  0
  191.2850  174.2120  145.3740 N   0  0  0  0  0  2  0  0  0  0  0  0
  189.7270  177.6000  145.7390 C   0  0  0  0  0  3  0  0  0  0  0  0
  190.6320  176.5960  145.3800 C   0  0  0  0  0  3  0  0  0  0  0  0
  188.2650  175.9340  146.7170 C   0  0  0  0  0  3  0  0  0  0  0  0
  188.5470  177.2690  146.4110 C   0  0  0  0  0  3  0  0  0  0  0  0
  190.3550  175.2550  145.6870 C   0  0  0  0  0  0  0  0  0  0  0  0
  189.1690  174.9290  146.3550 C   0  0  0  0  0  3  0  0  0  0  0  0
  1  6  1  0  0  0  0
  1 23  1  1  0  0  0
  2  5  1  0  0  0  0
  3  6  1  0  0  0  0
  3  2  2  0  0  0  0
  4 12  1  6  0  0  0
  5  8  1  0  0  0  0
  6  9  1  0  0  0  0
  7  2  1  0  0  0  0
  7 10  2  0  0  0  0
  8  4  1  0  0  0  0
  9  5  2  0  0  0  0
 10  4  1  0  0  0  0
 11 10  1  0  0  0  0
 12 13  1  0  0  0  0
 13 16  1  0  0  0  0
 16 14  2  0  0  0  0
 16 15  1  0  0  0  0
 17 21  1  0  0  0  0
 18 21  2  0  0  0  0
 19 20  1  0  0  0  0
 20 22  2  0  0  0  0
 20 17  1  0  0  0  0
 21  1  1  0  0  0  0
 22 18  1  0  0  0  0
 23 24  1  0  0  0  0
 24 25  1  0  0  0  0
 25 30  1  0  0  0  0
 26 29  1  0  0  0  0
 27 30  1  0  0  0  0
 27 26  2  0  0  0  0
 29 28  2  0  0  0  0
 30 31  2  0  0  0  0
 31 28  1  0  0  0  0
M  END
>  <MODEL>
4

>  <REMARK>
 VINA RESULT:      -6.3      3.530      6.636
  Name = 
  9 active torsions:
  status: ('A' for Active; 'I' for Inactive)
    1  A    between atoms: C_2  and  N_13
    2  A    between atoms: C_2  and  N_25
    3  A    between atoms: C_2  and  C_28
    4  A    between atoms: N_4  and  C_22
    5  A    between atoms: N_4  and  C_27
    6  A    between atoms: C_8  and  C_23
    7  A    between atoms: C_11  and  C_21
    8  A    between atoms: C_11  and  C_23
    9  A    between atoms: C_22  and  N_25
                            x       y       z     vdW  Elec       q    Type
                         _______ _______ _______ _____ _____    ______ ____

>  <TORSDO>
F 9

$$$$
=
 OpenBabel11042414033D

 31 34  0  0  1  0  0  0  0  0999 V2000
  187.0510  176.8820  143.4270 C   0  0  2  0  0  3  0  0  0  0  0  0
  190.6420  176.5510  143.3710 C   0  0  0  0  0  0  0  0  0  0  0  0
  189.5000  177.3180  143.3420 C   0  0  0  0  0  3  0  0  0  0  0  0
  192.6090  174.5450  142.9840 C   0  0  1  0  0  3  0  0  0  0  0  0
  190.2730  175.2430  143.4980 C   0  0  0  0  0  0  0  0  0  0  0  0
  188.4520  176.4720  143.4530 N   0  0  0  0  0  0  0  0  0  0  0  0
  192.0460  176.9590  143.3020 C   0  0  0  0  0  3  0  0  0  0  0  0
  191.2670  174.1360  143.6360 C   0  0  0  0  0  2  0  0  0  0  0  0
  188.9010  175.1990  143.5680 C   0  0  0  0  0  3  0  0  0  0  0  0
  192.9870  176.0080  143.1950 C   0  0  0  0  0  0  0  0  0  0  0  0
  194.2880  176.3840  143.1250 F   0  0  0  0  0  0  0  0  0  0  0  0
  193.7190  173.6170  143.4520 C   0  0  0  0  0  2  0  0  0  0  0  0
  193.7140  173.5000  144.9700 C   0  0  0  0  0  2  0  0  0  0  0  0
  195.8080  172.5900  145.6580 O   0  0  0  0  0  0  0  0  0  0  0  0
  195.6110  174.8910  145.8980 N   0  0  0  0  0  1  0  0  0  0  0  0
  195.1020  173.6190  145.5070 C   0  0  0  0  0  0  0  0  0  0  0  0
  187.0110  176.6020  140.9560 O   0  0  0  0  0  0  0  0  0  0  0  0
  185.8260  178.2980  141.6850 C   0  0  0  0  0  3  0  0  0  0  0  0
  186.6050  176.8100  138.5330 C   0  0  0  0  0  1  0  0  0  0  0  0
  186.4420  177.2200  139.9510 C   0  0  0  0  0  0  0  0  0  0  0  0
  186.6490  177.2470  142.0360 C   0  0  0  0  0  0  0  0  0  0  0  0
  185.6920  178.2730  140.3410 N   0  0  0  0  0  0  0  0  0  0  0  0
  186.8450  178.0180  144.3230 N   0  0  0  0  0  2  0  0  0  0  0  0
  186.3050  177.5350  145.5930 C   0  0  0  0  0  2  0  0  0  0  0  0
  187.2580  177.7400  146.6820 N   0  0  0  0  0  2  0  0  0  0  0  0
  190.8270  176.6650  147.0640 C   0  0  0  0  0  3  0  0  0  0  0  0
  189.7070  177.4850  146.8940 C   0  0  0  0  0  3  0  0  0  0  0  0
  189.3800  174.7290  147.2470 C   0  0  0  0  0  3  0  0  0  0  0  0
  190.6630  175.2870  147.2360 C   0  0  0  0  0  3  0  0  0  0  0  0
  188.4180  176.9310  146.9020 C   0  0  0  0  0  0  0  0  0  0  0  0
  188.2610  175.5510  147.0800 C   0  0  0  0  0  3  0  0  0  0  0  0
  1  6  1  0  0  0  0
  1 23  1  1  0  0  0
  2  5  1  0  0  0  0
  3  2  2  0  0  0  0
  3  6  1  0  0  0  0
  4 10  1  0  0  0  0
  4 12  1  1  0  0  0
  4  8  1  0  0  0  0
  5  9  2  0  0  0  0
  5  8  1  0  0  0  0
  6  9  1  0  0  0  0
  7  2  1  0  0  0  0
 10  7  2  0  0  0  0
 11 10  1  0  0  0  0
 12 13  1  0  0  0  0
 13 16  1  0  0  0  0
 16 14  2  0  0  0  0
 16 15  1  0  0  0  0
 17 21  1  0  0  0  0
 18 21  2  0  0  0  0
 19 20  1  0  0  0  0
 20 22  2  0  0  0  0
 20 17  1  0  0  0  0
 21  1  1  0  0  0  0
 22 18  1  0  0  0  0
 23 24  1  0  0  0  0
 24 25  1  0  0  0  0
 25 30  1  0  0  0  0
 26 29  1  0  0  0  0
 27 30  1  0  0  0  0
 27 26  2  0  0  0  0
 29 28  2  0  0  0  0
 30 31  2  0  0  0  0
 31 28  1  0  0  0  0
M  END
>  <MODEL>
5

>  <REMARK>
 VINA RESULT:      -6.2      1.015      1.550
  Name = 
  9 active torsions:
  status: ('A' for Active; 'I' for Inactive)
    1  A    between atoms: C_2  and  N_13
    2  A    between atoms: C_2  and  N_25
    3  A    between atoms: C_2  and  C_28
    4  A    between atoms: N_4  and  C_22
    5  A    between atoms: N_4  and  C_27
    6  A    between atoms: C_8  and  C_23
    7  A    between atoms: C_11  and  C_21
    8  A    between atoms: C_11  and  C_23
    9  A    between atoms: C_22  and  N_25
                            x       y       z     vdW  Elec       q    Type
                         _______ _______ _______ _____ _____    ______ ____

>  <TORSDO>
F 9

$$$$
=
 OpenBabel11042414033D

 31 34  0  0  1  0  0  0  0  0999 V2000
  191.7790  174.5160  143.9750 C   0  0  2  0  0  3  0  0  0  0  0  0
  189.0110  175.6390  145.9970 C   0  0  0  0  0  0  0  0  0  0  0  0
  189.9690  174.7050  145.6730 C   0  0  0  0  0  3  0  0  0  0  0  0
  186.9680  177.6040  145.9400 C   0  0  1  0  0  3  0  0  0  0  0  0
  189.1550  176.7050  145.1560 C   0  0  0  0  0  0  0  0  0  0  0  0
  190.6840  175.2130  144.6440 N   0  0  0  0  0  0  0  0  0  0  0  0
  187.9860  175.6050  147.0410 C   0  0  0  0  0  3  0  0  0  0  0  0
  188.3230  177.9410  145.2750 C   0  0  0  0  0  2  0  0  0  0  0  0
  190.2160  176.4430  144.3230 C   0  0  0  0  0  3  0  0  0  0  0  0
  187.0600  176.5770  147.0640 C   0  0  0  0  0  0  0  0  0  0  0  0
  186.1060  176.5440  148.0270 F   0  0  0  0  0  0  0  0  0  0  0  0
  186.2920  178.8800  146.4170 C   0  0  0  0  0  2  0  0  0  0  0  0
  184.8360  178.9140  145.9710 C   0  0  0  0  0  2  0  0  0  0  0  0
  185.5310  180.2750  144.1410 O   0  0  0  0  0  0  0  0  0  0  0  0
  183.7010  178.9110  143.7110 N   0  0  0  0  0  1  0  0  0  0  0  0
  184.7330  179.3990  144.5630 C   0  0  0  0  0  0  0  0  0  0  0  0
  193.9880  175.5540  143.4940 O   0  0  0  0  0  0  0  0  0  0  0  0
  193.5240  175.3840  145.6310 C   0  0  0  0  0  3  0  0  0  0  0  0
  196.2070  176.6200  143.6240 C   0  0  0  0  0  1  0  0  0  0  0  0
  194.9680  176.0460  144.2100 C   0  0  0  0  0  0  0  0  0  0  0  0
  193.0850  175.1380  144.3460 C   0  0  0  0  0  0  0  0  0  0  0  0
  194.7360  175.9740  145.5370 N   0  0  0  0  0  0  0  0  0  0  0  0
  191.5940  174.5660  142.5260 N   0  0  0  0  0  2  0  0  0  0  0  0
  190.4970  173.6760  142.1520 C   0  0  0  0  0  2  0  0  0  0  0  0
  189.5780  174.3320  141.2250 N   0  0  0  0  0  2  0  0  0  0  0  0
  187.3420  177.3100  141.6450 C   0  0  0  0  0  3  0  0  0  0  0  0
  188.3930  176.5010  141.2000 C   0  0  0  0  0  3  0  0  0  0  0  0
  186.4730  175.4610  142.9500 C   0  0  0  0  0  3  0  0  0  0  0  0
  186.3850  176.7900  142.5230 C   0  0  0  0  0  3  0  0  0  0  0  0
  188.4870  175.1680  141.6270 C   0  0  0  0  0  0  0  0  0  0  0  0
  187.5230  174.6520  142.5010 C   0  0  0  0  0  3  0  0  0  0  0  0
  1 23  1  6  0  0  0
  1 21  1  0  0  0  0
  1  6  1  0  0  0  0
  2  7  1  0  0  0  0
  3  2  2  0  0  0  0
  4 12  1  1  0  0  0
  4 10  1  0  0  0  0
  5  8  1  0  0  0  0
  5  2  1  0  0  0  0
  6  3  1  0  0  0  0
  7 10  2  0  0  0  0
  8  4  1  0  0  0  0
  9  6  1  0  0  0  0
  9  5  2  0  0  0  0
 10 11  1  0  0  0  0
 13 12  1  0  0  0  0
 14 16  2  0  0  0  0
 15 16  1  0  0  0  0
 16 13  1  0  0  0  0
 17 20  1  0  0  0  0
 17 21  1  0  0  0  0
 19 20  1  0  0  0  0
 20 22  2  0  0  0  0
 21 18  2  0  0  0  0
 22 18  1  0  0  0  0
 24 23  1  0  0  0  0
 25 30  1  0  0  0  0
 25 24  1  0  0  0  0
 26 29  1  0  0  0  0
 27 30  1  0  0  0  0
 27 26  2  0  0  0  0
 29 28  2  0  0  0  0
 30 31  2  0  0  0  0
 31 28  1  0  0  0  0
M  END
>  <MODEL>
6

>  <REMARK>
 VINA RESULT:      -6.2      2.755      7.643
  Name = 
  9 active torsions:
  status: ('A' for Active; 'I' for Inactive)
    1  A    between atoms: C_2  and  N_13
    2  A    between atoms: C_2  and  N_25
    3  A    between atoms: C_2  and  C_28
    4  A    between atoms: N_4  and  C_22
    5  A    between atoms: N_4  and  C_27
    6  A    between atoms: C_8  and  C_23
    7  A    between atoms: C_11  and  C_21
    8  A    between atoms: C_11  and  C_23
    9  A    between atoms: C_22  and  N_25
                            x       y       z     vdW  Elec       q    Type
                         _______ _______ _______ _____ _____    ______ ____

>  <TORSDO>
F 9

$$$$
=
 OpenBabel11042414033D

 31 34  0  0  1  0  0  0  0  0999 V2000
  188.0050  175.6470  142.0070 C   0  0  2  0  0  3  0  0  0  0  0  0
  190.1530  175.2560  144.8780 C   0  0  0  0  0  0  0  0  0  0  0  0
  188.9690  175.0250  144.2160 C   0  0  0  0  0  3  0  0  0  0  0  0
  192.5030  176.4020  145.9750 C   0  0  1  0  0  3  0  0  0  0  0  0
  190.9590  175.9960  144.0620 C   0  0  0  0  0  0  0  0  0  0  0  0
  189.0680  175.6240  143.0080 N   0  0  0  0  0  0  0  0  0  0  0  0
  190.5820  174.8210  146.2080 C   0  0  0  0  0  3  0  0  0  0  0  0
  192.3580  176.3680  144.4350 C   0  0  0  0  0  2  0  0  0  0  0  0
  190.2830  176.2080  142.8840 C   0  0  0  0  0  3  0  0  0  0  0  0
  191.7340  175.3030  146.7010 C   0  0  0  0  0  0  0  0  0  0  0  0
  192.1300  174.9070  147.9360 F   0  0  0  0  0  0  0  0  0  0  0  0
  193.9740  176.3890  146.3580 C   0  0  0  0  0  2  0  0  0  0  0  0
  194.8530  176.4560  145.1160 C   0  0  0  0  0  2  0  0  0  0  0  0
  196.7450  175.2470  144.3140 O   0  0  0  0  0  0  0  0  0  0  0  0
  195.2900  174.0220  145.6470 N   0  0  0  0  0  1  0  0  0  0  0  0
  195.6960  175.2290  145.0080 C   0  0  0  0  0  0  0  0  0  0  0  0
  188.2860  174.8220  139.6770 O   0  0  0  0  0  0  0  0  0  0  0  0
  188.5130  173.2700  141.2110 C   0  0  0  0  0  3  0  0  0  0  0  0
  188.6630  173.4730  137.6480 C   0  0  0  0  0  1  0  0  0  0  0  0
  188.5500  173.6680  139.1170 C   0  0  0  0  0  0  0  0  0  0  0  0
  188.2560  174.6040  140.9680 C   0  0  0  0  0  0  0  0  0  0  0  0
  188.7060  172.6730  140.0150 N   0  0  0  0  0  0  0  0  0  0  0  0
  187.9320  176.9670  141.3840 N   0  0  0  0  0  2  0  0  0  0  0  0
  186.6860  177.6170  141.7860 C   0  0  0  0  0  2  0  0  0  0  0  0
  186.8450  178.3240  143.0550 N   0  0  0  0  0  2  0  0  0  0  0  0
  184.1750  178.9670  145.6040 C   0  0  0  0  0  3  0  0  0  0  0  0
  184.9810  179.1170  144.4710 C   0  0  0  0  0  3  0  0  0  0  0  0
  185.3490  176.9220  146.1670 C   0  0  0  0  0  3  0  0  0  0  0  0
  184.3620  177.8720  146.4540 C   0  0  0  0  0  3  0  0  0  0  0  0
  185.9740  178.1690  144.1800 C   0  0  0  0  0  0  0  0  0  0  0  0
  186.1530  177.0730  145.0320 C   0  0  0  0  0  3  0  0  0  0  0  0
  1 23  1  6  0  0  0
  1  6  1  0  0  0  0
  2  7  1  0  0  0  0
  3  2  2  0  0  0  0
  4 12  1  6  0  0  0
  4 10  1  0  0  0  0
  5  8  1  0  0  0  0
  5  2  1  0  0  0  0
  6  3  1  0  0  0  0
  7 10  2  0  0  0  0
  8  4  1  0  0  0  0
  9  6  1  0  0  0  0
  9  5  2  0  0  0  0
 10 11  1  0  0  0  0
 13 12  1  0  0  0  0
 14 16  2  0  0  0  0
 16 13  1  0  0  0  0
 16 15  1  0  0  0  0
 17 21  1  0  0  0  0
 19 20  1  0  0  0  0
 20 17  1  0  0  0  0
 20 22  2  0  0  0  0
 21 18  2  0  0  0  0
 21  1  1  0  0  0  0
 22 18  1  0  0  0  0
 23 24  1  0  0  0  0
 24 25  1  0  0  0  0
 25 30  1  0  0  0  0
 26 29  1  0  0  0  0
 27 26  2  0  0  0  0
 28 29  2  0  0  0  0
 30 27  1  0  0  0  0
 30 31  2  0  0  0  0
 31 28  1  0  0  0  0
M  END
>  <MODEL>
7

>  <REMARK>
 VINA RESULT:      -6.1      2.281      3.678
  Name = 
  9 active torsions:
  status: ('A' for Active; 'I' for Inactive)
    1  A    between atoms: C_2  and  N_13
    2  A    between atoms: C_2  and  N_25
    3  A    between atoms: C_2  and  C_28
    4  A    between atoms: N_4  and  C_22
    5  A    between atoms: N_4  and  C_27
    6  A    between atoms: C_8  and  C_23
    7  A    between atoms: C_11  and  C_21
    8  A    between atoms: C_11  and  C_23
    9  A    between atoms: C_22  and  N_25
                            x       y       z     vdW  Elec       q    Type
                         _______ _______ _______ _____ _____    ______ ____

>  <TORSDO>
F 9

$$$$
=
 OpenBabel11042414033D

 31 34  0  0  1  0  0  0  0  0999 V2000
  192.3270  174.4650  144.7830 C   0  0  2  0  0  3  0  0  0  0  0  0
  189.7150  176.4830  143.3280 C   0  0  0  0  0  0  0  0  0  0  0  0
  190.9560  175.8910  143.2710 C   0  0  0  0  0  3  0  0  0  0  0  0
  187.3650  177.8560  144.1240 C   0  0  1  0  0  3  0  0  0  0  0  0
  189.1400  176.1530  144.5210 C   0  0  0  0  0  0  0  0  0  0  0  0
  191.1220  175.2080  144.4260 N   0  0  0  0  0  0  0  0  0  0  0  0
  189.0310  177.3200  142.3400 C   0  0  0  0  0  3  0  0  0  0  0  0
  187.7510  176.5660  144.8860 C   0  0  0  0  0  2  0  0  0  0  0  0
  190.0160  175.3390  145.1980 C   0  0  0  0  0  3  0  0  0  0  0  0
  187.8780  177.9110  142.6880 C   0  0  0  0  0  0  0  0  0  0  0  0
  187.2460  178.6920  141.7770 F   0  0  0  0  0  0  0  0  0  0  0  0
  185.8600  178.0600  144.1780 C   0  0  0  0  0  2  0  0  0  0  0  0
  185.5160  179.2970  144.9970 C   0  0  0  0  0  2  0  0  0  0  0  0
  185.8360  179.4170  147.3570 O   0  0  0  0  0  0  0  0  0  0  0  0
  184.1770  177.9460  146.6640 N   0  0  0  0  0  1  0  0  0  0  0  0
  185.1880  178.9160  146.4020 C   0  0  0  0  0  0  0  0  0  0  0  0
  194.4580  175.3850  143.8880 O   0  0  0  0  0  0  0  0  0  0  0  0
  193.7660  176.3570  145.7290 C   0  0  0  0  0  3  0  0  0  0  0  0
  196.5240  176.6680  143.4810 C   0  0  0  0  0  1  0  0  0  0  0  0
  195.2910  176.3330  144.2390 C   0  0  0  0  0  0  0  0  0  0  0  0
  193.5090  175.3780  144.7900 C   0  0  0  0  0  0  0  0  0  0  0  0
  194.9130  176.9720  145.3660 N   0  0  0  0  0  0  0  0  0  0  0  0
  192.5430  173.3740  143.8340 N   0  0  0  0  0  2  0  0  0  0  0  0
  191.7270  172.2280  144.2300 C   0  0  0  0  0  2  0  0  0  0  0  0
  190.9900  171.6870  143.0900 N   0  0  0  0  0  2  0  0  0  0  0  0
  189.6910  173.7480  140.2440 C   0  0  0  0  0  3  0  0  0  0  0  0
  190.5480  172.9600  141.0180 C   0  0  0  0  0  3  0  0  0  0  0  0
  187.9680  173.5370  141.9360 C   0  0  0  0  0  3  0  0  0  0  0  0
  188.4030  174.0390  140.7050 C   0  0  0  0  0  3  0  0  0  0  0  0
  190.1180  172.4550  142.2550 C   0  0  0  0  0  0  0  0  0  0  0  0
  188.8260  172.7460  142.7080 C   0  0  0  0  0  3  0  0  0  0  0  0
  1 23  1  6  0  0  0
  1 21  1  0  0  0  0
  2  5  1  0  0  0  0
  3  2  2  0  0  0  0
  3  6  1  0  0  0  0
  4 12  1  6  0  0  0
  4  8  1  0  0  0  0
  5  8  1  0  0  0  0
  5  9  2  0  0  0  0
  6  1  1  0  0  0  0
  6  9  1  0  0  0  0
  7 10  2  0  0  0  0
  7  2  1  0  0  0  0
 10  4  1  0  0  0  0
 11 10  1  0  0  0  0
 12 13  1  0  0  0  0
 13 16  1  0  0  0  0
 16 15  1  0  0  0  0
 16 14  2  0  0  0  0
 17 20  1  0  0  0  0
 17 21  1  0  0  0  0
 19 20  1  0  0  0  0
 20 22  2  0  0  0  0
 21 18  2  0  0  0  0
 22 18  1  0  0  0  0
 23 24  1  0  0  0  0
 25 24  1  0  0  0  0
 26 29  2  0  0  0  0
 26 27  1  0  0  0  0
 27 30  2  0  0  0  0
 28 31  2  0  0  0  0
 29 28  1  0  0  0  0
 30 31  1  0  0  0  0
 30 25  1  0  0  0  0
M  END
>  <MODEL>
8

>  <REMARK>
 VINA RESULT:      -6.1      3.114      7.760
  Name = 
  9 active torsions:
  status: ('A' for Active; 'I' for Inactive)
    1  A    between atoms: C_2  and  N_13
    2  A    between atoms: C_2  and  N_25
    3  A    between atoms: C_2  and  C_28
    4  A    between atoms: N_4  and  C_22
    5  A    between atoms: N_4  and  C_27
    6  A    between atoms: C_8  and  C_23
    7  A    between atoms: C_11  and  C_21
    8  A    between atoms: C_11  and  C_23
    9  A    between atoms: C_22  and  N_25
                            x       y       z     vdW  Elec       q    Type
                         _______ _______ _______ _____ _____    ______ ____

>  <TORSDO>
F 9

$$$$
=
 OpenBabel11042414033D

 31 34  0  0  1  0  0  0  0  0999 V2000
  191.6390  174.2220  145.2370 C   0  0  2  0  0  3  0  0  0  0  0  0
  188.6070  175.9690  146.1130 C   0  0  0  0  0  0  0  0  0  0  0  0
  189.5620  175.0100  146.3620 C   0  0  0  0  0  3  0  0  0  0  0  0
  186.7020  177.6980  144.9200 C   0  0  1  0  0  3  0  0  0  0  0  0
  188.9510  176.6240  144.9660 C   0  0  0  0  0  0  0  0  0  0  0  0
  190.4750  175.0940  145.3680 N   0  0  0  0  0  0  0  0  0  0  0  0
  187.4100  176.3180  146.8800 C   0  0  0  0  0  3  0  0  0  0  0  0
  188.1700  177.7840  144.4380 C   0  0  0  0  0  2  0  0  0  0  0  0
  190.1310  176.0870  144.5130 C   0  0  0  0  0  3  0  0  0  0  0  0
  186.5420  177.1950  146.3510 C   0  0  0  0  0  0  0  0  0  0  0  0
  185.4290  177.5160  147.0570 F   0  0  0  0  0  0  0  0  0  0  0  0
  186.0120  179.0390  144.7280 C   0  0  0  0  0  2  0  0  0  0  0  0
  185.9310  179.3930  143.2490 C   0  0  0  0  0  2  0  0  0  0  0  0
  185.6620  177.6270  141.6680 O   0  0  0  0  0  0  0  0  0  0  0  0
  183.7100  178.2970  142.7330 N   0  0  0  0  0  1  0  0  0  0  0  0
  185.1160  178.3790  142.5150 C   0  0  0  0  0  0  0  0  0  0  0  0
  193.7060  175.2260  144.2880 O   0  0  0  0  0  0  0  0  0  0  0  0
  193.3690  175.7010  146.4030 C   0  0  0  0  0  3  0  0  0  0  0  0
  195.8130  176.4500  143.9080 C   0  0  0  0  0  1  0  0  0  0  0  0
  194.6680  175.9940  144.7370 C   0  0  0  0  0  0  0  0  0  0  0  0
  192.8930  175.0290  145.2950 C   0  0  0  0  0  0  0  0  0  0  0  0
  194.5110  176.3240  146.0360 N   0  0  0  0  0  0  0  0  0  0  0  0
  191.5740  173.4850  143.9770 N   0  0  0  0  0  2  0  0  0  0  0  0
  190.7700  172.2800  144.1670 C   0  0  0  0  0  2  0  0  0  0  0  0
  189.4310  172.4460  143.6040 N   0  0  0  0  0  2  0  0  0  0  0  0
  188.1790  174.7230  140.9050 C   0  0  0  0  0  3  0  0  0  0  0  0
  188.4710  174.2210  142.1770 C   0  0  0  0  0  3  0  0  0  0  0  0
  189.2610  172.8020  139.8980 C   0  0  0  0  0  3  0  0  0  0  0  0
  188.5700  174.0110  139.7660 C   0  0  0  0  0  3  0  0  0  0  0  0
  189.1620  173.0070  142.3150 C   0  0  0  0  0  0  0  0  0  0  0  0
  189.5550  172.3020  141.1710 C   0  0  0  0  0  3  0  0  0  0  0  0
  1 23  1  6  0  0  0
  1 21  1  0  0  0  0
  1  6  1  0  0  0  0
  2  3  2  0  0  0  0
  2  7  1  0  0  0  0
  4 12  1  1  0  0  0
  4 10  1  0  0  0  0
  5  2  1  0  0  0  0
  6  3  1  0  0  0  0
  8  4  1  0  0  0  0
  8  5  1  0  0  0  0
  9  5  2  0  0  0  0
  9  6  1  0  0  0  0
 10  7  2  0  0  0  0
 10 11  1  0  0  0  0
 13 12  1  0  0  0  0
 14 16  2  0  0  0  0
 16 15  1  0  0  0  0
 16 13  1  0  0  0  0
 17 20  1  0  0  0  0
 17 21  1  0  0  0  0
 19 20  1  0  0  0  0
 20 22  2  0  0  0  0
 21 18  2  0  0  0  0
 22 18  1  0  0  0  0
 23 24  1  0  0  0  0
 25 24  1  0  0  0  0
 26 27  1  0  0  0  0
 27 30  2  0  0  0  0
 28 31  2  0  0  0  0
 29 28  1  0  0  0  0
 29 26  2  0  0  0  0
 30 25  1  0  0  0  0
 31 30  1  0  0  0  0
M  END
>  <MODEL>
9

>  <REMARK>
 VINA RESULT:      -6.0      2.937      7.815
  Name = 
  9 active torsions:
  status: ('A' for Active; 'I' for Inactive)
    1  A    between atoms: C_2  and  N_13
    2  A    between atoms: C_2  and  N_25
    3  A    between atoms: C_2  and  C_28
    4  A    between atoms: N_4  and  C_22
    5  A    between atoms: N_4  and  C_27
    6  A    between atoms: C_8  and  C_23
    7  A    between atoms: C_11  and  C_21
    8  A    between atoms: C_11  and  C_23
    9  A    between atoms: C_22  and  N_25
                            x       y       z     vdW  Elec       q    Type
                         _______ _______ _______ _____ _____    ______ ____

>  <TORSDO>
F 9

$$$$
