=
 OpenBabel11042414493D

 28 32  0  0  1  0  0  0  0  0999 V2000
  186.1930  178.3020  144.9890 C   0  0  0  0  0  0  0  0  0  0  0  0
  189.8480  177.4250  146.8150 O   0  0  0  0  0  0  0  0  0  0  0  0
  187.5770  175.6510  139.5310 O   0  0  0  0  0  1  0  0  0  0  0  0
  185.9420  177.2070  147.5370 C   0  0  0  0  0  3  0  0  0  0  0  0
  188.7540  174.7810  141.5760 C   0  0  0  0  0  0  0  0  0  0  0  0
  186.2120  178.7500  143.6400 C   0  0  0  0  0  2  0  0  0  0  0  0
  189.3810  175.1150  147.5620 O   0  0  0  0  0  0  0  0  0  0  0  0
  189.9130  175.9700  146.4470 S   0  0  0  0  0  0  0  0  0  0  0  0
  191.9190  175.2490  144.7460 C   0  0  0  0  0  0  0  0  0  0  0  0
  189.0310  175.6710  144.9940 N   0  0  2  0  0  0  0  0  0  0  0  0
  184.6840  178.4370  140.5980 O   0  0  0  0  0  0  0  0  0  0  0  0
  188.0370  176.3600  143.0630 C   0  0  0  0  0  0  0  0  0  0  0  0
  191.0430  174.9830  143.8190 N   0  0  0  0  0  0  0  0  0  0  0  0
  191.5400  175.5390  146.0930 N   0  0  0  0  0  2  0  0  0  0  0  0
  185.5770  178.3320  141.4770 C   0  0  0  0  0  0  0  0  0  0  0  0
  187.0020  177.1980  145.3280 C   0  0  0  0  0  0  0  0  0  0  0  0
  187.8470  175.6960  140.8950 C   0  0  0  0  0  0  0  0  0  0  0  0
  193.3570  175.3150  144.3780 C   0  0  0  0  0  1  0  0  0  0  0  0
  186.9800  177.9730  141.1100 C   0  0  0  0  0  2  0  0  0  0  0  0
  186.8440  176.6640  146.6200 C   0  0  0  0  0  3  0  0  0  0  0  0
  185.2720  178.8400  145.8950 C   0  0  0  0  0  3  0  0  0  0  0  0
  185.1560  178.3000  147.1750 C   0  0  0  0  0  3  0  0  0  0  0  0
  185.2510  178.4160  142.8510 N   0  0  0  0  0  2  0  0  0  0  0  0
  188.8930  175.2430  142.7990 C   0  0  1  0  0  3  0  0  0  0  0  0
  187.4100  176.6550  141.7230 C   0  0  0  0  0  0  0  0  0  0  0  0
  189.6000  174.7700  143.9970 C   0  0  2  0  0  3  0  0  0  0  0  0
  189.4450  173.5990  140.9930 C   0  0  0  0  0  1  0  0  0  0  0  0
  188.0220  176.5370  144.4180 C   0  0  1  0  0  3  0  0  0  0  0  0
  1 16  2  0  0  0  0
  1 21  1  0  0  0  0
  3 17  1  0  0  0  0
  6  1  1  0  0  0  0
  8  2  2  0  0  0  0
  8  7  2  0  0  0  0
  9 14  1  0  0  0  0
 10  8  1  6  0  0  0
 11 15  2  0  0  0  0
 13  9  2  0  0  0  0
 14  8  1  0  0  0  0
 15 23  1  0  0  0  0
 16 20  1  0  0  0  0
 17  5  2  0  0  0  0
 17 25  1  0  0  0  0
 18  9  1  0  0  0  0
 19 15  1  0  0  0  0
 19 25  1  0  0  0  0
 20  4  2  0  0  0  0
 21 22  2  0  0  0  0
 22  4  1  0  0  0  0
 23  6  1  0  0  0  0
 24  5  1  1  0  0  0
 24 12  1  0  0  0  0
 24 26  1  0  0  0  0
 25 12  2  0  0  0  0
 26 13  1  6  0  0  0
 26 10  1  0  0  0  0
 27  5  1  0  0  0  0
 28 12  1  6  0  0  0
 28 10  1  0  0  0  0
 28 16  1  0  0  0  0
M  END
>  <MODEL>
1

>  <REMARK>
 VINA RESULT:      -9.7      0.000      0.000
  Name = 
  0 active torsions:
  status: ('A' for Active; 'I' for Inactive)
                            x       y       z     vdW  Elec       q    Type
                         _______ _______ _______ _____ _____    ______ ____

>  <TORSDO>
F 0

$$$$
=
 OpenBabel11042414493D

 28 32  0  0  1  0  0  0  0  0999 V2000
  185.4920  177.4960  143.5960 C   0  0  0  0  0  0  0  0  0  0  0  0
  187.0520  173.9750  141.9730 O   0  0  0  0  0  0  0  0  0  0  0  0
  189.7290  178.0210  148.1240 O   0  0  0  0  0  1  0  0  0  0  0  0
  185.7660  177.5600  140.8250 C   0  0  0  0  0  3  0  0  0  0  0  0
  190.4010  176.7770  146.0430 C   0  0  0  0  0  0  0  0  0  0  0  0
  185.4290  177.6070  145.0120 C   0  0  0  0  0  2  0  0  0  0  0  0
  188.8080  174.9410  140.5270 O   0  0  0  0  0  0  0  0  0  0  0  0
  188.4890  174.4090  141.8950 S   0  0  0  0  0  0  0  0  0  0  0  0
  190.2390  173.0650  143.4980 C   0  0  0  0  0  0  0  0  0  0  0  0
  188.8300  175.6010  143.0940 N   0  0  2  0  0  0  0  0  0  0  0  0
  185.9650  179.7160  147.6490 O   0  0  0  0  0  0  0  0  0  0  0  0
  188.3550  176.7040  145.0310 C   0  0  0  0  0  0  0  0  0  0  0  0
  190.4200  174.1430  144.2090 N   0  0  0  0  0  0  0  0  0  0  0  0
  189.5120  173.0780  142.2670 N   0  0  0  0  0  2  0  0  0  0  0  0
  186.1380  178.7400  146.8740 C   0  0  0  0  0  0  0  0  0  0  0  0
  186.6810  176.9940  143.0270 C   0  0  0  0  0  0  0  0  0  0  0  0
  189.4370  177.4920  146.8710 C   0  0  1  0  0  3  0  0  0  0  0  0
  190.7510  171.7700  144.0130 C   0  0  0  0  0  1  0  0  0  0  0  0
  187.0250  177.6000  147.2580 C   0  0  0  0  0  2  0  0  0  0  0  0
  186.7900  177.0490  141.6250 C   0  0  0  0  0  3  0  0  0  0  0  0
  184.4690  178.0280  142.8030 C   0  0  0  0  0  3  0  0  0  0  0  0
  184.6010  178.0470  141.4150 C   0  0  0  0  0  3  0  0  0  0  0  0
  185.6090  178.7570  145.5630 N   0  0  0  0  0  2  0  0  0  0  0  0
  189.7220  176.2780  145.0350 C   0  0  0  0  0  0  0  0  0  0  0  0
  188.2130  177.4630  146.3270 C   0  0  0  0  0  0  0  0  0  0  0  0
  190.0880  175.5220  143.8290 C   0  0  2  0  0  3  0  0  0  0  0  0
  191.8520  176.5870  146.3140 C   0  0  0  0  0  1  0  0  0  0  0  0
  187.8490  176.4050  143.7970 C   0  0  1  0  0  3  0  0  0  0  0  0
  1  6  1  0  0  0  0
  4 22  2  0  0  0  0
  4 20  1  0  0  0  0
  5 27  1  0  0  0  0
  5 17  1  0  0  0  0
  6 23  1  0  0  0  0
  7  8  2  0  0  0  0
  8  2  2  0  0  0  0
  8 14  1  0  0  0  0
  9 18  1  0  0  0  0
  9 13  2  0  0  0  0
 10  8  1  1  0  0  0
 10 28  1  0  0  0  0
 10 26  1  0  0  0  0
 12 24  1  0  0  0  0
 12 25  2  0  0  0  0
 14  9  1  0  0  0  0
 15 19  1  0  0  0  0
 15 11  2  0  0  0  0
 16  1  1  0  0  0  0
 17  3  1  1  0  0  0
 20 16  2  0  0  0  0
 21  1  2  0  0  0  0
 22 21  1  0  0  0  0
 23 15  1  0  0  0  0
 24  5  2  0  0  0  0
 25 17  1  0  0  0  0
 25 19  1  0  0  0  0
 26 13  1  1  0  0  0
 26 24  1  0  0  0  0
 28 16  1  6  0  0  0
 28 12  1  0  0  0  0
M  END
>  <MODEL>
2

>  <REMARK>
 VINA RESULT:      -8.6      2.192      4.861
  Name = 
  0 active torsions:
  status: ('A' for Active; 'I' for Inactive)
                            x       y       z     vdW  Elec       q    Type
                         _______ _______ _______ _____ _____    ______ ____

>  <TORSDO>
F 0

$$$$
=
 OpenBabel11042414493D

 28 32  0  0  1  0  0  0  0  0999 V2000
  187.9800  177.2390  146.0240 C   0  0  0  0  0  0  0  0  0  0  0  0
  187.1300  174.9240  142.6520 O   0  0  0  0  0  0  0  0  0  0  0  0
  194.1130  176.1800  145.9730 O   0  0  0  0  0  1  0  0  0  0  0  0
  186.3330  178.5110  144.1740 C   0  0  0  0  0  3  0  0  0  0  0  0
  192.8880  176.0200  143.7820 C   0  0  0  0  0  0  0  0  0  0  0  0
  188.9110  176.7260  146.9690 C   0  0  0  0  0  2  0  0  0  0  0  0
  187.6300  176.5820  140.8880 O   0  0  0  0  0  0  0  0  0  0  0  0
  188.1910  175.4860  141.7490 S   0  0  0  0  0  0  0  0  0  0  0  0
  190.1650  173.7620  140.9940 C   0  0  0  0  0  0  0  0  0  0  0  0
  189.5240  176.0760  142.6720 N   0  0  2  0  0  0  0  0  0  0  0  0
  191.5660  177.5410  148.9620 O   0  0  0  0  0  0  0  0  0  0  0  0
  190.7560  176.1900  144.5850 C   0  0  0  0  0  0  0  0  0  0  0  0
  191.0310  174.4420  141.6920 N   0  0  0  0  0  0  0  0  0  0  0  0
  188.8340  174.2300  140.7660 N   0  0  0  0  0  2  0  0  0  0  0  0
  190.9310  177.0130  148.0130 C   0  0  0  0  0  0  0  0  0  0  0  0
  188.3110  177.1480  144.6570 C   0  0  0  0  0  0  0  0  0  0  0  0
  192.9390  176.2140  145.2260 C   0  0  1  0  0  3  0  0  0  0  0  0
  190.5530  172.4270  140.4720 C   0  0  0  0  0  1  0  0  0  0  0  0
  191.5320  175.9110  147.2030 C   0  0  0  0  0  2  0  0  0  0  0  0
  187.4630  177.8090  143.7500 C   0  0  0  0  0  3  0  0  0  0  0  0
  186.8610  177.9580  146.4600 C   0  0  0  0  0  3  0  0  0  0  0  0
  186.0290  178.5830  145.5330 C   0  0  0  0  0  3  0  0  0  0  0  0
  189.6860  177.5400  147.5970 N   0  0  0  0  0  2  0  0  0  0  0  0
  191.6150  175.9380  143.4670 C   0  0  0  0  0  0  0  0  0  0  0  0
  191.7090  176.3030  145.7490 C   0  0  0  0  0  0  0  0  0  0  0  0
  190.8800  175.8120  142.2010 C   0  0  2  0  0  3  0  0  0  0  0  0
  194.0410  175.8730  142.8520 C   0  0  0  0  0  1  0  0  0  0  0  0
  189.5020  176.4020  144.0840 C   0  0  1  0  0  3  0  0  0  0  0  0
  1 21  1  0  0  0  0
  1  6  1  0  0  0  0
  4 22  1  0  0  0  0
  5 17  1  0  0  0  0
  6 23  1  0  0  0  0
  7  8  2  0  0  0  0
  8  2  2  0  0  0  0
  9 13  2  0  0  0  0
 10  8  1  1  0  0  0
 10 28  1  0  0  0  0
 12 25  2  0  0  0  0
 14  9  1  0  0  0  0
 14  8  1  0  0  0  0
 15 11  2  0  0  0  0
 16  1  2  0  0  0  0
 17 25  1  0  0  0  0
 17  3  1  1  0  0  0
 18  9  1  0  0  0  0
 19 15  1  0  0  0  0
 20  4  2  0  0  0  0
 20 16  1  0  0  0  0
 22 21  2  0  0  0  0
 23 15  1  0  0  0  0
 24  5  2  0  0  0  0
 24 12  1  0  0  0  0
 25 19  1  0  0  0  0
 26 13  1  1  0  0  0
 26 10  1  0  0  0  0
 26 24  1  0  0  0  0
 27  5  1  0  0  0  0
 28 12  1  6  0  0  0
 28 16  1  0  0  0  0
M  END
>  <MODEL>
3

>  <REMARK>
 VINA RESULT:      -8.5      2.402      5.363
  Name = 
  0 active torsions:
  status: ('A' for Active; 'I' for Inactive)
                            x       y       z     vdW  Elec       q    Type
                         _______ _______ _______ _____ _____    ______ ____

>  <TORSDO>
F 0

$$$$
=
 OpenBabel11042414493D

 28 32  0  0  1  0  0  0  0  0999 V2000
  191.0880  173.7310  144.1890 C   0  0  0  0  0  0  0  0  0  0  0  0
  188.8040  175.2630  147.3350 O   0  0  0  0  0  0  0  0  0  0  0  0
  187.4020  175.8640  139.6510 O   0  0  0  0  0  1  0  0  0  0  0  0
  192.5850  175.0810  146.1100 C   0  0  0  0  0  3  0  0  0  0  0  0
  187.3940  177.1100  141.8370 C   0  0  0  0  0  0  0  0  0  0  0  0
  190.4030  173.1310  143.0970 C   0  0  0  0  0  2  0  0  0  0  0  0
  189.6910  177.5700  147.3910 O   0  0  0  0  0  0  0  0  0  0  0  0
  188.6470  176.6610  146.8070 S   0  0  0  0  0  0  0  0  0  0  0  0
  186.1120  177.4170  146.1430 C   0  0  0  0  0  0  0  0  0  0  0  0
  188.7400  176.6740  145.0850 N   0  0  2  0  0  0  0  0  0  0  0  0
  190.3030  172.8900  139.6890 O   0  0  0  0  0  0  0  0  0  0  0  0
  188.6520  175.6430  143.0550 C   0  0  0  0  0  0  0  0  0  0  0  0
  186.4500  177.4600  144.8850 N   0  0  0  0  0  0  0  0  0  0  0  0
  187.0740  177.2440  147.1860 N   0  0  0  0  0  2  0  0  0  0  0  0
  189.9470  173.2070  140.8520 C   0  0  0  0  0  0  0  0  0  0  0  0
  190.5990  174.9580  144.6800 C   0  0  0  0  0  0  0  0  0  0  0  0
  187.8160  176.0150  140.9710 C   0  0  0  0  0  0  0  0  0  0  0  0
  184.6720  177.4850  146.5030 C   0  0  0  0  0  1  0  0  0  0  0  0
  188.5600  173.6910  141.1270 C   0  0  0  0  0  2  0  0  0  0  0  0
  191.3840  175.6190  145.6440 C   0  0  0  0  0  3  0  0  0  0  0  0
  192.3010  173.1940  144.6370 C   0  0  0  0  0  3  0  0  0  0  0  0
  193.0430  173.8640  145.6080 C   0  0  0  0  0  3  0  0  0  0  0  0
  190.8860  173.2480  141.9090 N   0  0  0  0  0  2  0  0  0  0  0  0
  187.8330  176.8180  143.0400 C   0  0  1  0  0  3  0  0  0  0  0  0
  188.5450  175.1150  141.6450 C   0  0  0  0  0  0  0  0  0  0  0  0
  187.8110  177.5130  144.3340 C   0  0  2  0  0  3  0  0  0  0  0  0
  186.5710  178.2910  141.4580 C   0  0  0  0  0  1  0  0  0  0  0  0
  189.3040  175.6270  144.2560 C   0  0  1  0  0  3  0  0  0  0  0  0
  1 21  2  0  0  0  0
  1 16  1  0  0  0  0
  3 17  1  0  0  0  0
  6  1  1  0  0  0  0
  8 14  1  0  0  0  0
  8  2  2  0  0  0  0
  8  7  2  0  0  0  0
  9 18  1  0  0  0  0
  9 14  1  0  0  0  0
 10  8  1  1  0  0  0
 11 15  2  0  0  0  0
 13  9  2  0  0  0  0
 15 19  1  0  0  0  0
 15 23  1  0  0  0  0
 16 20  2  0  0  0  0
 17 25  1  0  0  0  0
 17  5  2  0  0  0  0
 19 25  1  0  0  0  0
 20  4  1  0  0  0  0
 21 22  1  0  0  0  0
 22  4  2  0  0  0  0
 23  6  1  0  0  0  0
 24  5  1  6  0  0  0
 24 12  1  0  0  0  0
 24 26  1  0  0  0  0
 25 12  2  0  0  0  0
 26 13  1  1  0  0  0
 26 10  1  0  0  0  0
 27  5  1  0  0  0  0
 28 12  1  6  0  0  0
 28 16  1  0  0  0  0
 28 10  1  0  0  0  0
M  END
>  <MODEL>
4

>  <REMARK>
 VINA RESULT:      -8.1      1.597      5.330
  Name = 
  0 active torsions:
  status: ('A' for Active; 'I' for Inactive)
                            x       y       z     vdW  Elec       q    Type
                         _______ _______ _______ _____ _____    ______ ____

>  <TORSDO>
F 0

$$$$
=
 OpenBabel11042414493D

 28 32  0  0  1  0  0  0  0  0999 V2000
  187.3160  176.6030  144.7390 C   0  0  0  0  0  0  0  0  0  0  0  0
  187.6180  173.4500  142.0140 O   0  0  0  0  0  0  0  0  0  0  0  0
  193.3680  176.7600  146.1790 O   0  0  0  0  0  1  0  0  0  0  0  0
  186.0010  177.0710  142.3290 C   0  0  0  0  0  3  0  0  0  0  0  0
  192.7360  175.8640  143.9150 C   0  0  0  0  0  0  0  0  0  0  0  0
  188.0550  176.5110  145.9500 C   0  0  0  0  0  2  0  0  0  0  0  0
  188.2950  174.7180  140.0030 O   0  0  0  0  0  0  0  0  0  0  0  0
  188.7780  173.9810  141.2190 S   0  0  0  0  0  0  0  0  0  0  0  0
  191.0900  172.5410  141.3590 C   0  0  0  0  0  0  0  0  0  0  0  0
  189.7590  175.0140  142.1920 N   0  0  2  0  0  0  0  0  0  0  0  0
  190.0220  178.2610  148.1310 O   0  0  0  0  0  0  0  0  0  0  0  0
  190.4710  175.8020  144.2080 C   0  0  0  0  0  0  0  0  0  0  0  0
  191.6640  173.5180  142.0030 N   0  0  0  0  0  0  0  0  0  0  0  0
  189.8010  172.6790  140.7560 N   0  0  0  0  0  2  0  0  0  0  0  0
  189.7090  177.4160  147.2530 C   0  0  0  0  0  0  0  0  0  0  0  0
  187.9730  176.2620  143.5390 C   0  0  0  0  0  0  0  0  0  0  0  0
  192.4140  176.3940  145.2340 C   0  0  1  0  0  3  0  0  0  0  0  0
  191.7690  171.2210  141.3010 C   0  0  0  0  0  1  0  0  0  0  0  0
  190.6300  176.2920  146.9040 C   0  0  0  0  0  2  0  0  0  0  0  0
  187.2840  176.5190  142.3390 C   0  0  0  0  0  3  0  0  0  0  0  0
  186.0380  177.1740  144.7370 C   0  0  0  0  0  3  0  0  0  0  0  0
  185.3750  177.3960  143.5310 C   0  0  0  0  0  3  0  0  0  0  0  0
  188.5400  177.5820  146.4750 N   0  0  0  0  0  2  0  0  0  0  0  0
  191.5980  175.4680  143.3900 C   0  0  0  0  0  0  0  0  0  0  0  0
  191.0940  176.3630  145.4630 C   0  0  0  0  0  0  0  0  0  0  0  0
  191.2110  174.9130  142.0860 C   0  0  2  0  0  3  0  0  0  0  0  0
  194.0860  175.7300  143.3040 C   0  0  0  0  0  1  0  0  0  0  0  0
  189.3570  175.6480  143.4330 C   0  0  1  0  0  3  0  0  0  0  0  0
  1  6  1  0  0  0  0
  4 20  2  0  0  0  0
  4 22  1  0  0  0  0
  5 17  1  0  0  0  0
  6 23  1  0  0  0  0
  7  8  2  0  0  0  0
  8  2  2  0  0  0  0
  9 13  2  0  0  0  0
 10  8  1  1  0  0  0
 10 28  1  0  0  0  0
 12 25  2  0  0  0  0
 14  8  1  0  0  0  0
 14  9  1  0  0  0  0
 15 11  2  0  0  0  0
 16  1  2  0  0  0  0
 17 25  1  0  0  0  0
 17  3  1  1  0  0  0
 18  9  1  0  0  0  0
 19 15  1  0  0  0  0
 20 16  1  0  0  0  0
 21  1  1  0  0  0  0
 22 21  2  0  0  0  0
 23 15  1  0  0  0  0
 24  5  2  0  0  0  0
 24 12  1  0  0  0  0
 25 19  1  0  0  0  0
 26 13  1  1  0  0  0
 26 10  1  0  0  0  0
 26 24  1  0  0  0  0
 27  5  1  0  0  0  0
 28 16  1  6  0  0  0
 28 12  1  0  0  0  0
M  END
>  <MODEL>
5

>  <REMARK>
 VINA RESULT:      -7.8      2.484      5.216
  Name = 
  0 active torsions:
  status: ('A' for Active; 'I' for Inactive)
                            x       y       z     vdW  Elec       q    Type
                         _______ _______ _______ _____ _____    ______ ____

>  <TORSDO>
F 0

$$$$
=
 OpenBabel11042414493D

 28 32  0  0  1  0  0  0  0  0999 V2000
  188.1000  176.5490  145.1070 C   0  0  0  0  0  0  0  0  0  0  0  0
  187.4830  173.6800  142.1330 O   0  0  0  0  0  0  0  0  0  0  0  0
  194.0780  175.1320  146.1050 O   0  0  0  0  0  1  0  0  0  0  0  0
  186.8120  177.5360  142.8440 C   0  0  0  0  0  3  0  0  0  0  0  0
  193.1270  174.6250  143.8310 C   0  0  0  0  0  0  0  0  0  0  0  0
  188.8580  176.1730  146.2500 C   0  0  0  0  0  2  0  0  0  0  0  0
  188.3400  174.9320  140.1810 O   0  0  0  0  0  0  0  0  0  0  0  0
  188.6930  173.9920  141.2980 S   0  0  0  0  0  0  0  0  0  0  0  0
  190.5910  172.0380  141.1560 C   0  0  0  0  0  0  0  0  0  0  0  0
  189.9460  174.6680  142.2730 N   0  0  2  0  0  0  0  0  0  0  0  0
  191.3040  177.1960  148.4090 O   0  0  0  0  0  0  0  0  0  0  0  0
  190.9340  175.0750  144.2860 C   0  0  0  0  0  0  0  0  0  0  0  0
  191.4180  172.7870  141.8290 N   0  0  0  0  0  0  0  0  0  0  0  0
  189.3440  172.5330  140.6620 N   0  0  0  0  0  2  0  0  0  0  0  0
  190.7490  176.5350  147.4940 C   0  0  0  0  0  0  0  0  0  0  0  0
  188.5900  176.1750  143.8400 C   0  0  0  0  0  0  0  0  0  0  0  0
  193.0140  175.0910  145.2080 C   0  0  1  0  0  3  0  0  0  0  0  0
  190.9250  170.6060  140.9460 C   0  0  0  0  0  1  0  0  0  0  0  0
  191.3500  175.2620  146.9920 C   0  0  0  0  0  2  0  0  0  0  0  0
  187.9220  176.6980  142.7170 C   0  0  0  0  0  3  0  0  0  0  0  0
  187.0010  177.4040  145.2440 C   0  0  0  0  0  3  0  0  0  0  0  0
  186.3480  177.8880  144.1110 C   0  0  0  0  0  3  0  0  0  0  0  0
  189.6160  177.0450  146.8190 N   0  0  0  0  0  2  0  0  0  0  0  0
  191.9010  174.5600  143.3630 C   0  0  0  0  0  0  0  0  0  0  0  0
  191.7400  175.3540  145.5300 C   0  0  0  0  0  0  0  0  0  0  0  0
  191.3220  174.2360  142.0520 C   0  0  2  0  0  3  0  0  0  0  0  0
  194.3700  174.2320  143.1140 C   0  0  0  0  0  1  0  0  0  0  0  0
  189.7760  175.2620  143.5850 C   0  0  1  0  0  3  0  0  0  0  0  0
  1 21  1  0  0  0  0
  1  6  1  0  0  0  0
  4 22  1  0  0  0  0
  5 17  1  0  0  0  0
  6 23  1  0  0  0  0
  7  8  2  0  0  0  0
  8  2  2  0  0  0  0
  9 13  2  0  0  0  0
 10  8  1  1  0  0  0
 10 28  1  0  0  0  0
 12 25  2  0  0  0  0
 14  9  1  0  0  0  0
 14  8  1  0  0  0  0
 15 11  2  0  0  0  0
 16  1  2  0  0  0  0
 17 25  1  0  0  0  0
 17  3  1  1  0  0  0
 18  9  1  0  0  0  0
 19 15  1  0  0  0  0
 20  4  2  0  0  0  0
 20 16  1  0  0  0  0
 22 21  2  0  0  0  0
 23 15  1  0  0  0  0
 24  5  2  0  0  0  0
 24 12  1  0  0  0  0
 25 19  1  0  0  0  0
 26 13  1  1  0  0  0
 26 10  1  0  0  0  0
 26 24  1  0  0  0  0
 27  5  1  0  0  0  0
 28 16  1  6  0  0  0
 28 12  1  0  0  0  0
M  END
>  <MODEL>
6

>  <REMARK>
 VINA RESULT:      -7.7      2.499      5.567
  Name = 
  0 active torsions:
  status: ('A' for Active; 'I' for Inactive)
                            x       y       z     vdW  Elec       q    Type
                         _______ _______ _______ _____ _____    ______ ____

>  <TORSDO>
F 0

$$$$
=
 OpenBabel11042414493D

 28 32  0  0  1  0  0  0  0  0999 V2000
  191.6600  174.2450  144.8880 C   0  0  0  0  0  0  0  0  0  0  0  0
  190.2240  174.5400  140.9750 O   0  0  0  0  0  0  0  0  0  0  0  0
  187.5250  178.1840  147.3630 O   0  0  0  0  0  1  0  0  0  0  0  0
  191.3100  171.7850  143.6310 C   0  0  0  0  0  3  0  0  0  0  0  0
  186.8570  176.9640  145.2670 C   0  0  0  0  0  0  0  0  0  0  0  0
  191.7550  175.4380  145.6560 C   0  0  0  0  0  2  0  0  0  0  0  0
  188.3860  172.8910  141.0950 O   0  0  0  0  0  0  0  0  0  0  0  0
  188.7670  174.3330  141.2790 S   0  0  0  0  0  0  0  0  0  0  0  0
  187.1250  176.4570  140.8000 C   0  0  0  0  0  0  0  0  0  0  0  0
  188.4030  174.8450  142.8860 N   0  0  2  0  0  0  0  0  0  0  0  0
  191.1920  176.7970  148.7410 O   0  0  0  0  0  0  0  0  0  0  0  0
  188.8770  176.0130  144.7840 C   0  0  0  0  0  0  0  0  0  0  0  0
  186.9130  176.5860  142.0790 N   0  0  0  0  0  0  0  0  0  0  0  0
  187.8180  175.3330  140.2520 N   0  0  0  0  0  2  0  0  0  0  0  0
  191.0440  176.5800  147.5110 C   0  0  0  0  0  0  0  0  0  0  0  0
  190.4820  174.0340  144.1440 C   0  0  0  0  0  0  0  0  0  0  0  0
  187.8090  177.3140  146.3150 C   0  0  1  0  0  3  0  0  0  0  0  0
  186.6890  177.5430  139.8860 C   0  0  0  0  0  1  0  0  0  0  0  0
  190.2230  177.4950  146.6620 C   0  0  0  0  0  2  0  0  0  0  0  0
  190.3320  172.7770  143.5280 C   0  0  0  0  0  3  0  0  0  0  0  0
  192.6360  173.2490  145.0130 C   0  0  0  0  0  3  0  0  0  0  0  0
  192.4660  172.0230  144.3730 C   0  0  0  0  0  3  0  0  0  0  0  0
  191.5360  175.3920  146.9240 N   0  0  0  0  0  2  0  0  0  0  0  0
  187.5320  176.2800  144.3710 C   0  0  0  0  0  0  0  0  0  0  0  0
  189.0180  176.7920  146.0680 C   0  0  0  0  0  0  0  0  0  0  0  0
  187.1700  175.5880  143.1260 C   0  0  2  0  0  3  0  0  0  0  0  0
  185.4240  177.3590  145.1850 C   0  0  0  0  0  1  0  0  0  0  0  0
  189.3630  175.0420  143.9540 C   0  0  1  0  0  3  0  0  0  0  0  0
  1 21  1  0  0  0  0
  1  6  1  0  0  0  0
  2  8  2  0  0  0  0
  4 22  1  0  0  0  0
  5 17  1  0  0  0  0
  6 23  1  0  0  0  0
  7  8  2  0  0  0  0
  9 13  2  0  0  0  0
 10  8  1  6  0  0  0
 10 26  1  0  0  0  0
 10 28  1  0  0  0  0
 12 25  2  0  0  0  0
 14  9  1  0  0  0  0
 14  8  1  0  0  0  0
 15 11  2  0  0  0  0
 16  1  2  0  0  0  0
 17  3  1  6  0  0  0
 18  9  1  0  0  0  0
 19 15  1  0  0  0  0
 20  4  2  0  0  0  0
 20 16  1  0  0  0  0
 22 21  2  0  0  0  0
 23 15  1  0  0  0  0
 24 12  1  0  0  0  0
 24  5  2  0  0  0  0
 25 17  1  0  0  0  0
 25 19  1  0  0  0  0
 26 13  1  6  0  0  0
 26 24  1  0  0  0  0
 27  5  1  0  0  0  0
 28 16  1  1  0  0  0
 28 12  1  0  0  0  0
M  END
>  <MODEL>
7

>  <REMARK>
 VINA RESULT:      -7.7      2.469      6.599
  Name = 
  0 active torsions:
  status: ('A' for Active; 'I' for Inactive)
                            x       y       z     vdW  Elec       q    Type
                         _______ _______ _______ _____ _____    ______ ____

>  <TORSDO>
F 0

$$$$
=
 OpenBabel11042414493D

 28 32  0  0  1  0  0  0  0  0999 V2000
  188.7520  176.6710  145.3880 C   0  0  0  0  0  0  0  0  0  0  0  0
  192.3310  174.6950  144.5210 O   0  0  0  0  0  0  0  0  0  0  0  0
  186.6520  176.7460  139.5290 O   0  0  0  0  0  1  0  0  0  0  0  0
  189.3050  174.5460  147.1000 C   0  0  0  0  0  3  0  0  0  0  0  0
  188.2540  174.9140  140.1660 C   0  0  0  0  0  0  0  0  0  0  0  0
  188.3200  177.6910  144.4960 C   0  0  0  0  0  2  0  0  0  0  0  0
  191.5180  172.3610  144.5440 O   0  0  0  0  0  0  0  0  0  0  0  0
  191.7500  173.5810  143.6970 S   0  0  0  0  0  0  0  0  0  0  0  0
  192.4500  173.5440  141.0620 C   0  0  0  0  0  0  0  0  0  0  0  0
  190.2770  174.0790  142.9520 N   0  0  2  0  0  0  0  0  0  0  0  0
  185.6020  178.9790  142.8720 O   0  0  0  0  0  0  0  0  0  0  0  0
  188.8200  175.6800  142.2420 C   0  0  0  0  0  0  0  0  0  0  0  0
  191.2220  173.8260  140.7280 N   0  0  0  0  0  0  0  0  0  0  0  0
  192.8180  173.2090  142.4020 N   0  0  0  0  0  2  0  0  0  0  0  0
  186.7020  178.3920  143.0320 C   0  0  0  0  0  0  0  0  0  0  0  0
  189.2200  175.4640  144.8300 C   0  0  0  0  0  0  0  0  0  0  0  0
  187.4920  176.1240  140.4480 C   0  0  0  0  0  0  0  0  0  0  0  0
  193.5140  173.6340  140.0290 C   0  0  0  0  0  1  0  0  0  0  0  0
  187.6000  178.1110  141.8700 C   0  0  0  0  0  2  0  0  0  0  0  0
  189.4820  174.4070  145.7220 C   0  0  0  0  0  3  0  0  0  0  0  0
  188.5530  176.8110  146.7660 C   0  0  0  0  0  3  0  0  0  0  0  0
  188.8430  175.7520  147.6240 C   0  0  0  0  0  3  0  0  0  0  0  0
  187.0590  177.8570  144.2910 N   0  0  0  0  0  2  0  0  0  0  0  0
  189.0580  174.7380  141.1900 C   0  0  1  0  0  3  0  0  0  0  0  0
  187.8010  176.6240  141.6520 C   0  0  0  0  0  0  0  0  0  0  0  0
  190.0230  173.6960  141.5670 C   0  0  2  0  0  3  0  0  0  0  0  0
  188.1930  174.0790  138.9350 C   0  0  0  0  0  1  0  0  0  0  0  0
  189.4600  175.2070  143.3530 C   0  0  1  0  0  3  0  0  0  0  0  0
  1 21  1  0  0  0  0
  3 17  1  0  0  0  0
  4 22  1  0  0  0  0
  5 17  2  0  0  0  0
  6  1  1  0  0  0  0
  8  2  2  0  0  0  0
  8  7  2  0  0  0  0
  9 14  1  0  0  0  0
 10 28  1  0  0  0  0
 10  8  1  6  0  0  0
 11 15  2  0  0  0  0
 13  9  2  0  0  0  0
 14  8  1  0  0  0  0
 15 23  1  0  0  0  0
 16  1  2  0  0  0  0
 16 20  1  0  0  0  0
 17 25  1  0  0  0  0
 18  9  1  0  0  0  0
 19 15  1  0  0  0  0
 20  4  2  0  0  0  0
 21 22  2  0  0  0  0
 23  6  1  0  0  0  0
 24  5  1  1  0  0  0
 24 26  1  0  0  0  0
 24 12  1  0  0  0  0
 25 19  1  0  0  0  0
 25 12  2  0  0  0  0
 26 13  1  6  0  0  0
 26 10  1  0  0  0  0
 27  5  1  0  0  0  0
 28 12  1  6  0  0  0
 28 16  1  0  0  0  0
M  END
>  <MODEL>
8

>  <REMARK>
 VINA RESULT:      -7.5      2.442      3.110
  Name = 
  0 active torsions:
  status: ('A' for Active; 'I' for Inactive)
                            x       y       z     vdW  Elec       q    Type
                         _______ _______ _______ _____ _____    ______ ____

>  <TORSDO>
F 0

$$$$
=
 OpenBabel11042414493D

 28 32  0  0  1  0  0  0  0  0999 V2000
  188.9510  175.2070  145.3120 C   0  0  0  0  0  0  0  0  0  0  0  0
  185.4640  177.4300  145.9140 O   0  0  0  0  0  0  0  0  0  0  0  0
  188.2090  174.5410  139.1690 O   0  0  0  0  0  1  0  0  0  0  0  0
  189.3260  177.4850  146.8680 C   0  0  0  0  0  3  0  0  0  0  0  0
  187.1520  176.5480  140.2560 C   0  0  0  0  0  0  0  0  0  0  0  0
  188.8890  174.0930  144.4300 C   0  0  0  0  0  2  0  0  0  0  0  0
  186.3160  179.6780  145.3390 O   0  0  0  0  0  0  0  0  0  0  0  0
  185.6710  178.4290  144.8100 S   0  0  0  0  0  0  0  0  0  0  0  0
  183.8710  178.3460  142.7630 C   0  0  0  0  0  0  0  0  0  0  0  0
  186.6300  177.7510  143.5470 N   0  0  2  0  0  0  0  0  0  0  0  0
  190.5280  172.4570  141.9160 O   0  0  0  0  0  0  0  0  0  0  0  0
  187.5360  175.9800  142.4350 C   0  0  0  0  0  0  0  0  0  0  0  0
  184.8050  177.9330  141.9540 N   0  0  0  0  0  0  0  0  0  0  0  0
  184.1570  178.8050  144.0860 N   0  0  0  0  0  2  0  0  0  0  0  0
  189.6450  173.1510  142.4830 C   0  0  0  0  0  0  0  0  0  0  0  0
  188.3440  176.4090  144.8980 C   0  0  0  0  0  0  0  0  0  0  0  0
  187.8990  175.2970  140.2950 C   0  0  0  0  0  0  0  0  0  0  0  0
  182.4550  178.2810  142.3190 C   0  0  0  0  0  1  0  0  0  0  0  0
  188.3390  173.4300  141.8130 C   0  0  0  0  0  2  0  0  0  0  0  0
  188.5600  177.5440  145.7020 C   0  0  0  0  0  3  0  0  0  0  0  0
  189.7370  175.1440  146.4690 C   0  0  0  0  0  3  0  0  0  0  0  0
  189.9130  176.2810  147.2540 C   0  0  0  0  0  3  0  0  0  0  0  0
  189.9150  173.8000  143.7100 N   0  0  0  0  0  2  0  0  0  0  0  0
  186.9000  176.8650  141.5060 C   0  0  1  0  0  3  0  0  0  0  0  0
  188.1360  174.9100  141.5560 C   0  0  0  0  0  0  0  0  0  0  0  0
  186.2570  178.0130  142.1610 C   0  0  2  0  0  3  0  0  0  0  0  0
  186.6990  177.2880  139.0460 C   0  0  0  0  0  1  0  0  0  0  0  0
  187.4830  176.5840  143.6600 C   0  0  1  0  0  3  0  0  0  0  0  0
  1 21  1  0  0  0  0
  3 17  1  0  0  0  0
  4 22  1  0  0  0  0
  5 17  2  0  0  0  0
  6  1  1  0  0  0  0
  8  7  2  0  0  0  0
  8  2  2  0  0  0  0
  9 14  1  0  0  0  0
 10 28  1  0  0  0  0
 10  8  1  1  0  0  0
 11 15  2  0  0  0  0
 13  9  2  0  0  0  0
 14  8  1  0  0  0  0
 15 23  1  0  0  0  0
 16  1  2  0  0  0  0
 16 20  1  0  0  0  0
 17 25  1  0  0  0  0
 18  9  1  0  0  0  0
 19 15  1  0  0  0  0
 20  4  2  0  0  0  0
 21 22  2  0  0  0  0
 23  6  1  0  0  0  0
 24  5  1  6  0  0  0
 24 26  1  0  0  0  0
 24 12  1  0  0  0  0
 25 19  1  0  0  0  0
 25 12  2  0  0  0  0
 26 13  1  1  0  0  0
 26 10  1  0  0  0  0
 27  5  1  0  0  0  0
 28 12  1  6  0  0  0
 28 16  1  0  0  0  0
M  END
>  <MODEL>
9

>  <REMARK>
 VINA RESULT:      -7.5      2.724      5.369
  Name = 
  0 active torsions:
  status: ('A' for Active; 'I' for Inactive)
                            x       y       z     vdW  Elec       q    Type
                         _______ _______ _______ _____ _____    ______ ____

>  <TORSDO>
F 0

$$$$
