=
 OpenBabel11042416573D

 35 39  0  0  1  0  0  0  0  0999 V2000
  191.2190  174.9390  147.2790 C   0  0  0  0  0  2  0  0  0  0  0  0
  190.2880  174.6280  145.0930 C   0  0  1  0  0  3  0  0  0  0  0  0
  185.0590  179.1890  143.4400 S   0  0  0  0  0  0  0  0  0  0  0  0
  188.5140  175.4950  143.6010 C   0  0  0  0  0  3  0  0  0  0  0  0
  189.7030  176.6520  142.0760 C   0  0  0  0  0  3  0  0  0  0  0  0
  187.1180  177.4210  140.7410 C   0  0  0  0  0  3  0  0  0  0  0  0
  189.4250  178.1660  147.8410 C   0  0  0  0  0  1  0  0  0  0  0  0
  185.6260  178.4510  144.9720 C   0  0  0  0  0  0  0  0  0  0  0  0
  183.5950  178.2810  140.5760 O   0  0  0  0  0  0  0  0  0  0  0  0
  186.5410  177.3000  147.3530 C   0  0  0  0  0  3  0  0  0  0  0  0
  193.9000  173.4190  145.1320 N   0  0  0  0  0  1  0  0  0  0  0  0
  184.8270  177.6200  142.5190 C   0  0  2  0  0  3  0  0  0  0  0  0
  186.9970  178.2860  145.1930 C   0  0  0  0  0  3  0  0  0  0  0  0
  191.5060  173.7300  144.7930 C   0  0  0  0  0  2  0  0  0  0  0  0
  185.9690  176.7280  142.7230 N   0  0  0  0  0  2  0  0  0  0  0  0
  185.8770  177.9300  140.2380 N   0  0  0  0  0  0  0  0  0  0  0  0
  190.5180  175.6000  146.1790 N   0  0  1  0  0  0  0  0  0  0  0  0
  188.4240  176.3040  142.4850 C   0  0  0  0  0  0  0  0  0  0  0  0
  188.9480  177.4730  146.5760 C   0  0  2  0  0  0  0  0  0  0  0  0
  185.1690  177.4750  147.1400 C   0  0  0  0  0  3  0  0  0  0  0  0
  187.1660  176.8290  141.9390 C   0  0  2  0  0  3  0  0  0  0  0  0
  192.7870  174.3170  145.3760 C   0  0  1  0  0  3  0  0  0  0  0  0
  190.5300  176.0180  142.9910 C   0  0  0  0  0  0  0  0  0  0  0  0
  187.4690  177.7080  146.3800 C   0  0  0  0  0  0  0  0  0  0  0  0
  189.8130  175.3090  143.8870 N   0  0  0  0  0  0  0  0  0  0  0  0
  189.2070  175.9700  146.6990 C   0  0  0  0  0  2  0  0  0  0  0  0
  189.6590  177.9970  145.5040 F   0  0  0  0  0  0  0  0  0  0  0  0
  184.7060  177.9410  141.0610 C   0  0  0  0  0  0  0  0  0  0  0  0
  184.7110  178.0490  145.9500 C   0  0  0  0  0  3  0  0  0  0  0  0
  192.6530  174.5800  146.8780 C   0  0  0  0  0  2  0  0  0  0  0  0
  191.9220  176.1180  143.0250 O   0  0  0  0  0  0  0  0  0  0  0  0
  192.7440  175.5930  141.9890 C   0  0  0  0  0  2  0  0  0  0  0  0
  194.7050  176.2120  143.2200 O   0  0  0  0  0  1  0  0  0  0  0  0
  194.8090  176.5210  140.9550 O   0  0  0  0  0  0  0  0  0  0  0  0
  194.1370  176.1190  142.1000 C   0  0  0  0  0  0  0  0  0  0  0  0
  2 14  1  6  0  0  0
  2 17  1  0  0  0  0
  3  8  1  0  0  0  0
  4 25  1  0  0  0  0
  5 18  1  0  0  0  0
  5 23  2  0  0  0  0
  8 13  2  0  0  0  0
  8 29  1  0  0  0  0
  9 28  2  0  0  0  0
 12 28  1  6  0  0  0
 12 15  1  0  0  0  0
 12  3  1  0  0  0  0
 13 24  1  0  0  0  0
 14 22  1  0  0  0  0
 16  6  2  0  0  0  0
 16 28  1  0  0  0  0
 17 26  1  1  0  0  0
 17  1  1  0  0  0  0
 18  4  2  0  0  0  0
 19 26  1  0  0  0  0
 19  7  1  1  0  0  0
 20 10  1  0  0  0  0
 21  6  1  1  0  0  0
 21 18  1  0  0  0  0
 21 15  1  0  0  0  0
 22 11  1  1  0  0  0
 22 30  1  0  0  0  0
 23 31  1  0  0  0  0
 23 25  1  0  0  0  0
 24 19  1  0  0  0  0
 24 10  2  0  0  0  0
 25  2  1  0  0  0  0
 27 19  1  0  0  0  0
 29 20  2  0  0  0  0
 30  1  1  0  0  0  0
 32 35  1  0  0  0  0
 32 31  1  0  0  0  0
 34 35  2  0  0  0  0
 35 33  1  0  0  0  0
M  END
>  <MODEL>
1

>  <REMARK>
 VINA RESULT:      -8.8      0.000      0.000
  Name = 
  3 active torsions:
  status: ('A' for Active; 'I' for Inactive)
    1  A    between atoms: C_1  and  C_15
    2  A    between atoms: C_1  and  O_34
    3  A    between atoms: C_27  and  O_34
                            x       y       z     vdW  Elec       q    Type
                         _______ _______ _______ _____ _____    ______ ____

>  <TORSDO>
F 3

$$$$
=
 OpenBabel11042416573D

 35 39  0  0  1  0  0  0  0  0999 V2000
  185.8510  178.3400  143.7510 C   0  0  0  0  0  2  0  0  0  0  0  0
  187.9660  178.0100  142.6720 C   0  0  1  0  0  3  0  0  0  0  0  0
  192.9770  175.1030  146.8320 S   0  0  0  0  0  0  0  0  0  0  0  0
  190.2690  177.2250  143.1210 C   0  0  0  0  0  3  0  0  0  0  0  0
  190.3020  175.2330  142.0680 C   0  0  0  0  0  3  0  0  0  0  0  0
  193.1330  174.8540  143.0160 C   0  0  0  0  0  3  0  0  0  0  0  0
  186.8270  176.3840  146.7800 C   0  0  0  0  0  1  0  0  0  0  0  0
  191.5770  176.1800  147.1400 C   0  0  0  0  0  0  0  0  0  0  0  0
  195.9430  175.1760  145.2920 O   0  0  0  0  0  0  0  0  0  0  0  0
  189.3770  177.8450  147.5980 C   0  0  0  0  0  3  0  0  0  0  0  0
  185.1730  177.9070  140.0830 N   0  0  0  0  0  1  0  0  0  0  0  0
  193.7670  176.1420  145.5440 C   0  0  2  0  0  3  0  0  0  0  0  0
  190.3820  175.9740  146.4450 C   0  0  0  0  0  3  0  0  0  0  0  0
  187.2310  178.2660  141.3400 C   0  0  0  0  0  2  0  0  0  0  0  0
  192.7710  176.6230  144.5860 N   0  0  0  0  0  2  0  0  0  0  0  0
  194.4030  174.6090  143.6340 N   0  0  0  0  0  2  0  0  0  0  0  0
  187.0820  177.5490  143.7600 N   0  0  1  0  0  0  0  0  0  0  0  0
  191.0350  176.1050  142.8590 C   0  0  0  0  0  0  0  0  0  0  0  0
  188.0100  176.6110  145.8550 C   0  0  2  0  0  0  0  0  0  0  0  0
  190.5670  178.0470  148.3040 C   0  0  0  0  0  3  0  0  0  0  0  0
  192.3440  175.8350  143.4670 C   0  0  0  0  0  0  0  0  0  0  0  0
  185.8620  177.5940  141.3210 C   0  0  1  0  0  3  0  0  0  0  0  0
  189.0930  175.8850  141.8840 C   0  0  0  0  0  0  0  0  0  0  0  0
  189.2720  176.8020  146.6620 C   0  0  0  0  0  0  0  0  0  0  0  0
  189.0880  177.0870  142.4970 N   0  0  0  0  0  0  0  0  0  0  0  0
  187.7560  177.8650  145.0140 C   0  0  0  0  0  2  0  0  0  0  0  0
  188.1350  175.4990  145.0330 F   0  0  0  0  0  0  0  0  0  0  0  0
  194.7830  175.3100  144.8220 C   0  0  0  0  0  0  0  0  0  0  0  0
  191.6680  177.2150  148.0760 C   0  0  0  0  0  3  0  0  0  0  0  0
  185.0060  178.0260  142.5140 C   0  0  0  0  0  2  0  0  0  0  0  0
  187.9960  175.3690  141.1920 O   0  0  0  0  0  0  0  0  0  0  0  0
  188.1390  174.6590  139.9670 C   0  0  0  0  0  2  0  0  0  0  0  0
  188.3950  172.3800  139.2730 O   0  0  0  0  0  0  0  0  0  0  0  0
  187.8060  172.6970  141.4610 O   0  0  0  0  0  1  0  0  0  0  0  0
  188.1280  173.1850  140.2030 C   0  0  0  0  0  0  0  0  0  0  0  0
  2 14  1  6  0  0  0
  2 17  1  0  0  0  0
  3  8  1  0  0  0  0
  5 18  1  0  0  0  0
  6 21  2  0  0  0  0
  6 16  1  0  0  0  0
  8 29  1  0  0  0  0
 10 20  1  0  0  0  0
 12 15  1  6  0  0  0
 12  3  1  0  0  0  0
 13 24  1  0  0  0  0
 13  8  2  0  0  0  0
 16 28  1  0  0  0  0
 17  1  1  1  0  0  0
 17 26  1  0  0  0  0
 18  4  2  0  0  0  0
 18 21  1  0  0  0  0
 19 24  1  0  0  0  0
 19  7  1  1  0  0  0
 21 15  1  0  0  0  0
 22 11  1  6  0  0  0
 22 14  1  0  0  0  0
 22 30  1  0  0  0  0
 23  5  2  0  0  0  0
 23 25  1  0  0  0  0
 24 10  2  0  0  0  0
 25  2  1  0  0  0  0
 25  4  1  0  0  0  0
 26 19  1  0  0  0  0
 27 19  1  0  0  0  0
 28  9  2  0  0  0  0
 28 12  1  0  0  0  0
 29 20  2  0  0  0  0
 30  1  1  0  0  0  0
 31 23  1  0  0  0  0
 32 35  1  0  0  0  0
 32 31  1  0  0  0  0
 33 35  2  0  0  0  0
 35 34  1  0  0  0  0
M  END
>  <MODEL>
2

>  <REMARK>
 VINA RESULT:      -7.8      2.846      6.740
  Name = 
  3 active torsions:
  status: ('A' for Active; 'I' for Inactive)
    1  A    between atoms: C_1  and  C_15
    2  A    between atoms: C_1  and  O_34
    3  A    between atoms: C_27  and  O_34
                            x       y       z     vdW  Elec       q    Type
                         _______ _______ _______ _____ _____    ______ ____

>  <TORSDO>
F 3

$$$$
=
 OpenBabel11042416573D

 35 39  0  0  1  0  0  0  0  0999 V2000
  192.0510  170.8570  143.8660 C   0  0  0  0  0  2  0  0  0  0  0  0
  190.1930  171.5830  142.5380 C   0  0  1  0  0  3  0  0  0  0  0  0
  187.5680  177.9560  144.3740 S   0  0  0  0  0  0  0  0  0  0  0  0
  188.5590  173.4310  142.3360 C   0  0  0  0  0  3  0  0  0  0  0  0
  189.2900  174.5100  140.4980 C   0  0  0  0  0  3  0  0  0  0  0  0
  187.0690  176.5060  140.8670 C   0  0  0  0  0  3  0  0  0  0  0  0
  192.4360  174.1650  145.5560 C   0  0  0  0  0  1  0  0  0  0  0  0
  188.3640  176.6310  145.2820 C   0  0  0  0  0  0  0  0  0  0  0  0
  184.7170  178.5490  142.7320 O   0  0  0  0  0  0  0  0  0  0  0  0
  189.6250  174.5580  146.6750 C   0  0  0  0  0  3  0  0  0  0  0  0
  192.3920  169.2390  140.4940 N   0  0  0  0  0  1  0  0  0  0  0  0
  186.2440  176.9340  143.6220 C   0  0  2  0  0  3  0  0  0  0  0  0
  189.4290  175.9380  144.7000 C   0  0  0  0  0  3  0  0  0  0  0  0
  190.5640  170.4560  141.5520 C   0  0  0  0  0  2  0  0  0  0  0  0
  186.7920  175.6830  143.0980 N   0  0  0  0  0  2  0  0  0  0  0  0
  186.1310  177.5460  141.1690 N   0  0  0  0  0  0  0  0  0  0  0  0
  191.3160  172.0270  143.3850 N   0  0  1  0  0  0  0  0  0  0  0  0
  188.3490  174.5230  141.5170 C   0  0  0  0  0  0  0  0  0  0  0  0
  191.1720  174.1100  144.7170 C   0  0  2  0  0  0  0  0  0  0  0  0
  188.5670  175.2570  147.2660 C   0  0  0  0  0  3  0  0  0  0  0  0
  187.3850  175.5960  141.7940 C   0  0  2  0  0  3  0  0  0  0  0  0
  192.0750  170.3470  141.3750 C   0  0  1  0  0  3  0  0  0  0  0  0
  190.0470  173.3780  140.7580 C   0  0  0  0  0  0  0  0  0  0  0  0
  190.0680  174.8950  145.3850 C   0  0  0  0  0  0  0  0  0  0  0  0
  189.5900  172.7240  141.8460 N   0  0  0  0  0  0  0  0  0  0  0  0
  190.7320  172.6510  144.5670 C   0  0  0  0  0  2  0  0  0  0  0  0
  191.4580  174.6550  143.4720 F   0  0  0  0  0  0  0  0  0  0  0  0
  185.6270  177.7110  142.4990 C   0  0  0  0  0  0  0  0  0  0  0  0
  187.9360  176.2940  146.5700 C   0  0  0  0  0  3  0  0  0  0  0  0
  192.7870  170.1620  142.7170 C   0  0  0  0  0  2  0  0  0  0  0  0
  191.1640  172.9690  140.0270 O   0  0  0  0  0  0  0  0  0  0  0  0
  191.1630  172.9230  138.6050 C   0  0  0  0  0  2  0  0  0  0  0  0
  190.1140  170.8070  138.2010 O   0  0  0  0  0  1  0  0  0  0  0  0
  188.9440  172.6480  137.5110 O   0  0  0  0  0  0  0  0  0  0  0  0
  190.0520  172.0600  138.1040 C   0  0  0  0  0  0  0  0  0  0  0  0
  2 14  1  6  0  0  0
  2 17  1  0  0  0  0
  3  8  1  0  0  0  0
  5 23  2  0  0  0  0
  5 18  1  0  0  0  0
  6 16  2  0  0  0  0
  8 29  1  0  0  0  0
 10 20  1  0  0  0  0
 12 28  1  6  0  0  0
 12  3  1  0  0  0  0
 13  8  2  0  0  0  0
 13 24  1  0  0  0  0
 15 12  1  0  0  0  0
 16 28  1  0  0  0  0
 17  1  1  1  0  0  0
 17 26  1  0  0  0  0
 18 21  1  0  0  0  0
 18  4  2  0  0  0  0
 19 24  1  0  0  0  0
 19  7  1  1  0  0  0
 21  6  1  1  0  0  0
 21 15  1  0  0  0  0
 22 11  1  6  0  0  0
 22 14  1  0  0  0  0
 22 30  1  0  0  0  0
 23 25  1  0  0  0  0
 24 10  2  0  0  0  0
 25  4  1  0  0  0  0
 25  2  1  0  0  0  0
 26 19  1  0  0  0  0
 27 19  1  0  0  0  0
 28  9  2  0  0  0  0
 29 20  2  0  0  0  0
 30  1  1  0  0  0  0
 31 23  1  0  0  0  0
 32 31  1  0  0  0  0
 34 35  2  0  0  0  0
 35 33  1  0  0  0  0
 35 32  1  0  0  0  0
M  END
>  <MODEL>
3

>  <REMARK>
 VINA RESULT:      -7.6      3.445      4.357
  Name = 
  3 active torsions:
  status: ('A' for Active; 'I' for Inactive)
    1  A    between atoms: C_1  and  C_15
    2  A    between atoms: C_1  and  O_34
    3  A    between atoms: C_27  and  O_34
                            x       y       z     vdW  Elec       q    Type
                         _______ _______ _______ _____ _____    ______ ____

>  <TORSDO>
F 3

$$$$
=
 OpenBabel11042416573D

 35 39  0  0  1  0  0  0  0  0999 V2000
  195.6830  173.3030  145.6250 C   0  0  0  0  0  2  0  0  0  0  0  0
  193.7850  172.7250  144.2810 C   0  0  1  0  0  3  0  0  0  0  0  0
  188.6670  177.6910  144.1190 S   0  0  0  0  0  0  0  0  0  0  0  0
  191.5560  173.5670  143.6110 C   0  0  0  0  0  3  0  0  0  0  0  0
  191.9050  174.1750  141.4700 C   0  0  0  0  0  3  0  0  0  0  0  0
  189.0420  175.0930  141.3330 C   0  0  0  0  0  3  0  0  0  0  0  0
  194.5670  176.8360  146.0990 C   0  0  0  0  0  1  0  0  0  0  0  0
  189.8720  177.1870  145.3470 C   0  0  0  0  0  0  0  0  0  0  0  0
  185.9410  176.4930  142.5990 O   0  0  0  0  0  0  0  0  0  0  0  0
  191.7730  176.3960  147.2410 C   0  0  0  0  0  3  0  0  0  0  0  0
  196.8830  170.9490  142.9570 N   0  0  0  0  0  1  0  0  0  0  0  0
  187.9310  176.0330  143.8490 C   0  0  2  0  0  3  0  0  0  0  0  0
  191.1640  176.8370  144.9440 C   0  0  0  0  0  3  0  0  0  0  0  0
  194.6500  171.5910  143.6950 C   0  0  0  0  0  2  0  0  0  0  0  0
  188.9760  175.0180  143.7240 N   0  0  0  0  0  2  0  0  0  0  0  0
  187.7430  175.6960  141.3480 N   0  0  0  0  0  0  0  0  0  0  0  0
  194.5690  173.8410  144.8450 N   0  0  1  0  0  0  0  0  0  0  0  0
  190.9740  174.1400  142.4970 C   0  0  0  0  0  0  0  0  0  0  0  0
  193.4960  175.9960  145.4250 C   0  0  2  0  0  0  0  0  0  0  0  0
  190.4840  176.7570  147.6490 C   0  0  0  0  0  3  0  0  0  0  0  0
  189.6400  174.7530  142.4800 C   0  0  2  0  0  3  0  0  0  0  0  0
  196.0820  172.0540  143.4470 C   0  0  1  0  0  3  0  0  0  0  0  0
  193.0390  173.6050  142.0270 C   0  0  0  0  0  0  0  0  0  0  0  0
  192.1260  176.4360  145.8820 C   0  0  0  0  0  0  0  0  0  0  0  0
  192.8170  173.2220  143.3020 N   0  0  0  0  0  0  0  0  0  0  0  0
  193.7020  174.5260  145.7980 C   0  0  0  0  0  2  0  0  0  0  0  0
  193.6170  176.1650  144.0520 F   0  0  0  0  0  0  0  0  0  0  0  0
  187.1280  176.0720  142.5850 C   0  0  0  0  0  0  0  0  0  0  0  0
  189.5330  177.1520  146.7030 C   0  0  0  0  0  3  0  0  0  0  0  0
  196.7150  172.6310  144.7150 C   0  0  0  0  0  2  0  0  0  0  0  0
  194.2720  173.4700  141.3870 O   0  0  0  0  0  0  0  0  0  0  0  0
  194.8130  174.4960  140.5620 C   0  0  0  0  0  2  0  0  0  0  0  0
  194.9580  176.7830  141.2620 O   0  0  0  0  0  0  0  0  0  0  0  0
  196.3810  175.3260  142.3070 O   0  0  0  0  0  1  0  0  0  0  0  0
  195.3750  175.6020  141.3920 C   0  0  0  0  0  0  0  0  0  0  0  0
  2 14  1  6  0  0  0
  2 17  1  0  0  0  0
  3  8  1  0  0  0  0
  5 23  2  0  0  0  0
  5 18  1  0  0  0  0
  6 16  2  0  0  0  0
  8 29  1  0  0  0  0
 10 20  1  0  0  0  0
 12 28  1  6  0  0  0
 12  3  1  0  0  0  0
 13  8  2  0  0  0  0
 13 24  1  0  0  0  0
 15 12  1  0  0  0  0
 16 28  1  0  0  0  0
 17  1  1  1  0  0  0
 17 26  1  0  0  0  0
 18  4  2  0  0  0  0
 19 26  1  0  0  0  0
 19 24  1  0  0  0  0
 19  7  1  1  0  0  0
 21  6  1  1  0  0  0
 21 18  1  0  0  0  0
 21 15  1  0  0  0  0
 22 11  1  1  0  0  0
 22 14  1  0  0  0  0
 22 30  1  0  0  0  0
 23 25  1  0  0  0  0
 24 10  2  0  0  0  0
 25  4  1  0  0  0  0
 25  2  1  0  0  0  0
 27 19  1  0  0  0  0
 28  9  2  0  0  0  0
 29 20  2  0  0  0  0
 30  1  1  0  0  0  0
 31 23  1  0  0  0  0
 32 31  1  0  0  0  0
 32 35  1  0  0  0  0
 33 35  2  0  0  0  0
 35 34  1  0  0  0  0
M  END
>  <MODEL>
4

>  <REMARK>
 VINA RESULT:      -7.4      2.518      4.077
  Name = 
  3 active torsions:
  status: ('A' for Active; 'I' for Inactive)
    1  A    between atoms: C_1  and  C_15
    2  A    between atoms: C_1  and  O_34
    3  A    between atoms: C_27  and  O_34
                            x       y       z     vdW  Elec       q    Type
                         _______ _______ _______ _____ _____    ______ ____

>  <TORSDO>
F 3

$$$$
=
 OpenBabel11042416573D

 35 39  0  0  1  0  0  0  0  0999 V2000
  188.0380  177.3860  144.8570 C   0  0  0  0  0  2  0  0  0  0  0  0
  189.3990  176.7980  142.9740 C   0  0  1  0  0  3  0  0  0  0  0  0
  195.3150  173.1740  144.6310 S   0  0  0  0  0  0  0  0  0  0  0  0
  191.5440  175.7050  142.3990 C   0  0  0  0  0  3  0  0  0  0  0  0
  190.8560  173.7460  141.5240 C   0  0  0  0  0  3  0  0  0  0  0  0
  193.7420  172.9780  141.1480 C   0  0  0  0  0  3  0  0  0  0  0  0
  189.9890  175.2610  147.2290 C   0  0  0  0  0  1  0  0  0  0  0  0
  194.3440  174.4220  145.4770 C   0  0  0  0  0  0  0  0  0  0  0  0
  197.2820  172.8800  141.9450 O   0  0  0  0  0  0  0  0  0  0  0  0
  192.8020  176.3560  146.7840 C   0  0  0  0  0  3  0  0  0  0  0  0
  185.7640  177.1140  141.8800 N   0  0  0  0  0  1  0  0  0  0  0  0
  195.5820  174.1230  143.0850 C   0  0  2  0  0  3  0  0  0  0  0  0
  192.9500  174.3890  145.3850 C   0  0  0  0  0  3  0  0  0  0  0  0
  188.1930  177.1740  142.0900 C   0  0  0  0  0  2  0  0  0  0  0  0
  194.3370  174.7500  142.6420 N   0  0  0  0  0  2  0  0  0  0  0  0
  195.1100  172.5550  141.1560 N   0  0  0  0  0  0  0  0  0  0  0  0
  189.0340  176.4380  144.3580 N   0  0  1  0  0  0  0  0  0  0  0  0
  191.9670  174.4990  141.8750 C   0  0  0  0  0  0  0  0  0  0  0  0
  190.6630  175.3470  145.8700 C   0  0  2  0  0  0  0  0  0  0  0  0
  194.1970  176.3840  146.8860 C   0  0  0  0  0  3  0  0  0  0  0  0
  193.3640  174.0460  141.8580 C   0  0  2  0  0  3  0  0  0  0  0  0
  186.8820  176.6900  142.7020 C   0  0  1  0  0  3  0  0  0  0  0  0
  189.7840  174.5560  141.8610 C   0  0  0  0  0  0  0  0  0  0  0  0
  192.1640  175.3540  146.0330 C   0  0  0  0  0  0  0  0  0  0  0  0
  190.2020  175.7370  142.3630 N   0  0  0  0  0  0  0  0  0  0  0  0
  190.2260  176.6380  145.1740 C   0  0  0  0  0  2  0  0  0  0  0  0
  190.2700  174.2430  145.1250 F   0  0  0  0  0  0  0  0  0  0  0  0
  196.0610  173.1760  142.0260 C   0  0  0  0  0  0  0  0  0  0  0  0
  194.9690  175.4180  146.2330 C   0  0  0  0  0  3  0  0  0  0  0  0
  186.7020  177.2100  144.1300 C   0  0  0  0  0  2  0  0  0  0  0  0
  188.4380  174.2030  141.7430 O   0  0  0  0  0  0  0  0  0  0  0  0
  188.0230  173.0130  141.0840 C   0  0  0  0  0  2  0  0  0  0  0  0
  188.6790  172.0980  138.9680 O   0  0  0  0  0  1  0  0  0  0  0  0
  188.0980  174.3110  138.9610 O   0  0  0  0  0  0  0  0  0  0  0  0
  188.2830  173.1020  139.6160 C   0  0  0  0  0  0  0  0  0  0  0  0
  2 14  1  6  0  0  0
  2 17  1  0  0  0  0
  3  8  1  0  0  0  0
  5 23  2  0  0  0  0
  5 18  1  0  0  0  0
  6 16  2  0  0  0  0
  8 29  1  0  0  0  0
  9 28  2  0  0  0  0
 10 20  1  0  0  0  0
 12 28  1  6  0  0  0
 12  3  1  0  0  0  0
 13  8  2  0  0  0  0
 13 24  1  0  0  0  0
 14 22  1  0  0  0  0
 15 12  1  0  0  0  0
 16 28  1  0  0  0  0
 17  1  1  1  0  0  0
 17 26  1  0  0  0  0
 18  4  2  0  0  0  0
 19 24  1  0  0  0  0
 19  7  1  1  0  0  0
 21  6  1  1  0  0  0
 21 18  1  0  0  0  0
 21 15  1  0  0  0  0
 22 11  1  6  0  0  0
 22 30  1  0  0  0  0
 23 25  1  0  0  0  0
 24 10  2  0  0  0  0
 25  4  1  0  0  0  0
 25  2  1  0  0  0  0
 26 19  1  0  0  0  0
 27 19  1  0  0  0  0
 29 20  2  0  0  0  0
 30  1  1  0  0  0  0
 31 23  1  0  0  0  0
 32 31  1  0  0  0  0
 33 35  1  0  0  0  0
 34 35  2  0  0  0  0
 35 32  1  0  0  0  0
M  END
>  <MODEL>
5

>  <REMARK>
 VINA RESULT:      -7.4      3.434      7.376
  Name = 
  3 active torsions:
  status: ('A' for Active; 'I' for Inactive)
    1  A    between atoms: C_1  and  C_15
    2  A    between atoms: C_1  and  O_34
    3  A    between atoms: C_27  and  O_34
                            x       y       z     vdW  Elec       q    Type
                         _______ _______ _______ _____ _____    ______ ____

>  <TORSDO>
F 3

$$$$
=
 OpenBabel11042416573D

 35 39  0  0  1  0  0  0  0  0999 V2000
  191.7260  172.5150  140.0840 C   0  0  0  0  0  2  0  0  0  0  0  0
  190.3590  173.1160  141.9590 C   0  0  1  0  0  3  0  0  0  0  0  0
  193.6290  177.2100  146.7980 S   0  0  0  0  0  0  0  0  0  0  0  0
  190.4500  174.3290  144.1140 C   0  0  0  0  0  3  0  0  0  0  0  0
  189.2750  176.1960  143.6540 C   0  0  0  0  0  3  0  0  0  0  0  0
  189.8170  177.1480  146.4570 C   0  0  0  0  0  3  0  0  0  0  0  0
  194.4660  174.8700  141.0280 C   0  0  0  0  0  1  0  0  0  0  0  0
  194.1870  175.9350  145.6670 C   0  0  0  0  0  0  0  0  0  0  0  0
  191.7220  177.5250  149.5250 O   0  0  0  0  0  0  0  0  0  0  0  0
  195.0370  173.9560  143.8820 C   0  0  0  0  0  3  0  0  0  0  0  0
  188.1580  172.5000  138.9120 N   0  0  0  0  0  1  0  0  0  0  0  0
  192.3190  176.2180  147.6100 C   0  0  2  0  0  3  0  0  0  0  0  0
  193.6420  175.8670  144.3820 C   0  0  0  0  0  3  0  0  0  0  0  0
  189.1540  172.6190  141.1340 C   0  0  0  0  0  2  0  0  0  0  0  0
  191.5330  175.4870  146.6160 N   0  0  0  0  0  2  0  0  0  0  0  0
  190.2460  177.6650  147.7230 N   0  0  0  0  0  2  0  0  0  0  0  0
  191.5210  173.5080  141.1390 N   0  0  1  0  0  0  0  0  0  0  0  0
  190.0180  175.5390  144.6230 C   0  0  0  0  0  0  0  0  0  0  0  0
  193.4110  174.7740  142.1160 C   0  0  2  0  0  0  0  0  0  0  0  0
  195.5920  174.0300  145.1640 C   0  0  0  0  0  3  0  0  0  0  0  0
  190.4300  176.0870  145.9220 C   0  0  0  0  0  0  0  0  0  0  0  0
  189.2720  173.0360  139.6710 C   0  0  1  0  0  3  0  0  0  0  0  0
  189.2940  175.3290  142.5740 C   0  0  0  0  0  0  0  0  0  0  0  0
  194.0570  174.8780  143.4780 C   0  0  0  0  0  0  0  0  0  0  0  0
  189.9790  174.2030  142.8630 N   0  0  0  0  0  0  0  0  0  0  0  0
  192.6940  173.4260  142.0020 C   0  0  0  0  0  2  0  0  0  0  0  0
  192.5100  175.8150  141.9360 F   0  0  0  0  0  0  0  0  0  0  0  0
  191.4180  177.1490  148.3630 C   0  0  0  0  0  0  0  0  0  0  0  0
  195.1680  175.0190  146.0580 C   0  0  0  0  0  3  0  0  0  0  0  0
  190.5910  172.5670  139.0560 C   0  0  0  0  0  2  0  0  0  0  0  0
  188.7190  175.5820  141.3260 O   0  0  0  0  0  0  0  0  0  0  0  0
  187.3470  175.9290  141.1810 C   0  0  0  0  0  2  0  0  0  0  0  0
  188.0160  178.2300  141.1820 O   0  0  0  0  0  1  0  0  0  0  0  0
  186.1470  177.7340  139.9570 O   0  0  0  0  0  0  0  0  0  0  0  0
  187.2020  177.3590  140.7780 C   0  0  0  0  0  0  0  0  0  0  0  0
  2 14  1  6  0  0  0
  2 25  1  0  0  0  0
  3 12  1  0  0  0  0
  4 18  2  0  0  0  0
  5 18  1  0  0  0  0
  6 16  1  0  0  0  0
  8 29  1  0  0  0  0
  8  3  1  0  0  0  0
 10 20  1  0  0  0  0
 12 15  1  6  0  0  0
 12 28  1  0  0  0  0
 13  8  2  0  0  0  0
 16 28  1  0  0  0  0
 17  1  1  6  0  0  0
 17  2  1  0  0  0  0
 17 26  1  0  0  0  0
 18 21  1  0  0  0  0
 19  7  1  6  0  0  0
 19 24  1  0  0  0  0
 20 29  2  0  0  0  0
 21  6  2  0  0  0  0
 21 15  1  0  0  0  0
 22 11  1  6  0  0  0
 22 14  1  0  0  0  0
 23 25  1  0  0  0  0
 23  5  2  0  0  0  0
 24 10  2  0  0  0  0
 24 13  1  0  0  0  0
 25  4  1  0  0  0  0
 26 19  1  0  0  0  0
 27 19  1  0  0  0  0
 28  9  2  0  0  0  0
 30 22  1  0  0  0  0
 30  1  1  0  0  0  0
 31 23  1  0  0  0  0
 32 31  1  0  0  0  0
 34 35  2  0  0  0  0
 35 32  1  0  0  0  0
 35 33  1  0  0  0  0
M  END
>  <MODEL>
6

>  <REMARK>
 VINA RESULT:      -6.9      3.511      7.345
  Name = 
  3 active torsions:
  status: ('A' for Active; 'I' for Inactive)
    1  A    between atoms: C_1  and  C_15
    2  A    between atoms: C_1  and  O_34
    3  A    between atoms: C_27  and  O_34
                            x       y       z     vdW  Elec       q    Type
                         _______ _______ _______ _____ _____    ______ ____

>  <TORSDO>
F 3

$$$$
=
 OpenBabel11042416573D

 35 39  0  0  1  0  0  0  0  0999 V2000
  189.3270  177.6630  146.8670 C   0  0  0  0  0  2  0  0  0  0  0  0
  189.7590  177.3890  144.5260 C   0  0  1  0  0  3  0  0  0  0  0  0
  195.0260  172.8250  143.0120 S   0  0  0  0  0  0  0  0  0  0  0  0
  191.2820  176.2290  142.9580 C   0  0  0  0  0  3  0  0  0  0  0  0
  189.9480  174.6270  142.1030 C   0  0  0  0  0  3  0  0  0  0  0  0
  192.2810  173.6460  140.4750 C   0  0  0  0  0  3  0  0  0  0  0  0
  191.5490  174.8250  147.8470 C   0  0  0  0  0  1  0  0  0  0  0  0
  194.7000  173.9370  144.3800 C   0  0  0  0  0  0  0  0  0  0  0  0
  195.7730  172.9590  139.7570 O   0  0  0  0  0  0  0  0  0  0  0  0
  194.1600  175.6660  146.5120 C   0  0  0  0  0  3  0  0  0  0  0  0
  186.1160  178.3710  145.0530 N   0  0  0  0  0  1  0  0  0  0  0  0
  194.8910  174.0780  141.6810 C   0  0  2  0  0  3  0  0  0  0  0  0
  193.3920  174.0860  144.8510 C   0  0  0  0  0  3  0  0  0  0  0  0
  188.4120  178.1010  144.2800 C   0  0  0  0  0  2  0  0  0  0  0  0
  193.7210  174.9310  141.8910 N   0  0  0  0  0  2  0  0  0  0  0  0
  193.4450  173.0800  139.8600 N   0  0  0  0  0  0  0  0  0  0  0  0
  189.8620  176.7540  145.8530 N   0  0  1  0  0  0  0  0  0  0  0  0
  191.2350  175.1420  142.1070 C   0  0  0  0  0  0  0  0  0  0  0  0
  191.6800  175.1550  146.3710 C   0  0  2  0  0  0  0  0  0  0  0  0
  195.4720  175.5090  146.0510 C   0  0  0  0  0  3  0  0  0  0  0  0
  192.4090  174.5500  141.4520 C   0  0  2  0  0  3  0  0  0  0  0  0
  187.3490  177.6370  145.2700 C   0  0  1  0  0  3  0  0  0  0  0  0
  189.2570  175.4500  142.9780 C   0  0  0  0  0  0  0  0  0  0  0  0
  193.1060  174.9510  145.9170 C   0  0  0  0  0  0  0  0  0  0  0  0
  190.0550  176.4200  143.4690 N   0  0  0  0  0  0  0  0  0  0  0  0
  191.2840  176.6160  146.1450 C   0  0  0  0  0  2  0  0  0  0  0  0
  190.8320  174.3130  145.6640 F   0  0  0  0  0  0  0  0  0  0  0  0
  194.7510  173.3640  140.3710 C   0  0  0  0  0  0  0  0  0  0  0  0
  195.7420  174.6460  144.9850 C   0  0  0  0  0  3  0  0  0  0  0  0
  187.8110  177.8180  146.7180 C   0  0  0  0  0  2  0  0  0  0  0  0
  187.9200  175.2910  143.3490 O   0  0  0  0  0  0  0  0  0  0  0  0
  186.8710  175.2260  142.3900 C   0  0  0  0  0  2  0  0  0  0  0  0
  185.6160  177.2460  142.0990 O   0  0  0  0  0  1  0  0  0  0  0  0
  187.5180  177.0620  140.8390 O   0  0  0  0  0  0  0  0  0  0  0  0
  186.6260  176.5660  141.7800 C   0  0  0  0  0  0  0  0  0  0  0  0
  2 14  1  6  0  0  0
  2 17  1  0  0  0  0
  3  8  1  0  0  0  0
  4 25  1  0  0  0  0
  5 18  1  0  0  0  0
  5 23  2  0  0  0  0
  8 13  2  0  0  0  0
  8 29  1  0  0  0  0
  9 28  2  0  0  0  0
 12 28  1  6  0  0  0
 12 15  1  0  0  0  0
 12  3  1  0  0  0  0
 13 24  1  0  0  0  0
 14 22  1  0  0  0  0
 16 28  1  0  0  0  0
 16  6  2  0  0  0  0
 17 26  1  1  0  0  0
 17  1  1  0  0  0  0
 18  4  2  0  0  0  0
 19  7  1  1  0  0  0
 20 10  1  0  0  0  0
 21  6  1  1  0  0  0
 21 15  1  0  0  0  0
 21 18  1  0  0  0  0
 22 11  1  1  0  0  0
 22 30  1  0  0  0  0
 23 31  1  0  0  0  0
 23 25  1  0  0  0  0
 24 19  1  0  0  0  0
 24 10  2  0  0  0  0
 25  2  1  0  0  0  0
 26 19  1  0  0  0  0
 27 19  1  0  0  0  0
 29 20  2  0  0  0  0
 30  1  1  0  0  0  0
 32 31  1  0  0  0  0
 34 35  2  0  0  0  0
 35 33  1  0  0  0  0
 35 32  1  0  0  0  0
M  END
>  <MODEL>
7

>  <REMARK>
 VINA RESULT:      -6.8      3.115      7.195
  Name = 
  3 active torsions:
  status: ('A' for Active; 'I' for Inactive)
    1  A    between atoms: C_1  and  C_15
    2  A    between atoms: C_1  and  O_34
    3  A    between atoms: C_27  and  O_34
                            x       y       z     vdW  Elec       q    Type
                         _______ _______ _______ _____ _____    ______ ____

>  <TORSDO>
F 3

$$$$
=
 OpenBabel11042416573D

 35 39  0  0  1  0  0  0  0  0999 V2000
  193.3530  170.2910  142.9340 C   0  0  0  0  0  2  0  0  0  0  0  0
  191.1210  171.0940  142.5900 C   0  0  1  0  0  3  0  0  0  0  0  0
  190.0590  177.8330  144.6700 S   0  0  0  0  0  0  0  0  0  0  0  0
  189.6940  173.0780  142.9780 C   0  0  0  0  0  3  0  0  0  0  0  0
  189.4820  173.9200  140.8990 C   0  0  0  0  0  3  0  0  0  0  0  0
  187.8310  176.1590  142.0470 C   0  0  0  0  0  3  0  0  0  0  0  0
  194.6840  173.6690  143.8100 C   0  0  0  0  0  1  0  0  0  0  0  0
  191.1310  176.5120  145.2360 C   0  0  0  0  0  0  0  0  0  0  0  0
  186.8040  178.5820  144.5490 O   0  0  0  0  0  0  0  0  0  0  0  0
  192.8080  174.4410  146.0880 C   0  0  0  0  0  3  0  0  0  0  0  0
  191.9140  168.3750  140.0430 N   0  0  0  0  0  1  0  0  0  0  0  0
  188.4870  176.8950  144.7820 C   0  0  2  0  0  3  0  0  0  0  0  0
  191.7360  175.6670  144.3010 C   0  0  0  0  0  3  0  0  0  0  0  0
  190.9040  169.8570  141.6940 C   0  0  0  0  0  2  0  0  0  0  0  0
  188.6440  175.5560  144.2150 N   0  0  0  0  0  2  0  0  0  0  0  0
  187.2150  177.3120  142.6340 N   0  0  0  0  0  0  0  0  0  0  0  0
  192.5370  171.4870  142.7280 N   0  0  1  0  0  0  0  0  0  0  0  0
  189.1640  174.1140  142.2350 C   0  0  0  0  0  0  0  0  0  0  0  0
  193.1690  173.6760  143.6980 C   0  0  2  0  0  0  0  0  0  0  0  0
  192.2130  175.2930  147.0250 C   0  0  0  0  0  3  0  0  0  0  0  0
  188.5150  175.3000  142.8090 C   0  0  2  0  0  3  0  0  0  0  0  0
  192.1260  169.5780  140.8250 C   0  0  1  0  0  3  0  0  0  0  0  0
  190.2100  172.7410  140.8980 C   0  0  0  0  0  0  0  0  0  0  0  0
  192.5770  174.6230  144.7140 C   0  0  0  0  0  0  0  0  0  0  0  0
  190.3150  172.2300  142.1420 N   0  0  0  0  0  0  0  0  0  0  0  0
  192.6400  172.2630  143.9590 C   0  0  0  0  0  2  0  0  0  0  0  0
  192.8340  174.0850  142.4140 F   0  0  0  0  0  0  0  0  0  0  0  0
  187.4390  177.6370  144.0100 C   0  0  0  0  0  0  0  0  0  0  0  0
  191.3750  176.3280  146.6000 C   0  0  0  0  0  3  0  0  0  0  0  0
  193.3950  169.4310  141.6670 C   0  0  0  0  0  2  0  0  0  0  0  0
  190.8030  172.1610  139.7740 O   0  0  0  0  0  0  0  0  0  0  0  0
  190.1820  172.1820  138.4950 C   0  0  0  0  0  2  0  0  0  0  0  0
  189.5130  169.9000  138.2050 O   0  0  0  0  0  1  0  0  0  0  0  0
  191.1920  170.6300  136.8320 O   0  0  0  0  0  0  0  0  0  0  0  0
  190.2650  170.8420  137.8420 C   0  0  0  0  0  0  0  0  0  0  0  0
  2 14  1  6  0  0  0
  2 17  1  0  0  0  0
  3 12  1  0  0  0  0
  3  8  1  0  0  0  0
  5 18  1  0  0  0  0
  6 16  2  0  0  0  0
  8 29  1  0  0  0  0
 10 20  1  0  0  0  0
 12 28  1  6  0  0  0
 13 24  1  0  0  0  0
 13  8  2  0  0  0  0
 15 12  1  0  0  0  0
 16 28  1  0  0  0  0
 17  1  1  1  0  0  0
 17 26  1  0  0  0  0
 18 21  1  0  0  0  0
 18  4  2  0  0  0  0
 19  7  1  1  0  0  0
 19 26  1  0  0  0  0
 19 24  1  0  0  0  0
 21  6  1  6  0  0  0
 21 15  1  0  0  0  0
 22 11  1  1  0  0  0
 22 30  1  0  0  0  0
 22 14  1  0  0  0  0
 23  5  2  0  0  0  0
 23 25  1  0  0  0  0
 24 10  2  0  0  0  0
 25  2  1  0  0  0  0
 25  4  1  0  0  0  0
 27 19  1  0  0  0  0
 28  9  2  0  0  0  0
 29 20  2  0  0  0  0
 30  1  1  0  0  0  0
 31 23  1  0  0  0  0
 32 31  1  0  0  0  0
 34 35  2  0  0  0  0
 35 33  1  0  0  0  0
 35 32  1  0  0  0  0
M  END
>  <MODEL>
8

>  <REMARK>
 VINA RESULT:      -6.7      4.131      5.719
  Name = 
  3 active torsions:
  status: ('A' for Active; 'I' for Inactive)
    1  A    between atoms: C_1  and  C_15
    2  A    between atoms: C_1  and  O_34
    3  A    between atoms: C_27  and  O_34
                            x       y       z     vdW  Elec       q    Type
                         _______ _______ _______ _____ _____    ______ ____

>  <TORSDO>
F 3

$$$$
=
 OpenBabel11042416573D

 35 39  0  0  1  0  0  0  0  0999 V2000
  192.1970  173.8820  140.3670 C   0  0  0  0  0  2  0  0  0  0  0  0
  192.1280  175.2620  142.3260 C   0  0  1  0  0  3  0  0  0  0  0  0
  185.5530  176.9840  144.4890 S   0  0  0  0  0  0  0  0  0  0  0  0
  190.5390  176.4490  143.8050 C   0  0  0  0  0  3  0  0  0  0  0  0
  190.5730  175.1690  145.6590 C   0  0  0  0  0  3  0  0  0  0  0  0
  188.5350  177.0110  146.8880 C   0  0  0  0  0  3  0  0  0  0  0  0
  188.5160  173.2480  140.3990 C   0  0  0  0  0  1  0  0  0  0  0  0
  186.2870  176.6490  142.8880 C   0  0  0  0  0  0  0  0  0  0  0  0
  185.6980  179.2760  146.9170 O   0  0  0  0  0  0  0  0  0  0  0  0
  187.4510  176.1060  140.4020 C   0  0  0  0  0  3  0  0  0  0  0  0
  195.3050  173.1610  142.3470 N   0  0  0  0  0  1  0  0  0  0  0  0
  186.7350  178.2900  144.9970 C   0  0  2  0  0  3  0  0  0  0  0  0
  187.2400  175.6350  142.7640 C   0  0  0  0  0  3  0  0  0  0  0  0
  193.6170  174.9110  142.5230 C   0  0  0  0  0  2  0  0  0  0  0  0
  188.1090  177.8870  144.7020 N   0  0  0  0  0  2  0  0  0  0  0  0
  187.4310  177.7830  147.3770 N   0  0  0  0  0  2  0  0  0  0  0  0
  191.3860  174.2740  141.5200 N   0  0  1  0  0  0  0  0  0  0  0  0
  189.9960  176.2810  145.0640 C   0  0  0  0  0  0  0  0  0  0  0  0
  188.9120  174.3000  141.4190 C   0  0  2  0  0  0  0  0  0  0  0  0
  186.4880  177.1150  140.5210 C   0  0  0  0  0  3  0  0  0  0  0  0
  188.8740  177.0660  145.5960 C   0  0  0  0  0  0  0  0  0  0  0  0
  193.8880  173.4420  142.2130 C   0  0  1  0  0  3  0  0  0  0  0  0
  191.4640  174.7050  144.7050 C   0  0  0  0  0  0  0  0  0  0  0  0
  187.8340  175.3530  141.5250 C   0  0  0  0  0  0  0  0  0  0  0  0
  191.4550  175.4880  143.6060 N   0  0  0  0  0  0  0  0  0  0  0  0
  190.2200  174.9620  140.9780 C   0  0  0  0  0  2  0  0  0  0  0  0
  189.0820  173.6700  142.6450 F   0  0  0  0  0  0  0  0  0  0  0  0
  186.5920  178.5090  146.4730 C   0  0  0  0  0  0  0  0  0  0  0  0
  185.9060  177.3870  141.7630 C   0  0  0  0  0  3  0  0  0  0  0  0
  193.4160  173.0670  140.8070 C   0  0  0  0  0  2  0  0  0  0  0  0
  192.2490  173.5560  144.8250 O   0  0  0  0  0  0  0  0  0  0  0  0
  193.3150  173.4630  145.7630 C   0  0  0  0  0  2  0  0  0  0  0  0
  195.3630  172.2190  145.7630 O   0  0  0  0  0  1  0  0  0  0  0  0
  193.5140  171.0980  145.0120 O   0  0  0  0  0  0  0  0  0  0  0  0
  194.1270  172.2340  145.5210 C   0  0  0  0  0  0  0  0  0  0  0  0
  1 30  1  0  0  0  0
  2 14  1  1  0  0  0
  2 25  1  0  0  0  0
  4 18  2  0  0  0  0
  6 16  1  0  0  0  0
  8  3  1  0  0  0  0
 10 20  2  0  0  0  0
 10 24  1  0  0  0  0
 12  3  1  1  0  0  0
 12 28  1  0  0  0  0
 13  8  1  0  0  0  0
 15 12  1  0  0  0  0
 15 21  1  0  0  0  0
 17  1  1  6  0  0  0
 17  2  1  0  0  0  0
 18 21  1  0  0  0  0
 18  5  1  0  0  0  0
 19  7  1  6  0  0  0
 19 24  1  0  0  0  0
 19 27  1  0  0  0  0
 20 29  1  0  0  0  0
 21  6  2  0  0  0  0
 22 11  1  6  0  0  0
 22 14  1  0  0  0  0
 23 31  1  0  0  0  0
 23  5  2  0  0  0  0
 24 13  2  0  0  0  0
 25  4  1  0  0  0  0
 25 23  1  0  0  0  0
 26 19  1  0  0  0  0
 26 17  1  0  0  0  0
 28  9  2  0  0  0  0
 28 16  1  0  0  0  0
 29  8  2  0  0  0  0
 30 22  1  0  0  0  0
 31 32  1  0  0  0  0
 34 35  2  0  0  0  0
 35 32  1  0  0  0  0
 35 33  1  0  0  0  0
M  END
>  <MODEL>
9

>  <REMARK>
 VINA RESULT:      -6.7      2.733      5.021
  Name = 
  3 active torsions:
  status: ('A' for Active; 'I' for Inactive)
    1  A    between atoms: C_1  and  C_15
    2  A    between atoms: C_1  and  O_34
    3  A    between atoms: C_27  and  O_34
                            x       y       z     vdW  Elec       q    Type
                         _______ _______ _______ _____ _____    ______ ____

>  <TORSDO>
F 3

$$$$
