=
 OpenBabel11042415263D

 63 64  0  0  1  0  0  0  0  0999 V2000
  186.3940  177.8080  141.9130 C   0  0  1  0  0  0  0  0  0  0  0  0
  187.6610  178.6560  141.8900 C   0  0  0  0  0  1  0  0  0  0  0  0
  185.4920  178.2090  140.7460 C   0  0  0  0  0  2  0  0  0  0  0  0
  184.1200  178.4420  141.1790 N   0  0  0  0  0  2  0  0  0  0  0  0
  183.2770  177.5800  140.3620 C   0  0  0  0  0  2  0  0  0  0  0  0
  181.8900  178.1850  140.1850 C   0  0  1  0  0  3  0  0  0  0  0  0
  181.8420  176.4380  138.5590 O   0  0  0  0  0  1  0  0  0  0  0  0
  181.0330  177.3290  139.2660 C   0  0  0  0  0  2  0  0  0  0  0  0
  181.2060  178.3880  141.5320 C   0  0  0  0  0  2  0  0  0  0  0  0
  179.7890  178.9080  141.3310 C   0  0  2  0  0  3  0  0  0  0  0  0
  179.8030  180.2930  141.1430 O   0  0  0  0  0  0  0  0  0  0  0  0
  178.6180  180.5710  140.4600 C   0  0  0  0  0  2  0  0  0  0  0  0
  178.9330  181.1530  139.0920 C   0  0  0  0  0  2  0  0  0  0  0  0
  178.3640  182.5540  138.9700 C   0  0  0  0  0  1  0  0  0  0  0  0
  178.8730  178.5190  142.5000 C   0  0  0  0  0  2  0  0  0  0  0  0
  178.2720  177.1440  142.3800 C   0  0  0  0  0  0  0  0  0  0  0  0
  177.7230  176.6950  141.1390 N   0  0  0  0  0  2  0  0  0  0  0  0
  178.3070  176.3500  143.3570 O   0  0  0  0  0  0  0  0  0  0  0  0
  177.6910  177.5300  139.9490 C   0  0  0  0  0  1  0  0  0  0  0  0
  186.7780  176.3290  141.8090 C   0  0  0  0  0  2  0  0  0  0  0  0
  187.4340  176.0430  140.5350 N   0  0  0  0  0  2  0  0  0  0  0  0
  189.7020  172.1730  138.5690 C   0  0  0  0  0  0  0  0  0  0  0  0
  188.7270  173.8920  137.1780 C   0  0  0  0  0  3  0  0  0  0  0  0
  188.1890  174.8670  140.6940 N   0  0  0  0  0  0  0  0  0  0  0  0
  189.4070  172.6760  137.2980 C   0  0  0  0  0  3  0  0  0  0  0  0
  189.3170  172.9080  139.6940 C   0  0  0  0  0  3  0  0  0  0  0  0
  188.3580  174.5800  138.2910 N   0  0  0  0  0  0  0  0  0  0  0  0
  188.6290  174.1210  139.5430 C   0  0  0  0  0  0  0  0  0  0  0  0
  189.8330  169.8140  138.5680 O   0  0  0  0  0  0  0  0  0  0  0  0
  192.8180  171.8120  138.7190 C   0  0  0  0  0  0  0  0  0  0  0  0
  192.5780  172.6580  137.8160 O   0  0  0  0  0  0  0  0  0  0  0  0
  190.4400  170.9040  138.7360 C   0  0  0  0  0  0  0  0  0  0  0  0
  191.8200  170.8690  139.1210 N   0  0  0  0  0  2  0  0  0  0  0  0
  194.1830  171.7380  139.3130 C   0  0  0  0  0  2  0  0  0  0  0  0
  195.2390  171.6230  138.2260 C   0  0  0  0  0  2  0  0  0  0  0  0
  196.2410  170.5400  138.5760 C   0  0  0  0  0  2  0  0  0  0  0  0
  195.1510  168.1700  138.1700 C   0  0  0  0  0  1  0  0  0  0  0  0
  195.4520  169.2570  139.5970 S   0  0  0  0  0  0  0  0  0  0  0  0
  187.4540  173.4390  142.3940 O   0  0  0  0  0  1  0  0  0  0  0  0
  188.4230  174.3790  142.0490 C   0  0  0  0  0  2  0  0  0  0  0  0
  185.6220  178.0930  143.2010 C   0  0  0  0  0  2  0  0  0  0  0  0
  186.4980  178.6200  144.3340 C   0  0  0  0  0  2  0  0  0  0  0  0
  188.2870  177.2380  145.4230 C   0  0  0  0  0  0  0  0  0  0  0  0
  189.1710  177.7540  144.6810 O   0  0  0  0  0  0  0  0  0  0  0  0
  186.9010  177.5070  145.1810 N   0  0  0  0  0  0  0  0  0  0  0  0
  185.9620  176.8590  145.9070 O   0  0  0  0  0  1  0  0  0  0  0  0
  188.6520  176.4420  146.5100 O   0  0  0  0  0  0  0  0  0  0  0  0
  190.6570  173.9850  144.9960 C   0  0  0  0  0  0  0  0  0  0  0  0
  188.7410  175.0580  146.4040 C   0  0  0  0  0  3  0  0  0  0  0  0
  189.7020  174.5170  145.7110 C   0  0  0  0  0  0  0  0  0  0  0  0
  191.8040  171.9790  144.0830 C   0  0  0  0  0  1  0  0  0  0  0  0
  190.7920  172.5960  144.8730 O   0  0  0  0  0  0  0  0  0  0  0  0
  191.5850  174.8490  144.3420 N   0  0  0  0  0  2  0  0  0  0  0  0
  194.6070  176.7050  145.1410 N   0  0  0  0  0  2  0  0  0  0  0  0
  193.0170  175.2720  146.2680 C   0  0  0  0  0  2  0  0  0  0  0  0
  193.4920  176.4390  144.2340 C   0  0  2  0  0  3  0  0  0  0  0  0
  192.3450  175.8640  145.0610 C   0  0  1  0  0  3  0  0  0  0  0  0
  194.2680  176.1050  146.4340 C   0  0  0  0  0  2  0  0  0  0  0  0
  193.9480  175.5720  143.0480 C   0  0  1  0  0  3  0  0  0  0  0  0
  194.8560  176.2800  142.2630 O   0  0  0  0  0  1  0  0  0  0  0  0
  195.7580  172.1930  143.0490 C   0  0  0  0  0  1  0  0  0  0  0  0
  195.1670  173.4830  142.6020 C   0  0  0  0  0  3  0  0  0  0  0  0
  194.5530  174.2710  143.4820 C   0  0  0  0  0  3  0  0  0  0  0  0
  1  2  1  6  0  0  0
  1 41  1  0  0  0  0
  3  4  1  0  0  0  0
  3  1  1  0  0  0  0
  5  4  1  0  0  0  0
  6  8  1  6  0  0  0
  6  5  1  0  0  0  0
  6  9  1  0  0  0  0
  7  8  1  0  0  0  0
 10  9  1  1  0  0  0
 10 15  1  0  0  0  0
 11 10  1  0  0  0  0
 12 11  1  0  0  0  0
 13 12  1  0  0  0  0
 14 13  1  0  0  0  0
 16 15  1  0  0  0  0
 16 18  2  0  0  0  0
 17 16  1  0  0  0  0
 19 17  1  0  0  0  0
 20  1  1  0  0  0  0
 21 24  1  0  0  0  0
 21 20  1  0  0  0  0
 22 32  1  0  0  0  0
 22 26  1  0  0  0  0
 23 25  1  0  0  0  0
 23 27  2  0  0  0  0
 24 40  1  0  0  0  0
 25 22  2  0  0  0  0
 27 28  1  0  0  0  0
 28 26  2  0  0  0  0
 28 24  1  0  0  0  0
 29 32  2  0  0  0  0
 30 33  1  0  0  0  0
 30 34  1  0  0  0  0
 31 30  2  0  0  0  0
 32 33  1  0  0  0  0
 35 36  1  0  0  0  0
 35 34  1  0  0  0  0
 36 38  1  0  0  0  0
 37 38  1  0  0  0  0
 40 39  1  0  0  0  0
 41 42  1  0  0  0  0
 42 45  1  0  0  0  0
 43 47  1  0  0  0  0
 44 43  2  0  0  0  0
 45 43  1  0  0  0  0
 45 46  1  0  0  0  0
 48 50  2  0  0  0  0
 49 47  1  0  0  0  0
 50 49  2  0  0  0  0
 51 52  1  0  0  0  0
 52 48  1  0  0  0  0
 53 48  1  0  0  0  0
 54 58  1  0  0  0  0
 55 58  1  0  0  0  0
 56 59  1  6  0  0  0
 56 57  1  0  0  0  0
 56 54  1  0  0  0  0
 57 53  1  6  0  0  0
 57 55  1  0  0  0  0
 59 60  1  1  0  0  0
 59 63  1  0  0  0  0
 62 61  1  0  0  0  0
 62 63  2  0  0  0  0
M  END
>  <MODEL>
1

>  <REMARK>
 VINA RESULT:      -4.9      0.000      0.000
  Name = 
  31 active torsions:
  status: ('A' for Active; 'I' for Inactive)
    1  A    between atoms: C_1  and  N_12
    2  A    between atoms: C_1  and  C_22
    3  A    between atoms: C_2  and  C_22
    4  A    between atoms: C_2  and  C_35
    5  A    between atoms: C_2  and  C_44
    6  A    between atoms: C_3  and  N_37
    7  A    between atoms: C_3  and  O_40
    8  A    between atoms: C_5  and  O_42
    9  A    between atoms: O_7  and  C_18
   10  A    between atoms: O_7  and  C_20
   11  A    between atoms: C_9  and  C_36
   12  A    between atoms: N_10  and  C_33
   13  A    between atoms: N_10  and  C_44
   14  A    between atoms: C_13  and  C_29
   15  A    between atoms: C_13  and  C_54
   16  A    between atoms: C_15  and  C_39
   17  A    between atoms: N_17  and  C_35
   18  A    between atoms: N_17  and  N_48
   19  A    between atoms: C_18  and  C_36
   20  A    between atoms: C_18  and  C_57
   21  A    between atoms: C_19  and  N_48
   22  A    between atoms: C_20  and  C_47
   23  A    between atoms: C_24  and  C_46
   24  A    between atoms: C_29  and  C_31
   25  A    between atoms: C_30  and  O_42
   26  A    between atoms: C_33  and  C_53
   27  A    between atoms: N_37  and  C_51
   28  A    between atoms: C_38  and  C_39
   29  A    between atoms: C_45  and  C_53
   30  A    between atoms: C_53  and  C_57
   31  A    between atoms: C_54  and  S_55
                            x       y       z     vdW  Elec       q    Type
                         _______ _______ _______ _____ _____    ______ ____

>  <TORSDO>
F 31

$$$$
=
 OpenBabel11042415263D

 63 64  0  0  1  0  0  0  0  0999 V2000
  192.9890  171.8120  143.8250 C   0  0  1  0  0  0  0  0  0  0  0  0
  193.7570  171.1130  144.9420 C   0  0  0  0  0  1  0  0  0  0  0  0
  193.9760  172.3690  142.8000 C   0  0  0  0  0  2  0  0  0  0  0  0
  194.8260  171.3230  142.2450 N   0  0  0  0  0  2  0  0  0  0  0  0
  195.7610  171.9850  141.3450 C   0  0  0  0  0  2  0  0  0  0  0  0
  197.1640  172.0060  141.9380 C   0  0  1  0  0  3  0  0  0  0  0  0
  197.5320  170.3190  140.2900 O   0  0  0  0  0  1  0  0  0  0  0  0
  197.9410  170.7580  141.5490 C   0  0  0  0  0  2  0  0  0  0  0  0
  197.9140  173.2660  141.5210 C   0  0  0  0  0  2  0  0  0  0  0  0
  197.9400  174.2690  142.6660 C   0  0  2  0  0  3  0  0  0  0  0  0
  197.0100  173.9100  143.6450 O   0  0  0  0  0  0  0  0  0  0  0  0
  197.7540  173.2280  144.6090 C   0  0  0  0  0  2  0  0  0  0  0  0
  197.0320  173.2670  145.9450 C   0  0  0  0  0  2  0  0  0  0  0  0
  195.9020  174.2800  145.9060 C   0  0  0  0  0  1  0  0  0  0  0  0
  197.6930  175.7000  142.1690 C   0  0  0  0  0  2  0  0  0  0  0  0
  196.3500  176.2620  142.5480 C   0  0  0  0  0  0  0  0  0  0  0  0
  195.2280  176.1190  141.6740 N   0  0  0  0  0  2  0  0  0  0  0  0
  196.1850  176.8070  143.6720 O   0  0  0  0  0  0  0  0  0  0  0  0
  195.3200  175.4570  140.3830 C   0  0  0  0  0  1  0  0  0  0  0  0
  192.0390  170.8090  143.1650 C   0  0  0  0  0  2  0  0  0  0  0  0
  190.9770  171.4920  142.4290 N   0  0  0  0  0  2  0  0  0  0  0  0
  190.0840  172.6870  137.7650 C   0  0  0  0  0  0  0  0  0  0  0  0
  189.1720  173.9870  139.5870 C   0  0  0  0  0  3  0  0  0  0  0  0
  191.1990  171.2800  141.0570 N   0  0  0  0  0  0  0  0  0  0  0  0
  189.3020  173.7570  138.2140 C   0  0  0  0  0  3  0  0  0  0  0  0
  190.7300  171.8800  138.7060 C   0  0  0  0  0  3  0  0  0  0  0  0
  189.8050  173.1780  140.4780 N   0  0  0  0  0  0  0  0  0  0  0  0
  190.5750  172.1300  140.0770 C   0  0  0  0  0  0  0  0  0  0  0  0
  189.2500  172.2730  135.5940 O   0  0  0  0  0  0  0  0  0  0  0  0
  192.7230  173.0530  136.1020 C   0  0  0  0  0  0  0  0  0  0  0  0
  192.6290  174.0370  136.8830 O   0  0  0  0  0  0  0  0  0  0  0  0
  190.2650  172.4260  136.3230 C   0  0  0  0  0  0  0  0  0  0  0  0
  191.5630  172.3040  135.7260 N   0  0  0  0  0  2  0  0  0  0  0  0
  194.0430  172.7180  135.4960 C   0  0  0  0  0  2  0  0  0  0  0  0
  194.8620  173.9770  135.2590 C   0  0  0  0  0  2  0  0  0  0  0  0
  196.0750  173.9960  136.1700 C   0  0  0  0  0  2  0  0  0  0  0  0
  197.1620  175.7400  134.5130 C   0  0  0  0  0  1  0  0  0  0  0  0
  196.7500  175.6810  136.2830 S   0  0  0  0  0  0  0  0  0  0  0  0
  191.1560  169.0410  140.3810 O   0  0  0  0  0  1  0  0  0  0  0  0
  191.9920  170.1210  140.6610 C   0  0  0  0  0  2  0  0  0  0  0  0
  192.2250  173.0000  144.4090 C   0  0  0  0  0  2  0  0  0  0  0  0
  192.7820  174.3550  143.9810 C   0  0  0  0  0  2  0  0  0  0  0  0
  190.8940  175.2660  145.3590 C   0  0  0  0  0  0  0  0  0  0  0  0
  190.0910  174.4290  144.8550 O   0  0  0  0  0  0  0  0  0  0  0  0
  192.2210  175.3910  144.8360 N   0  0  0  0  0  0  0  0  0  0  0  0
  193.0310  176.3680  145.3050 O   0  0  0  0  0  1  0  0  0  0  0  0
  190.5130  176.0410  146.4560 O   0  0  0  0  0  0  0  0  0  0  0  0
  187.2900  177.3570  145.9740 C   0  0  0  0  0  0  0  0  0  0  0  0
  189.2370  175.9560  147.0010 C   0  0  0  0  0  3  0  0  0  0  0  0
  188.2590  176.6440  146.4850 C   0  0  0  0  0  0  0  0  0  0  0  0
  185.6930  177.3320  147.8770 C   0  0  0  0  0  1  0  0  0  0  0  0
  185.9860  177.2910  146.4840 O   0  0  0  0  0  0  0  0  0  0  0  0
  187.5770  178.2050  144.8640 N   0  0  0  0  0  2  0  0  0  0  0  0
  186.3670  176.8800  141.7030 N   0  0  0  0  0  2  0  0  0  0  0  0
  187.8080  176.1870  143.5170 C   0  0  0  0  0  2  0  0  0  0  0  0
  186.5650  178.0150  142.6020 C   0  0  2  0  0  3  0  0  0  0  0  0
  187.7460  177.6890  143.5110 C   0  0  1  0  0  3  0  0  0  0  0  0
  187.2260  175.7930  142.1780 C   0  0  0  0  0  2  0  0  0  0  0  0
  185.2550  178.3700  143.3270 C   0  0  1  0  0  3  0  0  0  0  0  0
  185.1660  179.7500  143.5000 O   0  0  0  0  0  1  0  0  0  0  0  0
  182.1440  178.1500  141.0980 C   0  0  0  0  0  1  0  0  0  0  0  0
  183.3500  178.6660  141.8000 C   0  0  0  0  0  3  0  0  0  0  0  0
  184.0400  177.8650  142.6090 C   0  0  0  0  0  3  0  0  0  0  0  0
  1 41  1  0  0  0  0
  1  2  1  1  0  0  0
  3  1  1  0  0  0  0
  4  3  1  0  0  0  0
  5  4  1  0  0  0  0
  6  5  1  6  0  0  0
  7  8  1  0  0  0  0
  8  6  1  0  0  0  0
  9  6  1  0  0  0  0
 10  9  1  6  0  0  0
 10 11  1  0  0  0  0
 11 12  1  0  0  0  0
 12 13  1  0  0  0  0
 14 13  1  0  0  0  0
 15 16  1  0  0  0  0
 15 10  1  0  0  0  0
 16 18  2  0  0  0  0
 17 16  1  0  0  0  0
 19 17  1  0  0  0  0
 20  1  1  0  0  0  0
 21 20  1  0  0  0  0
 22 25  2  0  0  0  0
 22 26  1  0  0  0  0
 23 27  2  0  0  0  0
 24 21  1  0  0  0  0
 25 23  1  0  0  0  0
 26 28  2  0  0  0  0
 28 27  1  0  0  0  0
 28 24  1  0  0  0  0
 29 32  2  0  0  0  0
 30 31  2  0  0  0  0
 32 22  1  0  0  0  0
 33 30  1  0  0  0  0
 33 32  1  0  0  0  0
 34 30  1  0  0  0  0
 35 34  1  0  0  0  0
 35 36  1  0  0  0  0
 36 38  1  0  0  0  0
 37 38  1  0  0  0  0
 39 40  1  0  0  0  0
 40 24  1  0  0  0  0
 42 41  1  0  0  0  0
 42 45  1  0  0  0  0
 43 47  1  0  0  0  0
 44 43  2  0  0  0  0
 45 46  1  0  0  0  0
 45 43  1  0  0  0  0
 47 49  1  0  0  0  0
 48 52  1  0  0  0  0
 48 50  2  0  0  0  0
 50 49  2  0  0  0  0
 52 51  1  0  0  0  0
 53 48  1  0  0  0  0
 54 58  1  0  0  0  0
 54 56  1  0  0  0  0
 56 59  1  1  0  0  0
 56 57  1  0  0  0  0
 57 55  1  0  0  0  0
 57 53  1  1  0  0  0
 58 55  1  0  0  0  0
 59 60  1  6  0  0  0
 61 62  1  0  0  0  0
 62 63  2  0  0  0  0
 63 59  1  0  0  0  0
M  END
>  <MODEL>
2

>  <REMARK>
 VINA RESULT:      -4.9      3.109     10.778
  Name = 
  31 active torsions:
  status: ('A' for Active; 'I' for Inactive)
    1  A    between atoms: C_1  and  N_12
    2  A    between atoms: C_1  and  C_22
    3  A    between atoms: C_2  and  C_22
    4  A    between atoms: C_2  and  C_35
    5  A    between atoms: C_2  and  C_44
    6  A    between atoms: C_3  and  N_37
    7  A    between atoms: C_3  and  O_40
    8  A    between atoms: C_5  and  O_42
    9  A    between atoms: O_7  and  C_18
   10  A    between atoms: O_7  and  C_20
   11  A    between atoms: C_9  and  C_36
   12  A    between atoms: N_10  and  C_33
   13  A    between atoms: N_10  and  C_44
   14  A    between atoms: C_13  and  C_29
   15  A    between atoms: C_13  and  C_54
   16  A    between atoms: C_15  and  C_39
   17  A    between atoms: N_17  and  C_35
   18  A    between atoms: N_17  and  N_48
   19  A    between atoms: C_18  and  C_36
   20  A    between atoms: C_18  and  C_57
   21  A    between atoms: C_19  and  N_48
   22  A    between atoms: C_20  and  C_47
   23  A    between atoms: C_24  and  C_46
   24  A    between atoms: C_29  and  C_31
   25  A    between atoms: C_30  and  O_42
   26  A    between atoms: C_33  and  C_53
   27  A    between atoms: N_37  and  C_51
   28  A    between atoms: C_38  and  C_39
   29  A    between atoms: C_45  and  C_53
   30  A    between atoms: C_53  and  C_57
   31  A    between atoms: C_54  and  S_55
                            x       y       z     vdW  Elec       q    Type
                         _______ _______ _______ _____ _____    ______ ____

>  <TORSDO>
F 31

$$$$
=
 OpenBabel11042415263D

 63 64  0  0  1  0  0  0  0  0999 V2000
  192.3770  171.7440  143.2780 C   0  0  1  0  0  0  0  0  0  0  0  0
  193.6340  170.9790  143.6750 C   0  0  0  0  0  1  0  0  0  0  0  0
  192.7250  172.7720  142.2010 C   0  0  0  0  0  2  0  0  0  0  0  0
  193.7660  172.2840  141.3060 N   0  0  0  0  0  2  0  0  0  0  0  0
  194.1540  173.4120  140.4710 C   0  0  0  0  0  2  0  0  0  0  0  0
  195.6570  173.6500  140.5410 C   0  0  1  0  0  3  0  0  0  0  0  0
  196.9060  173.9470  138.5280 O   0  0  0  0  0  1  0  0  0  0  0  0
  196.1090  174.6160  139.4570 C   0  0  0  0  0  2  0  0  0  0  0  0
  196.0670  174.1510  141.9220 C   0  0  0  0  0  2  0  0  0  0  0  0
  196.8820  173.0890  142.6480 C   0  0  2  0  0  3  0  0  0  0  0  0
  197.9380  173.6820  143.3450 O   0  0  0  0  0  0  0  0  0  0  0  0
  197.3230  174.5060  144.2890 C   0  0  0  0  0  2  0  0  0  0  0  0
  196.4170  173.6800  145.1860 C   0  0  0  0  0  2  0  0  0  0  0  0
  197.0490  173.4970  146.5530 C   0  0  0  0  0  1  0  0  0  0  0  0
  197.3920  172.0100  141.6840 C   0  0  0  0  0  2  0  0  0  0  0  0
  197.0010  170.6080  142.0650 C   0  0  0  0  0  0  0  0  0  0  0  0
  196.4970  169.7000  141.0830 N   0  0  0  0  0  2  0  0  0  0  0  0
  197.1770  170.1990  143.2440 O   0  0  0  0  0  0  0  0  0  0  0  0
  196.3130  170.0760  139.6910 C   0  0  0  0  0  1  0  0  0  0  0  0
  191.3300  170.7550  142.7580 C   0  0  0  0  0  2  0  0  0  0  0  0
  190.3330  171.4300  141.9290 N   0  0  0  0  0  2  0  0  0  0  0  0
  189.6970  172.3110  137.1540 C   0  0  0  0  0  0  0  0  0  0  0  0
  188.8020  173.8030  138.8320 C   0  0  0  0  0  3  0  0  0  0  0  0
  190.5920  171.0980  140.5870 N   0  0  0  0  0  0  0  0  0  0  0  0
  188.9700  173.4590  137.4870 C   0  0  0  0  0  3  0  0  0  0  0  0
  190.2530  171.5410  138.1800 C   0  0  0  0  0  3  0  0  0  0  0  0
  189.3480  173.0280  139.8070 N   0  0  0  0  0  0  0  0  0  0  0  0
  190.0620  171.9060  139.5200 C   0  0  0  0  0  0  0  0  0  0  0  0
  188.9290  171.5870  135.0400 O   0  0  0  0  0  0  0  0  0  0  0  0
  192.2870  172.8050  135.4470 C   0  0  0  0  0  0  0  0  0  0  0  0
  192.0770  173.8460  136.1250 O   0  0  0  0  0  0  0  0  0  0  0  0
  189.9160  171.9280  135.7440 C   0  0  0  0  0  0  0  0  0  0  0  0
  191.2230  171.8950  135.1550 N   0  0  0  0  0  2  0  0  0  0  0  0
  193.6410  172.5640  134.8710 C   0  0  0  0  0  2  0  0  0  0  0  0
  194.7170  173.1940  135.7400 C   0  0  0  0  0  2  0  0  0  0  0  0
  195.9660  173.4620  134.9230 C   0  0  0  0  0  2  0  0  0  0  0  0
  195.3400  175.7440  136.0930 C   0  0  0  0  0  1  0  0  0  0  0  0
  196.0830  175.2310  134.5140 S   0  0  0  0  0  0  0  0  0  0  0  0
  190.4580  168.8990  139.8040 O   0  0  0  0  0  1  0  0  0  0  0  0
  191.3230  169.8650  140.3130 C   0  0  0  0  0  2  0  0  0  0  0  0
  191.8570  172.5180  144.4900 C   0  0  0  0  0  2  0  0  0  0  0  0
  192.0200  174.0300  144.3660 C   0  0  0  0  0  2  0  0  0  0  0  0
  190.1840  174.3960  146.0350 C   0  0  0  0  0  0  0  0  0  0  0  0
  189.3400  173.8620  145.2590 O   0  0  0  0  0  0  0  0  0  0  0  0
  191.5130  174.6640  145.5740 N   0  0  0  0  0  0  0  0  0  0  0  0
  192.3700  175.3390  146.3730 O   0  0  0  0  0  1  0  0  0  0  0  0
  189.8450  174.6860  147.3580 O   0  0  0  0  0  0  0  0  0  0  0  0
  187.2120  176.7550  146.2910 C   0  0  0  0  0  0  0  0  0  0  0  0
  188.5470  175.0280  147.7200 C   0  0  0  0  0  3  0  0  0  0  0  0
  187.8720  175.8810  147.0040 C   0  0  0  0  0  0  0  0  0  0  0  0
  185.2190  178.2100  145.9980 C   0  0  0  0  0  1  0  0  0  0  0  0
  185.8970  177.1180  146.6120 O   0  0  0  0  0  0  0  0  0  0  0  0
  187.8510  177.3330  145.1540 N   0  0  0  0  0  2  0  0  0  0  0  0
  189.1330  176.8370  141.7890 N   0  0  0  0  0  2  0  0  0  0  0  0
  187.0210  177.3200  142.8630 C   0  0  0  0  0  2  0  0  0  0  0  0
  189.3060  176.7180  143.2360 C   0  0  2  0  0  3  0  0  0  0  0  0
  187.9180  176.6530  143.8670 C   0  0  1  0  0  3  0  0  0  0  0  0
  187.7100  177.0760  141.5390 C   0  0  0  0  0  2  0  0  0  0  0  0
  190.2200  177.8350  143.7700 C   0  0  1  0  0  3  0  0  0  0  0  0
  190.3440  177.7270  145.1540 O   0  0  0  0  0  1  0  0  0  0  0  0
  193.4820  176.6910  142.1130 C   0  0  0  0  0  1  0  0  0  0  0  0
  192.1330  176.6820  142.7410 C   0  0  0  0  0  3  0  0  0  0  0  0
  191.5760  177.8260  143.1320 C   0  0  0  0  0  3  0  0  0  0  0  0
  1  2  1  1  0  0  0
  1 41  1  0  0  0  0
  3  1  1  0  0  0  0
  4  3  1  0  0  0  0
  5  6  1  0  0  0  0
  5  4  1  0  0  0  0
  6  8  1  6  0  0  0
  6  9  1  0  0  0  0
  7  8  1  0  0  0  0
  9 10  1  0  0  0  0
 10 15  1  6  0  0  0
 10 11  1  0  0  0  0
 11 12  1  0  0  0  0
 12 13  1  0  0  0  0
 13 14  1  0  0  0  0
 15 16  1  0  0  0  0
 16 18  2  0  0  0  0
 17 16  1  0  0  0  0
 19 17  1  0  0  0  0
 20  1  1  0  0  0  0
 21 20  1  0  0  0  0
 22 25  2  0  0  0  0
 22 26  1  0  0  0  0
 23 27  2  0  0  0  0
 24 21  1  0  0  0  0
 25 23  1  0  0  0  0
 26 28  2  0  0  0  0
 28 27  1  0  0  0  0
 28 24  1  0  0  0  0
 29 32  2  0  0  0  0
 30 31  2  0  0  0  0
 32 22  1  0  0  0  0
 33 30  1  0  0  0  0
 33 32  1  0  0  0  0
 34 30  1  0  0  0  0
 34 35  1  0  0  0  0
 36 35  1  0  0  0  0
 38 36  1  0  0  0  0
 38 37  1  0  0  0  0
 39 40  1  0  0  0  0
 40 24  1  0  0  0  0
 42 41  1  0  0  0  0
 42 45  1  0  0  0  0
 43 47  1  0  0  0  0
 44 43  2  0  0  0  0
 45 43  1  0  0  0  0
 45 46  1  0  0  0  0
 47 49  1  0  0  0  0
 48 52  1  0  0  0  0
 48 50  2  0  0  0  0
 50 49  2  0  0  0  0
 51 52  1  0  0  0  0
 53 48  1  0  0  0  0
 54 56  1  0  0  0  0
 55 57  1  0  0  0  0
 56 59  1  1  0  0  0
 56 57  1  0  0  0  0
 57 53  1  1  0  0  0
 58 54  1  0  0  0  0
 58 55  1  0  0  0  0
 59 60  1  1  0  0  0
 61 62  1  0  0  0  0
 62 63  2  0  0  0  0
 63 59  1  0  0  0  0
M  END
>  <MODEL>
3

>  <REMARK>
 VINA RESULT:      -4.6      4.562     10.215
  Name = 
  31 active torsions:
  status: ('A' for Active; 'I' for Inactive)
    1  A    between atoms: C_1  and  N_12
    2  A    between atoms: C_1  and  C_22
    3  A    between atoms: C_2  and  C_22
    4  A    between atoms: C_2  and  C_35
    5  A    between atoms: C_2  and  C_44
    6  A    between atoms: C_3  and  N_37
    7  A    between atoms: C_3  and  O_40
    8  A    between atoms: C_5  and  O_42
    9  A    between atoms: O_7  and  C_18
   10  A    between atoms: O_7  and  C_20
   11  A    between atoms: C_9  and  C_36
   12  A    between atoms: N_10  and  C_33
   13  A    between atoms: N_10  and  C_44
   14  A    between atoms: C_13  and  C_29
   15  A    between atoms: C_13  and  C_54
   16  A    between atoms: C_15  and  C_39
   17  A    between atoms: N_17  and  C_35
   18  A    between atoms: N_17  and  N_48
   19  A    between atoms: C_18  and  C_36
   20  A    between atoms: C_18  and  C_57
   21  A    between atoms: C_19  and  N_48
   22  A    between atoms: C_20  and  C_47
   23  A    between atoms: C_24  and  C_46
   24  A    between atoms: C_29  and  C_31
   25  A    between atoms: C_30  and  O_42
   26  A    between atoms: C_33  and  C_53
   27  A    between atoms: N_37  and  C_51
   28  A    between atoms: C_38  and  C_39
   29  A    between atoms: C_45  and  C_53
   30  A    between atoms: C_53  and  C_57
   31  A    between atoms: C_54  and  S_55
                            x       y       z     vdW  Elec       q    Type
                         _______ _______ _______ _____ _____    ______ ____

>  <TORSDO>
F 31

$$$$
=
 OpenBabel11042415263D

 63 64  0  0  1  0  0  0  0  0999 V2000
  191.8450  171.0300  142.7030 C   0  0  1  0  0  0  0  0  0  0  0  0
  190.9020  170.0630  141.9950 C   0  0  0  0  0  1  0  0  0  0  0  0
  193.0940  170.2780  143.1610 C   0  0  0  0  0  2  0  0  0  0  0  0
  193.3790  170.5120  144.5710 N   0  0  0  0  0  2  0  0  0  0  0  0
  194.5310  171.4020  144.6170 C   0  0  0  0  0  2  0  0  0  0  0  0
  195.6740  170.7710  145.4030 C   0  0  1  0  0  3  0  0  0  0  0  0
  196.5080  168.6050  145.9630 O   0  0  0  0  0  1  0  0  0  0  0  0
  195.3350  169.3460  145.8120 C   0  0  0  0  0  2  0  0  0  0  0  0
  196.9730  170.8130  144.6050 C   0  0  0  0  0  2  0  0  0  0  0  0
  196.9430  171.9640  143.6080 C   0  0  2  0  0  3  0  0  0  0  0  0
  197.5810  171.5930  142.4220 O   0  0  0  0  0  0  0  0  0  0  0  0
  197.1030  170.3110  142.1470 C   0  0  0  0  0  2  0  0  0  0  0  0
  196.9430  170.1270  140.6480 C   0  0  0  0  0  2  0  0  0  0  0  0
  197.7240  171.1920  139.8990 C   0  0  0  0  0  1  0  0  0  0  0  0
  197.5660  173.2380  144.1960 C   0  0  0  0  0  2  0  0  0  0  0  0
  196.8520  174.5060  143.8140 C   0  0  0  0  0  0  0  0  0  0  0  0
  195.9850  175.1620  144.7420 N   0  0  0  0  0  2  0  0  0  0  0  0
  197.0640  175.0390  142.6920 O   0  0  0  0  0  0  0  0  0  0  0  0
  195.7280  174.6410  146.0750 C   0  0  0  0  0  1  0  0  0  0  0  0
  192.2210  172.1580  141.7390 C   0  0  0  0  0  2  0  0  0  0  0  0
  193.6670  172.2110  141.5270 N   0  0  0  0  0  2  0  0  0  0  0  0
  194.8210  172.6730  136.7900 C   0  0  0  0  0  0  0  0  0  0  0  0
  194.4670  170.4990  137.7860 C   0  0  0  0  0  3  0  0  0  0  0  0
  193.9080  173.0300  140.4100 N   0  0  0  0  0  0  0  0  0  0  0  0
  194.7940  171.2800  136.6730 C   0  0  0  0  0  3  0  0  0  0  0  0
  194.5070  173.2540  138.0230 C   0  0  0  0  0  3  0  0  0  0  0  0
  194.1760  171.0940  138.9740 N   0  0  0  0  0  0  0  0  0  0  0  0
  194.1910  172.4460  139.1250 C   0  0  0  0  0  0  0  0  0  0  0  0
  196.2920  173.4840  135.1290 O   0  0  0  0  0  0  0  0  0  0  0  0
  192.7760  174.2230  134.9800 C   0  0  0  0  0  0  0  0  0  0  0  0
  192.2890  173.0850  135.2120 O   0  0  0  0  0  0  0  0  0  0  0  0
  195.1380  173.5320  135.6310 C   0  0  0  0  0  0  0  0  0  0  0  0
  194.1860  174.4490  135.0770 N   0  0  0  0  0  2  0  0  0  0  0  0
  191.8840  175.3250  134.5160 C   0  0  0  0  0  2  0  0  0  0  0  0
  190.4420  175.0510  134.9070 C   0  0  0  0  0  2  0  0  0  0  0  0
  190.2890  175.0740  136.4160 C   0  0  0  0  0  2  0  0  0  0  0  0
  190.0720  173.3540  138.4070 C   0  0  0  0  0  1  0  0  0  0  0  0
  189.0890  173.8140  136.9470 S   0  0  0  0  0  0  0  0  0  0  0  0
  192.7860  174.9170  141.2160 O   0  0  0  0  0  1  0  0  0  0  0  0
  193.9630  174.4740  140.6160 C   0  0  0  0  0  2  0  0  0  0  0  0
  191.1580  171.5740  143.9550 C   0  0  0  0  0  2  0  0  0  0  0  0
  191.3660  173.0720  144.1630 C   0  0  0  0  0  2  0  0  0  0  0  0
  189.8360  174.5080  145.5380 C   0  0  0  0  0  0  0  0  0  0  0  0
  190.6170  174.4330  146.5300 O   0  0  0  0  0  0  0  0  0  0  0  0
  190.0730  173.7060  144.3760 N   0  0  0  0  0  0  0  0  0  0  0  0
  189.1680  173.7080  143.3710 O   0  0  0  0  0  1  0  0  0  0  0  0
  188.7650  175.4040  145.5470 O   0  0  0  0  0  0  0  0  0  0  0  0
  186.6280  177.9730  146.6350 C   0  0  0  0  0  0  0  0  0  0  0  0
  188.2980  175.9720  146.7280 C   0  0  0  0  0  3  0  0  0  0  0  0
  187.4560  176.9630  146.6870 C   0  0  0  0  0  0  0  0  0  0  0  0
  186.9080  179.3900  148.6570 C   0  0  0  0  0  1  0  0  0  0  0  0
  186.1230  178.5660  147.8000 O   0  0  0  0  0  0  0  0  0  0  0  0
  186.2260  178.4630  145.3570 N   0  0  0  0  0  2  0  0  0  0  0  0
  184.0120  177.9760  142.5170 N   0  0  0  0  0  2  0  0  0  0  0  0
  184.0600  179.2530  144.5690 C   0  0  0  0  0  2  0  0  0  0  0  0
  185.1610  177.5430  143.3100 C   0  0  2  0  0  3  0  0  0  0  0  0
  184.9710  178.0690  144.7300 C   0  0  1  0  0  3  0  0  0  0  0  0
  183.2540  178.9280  143.3320 C   0  0  0  0  0  2  0  0  0  0  0  0
  186.4780  177.9490  142.6270 C   0  0  1  0  0  3  0  0  0  0  0  0
  187.4940  177.0680  142.9910 O   0  0  0  0  0  1  0  0  0  0  0  0
  186.7490  177.1130  138.8960 C   0  0  0  0  0  1  0  0  0  0  0  0
  186.8690  177.0370  140.3770 C   0  0  0  0  0  3  0  0  0  0  0  0
  186.3620  178.0080  141.1340 C   0  0  0  0  0  3  0  0  0  0  0  0
  1  2  1  6  0  0  0
  1  3  1  0  0  0  0
  1 41  1  0  0  0  0
  3  4  1  0  0  0  0
  4  5  1  0  0  0  0
  5  6  1  0  0  0  0
  6  9  1  6  0  0  0
  6  8  1  0  0  0  0
  8  7  1  0  0  0  0
 10 15  1  1  0  0  0
 10  9  1  0  0  0  0
 11 10  1  0  0  0  0
 12 11  1  0  0  0  0
 13 12  1  0  0  0  0
 14 13  1  0  0  0  0
 16 15  1  0  0  0  0
 16 17  1  0  0  0  0
 17 19  1  0  0  0  0
 18 16  2  0  0  0  0
 20  1  1  0  0  0  0
 21 20  1  0  0  0  0
 22 26  1  0  0  0  0
 23 27  2  0  0  0  0
 24 40  1  0  0  0  0
 24 21  1  0  0  0  0
 25 22  2  0  0  0  0
 25 23  1  0  0  0  0
 26 28  2  0  0  0  0
 27 28  1  0  0  0  0
 28 24  1  0  0  0  0
 29 32  2  0  0  0  0
 30 33  1  0  0  0  0
 30 31  2  0  0  0  0
 32 22  1  0  0  0  0
 33 32  1  0  0  0  0
 34 35  1  0  0  0  0
 34 30  1  0  0  0  0
 35 36  1  0  0  0  0
 36 38  1  0  0  0  0
 38 37  1  0  0  0  0
 40 39  1  0  0  0  0
 41 42  1  0  0  0  0
 42 45  1  0  0  0  0
 43 47  1  0  0  0  0
 43 44  2  0  0  0  0
 45 43  1  0  0  0  0
 46 45  1  0  0  0  0
 47 49  1  0  0  0  0
 48 50  2  0  0  0  0
 48 52  1  0  0  0  0
 50 49  2  0  0  0  0
 52 51  1  0  0  0  0
 53 48  1  0  0  0  0
 54 56  1  0  0  0  0
 54 58  1  0  0  0  0
 55 57  1  0  0  0  0
 56 59  1  6  0  0  0
 56 57  1  0  0  0  0
 57 53  1  6  0  0  0
 58 55  1  0  0  0  0
 59 60  1  6  0  0  0
 61 62  1  0  0  0  0
 62 63  2  0  0  0  0
 63 59  1  0  0  0  0
M  END
>  <MODEL>
4

>  <REMARK>
 VINA RESULT:      -4.5      3.755     11.293
  Name = 
  31 active torsions:
  status: ('A' for Active; 'I' for Inactive)
    1  A    between atoms: C_1  and  N_12
    2  A    between atoms: C_1  and  C_22
    3  A    between atoms: C_2  and  C_22
    4  A    between atoms: C_2  and  C_35
    5  A    between atoms: C_2  and  C_44
    6  A    between atoms: C_3  and  N_37
    7  A    between atoms: C_3  and  O_40
    8  A    between atoms: C_5  and  O_42
    9  A    between atoms: O_7  and  C_18
   10  A    between atoms: O_7  and  C_20
   11  A    between atoms: C_9  and  C_36
   12  A    between atoms: N_10  and  C_33
   13  A    between atoms: N_10  and  C_44
   14  A    between atoms: C_13  and  C_29
   15  A    between atoms: C_13  and  C_54
   16  A    between atoms: C_15  and  C_39
   17  A    between atoms: N_17  and  C_35
   18  A    between atoms: N_17  and  N_48
   19  A    between atoms: C_18  and  C_36
   20  A    between atoms: C_18  and  C_57
   21  A    between atoms: C_19  and  N_48
   22  A    between atoms: C_20  and  C_47
   23  A    between atoms: C_24  and  C_46
   24  A    between atoms: C_29  and  C_31
   25  A    between atoms: C_30  and  O_42
   26  A    between atoms: C_33  and  C_53
   27  A    between atoms: N_37  and  C_51
   28  A    between atoms: C_38  and  C_39
   29  A    between atoms: C_45  and  C_53
   30  A    between atoms: C_53  and  C_57
   31  A    between atoms: C_54  and  S_55
                            x       y       z     vdW  Elec       q    Type
                         _______ _______ _______ _____ _____    ______ ____

>  <TORSDO>
F 31

$$$$
=
 OpenBabel11042415263D

 63 64  0  0  1  0  0  0  0  0999 V2000
  187.0030  177.3030  142.3410 C   0  0  1  0  0  0  0  0  0  0  0  0
  187.4780  178.7350  142.1210 C   0  0  0  0  0  1  0  0  0  0  0  0
  185.5110  177.2080  142.0220 C   0  0  0  0  0  2  0  0  0  0  0  0
  185.0100  178.4310  141.4110 N   0  0  0  0  0  2  0  0  0  0  0  0
  183.5610  178.3010  141.3530 C   0  0  0  0  0  2  0  0  0  0  0  0
  182.9460  178.4450  142.7390 C   0  0  1  0  0  3  0  0  0  0  0  0
  183.9850  178.5420  144.8860 O   0  0  0  0  0  1  0  0  0  0  0  0
  183.8700  179.2150  143.6700 C   0  0  0  0  0  2  0  0  0  0  0  0
  181.5760  179.1100  142.6620 C   0  0  0  0  0  2  0  0  0  0  0  0
  180.9360  178.8460  141.3050 C   0  0  2  0  0  3  0  0  0  0  0  0
  180.6700  180.0530  140.6530 O   0  0  0  0  0  0  0  0  0  0  0  0
  179.4810  179.8270  139.9570 C   0  0  0  0  0  2  0  0  0  0  0  0
  178.6280  181.0830  139.9660 C   0  0  0  0  0  2  0  0  0  0  0  0
  179.4160  182.2610  139.4240 C   0  0  0  0  0  1  0  0  0  0  0  0
  179.6650  177.9970  141.4350 C   0  0  0  0  0  2  0  0  0  0  0  0
  178.8910  178.2360  142.7030 C   0  0  0  0  0  0  0  0  0  0  0  0
  177.9600  177.2630  143.1830 N   0  0  0  0  0  2  0  0  0  0  0  0
  179.1060  179.2690  143.3910 O   0  0  0  0  0  0  0  0  0  0  0  0
  177.6930  176.0210  142.4770 C   0  0  0  0  0  1  0  0  0  0  0  0
  187.8060  176.3640  141.4380 C   0  0  0  0  0  2  0  0  0  0  0  0
  187.6650  174.9730  141.8650 N   0  0  0  0  0  2  0  0  0  0  0  0
  190.4950  172.8630  138.4700 C   0  0  0  0  0  0  0  0  0  0  0  0
  188.4630  174.0230  137.8610 C   0  0  0  0  0  3  0  0  0  0  0  0
  188.8470  174.2950  141.5190 N   0  0  0  0  0  0  0  0  0  0  0  0
  189.5870  173.2780  137.4900 C   0  0  0  0  0  3  0  0  0  0  0  0
  190.2620  173.2180  139.8020 C   0  0  0  0  0  3  0  0  0  0  0  0
  188.2590  174.3440  139.1670 N   0  0  0  0  0  0  0  0  0  0  0  0
  189.1220  173.9600  140.1460 C   0  0  0  0  0  0  0  0  0  0  0  0
  191.5810  170.9940  137.5180 O   0  0  0  0  0  0  0  0  0  0  0  0
  193.4570  173.9080  138.4730 C   0  0  0  0  0  0  0  0  0  0  0  0
  192.7350  174.8190  137.9880 O   0  0  0  0  0  0  0  0  0  0  0  0
  191.7060  172.0950  138.1140 C   0  0  0  0  0  0  0  0  0  0  0  0
  193.0230  172.5440  138.4570 N   0  0  0  0  0  2  0  0  0  0  0  0
  194.8140  174.2430  138.9930 C   0  0  0  0  0  2  0  0  0  0  0  0
  195.6280  174.9770  137.9400 C   0  0  0  0  0  2  0  0  0  0  0  0
  196.0460  174.0250  136.8370 C   0  0  0  0  0  2  0  0  0  0  0  0
  196.7730  175.9310  135.1620 C   0  0  0  0  0  1  0  0  0  0  0  0
  195.4860  174.6470  135.2210 S   0  0  0  0  0  0  0  0  0  0  0  0
  189.2740  174.3510  143.8180 O   0  0  0  0  0  1  0  0  0  0  0  0
  189.7280  173.8570  142.5970 C   0  0  0  0  0  2  0  0  0  0  0  0
  187.1750  176.9380  143.8160 C   0  0  0  0  0  2  0  0  0  0  0  0
  187.8740  178.0200  144.6350 C   0  0  0  0  0  2  0  0  0  0  0  0
  189.8080  177.0470  145.9010 C   0  0  0  0  0  0  0  0  0  0  0  0
  189.1260  177.0140  146.9660 O   0  0  0  0  0  0  0  0  0  0  0  0
  189.2900  177.6990  144.7370 N   0  0  0  0  0  0  0  0  0  0  0  0
  190.0740  177.8290  143.6420 O   0  0  0  0  0  1  0  0  0  0  0  0
  191.0480  176.4090  145.8350 O   0  0  0  0  0  0  0  0  0  0  0  0
  194.1760  175.3240  144.6570 C   0  0  0  0  0  0  0  0  0  0  0  0
  191.9600  176.6900  144.8240 C   0  0  0  0  0  3  0  0  0  0  0  0
  193.0620  176.0030  144.7290 C   0  0  0  0  0  0  0  0  0  0  0  0
  196.2840  176.3580  143.8420 C   0  0  0  0  0  1  0  0  0  0  0  0
  195.1160  175.5650  143.6460 O   0  0  0  0  0  0  0  0  0  0  0  0
  194.4210  174.3060  145.6260 N   0  0  0  0  0  2  0  0  0  0  0  0
  194.0380  170.8120  144.7000 N   0  0  0  0  0  2  0  0  0  0  0  0
  192.8670  172.9040  144.3780 C   0  0  0  0  0  2  0  0  0  0  0  0
  194.6730  171.8360  145.5270 C   0  0  2  0  0  3  0  0  0  0  0  0
  193.7220  173.0270  145.6070 C   0  0  1  0  0  3  0  0  0  0  0  0
  192.8510  171.4190  144.0920 C   0  0  0  0  0  2  0  0  0  0  0  0
  196.0870  172.1550  145.0090 C   0  0  1  0  0  3  0  0  0  0  0  0
  197.0240  171.9290  146.0150 O   0  0  0  0  0  1  0  0  0  0  0  0
  196.2450  170.8440  141.4110 C   0  0  0  0  0  1  0  0  0  0  0  0
  195.8800  171.6400  142.6140 C   0  0  0  0  0  3  0  0  0  0  0  0
  196.4460  171.3660  143.7870 C   0  0  0  0  0  3  0  0  0  0  0  0
  1  2  1  6  0  0  0
  1 41  1  0  0  0  0
  3  1  1  0  0  0  0
  4  3  1  0  0  0  0
  5  4  1  0  0  0  0
  6  5  1  6  0  0  0
  6  8  1  0  0  0  0
  8  7  1  0  0  0  0
  9  6  1  0  0  0  0
 10 15  1  1  0  0  0
 10  9  1  0  0  0  0
 11 10  1  0  0  0  0
 12 13  1  0  0  0  0
 12 11  1  0  0  0  0
 14 13  1  0  0  0  0
 15 16  1  0  0  0  0
 16 17  1  0  0  0  0
 16 18  2  0  0  0  0
 19 17  1  0  0  0  0
 20 21  1  0  0  0  0
 20  1  1  0  0  0  0
 22 26  1  0  0  0  0
 23 27  2  0  0  0  0
 24 21  1  0  0  0  0
 24 40  1  0  0  0  0
 25 23  1  0  0  0  0
 25 22  2  0  0  0  0
 26 28  2  0  0  0  0
 27 28  1  0  0  0  0
 28 24  1  0  0  0  0
 29 32  2  0  0  0  0
 30 34  1  0  0  0  0
 31 30  2  0  0  0  0
 32 33  1  0  0  0  0
 32 22  1  0  0  0  0
 33 30  1  0  0  0  0
 35 34  1  0  0  0  0
 36 35  1  0  0  0  0
 37 38  1  0  0  0  0
 38 36  1  0  0  0  0
 40 39  1  0  0  0  0
 41 42  1  0  0  0  0
 42 45  1  0  0  0  0
 43 44  2  0  0  0  0
 45 43  1  0  0  0  0
 46 45  1  0  0  0  0
 47 43  1  0  0  0  0
 48 50  2  0  0  0  0
 48 53  1  0  0  0  0
 49 47  1  0  0  0  0
 50 49  2  0  0  0  0
 52 51  1  0  0  0  0
 52 48  1  0  0  0  0
 54 56  1  0  0  0  0
 55 57  1  0  0  0  0
 56 59  1  6  0  0  0
 56 57  1  0  0  0  0
 57 53  1  6  0  0  0
 58 55  1  0  0  0  0
 58 54  1  0  0  0  0
 59 60  1  1  0  0  0
 61 62  1  0  0  0  0
 62 63  2  0  0  0  0
 63 59  1  0  0  0  0
M  END
>  <MODEL>
5

>  <REMARK>
 VINA RESULT:      -4.4      2.229      3.292
  Name = 
  31 active torsions:
  status: ('A' for Active; 'I' for Inactive)
    1  A    between atoms: C_1  and  N_12
    2  A    between atoms: C_1  and  C_22
    3  A    between atoms: C_2  and  C_22
    4  A    between atoms: C_2  and  C_35
    5  A    between atoms: C_2  and  C_44
    6  A    between atoms: C_3  and  N_37
    7  A    between atoms: C_3  and  O_40
    8  A    between atoms: C_5  and  O_42
    9  A    between atoms: O_7  and  C_18
   10  A    between atoms: O_7  and  C_20
   11  A    between atoms: C_9  and  C_36
   12  A    between atoms: N_10  and  C_33
   13  A    between atoms: N_10  and  C_44
   14  A    between atoms: C_13  and  C_29
   15  A    between atoms: C_13  and  C_54
   16  A    between atoms: C_15  and  C_39
   17  A    between atoms: N_17  and  C_35
   18  A    between atoms: N_17  and  N_48
   19  A    between atoms: C_18  and  C_36
   20  A    between atoms: C_18  and  C_57
   21  A    between atoms: C_19  and  N_48
   22  A    between atoms: C_20  and  C_47
   23  A    between atoms: C_24  and  C_46
   24  A    between atoms: C_29  and  C_31
   25  A    between atoms: C_30  and  O_42
   26  A    between atoms: C_33  and  C_53
   27  A    between atoms: N_37  and  C_51
   28  A    between atoms: C_38  and  C_39
   29  A    between atoms: C_45  and  C_53
   30  A    between atoms: C_53  and  C_57
   31  A    between atoms: C_54  and  S_55
                            x       y       z     vdW  Elec       q    Type
                         _______ _______ _______ _____ _____    ______ ____

>  <TORSDO>
F 31

$$$$
=
 OpenBabel11042415263D

 63 64  0  0  1  0  0  0  0  0999 V2000
  191.4460  174.9200  142.7420 C   0  0  1  0  0  0  0  0  0  0  0  0
  192.4900  174.7280  141.6480 C   0  0  0  0  0  1  0  0  0  0  0  0
  190.3600  175.8750  142.2470 C   0  0  0  0  0  2  0  0  0  0  0  0
  189.3860  176.1750  143.2890 N   0  0  0  0  0  2  0  0  0  0  0  0
  188.6950  177.3860  142.8720 C   0  0  0  0  0  2  0  0  0  0  0  0
  187.6460  177.7950  143.8980 C   0  0  1  0  0  3  0  0  0  0  0  0
  185.4480  177.0430  143.3450 O   0  0  0  0  0  1  0  0  0  0  0  0
  186.3220  178.1240  143.2260 C   0  0  0  0  0  2  0  0  0  0  0  0
  187.4630  176.7100  144.9540 C   0  0  0  0  0  2  0  0  0  0  0  0
  188.0010  177.1850  146.2980 C   0  0  2  0  0  3  0  0  0  0  0  0
  189.1330  176.4480  146.6550 O   0  0  0  0  0  0  0  0  0  0  0  0
  190.0950  177.4070  146.9750 C   0  0  0  0  0  2  0  0  0  0  0  0
  191.0530  176.8530  148.0160 C   0  0  0  0  0  2  0  0  0  0  0  0
  190.9100  175.3450  148.1150 C   0  0  0  0  0  1  0  0  0  0  0  0
  186.9270  177.1150  147.3930 C   0  0  0  0  0  2  0  0  0  0  0  0
  186.3960  178.4560  147.8210 C   0  0  0  0  0  0  0  0  0  0  0  0
  185.0920  178.8840  147.4200 N   0  0  0  0  0  2  0  0  0  0  0  0
  187.0700  179.1870  148.5940 O   0  0  0  0  0  0  0  0  0  0  0  0
  184.2290  178.0770  146.5730 C   0  0  0  0  0  1  0  0  0  0  0  0
  190.8410  173.5610  143.1030 C   0  0  0  0  0  2  0  0  0  0  0  0
  189.7020  173.2450  142.2440 N   0  0  0  0  0  2  0  0  0  0  0  0
  189.6890  172.3540  137.4280 C   0  0  0  0  0  0  0  0  0  0  0  0
  188.4280  174.1910  138.3640 C   0  0  0  0  0  3  0  0  0  0  0  0
  190.1820  172.5150  141.1430 N   0  0  0  0  0  0  0  0  0  0  0  0
  188.8200  173.4360  137.2550 C   0  0  0  0  0  3  0  0  0  0  0  0
  190.1580  172.0620  138.7130 C   0  0  0  0  0  3  0  0  0  0  0  0
  188.8940  173.8760  139.6020 N   0  0  0  0  0  0  0  0  0  0  0  0
  189.7420  172.8320  139.8090 C   0  0  0  0  0  0  0  0  0  0  0  0
  189.3030  171.1710  135.4200 O   0  0  0  0  0  0  0  0  0  0  0  0
  192.6530  171.9260  136.4830 C   0  0  0  0  0  0  0  0  0  0  0  0
  192.5290  173.1390  136.8010 O   0  0  0  0  0  0  0  0  0  0  0  0
  190.1440  171.5470  136.2780 C   0  0  0  0  0  0  0  0  0  0  0  0
  191.5110  171.1440  136.1200 N   0  0  0  0  0  2  0  0  0  0  0  0
  194.0150  171.3230  136.4000 C   0  0  0  0  0  2  0  0  0  0  0  0
  194.0370  170.1780  135.4020 C   0  0  0  0  0  2  0  0  0  0  0  0
  195.4480  169.9430  134.8980 C   0  0  0  0  0  2  0  0  0  0  0  0
  197.9100  170.8950  134.9030 C   0  0  0  0  0  1  0  0  0  0  0  0
  196.2510  171.5300  134.5130 S   0  0  0  0  0  0  0  0  0  0  0  0
  190.3190  170.3240  141.9490 O   0  0  0  0  0  1  0  0  0  0  0  0
  191.0540  171.3740  141.4020 C   0  0  0  0  0  2  0  0  0  0  0  0
  192.1050  175.5760  143.9560 C   0  0  0  0  0  2  0  0  0  0  0  0
  192.1310  174.6830  145.1930 C   0  0  0  0  0  2  0  0  0  0  0  0
  194.6270  174.7720  144.9640 C   0  0  0  0  0  0  0  0  0  0  0  0
  194.5520  175.8470  144.3030 O   0  0  0  0  0  0  0  0  0  0  0  0
  193.4370  174.0480  145.2940 N   0  0  0  0  0  0  0  0  0  0  0  0
  193.5380  172.8430  145.9000 O   0  0  0  0  0  1  0  0  0  0  0  0
  195.8620  174.3060  145.4200 O   0  0  0  0  0  0  0  0  0  0  0  0
  196.5930  171.4640  143.4870 C   0  0  0  0  0  0  0  0  0  0  0  0
  196.1160  172.9480  145.5780 C   0  0  0  0  0  3  0  0  0  0  0  0
  196.3660  172.2050  144.5390 C   0  0  0  0  0  0  0  0  0  0  0  0
  195.9980  169.1800  144.2660 C   0  0  0  0  0  1  0  0  0  0  0  0
  196.8660  170.0940  143.6020 O   0  0  0  0  0  0  0  0  0  0  0  0
  196.5740  172.0780  142.2000 N   0  0  0  0  0  2  0  0  0  0  0  0
  197.3170  171.8450  138.6490 N   0  0  0  0  0  2  0  0  0  0  0  0
  196.1720  170.5530  140.3430 C   0  0  0  0  0  2  0  0  0  0  0  0
  197.5650  172.4580  139.9530 C   0  0  2  0  0  3  0  0  0  0  0  0
  197.1660  171.4490  141.0260 C   0  0  1  0  0  3  0  0  0  0  0  0
  196.5750  170.6040  138.8860 C   0  0  0  0  0  2  0  0  0  0  0  0
  196.8760  173.8300  140.0500 C   0  0  1  0  0  3  0  0  0  0  0  0
  195.5320  173.7130  139.6990 O   0  0  0  0  0  1  0  0  0  0  0  0
  197.7600  176.1890  142.9390 C   0  0  0  0  0  1  0  0  0  0  0  0
  197.6440  175.5950  141.5800 C   0  0  0  0  0  3  0  0  0  0  0  0
  196.9980  174.4430  141.4120 C   0  0  0  0  0  3  0  0  0  0  0  0
  1  2  1  6  0  0  0
  1 20  1  0  0  0  0
  1 41  1  0  0  0  0
  3  1  1  0  0  0  0
  3  4  1  0  0  0  0
  5  4  1  0  0  0  0
  6  5  1  6  0  0  0
  6  9  1  0  0  0  0
  8  7  1  0  0  0  0
  8  6  1  0  0  0  0
 10  9  1  6  0  0  0
 10 11  1  0  0  0  0
 10 15  1  0  0  0  0
 11 12  1  0  0  0  0
 12 13  1  0  0  0  0
 13 14  1  0  0  0  0
 15 16  1  0  0  0  0
 16 18  2  0  0  0  0
 17 16  1  0  0  0  0
 19 17  1  0  0  0  0
 21 20  1  0  0  0  0
 22 26  1  0  0  0  0
 23 27  2  0  0  0  0
 24 40  1  0  0  0  0
 24 21  1  0  0  0  0
 25 22  2  0  0  0  0
 25 23  1  0  0  0  0
 26 28  2  0  0  0  0
 27 28  1  0  0  0  0
 28 24  1  0  0  0  0
 29 32  2  0  0  0  0
 30 31  2  0  0  0  0
 32 22  1  0  0  0  0
 33 32  1  0  0  0  0
 33 30  1  0  0  0  0
 34 30  1  0  0  0  0
 35 34  1  0  0  0  0
 36 35  1  0  0  0  0
 38 36  1  0  0  0  0
 38 37  1  0  0  0  0
 40 39  1  0  0  0  0
 41 42  1  0  0  0  0
 42 45  1  0  0  0  0
 43 45  1  0  0  0  0
 43 47  1  0  0  0  0
 44 43  2  0  0  0  0
 45 46  1  0  0  0  0
 47 49  1  0  0  0  0
 48 52  1  0  0  0  0
 48 50  2  0  0  0  0
 50 49  2  0  0  0  0
 52 51  1  0  0  0  0
 53 48  1  0  0  0  0
 54 58  1  0  0  0  0
 54 56  1  0  0  0  0
 55 57  1  0  0  0  0
 56 59  1  1  0  0  0
 56 57  1  0  0  0  0
 57 53  1  1  0  0  0
 58 55  1  0  0  0  0
 59 60  1  1  0  0  0
 59 63  1  0  0  0  0
 62 61  1  0  0  0  0
 63 62  2  0  0  0  0
M  END
>  <MODEL>
6

>  <REMARK>
 VINA RESULT:      -4.3      4.194      6.970
  Name = 
  31 active torsions:
  status: ('A' for Active; 'I' for Inactive)
    1  A    between atoms: C_1  and  N_12
    2  A    between atoms: C_1  and  C_22
    3  A    between atoms: C_2  and  C_22
    4  A    between atoms: C_2  and  C_35
    5  A    between atoms: C_2  and  C_44
    6  A    between atoms: C_3  and  N_37
    7  A    between atoms: C_3  and  O_40
    8  A    between atoms: C_5  and  O_42
    9  A    between atoms: O_7  and  C_18
   10  A    between atoms: O_7  and  C_20
   11  A    between atoms: C_9  and  C_36
   12  A    between atoms: N_10  and  C_33
   13  A    between atoms: N_10  and  C_44
   14  A    between atoms: C_13  and  C_29
   15  A    between atoms: C_13  and  C_54
   16  A    between atoms: C_15  and  C_39
   17  A    between atoms: N_17  and  C_35
   18  A    between atoms: N_17  and  N_48
   19  A    between atoms: C_18  and  C_36
   20  A    between atoms: C_18  and  C_57
   21  A    between atoms: C_19  and  N_48
   22  A    between atoms: C_20  and  C_47
   23  A    between atoms: C_24  and  C_46
   24  A    between atoms: C_29  and  C_31
   25  A    between atoms: C_30  and  O_42
   26  A    between atoms: C_33  and  C_53
   27  A    between atoms: N_37  and  C_51
   28  A    between atoms: C_38  and  C_39
   29  A    between atoms: C_45  and  C_53
   30  A    between atoms: C_53  and  C_57
   31  A    between atoms: C_54  and  S_55
                            x       y       z     vdW  Elec       q    Type
                         _______ _______ _______ _____ _____    ______ ____

>  <TORSDO>
F 31

$$$$
=
 OpenBabel11042415263D

 63 64  0  0  1  0  0  0  0  0999 V2000
  187.5630  176.9170  142.6600 C   0  0  1  0  0  0  0  0  0  0  0  0
  188.0840  178.3470  142.5650 C   0  0  0  0  0  1  0  0  0  0  0  0
  186.0710  176.8960  142.3300 C   0  0  0  0  0  2  0  0  0  0  0  0
  185.5750  178.2230  141.9860 N   0  0  0  0  0  2  0  0  0  0  0  0
  184.2230  178.0390  141.4780 C   0  0  0  0  0  2  0  0  0  0  0  0
  183.1940  178.2400  142.5840 C   0  0  1  0  0  3  0  0  0  0  0  0
  183.7180  178.1620  144.9120 O   0  0  0  0  0  1  0  0  0  0  0  0
  183.8050  178.9640  143.7740 C   0  0  0  0  0  2  0  0  0  0  0  0
  181.9720  178.9870  142.0630 C   0  0  0  0  0  2  0  0  0  0  0  0
  181.0110  178.0190  141.3840 C   0  0  2  0  0  3  0  0  0  0  0  0
  180.7490  178.4340  140.0760 O   0  0  0  0  0  0  0  0  0  0  0  0
  180.5150  177.2540  139.3680 C   0  0  0  0  0  2  0  0  0  0  0  0
  179.0800  177.2240  138.8720 C   0  0  0  0  0  2  0  0  0  0  0  0
  178.9770  176.4010  137.6010 C   0  0  0  0  0  1  0  0  0  0  0  0
  179.7110  177.8590  142.1840 C   0  0  0  0  0  2  0  0  0  0  0  0
  178.9080  179.1240  142.3130 C   0  0  0  0  0  0  0  0  0  0  0  0
  178.4330  179.5580  143.5900 N   0  0  0  0  0  2  0  0  0  0  0  0
  178.7020  179.8500  141.3050 O   0  0  0  0  0  0  0  0  0  0  0  0
  178.6720  178.8060  144.8110 C   0  0  0  0  0  1  0  0  0  0  0  0
  188.3410  176.0330  141.6820 C   0  0  0  0  0  2  0  0  0  0  0  0
  188.0480  174.6180  141.9000 N   0  0  0  0  0  2  0  0  0  0  0  0
  190.6750  172.0160  138.6900 C   0  0  0  0  0  0  0  0  0  0  0  0
  188.6160  173.0990  138.0360 C   0  0  0  0  0  3  0  0  0  0  0  0
  189.2060  173.8850  141.5910 N   0  0  0  0  0  0  0  0  0  0  0  0
  189.7140  172.2970  137.7130 C   0  0  0  0  0  3  0  0  0  0  0  0
  190.5180  172.5590  139.9690 C   0  0  0  0  0  3  0  0  0  0  0  0
  188.4870  173.6050  139.2910 N   0  0  0  0  0  0  0  0  0  0  0  0
  189.4020  173.3550  140.2660 C   0  0  0  0  0  0  0  0  0  0  0  0
  191.7260  169.9470  138.2440 O   0  0  0  0  0  0  0  0  0  0  0  0
  193.4800  173.0410  137.7180 C   0  0  0  0  0  0  0  0  0  0  0  0
  192.6010  173.7060  137.1070 O   0  0  0  0  0  0  0  0  0  0  0  0
  191.8610  171.1920  138.3810 C   0  0  0  0  0  0  0  0  0  0  0  0
  193.1740  171.7560  138.2660 N   0  0  0  0  0  2  0  0  0  0  0  0
  194.8750  173.5620  137.7960 C   0  0  0  0  0  2  0  0  0  0  0  0
  195.2210  173.9620  139.2210 C   0  0  0  0  0  2  0  0  0  0  0  0
  196.1930  175.1270  139.2210 C   0  0  0  0  0  2  0  0  0  0  0  0
  197.1510  176.2960  141.3850 C   0  0  0  0  0  1  0  0  0  0  0  0
  197.5450  174.8200  140.3990 S   0  0  0  0  0  0  0  0  0  0  0  0
  191.4370  173.4730  142.1610 O   0  0  0  0  0  1  0  0  0  0  0  0
  190.1450  173.5950  142.6690 C   0  0  0  0  0  2  0  0  0  0  0  0
  187.7160  176.4220  144.0990 C   0  0  0  0  0  2  0  0  0  0  0  0
  188.5900  177.3240  144.9660 C   0  0  0  0  0  2  0  0  0  0  0  0
  190.1980  175.7220  146.0320 C   0  0  0  0  0  0  0  0  0  0  0  0
  189.4030  175.5280  146.9960 O   0  0  0  0  0  0  0  0  0  0  0  0
  189.9200  176.7420  145.0670 N   0  0  0  0  0  0  0  0  0  0  0  0
  190.8340  177.0170  144.1080 O   0  0  0  0  0  1  0  0  0  0  0  0
  191.3260  174.9150  145.8720 O   0  0  0  0  0  0  0  0  0  0  0  0
  194.6660  173.8220  145.8110 C   0  0  0  0  0  0  0  0  0  0  0  0
  192.6070  175.3920  146.1290 C   0  0  0  0  0  3  0  0  0  0  0  0
  193.6380  174.6160  145.9610 C   0  0  0  0  0  0  0  0  0  0  0  0
  196.9360  174.4380  145.0090 C   0  0  0  0  0  1  0  0  0  0  0  0
  195.9740  174.2660  146.0460 O   0  0  0  0  0  0  0  0  0  0  0  0
  194.4370  172.4810  145.3840 N   0  0  0  0  0  2  0  0  0  0  0  0
  193.6350  170.3030  142.5870 N   0  0  0  0  0  2  0  0  0  0  0  0
  194.7290  172.4260  142.9650 C   0  0  0  0  0  2  0  0  0  0  0  0
  193.4390  170.6870  143.9830 C   0  0  2  0  0  3  0  0  0  0  0  0
  193.7960  172.1650  144.1130 C   0  0  1  0  0  3  0  0  0  0  0  0
  194.3100  171.4180  141.9180 C   0  0  0  0  0  2  0  0  0  0  0  0
  194.2050  169.7400  144.9220 C   0  0  1  0  0  3  0  0  0  0  0  0
  193.3850  168.6780  145.2990 O   0  0  0  0  0  1  0  0  0  0  0  0
  197.8950  168.9460  144.2540 C   0  0  0  0  0  1  0  0  0  0  0  0
  196.6490  169.4690  144.8760 C   0  0  0  0  0  3  0  0  0  0  0  0
  195.4700  169.2170  144.3110 C   0  0  0  0  0  3  0  0  0  0  0  0
  1  2  1  6  0  0  0
  1 41  1  0  0  0  0
  3  1  1  0  0  0  0
  4  3  1  0  0  0  0
  5  4  1  0  0  0  0
  6  5  1  6  0  0  0
  6  8  1  0  0  0  0
  8  7  1  0  0  0  0
  9  6  1  0  0  0  0
 10  9  1  1  0  0  0
 10 15  1  0  0  0  0
 11 10  1  0  0  0  0
 12 11  1  0  0  0  0
 13 12  1  0  0  0  0
 14 13  1  0  0  0  0
 15 16  1  0  0  0  0
 16 17  1  0  0  0  0
 17 19  1  0  0  0  0
 18 16  2  0  0  0  0
 20 21  1  0  0  0  0
 20  1  1  0  0  0  0
 22 26  1  0  0  0  0
 23 27  2  0  0  0  0
 24 21  1  0  0  0  0
 24 40  1  0  0  0  0
 25 23  1  0  0  0  0
 25 22  2  0  0  0  0
 26 28  2  0  0  0  0
 27 28  1  0  0  0  0
 28 24  1  0  0  0  0
 29 32  2  0  0  0  0
 30 34  1  0  0  0  0
 30 33  1  0  0  0  0
 31 30  2  0  0  0  0
 32 22  1  0  0  0  0
 33 32  1  0  0  0  0
 34 35  1  0  0  0  0
 36 35  1  0  0  0  0
 36 38  1  0  0  0  0
 38 37  1  0  0  0  0
 39 40  1  0  0  0  0
 41 42  1  0  0  0  0
 42 45  1  0  0  0  0
 43 44  2  0  0  0  0
 45 43  1  0  0  0  0
 46 45  1  0  0  0  0
 47 43  1  0  0  0  0
 47 49  1  0  0  0  0
 48 50  2  0  0  0  0
 48 52  1  0  0  0  0
 50 49  2  0  0  0  0
 51 52  1  0  0  0  0
 53 48  1  0  0  0  0
 54 56  1  0  0  0  0
 55 57  1  0  0  0  0
 56 57  1  0  0  0  0
 56 59  1  1  0  0  0
 57 53  1  1  0  0  0
 58 54  1  0  0  0  0
 58 55  1  0  0  0  0
 59 60  1  6  0  0  0
 61 62  1  0  0  0  0
 63 62  2  0  0  0  0
 63 59  1  0  0  0  0
M  END
>  <MODEL>
7

>  <REMARK>
 VINA RESULT:      -4.2      2.370      3.953
  Name = 
  31 active torsions:
  status: ('A' for Active; 'I' for Inactive)
    1  A    between atoms: C_1  and  N_12
    2  A    between atoms: C_1  and  C_22
    3  A    between atoms: C_2  and  C_22
    4  A    between atoms: C_2  and  C_35
    5  A    between atoms: C_2  and  C_44
    6  A    between atoms: C_3  and  N_37
    7  A    between atoms: C_3  and  O_40
    8  A    between atoms: C_5  and  O_42
    9  A    between atoms: O_7  and  C_18
   10  A    between atoms: O_7  and  C_20
   11  A    between atoms: C_9  and  C_36
   12  A    between atoms: N_10  and  C_33
   13  A    between atoms: N_10  and  C_44
   14  A    between atoms: C_13  and  C_29
   15  A    between atoms: C_13  and  C_54
   16  A    between atoms: C_15  and  C_39
   17  A    between atoms: N_17  and  C_35
   18  A    between atoms: N_17  and  N_48
   19  A    between atoms: C_18  and  C_36
   20  A    between atoms: C_18  and  C_57
   21  A    between atoms: C_19  and  N_48
   22  A    between atoms: C_20  and  C_47
   23  A    between atoms: C_24  and  C_46
   24  A    between atoms: C_29  and  C_31
   25  A    between atoms: C_30  and  O_42
   26  A    between atoms: C_33  and  C_53
   27  A    between atoms: N_37  and  C_51
   28  A    between atoms: C_38  and  C_39
   29  A    between atoms: C_45  and  C_53
   30  A    between atoms: C_53  and  C_57
   31  A    between atoms: C_54  and  S_55
                            x       y       z     vdW  Elec       q    Type
                         _______ _______ _______ _____ _____    ______ ____

>  <TORSDO>
F 31

$$$$
=
 OpenBabel11042415263D

 63 64  0  0  1  0  0  0  0  0999 V2000
  186.7310  177.2740  142.4170 C   0  0  1  0  0  0  0  0  0  0  0  0
  187.2160  178.6820  142.0890 C   0  0  0  0  0  1  0  0  0  0  0  0
  185.2200  177.1940  142.2020 C   0  0  0  0  0  2  0  0  0  0  0  0
  184.7400  178.2620  141.3340 N   0  0  0  0  0  2  0  0  0  0  0  0
  183.2970  178.3250  141.5160 C   0  0  0  0  0  2  0  0  0  0  0  0
  182.5700  178.0360  140.2080 C   0  0  1  0  0  3  0  0  0  0  0  0
  182.9710  176.7950  138.2090 O   0  0  0  0  0  1  0  0  0  0  0  0
  183.0410  176.7240  139.6000 C   0  0  0  0  0  2  0  0  0  0  0  0
  181.0600  178.0290  140.4130 C   0  0  0  0  0  2  0  0  0  0  0  0
  180.6690  179.0290  141.4940 C   0  0  2  0  0  3  0  0  0  0  0  0
  179.9560  178.3870  142.5110 O   0  0  0  0  0  0  0  0  0  0  0  0
  179.4220  179.4230  143.2780 C   0  0  0  0  0  2  0  0  0  0  0  0
  178.0630  179.0180  143.8230 C   0  0  0  0  0  2  0  0  0  0  0  0
  178.0740  179.0400  145.3400 C   0  0  0  0  0  1  0  0  0  0  0  0
  179.8690  180.2040  140.9150 C   0  0  0  0  0  2  0  0  0  0  0  0
  178.8390  179.8040  139.8930 C   0  0  0  0  0  0  0  0  0  0  0  0
  178.4870  180.6910  138.8280 N   0  0  0  0  0  2  0  0  0  0  0  0
  178.3250  178.6550  139.9280 O   0  0  0  0  0  0  0  0  0  0  0  0
  179.0730  182.0140  138.6860 C   0  0  0  0  0  1  0  0  0  0  0  0
  187.4550  176.2710  141.5150 C   0  0  0  0  0  2  0  0  0  0  0  0
  187.4140  174.9250  142.0830 N   0  0  0  0  0  2  0  0  0  0  0  0
  190.9040  172.4900  139.6590 C   0  0  0  0  0  0  0  0  0  0  0  0
  188.8080  173.0570  138.5990 C   0  0  0  0  0  3  0  0  0  0  0  0
  188.7170  174.3980  142.0340 N   0  0  0  0  0  0  0  0  0  0  0  0
  190.0650  172.4490  138.5410 C   0  0  0  0  0  3  0  0  0  0  0  0
  190.4670  173.1540  140.8100 C   0  0  0  0  0  3  0  0  0  0  0  0
  188.4070  173.6870  139.7360 N   0  0  0  0  0  0  0  0  0  0  0  0
  189.1970  173.7490  140.8420 C   0  0  0  0  0  0  0  0  0  0  0  0
  192.3580  170.6430  139.4220 O   0  0  0  0  0  0  0  0  0  0  0  0
  193.6520  173.9970  139.4500 C   0  0  0  0  0  0  0  0  0  0  0  0
  192.8490  174.5630  138.6610 O   0  0  0  0  0  0  0  0  0  0  0  0
  192.2490  171.8800  139.6290 C   0  0  0  0  0  0  0  0  0  0  0  0
  193.4400  172.6430  139.8630 N   0  0  0  0  0  2  0  0  0  0  0  0
  194.8810  174.7170  139.8900 C   0  0  0  0  0  2  0  0  0  0  0  0
  195.6210  175.3000  138.6970 C   0  0  0  0  0  2  0  0  0  0  0  0
  197.0030  174.6870  138.5810 C   0  0  0  0  0  2  0  0  0  0  0  0
  197.5350  175.7470  136.2230 C   0  0  0  0  0  1  0  0  0  0  0  0
  197.2810  174.0740  136.8910 S   0  0  0  0  0  0  0  0  0  0  0  0
  189.2310  173.3400  144.0560 O   0  0  0  0  0  1  0  0  0  0  0  0
  189.5210  174.4400  143.2510 C   0  0  0  0  0  2  0  0  0  0  0  0
  186.9940  176.9840  143.8950 C   0  0  0  0  0  2  0  0  0  0  0  0
  187.7250  178.1110  144.6180 C   0  0  0  0  0  2  0  0  0  0  0  0
  189.6280  177.1430  145.9350 C   0  0  0  0  0  0  0  0  0  0  0  0
  188.9390  177.1680  146.9950 O   0  0  0  0  0  0  0  0  0  0  0  0
  189.1320  177.7620  144.7420 N   0  0  0  0  0  0  0  0  0  0  0  0
  189.9270  177.8300  143.6500 O   0  0  0  0  0  1  0  0  0  0  0  0
  190.8530  176.4740  145.9030 O   0  0  0  0  0  0  0  0  0  0  0  0
  193.9560  175.2690  144.7740 C   0  0  0  0  0  0  0  0  0  0  0  0
  191.7960  176.7270  144.9130 C   0  0  0  0  0  3  0  0  0  0  0  0
  192.8700  175.9950  144.8320 C   0  0  0  0  0  0  0  0  0  0  0  0
  196.1130  176.2340  144.0080 C   0  0  0  0  0  1  0  0  0  0  0  0
  194.9250  175.4810  143.7840 O   0  0  0  0  0  0  0  0  0  0  0  0
  194.1370  174.2320  145.7360 N   0  0  0  0  0  2  0  0  0  0  0  0
  194.1270  170.7980  144.5470 N   0  0  0  0  0  2  0  0  0  0  0  0
  192.8100  172.8070  144.2720 C   0  0  0  0  0  2  0  0  0  0  0  0
  194.6080  171.8050  145.4910 C   0  0  2  0  0  3  0  0  0  0  0  0
  193.5550  172.9060  145.5730 C   0  0  1  0  0  3  0  0  0  0  0  0
  192.9420  171.3510  143.8860 C   0  0  0  0  0  2  0  0  0  0  0  0
  196.0240  172.2740  145.1130 C   0  0  1  0  0  3  0  0  0  0  0  0
  196.9330  171.8790  146.0920 O   0  0  0  0  0  1  0  0  0  0  0  0
  196.7560  172.0010  141.3610 C   0  0  0  0  0  1  0  0  0  0  0  0
  196.3190  172.5210  142.6840 C   0  0  0  0  0  3  0  0  0  0  0  0
  196.4620  171.7680  143.7730 C   0  0  0  0  0  3  0  0  0  0  0  0
  1  2  1  6  0  0  0
  1 41  1  0  0  0  0
  3  1  1  0  0  0  0
  4  5  1  0  0  0  0
  4  3  1  0  0  0  0
  6  8  1  1  0  0  0
  6  9  1  0  0  0  0
  6  5  1  0  0  0  0
  7  8  1  0  0  0  0
 10  9  1  6  0  0  0
 10 11  1  0  0  0  0
 11 12  1  0  0  0  0
 12 13  1  0  0  0  0
 13 14  1  0  0  0  0
 15 10  1  0  0  0  0
 16 18  2  0  0  0  0
 16 15  1  0  0  0  0
 17 16  1  0  0  0  0
 19 17  1  0  0  0  0
 20 21  1  0  0  0  0
 20  1  1  0  0  0  0
 22 26  1  0  0  0  0
 23 27  2  0  0  0  0
 24 21  1  0  0  0  0
 24 40  1  0  0  0  0
 25 23  1  0  0  0  0
 25 22  2  0  0  0  0
 26 28  2  0  0  0  0
 27 28  1  0  0  0  0
 28 24  1  0  0  0  0
 29 32  2  0  0  0  0
 30 33  1  0  0  0  0
 30 34  1  0  0  0  0
 31 30  2  0  0  0  0
 32 22  1  0  0  0  0
 32 33  1  0  0  0  0
 35 34  1  0  0  0  0
 36 35  1  0  0  0  0
 37 38  1  0  0  0  0
 38 36  1  0  0  0  0
 40 39  1  0  0  0  0
 41 42  1  0  0  0  0
 42 45  1  0  0  0  0
 43 44  2  0  0  0  0
 45 43  1  0  0  0  0
 46 45  1  0  0  0  0
 47 43  1  0  0  0  0
 48 50  2  0  0  0  0
 48 53  1  0  0  0  0
 49 47  1  0  0  0  0
 50 49  2  0  0  0  0
 52 51  1  0  0  0  0
 52 48  1  0  0  0  0
 54 56  1  0  0  0  0
 55 57  1  0  0  0  0
 56 59  1  6  0  0  0
 56 57  1  0  0  0  0
 57 53  1  6  0  0  0
 58 55  1  0  0  0  0
 58 54  1  0  0  0  0
 59 60  1  1  0  0  0
 61 62  1  0  0  0  0
 62 63  2  0  0  0  0
 63 59  1  0  0  0  0
M  END
>  <MODEL>
8

>  <REMARK>
 VINA RESULT:      -4.1      2.291      3.423
  Name = 
  31 active torsions:
  status: ('A' for Active; 'I' for Inactive)
    1  A    between atoms: C_1  and  N_12
    2  A    between atoms: C_1  and  C_22
    3  A    between atoms: C_2  and  C_22
    4  A    between atoms: C_2  and  C_35
    5  A    between atoms: C_2  and  C_44
    6  A    between atoms: C_3  and  N_37
    7  A    between atoms: C_3  and  O_40
    8  A    between atoms: C_5  and  O_42
    9  A    between atoms: O_7  and  C_18
   10  A    between atoms: O_7  and  C_20
   11  A    between atoms: C_9  and  C_36
   12  A    between atoms: N_10  and  C_33
   13  A    between atoms: N_10  and  C_44
   14  A    between atoms: C_13  and  C_29
   15  A    between atoms: C_13  and  C_54
   16  A    between atoms: C_15  and  C_39
   17  A    between atoms: N_17  and  C_35
   18  A    between atoms: N_17  and  N_48
   19  A    between atoms: C_18  and  C_36
   20  A    between atoms: C_18  and  C_57
   21  A    between atoms: C_19  and  N_48
   22  A    between atoms: C_20  and  C_47
   23  A    between atoms: C_24  and  C_46
   24  A    between atoms: C_29  and  C_31
   25  A    between atoms: C_30  and  O_42
   26  A    between atoms: C_33  and  C_53
   27  A    between atoms: N_37  and  C_51
   28  A    between atoms: C_38  and  C_39
   29  A    between atoms: C_45  and  C_53
   30  A    between atoms: C_53  and  C_57
   31  A    between atoms: C_54  and  S_55
                            x       y       z     vdW  Elec       q    Type
                         _______ _______ _______ _____ _____    ______ ____

>  <TORSDO>
F 31

$$$$
=
 OpenBabel11042415263D

 63 64  0  0  1  0  0  0  0  0999 V2000
  191.0920  172.5230  141.3670 C   0  0  1  0  0  0  0  0  0  0  0  0
  190.2370  172.5410  140.1040 C   0  0  0  0  0  1  0  0  0  0  0  0
  192.4630  173.1240  141.0610 C   0  0  0  0  0  2  0  0  0  0  0  0
  192.3940  174.1130  139.9940 N   0  0  0  0  0  2  0  0  0  0  0  0
  193.7470  174.6200  139.8110 C   0  0  0  0  0  2  0  0  0  0  0  0
  194.0740  174.7790  138.3320 C   0  0  1  0  0  3  0  0  0  0  0  0
  196.3260  174.2670  138.9360 O   0  0  0  0  0  1  0  0  0  0  0  0
  195.5470  175.0970  138.1290 C   0  0  0  0  0  2  0  0  0  0  0  0
  193.6730  173.5350  137.5470 C   0  0  0  0  0  2  0  0  0  0  0  0
  192.3230  173.7480  136.8750 C   0  0  2  0  0  3  0  0  0  0  0  0
  191.6510  172.5290  136.7420 O   0  0  0  0  0  0  0  0  0  0  0  0
  192.6490  171.6070  136.4200 C   0  0  0  0  0  2  0  0  0  0  0  0
  192.0280  170.2500  136.1380 C   0  0  0  0  0  2  0  0  0  0  0  0
  193.0420  169.3320  135.4800 C   0  0  0  0  0  1  0  0  0  0  0  0
  192.4710  174.4480  135.5180 C   0  0  0  0  0  2  0  0  0  0  0  0
  191.9150  175.8460  135.4820 C   0  0  0  0  0  0  0  0  0  0  0  0
  190.5290  176.0720  135.2120 N   0  0  0  0  0  2  0  0  0  0  0  0
  192.6530  176.8290  135.7550 O   0  0  0  0  0  0  0  0  0  0  0  0
  189.5980  174.9890  134.9380 C   0  0  0  0  0  1  0  0  0  0  0  0
  190.3860  173.3270  142.4620 C   0  0  0  0  0  2  0  0  0  0  0  0
  190.1650  174.7100  142.0430 N   0  0  0  0  0  2  0  0  0  0  0  0
  188.5430  177.0820  146.0080 C   0  0  0  0  0  0  0  0  0  0  0  0
  190.9080  176.8620  145.5620 C   0  0  0  0  0  3  0  0  0  0  0  0
  189.0960  175.2230  142.7980 N   0  0  0  0  0  0  0  0  0  0  0  0
  189.8700  177.3160  146.3810 C   0  0  0  0  0  3  0  0  0  0  0  0
  188.2860  176.4080  144.8100 C   0  0  0  0  0  3  0  0  0  0  0  0
  190.6250  176.2010  144.4070 N   0  0  0  0  0  0  0  0  0  0  0  0
  189.3470  175.9570  144.0120 C   0  0  0  0  0  0  0  0  0  0  0  0
  187.6060  177.7770  148.0630 O   0  0  0  0  0  0  0  0  0  0  0  0
  185.8180  178.2590  144.9810 C   0  0  0  0  0  0  0  0  0  0  0  0
  186.7320  178.7290  144.2530 O   0  0  0  0  0  0  0  0  0  0  0  0
  187.4190  177.5670  146.8350 C   0  0  0  0  0  0  0  0  0  0  0  0
  186.1070  177.7740  146.2960 N   0  0  0  0  0  2  0  0  0  0  0  0
  184.4070  178.2850  144.5010 C   0  0  0  0  0  2  0  0  0  0  0  0
  184.3500  178.5810  143.0110 C   0  0  0  0  0  2  0  0  0  0  0  0
  182.9350  178.4100  142.4920 C   0  0  0  0  0  2  0  0  0  0  0  0
  181.1600  178.4100  140.5380 C   0  0  0  0  0  1  0  0  0  0  0  0
  182.9530  178.1440  140.6920 S   0  0  0  0  0  0  0  0  0  0  0  0
  187.2330  175.9320  141.5760 O   0  0  0  0  0  1  0  0  0  0  0  0
  187.7370  174.9050  142.3710 C   0  0  0  0  0  2  0  0  0  0  0  0
  191.3180  171.0740  141.7990 C   0  0  0  0  0  2  0  0  0  0  0  0
  192.1280  170.2570  140.7960 C   0  0  0  0  0  2  0  0  0  0  0  0
  194.5900  169.9820  140.4060 C   0  0  0  0  0  0  0  0  0  0  0  0
  194.3940  169.7360  139.1820 O   0  0  0  0  0  0  0  0  0  0  0  0
  193.4800  170.0840  141.3050 N   0  0  0  0  0  0  0  0  0  0  0  0
  193.7090  170.2330  142.6300 O   0  0  0  0  0  1  0  0  0  0  0  0
  195.8840  170.2030  140.8850 O   0  0  0  0  0  0  0  0  0  0  0  0
  196.6920  170.5840  144.2840 C   0  0  0  0  0  0  0  0  0  0  0  0
  196.4050  169.4680  141.9440 C   0  0  0  0  0  3  0  0  0  0  0  0
  196.5390  170.0170  143.1170 C   0  0  0  0  0  0  0  0  0  0  0  0
  197.0520  168.4670  145.5340 C   0  0  0  0  0  1  0  0  0  0  0  0
  197.2000  169.8760  145.3810 O   0  0  0  0  0  0  0  0  0  0  0  0
  196.3130  171.9510  144.4350 N   0  0  0  0  0  2  0  0  0  0  0  0
  193.7170  174.4820  144.1810 N   0  0  0  0  0  2  0  0  0  0  0  0
  193.9900  172.2620  145.0990 C   0  0  0  0  0  2  0  0  0  0  0  0
  195.0110  173.9550  143.7530 C   0  0  2  0  0  3  0  0  0  0  0  0
  195.0110  172.4510  144.0130 C   0  0  1  0  0  3  0  0  0  0  0  0
  193.0240  173.4080  144.8960 C   0  0  0  0  0  2  0  0  0  0  0  0
  196.1620  174.7370  144.4100 C   0  0  1  0  0  3  0  0  0  0  0  0
  197.1340  175.0410  143.4590 O   0  0  0  0  0  1  0  0  0  0  0  0
  194.4340  177.1840  146.8010 C   0  0  0  0  0  1  0  0  0  0  0  0
  194.8890  175.9300  146.1430 C   0  0  0  0  0  3  0  0  0  0  0  0
  195.6980  175.9900  145.0870 C   0  0  0  0  0  3  0  0  0  0  0  0
  1  2  1  6  0  0  0
  1 41  1  0  0  0  0
  1 20  1  0  0  0  0
  3  1  1  0  0  0  0
  4  3  1  0  0  0  0
  5  4  1  0  0  0  0
  6  9  1  6  0  0  0
  6  5  1  0  0  0  0
  8  6  1  0  0  0  0
  8  7  1  0  0  0  0
 10 15  1  6  0  0  0
 10  9  1  0  0  0  0
 11 10  1  0  0  0  0
 12 11  1  0  0  0  0
 13 12  1  0  0  0  0
 14 13  1  0  0  0  0
 16 15  1  0  0  0  0
 16 18  2  0  0  0  0
 17 16  1  0  0  0  0
 19 17  1  0  0  0  0
 21 20  1  0  0  0  0
 21 24  1  0  0  0  0
 22 25  1  0  0  0  0
 22 32  1  0  0  0  0
 23 25  2  0  0  0  0
 24 28  1  0  0  0  0
 26 22  2  0  0  0  0
 27 23  1  0  0  0  0
 28 27  2  0  0  0  0
 28 26  1  0  0  0  0
 30 33  1  0  0  0  0
 31 30  2  0  0  0  0
 32 29  2  0  0  0  0
 33 32  1  0  0  0  0
 34 30  1  0  0  0  0
 35 34  1  0  0  0  0
 36 35  1  0  0  0  0
 37 38  1  0  0  0  0
 38 36  1  0  0  0  0
 39 40  1  0  0  0  0
 40 24  1  0  0  0  0
 42 45  1  0  0  0  0
 42 41  1  0  0  0  0
 43 47  1  0  0  0  0
 43 45  1  0  0  0  0
 44 43  2  0  0  0  0
 45 46  1  0  0  0  0
 47 49  1  0  0  0  0
 48 53  1  0  0  0  0
 48 52  1  0  0  0  0
 49 50  2  0  0  0  0
 50 48  2  0  0  0  0
 52 51  1  0  0  0  0
 54 58  1  0  0  0  0
 56 57  1  0  0  0  0
 56 54  1  0  0  0  0
 56 59  1  1  0  0  0
 57 53  1  1  0  0  0
 57 55  1  0  0  0  0
 58 55  1  0  0  0  0
 59 60  1  6  0  0  0
 59 63  1  0  0  0  0
 62 61  1  0  0  0  0
 63 62  2  0  0  0  0
M  END
>  <MODEL>
9

>  <REMARK>
 VINA RESULT:      -4.1      3.769     10.705
  Name = 
  31 active torsions:
  status: ('A' for Active; 'I' for Inactive)
    1  A    between atoms: C_1  and  N_12
    2  A    between atoms: C_1  and  C_22
    3  A    between atoms: C_2  and  C_22
    4  A    between atoms: C_2  and  C_35
    5  A    between atoms: C_2  and  C_44
    6  A    between atoms: C_3  and  N_37
    7  A    between atoms: C_3  and  O_40
    8  A    between atoms: C_5  and  O_42
    9  A    between atoms: O_7  and  C_18
   10  A    between atoms: O_7  and  C_20
   11  A    between atoms: C_9  and  C_36
   12  A    between atoms: N_10  and  C_33
   13  A    between atoms: N_10  and  C_44
   14  A    between atoms: C_13  and  C_29
   15  A    between atoms: C_13  and  C_54
   16  A    between atoms: C_15  and  C_39
   17  A    between atoms: N_17  and  C_35
   18  A    between atoms: N_17  and  N_48
   19  A    between atoms: C_18  and  C_36
   20  A    between atoms: C_18  and  C_57
   21  A    between atoms: C_19  and  N_48
   22  A    between atoms: C_20  and  C_47
   23  A    between atoms: C_24  and  C_46
   24  A    between atoms: C_29  and  C_31
   25  A    between atoms: C_30  and  O_42
   26  A    between atoms: C_33  and  C_53
   27  A    between atoms: N_37  and  C_51
   28  A    between atoms: C_38  and  C_39
   29  A    between atoms: C_45  and  C_53
   30  A    between atoms: C_53  and  C_57
   31  A    between atoms: C_54  and  S_55
                            x       y       z     vdW  Elec       q    Type
                         _______ _______ _______ _____ _____    ______ ____

>  <TORSDO>
F 31

$$$$
