=
 OpenBabel11042417273D

 29 33  0  0  1  0  0  0  0  0999 V2000
  192.8820  175.2460  143.9790 C   0  0  2  0  0  3  0  0  0  0  0  0
  193.1390  174.7530  146.5110 C   0  0  0  0  0  2  0  0  0  0  0  0
  191.3830  175.3640  144.2870 C   0  0  0  0  0  0  0  0  0  0  0  0
  193.2110  173.8840  143.3690 C   0  0  0  0  0  2  0  0  0  0  0  0
  193.9250  173.4300  144.5640 N   0  0  0  0  0  0  0  0  0  0  0  0
  193.7820  174.7690  145.1290 C   0  0  1  0  0  3  0  0  0  0  0  0
  192.7880  176.1560  146.8470 C   0  0  0  0  0  3  0  0  0  0  0  0
  191.7890  176.7530  146.2810 N   0  0  0  0  0  0  0  0  0  0  0  0
  190.9070  176.1490  145.3020 C   0  0  0  0  0  0  0  0  0  0  0  0
  183.9800  178.2660  146.2820 N   0  0  0  0  0  1  0  0  0  0  0  0
  185.3210  177.8860  146.0340 C   0  0  0  0  0  0  0  0  0  0  0  0
  187.1880  176.7410  146.2260 C   0  0  0  0  0  0  0  0  0  0  0  0
  185.9560  176.9060  146.7430 N   0  0  0  0  0  0  0  0  0  0  0  0
  187.5440  177.5370  145.1970 C   0  0  0  0  0  0  0  0  0  0  0  0
  189.4610  176.4680  145.4540 C   0  0  0  0  0  0  0  0  0  0  0  0
  188.4740  175.7880  146.6890 S   0  0  0  0  0  0  0  0  0  0  0  0
  186.2850  178.5720  144.7880 S   0  0  0  0  0  0  0  0  0  0  0  0
  188.8060  177.4270  144.7330 N   0  0  0  0  0  0  0  0  0  0  0  0
  189.3740  174.5670  141.1820 C   0  0  0  0  0  3  0  0  0  0  0  0
  190.1980  175.2440  142.0930 C   0  0  0  0  0  3  0  0  0  0  0  0
  189.0850  172.7770  142.7940 C   0  0  0  0  0  3  0  0  0  0  0  0
  189.9130  173.4440  143.6950 C   0  0  0  0  0  3  0  0  0  0  0  0
  190.4510  174.6930  143.3570 C   0  0  0  0  0  0  0  0  0  0  0  0
  188.7980  173.3320  141.5410 C   0  0  0  0  0  0  0  0  0  0  0  0
  188.1460  172.6560  139.2600 C   0  0  0  0  0  1  0  0  0  0  0  0
  187.9540  172.6410  140.6690 O   0  0  0  0  0  0  0  0  0  0  0  0
  195.3420  173.1170  144.2840 C   0  0  0  0  0  3  0  0  0  0  0  0
  196.0360  172.5870  145.5360 C   0  0  0  0  0  1  0  0  0  0  0  0
  195.5720  172.1420  143.1160 C   0  0  0  0  0  1  0  0  0  0  0  0
  1  4  1  6  0  0  0
  1  3  1  0  0  0  0
  1  6  1  0  0  0  0
  2  7  1  0  0  0  0
  3  9  2  0  0  0  0
  4  5  1  0  0  0  0
  5  6  1  0  0  0  0
  6  2  1  1  0  0  0
  8  7  2  0  0  0  0
  9 15  1  0  0  0  0
  9  8  1  0  0  0  0
 11 10  1  0  0  0  0
 11 13  2  0  0  0  0
 12 16  1  0  0  0  0
 12 13  1  0  0  0  0
 14 12  2  0  0  0  0
 15 16  1  0  0  0  0
 17 14  1  0  0  0  0
 17 11  1  0  0  0  0
 18 14  1  0  0  0  0
 18 15  2  0  0  0  0
 19 24  2  0  0  0  0
 19 20  1  0  0  0  0
 20 23  2  0  0  0  0
 21 22  2  0  0  0  0
 23 22  1  0  0  0  0
 23  3  1  0  0  0  0
 24 21  1  0  0  0  0
 25 26  1  0  0  0  0
 26 24  1  0  0  0  0
 27  5  1  0  0  0  0
 27 28  1  0  0  0  0
 29 27  1  0  0  0  0
M  END
>  <MODEL>
1

>  <REMARK>
 VINA RESULT:      -6.7      0.000      0.000
  Name = 
  4 active torsions:
  status: ('A' for Active; 'I' for Inactive)
    1  A    between atoms: C_7  and  N_19
    2  A    between atoms: C_13  and  C_21
    3  A    between atoms: C_16  and  C_26
    4  A    between atoms: C_28  and  O_29
                            x       y       z     vdW  Elec       q    Type
                         _______ _______ _______ _____ _____    ______ ____

>  <TORSDO>
F 4

$$$$
=
 OpenBabel11042417273D

 29 33  0  0  1  0  0  0  0  0999 V2000
  188.5700  175.5250  146.2470 C   0  0  2  0  0  3  0  0  0  0  0  0
  189.7500  177.6620  147.1160 C   0  0  0  0  0  2  0  0  0  0  0  0
  189.7570  175.4210  145.2790 C   0  0  0  0  0  0  0  0  0  0  0  0
  187.3450  176.1150  145.5510 C   0  0  0  0  0  2  0  0  0  0  0  0
  187.4260  177.3730  146.2960 N   0  0  0  0  0  0  0  0  0  0  0  0
  188.4960  176.7970  147.1050 C   0  0  1  0  0  3  0  0  0  0  0  0
  190.8380  176.8510  147.7160 C   0  0  0  0  0  3  0  0  0  0  0  0
  191.3940  175.8820  147.0600 N   0  0  0  0  0  0  0  0  0  0  0  0
  191.0550  175.4940  145.7060 C   0  0  0  0  0  0  0  0  0  0  0  0
  197.0450  173.7220  141.9110 N   0  0  0  0  0  1  0  0  0  0  0  0
  195.8710  174.0020  142.6520 C   0  0  0  0  0  0  0  0  0  0  0  0
  194.1720  175.1640  143.4250 C   0  0  0  0  0  0  0  0  0  0  0  0
  195.3020  175.2430  142.6960 N   0  0  0  0  0  0  0  0  0  0  0  0
  193.8560  173.9650  143.9550 C   0  0  0  0  0  0  0  0  0  0  0  0
  192.2060  175.1490  144.8280 C   0  0  0  0  0  0  0  0  0  0  0  0
  193.0860  176.3230  143.9290 S   0  0  0  0  0  0  0  0  0  0  0  0
  195.0010  172.8110  143.5330 S   0  0  0  0  0  0  0  0  0  0  0  0
  192.7690  173.9060  144.7530 N   0  0  0  0  0  0  0  0  0  0  0  0
  188.9330  173.4780  142.1380 C   0  0  0  0  0  3  0  0  0  0  0  0
  189.3020  173.7730  143.4590 C   0  0  0  0  0  3  0  0  0  0  0  0
  188.8300  175.8530  141.6510 C   0  0  0  0  0  3  0  0  0  0  0  0
  189.1850  176.1460  142.9670 C   0  0  0  0  0  3  0  0  0  0  0  0
  189.4480  175.1060  143.8680 C   0  0  0  0  0  0  0  0  0  0  0  0
  188.7120  174.5260  141.2220 C   0  0  0  0  0  0  0  0  0  0  0  0
  188.3010  172.9490  139.3690 C   0  0  0  0  0  1  0  0  0  0  0  0
  188.3660  174.2700  139.8930 O   0  0  0  0  0  0  0  0  0  0  0  0
  186.2160  177.6200  147.1080 C   0  0  0  0  0  3  0  0  0  0  0  0
  186.1950  179.0590  147.6200 C   0  0  0  0  0  1  0  0  0  0  0  0
  184.8850  177.3070  146.4020 C   0  0  0  0  0  1  0  0  0  0  0  0
  1  4  1  6  0  0  0
  1  6  1  0  0  0  0
  2  7  1  0  0  0  0
  3  9  2  0  0  0  0
  3  1  1  0  0  0  0
  4  5  1  0  0  0  0
  5  6  1  0  0  0  0
  5 27  1  0  0  0  0
  6  2  1  6  0  0  0
  8  7  2  0  0  0  0
  9  8  1  0  0  0  0
 10 11  1  0  0  0  0
 11 13  2  0  0  0  0
 11 17  1  0  0  0  0
 12 16  1  0  0  0  0
 12 14  2  0  0  0  0
 13 12  1  0  0  0  0
 14 18  1  0  0  0  0
 15  9  1  0  0  0  0
 16 15  1  0  0  0  0
 17 14  1  0  0  0  0
 18 15  2  0  0  0  0
 19 20  1  0  0  0  0
 20 23  2  0  0  0  0
 21 22  2  0  0  0  0
 22 23  1  0  0  0  0
 23  3  1  0  0  0  0
 24 21  1  0  0  0  0
 24 19  2  0  0  0  0
 25 26  1  0  0  0  0
 26 24  1  0  0  0  0
 27 28  1  0  0  0  0
 29 27  1  0  0  0  0
M  END
>  <MODEL>
2

>  <REMARK>
 VINA RESULT:      -6.4      2.382      6.900
  Name = 
  4 active torsions:
  status: ('A' for Active; 'I' for Inactive)
    1  A    between atoms: C_7  and  N_19
    2  A    between atoms: C_13  and  C_21
    3  A    between atoms: C_16  and  C_26
    4  A    between atoms: C_28  and  O_29
                            x       y       z     vdW  Elec       q    Type
                         _______ _______ _______ _____ _____    ______ ____

>  <TORSDO>
F 4

$$$$
=
 OpenBabel11042417273D

 29 33  0  0  1  0  0  0  0  0999 V2000
  188.0600  177.7530  144.5130 C   0  0  2  0  0  3  0  0  0  0  0  0
  185.8740  176.3720  144.3280 C   0  0  0  0  0  2  0  0  0  0  0  0
  188.7520  176.4820  144.0000 C   0  0  0  0  0  0  0  0  0  0  0  0
  188.2090  177.8840  146.0280 C   0  0  0  0  0  2  0  0  0  0  0  0
  186.7930  177.6070  146.2740 N   0  0  0  0  0  0  0  0  0  0  0  0
  186.5610  177.6350  144.8330 C   0  0  1  0  0  3  0  0  0  0  0  0
  185.9560  176.3910  142.8460 C   0  0  0  0  0  3  0  0  0  0  0  0
  187.0700  176.1480  142.2310 N   0  0  0  0  0  0  0  0  0  0  0  0
  188.3230  175.8200  142.8810 C   0  0  0  0  0  0  0  0  0  0  0  0
  192.0470  170.7560  139.1520 N   0  0  0  0  0  1  0  0  0  0  0  0
  191.3760  171.7780  139.8660 C   0  0  0  0  0  0  0  0  0  0  0  0
  189.9260  172.6940  141.2430 C   0  0  0  0  0  0  0  0  0  0  0  0
  190.2880  171.5360  140.6570 N   0  0  0  0  0  0  0  0  0  0  0  0
  190.6410  173.7960  140.9390 C   0  0  0  0  0  0  0  0  0  0  0  0
  189.1220  174.7450  142.2330 C   0  0  0  0  0  0  0  0  0  0  0  0
  188.6440  173.0920  142.2300 S   0  0  0  0  0  0  0  0  0  0  0  0
  191.8780  173.4210  139.8650 S   0  0  0  0  0  0  0  0  0  0  0  0
  190.2280  174.9690  141.4620 N   0  0  0  0  0  0  0  0  0  0  0  0
  191.2020  174.4680  146.0600 C   0  0  0  0  0  3  0  0  0  0  0  0
  190.0070  174.9030  145.4710 C   0  0  0  0  0  3  0  0  0  0  0  0
  192.3670  176.3460  145.0580 C   0  0  0  0  0  3  0  0  0  0  0  0
  191.1810  176.7720  144.4620 C   0  0  0  0  0  3  0  0  0  0  0  0
  189.9910  176.0670  144.6880 C   0  0  0  0  0  0  0  0  0  0  0  0
  192.3880  175.2050  145.8670 C   0  0  0  0  0  0  0  0  0  0  0  0
  194.8300  175.4380  146.1360 C   0  0  0  0  0  1  0  0  0  0  0  0
  193.5930  174.8140  146.4580 O   0  0  0  0  0  0  0  0  0  0  0  0
  186.1120  178.7340  146.9450 C   0  0  0  0  0  3  0  0  0  0  0  0
  184.6300  178.4260  147.1480 C   0  0  0  0  0  1  0  0  0  0  0  0
  186.7350  179.1640  148.2850 C   0  0  0  0  0  1  0  0  0  0  0  0
  1  6  1  0  0  0  0
  1  4  1  1  0  0  0
  3  1  1  0  0  0  0
  3 23  1  0  0  0  0
  4  5  1  0  0  0  0
  5 27  1  0  0  0  0
  6  2  1  6  0  0  0
  6  5  1  0  0  0  0
  7  2  1  0  0  0  0
  8  7  2  0  0  0  0
  8  9  1  0  0  0  0
  9  3  2  0  0  0  0
 10 11  1  0  0  0  0
 11 13  2  0  0  0  0
 12 16  1  0  0  0  0
 13 12  1  0  0  0  0
 14 12  2  0  0  0  0
 14 18  1  0  0  0  0
 15  9  1  0  0  0  0
 16 15  1  0  0  0  0
 17 11  1  0  0  0  0
 17 14  1  0  0  0  0
 18 15  2  0  0  0  0
 20 19  2  0  0  0  0
 21 24  2  0  0  0  0
 22 23  2  0  0  0  0
 22 21  1  0  0  0  0
 23 20  1  0  0  0  0
 24 19  1  0  0  0  0
 24 26  1  0  0  0  0
 25 26  1  0  0  0  0
 27 28  1  0  0  0  0
 27 29  1  0  0  0  0
M  END
>  <MODEL>
3

>  <REMARK>
 VINA RESULT:      -6.4      3.385      7.718
  Name = 
  4 active torsions:
  status: ('A' for Active; 'I' for Inactive)
    1  A    between atoms: C_7  and  N_19
    2  A    between atoms: C_13  and  C_21
    3  A    between atoms: C_16  and  C_26
    4  A    between atoms: C_28  and  O_29
                            x       y       z     vdW  Elec       q    Type
                         _______ _______ _______ _____ _____    ______ ____

>  <TORSDO>
F 4

$$$$
=
 OpenBabel11042417273D

 29 33  0  0  1  0  0  0  0  0999 V2000
  187.8130  176.1910  145.6370 C   0  0  2  0  0  3  0  0  0  0  0  0
  189.5260  177.5500  147.0270 C   0  0  0  0  0  2  0  0  0  0  0  0
  188.8790  176.2210  144.5330 C   0  0  0  0  0  0  0  0  0  0  0  0
  186.7300  177.2380  145.3810 C   0  0  0  0  0  2  0  0  0  0  0  0
  187.1580  178.0740  146.5030 N   0  0  0  0  0  0  0  0  0  0  0  0
  188.1010  177.0290  146.8920 C   0  0  1  0  0  3  0  0  0  0  0  0
  190.4170  176.3670  147.1350 C   0  0  0  0  0  3  0  0  0  0  0  0
  190.6800  175.6280  146.1050 N   0  0  0  0  0  0  0  0  0  0  0  0
  190.1790  175.8600  144.7660 C   0  0  0  0  0  0  0  0  0  0  0  0
  195.2700  174.3960  139.7300 N   0  0  0  0  0  1  0  0  0  0  0  0
  194.2500  174.6280  140.6840 C   0  0  0  0  0  0  0  0  0  0  0  0
  193.0330  175.7330  142.1450 C   0  0  0  0  0  0  0  0  0  0  0  0
  194.1330  175.8030  141.3710 N   0  0  0  0  0  0  0  0  0  0  0  0
  192.3230  174.5860  142.1150 C   0  0  0  0  0  0  0  0  0  0  0  0
  191.1580  175.6460  143.6650 C   0  0  0  0  0  0  0  0  0  0  0  0
  192.3950  176.7760  143.2770 S   0  0  0  0  0  0  0  0  0  0  0  0
  193.0160  173.4890  141.0480 S   0  0  0  0  0  0  0  0  0  0  0  0
  191.2690  174.4860  142.9510 N   0  0  0  0  0  0  0  0  0  0  0  0
  187.3330  175.8540  141.1000 C   0  0  0  0  0  3  0  0  0  0  0  0
  187.8370  175.5380  142.3700 C   0  0  0  0  0  3  0  0  0  0  0  0
  187.9740  178.1700  141.4360 C   0  0  0  0  0  3  0  0  0  0  0  0
  188.4650  177.8580  142.7030 C   0  0  0  0  0  3  0  0  0  0  0  0
  188.4220  176.5350  143.1640 C   0  0  0  0  0  0  0  0  0  0  0  0
  187.4180  177.1770  140.6220 C   0  0  0  0  0  0  0  0  0  0  0  0
  186.6900  176.5500  138.3490 C   0  0  0  0  0  1  0  0  0  0  0  0
  186.9480  177.5240  139.3530 O   0  0  0  0  0  0  0  0  0  0  0  0
  186.0950  178.2370  147.5170 C   0  0  0  0  0  3  0  0  0  0  0  0
  186.3540  179.4720  148.3770 C   0  0  0  0  0  1  0  0  0  0  0  0
  184.6640  178.2950  146.9530 C   0  0  0  0  0  1  0  0  0  0  0  0
  1  4  1  6  0  0  0
  1  6  1  0  0  0  0
  2  7  1  0  0  0  0
  3  9  2  0  0  0  0
  3  1  1  0  0  0  0
  4  5  1  0  0  0  0
  5  6  1  0  0  0  0
  5 27  1  0  0  0  0
  6  2  1  6  0  0  0
  8  7  2  0  0  0  0
  9  8  1  0  0  0  0
 10 11  1  0  0  0  0
 11 17  1  0  0  0  0
 11 13  2  0  0  0  0
 12 16  1  0  0  0  0
 13 12  1  0  0  0  0
 14 12  2  0  0  0  0
 14 18  1  0  0  0  0
 15  9  1  0  0  0  0
 16 15  1  0  0  0  0
 17 14  1  0  0  0  0
 18 15  2  0  0  0  0
 19 20  1  0  0  0  0
 20 23  2  0  0  0  0
 21 22  2  0  0  0  0
 22 23  1  0  0  0  0
 23  3  1  0  0  0  0
 24 19  2  0  0  0  0
 24 21  1  0  0  0  0
 25 26  1  0  0  0  0
 26 24  1  0  0  0  0
 27 28  1  0  0  0  0
 29 27  1  0  0  0  0
M  END
>  <MODEL>
4

>  <REMARK>
 VINA RESULT:      -6.3      3.101      7.063
  Name = 
  4 active torsions:
  status: ('A' for Active; 'I' for Inactive)
    1  A    between atoms: C_7  and  N_19
    2  A    between atoms: C_13  and  C_21
    3  A    between atoms: C_16  and  C_26
    4  A    between atoms: C_28  and  O_29
                            x       y       z     vdW  Elec       q    Type
                         _______ _______ _______ _____ _____    ______ ____

>  <TORSDO>
F 4

$$$$
=
 OpenBabel11042417273D

 29 33  0  0  1  0  0  0  0  0999 V2000
  194.0310  175.1550  143.7510 C   0  0  2  0  0  3  0  0  0  0  0  0
  194.4880  175.1600  146.3020 C   0  0  0  0  0  2  0  0  0  0  0  0
  192.5650  175.3830  144.1450 C   0  0  0  0  0  0  0  0  0  0  0  0
  194.2820  173.6890  143.4000 C   0  0  0  0  0  2  0  0  0  0  0  0
  195.0840  173.4530  144.6020 N   0  0  0  0  0  0  0  0  0  0  0  0
  195.0140  174.8810  144.9000 C   0  0  1  0  0  3  0  0  0  0  0  0
  194.1930  176.6120  146.3790 C   0  0  0  0  0  3  0  0  0  0  0  0
  193.1610  177.1210  145.7850 N   0  0  0  0  0  0  0  0  0  0  0  0
  192.1900  176.3690  145.0170 C   0  0  0  0  0  0  0  0  0  0  0  0
  185.0530  177.7160  145.8340 N   0  0  0  0  0  1  0  0  0  0  0  0
  186.4370  177.4320  145.7370 C   0  0  0  0  0  0  0  0  0  0  0  0
  188.4950  177.5430  144.9720 C   0  0  0  0  0  0  0  0  0  0  0  0
  187.2290  177.9440  144.7490 N   0  0  0  0  0  0  0  0  0  0  0  0
  188.7170  176.7470  146.0390 C   0  0  0  0  0  0  0  0  0  0  0  0
  190.7680  176.7610  145.2150 C   0  0  0  0  0  0  0  0  0  0  0  0
  189.9000  177.7400  144.0980 S   0  0  0  0  0  0  0  0  0  0  0  0
  187.2860  176.4610  146.8710 S   0  0  0  0  0  0  0  0  0  0  0  0
  189.9700  176.2780  146.2150 N   0  0  0  0  0  0  0  0  0  0  0  0
  189.8120  172.8740  143.4840 C   0  0  0  0  0  3  0  0  0  0  0  0
  190.8320  173.5860  144.1320 C   0  0  0  0  0  3  0  0  0  0  0  0
  190.2080  174.1650  141.4680 C   0  0  0  0  0  3  0  0  0  0  0  0
  191.2140  174.8810  142.1160 C   0  0  0  0  0  3  0  0  0  0  0  0
  191.5470  174.5760  143.4420 C   0  0  0  0  0  0  0  0  0  0  0  0
  189.5090  173.1530  142.1360 C   0  0  0  0  0  0  0  0  0  0  0  0
  188.1930  172.7230  140.0940 C   0  0  0  0  0  1  0  0  0  0  0  0
  188.5160  172.4480  141.4520 O   0  0  0  0  0  0  0  0  0  0  0  0
  196.4670  173.0420  144.2800 C   0  0  0  0  0  3  0  0  0  0  0  0
  197.1920  172.5580  145.5340 C   0  0  0  0  0  1  0  0  0  0  0  0
  196.5870  171.9790  143.1750 C   0  0  0  0  0  1  0  0  0  0  0  0
  1  4  1  6  0  0  0
  1  3  1  0  0  0  0
  1  6  1  0  0  0  0
  2  7  1  0  0  0  0
  3  9  2  0  0  0  0
  4  5  1  0  0  0  0
  5  6  1  0  0  0  0
  6  2  1  1  0  0  0
  8  7  2  0  0  0  0
  9 15  1  0  0  0  0
  9  8  1  0  0  0  0
 11 10  1  0  0  0  0
 11 17  1  0  0  0  0
 12 14  2  0  0  0  0
 13 12  1  0  0  0  0
 13 11  2  0  0  0  0
 14 18  1  0  0  0  0
 14 17  1  0  0  0  0
 15 18  2  0  0  0  0
 16 12  1  0  0  0  0
 16 15  1  0  0  0  0
 19 20  1  0  0  0  0
 21 22  2  0  0  0  0
 21 24  1  0  0  0  0
 22 23  1  0  0  0  0
 23 20  2  0  0  0  0
 23  3  1  0  0  0  0
 24 19  2  0  0  0  0
 25 26  1  0  0  0  0
 26 24  1  0  0  0  0
 27  5  1  0  0  0  0
 27 28  1  0  0  0  0
 29 27  1  0  0  0  0
M  END
>  <MODEL>
5

>  <REMARK>
 VINA RESULT:      -6.1      1.326      1.813
  Name = 
  4 active torsions:
  status: ('A' for Active; 'I' for Inactive)
    1  A    between atoms: C_7  and  N_19
    2  A    between atoms: C_13  and  C_21
    3  A    between atoms: C_16  and  C_26
    4  A    between atoms: C_28  and  O_29
                            x       y       z     vdW  Elec       q    Type
                         _______ _______ _______ _____ _____    ______ ____

>  <TORSDO>
F 4

$$$$
=
 OpenBabel11042417273D

 29 33  0  0  1  0  0  0  0  0999 V2000
  188.2760  175.6050  143.7430 C   0  0  2  0  0  3  0  0  0  0  0  0
  189.4320  177.9230  143.6690 C   0  0  0  0  0  2  0  0  0  0  0  0
  189.6920  175.0380  143.5790 C   0  0  0  0  0  0  0  0  0  0  0  0
  187.5250  175.5970  142.4130 C   0  0  0  0  0  2  0  0  0  0  0  0
  187.5610  177.0550  142.2890 N   0  0  0  0  0  0  0  0  0  0  0  0
  188.1310  177.1310  143.6310 C   0  0  1  0  0  3  0  0  0  0  0  0
  190.0520  177.6870  144.9960 C   0  0  0  0  0  3  0  0  0  0  0  0
  190.6170  176.5580  145.2830 N   0  0  0  0  0  0  0  0  0  0  0  0
  190.7330  175.4330  144.3770 C   0  0  0  0  0  0  0  0  0  0  0  0
  197.1760  172.0560  145.0880 N   0  0  0  0  0  1  0  0  0  0  0  0
  195.8980  172.6550  144.9680 C   0  0  0  0  0  0  0  0  0  0  0  0
  194.3700  174.0940  144.3130 C   0  0  0  0  0  0  0  0  0  0  0  0
  195.6910  173.8290  144.3030 N   0  0  0  0  0  0  0  0  0  0  0  0
  193.5660  173.2230  144.9560 C   0  0  0  0  0  0  0  0  0  0  0  0
  192.0390  174.7200  144.3980 C   0  0  0  0  0  0  0  0  0  0  0  0
  193.4890  175.3990  143.7670 S   0  0  0  0  0  0  0  0  0  0  0  0
  194.4610  171.9540  145.5960 S   0  0  0  0  0  0  0  0  0  0  0  0
  192.2550  173.5320  145.0370 N   0  0  0  0  0  0  0  0  0  0  0  0
  190.7380  173.1290  140.4850 C   0  0  0  0  0  3  0  0  0  0  0  0
  190.5020  174.1850  141.3770 C   0  0  0  0  0  3  0  0  0  0  0  0
  189.7340  171.5860  142.0660 C   0  0  0  0  0  3  0  0  0  0  0  0
  189.5100  172.6340  142.9580 C   0  0  0  0  0  3  0  0  0  0  0  0
  189.8690  173.9420  142.6040 C   0  0  0  0  0  0  0  0  0  0  0  0
  190.3350  171.8220  140.8240 C   0  0  0  0  0  0  0  0  0  0  0  0
  190.9400  169.4650  140.4110 C   0  0  0  0  0  1  0  0  0  0  0  0
  190.5330  170.7490  139.9520 O   0  0  0  0  0  0  0  0  0  0  0  0
  186.2070  177.6470  142.2510 C   0  0  0  0  0  3  0  0  0  0  0  0
  186.1810  178.9840  142.9870 C   0  0  0  0  0  1  0  0  0  0  0  0
  185.6170  177.8260  140.8410 C   0  0  0  0  0  1  0  0  0  0  0  0
  1  4  1  6  0  0  0
  2  7  1  0  0  0  0
  3  1  1  0  0  0  0
  3  9  2  0  0  0  0
  5  4  1  0  0  0  0
  5  6  1  0  0  0  0
  6  2  1  6  0  0  0
  6  1  1  0  0  0  0
  7  8  2  0  0  0  0
  9 15  1  0  0  0  0
  9  8  1  0  0  0  0
 11 10  1  0  0  0  0
 11 17  1  0  0  0  0
 12 14  2  0  0  0  0
 13 12  1  0  0  0  0
 13 11  2  0  0  0  0
 14 18  1  0  0  0  0
 14 17  1  0  0  0  0
 15 18  2  0  0  0  0
 16 12  1  0  0  0  0
 16 15  1  0  0  0  0
 19 24  2  0  0  0  0
 19 20  1  0  0  0  0
 20 23  2  0  0  0  0
 21 22  2  0  0  0  0
 23 22  1  0  0  0  0
 23  3  1  0  0  0  0
 24 21  1  0  0  0  0
 26 25  1  0  0  0  0
 26 24  1  0  0  0  0
 27  5  1  0  0  0  0
 27 28  1  0  0  0  0
 29 27  1  0  0  0  0
M  END
>  <MODEL>
6

>  <REMARK>
 VINA RESULT:      -5.9      2.850      6.971
  Name = 
  4 active torsions:
  status: ('A' for Active; 'I' for Inactive)
    1  A    between atoms: C_7  and  N_19
    2  A    between atoms: C_13  and  C_21
    3  A    between atoms: C_16  and  C_26
    4  A    between atoms: C_28  and  O_29
                            x       y       z     vdW  Elec       q    Type
                         _______ _______ _______ _____ _____    ______ ____

>  <TORSDO>
F 4

$$$$
=
 OpenBabel11042417273D

 29 33  0  0  1  0  0  0  0  0999 V2000
  190.6210  172.3840  142.1330 C   0  0  2  0  0  3  0  0  0  0  0  0
  189.8470  172.7360  139.6850 C   0  0  0  0  0  2  0  0  0  0  0  0
  190.1030  173.8100  142.3640 C   0  0  0  0  0  0  0  0  0  0  0  0
  192.1400  172.3710  141.9730 C   0  0  0  0  0  2  0  0  0  0  0  0
  192.0690  172.0470  140.5470 N   0  0  0  0  0  0  0  0  0  0  0  0
  190.6250  171.8840  140.6800 C   0  0  1  0  0  3  0  0  0  0  0  0
  188.4230  172.7090  140.1020 C   0  0  0  0  0  3  0  0  0  0  0  0
  188.0130  173.3700  141.1370 N   0  0  0  0  0  0  0  0  0  0  0  0
  188.8510  174.2040  141.9760 C   0  0  0  0  0  0  0  0  0  0  0  0
  185.3640  180.2200  144.2250 N   0  0  0  0  0  1  0  0  0  0  0  0
  186.0540  179.0420  143.8510 C   0  0  0  0  0  0  0  0  0  0  0  0
  187.1220  177.6250  142.5520 C   0  0  0  0  0  0  0  0  0  0  0  0
  186.4340  178.7830  142.5650 N   0  0  0  0  0  0  0  0  0  0  0  0
  187.2700  176.9760  143.7250 C   0  0  0  0  0  0  0  0  0  0  0  0
  188.2480  175.4930  142.4100 C   0  0  0  0  0  0  0  0  0  0  0  0
  187.7640  176.7220  141.3070 S   0  0  0  0  0  0  0  0  0  0  0  0
  186.5390  177.8330  144.9710 S   0  0  0  0  0  0  0  0  0  0  0  0
  187.8870  175.7760  143.6980 N   0  0  0  0  0  0  0  0  0  0  0  0
  191.9990  175.3460  145.2560 C   0  0  0  0  0  3  0  0  0  0  0  0
  191.1200  174.5310  144.5280 C   0  0  0  0  0  3  0  0  0  0  0  0
  192.5870  176.5150  143.2130 C   0  0  0  0  0  3  0  0  0  0  0  0
  191.7220  175.6970  142.4870 C   0  0  0  0  0  3  0  0  0  0  0  0
  190.9660  174.7200  143.1470 C   0  0  0  0  0  0  0  0  0  0  0  0
  192.7250  176.3580  144.5970 C   0  0  0  0  0  0  0  0  0  0  0  0
  194.1980  176.8210  146.5210 C   0  0  0  0  0  1  0  0  0  0  0  0
  193.5920  177.2040  145.2930 O   0  0  0  0  0  0  0  0  0  0  0  0
  192.7250  170.7600  140.2330 C   0  0  0  0  0  3  0  0  0  0  0  0
  192.6720  170.4790  138.7330 C   0  0  0  0  0  1  0  0  0  0  0  0
  194.1770  170.6340  140.7280 C   0  0  0  0  0  1  0  0  0  0  0  0
  1  4  1  6  0  0  0
  1  3  1  0  0  0  0
  2  7  1  0  0  0  0
  3 23  1  0  0  0  0
  5  6  1  0  0  0  0
  5  4  1  0  0  0  0
  6  2  1  6  0  0  0
  6  1  1  0  0  0  0
  7  8  2  0  0  0  0
  8  9  1  0  0  0  0
  9  3  2  0  0  0  0
  9 15  1  0  0  0  0
 11 10  1  0  0  0  0
 11 17  1  0  0  0  0
 12 13  1  0  0  0  0
 12 14  2  0  0  0  0
 13 11  2  0  0  0  0
 14 17  1  0  0  0  0
 15 18  2  0  0  0  0
 16 15  1  0  0  0  0
 16 12  1  0  0  0  0
 18 14  1  0  0  0  0
 20 19  2  0  0  0  0
 21 24  2  0  0  0  0
 22 23  2  0  0  0  0
 22 21  1  0  0  0  0
 23 20  1  0  0  0  0
 24 19  1  0  0  0  0
 24 26  1  0  0  0  0
 26 25  1  0  0  0  0
 27  5  1  0  0  0  0
 27 29  1  0  0  0  0
 28 27  1  0  0  0  0
M  END
>  <MODEL>
7

>  <REMARK>
 VINA RESULT:      -5.8      3.090      5.199
  Name = 
  4 active torsions:
  status: ('A' for Active; 'I' for Inactive)
    1  A    between atoms: C_7  and  N_19
    2  A    between atoms: C_13  and  C_21
    3  A    between atoms: C_16  and  C_26
    4  A    between atoms: C_28  and  O_29
                            x       y       z     vdW  Elec       q    Type
                         _______ _______ _______ _____ _____    ______ ____

>  <TORSDO>
F 4

$$$$
=
 OpenBabel11042417273D

 29 33  0  0  1  0  0  0  0  0999 V2000
  188.4900  177.3520  143.0910 C   0  0  2  0  0  3  0  0  0  0  0  0
  186.7600  175.6420  142.1970 C   0  0  0  0  0  2  0  0  0  0  0  0
  189.2650  176.1190  143.5750 C   0  0  0  0  0  0  0  0  0  0  0  0
  187.7150  177.9970  144.2390 C   0  0  0  0  0  2  0  0  0  0  0  0
  186.4170  177.5840  143.7030 N   0  0  0  0  0  0  0  0  0  0  0  0
  187.0930  177.0970  142.5050 C   0  0  1  0  0  3  0  0  0  0  0  0
  187.7100  175.1860  141.1530 C   0  0  0  0  0  3  0  0  0  0  0  0
  188.9510  174.9440  141.4330 N   0  0  0  0  0  0  0  0  0  0  0  0
  189.5450  175.0640  142.7490 C   0  0  0  0  0  0  0  0  0  0  0  0
  194.3230  169.6740  143.9920 N   0  0  0  0  0  1  0  0  0  0  0  0
  193.4470  170.7600  143.7470 C   0  0  0  0  0  0  0  0  0  0  0  0
  191.5680  171.9010  143.7150 C   0  0  0  0  0  0  0  0  0  0  0  0
  192.1040  170.6950  143.9860 N   0  0  0  0  0  0  0  0  0  0  0  0
  192.3980  172.8640  143.2660 C   0  0  0  0  0  0  0  0  0  0  0  0
  190.4980  173.9850  143.1260 C   0  0  0  0  0  0  0  0  0  0  0  0
  189.9940  172.4470  143.7100 S   0  0  0  0  0  0  0  0  0  0  0  0
  193.9740  172.2910  143.1740 S   0  0  0  0  0  0  0  0  0  0  0  0
  191.8480  174.0460  142.9170 N   0  0  0  0  0  0  0  0  0  0  0  0
  191.2870  177.1920  146.5870 C   0  0  0  0  0  3  0  0  0  0  0  0
  190.8180  177.0940  145.2690 C   0  0  0  0  0  3  0  0  0  0  0  0
  189.7320  175.4520  147.2550 C   0  0  0  0  0  3  0  0  0  0  0  0
  189.2580  175.3640  145.9470 C   0  0  0  0  0  3  0  0  0  0  0  0
  189.8180  176.1670  144.9440 C   0  0  0  0  0  0  0  0  0  0  0  0
  190.7530  176.3520  147.5850 C   0  0  0  0  0  0  0  0  0  0  0  0
  191.5990  177.6250  149.5220 C   0  0  0  0  0  1  0  0  0  0  0  0
  191.2120  176.4040  148.9030 O   0  0  0  0  0  0  0  0  0  0  0  0
  185.5470  178.7380  143.3930 C   0  0  0  0  0  3  0  0  0  0  0  0
  184.1580  178.2690  142.9660 C   0  0  0  0  0  1  0  0  0  0  0  0
  185.4140  179.7730  144.5250 C   0  0  0  0  0  1  0  0  0  0  0  0
  1  3  1  0  0  0  0
  1  4  1  1  0  0  0
  3 23  1  0  0  0  0
  5  4  1  0  0  0  0
  6  2  1  1  0  0  0
  6  1  1  0  0  0  0
  6  5  1  0  0  0  0
  7  8  2  0  0  0  0
  7  2  1  0  0  0  0
  8  9  1  0  0  0  0
  9 15  1  0  0  0  0
  9  3  2  0  0  0  0
 11 13  2  0  0  0  0
 11 10  1  0  0  0  0
 12 13  1  0  0  0  0
 14 12  2  0  0  0  0
 15 16  1  0  0  0  0
 16 12  1  0  0  0  0
 17 14  1  0  0  0  0
 17 11  1  0  0  0  0
 18 15  2  0  0  0  0
 18 14  1  0  0  0  0
 19 24  1  0  0  0  0
 20 19  2  0  0  0  0
 21 24  2  0  0  0  0
 22 21  1  0  0  0  0
 23 20  1  0  0  0  0
 23 22  2  0  0  0  0
 24 26  1  0  0  0  0
 26 25  1  0  0  0  0
 27  5  1  0  0  0  0
 27 29  1  0  0  0  0
 28 27  1  0  0  0  0
M  END
>  <MODEL>
8

>  <REMARK>
 VINA RESULT:      -5.7      3.342      8.039
  Name = 
  4 active torsions:
  status: ('A' for Active; 'I' for Inactive)
    1  A    between atoms: C_7  and  N_19
    2  A    between atoms: C_13  and  C_21
    3  A    between atoms: C_16  and  C_26
    4  A    between atoms: C_28  and  O_29
                            x       y       z     vdW  Elec       q    Type
                         _______ _______ _______ _____ _____    ______ ____

>  <TORSDO>
F 4

$$$$
=
 OpenBabel11042417273D

 29 33  0  0  1  0  0  0  0  0999 V2000
  188.8890  176.7330  143.7810 C   0  0  2  0  0  3  0  0  0  0  0  0
  186.4280  176.2310  143.1440 C   0  0  0  0  0  2  0  0  0  0  0  0
  189.2220  175.4830  142.9560 C   0  0  0  0  0  0  0  0  0  0  0  0
  188.8860  176.4190  145.2760 C   0  0  0  0  0  2  0  0  0  0  0  0
  187.4340  176.5640  145.3870 N   0  0  0  0  0  0  0  0  0  0  0  0
  187.3980  177.0300  144.0040 C   0  0  1  0  0  3  0  0  0  0  0  0
  186.6910  176.5980  141.7300 C   0  0  0  0  0  3  0  0  0  0  0  0
  187.7450  176.1730  141.1090 N   0  0  0  0  0  0  0  0  0  0  0  0
  188.7520  175.3020  141.6830 C   0  0  0  0  0  0  0  0  0  0  0  0
  191.3070  170.4600  136.8410 N   0  0  0  0  0  1  0  0  0  0  0  0
  190.8730  171.4140  137.7940 C   0  0  0  0  0  0  0  0  0  0  0  0
  189.5220  172.4220  139.2050 C   0  0  0  0  0  0  0  0  0  0  0  0
  189.5950  171.4520  138.2740 N   0  0  0  0  0  0  0  0  0  0  0  0
  190.6390  173.1370  139.4490 C   0  0  0  0  0  0  0  0  0  0  0  0
  189.2610  174.2280  140.7880 C   0  0  0  0  0  0  0  0  0  0  0  0
  188.2440  173.0330  140.0830 S   0  0  0  0  0  0  0  0  0  0  0  0
  191.9100  172.5920  138.4940 S   0  0  0  0  0  0  0  0  0  0  0  0
  190.5440  174.1620  140.3210 N   0  0  0  0  0  0  0  0  0  0  0  0
  190.7060  172.2990  144.3600 C   0  0  0  0  0  3  0  0  0  0  0  0
  189.7750  173.2290  143.8770 C   0  0  0  0  0  3  0  0  0  0  0  0
  192.4600  173.9630  144.1440 C   0  0  0  0  0  3  0  0  0  0  0  0
  191.5350  174.8830  143.6520 C   0  0  0  0  0  3  0  0  0  0  0  0
  190.1850  174.5270  143.5420 C   0  0  0  0  0  0  0  0  0  0  0  0
  192.0570  172.6740  144.5120 C   0  0  0  0  0  0  0  0  0  0  0  0
  193.1500  170.4620  144.5020 C   0  0  0  0  0  1  0  0  0  0  0  0
  193.0080  171.7820  145.0120 O   0  0  0  0  0  0  0  0  0  0  0  0
  187.0500  177.6400  146.3240 C   0  0  0  0  0  3  0  0  0  0  0  0
  186.1360  178.6530  145.6370 C   0  0  0  0  0  1  0  0  0  0  0  0
  186.3930  177.1600  147.6310 C   0  0  0  0  0  1  0  0  0  0  0  0
  1  6  1  0  0  0  0
  1  4  1  1  0  0  0
  3 23  1  0  0  0  0
  3  1  1  0  0  0  0
  4  5  1  0  0  0  0
  5 27  1  0  0  0  0
  6  2  1  6  0  0  0
  6  5  1  0  0  0  0
  7  2  1  0  0  0  0
  8  9  1  0  0  0  0
  8  7  2  0  0  0  0
  9  3  2  0  0  0  0
 10 11  1  0  0  0  0
 11 13  2  0  0  0  0
 11 17  1  0  0  0  0
 12 14  2  0  0  0  0
 12 16  1  0  0  0  0
 13 12  1  0  0  0  0
 14 18  1  0  0  0  0
 15  9  1  0  0  0  0
 16 15  1  0  0  0  0
 17 14  1  0  0  0  0
 18 15  2  0  0  0  0
 19 24  1  0  0  0  0
 20 19  2  0  0  0  0
 21 24  2  0  0  0  0
 22 21  1  0  0  0  0
 23 22  2  0  0  0  0
 23 20  1  0  0  0  0
 24 26  1  0  0  0  0
 25 26  1  0  0  0  0
 27 29  1  0  0  0  0
 28 27  1  0  0  0  0
M  END
>  <MODEL>
9

>  <REMARK>
 VINA RESULT:      -5.6      3.909      7.598
  Name = 
  4 active torsions:
  status: ('A' for Active; 'I' for Inactive)
    1  A    between atoms: C_7  and  N_19
    2  A    between atoms: C_13  and  C_21
    3  A    between atoms: C_16  and  C_26
    4  A    between atoms: C_28  and  O_29
                            x       y       z     vdW  Elec       q    Type
                         _______ _______ _______ _____ _____    ______ ____

>  <TORSDO>
F 4

$$$$
