=
 OpenBabel11042413493D

 25 26  0  0  1  0  0  0  0  0999 V2000
  187.0470  176.2420  143.4270 C   0  0  0  0  0  0  0  0  0  0  0  0
  187.0390  175.1780  142.6050 C   0  0  0  0  0  3  0  0  0  0  0  0
  188.2420  176.6830  144.1740 C   0  0  0  0  0  0  0  0  0  0  0  0
  189.1630  177.5680  143.5980 C   0  0  0  0  0  3  0  0  0  0  0  0
  191.1330  178.7340  143.8030 O   0  0  0  0  0  0  0  0  0  0  0  0
  189.6680  176.5330  146.1180 C   0  0  0  0  0  3  0  0  0  0  0  0
  188.5100  176.1480  145.4390 C   0  0  0  0  0  2  0  0  0  0  0  0
  190.5350  177.4110  145.5450 N   0  0  0  0  0  0  0  0  0  0  0  0
  190.3080  177.9290  144.3090 C   0  0  0  0  0  0  0  0  0  0  0  0
  189.9320  173.1150  142.2610 C   0  0  0  0  0  3  0  0  0  0  0  0
  188.2040  174.3800  142.1860 C   0  0  0  0  0  0  0  0  0  0  0  0
  189.7960  173.4720  140.9240 C   0  0  0  0  0  3  0  0  0  0  0  0
  188.9760  173.6730  142.9740 O   0  0  0  0  0  0  0  0  0  0  0  0
  188.1370  174.9130  139.7530 N   0  0  0  0  0  1  0  0  0  0  0  0
  188.6850  174.2830  140.9060 C   0  0  0  0  0  0  0  0  0  0  0  0
  185.7610  176.9860  143.6750 C   0  0  1  0  0  3  0  0  0  0  0  0
  185.3780  177.9700  145.9820 C   0  0  0  0  0  0  0  0  0  0  0  0
  185.9310  178.0470  144.6670 N   0  0  0  0  0  2  0  0  0  0  0  0
  184.6770  176.9830  146.3280 O   0  0  0  0  0  0  0  0  0  0  0  0
  185.6030  179.0860  146.9400 C   0  0  0  0  0  2  0  0  0  0  0  0
  186.7080  178.7180  147.9100 C   0  0  0  0  0  1  0  0  0  0  0  0
  183.8800  178.2810  142.6630 C   0  0  0  0  0  1  0  0  0  0  0  0
  185.1680  177.5300  142.3740 C   0  0  1  0  0  3  0  0  0  0  0  0
  186.0730  178.3750  141.7230 O   0  0  0  0  0  0  0  0  0  0  0  0
  186.0190  177.9950  140.3820 C   0  0  0  0  0  1  0  0  0  0  0  0
  1  3  1  0  0  0  0
  2  1  2  0  0  0  0
  3  7  1  0  0  0  0
  4  3  2  0  0  0  0
  4  9  1  0  0  0  0
  5  9  2  0  0  0  0
  7  6  1  0  0  0  0
  8  6  2  0  0  0  0
  9  8  1  0  0  0  0
 10 13  1  0  0  0  0
 11  2  1  0  0  0  0
 11 13  1  0  0  0  0
 12 10  2  0  0  0  0
 14 15  1  0  0  0  0
 15 12  1  0  0  0  0
 15 11  2  0  0  0  0
 16  1  1  6  0  0  0
 16 18  1  0  0  0  0
 17 19  2  0  0  0  0
 17 20  1  0  0  0  0
 18 17  1  0  0  0  0
 20 21  1  0  0  0  0
 23 22  1  1  0  0  0
 23 16  1  0  0  0  0
 24 23  1  0  0  0  0
 25 24  1  0  0  0  0
M  END
>  <MODEL>
1

>  <REMARK>
 VINA RESULT:      -6.2      0.000      0.000
  Name = 
  7 active torsions:
  status: ('A' for Active; 'I' for Inactive)
    1  A    between atoms: C_1  and  C_2
    2  A    between atoms: C_2  and  C_6
    3  A    between atoms: C_3  and  C_4
    4  A    between atoms: N_5  and  C_6
    5  A    between atoms: C_6  and  C_19
    6  A    between atoms: O_7  and  C_19
    7  A    between atoms: C_9  and  C_20
                            x       y       z     vdW  Elec       q    Type
                         _______ _______ _______ _____ _____    ______ ____

>  <TORSDO>
F 7

$$$$
=
 OpenBabel11042413493D

 25 26  0  0  1  0  0  0  0  0999 V2000
  188.6180  177.2360  144.5940 C   0  0  0  0  0  0  0  0  0  0  0  0
  189.1680  177.2340  143.3680 C   0  0  0  0  0  3  0  0  0  0  0  0
  189.2230  176.5540  145.7570 C   0  0  0  0  0  0  0  0  0  0  0  0
  190.1060  177.2330  146.6080 C   0  0  0  0  0  3  0  0  0  0  0  0
  191.4840  177.1560  148.4460 O   0  0  0  0  0  0  0  0  0  0  0  0
  189.5990  174.5430  147.0410 C   0  0  0  0  0  3  0  0  0  0  0  0
  188.9840  175.1910  145.9680 C   0  0  0  0  0  2  0  0  0  0  0  0
  190.4350  175.2310  147.8650 N   0  0  0  0  0  0  0  0  0  0  0  0
  190.7000  176.5500  147.6690 C   0  0  0  0  0  0  0  0  0  0  0  0
  192.6010  176.6120  142.6130 C   0  0  0  0  0  3  0  0  0  0  0  0
  190.4960  176.7140  142.9980 C   0  0  0  0  0  0  0  0  0  0  0  0
  192.1030  175.3630  142.2630 C   0  0  0  0  0  3  0  0  0  0  0  0
  191.6210  177.3830  143.0390 O   0  0  0  0  0  0  0  0  0  0  0  0
  189.7970  174.4240  142.3090 N   0  0  0  0  0  1  0  0  0  0  0  0
  190.7540  175.4570  142.5170 C   0  0  0  0  0  0  0  0  0  0  0  0
  187.2760  177.8900  144.7960 C   0  0  1  0  0  3  0  0  0  0  0  0
  185.5680  178.7050  143.1060 C   0  0  0  0  0  0  0  0  0  0  0  0
  186.3900  177.6730  143.6540 N   0  0  0  0  0  2  0  0  0  0  0  0
  185.5490  179.8540  143.6230 O   0  0  0  0  0  0  0  0  0  0  0  0
  184.6990  178.4100  141.9350 C   0  0  0  0  0  2  0  0  0  0  0  0
  185.5550  178.1130  140.7200 C   0  0  0  0  0  1  0  0  0  0  0  0
  186.3820  178.6310  147.0070 C   0  0  0  0  0  1  0  0  0  0  0  0
  186.6220  177.4360  146.1020 C   0  0  1  0  0  3  0  0  0  0  0  0
  185.4130  176.7760  145.8570 O   0  0  0  0  0  0  0  0  0  0  0  0
  184.4470  177.5430  146.5090 C   0  0  0  0  0  1  0  0  0  0  0  0
  1 16  1  0  0  0  0
  1  3  1  0  0  0  0
  2  1  2  0  0  0  0
  3  7  1  0  0  0  0
  3  4  2  0  0  0  0
  4  9  1  0  0  0  0
  6  8  2  0  0  0  0
  7  6  1  0  0  0  0
  9  8  1  0  0  0  0
  9  5  2  0  0  0  0
 10 13  1  0  0  0  0
 11 13  1  0  0  0  0
 11  2  1  0  0  0  0
 12 15  1  0  0  0  0
 12 10  2  0  0  0  0
 14 15  1  0  0  0  0
 15 11  2  0  0  0  0
 16 18  1  6  0  0  0
 16 23  1  0  0  0  0
 17 19  2  0  0  0  0
 17 18  1  0  0  0  0
 20 17  1  0  0  0  0
 21 20  1  0  0  0  0
 23 22  1  1  0  0  0
 24 23  1  0  0  0  0
 24 25  1  0  0  0  0
M  END
>  <MODEL>
2

>  <REMARK>
 VINA RESULT:      -6.2      2.085      3.867
  Name = 
  7 active torsions:
  status: ('A' for Active; 'I' for Inactive)
    1  A    between atoms: C_1  and  C_2
    2  A    between atoms: C_2  and  C_6
    3  A    between atoms: C_3  and  C_4
    4  A    between atoms: N_5  and  C_6
    5  A    between atoms: C_6  and  C_19
    6  A    between atoms: O_7  and  C_19
    7  A    between atoms: C_9  and  C_20
                            x       y       z     vdW  Elec       q    Type
                         _______ _______ _______ _____ _____    ______ ____

>  <TORSDO>
F 7

$$$$
=
 OpenBabel11042413493D

 25 26  0  0  1  0  0  0  0  0999 V2000
  189.2550  176.0340  144.9220 C   0  0  0  0  0  0  0  0  0  0  0  0
  190.1820  176.9070  145.3510 C   0  0  0  0  0  3  0  0  0  0  0  0
  189.5820  174.6890  144.4060 C   0  0  0  0  0  0  0  0  0  0  0  0
  189.7670  174.4730  143.0340 C   0  0  0  0  0  3  0  0  0  0  0  0
  190.2080  172.9830  141.3400 O   0  0  0  0  0  0  0  0  0  0  0  0
  189.8870  172.3220  144.7770 C   0  0  0  0  0  3  0  0  0  0  0  0
  189.6250  173.5980  145.2800 C   0  0  0  0  0  2  0  0  0  0  0  0
  190.0840  172.1430  143.4430 N   0  0  0  0  0  0  0  0  0  0  0  0
  190.0280  173.1830  142.5690 C   0  0  0  0  0  0  0  0  0  0  0  0
  193.7270  176.5360  145.1540 C   0  0  0  0  0  3  0  0  0  0  0  0
  191.6210  176.6470  145.5310 C   0  0  0  0  0  0  0  0  0  0  0  0
  193.5470  175.9470  146.3990 C   0  0  0  0  0  3  0  0  0  0  0  0
  192.5670  176.9340  144.6720 O   0  0  0  0  0  0  0  0  0  0  0  0
  191.5020  175.5490  147.7640 N   0  0  0  0  0  1  0  0  0  0  0  0
  192.1900  176.0290  146.6140 C   0  0  0  0  0  0  0  0  0  0  0  0
  187.8100  176.4590  144.8810 C   0  0  1  0  0  3  0  0  0  0  0  0
  186.1500  177.1410  146.6750 C   0  0  0  0  0  0  0  0  0  0  0  0
  187.4390  177.2340  146.0640 N   0  0  0  0  0  2  0  0  0  0  0  0
  185.2570  176.4020  146.1820 O   0  0  0  0  0  0  0  0  0  0  0  0
  185.8500  177.9530  147.8850 C   0  0  0  0  0  2  0  0  0  0  0  0
  185.9780  179.4280  147.5600 C   0  0  0  0  0  1  0  0  0  0  0  0
  186.4330  176.4730  142.7980 C   0  0  0  0  0  1  0  0  0  0  0  0
  187.4870  177.2210  143.5940 C   0  0  1  0  0  3  0  0  0  0  0  0
  187.0400  178.5170  143.8740 O   0  0  0  0  0  0  0  0  0  0  0  0
  185.9960  178.7380  142.9760 C   0  0  0  0  0  1  0  0  0  0  0  0
  1  2  2  0  0  0  0
  2 11  1  0  0  0  0
  3  1  1  0  0  0  0
  3  7  1  0  0  0  0
  4  3  2  0  0  0  0
  5  9  2  0  0  0  0
  6  7  1  0  0  0  0
  8  6  2  0  0  0  0
  9  4  1  0  0  0  0
  9  8  1  0  0  0  0
 10 12  2  0  0  0  0
 11 15  2  0  0  0  0
 12 15  1  0  0  0  0
 13 10  1  0  0  0  0
 13 11  1  0  0  0  0
 15 14  1  0  0  0  0
 16  1  1  1  0  0  0
 16 18  1  0  0  0  0
 17 20  1  0  0  0  0
 18 17  1  0  0  0  0
 19 17  2  0  0  0  0
 21 20  1  0  0  0  0
 23 22  1  1  0  0  0
 23 24  1  0  0  0  0
 23 16  1  0  0  0  0
 25 24  1  0  0  0  0
M  END
>  <MODEL>
3

>  <REMARK>
 VINA RESULT:      -6.1      2.277      4.373
  Name = 
  7 active torsions:
  status: ('A' for Active; 'I' for Inactive)
    1  A    between atoms: C_1  and  C_2
    2  A    between atoms: C_2  and  C_6
    3  A    between atoms: C_3  and  C_4
    4  A    between atoms: N_5  and  C_6
    5  A    between atoms: C_6  and  C_19
    6  A    between atoms: O_7  and  C_19
    7  A    between atoms: C_9  and  C_20
                            x       y       z     vdW  Elec       q    Type
                         _______ _______ _______ _____ _____    ______ ____

>  <TORSDO>
F 7

$$$$
=
 OpenBabel11042413493D

 25 26  0  0  1  0  0  0  0  0999 V2000
  187.9580  176.5740  144.3820 C   0  0  0  0  0  0  0  0  0  0  0  0
  186.8780  176.5170  143.5840 C   0  0  0  0  0  3  0  0  0  0  0  0
  189.3390  176.6910  143.8720 C   0  0  0  0  0  0  0  0  0  0  0  0
  190.0660  175.5510  143.5020 C   0  0  0  0  0  3  0  0  0  0  0  0
  192.0420  174.6710  142.7240 O   0  0  0  0  0  0  0  0  0  0  0  0
  191.2890  178.0360  143.3990 C   0  0  0  0  0  3  0  0  0  0  0  0
  189.9660  177.9420  143.8360 C   0  0  0  0  0  2  0  0  0  0  0  0
  191.9650  176.9170  143.0250 N   0  0  0  0  0  0  0  0  0  0  0  0
  191.3860  175.6880  143.0700 C   0  0  0  0  0  0  0  0  0  0  0  0
  187.2680  176.4790  140.0360 C   0  0  0  0  0  3  0  0  0  0  0  0
  186.8490  176.7120  142.1240 C   0  0  0  0  0  0  0  0  0  0  0  0
  186.4000  177.5610  140.1170 C   0  0  0  0  0  3  0  0  0  0  0  0
  187.5120  176.0070  141.2410 O   0  0  0  0  0  0  0  0  0  0  0  0
  185.3140  178.6730  142.0630 N   0  0  0  0  0  1  0  0  0  0  0  0
  186.1510  177.6900  141.4640 C   0  0  0  0  0  0  0  0  0  0  0  0
  187.7780  176.4300  145.8710 C   0  0  1  0  0  3  0  0  0  0  0  0
  189.6600  175.3480  147.1850 C   0  0  0  0  0  0  0  0  0  0  0  0
  189.0550  176.4920  146.5790 N   0  0  0  0  0  2  0  0  0  0  0  0
  189.0820  174.2280  147.1630 O   0  0  0  0  0  0  0  0  0  0  0  0
  190.9670  175.4880  147.8800 C   0  0  0  0  0  2  0  0  0  0  0  0
  191.9630  176.1810  146.9710 C   0  0  0  0  0  1  0  0  0  0  0  0
  185.4800  176.7780  146.7840 C   0  0  0  0  0  1  0  0  0  0  0  0
  186.7870  177.4580  146.4170 C   0  0  1  0  0  3  0  0  0  0  0  0
  187.3100  178.1160  147.5360 O   0  0  0  0  0  0  0  0  0  0  0  0
  186.3080  179.0040  147.9310 C   0  0  0  0  0  1  0  0  0  0  0  0
  2  1  2  0  0  0  0
  3  1  1  0  0  0  0
  4  3  2  0  0  0  0
  5  9  2  0  0  0  0
  6  7  1  0  0  0  0
  7  3  1  0  0  0  0
  8  9  1  0  0  0  0
  8  6  2  0  0  0  0
  9  4  1  0  0  0  0
 10 12  2  0  0  0  0
 10 13  1  0  0  0  0
 11  2  1  0  0  0  0
 12 15  1  0  0  0  0
 13 11  1  0  0  0  0
 15 14  1  0  0  0  0
 15 11  2  0  0  0  0
 16  1  1  6  0  0  0
 16 23  1  0  0  0  0
 16 18  1  0  0  0  0
 17 20  1  0  0  0  0
 18 17  1  0  0  0  0
 19 17  2  0  0  0  0
 21 20  1  0  0  0  0
 23 22  1  1  0  0  0
 23 24  1  0  0  0  0
 24 25  1  0  0  0  0
M  END
>  <MODEL>
4

>  <REMARK>
 VINA RESULT:      -6.0      2.368      4.350
  Name = 
  7 active torsions:
  status: ('A' for Active; 'I' for Inactive)
    1  A    between atoms: C_1  and  C_2
    2  A    between atoms: C_2  and  C_6
    3  A    between atoms: C_3  and  C_4
    4  A    between atoms: N_5  and  C_6
    5  A    between atoms: C_6  and  C_19
    6  A    between atoms: O_7  and  C_19
    7  A    between atoms: C_9  and  C_20
                            x       y       z     vdW  Elec       q    Type
                         _______ _______ _______ _____ _____    ______ ____

>  <TORSDO>
F 7

$$$$
=
 OpenBabel11042413493D

 25 26  0  0  1  0  0  0  0  0999 V2000
  188.7230  175.8320  146.0190 C   0  0  0  0  0  0  0  0  0  0  0  0
  187.6760  176.0130  146.8420 C   0  0  0  0  0  3  0  0  0  0  0  0
  188.8280  176.4650  144.6880 C   0  0  0  0  0  0  0  0  0  0  0  0
  188.1350  175.9410  143.5880 C   0  0  0  0  0  2  0  0  0  0  0  0
  187.6630  176.0730  141.3420 O   0  0  0  0  0  0  0  0  0  0  0  0
  189.8250  178.1070  143.2240 C   0  0  0  0  0  3  0  0  0  0  0  0
  189.6950  177.5470  144.4960 C   0  0  0  0  0  3  0  0  0  0  0  0
  189.1250  177.5930  142.1780 N   0  0  0  0  0  0  0  0  0  0  0  0
  188.2920  176.5300  142.3320 C   0  0  0  0  0  0  0  0  0  0  0  0
  184.7590  177.8520  145.9180 C   0  0  0  0  0  3  0  0  0  0  0  0
  186.5610  176.9580  146.6560 C   0  0  0  0  0  0  0  0  0  0  0  0
  185.2780  178.7680  146.8250 C   0  0  0  0  0  3  0  0  0  0  0  0
  185.5460  176.7980  145.8440 O   0  0  0  0  0  0  0  0  0  0  0  0
  187.3340  178.7270  148.2310 N   0  0  0  0  0  1  0  0  0  0  0  0
  186.4320  178.1720  147.2790 C   0  0  0  0  0  0  0  0  0  0  0  0
  189.8150  174.8750  146.4200 C   0  0  1  0  0  3  0  0  0  0  0  0
  190.3460  173.1020  144.6840 C   0  0  0  0  0  0  0  0  0  0  0  0
  190.5630  174.3910  145.2610 N   0  0  0  0  0  2  0  0  0  0  0  0
  189.5100  172.3050  145.1880 O   0  0  0  0  0  0  0  0  0  0  0  0
  191.1400  172.6830  143.4980 C   0  0  0  0  0  2  0  0  0  0  0  0
  191.4060  173.8800  142.6070 C   0  0  0  0  0  1  0  0  0  0  0  0
  192.1940  175.2840  147.0600 C   0  0  0  0  0  1  0  0  0  0  0  0
  190.7450  175.4920  147.4650 C   0  0  1  0  0  3  0  0  0  0  0  0
  190.4880  176.8580  147.6250 O   0  0  0  0  0  0  0  0  0  0  0  0
  191.3880  177.2810  148.6030 C   0  0  0  0  0  1  0  0  0  0  0  0
  1 16  1  0  0  0  0
  1  2  2  0  0  0  0
  3  1  1  0  0  0  0
  4  3  1  0  0  0  0
  5  9  2  0  0  0  0
  6  7  1  0  0  0  0
  7  3  2  0  0  0  0
  8  9  1  0  0  0  0
  8  6  2  0  0  0  0
  9  4  1  0  0  0  0
 10 12  2  0  0  0  0
 11  2  1  0  0  0  0
 11 15  2  0  0  0  0
 12 15  1  0  0  0  0
 13 10  1  0  0  0  0
 13 11  1  0  0  0  0
 15 14  1  0  0  0  0
 16 18  1  6  0  0  0
 16 23  1  0  0  0  0
 17 19  2  0  0  0  0
 17 18  1  0  0  0  0
 20 17  1  0  0  0  0
 21 20  1  0  0  0  0
 23 22  1  6  0  0  0
 23 24  1  0  0  0  0
 24 25  1  0  0  0  0
M  END
>  <MODEL>
5

>  <REMARK>
 VINA RESULT:      -6.0      2.389      6.570
  Name = 
  7 active torsions:
  status: ('A' for Active; 'I' for Inactive)
    1  A    between atoms: C_1  and  C_2
    2  A    between atoms: C_2  and  C_6
    3  A    between atoms: C_3  and  C_4
    4  A    between atoms: N_5  and  C_6
    5  A    between atoms: C_6  and  C_19
    6  A    between atoms: O_7  and  C_19
    7  A    between atoms: C_9  and  C_20
                            x       y       z     vdW  Elec       q    Type
                         _______ _______ _______ _____ _____    ______ ____

>  <TORSDO>
F 7

$$$$
=
 OpenBabel11042413493D

 25 26  0  0  1  0  0  0  0  0999 V2000
  188.2740  177.3400  144.5280 C   0  0  0  0  0  0  0  0  0  0  0  0
  187.1600  178.0760  144.6870 C   0  0  0  0  0  3  0  0  0  0  0  0
  188.9480  176.6380  145.6380 C   0  0  0  0  0  0  0  0  0  0  0  0
  189.9180  177.2870  146.4140 C   0  0  0  0  0  3  0  0  0  0  0  0
  191.4370  177.1620  148.1350 O   0  0  0  0  0  0  0  0  0  0  0  0
  189.3620  174.6130  146.8900 C   0  0  0  0  0  3  0  0  0  0  0  0
  188.6840  175.2830  145.8690 C   0  0  0  0  0  2  0  0  0  0  0  0
  190.2840  175.2730  147.6420 N   0  0  0  0  0  0  0  0  0  0  0  0
  190.5740  176.5830  147.4250 C   0  0  0  0  0  0  0  0  0  0  0  0
  185.7650  178.1740  147.9710 C   0  0  0  0  0  3  0  0  0  0  0  0
  186.3450  178.1880  145.9080 C   0  0  0  0  0  0  0  0  0  0  0  0
  184.5990  178.4440  147.2640 C   0  0  0  0  0  3  0  0  0  0  0  0
  186.7730  178.0260  147.1360 O   0  0  0  0  0  0  0  0  0  0  0  0
  184.1540  178.6700  144.8240 N   0  0  0  0  0  1  0  0  0  0  0  0
  184.9990  178.4440  145.9470 C   0  0  0  0  0  0  0  0  0  0  0  0
  188.9290  177.2850  143.1720 C   0  0  1  0  0  3  0  0  0  0  0  0
  191.4550  177.2770  143.4060 C   0  0  0  0  0  0  0  0  0  0  0  0
  190.2150  176.5920  143.2200 N   0  0  0  0  0  2  0  0  0  0  0  0
  191.4880  178.5340  143.4980 O   0  0  0  0  0  0  0  0  0  0  0  0
  192.7240  176.5020  143.4540 C   0  0  0  0  0  2  0  0  0  0  0  0
  193.4220  176.7380  144.7790 C   0  0  0  0  0  1  0  0  0  0  0  0
  187.6670  177.6860  141.0550 C   0  0  0  0  0  1  0  0  0  0  0  0
  188.0010  176.6630  142.1270 C   0  0  1  0  0  3  0  0  0  0  0  0
  188.5850  175.5350  141.5410 O   0  0  0  0  0  0  0  0  0  0  0  0
  187.8180  174.4590  141.9890 C   0  0  0  0  0  1  0  0  0  0  0  0
  1  2  2  0  0  0  0
  1  3  1  0  0  0  0
  2 11  1  0  0  0  0
  3  7  1  0  0  0  0
  3  4  2  0  0  0  0
  4  9  1  0  0  0  0
  6  8  2  0  0  0  0
  7  6  1  0  0  0  0
  9  8  1  0  0  0  0
  9  5  2  0  0  0  0
 11 15  2  0  0  0  0
 11 13  1  0  0  0  0
 12 10  2  0  0  0  0
 13 10  1  0  0  0  0
 14 15  1  0  0  0  0
 15 12  1  0  0  0  0
 16 18  1  1  0  0  0
 16  1  1  0  0  0  0
 17 20  1  0  0  0  0
 17 19  2  0  0  0  0
 18 17  1  0  0  0  0
 20 21  1  0  0  0  0
 23 22  1  6  0  0  0
 23 16  1  0  0  0  0
 24 25  1  0  0  0  0
 24 23  1  0  0  0  0
M  END
>  <MODEL>
6

>  <REMARK>
 VINA RESULT:      -5.9      2.092      5.472
  Name = 
  7 active torsions:
  status: ('A' for Active; 'I' for Inactive)
    1  A    between atoms: C_1  and  C_2
    2  A    between atoms: C_2  and  C_6
    3  A    between atoms: C_3  and  C_4
    4  A    between atoms: N_5  and  C_6
    5  A    between atoms: C_6  and  C_19
    6  A    between atoms: O_7  and  C_19
    7  A    between atoms: C_9  and  C_20
                            x       y       z     vdW  Elec       q    Type
                         _______ _______ _______ _____ _____    ______ ____

>  <TORSDO>
F 7

$$$$
=
 OpenBabel11042413493D

 25 26  0  0  1  0  0  0  0  0999 V2000
  189.1570  176.8070  144.8550 C   0  0  0  0  0  0  0  0  0  0  0  0
  190.1630  177.3580  145.5570 C   0  0  0  0  0  3  0  0  0  0  0  0
  189.3350  175.6510  143.9530 C   0  0  0  0  0  0  0  0  0  0  0  0
  189.2490  174.3400  144.4410 C   0  0  0  0  0  3  0  0  0  0  0  0
  189.3810  172.0880  144.0030 O   0  0  0  0  0  0  0  0  0  0  0  0
  189.8910  174.7600  141.7780 C   0  0  0  0  0  3  0  0  0  0  0  0
  189.6770  175.8590  142.6120 C   0  0  0  0  0  2  0  0  0  0  0  0
  189.7810  173.4970  142.2720 N   0  0  0  0  0  0  0  0  0  0  0  0
  189.4690  173.2680  143.5750 C   0  0  0  0  0  0  0  0  0  0  0  0
  193.5980  176.4340  145.2600 C   0  0  0  0  0  3  0  0  0  0  0  0
  191.5370  176.8430  145.6810 C   0  0  0  0  0  0  0  0  0  0  0  0
  193.3140  175.7280  146.4230 C   0  0  0  0  0  3  0  0  0  0  0  0
  192.5230  177.0770  144.8510 O   0  0  0  0  0  0  0  0  0  0  0  0
  191.2230  175.5030  147.7580 N   0  0  0  0  0  1  0  0  0  0  0  0
  191.9880  176.0060  146.6670 C   0  0  0  0  0  0  0  0  0  0  0  0
  187.7900  177.4370  144.9150 C   0  0  1  0  0  3  0  0  0  0  0  0
  186.2550  178.3600  143.1180 C   0  0  0  0  0  0  0  0  0  0  0  0
  187.0830  177.3190  143.6410 N   0  0  0  0  0  2  0  0  0  0  0  0
  186.0700  179.4230  143.7690 O   0  0  0  0  0  0  0  0  0  0  0  0
  185.5760  178.1710  141.8080 C   0  0  0  0  0  2  0  0  0  0  0  0
  186.5530  177.6050  140.7970 C   0  0  0  0  0  1  0  0  0  0  0  0
  186.8570  177.8830  147.1890 C   0  0  0  0  0  1  0  0  0  0  0  0
  186.9600  176.8650  146.0660 C   0  0  1  0  0  3  0  0  0  0  0  0
  185.6790  176.5050  145.6340 O   0  0  0  0  0  0  0  0  0  0  0  0
  184.8090  177.2580  146.4230 C   0  0  0  0  0  1  0  0  0  0  0  0
  1 16  1  0  0  0  0
  1  2  2  0  0  0  0
  2 11  1  0  0  0  0
  3  4  2  0  0  0  0
  3  1  1  0  0  0  0
  6  8  2  0  0  0  0
  6  7  1  0  0  0  0
  7  3  1  0  0  0  0
  8  9  1  0  0  0  0
  9  5  2  0  0  0  0
  9  4  1  0  0  0  0
 10 12  2  0  0  0  0
 11 15  2  0  0  0  0
 12 15  1  0  0  0  0
 13 10  1  0  0  0  0
 13 11  1  0  0  0  0
 15 14  1  0  0  0  0
 16 18  1  6  0  0  0
 16 23  1  0  0  0  0
 17 18  1  0  0  0  0
 17 19  2  0  0  0  0
 20 17  1  0  0  0  0
 21 20  1  0  0  0  0
 23 22  1  1  0  0  0
 24 23  1  0  0  0  0
 24 25  1  0  0  0  0
M  END
>  <MODEL>
7

>  <REMARK>
 VINA RESULT:      -5.8      2.060      5.086
  Name = 
  7 active torsions:
  status: ('A' for Active; 'I' for Inactive)
    1  A    between atoms: C_1  and  C_2
    2  A    between atoms: C_2  and  C_6
    3  A    between atoms: C_3  and  C_4
    4  A    between atoms: N_5  and  C_6
    5  A    between atoms: C_6  and  C_19
    6  A    between atoms: O_7  and  C_19
    7  A    between atoms: C_9  and  C_20
                            x       y       z     vdW  Elec       q    Type
                         _______ _______ _______ _____ _____    ______ ____

>  <TORSDO>
F 7

$$$$
=
 OpenBabel11042413493D

 25 26  0  0  1  0  0  0  0  0999 V2000
  188.8770  176.5410  144.6610 C   0  0  0  0  0  0  0  0  0  0  0  0
  189.7760  177.2620  145.3530 C   0  0  0  0  0  3  0  0  0  0  0  0
  189.2400  175.3790  143.8240 C   0  0  0  0  0  0  0  0  0  0  0  0
  189.3180  174.0930  144.3760 C   0  0  0  0  0  3  0  0  0  0  0  0
  189.7700  171.8620  144.0570 O   0  0  0  0  0  0  0  0  0  0  0  0
  189.9840  174.4720  141.7120 C   0  0  0  0  0  3  0  0  0  0  0  0
  189.5950  175.5690  142.4830 C   0  0  0  0  0  2  0  0  0  0  0  0
  190.0300  173.2310  142.2670 N   0  0  0  0  0  0  0  0  0  0  0  0
  189.7100  173.0220  143.5720 C   0  0  0  0  0  0  0  0  0  0  0  0
  193.3080  176.7860  145.1590 C   0  0  0  0  0  3  0  0  0  0  0  0
  191.2050  176.9530  145.5320 C   0  0  0  0  0  0  0  0  0  0  0  0
  193.1040  176.1710  146.3880 C   0  0  0  0  0  3  0  0  0  0  0  0
  192.1640  177.2320  144.6840 O   0  0  0  0  0  0  0  0  0  0  0  0
  191.0420  175.8020  147.7360 N   0  0  0  0  0  1  0  0  0  0  0  0
  191.7490  176.2900  146.6000 C   0  0  0  0  0  0  0  0  0  0  0  0
  187.4340  176.9730  144.6590 C   0  0  1  0  0  3  0  0  0  0  0  0
  185.9750  177.7020  146.6030 C   0  0  0  0  0  0  0  0  0  0  0  0
  187.1330  177.8610  145.7810 N   0  0  0  0  0  2  0  0  0  0  0  0
  185.1350  176.7950  146.3620 O   0  0  0  0  0  0  0  0  0  0  0  0
  185.7420  178.6410  147.7340 C   0  0  0  0  0  2  0  0  0  0  0  0
  187.0660  179.0380  148.3560 C   0  0  0  0  0  1  0  0  0  0  0  0
  185.9470  176.7910  142.6610 C   0  0  0  0  0  1  0  0  0  0  0  0
  187.0410  177.6080  143.3250 C   0  0  1  0  0  3  0  0  0  0  0  0
  186.6070  178.9270  143.5030 O   0  0  0  0  0  0  0  0  0  0  0  0
  185.2860  178.9340  143.0540 C   0  0  0  0  0  1  0  0  0  0  0  0
  1  2  2  0  0  0  0
  2 11  1  0  0  0  0
  3  4  2  0  0  0  0
  3  1  1  0  0  0  0
  6  8  2  0  0  0  0
  6  7  1  0  0  0  0
  7  3  1  0  0  0  0
  8  9  1  0  0  0  0
  9  5  2  0  0  0  0
  9  4  1  0  0  0  0
 10 12  2  0  0  0  0
 11 15  2  0  0  0  0
 12 15  1  0  0  0  0
 13 10  1  0  0  0  0
 13 11  1  0  0  0  0
 15 14  1  0  0  0  0
 16  1  1  6  0  0  0
 16 18  1  0  0  0  0
 17 20  1  0  0  0  0
 18 17  1  0  0  0  0
 19 17  2  0  0  0  0
 20 21  1  0  0  0  0
 23 22  1  1  0  0  0
 23 24  1  0  0  0  0
 23 16  1  0  0  0  0
 25 24  1  0  0  0  0
M  END
>  <MODEL>
8

>  <REMARK>
 VINA RESULT:      -5.8      1.924      4.295
  Name = 
  7 active torsions:
  status: ('A' for Active; 'I' for Inactive)
    1  A    between atoms: C_1  and  C_2
    2  A    between atoms: C_2  and  C_6
    3  A    between atoms: C_3  and  C_4
    4  A    between atoms: N_5  and  C_6
    5  A    between atoms: C_6  and  C_19
    6  A    between atoms: O_7  and  C_19
    7  A    between atoms: C_9  and  C_20
                            x       y       z     vdW  Elec       q    Type
                         _______ _______ _______ _____ _____    ______ ____

>  <TORSDO>
F 7

$$$$
=
 OpenBabel11042413493D

 25 26  0  0  1  0  0  0  0  0999 V2000
  187.9430  176.2480  143.2550 C   0  0  0  0  0  0  0  0  0  0  0  0
  187.5440  175.2530  142.4440 C   0  0  0  0  0  3  0  0  0  0  0  0
  189.3610  176.5460  143.5390 C   0  0  0  0  0  0  0  0  0  0  0  0
  190.0870  175.7750  144.4560 C   0  0  0  0  0  3  0  0  0  0  0  0
  192.0740  175.4140  145.5540 O   0  0  0  0  0  0  0  0  0  0  0  0
  191.2960  177.9660  143.2660 C   0  0  0  0  0  3  0  0  0  0  0  0
  189.9690  177.6630  142.9540 C   0  0  0  0  0  2  0  0  0  0  0  0
  191.9850  177.1880  144.1430 N   0  0  0  0  0  0  0  0  0  0  0  0
  191.4120  176.1100  144.7410 C   0  0  0  0  0  0  0  0  0  0  0  0
  189.4910  173.6780  139.9000 C   0  0  0  0  0  3  0  0  0  0  0  0
  188.4040  174.4110  141.5950 C   0  0  0  0  0  0  0  0  0  0  0  0
  189.6710  172.7220  140.8920 C   0  0  0  0  0  3  0  0  0  0  0  0
  188.7350  174.6580  140.3520 O   0  0  0  0  0  0  0  0  0  0  0  0
  188.8330  172.5830  143.2330 N   0  0  0  0  0  1  0  0  0  0  0  0
  188.9620  173.2150  141.9640 C   0  0  0  0  0  0  0  0  0  0  0  0
  186.9040  177.0580  143.9870 C   0  0  1  0  0  3  0  0  0  0  0  0
  184.9580  178.2750  142.9060 C   0  0  0  0  0  0  0  0  0  0  0  0
  185.6260  177.0680  143.2780 N   0  0  0  0  0  2  0  0  0  0  0  0
  185.4380  179.3970  143.2160 O   0  0  0  0  0  0  0  0  0  0  0  0
  183.6630  178.2040  142.1760 C   0  0  0  0  0  2  0  0  0  0  0  0
  183.9060  178.3130  140.6840 C   0  0  0  0  0  1  0  0  0  0  0  0
  187.4260  177.5440  146.3810 C   0  0  0  0  0  1  0  0  0  0  0  0
  186.7360  176.5810  145.4300 C   0  0  1  0  0  3  0  0  0  0  0  0
  185.3840  176.4670  145.7700 O   0  0  0  0  0  0  0  0  0  0  0  0
  185.1830  177.4190  146.7690 C   0  0  0  0  0  1  0  0  0  0  0  0
  1  3  1  0  0  0  0
  2  1  2  0  0  0  0
  3  4  2  0  0  0  0
  4  9  1  0  0  0  0
  6  8  2  0  0  0  0
  7  6  1  0  0  0  0
  7  3  1  0  0  0  0
  8  9  1  0  0  0  0
  9  5  2  0  0  0  0
 10 13  1  0  0  0  0
 10 12  2  0  0  0  0
 11 15  2  0  0  0  0
 11  2  1  0  0  0  0
 12 15  1  0  0  0  0
 13 11  1  0  0  0  0
 15 14  1  0  0  0  0
 16  1  1  6  0  0  0
 16 23  1  0  0  0  0
 17 19  2  0  0  0  0
 17 18  1  0  0  0  0
 18 16  1  0  0  0  0
 20 17  1  0  0  0  0
 21 20  1  0  0  0  0
 23 24  1  0  0  0  0
 23 22  1  1  0  0  0
 24 25  1  0  0  0  0
M  END
>  <MODEL>
9

>  <REMARK>
 VINA RESULT:      -5.8      1.832      3.520
  Name = 
  7 active torsions:
  status: ('A' for Active; 'I' for Inactive)
    1  A    between atoms: C_1  and  C_2
    2  A    between atoms: C_2  and  C_6
    3  A    between atoms: C_3  and  C_4
    4  A    between atoms: N_5  and  C_6
    5  A    between atoms: C_6  and  C_19
    6  A    between atoms: O_7  and  C_19
    7  A    between atoms: C_9  and  C_20
                            x       y       z     vdW  Elec       q    Type
                         _______ _______ _______ _____ _____    ______ ____

>  <TORSDO>
F 7

$$$$
