=
 OpenBabel11042419373D

 63 70  0  0  1  0  0  0  0  0999 V2000
  189.4310  176.5570  146.7740 C   0  0  1  0  0  3  0  0  0  0  0  0
  191.3920  174.2980  145.8010 C   0  0  0  0  0  2  0  0  0  0  0  0
  191.8260  174.8570  147.1480 C   0  0  0  0  0  2  0  0  0  0  0  0
  191.9060  176.3580  147.1170 C   0  0  0  0  0  0  0  0  0  0  0  0
  189.8730  174.3270  145.6720 C   0  0  1  0  0  3  0  0  0  0  0  0
  189.3340  175.7420  145.4840 C   0  0  0  0  0  2  0  0  0  0  0  0
  190.8130  177.1130  146.9640 C   0  0  0  0  0  3  0  0  0  0  0  0
  188.6410  178.5430  147.8780 O   0  0  0  0  0  1  0  0  0  0  0  0
  188.3740  177.6710  146.8200 C   0  0  2  0  0  3  0  0  0  0  0  0
  186.6730  176.0980  147.6090 C   0  0  0  0  0  2  0  0  0  0  0  0
  186.9460  177.1650  146.8620 C   0  0  0  0  0  0  0  0  0  0  0  0
  184.9570  178.4500  146.6010 O   0  0  0  0  0  1  0  0  0  0  0  0
  185.8820  177.6540  145.9240 C   0  0  1  0  0  3  0  0  0  0  0  0
  186.4730  178.4000  144.8210 N   0  0  0  0  0  2  0  0  0  0  0  0
  186.3800  176.5340  143.0960 C   0  0  0  0  0  2  0  0  0  0  0  0
  188.9060  177.7250  141.9920 C   0  0  0  0  0  2  0  0  0  0  0  0
  186.9020  176.1250  141.7290 C   0  0  0  0  0  2  0  0  0  0  0  0
  188.2020  178.2450  143.2100 C   0  0  0  0  0  3  0  0  0  0  0  0
  188.7000  175.9300  141.8060 S   0  0  0  0  0  0  0  0  0  0  0  0
  187.0370  177.7720  143.6680 C   0  0  0  0  0  0  0  0  0  0  0  0
  189.4050  173.4140  144.5420 C   0  0  0  0  0  2  0  0  0  0  0  0
  190.3070  172.2030  144.3600 C   0  0  0  0  0  2  0  0  0  0  0  0
  190.4250  171.8940  142.9030 C   0  0  0  0  0  3  0  0  0  0  0  0
  191.4300  172.3400  142.1290 C   0  0  0  0  0  0  0  0  0  0  0  0
  193.2180  173.9580  141.5410 C   0  0  0  0  0  2  0  0  0  0  0  0
  192.1910  174.7050  142.3560 C   0  0  0  0  0  2  0  0  0  0  0  0
  192.4990  173.2520  142.6790 C   0  0  0  0  0  3  0  0  0  0  0  0
  191.4130  172.0480  140.6500 C   0  0  2  0  0  3  0  0  0  0  0  0
  190.4630  173.7430  139.0660 O   0  0  0  0  0  0  0  0  0  0  0  0
  190.2550  172.7070  139.9680 C   0  0  0  0  0  0  0  0  0  0  0  0
  189.0850  172.3020  140.1950 O   0  0  0  0  0  1  0  0  0  0  0  0
  191.4690  170.2560  140.3200 S   0  0  0  0  0  0  0  0  0  0  0  0
  193.0970  170.0490  141.1030 C   0  0  0  0  0  2  0  0  0  0  0  0
  193.1610  168.8060  141.7400 O   0  0  0  0  0  0  0  0  0  0  0  0
  195.2060  168.7180  143.1710 C   0  0  0  0  0  2  0  0  0  0  0  0
  194.7490  170.1660  143.0090 C   0  0  2  0  0  3  0  0  0  0  0  0
  192.9150  168.9450  144.1230 O   0  0  0  0  0  1  0  0  0  0  0  0
  194.7730  170.8020  144.2530 O   0  0  0  0  0  1  0  0  0  0  0  0
  193.7390  169.0330  142.9970 C   0  0  1  0  0  0  0  0  0  0  0  0
  193.1380  177.0010  147.2450 O   0  0  0  0  0  0  0  0  0  0  0  0
  194.3210  176.4990  146.6380 C   0  0  0  0  0  2  0  0  0  0  0  0
  194.1720  176.5180  145.1280 C   0  0  0  0  0  2  0  0  0  0  0  0
  196.7170  174.3530  142.4400 C   0  0  0  0  0  0  0  0  0  0  0  0
  197.1720  173.6320  141.4130 C   0  0  0  0  0  2  0  0  0  0  0  0
  195.8030  174.4770  144.8650 C   0  0  0  0  0  3  0  0  0  0  0  0
  196.0550  176.2310  140.8510 C   0  0  0  0  0  3  0  0  0  0  0  0
  196.2770  175.7380  142.2120 C   0  0  0  0  0  0  0  0  0  0  0  0
  195.6910  176.1670  143.2700 C   0  0  0  0  0  3  0  0  0  0  0  0
  196.5370  175.5150  139.8290 C   0  0  0  0  0  3  0  0  0  0  0  0
  196.5050  173.7620  143.7530 N   0  0  0  0  0  0  0  0  0  0  0  0
  197.3560  174.2530  140.0440 C   0  0  2  0  0  3  0  0  0  0  0  0
  195.3600  175.8890  144.4860 C   0  0  0  0  0  0  0  0  0  0  0  0
  197.0330  173.2770  139.0160 N   0  0  0  0  0  2  0  0  0  0  0  0
  194.9830  172.1700  139.1090 O   0  0  0  0  0  1  0  0  0  0  0  0
  195.6030  173.3670  138.7490 C   0  0  2  0  0  3  0  0  0  0  0  0
  195.3360  173.6760  137.2770 C   0  0  0  0  0  2  0  0  0  0  0  0
  193.9630  174.2970  137.0650 C   0  0  1  0  0  3  0  0  0  0  0  0
  193.2020  176.7710  135.9420 C   0  0  0  0  0  2  0  0  0  0  0  0
  192.8280  175.4710  135.3660 C   0  0  1  0  0  3  0  0  0  0  0  0
  193.9040  175.5250  137.6870 O   0  0  0  0  0  0  0  0  0  0  0  0
  194.0960  175.5730  136.2770 C   0  0  1  0  0  0  0  0  0  0  0  0
  191.4970  175.0760  136.0150 C   0  0  0  0  0  2  0  0  0  0  0  0
  190.7520  174.1210  135.1050 C   0  0  0  0  0  1  0  0  0  0  0  0
  1  9  1  6  0  0  0
  1  7  1  0  0  0  0
  2  3  1  0  0  0  0
  4  3  1  0  0  0  0
  4 40  1  0  0  0  0
  5 21  1  6  0  0  0
  5  2  1  0  0  0  0
  6  5  1  0  0  0  0
  6  1  1  0  0  0  0
  7  4  2  0  0  0  0
  9 11  1  0  0  0  0
  9  8  1  1  0  0  0
 11 10  2  0  0  0  0
 13 12  1  1  0  0  0
 13 11  1  0  0  0  0
 14 13  1  0  0  0  0
 15 20  1  0  0  0  0
 16 18  1  0  0  0  0
 17 19  1  0  0  0  0
 17 15  1  0  0  0  0
 18 20  2  0  0  0  0
 19 16  1  0  0  0  0
 20 14  1  0  0  0  0
 22 21  1  0  0  0  0
 23 22  1  0  0  0  0
 24 27  1  0  0  0  0
 24 23  2  0  0  0  0
 25 26  1  0  0  0  0
 25 27  1  0  0  0  0
 26 27  1  0  0  0  0
 28 30  1  1  0  0  0
 28 24  1  0  0  0  0
 29 30  2  0  0  0  0
 30 31  1  0  0  0  0
 32 28  1  0  0  0  0
 32 33  1  0  0  0  0
 33 34  1  0  0  0  0
 34 39  1  0  0  0  0
 36 35  1  0  0  0  0
 36 38  1  1  0  0  0
 39 36  1  0  0  0  0
 39 35  1  0  0  0  0
 39 37  1  1  0  0  0
 41 40  1  0  0  0  0
 42 41  1  0  0  0  0
 43 50  1  0  0  0  0
 44 43  1  0  0  0  0
 46 47  1  0  0  0  0
 47 43  2  0  0  0  0
 47 48  1  0  0  0  0
 48 52  2  0  0  0  0
 49 51  1  0  0  0  0
 49 46  2  0  0  0  0
 50 45  2  0  0  0  0
 51 53  1  6  0  0  0
 51 44  1  0  0  0  0
 52 45  1  0  0  0  0
 52 42  1  0  0  0  0
 55 53  1  0  0  0  0
 55 54  1  6  0  0  0
 56 55  1  0  0  0  0
 57 56  1  1  0  0  0
 57 60  1  0  0  0  0
 59 58  1  0  0  0  0
 59 62  1  1  0  0  0
 59 61  1  0  0  0  0
 61 58  1  6  0  0  0
 61 57  1  0  0  0  0
 61 60  1  0  0  0  0
 63 62  1  0  0  0  0
M  END
>  <MODEL>
1

>  <REMARK>
 VINA RESULT:      -5.4      0.000      0.000
  Name = 
  24 active torsions:
  status: ('A' for Active; 'I' for Inactive)
    1  A    between atoms: C_1  and  C_49
    2  A    between atoms: C_3  and  C_52
    3  A    between atoms: C_5  and  C_10
    4  A    between atoms: C_5  and  C_26
    5  A    between atoms: C_6  and  O_28
    6  A    between atoms: C_6  and  S_29
    7  A    between atoms: O_8  and  C_21
    8  A    between atoms: O_8  and  C_61
    9  A    between atoms: N_13  and  C_26
   10  A    between atoms: N_13  and  C_58
   11  A    between atoms: C_17  and  C_22
   12  A    between atoms: C_17  and  C_42
   13  A    between atoms: C_18  and  C_43
   14  A    between atoms: O_28  and  C_45
   15  A    between atoms: S_29  and  C_52
   16  A    between atoms: C_30  and  C_59
   17  A    between atoms: C_30  and  C_61
   18  A    between atoms: N_34  and  C_60
   19  A    between atoms: N_34  and  C_63
   20  A    between atoms: C_37  and  C_53
   21  A    between atoms: C_40  and  C_49
   22  A    between atoms: C_40  and  C_60
   23  A    between atoms: C_42  and  C_44
   24  A    between atoms: C_52  and  C_53
                            x       y       z     vdW  Elec       q    Type
                         _______ _______ _______ _____ _____    ______ ____

>  <TORSDO>
F 24

$$$$
=
 OpenBabel11042419373D

 63 70  0  0  1  0  0  0  0  0999 V2000
  191.9930  170.1550  140.4070 C   0  0  1  0  0  3  0  0  0  0  0  0
  191.9030  171.3840  143.3010 C   0  0  0  0  0  2  0  0  0  0  0  0
  193.2990  171.4870  142.7060 C   0  0  0  0  0  2  0  0  0  0  0  0
  193.7670  170.1600  142.1770 C   0  0  0  0  0  0  0  0  0  0  0  0
  190.8440  171.5010  142.2100 C   0  0  1  0  0  3  0  0  0  0  0  0
  190.7790  170.2560  141.3290 C   0  0  0  0  0  2  0  0  0  0  0  0
  193.1780  169.5790  141.1270 C   0  0  0  0  0  3  0  0  0  0  0  0
  192.8310  168.7420  138.6480 O   0  0  0  0  0  1  0  0  0  0  0  0
  191.6730  169.3530  139.1360 C   0  0  2  0  0  3  0  0  0  0  0  0
  189.7250  169.8280  137.7330 C   0  0  0  0  0  2  0  0  0  0  0  0
  190.9720  170.1570  138.0600 C   0  0  0  0  0  0  0  0  0  0  0  0
  191.2420  171.0430  135.8640 O   0  0  0  0  0  1  0  0  0  0  0  0
  191.6910  171.1400  137.1820 C   0  0  1  0  0  3  0  0  0  0  0  0
  191.5070  172.4980  137.6750 N   0  0  0  0  0  2  0  0  0  0  0  0
  189.2290  173.5010  137.1540 C   0  0  0  0  0  2  0  0  0  0  0  0
  190.7140  175.3790  135.3410 C   0  0  0  0  0  2  0  0  0  0  0  0
  188.5550  174.7440  136.5970 C   0  0  0  0  0  2  0  0  0  0  0  0
  191.3710  174.2750  136.1170 C   0  0  0  0  0  3  0  0  0  0  0  0
  189.0170  174.9510  134.8590 S   0  0  0  0  0  0  0  0  0  0  0  0
  190.7330  173.4810  136.9840 C   0  0  0  0  0  0  0  0  0  0  0  0
  189.4760  171.8140  142.8090 C   0  0  0  0  0  2  0  0  0  0  0  0
  189.4820  173.0860  143.6420 C   0  0  0  0  0  2  0  0  0  0  0  0
  188.5230  174.0660  143.0500 C   0  0  0  0  0  3  0  0  0  0  0  0
  188.7000  175.3980  143.0950 C   0  0  0  0  0  0  0  0  0  0  0  0
  191.1560  175.2800  143.4360 C   0  0  0  0  0  2  0  0  0  0  0  0
  190.8540  176.6270  142.8260 C   0  0  0  0  0  2  0  0  0  0  0  0
  189.8770  176.0100  143.8140 C   0  0  0  0  0  3  0  0  0  0  0  0
  187.6290  176.3070  142.5470 C   0  0  2  0  0  3  0  0  0  0  0  0
  187.1190  177.4060  140.3530 O   0  0  0  0  0  0  0  0  0  0  0  0
  187.6180  176.3130  141.0510 C   0  0  0  0  0  0  0  0  0  0  0  0
  188.0860  175.3290  140.4200 O   0  0  0  0  0  1  0  0  0  0  0  0
  187.7650  177.9910  143.2350 S   0  0  0  0  0  0  0  0  0  0  0  0
  186.2070  177.8590  144.1620 C   0  0  0  0  0  2  0  0  0  0  0  0
  186.0060  179.0190  144.9170 O   0  0  0  0  0  0  0  0  0  0  0  0
  184.3980  177.7310  146.3290 C   0  0  0  0  0  2  0  0  0  0  0  0
  185.7880  177.1060  146.4250 C   0  0  2  0  0  3  0  0  0  0  0  0
  185.9700  179.4130  147.2840 O   0  0  0  0  0  1  0  0  0  0  0  0
  186.0820  176.8300  147.7630 O   0  0  0  0  0  1  0  0  0  0  0  0
  185.6290  178.5980  146.2000 C   0  0  1  0  0  0  0  0  0  0  0  0
  194.8380  169.4980  142.7820 O   0  0  0  0  0  0  0  0  0  0  0  0
  194.8040  169.0880  144.1420 C   0  0  0  0  0  2  0  0  0  0  0  0
  196.2160  169.0190  144.6940 C   0  0  0  0  0  2  0  0  0  0  0  0
  196.7320  173.2520  145.1480 C   0  0  0  0  0  0  0  0  0  0  0  0
  196.6560  174.5730  144.9800 C   0  0  0  0  0  2  0  0  0  0  0  0
  197.9410  170.9980  144.7070 C   0  0  0  0  0  3  0  0  0  0  0  0
  194.2350  173.1530  145.6430 C   0  0  0  0  0  3  0  0  0  0  0  0
  195.5540  172.5150  145.6290 C   0  0  0  0  0  0  0  0  0  0  0  0
  195.7760  171.2560  145.5190 C   0  0  0  0  0  3  0  0  0  0  0  0
  194.1700  174.4820  145.5000 C   0  0  0  0  0  3  0  0  0  0  0  0
  197.9030  172.4940  144.7290 N   0  0  0  0  0  0  0  0  0  0  0  0
  195.4180  175.3420  145.3910 C   0  0  2  0  0  3  0  0  0  0  0  0
  196.6410  170.3570  145.1900 C   0  0  0  0  0  0  0  0  0  0  0  0
  195.1840  176.4300  144.4540 N   0  0  0  0  0  2  0  0  0  0  0  0
  196.6050  176.8090  142.6450 O   0  0  0  0  0  1  0  0  0  0  0  0
  195.5970  175.9760  143.1330 C   0  0  2  0  0  3  0  0  0  0  0  0
  194.4160  175.9550  142.1630 C   0  0  0  0  0  2  0  0  0  0  0  0
  194.4380  174.7270  141.2650 C   0  0  1  0  0  3  0  0  0  0  0  0
  194.4730  174.4880  138.4540 C   0  0  0  0  0  2  0  0  0  0  0  0
  195.5610  174.0120  139.3200 C   0  0  1  0  0  3  0  0  0  0  0  0
  193.3660  174.7610  140.4000 O   0  0  0  0  0  0  0  0  0  0  0  0
  194.6110  175.1470  139.8300 C   0  0  1  0  0  0  0  0  0  0  0  0
  195.2230  172.5630  139.6860 C   0  0  0  0  0  2  0  0  0  0  0  0
  195.1130  171.7330  138.4230 C   0  0  0  0  0  1  0  0  0  0  0  0
  1  9  1  6  0  0  0
  1  7  1  0  0  0  0
  1  6  1  0  0  0  0
  3  2  1  0  0  0  0
  4  3  1  0  0  0  0
  4 40  1  0  0  0  0
  5 21  1  1  0  0  0
  5  2  1  0  0  0  0
  6  5  1  0  0  0  0
  7  4  2  0  0  0  0
  9  8  1  6  0  0  0
 10 11  2  0  0  0  0
 11  9  1  0  0  0  0
 13 12  1  6  0  0  0
 13 14  1  0  0  0  0
 13 11  1  0  0  0  0
 16 18  1  0  0  0  0
 17 15  1  0  0  0  0
 18 20  2  0  0  0  0
 19 16  1  0  0  0  0
 19 17  1  0  0  0  0
 20 15  1  0  0  0  0
 20 14  1  0  0  0  0
 21 22  1  0  0  0  0
 23 24  2  0  0  0  0
 23 22  1  0  0  0  0
 24 27  1  0  0  0  0
 25 27  1  0  0  0  0
 26 25  1  0  0  0  0
 26 27  1  0  0  0  0
 28 30  1  6  0  0  0
 28 24  1  0  0  0  0
 28 32  1  0  0  0  0
 29 30  2  0  0  0  0
 31 30  1  0  0  0  0
 32 33  1  0  0  0  0
 33 34  1  0  0  0  0
 34 39  1  0  0  0  0
 35 36  1  0  0  0  0
 36 38  1  1  0  0  0
 39 35  1  0  0  0  0
 39 36  1  0  0  0  0
 39 37  1  1  0  0  0
 40 41  1  0  0  0  0
 41 42  1  0  0  0  0
 42 52  1  0  0  0  0
 43 47  1  0  0  0  0
 44 43  1  0  0  0  0
 44 51  1  0  0  0  0
 45 50  1  0  0  0  0
 45 52  2  0  0  0  0
 47 46  1  0  0  0  0
 48 47  2  0  0  0  0
 49 46  2  0  0  0  0
 50 43  2  0  0  0  0
 51 53  1  6  0  0  0
 51 49  1  0  0  0  0
 52 48  1  0  0  0  0
 55 54  1  6  0  0  0
 55 53  1  0  0  0  0
 56 55  1  0  0  0  0
 57 56  1  1  0  0  0
 58 59  1  0  0  0  0
 59 62  1  1  0  0  0
 59 61  1  0  0  0  0
 60 57  1  0  0  0  0
 61 58  1  6  0  0  0
 61 60  1  0  0  0  0
 61 57  1  0  0  0  0
 63 62  1  0  0  0  0
M  END
>  <MODEL>
2

>  <REMARK>
 VINA RESULT:      -5.3      2.670      7.828
  Name = 
  24 active torsions:
  status: ('A' for Active; 'I' for Inactive)
    1  A    between atoms: C_1  and  C_49
    2  A    between atoms: C_3  and  C_52
    3  A    between atoms: C_5  and  C_10
    4  A    between atoms: C_5  and  C_26
    5  A    between atoms: C_6  and  O_28
    6  A    between atoms: C_6  and  S_29
    7  A    between atoms: O_8  and  C_21
    8  A    between atoms: O_8  and  C_61
    9  A    between atoms: N_13  and  C_26
   10  A    between atoms: N_13  and  C_58
   11  A    between atoms: C_17  and  C_22
   12  A    between atoms: C_17  and  C_42
   13  A    between atoms: C_18  and  C_43
   14  A    between atoms: O_28  and  C_45
   15  A    between atoms: S_29  and  C_52
   16  A    between atoms: C_30  and  C_59
   17  A    between atoms: C_30  and  C_61
   18  A    between atoms: N_34  and  C_60
   19  A    between atoms: N_34  and  C_63
   20  A    between atoms: C_37  and  C_53
   21  A    between atoms: C_40  and  C_49
   22  A    between atoms: C_40  and  C_60
   23  A    between atoms: C_42  and  C_44
   24  A    between atoms: C_52  and  C_53
                            x       y       z     vdW  Elec       q    Type
                         _______ _______ _______ _____ _____    ______ ____

>  <TORSDO>
F 24

$$$$
=
 OpenBabel11042419373D

 63 70  0  0  1  0  0  0  0  0999 V2000
  189.1070  174.2450  141.2930 C   0  0  1  0  0  3  0  0  0  0  0  0
  187.2560  175.5250  139.0950 C   0  0  0  0  0  2  0  0  0  0  0  0
  187.6140  176.5420  140.1690 C   0  0  0  0  0  2  0  0  0  0  0  0
  187.3380  176.0030  141.5440 C   0  0  0  0  0  0  0  0  0  0  0  0
  188.4010  174.5400  138.8840 C   0  0  1  0  0  3  0  0  0  0  0  0
  188.5440  173.5610  140.0470 C   0  0  0  0  0  2  0  0  0  0  0  0
  188.0320  174.9760  142.0450 C   0  0  0  0  0  3  0  0  0  0  0  0
  189.0090  172.8540  143.2530 O   0  0  0  0  0  1  0  0  0  0  0  0
  189.8410  173.2480  142.2020 C   0  0  2  0  0  3  0  0  0  0  0  0
  191.9250  174.4950  141.9010 C   0  0  0  0  0  2  0  0  0  0  0  0
  191.1790  173.7450  142.7090 C   0  0  0  0  0  0  0  0  0  0  0  0
  190.8800  173.2290  145.0160 O   0  0  0  0  0  1  0  0  0  0  0  0
  191.8080  173.2390  143.9740 C   0  0  1  0  0  3  0  0  0  0  0  0
  192.3550  171.9040  143.7770 N   0  0  0  0  0  2  0  0  0  0  0  0
  194.1170  171.4980  145.5650 C   0  0  0  0  0  2  0  0  0  0  0  0
  196.0040  171.0000  143.2820 C   0  0  0  0  0  2  0  0  0  0  0  0
  195.4730  170.8550  145.8010 C   0  0  0  0  0  2  0  0  0  0  0  0
  194.5690  171.4020  143.1060 C   0  0  0  0  0  3  0  0  0  0  0  0
  196.7210  171.6990  144.7970 S   0  0  0  0  0  0  0  0  0  0  0  0
  193.7000  171.5530  144.1110 C   0  0  0  0  0  0  0  0  0  0  0  0
  188.2430  173.7940  137.5630 C   0  0  0  0  0  2  0  0  0  0  0  0
  189.0530  174.4210  136.4380 C   0  0  0  0  0  2  0  0  0  0  0  0
  190.5030  174.3720  136.7910 C   0  0  0  0  0  3  0  0  0  0  0  0
  191.4730  174.8880  136.0170 C   0  0  0  0  0  0  0  0  0  0  0  0
  190.3570  176.7910  134.8770 C   0  0  0  0  0  2  0  0  0  0  0  0
  191.8290  176.8750  134.5500 C   0  0  0  0  0  2  0  0  0  0  0  0
  191.1600  175.5150  134.6800 C   0  0  0  0  0  3  0  0  0  0  0  0
  192.9150  174.7090  136.4160 C   0  0  2  0  0  3  0  0  0  0  0  0
  192.9690  172.7290  134.8790 O   0  0  0  0  0  0  0  0  0  0  0  0
  193.6380  173.7850  135.4860 C   0  0  0  0  0  0  0  0  0  0  0  0
  194.8560  173.9810  135.2340 O   0  0  0  0  0  1  0  0  0  0  0  0
  193.0690  174.1820  138.1550 S   0  0  0  0  0  0  0  0  0  0  0  0
  193.2770  172.4290  137.7230 C   0  0  0  0  0  2  0  0  0  0  0  0
  193.6750  171.7060  138.8530 O   0  0  0  0  0  0  0  0  0  0  0  0
  192.6660  169.9990  140.3700 C   0  0  0  0  0  2  0  0  0  0  0  0
  191.6170  171.0450  139.9980 C   0  0  2  0  0  3  0  0  0  0  0  0
  192.3360  169.9570  137.9010 O   0  0  0  0  0  1  0  0  0  0  0  0
  190.4250  170.4040  139.6510 O   0  0  0  0  0  1  0  0  0  0  0  0
  192.7280  170.6880  139.0270 C   0  0  1  0  0  0  0  0  0  0  0  0
  186.3360  176.5690  142.3350 O   0  0  0  0  0  0  0  0  0  0  0  0
  186.0610  176.1110  143.6520 C   0  0  0  0  0  2  0  0  0  0  0  0
  186.0020  177.2890  144.6050 C   0  0  0  0  0  2  0  0  0  0  0  0
  190.0310  176.7500  145.9720 C   0  0  0  0  0  0  0  0  0  0  0  0
  191.3010  176.3550  146.0800 C   0  0  0  0  0  2  0  0  0  0  0  0
  187.5250  176.4410  146.5690 C   0  0  0  0  0  3  0  0  0  0  0  0
  190.5660  177.9230  143.7730 C   0  0  0  0  0  3  0  0  0  0  0  0
  189.6510  177.6710  144.8900 C   0  0  0  0  0  0  0  0  0  0  0  0
  188.3710  177.7510  144.8430 C   0  0  0  0  0  3  0  0  0  0  0  0
  191.8430  177.5470  143.9020 C   0  0  0  0  0  3  0  0  0  0  0  0
  188.9800  176.1810  146.8030 N   0  0  0  0  0  0  0  0  0  0  0  0
  192.3780  176.9330  145.1850 C   0  0  2  0  0  3  0  0  0  0  0  0
  187.2640  177.3790  145.3920 C   0  0  0  0  0  0  0  0  0  0  0  0
  193.3550  175.9040  144.8680 N   0  0  0  0  0  2  0  0  0  0  0  0
  194.4380  177.0830  146.5620 O   0  0  0  0  0  1  0  0  0  0  0  0
  194.2950  175.8240  145.9780 C   0  0  2  0  0  3  0  0  0  0  0  0
  195.6540  175.3040  145.5110 C   0  0  0  0  0  2  0  0  0  0  0  0
  195.7510  175.2410  143.9940 C   0  0  1  0  0  3  0  0  0  0  0  0
  197.9340  175.6640  142.2580 C   0  0  0  0  0  2  0  0  0  0  0  0
  197.2330  174.3770  142.3780 C   0  0  1  0  0  3  0  0  0  0  0  0
  196.2230  176.4400  143.5060 O   0  0  0  0  0  0  0  0  0  0  0  0
  197.1860  175.3940  143.5670 C   0  0  1  0  0  0  0  0  0  0  0  0
  196.0950  174.4060  141.3530 C   0  0  0  0  0  2  0  0  0  0  0  0
  196.4710  173.5600  140.1530 C   0  0  0  0  0  1  0  0  0  0  0  0
  1  7  1  0  0  0  0
  1  9  1  1  0  0  0
  2  3  1  0  0  0  0
  3  4  1  0  0  0  0
  4  7  2  0  0  0  0
  4 40  1  0  0  0  0
  5 21  1  6  0  0  0
  5  2  1  0  0  0  0
  5  6  1  0  0  0  0
  6  1  1  0  0  0  0
  9 11  1  0  0  0  0
  9  8  1  1  0  0  0
 10 11  2  0  0  0  0
 11 13  1  0  0  0  0
 13 12  1  1  0  0  0
 14 13  1  0  0  0  0
 14 20  1  0  0  0  0
 15 17  1  0  0  0  0
 16 19  1  0  0  0  0
 18 16  1  0  0  0  0
 18 20  2  0  0  0  0
 19 17  1  0  0  0  0
 20 15  1  0  0  0  0
 22 23  1  0  0  0  0
 22 21  1  0  0  0  0
 24 28  1  0  0  0  0
 24 23  2  0  0  0  0
 26 27  1  0  0  0  0
 26 25  1  0  0  0  0
 27 25  1  0  0  0  0
 27 24  1  0  0  0  0
 28 30  1  6  0  0  0
 28 32  1  0  0  0  0
 29 30  2  0  0  0  0
 31 30  1  0  0  0  0
 33 32  1  0  0  0  0
 33 34  1  0  0  0  0
 34 39  1  0  0  0  0
 36 38  1  6  0  0  0
 36 35  1  0  0  0  0
 39 37  1  6  0  0  0
 39 36  1  0  0  0  0
 39 35  1  0  0  0  0
 40 41  1  0  0  0  0
 41 42  1  0  0  0  0
 42 52  1  0  0  0  0
 43 44  1  0  0  0  0
 43 50  1  0  0  0  0
 45 50  2  0  0  0  0
 46 49  2  0  0  0  0
 46 47  1  0  0  0  0
 47 43  2  0  0  0  0
 48 47  1  0  0  0  0
 48 52  2  0  0  0  0
 49 51  1  0  0  0  0
 51 53  1  6  0  0  0
 51 44  1  0  0  0  0
 52 45  1  0  0  0  0
 53 55  1  0  0  0  0
 55 54  1  6  0  0  0
 56 55  1  0  0  0  0
 57 56  1  1  0  0  0
 58 59  1  0  0  0  0
 59 62  1  6  0  0  0
 59 61  1  0  0  0  0
 60 61  1  0  0  0  0
 60 57  1  0  0  0  0
 61 58  1  1  0  0  0
 61 57  1  0  0  0  0
 63 62  1  0  0  0  0
M  END
>  <MODEL>
3

>  <REMARK>
 VINA RESULT:      -4.7      2.533      7.489
  Name = 
  24 active torsions:
  status: ('A' for Active; 'I' for Inactive)
    1  A    between atoms: C_1  and  C_49
    2  A    between atoms: C_3  and  C_52
    3  A    between atoms: C_5  and  C_10
    4  A    between atoms: C_5  and  C_26
    5  A    between atoms: C_6  and  O_28
    6  A    between atoms: C_6  and  S_29
    7  A    between atoms: O_8  and  C_21
    8  A    between atoms: O_8  and  C_61
    9  A    between atoms: N_13  and  C_26
   10  A    between atoms: N_13  and  C_58
   11  A    between atoms: C_17  and  C_22
   12  A    between atoms: C_17  and  C_42
   13  A    between atoms: C_18  and  C_43
   14  A    between atoms: O_28  and  C_45
   15  A    between atoms: S_29  and  C_52
   16  A    between atoms: C_30  and  C_59
   17  A    between atoms: C_30  and  C_61
   18  A    between atoms: N_34  and  C_60
   19  A    between atoms: N_34  and  C_63
   20  A    between atoms: C_37  and  C_53
   21  A    between atoms: C_40  and  C_49
   22  A    between atoms: C_40  and  C_60
   23  A    between atoms: C_42  and  C_44
   24  A    between atoms: C_52  and  C_53
                            x       y       z     vdW  Elec       q    Type
                         _______ _______ _______ _____ _____    ______ ____

>  <TORSDO>
F 24

$$$$
=
 OpenBabel11042419373D

 63 70  0  0  1  0  0  0  0  0999 V2000
  192.7260  171.1170  143.9020 C   0  0  1  0  0  3  0  0  0  0  0  0
  190.8610  171.0200  141.3710 C   0  0  0  0  0  2  0  0  0  0  0  0
  191.0950  169.6250  141.9330 C   0  0  0  0  0  2  0  0  0  0  0  0
  192.5600  169.3540  142.1290 C   0  0  0  0  0  0  0  0  0  0  0  0
  190.8520  172.0560  142.4910 C   0  0  1  0  0  3  0  0  0  0  0  0
  192.2460  172.3010  143.0640 C   0  0  0  0  0  2  0  0  0  0  0  0
  193.2800  170.0240  143.0340 C   0  0  0  0  0  3  0  0  0  0  0  0
  193.3310  172.7420  145.5710 O   0  0  0  0  0  1  0  0  0  0  0  0
  193.7470  171.5540  144.9640 C   0  0  2  0  0  3  0  0  0  0  0  0
  195.3870  171.4630  143.1490 C   0  0  0  0  0  2  0  0  0  0  0  0
  195.1680  171.6610  144.4460 C   0  0  0  0  0  0  0  0  0  0  0  0
  197.4540  171.0820  144.7890 O   0  0  0  0  0  1  0  0  0  0  0  0
  196.3600  171.7400  145.3540 C   0  0  1  0  0  3  0  0  0  0  0  0
  196.7000  173.1280  145.6350 N   0  0  0  0  0  2  0  0  0  0  0  0
  197.8480  174.2130  143.6420 C   0  0  0  0  0  2  0  0  0  0  0  0
  195.5940  176.1960  143.7010 C   0  0  0  0  0  2  0  0  0  0  0  0
  197.6080  175.1540  142.4740 C   0  0  0  0  0  2  0  0  0  0  0  0
  195.7510  175.0820  144.6940 C   0  0  0  0  0  3  0  0  0  0  0  0
  197.1980  176.8010  143.1040 S   0  0  0  0  0  0  0  0  0  0  0  0
  196.7070  174.1480  144.6340 C   0  0  0  0  0  0  0  0  0  0  0  0
  190.2210  173.3620  142.0210 C   0  0  0  0  0  2  0  0  0  0  0  0
  189.0680  173.8060  142.9080 C   0  0  0  0  0  2  0  0  0  0  0  0
  189.5520  174.8570  143.8540 C   0  0  0  0  0  3  0  0  0  0  0  0
  189.1710  176.1440  143.7900 C   0  0  0  0  0  0  0  0  0  0  0  0
  186.8030  176.4820  143.1280 C   0  0  0  0  0  2  0  0  0  0  0  0
  187.4540  177.8440  143.1700 C   0  0  0  0  0  2  0  0  0  0  0  0
  188.2530  176.6390  142.7000 C   0  0  0  0  0  3  0  0  0  0  0  0
  189.7850  177.1460  144.7340 C   0  0  2  0  0  3  0  0  0  0  0  0
  192.2620  176.8310  144.5090 O   0  0  0  0  0  1  0  0  0  0  0  0
  191.1310  177.6000  144.2630 C   0  0  0  0  0  0  0  0  0  0  0  0
  191.2360  178.6770  143.6180 O   0  0  0  0  0  0  0  0  0  0  0  0
  189.8400  176.5120  146.4430 S   0  0  0  0  0  0  0  0  0  0  0  0
  188.2710  177.3050  146.9070 C   0  0  0  0  0  2  0  0  0  0  0  0
  187.2320  176.3710  146.8460 O   0  0  0  0  0  0  0  0  0  0  0  0
  185.8180  178.1100  147.9460 C   0  0  0  0  0  2  0  0  0  0  0  0
  186.2300  178.5830  146.5540 C   0  0  2  0  0  3  0  0  0  0  0  0
  184.9100  176.5170  146.2590 O   0  0  0  0  0  1  0  0  0  0  0  0
  185.1170  179.1140  145.8950 O   0  0  0  0  0  1  0  0  0  0  0  0
  186.0380  177.1050  146.8410 C   0  0  1  0  0  0  0  0  0  0  0  0
  193.2070  168.3870  141.3570 O   0  0  0  0  0  0  0  0  0  0  0  0
  194.6010  168.4430  141.0840 C   0  0  0  0  0  2  0  0  0  0  0  0
  194.8280  168.5150  139.5850 C   0  0  0  0  0  2  0  0  0  0  0  0
  195.2080  172.4960  138.0370 C   0  0  0  0  0  0  0  0  0  0  0  0
  194.9550  173.6710  137.4570 C   0  0  0  0  0  2  0  0  0  0  0  0
  196.0970  170.0630  137.8860 C   0  0  0  0  0  3  0  0  0  0  0  0
  193.4710  172.9900  139.8350 C   0  0  0  0  0  3  0  0  0  0  0  0
  194.5810  172.1780  139.3290 C   0  0  0  0  0  0  0  0  0  0  0  0
  194.7880  170.9400  139.5970 C   0  0  0  0  0  3  0  0  0  0  0  0
  193.2410  174.1770  139.2640 C   0  0  0  0  0  3  0  0  0  0  0  0
  195.9720  171.4590  137.3600 N   0  0  0  0  0  0  0  0  0  0  0  0
  194.1310  174.7280  138.1620 C   0  0  2  0  0  3  0  0  0  0  0  0
  195.3650  169.8530  139.2100 C   0  0  0  0  0  0  0  0  0  0  0  0
  193.3220  175.4460  137.1910 N   0  0  0  0  0  2  0  0  0  0  0  0
  193.6480  175.4490  134.8820 O   0  0  0  0  0  1  0  0  0  0  0  0
  193.2840  174.6540  135.9690 C   0  0  2  0  0  3  0  0  0  0  0  0
  191.8960  174.0560  135.7430 C   0  0  0  0  0  2  0  0  0  0  0  0
  191.6730  172.8020  136.5760 C   0  0  1  0  0  3  0  0  0  0  0  0
  189.6970  170.7950  136.4090 C   0  0  0  0  0  2  0  0  0  0  0  0
  191.1300  170.5390  136.2030 C   0  0  1  0  0  3  0  0  0  0  0  0
  190.4040  172.8180  137.1140 O   0  0  0  0  0  0  0  0  0  0  0  0
  190.5640  171.9800  135.9740 C   0  0  1  0  0  0  0  0  0  0  0  0
  191.7110  170.1970  137.5780 C   0  0  0  0  0  2  0  0  0  0  0  0
  190.9100  169.0750  138.2050 C   0  0  0  0  0  1  0  0  0  0  0  0
  1  9  1  1  0  0  0
  2  3  1  0  0  0  0
  2  5  1  0  0  0  0
  3  4  1  0  0  0  0
  4  7  2  0  0  0  0
  5 21  1  6  0  0  0
  5  6  1  0  0  0  0
  6  1  1  0  0  0  0
  7  1  1  0  0  0  0
  9  8  1  6  0  0  0
 10 11  2  0  0  0  0
 11  9  1  0  0  0  0
 11 13  1  0  0  0  0
 13 12  1  6  0  0  0
 13 14  1  0  0  0  0
 15 20  1  0  0  0  0
 16 18  1  0  0  0  0
 17 19  1  0  0  0  0
 17 15  1  0  0  0  0
 19 16  1  0  0  0  0
 20 18  2  0  0  0  0
 20 14  1  0  0  0  0
 21 22  1  0  0  0  0
 22 23  1  0  0  0  0
 24 23  2  0  0  0  0
 25 26  1  0  0  0  0
 27 25  1  0  0  0  0
 27 26  1  0  0  0  0
 27 24  1  0  0  0  0
 28 24  1  6  0  0  0
 28 32  1  0  0  0  0
 30 29  1  0  0  0  0
 30 28  1  0  0  0  0
 31 30  2  0  0  0  0
 32 33  1  0  0  0  0
 34 33  1  0  0  0  0
 36 38  1  6  0  0  0
 36 39  1  0  0  0  0
 36 35  1  0  0  0  0
 39 37  1  6  0  0  0
 39 34  1  0  0  0  0
 39 35  1  0  0  0  0
 40  4  1  0  0  0  0
 41 40  1  0  0  0  0
 42 41  1  0  0  0  0
 43 47  1  0  0  0  0
 44 43  1  0  0  0  0
 44 51  1  0  0  0  0
 45 52  2  0  0  0  0
 47 48  2  0  0  0  0
 47 46  1  0  0  0  0
 49 46  2  0  0  0  0
 50 45  1  0  0  0  0
 50 43  2  0  0  0  0
 51 53  1  6  0  0  0
 51 49  1  0  0  0  0
 52 42  1  0  0  0  0
 52 48  1  0  0  0  0
 55 54  1  6  0  0  0
 55 53  1  0  0  0  0
 56 55  1  0  0  0  0
 57 56  1  6  0  0  0
 57 60  1  0  0  0  0
 59 58  1  0  0  0  0
 59 62  1  1  0  0  0
 61 59  1  0  0  0  0
 61 58  1  6  0  0  0
 61 57  1  0  0  0  0
 61 60  1  0  0  0  0
 62 63  1  0  0  0  0
M  END
>  <MODEL>
4

>  <REMARK>
 VINA RESULT:      -4.6      2.684      8.036
  Name = 
  24 active torsions:
  status: ('A' for Active; 'I' for Inactive)
    1  A    between atoms: C_1  and  C_49
    2  A    between atoms: C_3  and  C_52
    3  A    between atoms: C_5  and  C_10
    4  A    between atoms: C_5  and  C_26
    5  A    between atoms: C_6  and  O_28
    6  A    between atoms: C_6  and  S_29
    7  A    between atoms: O_8  and  C_21
    8  A    between atoms: O_8  and  C_61
    9  A    between atoms: N_13  and  C_26
   10  A    between atoms: N_13  and  C_58
   11  A    between atoms: C_17  and  C_22
   12  A    between atoms: C_17  and  C_42
   13  A    between atoms: C_18  and  C_43
   14  A    between atoms: O_28  and  C_45
   15  A    between atoms: S_29  and  C_52
   16  A    between atoms: C_30  and  C_59
   17  A    between atoms: C_30  and  C_61
   18  A    between atoms: N_34  and  C_60
   19  A    between atoms: N_34  and  C_63
   20  A    between atoms: C_37  and  C_53
   21  A    between atoms: C_40  and  C_49
   22  A    between atoms: C_40  and  C_60
   23  A    between atoms: C_42  and  C_44
   24  A    between atoms: C_52  and  C_53
                            x       y       z     vdW  Elec       q    Type
                         _______ _______ _______ _____ _____    ______ ____

>  <TORSDO>
F 24

$$$$
=
 OpenBabel11042419373D

 63 70  0  0  1  0  0  0  0  0999 V2000
  193.0550  172.4050  143.5520 C   0  0  1  0  0  3  0  0  0  0  0  0
  191.1690  171.3560  141.2640 C   0  0  0  0  0  2  0  0  0  0  0  0
  191.8250  170.2000  142.0050 C   0  0  0  0  0  2  0  0  0  0  0  0
  193.3140  170.3830  142.0920 C   0  0  0  0  0  0  0  0  0  0  0  0
  190.9190  172.5270  142.2080 C   0  0  1  0  0  3  0  0  0  0  0  0
  192.2100  173.2450  142.5950 C   0  0  0  0  0  2  0  0  0  0  0  0
  193.8560  171.3730  142.8090 C   0  0  0  0  0  3  0  0  0  0  0  0
  193.2290  173.8150  145.4930 O   0  0  0  0  0  1  0  0  0  0  0  0
  193.9600  173.2850  144.4270 C   0  0  2  0  0  3  0  0  0  0  0  0
  193.9950  175.1500  142.8430 C   0  0  0  0  0  2  0  0  0  0  0  0
  194.6930  174.3680  143.6620 C   0  0  0  0  0  0  0  0  0  0  0  0
  196.6100  175.7740  143.4950 O   0  0  0  0  0  1  0  0  0  0  0  0
  196.1910  174.4470  143.5980 C   0  0  1  0  0  3  0  0  0  0  0  0
  196.7880  173.8220  144.7700 N   0  0  0  0  0  2  0  0  0  0  0  0
  197.4940  171.6370  143.6760 C   0  0  0  0  0  2  0  0  0  0  0  0
  196.8310  170.3570  146.3110 C   0  0  0  0  0  2  0  0  0  0  0  0
  197.9410  170.2190  143.9880 C   0  0  0  0  0  2  0  0  0  0  0  0
  196.6410  171.8170  146.0210 C   0  0  0  0  0  3  0  0  0  0  0  0
  196.6010  169.3370  144.8270 S   0  0  0  0  0  0  0  0  0  0  0  0
  197.0020  172.4130  144.8790 C   0  0  0  0  0  0  0  0  0  0  0  0
  189.9140  173.5060  141.6090 C   0  0  0  0  0  2  0  0  0  0  0  0
  188.8050  173.8720  142.5840 C   0  0  0  0  0  2  0  0  0  0  0  0
  189.2720  174.9830  143.4660 C   0  0  0  0  0  3  0  0  0  0  0  0
  188.5900  176.1270  143.6420 C   0  0  0  0  0  0  0  0  0  0  0  0
  187.0780  177.8960  142.7790 C   0  0  0  0  0  2  0  0  0  0  0  0
  187.5780  177.1160  141.5880 C   0  0  0  0  0  2  0  0  0  0  0  0
  187.3050  176.3980  142.9000 C   0  0  0  0  0  3  0  0  0  0  0  0
  189.1900  177.2260  144.4820 C   0  0  2  0  0  3  0  0  0  0  0  0
  191.0880  177.1360  142.8480 O   0  0  0  0  0  0  0  0  0  0  0  0
  190.3920  177.8320  143.8280 C   0  0  0  0  0  0  0  0  0  0  0  0
  190.7600  178.9920  144.1530 O   0  0  0  0  0  1  0  0  0  0  0  0
  189.5510  176.6530  146.1760 S   0  0  0  0  0  0  0  0  0  0  0  0
  187.8140  176.7500  146.7000 C   0  0  0  0  0  2  0  0  0  0  0  0
  187.2720  177.9830  146.3190 O   0  0  0  0  0  0  0  0  0  0  0  0
  185.1320  178.5810  147.4590 C   0  0  0  0  0  2  0  0  0  0  0  0
  185.1190  179.1050  146.0250 C   0  0  2  0  0  3  0  0  0  0  0  0
  185.3230  176.6480  145.8970 O   0  0  0  0  0  1  0  0  0  0  0  0
  183.8910  178.8040  145.4310 O   0  0  0  0  0  1  0  0  0  0  0  0
  185.8800  177.8390  146.3750 C   0  0  1  0  0  0  0  0  0  0  0  0
  194.1720  169.5130  141.4170 O   0  0  0  0  0  0  0  0  0  0  0  0
  195.5470  169.8100  141.2160 C   0  0  0  0  0  2  0  0  0  0  0  0
  195.9630  169.4010  139.8160 C   0  0  0  0  0  2  0  0  0  0  0  0
  195.1260  172.8330  137.3840 C   0  0  0  0  0  0  0  0  0  0  0  0
  194.4990  173.8020  136.7150 C   0  0  0  0  0  2  0  0  0  0  0  0
  196.2050  170.4730  137.4310 C   0  0  0  0  0  3  0  0  0  0  0  0
  194.2170  173.7390  139.5850 C   0  0  0  0  0  3  0  0  0  0  0  0
  195.1270  172.8530  138.8550 C   0  0  0  0  0  0  0  0  0  0  0  0
  195.5950  171.7380  139.2860 C   0  0  0  0  0  3  0  0  0  0  0  0
  193.6130  174.7240  138.9120 C   0  0  0  0  0  3  0  0  0  0  0  0
  195.6850  171.6740  136.7040 N   0  0  0  0  0  0  0  0  0  0  0  0
  193.8930  174.9860  137.4410 C   0  0  2  0  0  3  0  0  0  0  0  0
  196.1100  170.6040  138.9500 C   0  0  0  0  0  0  0  0  0  0  0  0
  192.6690  175.3950  136.7730 N   0  0  0  0  0  2  0  0  0  0  0  0
  192.2180  175.0360  134.5140 O   0  0  0  0  0  1  0  0  0  0  0  0
  192.3670  174.4040  135.7490 C   0  0  2  0  0  3  0  0  0  0  0  0
  191.1010  173.6220  136.0960 C   0  0  0  0  0  2  0  0  0  0  0  0
  191.4090  172.3670  136.9000 C   0  0  1  0  0  3  0  0  0  0  0  0
  189.7110  170.3560  137.9180 C   0  0  0  0  0  2  0  0  0  0  0  0
  190.7530  170.1030  136.9120 C   0  0  1  0  0  3  0  0  0  0  0  0
  190.6950  172.3800  138.0790 O   0  0  0  0  0  0  0  0  0  0  0  0
  190.1590  171.5440  137.0600 C   0  0  1  0  0  0  0  0  0  0  0  0
  192.0300  169.7610  137.6860 C   0  0  0  0  0  2  0  0  0  0  0  0
  191.7430  168.6510  138.6760 C   0  0  0  0  0  1  0  0  0  0  0  0
  1  9  1  6  0  0  0
  2  3  1  0  0  0  0
  2  5  1  0  0  0  0
  3  4  1  0  0  0  0
  4  7  2  0  0  0  0
  5 21  1  6  0  0  0
  5  6  1  0  0  0  0
  6  1  1  0  0  0  0
  7  1  1  0  0  0  0
  9  8  1  1  0  0  0
 10 11  2  0  0  0  0
 11  9  1  0  0  0  0
 13 12  1  1  0  0  0
 13 11  1  0  0  0  0
 13 14  1  0  0  0  0
 14 20  1  0  0  0  0
 15 17  1  0  0  0  0
 15 20  1  0  0  0  0
 17 19  1  0  0  0  0
 18 16  1  0  0  0  0
 19 16  1  0  0  0  0
 20 18  2  0  0  0  0
 21 22  1  0  0  0  0
 22 23  1  0  0  0  0
 23 24  2  0  0  0  0
 25 27  1  0  0  0  0
 26 25  1  0  0  0  0
 26 27  1  0  0  0  0
 27 24  1  0  0  0  0
 28 24  1  6  0  0  0
 28 32  1  0  0  0  0
 29 30  2  0  0  0  0
 30 31  1  0  0  0  0
 30 28  1  0  0  0  0
 32 33  1  0  0  0  0
 34 39  1  0  0  0  0
 34 33  1  0  0  0  0
 36 38  1  6  0  0  0
 36 39  1  0  0  0  0
 36 35  1  0  0  0  0
 39 37  1  6  0  0  0
 39 35  1  0  0  0  0
 40  4  1  0  0  0  0
 41 40  1  0  0  0  0
 42 41  1  0  0  0  0
 43 47  1  0  0  0  0
 44 43  1  0  0  0  0
 44 51  1  0  0  0  0
 45 52  2  0  0  0  0
 47 48  2  0  0  0  0
 47 46  1  0  0  0  0
 49 46  2  0  0  0  0
 50 43  2  0  0  0  0
 50 45  1  0  0  0  0
 51 53  1  6  0  0  0
 51 49  1  0  0  0  0
 52 48  1  0  0  0  0
 52 42  1  0  0  0  0
 55 54  1  6  0  0  0
 55 56  1  0  0  0  0
 55 53  1  0  0  0  0
 57 56  1  6  0  0  0
 57 61  1  0  0  0  0
 57 60  1  0  0  0  0
 59 61  1  0  0  0  0
 59 62  1  1  0  0  0
 59 58  1  0  0  0  0
 61 58  1  6  0  0  0
 61 60  1  0  0  0  0
 62 63  1  0  0  0  0
M  END
>  <MODEL>
5

>  <REMARK>
 VINA RESULT:      -4.4      2.676      8.170
  Name = 
  24 active torsions:
  status: ('A' for Active; 'I' for Inactive)
    1  A    between atoms: C_1  and  C_49
    2  A    between atoms: C_3  and  C_52
    3  A    between atoms: C_5  and  C_10
    4  A    between atoms: C_5  and  C_26
    5  A    between atoms: C_6  and  O_28
    6  A    between atoms: C_6  and  S_29
    7  A    between atoms: O_8  and  C_21
    8  A    between atoms: O_8  and  C_61
    9  A    between atoms: N_13  and  C_26
   10  A    between atoms: N_13  and  C_58
   11  A    between atoms: C_17  and  C_22
   12  A    between atoms: C_17  and  C_42
   13  A    between atoms: C_18  and  C_43
   14  A    between atoms: O_28  and  C_45
   15  A    between atoms: S_29  and  C_52
   16  A    between atoms: C_30  and  C_59
   17  A    between atoms: C_30  and  C_61
   18  A    between atoms: N_34  and  C_60
   19  A    between atoms: N_34  and  C_63
   20  A    between atoms: C_37  and  C_53
   21  A    between atoms: C_40  and  C_49
   22  A    between atoms: C_40  and  C_60
   23  A    between atoms: C_42  and  C_44
   24  A    between atoms: C_52  and  C_53
                            x       y       z     vdW  Elec       q    Type
                         _______ _______ _______ _____ _____    ______ ____

>  <TORSDO>
F 24

$$$$
=
 OpenBabel11042419373D

 63 70  0  0  1  0  0  0  0  0999 V2000
  189.2120  176.7340  146.8720 C   0  0  1  0  0  3  0  0  0  0  0  0
  191.2400  174.4640  146.0760 C   0  0  0  0  0  2  0  0  0  0  0  0
  191.6260  175.1030  147.4020 C   0  0  0  0  0  2  0  0  0  0  0  0
  191.6800  176.6020  147.2900 C   0  0  0  0  0  0  0  0  0  0  0  0
  189.7240  174.4560  145.9060 C   0  0  1  0  0  3  0  0  0  0  0  0
  189.1650  175.8490  145.6270 C   0  0  0  0  0  2  0  0  0  0  0  0
  190.5790  177.3260  147.0680 C   0  0  0  0  0  3  0  0  0  0  0  0
  188.1930  178.6050  147.9880 O   0  0  0  0  0  1  0  0  0  0  0  0
  188.1350  177.8280  146.8290 C   0  0  2  0  0  3  0  0  0  0  0  0
  186.5900  176.0420  146.1840 C   0  0  0  0  0  2  0  0  0  0  0  0
  186.7350  177.3050  146.5790 C   0  0  0  0  0  0  0  0  0  0  0  0
  185.3360  178.8430  147.7440 O   0  0  0  0  0  1  0  0  0  0  0  0
  185.5310  178.2000  146.5210 C   0  0  1  0  0  3  0  0  0  0  0  0
  185.6730  179.1820  145.4550 N   0  0  0  0  0  2  0  0  0  0  0  0
  184.4330  178.2300  143.4490 C   0  0  0  0  0  2  0  0  0  0  0  0
  186.9910  178.6650  141.9370 C   0  0  0  0  0  2  0  0  0  0  0  0
  184.4620  178.1610  141.9320 C   0  0  0  0  0  2  0  0  0  0  0  0
  186.8280  178.9520  143.4010 C   0  0  0  0  0  3  0  0  0  0  0  0
  185.9500  177.2770  141.3990 S   0  0  0  0  0  0  0  0  0  0  0  0
  185.6750  178.8340  144.0680 C   0  0  0  0  0  0  0  0  0  0  0  0
  189.3030  173.4750  144.8160 C   0  0  0  0  0  2  0  0  0  0  0  0
  190.3950  172.4690  144.4840 C   0  0  0  0  0  2  0  0  0  0  0  0
  190.4190  172.2390  143.0080 C   0  0  0  0  0  3  0  0  0  0  0  0
  191.4270  172.6340  142.2120 C   0  0  0  0  0  0  0  0  0  0  0  0
  193.3010  174.1560  141.6350 C   0  0  0  0  0  2  0  0  0  0  0  0
  192.3960  174.9020  142.5860 C   0  0  0  0  0  2  0  0  0  0  0  0
  192.6030  173.4050  142.7570 C   0  0  0  0  0  3  0  0  0  0  0  0
  191.3160  172.4350  140.7210 C   0  0  2  0  0  3  0  0  0  0  0  0
  189.3100  173.9350  140.8260 O   0  0  0  0  0  1  0  0  0  0  0  0
  190.3750  173.4190  140.0980 C   0  0  0  0  0  0  0  0  0  0  0  0
  190.5660  173.7980  138.9130 O   0  0  0  0  0  0  0  0  0  0  0  0
  190.8760  170.7140  140.3050 S   0  0  0  0  0  0  0  0  0  0  0  0
  191.8620  170.7130  138.7780 C   0  0  0  0  0  2  0  0  0  0  0  0
  193.2240  170.7670  139.0930 O   0  0  0  0  0  0  0  0  0  0  0  0
  193.2960  169.1580  137.1850 C   0  0  0  0  0  2  0  0  0  0  0  0
  194.6220  169.9110  137.2790 C   0  0  2  0  0  3  0  0  0  0  0  0
  194.3420  168.6650  139.3920 O   0  0  0  0  0  1  0  0  0  0  0  0
  195.6800  169.0060  137.1530 O   0  0  0  0  0  1  0  0  0  0  0  0
  193.8080  169.6260  138.5280 C   0  0  1  0  0  0  0  0  0  0  0  0
  192.8970  177.2740  147.4150 O   0  0  0  0  0  0  0  0  0  0  0  0
  194.1100  176.7490  146.8930 C   0  0  0  0  0  2  0  0  0  0  0  0
  194.0210  176.6530  145.3820 C   0  0  0  0  0  2  0  0  0  0  0  0
  196.8660  174.6750  142.8550 C   0  0  0  0  0  0  0  0  0  0  0  0
  197.4350  174.0120  141.8470 C   0  0  0  0  0  2  0  0  0  0  0  0
  195.7320  174.6700  145.1890 C   0  0  0  0  0  3  0  0  0  0  0  0
  196.2940  176.6020  141.2890 C   0  0  0  0  0  3  0  0  0  0  0  0
  196.4060  176.0560  142.6440 C   0  0  0  0  0  0  0  0  0  0  0  0
  195.7130  176.4230  143.6600 C   0  0  0  0  0  3  0  0  0  0  0  0
  196.8900  175.9440  140.2880 C   0  0  0  0  0  3  0  0  0  0  0  0
  196.5540  174.0230  144.1180 N   0  0  0  0  0  0  0  0  0  0  0  0
  197.7240  174.6970  140.5270 C   0  0  2  0  0  3  0  0  0  0  0  0
  195.2820  176.0850  144.8270 C   0  0  0  0  0  0  0  0  0  0  0  0
  197.5270  173.7570  139.4350 N   0  0  0  0  0  2  0  0  0  0  0  0
  196.4300  171.7220  139.7340 O   0  0  0  0  0  1  0  0  0  0  0  0
  196.2420  173.1010  139.6380 C   0  0  2  0  0  3  0  0  0  0  0  0
  195.2740  173.4230  138.5000 C   0  0  0  0  0  2  0  0  0  0  0  0
  195.9980  173.9280  137.2600 C   0  0  1  0  0  3  0  0  0  0  0  0
  195.7310  173.2230  134.5420 C   0  0  0  0  0  2  0  0  0  0  0  0
  195.4450  174.5690  135.0610 C   0  0  1  0  0  3  0  0  0  0  0  0
  196.5870  172.8720  136.5990 O   0  0  0  0  0  0  0  0  0  0  0  0
  195.3710  173.3390  136.0260 C   0  0  1  0  0  0  0  0  0  0  0  0
  196.7590  175.3520  134.9840 C   0  0  0  0  0  2  0  0  0  0  0  0
  196.4720  176.8370  135.0790 C   0  0  0  0  0  1  0  0  0  0  0  0
  1  9  1  6  0  0  0
  1  7  1  0  0  0  0
  2  3  1  0  0  0  0
  4  3  1  0  0  0  0
  4 40  1  0  0  0  0
  5 21  1  6  0  0  0
  5  2  1  0  0  0  0
  6  5  1  0  0  0  0
  6  1  1  0  0  0  0
  7  4  2  0  0  0  0
  9  8  1  1  0  0  0
 10 11  2  0  0  0  0
 11  9  1  0  0  0  0
 13 11  1  0  0  0  0
 13 12  1  1  0  0  0
 14 13  1  0  0  0  0
 15 20  1  0  0  0  0
 16 18  1  0  0  0  0
 17 15  1  0  0  0  0
 18 20  2  0  0  0  0
 19 17  1  0  0  0  0
 19 16  1  0  0  0  0
 20 14  1  0  0  0  0
 22 21  1  0  0  0  0
 23 22  1  0  0  0  0
 24 27  1  0  0  0  0
 24 23  2  0  0  0  0
 25 26  1  0  0  0  0
 25 27  1  0  0  0  0
 26 27  1  0  0  0  0
 28 30  1  1  0  0  0
 28 24  1  0  0  0  0
 30 29  1  0  0  0  0
 31 30  2  0  0  0  0
 32 28  1  0  0  0  0
 33 34  1  0  0  0  0
 33 32  1  0  0  0  0
 35 36  1  0  0  0  0
 35 39  1  0  0  0  0
 36 38  1  1  0  0  0
 36 39  1  0  0  0  0
 39 34  1  0  0  0  0
 39 37  1  1  0  0  0
 41 40  1  0  0  0  0
 42 41  1  0  0  0  0
 43 50  1  0  0  0  0
 44 43  1  0  0  0  0
 46 47  1  0  0  0  0
 47 43  2  0  0  0  0
 47 48  1  0  0  0  0
 48 52  2  0  0  0  0
 49 51  1  0  0  0  0
 49 46  2  0  0  0  0
 50 45  2  0  0  0  0
 51 53  1  6  0  0  0
 51 44  1  0  0  0  0
 52 45  1  0  0  0  0
 52 42  1  0  0  0  0
 53 55  1  0  0  0  0
 55 54  1  6  0  0  0
 56 55  1  0  0  0  0
 57 56  1  1  0  0  0
 58 59  1  0  0  0  0
 59 62  1  1  0  0  0
 59 61  1  0  0  0  0
 60 57  1  0  0  0  0
 61 58  1  1  0  0  0
 61 60  1  0  0  0  0
 61 57  1  0  0  0  0
 62 63  1  0  0  0  0
M  END
>  <MODEL>
6

>  <REMARK>
 VINA RESULT:      -4.4      2.004      2.457
  Name = 
  24 active torsions:
  status: ('A' for Active; 'I' for Inactive)
    1  A    between atoms: C_1  and  C_49
    2  A    between atoms: C_3  and  C_52
    3  A    between atoms: C_5  and  C_10
    4  A    between atoms: C_5  and  C_26
    5  A    between atoms: C_6  and  O_28
    6  A    between atoms: C_6  and  S_29
    7  A    between atoms: O_8  and  C_21
    8  A    between atoms: O_8  and  C_61
    9  A    between atoms: N_13  and  C_26
   10  A    between atoms: N_13  and  C_58
   11  A    between atoms: C_17  and  C_22
   12  A    between atoms: C_17  and  C_42
   13  A    between atoms: C_18  and  C_43
   14  A    between atoms: O_28  and  C_45
   15  A    between atoms: S_29  and  C_52
   16  A    between atoms: C_30  and  C_59
   17  A    between atoms: C_30  and  C_61
   18  A    between atoms: N_34  and  C_60
   19  A    between atoms: N_34  and  C_63
   20  A    between atoms: C_37  and  C_53
   21  A    between atoms: C_40  and  C_49
   22  A    between atoms: C_40  and  C_60
   23  A    between atoms: C_42  and  C_44
   24  A    between atoms: C_52  and  C_53
                            x       y       z     vdW  Elec       q    Type
                         _______ _______ _______ _____ _____    ______ ____

>  <TORSDO>
F 24

$$$$
=
 OpenBabel11042419373D

 63 70  0  0  1  0  0  0  0  0999 V2000
  189.0420  173.7440  141.7660 C   0  0  1  0  0  3  0  0  0  0  0  0
  187.4550  175.3160  139.5500 C   0  0  0  0  0  2  0  0  0  0  0  0
  187.8730  176.2400  140.6840 C   0  0  0  0  0  2  0  0  0  0  0  0
  187.4720  175.6810  142.0210 C   0  0  0  0  0  0  0  0  0  0  0  0
  188.4910  174.2150  139.3450 C   0  0  1  0  0  3  0  0  0  0  0  0
  188.4670  173.1800  140.4670 C   0  0  0  0  0  2  0  0  0  0  0  0
  188.0210  174.5620  142.5040 C   0  0  0  0  0  3  0  0  0  0  0  0
  189.0420  172.6980  143.9330 O   0  0  0  0  0  1  0  0  0  0  0  0
  189.6140  172.6330  142.6600 C   0  0  2  0  0  3  0  0  0  0  0  0
  191.8090  172.2240  141.6580 C   0  0  0  0  0  2  0  0  0  0  0  0
  191.1280  172.6170  142.7310 C   0  0  0  0  0  0  0  0  0  0  0  0
  191.0580  173.3310  145.0040 O   0  0  0  0  0  1  0  0  0  0  0  0
  191.8830  172.7890  144.0170 C   0  0  1  0  0  3  0  0  0  0  0  0
  192.4300  171.5160  144.4640 N   0  0  0  0  0  2  0  0  0  0  0  0
  194.4810  170.1730  143.7880 C   0  0  0  0  0  2  0  0  0  0  0  0
  195.9690  171.8530  145.7840 C   0  0  0  0  0  2  0  0  0  0  0  0
  196.0000  170.1930  143.8120 C   0  0  0  0  0  2  0  0  0  0  0  0
  194.4930  171.9620  145.5380 C   0  0  0  0  0  3  0  0  0  0  0  0
  196.5750  170.1610  145.5290 S   0  0  0  0  0  0  0  0  0  0  0  0
  193.8320  171.2730  144.6000 C   0  0  0  0  0  0  0  0  0  0  0  0
  188.3140  173.5460  137.9860 C   0  0  0  0  0  2  0  0  0  0  0  0
  189.4310  173.8940  137.0140 C   0  0  0  0  0  2  0  0  0  0  0  0
  190.4300  172.7830  136.9950 C   0  0  0  0  0  3  0  0  0  0  0  0
  191.4450  172.7130  136.1170 C   0  0  0  0  0  0  0  0  0  0  0  0
  192.5850  174.8240  135.4830 C   0  0  0  0  0  2  0  0  0  0  0  0
  193.0470  173.7600  134.5170 C   0  0  0  0  0  2  0  0  0  0  0  0
  191.6160  173.7450  135.0300 C   0  0  0  0  0  3  0  0  0  0  0  0
  192.3470  171.5050  136.1210 C   0  0  2  0  0  3  0  0  0  0  0  0
  190.6540  170.5920  134.5130 O   0  0  0  0  0  0  0  0  0  0  0  0
  191.8770  170.4580  135.1600 C   0  0  0  0  0  0  0  0  0  0  0  0
  192.6060  169.4600  134.9190 O   0  0  0  0  0  1  0  0  0  0  0  0
  192.5640  170.8360  137.8040 S   0  0  0  0  0  0  0  0  0  0  0  0
  194.0430  171.8410  138.1330 C   0  0  0  0  0  2  0  0  0  0  0  0
  195.1780  171.1900  137.6360 O   0  0  0  0  0  0  0  0  0  0  0  0
  195.8110  173.5250  137.0190 C   0  0  0  0  0  2  0  0  0  0  0  0
  197.0650  172.6620  137.1330 C   0  0  2  0  0  3  0  0  0  0  0  0
  195.6730  171.6880  135.3420 O   0  0  0  0  0  1  0  0  0  0  0  0
  197.8980  172.9060  136.0380 O   0  0  0  0  0  1  0  0  0  0  0  0
  195.7480  172.0520  136.6900 C   0  0  1  0  0  0  0  0  0  0  0  0
  186.5030  176.3260  142.7930 O   0  0  0  0  0  0  0  0  0  0  0  0
  186.3030  176.0220  144.1660 C   0  0  0  0  0  2  0  0  0  0  0  0
  186.2550  177.3040  144.9760 C   0  0  0  0  0  2  0  0  0  0  0  0
  190.3820  177.0350  146.1110 C   0  0  0  0  0  0  0  0  0  0  0  0
  191.6410  176.6190  146.2610 C   0  0  0  0  0  2  0  0  0  0  0  0
  187.9420  177.1680  146.9840 C   0  0  0  0  0  3  0  0  0  0  0  0
  190.7280  177.2250  143.5930 C   0  0  0  0  0  3  0  0  0  0  0  0
  189.9250  177.4930  144.7900 C   0  0  0  0  0  0  0  0  0  0  0  0
  188.6510  177.6430  144.8190 C   0  0  0  0  0  3  0  0  0  0  0  0
  191.9970  176.8340  143.7540 C   0  0  0  0  0  3  0  0  0  0  0  0
  189.4030  176.9110  147.1810 N   0  0  0  0  0  0  0  0  0  0  0  0
  192.6390  176.7240  145.1270 C   0  0  2  0  0  3  0  0  0  0  0  0
  187.5950  177.5950  145.5580 C   0  0  0  0  0  0  0  0  0  0  0  0
  193.5390  175.5820  145.1590 N   0  0  0  0  0  2  0  0  0  0  0  0
  194.9640  177.4210  145.3130 O   0  0  0  0  0  1  0  0  0  0  0  0
  194.8470  176.0580  145.5880 C   0  0  2  0  0  3  0  0  0  0  0  0
  195.9690  175.2840  144.8960 C   0  0  0  0  0  2  0  0  0  0  0  0
  195.8790  175.3830  143.3800 C   0  0  1  0  0  3  0  0  0  0  0  0
  196.3430  173.4620  141.3670 C   0  0  0  0  0  2  0  0  0  0  0  0
  195.0350  174.0920  141.5980 C   0  0  1  0  0  3  0  0  0  0  0  0
  197.0840  175.0240  142.8160 O   0  0  0  0  0  0  0  0  0  0  0  0
  196.0740  174.0230  142.7670 C   0  0  1  0  0  0  0  0  0  0  0  0
  195.0020  175.3540  140.7300 C   0  0  0  0  0  2  0  0  0  0  0  0
  193.9850  175.1820  139.6210 C   0  0  0  0  0  1  0  0  0  0  0  0
  1  7  1  0  0  0  0
  1  9  1  1  0  0  0
  2  3  1  0  0  0  0
  3  4  1  0  0  0  0
  4  7  2  0  0  0  0
  4 40  1  0  0  0  0
  5 21  1  6  0  0  0
  5  2  1  0  0  0  0
  5  6  1  0  0  0  0
  6  1  1  0  0  0  0
  9 11  1  0  0  0  0
  9  8  1  1  0  0  0
 10 11  2  0  0  0  0
 11 13  1  0  0  0  0
 13 14  1  0  0  0  0
 13 12  1  1  0  0  0
 14 20  1  0  0  0  0
 15 17  1  0  0  0  0
 15 20  1  0  0  0  0
 17 19  1  0  0  0  0
 18 16  1  0  0  0  0
 19 16  1  0  0  0  0
 20 18  2  0  0  0  0
 22 21  1  0  0  0  0
 23 22  1  0  0  0  0
 24 28  1  0  0  0  0
 24 23  2  0  0  0  0
 26 27  1  0  0  0  0
 26 25  1  0  0  0  0
 27 25  1  0  0  0  0
 27 24  1  0  0  0  0
 28 30  1  6  0  0  0
 28 32  1  0  0  0  0
 29 30  2  0  0  0  0
 31 30  1  0  0  0  0
 32 33  1  0  0  0  0
 34 33  1  0  0  0  0
 35 36  1  0  0  0  0
 36 38  1  6  0  0  0
 39 37  1  6  0  0  0
 39 35  1  0  0  0  0
 39 36  1  0  0  0  0
 39 34  1  0  0  0  0
 40 41  1  0  0  0  0
 41 42  1  0  0  0  0
 42 52  1  0  0  0  0
 43 44  1  0  0  0  0
 43 50  1  0  0  0  0
 45 50  2  0  0  0  0
 46 49  2  0  0  0  0
 46 47  1  0  0  0  0
 47 48  1  0  0  0  0
 47 43  2  0  0  0  0
 48 52  2  0  0  0  0
 49 51  1  0  0  0  0
 51 53  1  6  0  0  0
 51 44  1  0  0  0  0
 52 45  1  0  0  0  0
 53 55  1  0  0  0  0
 55 54  1  6  0  0  0
 56 55  1  0  0  0  0
 57 56  1  1  0  0  0
 58 59  1  0  0  0  0
 59 62  1  6  0  0  0
 59 61  1  0  0  0  0
 60 57  1  0  0  0  0
 61 58  1  1  0  0  0
 61 60  1  0  0  0  0
 61 57  1  0  0  0  0
 63 62  1  0  0  0  0
M  END
>  <MODEL>
7

>  <REMARK>
 VINA RESULT:      -4.4      2.719      7.447
  Name = 
  24 active torsions:
  status: ('A' for Active; 'I' for Inactive)
    1  A    between atoms: C_1  and  C_49
    2  A    between atoms: C_3  and  C_52
    3  A    between atoms: C_5  and  C_10
    4  A    between atoms: C_5  and  C_26
    5  A    between atoms: C_6  and  O_28
    6  A    between atoms: C_6  and  S_29
    7  A    between atoms: O_8  and  C_21
    8  A    between atoms: O_8  and  C_61
    9  A    between atoms: N_13  and  C_26
   10  A    between atoms: N_13  and  C_58
   11  A    between atoms: C_17  and  C_22
   12  A    between atoms: C_17  and  C_42
   13  A    between atoms: C_18  and  C_43
   14  A    between atoms: O_28  and  C_45
   15  A    between atoms: S_29  and  C_52
   16  A    between atoms: C_30  and  C_59
   17  A    between atoms: C_30  and  C_61
   18  A    between atoms: N_34  and  C_60
   19  A    between atoms: N_34  and  C_63
   20  A    between atoms: C_37  and  C_53
   21  A    between atoms: C_40  and  C_49
   22  A    between atoms: C_40  and  C_60
   23  A    between atoms: C_42  and  C_44
   24  A    between atoms: C_52  and  C_53
                            x       y       z     vdW  Elec       q    Type
                         _______ _______ _______ _____ _____    ______ ____

>  <TORSDO>
F 24

$$$$
=
 OpenBabel11042419373D

 63 70  0  0  1  0  0  0  0  0999 V2000
  189.6250  175.9060  143.9700 C   0  0  1  0  0  3  0  0  0  0  0  0
  190.3300  176.4480  146.9870 C   0  0  0  0  0  2  0  0  0  0  0  0
  188.9720  175.7750  146.8540 C   0  0  0  0  0  2  0  0  0  0  0  0
  188.0990  176.4990  145.8670 C   0  0  0  0  0  0  0  0  0  0  0  0
  191.2730  175.9770  145.8840 C   0  0  1  0  0  3  0  0  0  0  0  0
  190.8980  176.5490  144.5190 C   0  0  0  0  0  2  0  0  0  0  0  0
  188.3970  176.5340  144.5650 C   0  0  0  0  0  3  0  0  0  0  0  0
  188.7290  176.9750  142.0090 O   0  0  0  0  0  1  0  0  0  0  0  0
  189.5840  175.9550  142.4350 C   0  0  2  0  0  3  0  0  0  0  0  0
  188.0110  174.1450  141.9470 C   0  0  0  0  0  2  0  0  0  0  0  0
  189.2390  174.6310  141.7840 C   0  0  0  0  0  0  0  0  0  0  0  0
  191.5570  174.1250  141.5560 O   0  0  0  0  0  1  0  0  0  0  0  0
  190.2740  173.7310  141.1740 C   0  0  1  0  0  3  0  0  0  0  0  0
  190.0400  172.3460  141.5590 N   0  0  0  0  0  2  0  0  0  0  0  0
  191.9210  170.6400  141.4160 C   0  0  0  0  0  2  0  0  0  0  0  0
  191.9920  170.7920  144.4140 C   0  0  0  0  0  2  0  0  0  0  0  0
  193.0850  170.0570  142.1980 C   0  0  0  0  0  2  0  0  0  0  0  0
  191.0120  171.5450  143.5640 C   0  0  0  0  0  3  0  0  0  0  0  0
  192.4560  169.2040  143.6660 S   0  0  0  0  0  0  0  0  0  0  0  0
  191.0180  171.5450  142.2270 C   0  0  0  0  0  0  0  0  0  0  0  0
  192.7220  176.3030  146.2300 C   0  0  0  0  0  2  0  0  0  0  0  0
  193.6670  175.1500  145.9260 C   0  0  0  0  0  2  0  0  0  0  0  0
  194.3720  175.4190  144.6360 C   0  0  0  0  0  3  0  0  0  0  0  0
  194.6050  174.4750  143.7080 C   0  0  0  0  0  0  0  0  0  0  0  0
  195.1400  172.1150  143.1580 C   0  0  0  0  0  2  0  0  0  0  0  0
  195.3250  172.2790  144.6470 C   0  0  0  0  0  2  0  0  0  0  0  0
  194.2150  173.0360  143.9360 C   0  0  0  0  0  3  0  0  0  0  0  0
  195.4040  174.8270  142.4790 C   0  0  2  0  0  3  0  0  0  0  0  0
  197.9010  174.6050  142.4780 O   0  0  0  0  0  0  0  0  0  0  0  0
  196.7690  175.3310  142.8290 C   0  0  0  0  0  0  0  0  0  0  0  0
  196.8930  176.4330  143.4240 O   0  0  0  0  0  1  0  0  0  0  0  0
  194.5020  175.9910  141.4040 S   0  0  0  0  0  0  0  0  0  0  0  0
  195.1410  175.2480  139.8730 C   0  0  0  0  0  2  0  0  0  0  0  0
  194.9180  173.8670  139.8880 O   0  0  0  0  0  0  0  0  0  0  0  0
  193.5840  173.5080  137.8080 C   0  0  0  0  0  2  0  0  0  0  0  0
  194.6440  174.5800  137.5640 C   0  0  2  0  0  3  0  0  0  0  0  0
  195.8380  172.4980  138.1440 O   0  0  0  0  0  1  0  0  0  0  0  0
  195.2820  174.3350  136.3450 O   0  0  0  0  0  1  0  0  0  0  0  0
  194.9000  173.4540  138.5490 C   0  0  1  0  0  0  0  0  0  0  0  0
  186.9450  177.1570  146.2970 O   0  0  0  0  0  0  0  0  0  0  0  0
  186.4570  178.3280  145.6550 C   0  0  0  0  0  2  0  0  0  0  0  0
  184.9540  178.2290  145.4770 C   0  0  0  0  0  2  0  0  0  0  0  0
  182.9640  178.2540  141.6780 C   0  0  0  0  0  0  0  0  0  0  0  0
  182.1100  178.0130  140.6820 C   0  0  0  0  0  2  0  0  0  0  0  0
  185.1840  177.7210  142.9110 C   0  0  0  0  0  3  0  0  0  0  0  0
  181.0890  179.2920  143.0580 C   0  0  0  0  0  3  0  0  0  0  0  0
  182.5150  179.0350  142.8420 C   0  0  0  0  0  0  0  0  0  0  0  0
  183.4120  178.9680  143.7580 C   0  0  0  0  0  3  0  0  0  0  0  0
  180.2430  179.0720  142.0450 C   0  0  0  0  0  3  0  0  0  0  0  0
  184.2840  177.6440  141.7170 N   0  0  0  0  0  0  0  0  0  0  0  0
  180.7260  178.6290  140.6730 C   0  0  2  0  0  3  0  0  0  0  0  0
  184.5830  178.5230  144.0640 C   0  0  0  0  0  0  0  0  0  0  0  0
  179.7760  177.6920  140.0970 N   0  0  0  0  0  2  0  0  0  0  0  0
  177.7250  178.7800  140.3140 O   0  0  0  0  0  1  0  0  0  0  0  0
  178.7450  178.4640  139.4160 C   0  0  2  0  0  3  0  0  0  0  0  0
  178.1770  177.6930  138.2250 C   0  0  0  0  0  2  0  0  0  0  0  0
  179.1220  176.5980  137.7510 C   0  0  1  0  0  3  0  0  0  0  0  0
  178.8010  174.5940  135.7910 C   0  0  0  0  0  2  0  0  0  0  0  0
  179.8100  175.6590  135.7020 C   0  0  1  0  0  3  0  0  0  0  0  0
  178.5180  175.3670  137.8920 O   0  0  0  0  0  0  0  0  0  0  0  0
  178.5250  175.8860  136.5670 C   0  0  1  0  0  0  0  0  0  0  0  0
  181.0670  175.1240  136.3960 C   0  0  0  0  0  2  0  0  0  0  0  0
  181.3910  173.7420  135.8660 C   0  0  0  0  0  1  0  0  0  0  0  0
  1  9  1  6  0  0  0
  1  6  1  0  0  0  0
  1  7  1  0  0  0  0
  3  2  1  0  0  0  0
  4 40  1  0  0  0  0
  4  3  1  0  0  0  0
  5 21  1  1  0  0  0
  5  2  1  0  0  0  0
  6  5  1  0  0  0  0
  7  4  2  0  0  0  0
  9  8  1  1  0  0  0
 11 10  2  0  0  0  0
 11  9  1  0  0  0  0
 13 12  1  1  0  0  0
 13 14  1  0  0  0  0
 13 11  1  0  0  0  0
 14 20  1  0  0  0  0
 15 17  1  0  0  0  0
 15 20  1  0  0  0  0
 17 19  1  0  0  0  0
 18 16  1  0  0  0  0
 19 16  1  0  0  0  0
 20 18  2  0  0  0  0
 22 21  1  0  0  0  0
 23 22  1  0  0  0  0
 24 27  1  0  0  0  0
 24 23  2  0  0  0  0
 25 27  1  0  0  0  0
 25 26  1  0  0  0  0
 27 26  1  0  0  0  0
 28 32  1  1  0  0  0
 28 30  1  0  0  0  0
 28 24  1  0  0  0  0
 29 30  2  0  0  0  0
 30 31  1  0  0  0  0
 33 34  1  0  0  0  0
 33 32  1  0  0  0  0
 35 39  1  0  0  0  0
 36 38  1  6  0  0  0
 36 35  1  0  0  0  0
 36 39  1  0  0  0  0
 39 37  1  6  0  0  0
 39 34  1  0  0  0  0
 41 40  1  0  0  0  0
 42 41  1  0  0  0  0
 43 50  2  0  0  0  0
 43 47  1  0  0  0  0
 44 43  1  0  0  0  0
 45 52  2  0  0  0  0
 47 46  1  0  0  0  0
 47 48  2  0  0  0  0
 48 52  1  0  0  0  0
 49 46  2  0  0  0  0
 50 45  1  0  0  0  0
 51 53  1  1  0  0  0
 51 44  1  0  0  0  0
 51 49  1  0  0  0  0
 52 42  1  0  0  0  0
 55 53  1  0  0  0  0
 55 54  1  1  0  0  0
 56 55  1  0  0  0  0
 57 60  1  0  0  0  0
 57 56  1  1  0  0  0
 59 58  1  0  0  0  0
 59 62  1  1  0  0  0
 59 61  1  0  0  0  0
 61 58  1  6  0  0  0
 61 57  1  0  0  0  0
 61 60  1  0  0  0  0
 63 62  1  0  0  0  0
M  END
>  <MODEL>
8

>  <REMARK>
 VINA RESULT:      -4.3      4.785     10.034
  Name = 
  24 active torsions:
  status: ('A' for Active; 'I' for Inactive)
    1  A    between atoms: C_1  and  C_49
    2  A    between atoms: C_3  and  C_52
    3  A    between atoms: C_5  and  C_10
    4  A    between atoms: C_5  and  C_26
    5  A    between atoms: C_6  and  O_28
    6  A    between atoms: C_6  and  S_29
    7  A    between atoms: O_8  and  C_21
    8  A    between atoms: O_8  and  C_61
    9  A    between atoms: N_13  and  C_26
   10  A    between atoms: N_13  and  C_58
   11  A    between atoms: C_17  and  C_22
   12  A    between atoms: C_17  and  C_42
   13  A    between atoms: C_18  and  C_43
   14  A    between atoms: O_28  and  C_45
   15  A    between atoms: S_29  and  C_52
   16  A    between atoms: C_30  and  C_59
   17  A    between atoms: C_30  and  C_61
   18  A    between atoms: N_34  and  C_60
   19  A    between atoms: N_34  and  C_63
   20  A    between atoms: C_37  and  C_53
   21  A    between atoms: C_40  and  C_49
   22  A    between atoms: C_40  and  C_60
   23  A    between atoms: C_42  and  C_44
   24  A    between atoms: C_52  and  C_53
                            x       y       z     vdW  Elec       q    Type
                         _______ _______ _______ _____ _____    ______ ____

>  <TORSDO>
F 24

$$$$
=
 OpenBabel11042419373D

 63 70  0  0  1  0  0  0  0  0999 V2000
  189.3420  176.7280  146.8620 C   0  0  1  0  0  3  0  0  0  0  0  0
  191.3050  174.4230  146.0090 C   0  0  0  0  0  2  0  0  0  0  0  0
  191.7160  175.0270  147.3440 C   0  0  0  0  0  2  0  0  0  0  0  0
  191.8080  176.5250  147.2600 C   0  0  0  0  0  0  0  0  0  0  0  0
  189.7890  174.4570  145.8480 C   0  0  1  0  0  3  0  0  0  0  0  0
  189.2640  175.8690  145.6000 C   0  0  0  0  0  2  0  0  0  0  0  0
  190.7240  177.2810  147.0600 C   0  0  0  0  0  3  0  0  0  0  0  0
  188.5880  178.7970  147.8310 O   0  0  0  0  0  1  0  0  0  0  0  0
  188.2920  177.8500  146.8470 C   0  0  2  0  0  3  0  0  0  0  0  0
  186.6520  176.1000  147.3380 C   0  0  0  0  0  2  0  0  0  0  0  0
  186.8630  177.3590  146.9600 C   0  0  0  0  0  0  0  0  0  0  0  0
  185.2460  179.0550  147.3910 O   0  0  0  0  0  1  0  0  0  0  0  0
  185.6920  178.1390  146.4370 C   0  0  1  0  0  3  0  0  0  0  0  0
  186.0440  178.8300  145.2050 N   0  0  0  0  0  2  0  0  0  0  0  0
  186.9150  177.5750  143.1710 C   0  0  0  0  0  2  0  0  0  0  0  0
  184.1800  178.0060  142.0070 C   0  0  0  0  0  2  0  0  0  0  0  0
  186.4630  176.8100  141.9390 C   0  0  0  0  0  2  0  0  0  0  0  0
  184.6100  178.5340  143.3450 C   0  0  0  0  0  3  0  0  0  0  0  0
  185.5630  177.9270  140.8340 S   0  0  0  0  0  0  0  0  0  0  0  0
  185.7980  178.2850  143.9060 C   0  0  0  0  0  0  0  0  0  0  0  0
  189.3360  173.5080  144.7430 C   0  0  0  0  0  2  0  0  0  0  0  0
  190.3860  172.4600  144.4080 C   0  0  0  0  0  2  0  0  0  0  0  0
  190.3180  172.1440  142.9500 C   0  0  0  0  0  3  0  0  0  0  0  0
  190.9760  172.8410  142.0080 C   0  0  0  0  0  0  0  0  0  0  0  0
  193.2180  173.6340  142.7210 C   0  0  0  0  0  2  0  0  0  0  0  0
  192.9370  174.2440  141.3690 C   0  0  0  0  0  2  0  0  0  0  0  0
  191.8020  174.0540  142.3610 C   0  0  0  0  0  3  0  0  0  0  0  0
  190.7710  172.5000  140.5540 C   0  0  2  0  0  3  0  0  0  0  0  0
  189.3480  174.1930  139.3740 O   0  0  0  0  0  0  0  0  0  0  0  0
  189.4470  172.9830  140.0510 C   0  0  0  0  0  0  0  0  0  0  0  0
  188.4190  172.2770  140.2230 O   0  0  0  0  0  1  0  0  0  0  0  0
  191.0080  170.7180  140.2440 S   0  0  0  0  0  0  0  0  0  0  0  0
  192.2570  170.5420  141.5530 C   0  0  0  0  0  2  0  0  0  0  0  0
  193.5110  170.3020  140.9820 O   0  0  0  0  0  0  0  0  0  0  0  0
  194.1040  168.1690  142.1360 C   0  0  0  0  0  2  0  0  0  0  0  0
  195.3250  168.7160  141.4010 C   0  0  2  0  0  3  0  0  0  0  0  0
  194.6720  170.4040  143.0800 O   0  0  0  0  0  1  0  0  0  0  0  0
  196.4410  168.6490  142.2390 O   0  0  0  0  0  1  0  0  0  0  0  0
  194.2780  169.6590  141.9630 C   0  0  1  0  0  0  0  0  0  0  0  0
  193.0420  177.1640  147.3910 O   0  0  0  0  0  0  0  0  0  0  0  0
  194.2400  176.6120  146.8610 C   0  0  0  0  0  2  0  0  0  0  0  0
  194.1920  176.6370  145.3450 C   0  0  0  0  0  2  0  0  0  0  0  0
  197.1120  174.6970  142.8740 C   0  0  0  0  0  0  0  0  0  0  0  0
  197.7010  173.9920  141.9070 C   0  0  0  0  0  2  0  0  0  0  0  0
  196.0900  174.8230  145.2560 C   0  0  0  0  0  3  0  0  0  0  0  0
  196.2730  176.3840  141.1580 C   0  0  0  0  0  3  0  0  0  0  0  0
  196.5010  175.9960  142.5530 C   0  0  0  0  0  0  0  0  0  0  0  0
  195.8200  176.3970  143.5640 C   0  0  0  0  0  3  0  0  0  0  0  0
  196.8880  175.6870  140.1960 C   0  0  0  0  0  3  0  0  0  0  0  0
  196.9260  174.1530  144.2110 N   0  0  0  0  0  0  0  0  0  0  0  0
  197.8580  174.5600  140.5110 C   0  0  2  0  0  3  0  0  0  0  0  0
  195.4790  176.1410  144.7810 C   0  0  0  0  0  0  0  0  0  0  0  0
  197.7110  173.4970  139.5310 N   0  0  0  0  0  2  0  0  0  0  0  0
  195.7360  172.2670  139.6790 O   0  0  0  0  0  1  0  0  0  0  0  0
  196.3050  173.4280  139.1550 C   0  0  2  0  0  3  0  0  0  0  0  0
  196.1390  173.4570  137.6360 C   0  0  0  0  0  2  0  0  0  0  0  0
  195.8510  172.0750  137.0680 C   0  0  1  0  0  3  0  0  0  0  0  0
  194.8260  171.2780  134.5630 C   0  0  0  0  0  2  0  0  0  0  0  0
  196.1730  170.9270  135.0350 C   0  0  1  0  0  3  0  0  0  0  0  0
  194.5310  171.9930  136.6820 O   0  0  0  0  0  0  0  0  0  0  0  0
  195.4570  172.1900  135.6200 C   0  0  1  0  0  0  0  0  0  0  0  0
  196.0370  169.6010  135.7890 C   0  0  0  0  0  2  0  0  0  0  0  0
  195.7820  168.4790  134.8030 C   0  0  0  0  0  1  0  0  0  0  0  0
  1  9  1  6  0  0  0
  1  7  1  0  0  0  0
  2  3  1  0  0  0  0
  4  3  1  0  0  0  0
  4 40  1  0  0  0  0
  5 21  1  6  0  0  0
  5  2  1  0  0  0  0
  6  5  1  0  0  0  0
  6  1  1  0  0  0  0
  7  4  2  0  0  0  0
  9 11  1  0  0  0  0
  9  8  1  1  0  0  0
 11 10  2  0  0  0  0
 13 11  1  0  0  0  0
 13 12  1  1  0  0  0
 14 13  1  0  0  0  0
 15 20  1  0  0  0  0
 16 18  1  0  0  0  0
 17 15  1  0  0  0  0
 18 20  2  0  0  0  0
 19 17  1  0  0  0  0
 19 16  1  0  0  0  0
 20 14  1  0  0  0  0
 22 21  1  0  0  0  0
 23 22  1  0  0  0  0
 24 27  1  0  0  0  0
 24 23  2  0  0  0  0
 26 27  1  0  0  0  0
 26 25  1  0  0  0  0
 27 25  1  0  0  0  0
 28 30  1  1  0  0  0
 28 24  1  0  0  0  0
 29 30  2  0  0  0  0
 30 31  1  0  0  0  0
 32 28  1  0  0  0  0
 32 33  1  0  0  0  0
 34 33  1  0  0  0  0
 34 39  1  0  0  0  0
 36 39  1  0  0  0  0
 36 35  1  0  0  0  0
 36 38  1  1  0  0  0
 39 35  1  0  0  0  0
 39 37  1  1  0  0  0
 41 40  1  0  0  0  0
 42 41  1  0  0  0  0
 43 50  1  0  0  0  0
 44 43  1  0  0  0  0
 46 47  1  0  0  0  0
 47 43  2  0  0  0  0
 47 48  1  0  0  0  0
 48 52  2  0  0  0  0
 49 51  1  0  0  0  0
 49 46  2  0  0  0  0
 50 45  2  0  0  0  0
 51 53  1  6  0  0  0
 51 44  1  0  0  0  0
 52 45  1  0  0  0  0
 52 42  1  0  0  0  0
 55 53  1  0  0  0  0
 55 54  1  6  0  0  0
 56 55  1  0  0  0  0
 57 56  1  1  0  0  0
 58 59  1  0  0  0  0
 59 61  1  0  0  0  0
 59 62  1  1  0  0  0
 60 57  1  0  0  0  0
 61 58  1  6  0  0  0
 61 60  1  0  0  0  0
 61 57  1  0  0  0  0
 63 62  1  0  0  0  0
M  END
>  <MODEL>
9

>  <REMARK>
 VINA RESULT:      -4.3      1.678      2.235
  Name = 
  24 active torsions:
  status: ('A' for Active; 'I' for Inactive)
    1  A    between atoms: C_1  and  C_49
    2  A    between atoms: C_3  and  C_52
    3  A    between atoms: C_5  and  C_10
    4  A    between atoms: C_5  and  C_26
    5  A    between atoms: C_6  and  O_28
    6  A    between atoms: C_6  and  S_29
    7  A    between atoms: O_8  and  C_21
    8  A    between atoms: O_8  and  C_61
    9  A    between atoms: N_13  and  C_26
   10  A    between atoms: N_13  and  C_58
   11  A    between atoms: C_17  and  C_22
   12  A    between atoms: C_17  and  C_42
   13  A    between atoms: C_18  and  C_43
   14  A    between atoms: O_28  and  C_45
   15  A    between atoms: S_29  and  C_52
   16  A    between atoms: C_30  and  C_59
   17  A    between atoms: C_30  and  C_61
   18  A    between atoms: N_34  and  C_60
   19  A    between atoms: N_34  and  C_63
   20  A    between atoms: C_37  and  C_53
   21  A    between atoms: C_40  and  C_49
   22  A    between atoms: C_40  and  C_60
   23  A    between atoms: C_42  and  C_44
   24  A    between atoms: C_52  and  C_53
                            x       y       z     vdW  Elec       q    Type
                         _______ _______ _______ _____ _____    ______ ____

>  <TORSDO>
F 24

$$$$
