=
 OpenBabel11042417003D

 38 40  0  0  1  0  0  0  0  0999 V2000
  188.5410  175.4940  142.5390 N   0  0  0  0  0  0  0  0  0  0  0  0
  189.4650  176.4740  142.5860 C   0  0  0  0  0  3  0  0  0  0  0  0
  187.5350  177.3110  142.0200 C   0  0  0  0  0  0  0  0  0  0  0  0
  187.3600  175.9920  142.2160 N   0  0  0  0  0  0  0  0  0  0  0  0
  188.8510  177.6700  142.2510 C   0  0  0  0  0  3  0  0  0  0  0  0
  190.7080  172.6120  143.5560 C   0  0  1  0  0  3  0  0  0  0  0  0
  190.1420  173.1710  141.1390 C   0  0  0  0  0  2  0  0  0  0  0  0
  188.7980  173.2260  141.7170 N   0  0  0  0  0  2  0  0  0  0  0  0
  188.7770  174.0970  142.9070 C   0  0  1  0  0  3  0  0  0  0  0  0
  190.0350  173.9620  143.7880 C   0  0  0  0  0  2  0  0  0  0  0  0
  191.1160  172.4620  142.0890 C   0  0  0  0  0  2  0  0  0  0  0  0
  191.9270  172.4590  144.4460 C   0  0  0  0  0  2  0  0  0  0  0  0
  192.8230  173.6810  144.3250 C   0  0  0  0  0  2  0  0  0  0  0  0
  193.3080  174.1380  145.6940 C   0  0  0  0  0  2  0  0  0  0  0  0
  196.1320  174.0170  143.7780 C   0  0  0  0  0  3  0  0  0  0  0  0
  194.6620  177.0030  145.5100 C   0  0  0  0  0  1  0  0  0  0  0  0
  195.1100  175.6720  144.9990 C   0  0  0  0  0  0  0  0  0  0  0  0
  194.8130  174.3940  145.6880 C   0  0  2  0  0  3  0  0  0  0  0  0
  195.8440  175.4630  143.9230 C   0  0  0  0  0  0  0  0  0  0  0  0
  195.4940  173.3490  144.9180 N   0  0  0  0  0  0  0  0  0  0  0  0
  197.3620  177.1530  143.2510 O   0  0  0  0  0  1  0  0  0  0  0  0
  196.3300  176.4830  142.9740 C   0  0  0  0  0  0  0  0  0  0  0  0
  195.6730  176.7170  141.7740 O   0  0  0  0  0  0  0  0  0  0  0  0
  186.4320  178.2730  141.6980 C   0  0  1  0  0  3  0  0  0  0  0  0
  186.5710  177.5250  139.3980 O   0  0  0  0  0  1  0  0  0  0  0  0
  185.6900  177.9380  140.4000 C   0  0  0  0  0  2  0  0  0  0  0  0
  184.3920  177.7430  142.8600 O   0  0  0  0  0  1  0  0  0  0  0  0
  185.5260  178.5540  142.9030 C   0  0  1  0  0  3  0  0  0  0  0  0
  186.2370  178.3980  144.2410 C   0  0  0  0  0  2  0  0  0  0  0  0
  185.3160  178.0420  145.2300 O   0  0  0  0  0  0  0  0  0  0  0  0
  186.0380  177.2480  146.1290 C   0  0  2  0  0  3  0  0  0  0  0  0
  184.7360  178.5440  147.6530 O   0  0  0  0  0  1  0  0  0  0  0  0
  185.9260  177.8280  147.5300 C   0  0  0  0  0  2  0  0  0  0  0  0
  187.5000  177.2040  145.7010 C   0  0  0  0  0  2  0  0  0  0  0  0
  188.2200  175.9900  146.2770 C   0  0  0  0  0  2  0  0  0  0  0  0
  189.6610  176.3220  146.6250 C   0  0  2  0  0  3  0  0  0  0  0  0
  190.1520  175.3910  147.5420 O   0  0  0  0  0  1  0  0  0  0  0  0
  189.7240  177.6480  147.2110 N   0  0  0  0  0  1  0  0  0  0  0  0
  1  2  1  0  0  0  0
  3  4  2  0  0  0  0
  3  5  1  0  0  0  0
  4  1  1  0  0  0  0
  5  2  2  0  0  0  0
  6 10  1  0  0  0  0
  6 12  1  1  0  0  0
  7  8  1  0  0  0  0
  7 11  1  0  0  0  0
  8  9  1  0  0  0  0
  9  1  1  6  0  0  0
  9 10  1  0  0  0  0
 11  6  1  0  0  0  0
 13 12  1  0  0  0  0
 13 14  1  0  0  0  0
 15 19  1  0  0  0  0
 15 20  2  0  0  0  0
 17 16  1  0  0  0  0
 17 18  1  0  0  0  0
 18 14  1  6  0  0  0
 19 17  2  0  0  0  0
 20 18  1  0  0  0  0
 22 21  1  0  0  0  0
 22 19  1  0  0  0  0
 23 22  2  0  0  0  0
 24 26  1  6  0  0  0
 24  3  1  0  0  0  0
 24 28  1  0  0  0  0
 25 26  1  0  0  0  0
 28 27  1  1  0  0  0
 28 29  1  0  0  0  0
 29 30  1  0  0  0  0
 30 31  1  0  0  0  0
 31 34  1  6  0  0  0
 31 33  1  0  0  0  0
 33 32  1  0  0  0  0
 34 35  1  0  0  0  0
 35 36  1  0  0  0  0
 36 38  1  1  0  0  0
 36 37  1  0  0  0  0
M  END
>  <MODEL>
1

>  <REMARK>
 VINA RESULT:      -6.3      0.000      0.000
  Name = 
  16 active torsions:
  status: ('A' for Active; 'I' for Inactive)
    1  A    between atoms: C_1  and  C_35
    2  A    between atoms: N_3  and  C_22
    3  A    between atoms: C_8  and  C_29
    4  A    between atoms: C_8  and  C_31
    5  A    between atoms: C_8  and  O_37
    6  A    between atoms: C_10  and  C_21
    7  A    between atoms: C_10  and  C_35
    8  A    between atoms: C_12  and  C_21
    9  A    between atoms: C_13  and  C_32
   10  A    between atoms: C_14  and  C_16
   11  A    between atoms: C_15  and  C_20
   12  A    between atoms: C_17  and  C_30
   13  A    between atoms: C_17  and  O_37
   14  A    between atoms: C_20  and  C_30
   15  A    between atoms: C_20  and  C_38
   16  A    between atoms: C_31  and  C_32
                            x       y       z     vdW  Elec       q    Type
                         _______ _______ _______ _____ _____    ______ ____

>  <TORSDO>
F 16

$$$$
=
 OpenBabel11042417003D

 38 40  0  0  1  0  0  0  0  0999 V2000
  187.8780  176.7570  146.5050 N   0  0  0  0  0  0  0  0  0  0  0  0
  186.6640  176.5950  147.0700 C   0  0  0  0  0  3  0  0  0  0  0  0
  186.4420  177.4720  145.0880 C   0  0  0  0  0  0  0  0  0  0  0  0
  187.7550  177.2700  145.2930 N   0  0  0  0  0  0  0  0  0  0  0  0
  185.7040  177.0520  146.1810 C   0  0  0  0  0  3  0  0  0  0  0  0
  191.5150  175.8700  146.3650 C   0  0  1  0  0  3  0  0  0  0  0  0
  189.6360  174.1780  146.0880 C   0  0  0  0  0  2  0  0  0  0  0  0
  189.1660  174.8590  147.2950 N   0  0  0  0  0  2  0  0  0  0  0  0
  189.1440  176.3200  147.0940 C   0  0  1  0  0  3  0  0  0  0  0  0
  190.3440  176.8450  146.2800 C   0  0  0  0  0  2  0  0  0  0  0  0
  191.1110  174.4990  145.8190 C   0  0  0  0  0  2  0  0  0  0  0  0
  192.7110  176.3980  145.5940 C   0  0  0  0  0  2  0  0  0  0  0  0
  193.8950  176.5900  146.5270 C   0  0  0  0  0  2  0  0  0  0  0  0
  194.9710  175.5460  146.2640 C   0  0  0  0  0  2  0  0  0  0  0  0
  196.7340  174.4350  143.5590 C   0  0  0  0  0  3  0  0  0  0  0  0
  194.2210  172.5350  145.5970 C   0  0  0  0  0  1  0  0  0  0  0  0
  195.1000  173.5090  144.8800 C   0  0  0  0  0  0  0  0  0  0  0  0
  194.8460  174.9690  144.8570 C   0  0  2  0  0  3  0  0  0  0  0  0
  196.1620  173.2070  144.1600 C   0  0  0  0  0  0  0  0  0  0  0  0
  195.8760  175.5450  143.9870 N   0  0  0  0  0  0  0  0  0  0  0  0
  197.5160  171.3750  144.8130 O   0  0  0  0  0  1  0  0  0  0  0  0
  196.7350  171.8630  143.9510 C   0  0  0  0  0  0  0  0  0  0  0  0
  196.4270  171.1200  142.8200 O   0  0  0  0  0  0  0  0  0  0  0  0
  185.8540  177.9850  143.8080 C   0  0  1  0  0  3  0  0  0  0  0  0
  184.7800  180.1350  144.1090 O   0  0  0  0  0  1  0  0  0  0  0  0
  185.9450  179.5070  143.6620 C   0  0  0  0  0  2  0  0  0  0  0  0
  185.3940  177.2920  141.5500 O   0  0  0  0  0  1  0  0  0  0  0  0
  186.3250  177.1910  142.5840 C   0  0  1  0  0  3  0  0  0  0  0  0
  187.7070  177.6040  142.0930 C   0  0  0  0  0  2  0  0  0  0  0  0
  188.3750  176.4970  141.5640 O   0  0  0  0  0  0  0  0  0  0  0  0
  189.0680  175.9400  142.6450 C   0  0  2  0  0  3  0  0  0  0  0  0
  191.3210  175.2030  142.3750 O   0  0  0  0  0  1  0  0  0  0  0  0
  190.5330  176.3360  142.5740 C   0  0  0  0  0  2  0  0  0  0  0  0
  188.9370  174.4220  142.6000 C   0  0  0  0  0  2  0  0  0  0  0  0
  188.1770  173.9570  141.3640 C   0  0  0  0  0  2  0  0  0  0  0  0
  188.9910  172.9500  140.5680 C   0  0  2  0  0  3  0  0  0  0  0  0
  189.7230  172.1410  141.4380 O   0  0  0  0  0  1  0  0  0  0  0  0
  189.9050  173.6540  139.6870 N   0  0  0  0  0  1  0  0  0  0  0  0
  1  2  1  0  0  0  0
  1  9  1  0  0  0  0
  3  4  2  0  0  0  0
  3  5  1  0  0  0  0
  4  1  1  0  0  0  0
  5  2  2  0  0  0  0
  6 12  1  6  0  0  0
  7  8  1  0  0  0  0
  9 10  1  6  0  0  0
  9  8  1  0  0  0  0
 10  6  1  0  0  0  0
 11  7  1  0  0  0  0
 11  6  1  0  0  0  0
 12 13  1  0  0  0  0
 14 13  1  0  0  0  0
 15 20  2  0  0  0  0
 15 19  1  0  0  0  0
 17 16  1  0  0  0  0
 18 17  1  0  0  0  0
 18 14  1  1  0  0  0
 19 17  2  0  0  0  0
 20 18  1  0  0  0  0
 22 19  1  0  0  0  0
 22 21  1  0  0  0  0
 23 22  2  0  0  0  0
 24 26  1  6  0  0  0
 24  3  1  0  0  0  0
 26 25  1  0  0  0  0
 28 27  1  6  0  0  0
 28 24  1  0  0  0  0
 29 28  1  0  0  0  0
 30 29  1  0  0  0  0
 30 31  1  0  0  0  0
 31 33  1  6  0  0  0
 32 33  1  0  0  0  0
 34 31  1  0  0  0  0
 35 34  1  0  0  0  0
 36 38  1  6  0  0  0
 36 35  1  0  0  0  0
 36 37  1  0  0  0  0
M  END
>  <MODEL>
2

>  <REMARK>
 VINA RESULT:      -6.1      2.467      4.735
  Name = 
  16 active torsions:
  status: ('A' for Active; 'I' for Inactive)
    1  A    between atoms: C_1  and  C_35
    2  A    between atoms: N_3  and  C_22
    3  A    between atoms: C_8  and  C_29
    4  A    between atoms: C_8  and  C_31
    5  A    between atoms: C_8  and  O_37
    6  A    between atoms: C_10  and  C_21
    7  A    between atoms: C_10  and  C_35
    8  A    between atoms: C_12  and  C_21
    9  A    between atoms: C_13  and  C_32
   10  A    between atoms: C_14  and  C_16
   11  A    between atoms: C_15  and  C_20
   12  A    between atoms: C_17  and  C_30
   13  A    between atoms: C_17  and  O_37
   14  A    between atoms: C_20  and  C_30
   15  A    between atoms: C_20  and  C_38
   16  A    between atoms: C_31  and  C_32
                            x       y       z     vdW  Elec       q    Type
                         _______ _______ _______ _____ _____    ______ ____

>  <TORSDO>
F 16

$$$$
=
 OpenBabel11042417003D

 38 40  0  0  1  0  0  0  0  0999 V2000
  188.3830  175.5770  142.4220 N   0  0  0  0  0  0  0  0  0  0  0  0
  189.3250  176.5370  142.3250 C   0  0  0  0  0  3  0  0  0  0  0  0
  187.3580  177.3970  141.9550 C   0  0  0  0  0  0  0  0  0  0  0  0
  187.1820  176.0910  142.2200 N   0  0  0  0  0  0  0  0  0  0  0  0
  188.6980  177.7340  142.0180 C   0  0  0  0  0  3  0  0  0  0  0  0
  190.4720  172.4740  142.6240 C   0  0  1  0  0  3  0  0  0  0  0  0
  188.8200  172.9460  140.7480 C   0  0  0  0  0  2  0  0  0  0  0  0
  187.9650  173.2460  141.8980 N   0  0  0  0  0  2  0  0  0  0  0  0
  188.6340  174.1900  142.8130 C   0  0  1  0  0  3  0  0  0  0  0  0
  190.1450  173.9240  142.9710 C   0  0  0  0  0  2  0  0  0  0  0  0
  190.0650  172.1630  141.1820 C   0  0  0  0  0  2  0  0  0  0  0  0
  191.9520  172.1970  142.8110 C   0  0  0  0  0  2  0  0  0  0  0  0
  192.7780  173.3220  142.2080 C   0  0  0  0  0  2  0  0  0  0  0  0
  194.2650  173.0780  142.4170 C   0  0  0  0  0  2  0  0  0  0  0  0
  193.7080  176.1710  143.7530 C   0  0  0  0  0  3  0  0  0  0  0  0
  195.2590  173.1940  145.4300 C   0  0  0  0  0  1  0  0  0  0  0  0
  194.7140  174.2600  144.5350 C   0  0  0  0  0  0  0  0  0  0  0  0
  194.9350  174.2840  143.0700 C   0  0  2  0  0  3  0  0  0  0  0  0
  194.0190  175.3130  144.9200 C   0  0  0  0  0  0  0  0  0  0  0  0
  194.3160  175.5220  142.5860 N   0  0  0  0  0  0  0  0  0  0  0  0
  194.0210  176.6780  146.8570 O   0  0  0  0  0  0  0  0  0  0  0  0
  193.5920  175.6340  146.2960 C   0  0  0  0  0  0  0  0  0  0  0  0
  192.7180  174.8060  146.9860 O   0  0  0  0  0  1  0  0  0  0  0  0
  186.2430  178.3720  141.7270 C   0  0  1  0  0  3  0  0  0  0  0  0
  186.2270  177.5670  139.4420 O   0  0  0  0  0  1  0  0  0  0  0  0
  185.4250  178.0800  140.4650 C   0  0  0  0  0  2  0  0  0  0  0  0
  184.3160  177.7540  143.0300 O   0  0  0  0  0  1  0  0  0  0  0  0
  185.4100  178.6200  142.9900 C   0  0  1  0  0  3  0  0  0  0  0  0
  186.2180  178.5090  144.2760 C   0  0  0  0  0  2  0  0  0  0  0  0
  185.3920  178.0890  145.3230 O   0  0  0  0  0  0  0  0  0  0  0  0
  186.1480  177.1430  146.0240 C   0  0  2  0  0  3  0  0  0  0  0  0
  186.1640  178.7320  147.8040 O   0  0  0  0  0  1  0  0  0  0  0  0
  186.0040  177.3770  147.5190 C   0  0  0  0  0  2  0  0  0  0  0  0
  187.6110  177.2650  145.6180 C   0  0  0  0  0  2  0  0  0  0  0  0
  188.4960  176.2980  146.3980 C   0  0  0  0  0  2  0  0  0  0  0  0
  189.9610  176.6850  146.2850 C   0  0  2  0  0  3  0  0  0  0  0  0
  190.4510  177.0520  147.5390 O   0  0  0  0  0  1  0  0  0  0  0  0
  190.0970  177.8050  145.3720 N   0  0  0  0  0  1  0  0  0  0  0  0
  2  1  1  0  0  0  0
  3  5  1  0  0  0  0
  3  4  2  0  0  0  0
  4  1  1  0  0  0  0
  5  2  2  0  0  0  0
  6 12  1  6  0  0  0
  6 10  1  0  0  0  0
  7 11  1  0  0  0  0
  7  8  1  0  0  0  0
  8  9  1  0  0  0  0
  9  1  1  6  0  0  0
  9 10  1  0  0  0  0
 11  6  1  0  0  0  0
 13 14  1  0  0  0  0
 13 12  1  0  0  0  0
 15 19  1  0  0  0  0
 17 19  2  0  0  0  0
 17 16  1  0  0  0  0
 18 14  1  6  0  0  0
 18 17  1  0  0  0  0
 19 22  1  0  0  0  0
 20 18  1  0  0  0  0
 20 15  2  0  0  0  0
 22 21  2  0  0  0  0
 22 23  1  0  0  0  0
 24 26  1  6  0  0  0
 24  3  1  0  0  0  0
 24 28  1  0  0  0  0
 25 26  1  0  0  0  0
 28 27  1  1  0  0  0
 28 29  1  0  0  0  0
 29 30  1  0  0  0  0
 30 31  1  0  0  0  0
 31 34  1  6  0  0  0
 31 33  1  0  0  0  0
 33 32  1  0  0  0  0
 34 35  1  0  0  0  0
 36 38  1  6  0  0  0
 36 35  1  0  0  0  0
 36 37  1  0  0  0  0
M  END
>  <MODEL>
3

>  <REMARK>
 VINA RESULT:      -6.0      1.668      2.116
  Name = 
  16 active torsions:
  status: ('A' for Active; 'I' for Inactive)
    1  A    between atoms: C_1  and  C_35
    2  A    between atoms: N_3  and  C_22
    3  A    between atoms: C_8  and  C_29
    4  A    between atoms: C_8  and  C_31
    5  A    between atoms: C_8  and  O_37
    6  A    between atoms: C_10  and  C_21
    7  A    between atoms: C_10  and  C_35
    8  A    between atoms: C_12  and  C_21
    9  A    between atoms: C_13  and  C_32
   10  A    between atoms: C_14  and  C_16
   11  A    between atoms: C_15  and  C_20
   12  A    between atoms: C_17  and  C_30
   13  A    between atoms: C_17  and  O_37
   14  A    between atoms: C_20  and  C_30
   15  A    between atoms: C_20  and  C_38
   16  A    between atoms: C_31  and  C_32
                            x       y       z     vdW  Elec       q    Type
                         _______ _______ _______ _____ _____    ______ ____

>  <TORSDO>
F 16

$$$$
=
 OpenBabel11042417003D

 38 40  0  0  1  0  0  0  0  0999 V2000
  191.9030  176.6490  143.3080 N   0  0  0  0  0  0  0  0  0  0  0  0
  191.2470  177.8260  143.3610 C   0  0  0  0  0  3  0  0  0  0  0  0
  189.9850  176.3240  142.4130 C   0  0  0  0  0  0  0  0  0  0  0  0
  191.1390  175.7240  142.7530 N   0  0  0  0  0  0  0  0  0  0  0  0
  189.9970  177.6560  142.7860 C   0  0  0  0  0  3  0  0  0  0  0  0
  194.4020  174.5890  145.1910 C   0  0  1  0  0  3  0  0  0  0  0  0
  192.8930  176.3240  146.2790 C   0  0  0  0  0  2  0  0  0  0  0  0
  193.3980  177.1190  145.1590 N   0  0  0  0  0  2  0  0  0  0  0  0
  193.2230  176.3950  143.8850 C   0  0  1  0  0  3  0  0  0  0  0  0
  193.4970  174.8820  143.9970 C   0  0  0  0  0  2  0  0  0  0  0  0
  193.7490  175.0690  146.4890 C   0  0  0  0  0  2  0  0  0  0  0  0
  194.7030  173.1050  145.2860 C   0  0  0  0  0  2  0  0  0  0  0  0
  196.2060  172.8730  145.2870 C   0  0  0  0  0  2  0  0  0  0  0  0
  196.9610  174.1910  145.1860 C   0  0  0  0  0  2  0  0  0  0  0  0
  197.0310  173.2190  141.9140 C   0  0  0  0  0  3  0  0  0  0  0  0
  197.0550  176.7180  143.2670 C   0  0  0  0  0  1  0  0  0  0  0  0
  197.1380  175.2560  142.9690 C   0  0  0  0  0  0  0  0  0  0  0  0
  197.7580  174.2720  143.8870 C   0  0  2  0  0  3  0  0  0  0  0  0
  196.7220  174.6670  141.8640 C   0  0  0  0  0  0  0  0  0  0  0  0
  197.7110  172.9820  143.1920 N   0  0  0  0  0  0  0  0  0  0  0  0
  196.7000  175.5730  139.6750 O   0  0  0  0  0  0  0  0  0  0  0  0
  196.0470  175.3100  140.7210 C   0  0  0  0  0  0  0  0  0  0  0  0
  194.6960  175.6290  140.7730 O   0  0  0  0  0  1  0  0  0  0  0  0
  188.8090  175.6170  141.8100 C   0  0  1  0  0  3  0  0  0  0  0  0
  188.1400  173.3000  141.5850 O   0  0  0  0  0  1  0  0  0  0  0  0
  188.4660  174.2980  142.5080 C   0  0  0  0  0  2  0  0  0  0  0  0
  187.1400  176.4230  140.2740 O   0  0  0  0  0  1  0  0  0  0  0  0
  187.6160  176.5520  141.5800 C   0  0  1  0  0  3  0  0  0  0  0  0
  186.4840  176.3420  142.5770 C   0  0  0  0  0  2  0  0  0  0  0  0
  185.6920  177.4920  142.6470 O   0  0  0  0  0  0  0  0  0  0  0  0
  185.0440  177.4100  143.8850 C   0  0  2  0  0  3  0  0  0  0  0  0
  183.4530  179.1870  143.8040 O   0  0  0  0  0  1  0  0  0  0  0  0
  184.6710  178.8040  144.3620 C   0  0  0  0  0  2  0  0  0  0  0  0
  185.9700  176.7450  144.8970 C   0  0  0  0  0  2  0  0  0  0  0  0
  185.4600  176.9130  146.3240 C   0  0  0  0  0  2  0  0  0  0  0  0
  186.6040  177.1960  147.2830 C   0  0  2  0  0  3  0  0  0  0  0  0
  186.3030  178.3160  148.0590 O   0  0  0  0  0  1  0  0  0  0  0  0
  187.8170  177.4490  146.5290 N   0  0  0  0  0  1  0  0  0  0  0  0
  1  2  1  0  0  0  0
  3  4  2  0  0  0  0
  3  5  1  0  0  0  0
  4  1  1  0  0  0  0
  5  2  2  0  0  0  0
  6 12  1  1  0  0  0
  6 11  1  0  0  0  0
  7 11  1  0  0  0  0
  8  7  1  0  0  0  0
  9  1  1  1  0  0  0
  9 10  1  0  0  0  0
  9  8  1  0  0  0  0
 10  6  1  0  0  0  0
 12 13  1  0  0  0  0
 14 13  1  0  0  0  0
 15 20  2  0  0  0  0
 17 16  1  0  0  0  0
 17 18  1  0  0  0  0
 18 14  1  1  0  0  0
 19 15  1  0  0  0  0
 19 17  2  0  0  0  0
 20 18  1  0  0  0  0
 21 22  2  0  0  0  0
 22 23  1  0  0  0  0
 22 19  1  0  0  0  0
 24  3  1  0  0  0  0
 24 26  1  1  0  0  0
 25 26  1  0  0  0  0
 28 27  1  6  0  0  0
 28 24  1  0  0  0  0
 28 29  1  0  0  0  0
 29 30  1  0  0  0  0
 30 31  1  0  0  0  0
 31 33  1  1  0  0  0
 31 34  1  0  0  0  0
 32 33  1  0  0  0  0
 34 35  1  0  0  0  0
 35 36  1  0  0  0  0
 36 38  1  6  0  0  0
 36 37  1  0  0  0  0
M  END
>  <MODEL>
4

>  <REMARK>
 VINA RESULT:      -6.0      2.273      3.721
  Name = 
  16 active torsions:
  status: ('A' for Active; 'I' for Inactive)
    1  A    between atoms: C_1  and  C_35
    2  A    between atoms: N_3  and  C_22
    3  A    between atoms: C_8  and  C_29
    4  A    between atoms: C_8  and  C_31
    5  A    between atoms: C_8  and  O_37
    6  A    between atoms: C_10  and  C_21
    7  A    between atoms: C_10  and  C_35
    8  A    between atoms: C_12  and  C_21
    9  A    between atoms: C_13  and  C_32
   10  A    between atoms: C_14  and  C_16
   11  A    between atoms: C_15  and  C_20
   12  A    between atoms: C_17  and  C_30
   13  A    between atoms: C_17  and  O_37
   14  A    between atoms: C_20  and  C_30
   15  A    between atoms: C_20  and  C_38
   16  A    between atoms: C_31  and  C_32
                            x       y       z     vdW  Elec       q    Type
                         _______ _______ _______ _____ _____    ______ ____

>  <TORSDO>
F 16

$$$$
=
 OpenBabel11042417003D

 38 40  0  0  1  0  0  0  0  0999 V2000
  191.4560  176.0280  144.8110 N   0  0  0  0  0  0  0  0  0  0  0  0
  192.1920  176.8250  145.6110 C   0  0  0  0  0  3  0  0  0  0  0  0
  193.4860  175.8450  144.1580 C   0  0  0  0  0  0  0  0  0  0  0  0
  192.2270  175.4430  143.9110 N   0  0  0  0  0  0  0  0  0  0  0  0
  193.5180  176.7310  145.2200 C   0  0  0  0  0  3  0  0  0  0  0  0
  188.0840  176.6120  146.3370 C   0  0  1  0  0  3  0  0  0  0  0  0
  189.4950  174.5410  146.7760 C   0  0  0  0  0  2  0  0  0  0  0  0
  189.5770  174.5790  145.3150 N   0  0  0  0  0  2  0  0  0  0  0  0
  189.9970  175.9140  144.8500 C   0  0  1  0  0  3  0  0  0  0  0  0
  189.3730  177.0690  145.6600 C   0  0  0  0  0  2  0  0  0  0  0  0
  188.3620  175.4420  147.2830 C   0  0  0  0  0  2  0  0  0  0  0  0
  187.4470  177.7540  147.1060 C   0  0  0  0  0  2  0  0  0  0  0  0
  186.1920  178.2320  146.3940 C   0  0  0  0  0  2  0  0  0  0  0  0
  185.4920  177.0770  145.6910 C   0  0  0  0  0  2  0  0  0  0  0  0
  186.0320  179.3150  143.1690 C   0  0  0  0  0  3  0  0  0  0  0  0
  186.4880  175.5920  143.0690 C   0  0  0  0  0  1  0  0  0  0  0  0
  186.1420  177.0250  143.3130 C   0  0  0  0  0  0  0  0  0  0  0  0
  185.0950  177.4580  144.2670 C   0  0  2  0  0  3  0  0  0  0  0  0
  186.6750  178.0650  142.7000 C   0  0  0  0  0  0  0  0  0  0  0  0
  185.0130  178.9170  144.1460 N   0  0  0  0  0  0  0  0  0  0  0  0
  187.4710  177.8200  140.4820 O   0  0  0  0  0  0  0  0  0  0  0  0
  187.7520  178.0390  141.6920 C   0  0  0  0  0  0  0  0  0  0  0  0
  189.0750  178.2560  142.0500 O   0  0  0  0  0  1  0  0  0  0  0  0
  194.6740  175.4660  143.3270 C   0  0  1  0  0  3  0  0  0  0  0  0
  197.0120  175.9210  142.8850 O   0  0  0  0  0  1  0  0  0  0  0  0
  195.8510  176.4360  143.4670 C   0  0  0  0  0  2  0  0  0  0  0  0
  194.8340  173.5520  144.7780 O   0  0  0  0  0  1  0  0  0  0  0  0
  195.0420  173.9840  143.4670 C   0  0  1  0  0  3  0  0  0  0  0  0
  194.2970  173.0830  142.4910 C   0  0  0  0  0  2  0  0  0  0  0  0
  194.1370  173.7370  141.2660 O   0  0  0  0  0  0  0  0  0  0  0  0
  193.1540  173.0060  140.5900 C   0  0  2  0  0  3  0  0  0  0  0  0
  194.8250  172.3030  139.0390 O   0  0  0  0  0  1  0  0  0  0  0  0
  193.5450  172.8470  139.1300 C   0  0  0  0  0  2  0  0  0  0  0  0
  191.8210  173.7370  140.6930 C   0  0  0  0  0  2  0  0  0  0  0  0
  190.7170  172.8280  141.2200 C   0  0  0  0  0  2  0  0  0  0  0  0
  189.5770  173.6380  141.8150 C   0  0  2  0  0  3  0  0  0  0  0  0
  188.5840  172.7790  142.2890 O   0  0  0  0  0  1  0  0  0  0  0  0
  189.0140  174.5020  140.7930 N   0  0  0  0  0  1  0  0  0  0  0  0
  1  2  1  0  0  0  0
  3  5  1  0  0  0  0
  4  3  2  0  0  0  0
  4  1  1  0  0  0  0
  5  2  2  0  0  0  0
  6 12  1  1  0  0  0
  6 11  1  0  0  0  0
  7 11  1  0  0  0  0
  8  7  1  0  0  0  0
  9  1  1  1  0  0  0
  9  8  1  0  0  0  0
  9 10  1  0  0  0  0
 10  6  1  0  0  0  0
 13 12  1  0  0  0  0
 14 13  1  0  0  0  0
 15 20  2  0  0  0  0
 16 17  1  0  0  0  0
 17 18  1  0  0  0  0
 18 14  1  1  0  0  0
 19 15  1  0  0  0  0
 19 17  2  0  0  0  0
 20 18  1  0  0  0  0
 21 22  2  0  0  0  0
 22 23  1  0  0  0  0
 22 19  1  0  0  0  0
 24 28  1  0  0  0  0
 24 26  1  1  0  0  0
 24  3  1  0  0  0  0
 25 26  1  0  0  0  0
 28 27  1  1  0  0  0
 29 28  1  0  0  0  0
 30 29  1  0  0  0  0
 31 33  1  6  0  0  0
 31 34  1  0  0  0  0
 31 30  1  0  0  0  0
 32 33  1  0  0  0  0
 34 35  1  0  0  0  0
 35 36  1  0  0  0  0
 36 38  1  6  0  0  0
 36 37  1  0  0  0  0
M  END
>  <MODEL>
5

>  <REMARK>
 VINA RESULT:      -5.9      2.522      8.556
  Name = 
  16 active torsions:
  status: ('A' for Active; 'I' for Inactive)
    1  A    between atoms: C_1  and  C_35
    2  A    between atoms: N_3  and  C_22
    3  A    between atoms: C_8  and  C_29
    4  A    between atoms: C_8  and  C_31
    5  A    between atoms: C_8  and  O_37
    6  A    between atoms: C_10  and  C_21
    7  A    between atoms: C_10  and  C_35
    8  A    between atoms: C_12  and  C_21
    9  A    between atoms: C_13  and  C_32
   10  A    between atoms: C_14  and  C_16
   11  A    between atoms: C_15  and  C_20
   12  A    between atoms: C_17  and  C_30
   13  A    between atoms: C_17  and  O_37
   14  A    between atoms: C_20  and  C_30
   15  A    between atoms: C_20  and  C_38
   16  A    between atoms: C_31  and  C_32
                            x       y       z     vdW  Elec       q    Type
                         _______ _______ _______ _____ _____    ______ ____

>  <TORSDO>
F 16

$$$$
=
 OpenBabel11042417003D

 38 40  0  0  1  0  0  0  0  0999 V2000
  194.0120  176.0580  144.8690 N   0  0  0  0  0  0  0  0  0  0  0  0
  195.1160  176.7820  144.5970 C   0  0  0  0  0  3  0  0  0  0  0  0
  195.5460  174.6610  144.3420 C   0  0  0  0  0  0  0  0  0  0  0  0
  194.2540  174.7700  144.6970 N   0  0  0  0  0  0  0  0  0  0  0  0
  196.1370  175.9090  144.2550 C   0  0  0  0  0  3  0  0  0  0  0  0
  190.3130  175.8340  145.4210 C   0  0  1  0  0  3  0  0  0  0  0  0
  191.3760  176.3970  143.1790 C   0  0  0  0  0  2  0  0  0  0  0  0
  192.1190  177.3240  144.0330 N   0  0  0  0  0  2  0  0  0  0  0  0
  192.6980  176.6170  145.1910 C   0  0  1  0  0  3  0  0  0  0  0  0
  191.7660  175.5380  145.7800 C   0  0  0  0  0  2  0  0  0  0  0  0
  190.1320  175.8660  143.9010 C   0  0  0  0  0  2  0  0  0  0  0  0
  189.3880  174.7950  146.0260 C   0  0  0  0  0  2  0  0  0  0  0  0
  188.6300  175.3890  147.2030 C   0  0  0  0  0  2  0  0  0  0  0  0
  188.0840  176.7670  146.8600 C   0  0  0  0  0  2  0  0  0  0  0  0
  185.2570  178.6780  146.9910 C   0  0  0  0  0  3  0  0  0  0  0  0
  186.5060  176.6260  144.1090 C   0  0  0  0  0  1  0  0  0  0  0  0
  186.1580  177.2820  145.4070 C   0  0  0  0  0  0  0  0  0  0  0  0
  186.5640  176.7410  146.7260 C   0  0  2  0  0  3  0  0  0  0  0  0
  185.4320  178.3730  145.5520 C   0  0  0  0  0  0  0  0  0  0  0  0
  185.9590  177.6220  147.7290 N   0  0  0  0  0  0  0  0  0  0  0  0
  183.7120  178.9270  144.0200 O   0  0  0  0  0  1  0  0  0  0  0  0
  184.8560  179.2000  144.4750 C   0  0  0  0  0  0  0  0  0  0  0  0
  185.5510  180.2820  143.9520 O   0  0  0  0  0  0  0  0  0  0  0  0
  196.2210  173.3710  143.9880 C   0  0  1  0  0  3  0  0  0  0  0  0
  196.6860  173.7360  141.6390 O   0  0  0  0  0  1  0  0  0  0  0  0
  197.2750  173.5170  142.8860 C   0  0  0  0  0  2  0  0  0  0  0  0
  197.0760  173.4680  146.2350 O   0  0  0  0  0  1  0  0  0  0  0  0
  196.6840  172.5900  145.2230 C   0  0  1  0  0  3  0  0  0  0  0  0
  195.6390  171.6140  145.7470 C   0  0  0  0  0  2  0  0  0  0  0  0
  195.0740  170.9050  144.6830 O   0  0  0  0  0  0  0  0  0  0  0  0
  193.9100  170.3320  145.2060 C   0  0  2  0  0  3  0  0  0  0  0  0
  195.1990  168.4110  144.6220 O   0  0  0  0  0  1  0  0  0  0  0  0
  194.1070  168.8350  145.3780 C   0  0  0  0  0  2  0  0  0  0  0  0
  192.7460  170.5960  144.2580 C   0  0  0  0  0  2  0  0  0  0  0  0
  192.3660  172.0720  144.2290 C   0  0  0  0  0  2  0  0  0  0  0  0
  190.9780  172.2680  143.6410 C   0  0  2  0  0  3  0  0  0  0  0  0
  190.0130  171.8650  144.5650 O   0  0  0  0  0  1  0  0  0  0  0  0
  190.8470  171.4720  142.4350 N   0  0  0  0  0  1  0  0  0  0  0  0
  2  1  1  0  0  0  0
  3  4  2  0  0  0  0
  4  1  1  0  0  0  0
  5  3  1  0  0  0  0
  5  2  2  0  0  0  0
  6 10  1  0  0  0  0
  6 12  1  1  0  0  0
  7 11  1  0  0  0  0
  7  8  1  0  0  0  0
  8  9  1  0  0  0  0
  9  1  1  6  0  0  0
  9 10  1  0  0  0  0
 11  6  1  0  0  0  0
 12 13  1  0  0  0  0
 14 13  1  0  0  0  0
 15 20  2  0  0  0  0
 16 17  1  0  0  0  0
 17 19  2  0  0  0  0
 17 18  1  0  0  0  0
 18 14  1  6  0  0  0
 18 20  1  0  0  0  0
 19 15  1  0  0  0  0
 21 22  1  0  0  0  0
 22 19  1  0  0  0  0
 23 22  2  0  0  0  0
 24 26  1  6  0  0  0
 24  3  1  0  0  0  0
 24 28  1  0  0  0  0
 25 26  1  0  0  0  0
 28 29  1  0  0  0  0
 28 27  1  1  0  0  0
 30 31  1  0  0  0  0
 30 29  1  0  0  0  0
 31 34  1  6  0  0  0
 31 33  1  0  0  0  0
 32 33  1  0  0  0  0
 35 34  1  0  0  0  0
 36 38  1  6  0  0  0
 36 35  1  0  0  0  0
 36 37  1  0  0  0  0
M  END
>  <MODEL>
6

>  <REMARK>
 VINA RESULT:      -5.8      2.895      9.281
  Name = 
  16 active torsions:
  status: ('A' for Active; 'I' for Inactive)
    1  A    between atoms: C_1  and  C_35
    2  A    between atoms: N_3  and  C_22
    3  A    between atoms: C_8  and  C_29
    4  A    between atoms: C_8  and  C_31
    5  A    between atoms: C_8  and  O_37
    6  A    between atoms: C_10  and  C_21
    7  A    between atoms: C_10  and  C_35
    8  A    between atoms: C_12  and  C_21
    9  A    between atoms: C_13  and  C_32
   10  A    between atoms: C_14  and  C_16
   11  A    between atoms: C_15  and  C_20
   12  A    between atoms: C_17  and  C_30
   13  A    between atoms: C_17  and  O_37
   14  A    between atoms: C_20  and  C_30
   15  A    between atoms: C_20  and  C_38
   16  A    between atoms: C_31  and  C_32
                            x       y       z     vdW  Elec       q    Type
                         _______ _______ _______ _____ _____    ______ ____

>  <TORSDO>
F 16

$$$$
=
 OpenBabel11042417003D

 38 40  0  0  1  0  0  0  0  0999 V2000
  190.8590  176.0960  144.9790 N   0  0  0  0  0  0  0  0  0  0  0  0
  189.9520  175.1540  145.3090 C   0  0  0  0  0  3  0  0  0  0  0  0
  189.4250  176.0430  143.3910 C   0  0  0  0  0  0  0  0  0  0  0  0
  190.5610  176.6290  143.8070 N   0  0  0  0  0  0  0  0  0  0  0  0
  189.0020  175.0920  144.3020 C   0  0  0  0  0  3  0  0  0  0  0  0
  194.5670  176.3670  145.4370 C   0  0  1  0  0  3  0  0  0  0  0  0
  193.2140  174.3010  146.0500 C   0  0  0  0  0  2  0  0  0  0  0  0
  192.3900  175.3240  146.6950 N   0  0  0  0  0  2  0  0  0  0  0  0
  192.0650  176.4070  145.7470 C   0  0  1  0  0  3  0  0  0  0  0  0
  193.2360  176.7760  144.8130 C   0  0  0  0  0  2  0  0  0  0  0  0
  194.5980  174.8590  145.6940 C   0  0  0  0  0  2  0  0  0  0  0  0
  195.7250  176.7590  144.5390 C   0  0  0  0  0  2  0  0  0  0  0  0
  196.4790  175.5200  144.0820 C   0  0  0  0  0  2  0  0  0  0  0  0
  196.9880  175.6880  142.6570 C   0  0  0  0  0  2  0  0  0  0  0  0
  195.6590  172.5430  142.6850 C   0  0  0  0  0  3  0  0  0  0  0  0
  194.3140  175.5860  140.9500 C   0  0  0  0  0  1  0  0  0  0  0  0
  195.0830  174.5020  141.6330 C   0  0  0  0  0  0  0  0  0  0  0  0
  196.5580  174.5170  141.7770 C   0  0  2  0  0  3  0  0  0  0  0  0
  194.5750  173.3990  142.1480 C   0  0  0  0  0  0  0  0  0  0  0  0
  196.9160  173.2500  142.4220 N   0  0  0  0  0  0  0  0  0  0  0  0
  192.7750  171.9080  141.7600 O   0  0  0  0  0  0  0  0  0  0  0  0
  193.1480  173.0270  142.2050 C   0  0  0  0  0  0  0  0  0  0  0  0
  192.2040  173.8890  142.7460 O   0  0  0  0  0  1  0  0  0  0  0  0
  188.7690  176.3100  142.0700 C   0  0  1  0  0  3  0  0  0  0  0  0
  188.4370  174.4490  140.5560 O   0  0  0  0  0  1  0  0  0  0  0  0
  187.8570  175.1720  141.6010 C   0  0  0  0  0  2  0  0  0  0  0  0
  187.4030  177.8490  140.8210 O   0  0  0  0  0  1  0  0  0  0  0  0
  188.1450  177.7080  141.9950 C   0  0  1  0  0  3  0  0  0  0  0  0
  187.2860  178.0510  143.2060 C   0  0  0  0  0  2  0  0  0  0  0  0
  186.0170  178.4610  142.7890 O   0  0  0  0  0  0  0  0  0  0  0  0
  185.1370  177.9520  143.7510 C   0  0  2  0  0  3  0  0  0  0  0  0
  185.1060  180.2780  144.2820 O   0  0  0  0  0  1  0  0  0  0  0  0
  184.3820  179.0940  144.4120 C   0  0  0  0  0  2  0  0  0  0  0  0
  185.9270  177.1770  144.7980 C   0  0  0  0  0  2  0  0  0  0  0  0
  185.1950  177.1260  146.1340 C   0  0  0  0  0  2  0  0  0  0  0  0
  186.1180  177.5120  147.2790 C   0  0  2  0  0  3  0  0  0  0  0  0
  185.8850  178.8380  147.6460 O   0  0  0  0  0  1  0  0  0  0  0  0
  187.4990  177.3680  146.8570 N   0  0  0  0  0  1  0  0  0  0  0  0
  1  2  1  0  0  0  0
  1  9  1  0  0  0  0
  3  4  2  0  0  0  0
  3  5  1  0  0  0  0
  4  1  1  0  0  0  0
  5  2  2  0  0  0  0
  6 12  1  6  0  0  0
  6 11  1  0  0  0  0
  7  8  1  0  0  0  0
  9 10  1  6  0  0  0
  9  8  1  0  0  0  0
 10  6  1  0  0  0  0
 11  7  1  0  0  0  0
 13 12  1  0  0  0  0
 14 13  1  0  0  0  0
 16 17  1  0  0  0  0
 17 18  1  0  0  0  0
 17 19  2  0  0  0  0
 18 20  1  0  0  0  0
 18 14  1  1  0  0  0
 19 22  1  0  0  0  0
 19 15  1  0  0  0  0
 20 15  2  0  0  0  0
 21 22  2  0  0  0  0
 22 23  1  0  0  0  0
 24 26  1  1  0  0  0
 24  3  1  0  0  0  0
 25 26  1  0  0  0  0
 28 27  1  6  0  0  0
 28 24  1  0  0  0  0
 28 29  1  0  0  0  0
 30 29  1  0  0  0  0
 30 31  1  0  0  0  0
 31 33  1  1  0  0  0
 31 34  1  0  0  0  0
 32 33  1  0  0  0  0
 34 35  1  0  0  0  0
 35 36  1  0  0  0  0
 36 38  1  6  0  0  0
 36 37  1  0  0  0  0
M  END
>  <MODEL>
7

>  <REMARK>
 VINA RESULT:      -5.8      2.439      4.126
  Name = 
  16 active torsions:
  status: ('A' for Active; 'I' for Inactive)
    1  A    between atoms: C_1  and  C_35
    2  A    between atoms: N_3  and  C_22
    3  A    between atoms: C_8  and  C_29
    4  A    between atoms: C_8  and  C_31
    5  A    between atoms: C_8  and  O_37
    6  A    between atoms: C_10  and  C_21
    7  A    between atoms: C_10  and  C_35
    8  A    between atoms: C_12  and  C_21
    9  A    between atoms: C_13  and  C_32
   10  A    between atoms: C_14  and  C_16
   11  A    between atoms: C_15  and  C_20
   12  A    between atoms: C_17  and  C_30
   13  A    between atoms: C_17  and  O_37
   14  A    between atoms: C_20  and  C_30
   15  A    between atoms: C_20  and  C_38
   16  A    between atoms: C_31  and  C_32
                            x       y       z     vdW  Elec       q    Type
                         _______ _______ _______ _____ _____    ______ ____

>  <TORSDO>
F 16

$$$$
=
 OpenBabel11042417003D

 38 40  0  0  1  0  0  0  0  0999 V2000
  189.2480  175.0420  142.6300 N   0  0  0  0  0  0  0  0  0  0  0  0
  188.0520  174.4240  142.7060 C   0  0  0  0  0  3  0  0  0  0  0  0
  187.7740  176.4900  142.0730 C   0  0  0  0  0  0  0  0  0  0  0  0
  189.0950  176.2910  142.2270 N   0  0  0  0  0  0  0  0  0  0  0  0
  187.0680  175.3350  142.3550 C   0  0  0  0  0  3  0  0  0  0  0  0
  192.9800  174.8350  142.3740 C   0  0  1  0  0  3  0  0  0  0  0  0
  191.3880  173.8590  140.6450 C   0  0  0  0  0  2  0  0  0  0  0  0
  190.7760  173.3220  141.8610 N   0  0  0  0  0  2  0  0  0  0  0  0
  190.5430  174.3950  142.8460 C   0  0  1  0  0  3  0  0  0  0  0  0
  191.6800  175.4360  142.9000 C   0  0  0  0  0  2  0  0  0  0  0  0
  192.8070  174.3680  140.9270 C   0  0  0  0  0  2  0  0  0  0  0  0
  194.1100  175.8430  142.4570 C   0  0  0  0  0  2  0  0  0  0  0  0
  194.2080  176.4090  143.8640 C   0  0  0  0  0  2  0  0  0  0  0  0
  195.5030  175.9760  144.5370 C   0  0  0  0  0  2  0  0  0  0  0  0
  193.4280  173.5510  145.7500 C   0  0  0  0  0  3  0  0  0  0  0  0
  197.1390  173.3450  145.2310 C   0  0  0  0  0  1  0  0  0  0  0  0
  195.7000  173.6910  145.4440 C   0  0  0  0  0  0  0  0  0  0  0  0
  195.2270  175.0660  145.7300 C   0  0  2  0  0  3  0  0  0  0  0  0
  194.6920  172.8400  145.4470 C   0  0  0  0  0  0  0  0  0  0  0  0
  193.7820  174.9600  145.9530 N   0  0  0  0  0  0  0  0  0  0  0  0
  194.5490  170.5770  146.1340 O   0  0  0  0  0  1  0  0  0  0  0  0
  194.7620  171.3880  145.1920 C   0  0  0  0  0  0  0  0  0  0  0  0
  195.0530  170.8950  143.9280 O   0  0  0  0  0  0  0  0  0  0  0  0
  187.1630  177.7610  141.5640 C   0  0  1  0  0  3  0  0  0  0  0  0
  186.8200  177.4510  139.1860 O   0  0  0  0  0  1  0  0  0  0  0  0
  186.1690  177.5430  140.4190 C   0  0  0  0  0  2  0  0  0  0  0  0
  185.2610  178.6880  142.7100 O   0  0  0  0  0  1  0  0  0  0  0  0
  186.6560  178.6640  142.6940 C   0  0  1  0  0  3  0  0  0  0  0  0
  187.1930  178.2750  144.0650 C   0  0  0  0  0  2  0  0  0  0  0  0
  186.1420  177.8660  144.8900 O   0  0  0  0  0  0  0  0  0  0  0  0
  186.7570  177.2150  145.9660 C   0  0  2  0  0  3  0  0  0  0  0  0
  185.5200  178.8780  147.1480 O   0  0  0  0  0  1  0  0  0  0  0  0
  186.6610  178.0800  147.2120 C   0  0  0  0  0  2  0  0  0  0  0  0
  188.2200  176.9530  145.6270 C   0  0  0  0  0  2  0  0  0  0  0  0
  189.0800  176.8530  146.8820 C   0  0  0  0  0  2  0  0  0  0  0  0
  189.8050  175.5180  146.9430 C   0  0  2  0  0  3  0  0  0  0  0  0
  188.9500  174.5410  147.4570 O   0  0  0  0  0  1  0  0  0  0  0  0
  190.9660  175.6370  147.8050 N   0  0  0  0  0  1  0  0  0  0  0  0
  1  2  1  0  0  0  0
  3  4  2  0  0  0  0
  3  5  1  0  0  0  0
  4  1  1  0  0  0  0
  5  2  2  0  0  0  0
  6 12  1  6  0  0  0
  6 10  1  0  0  0  0
  7 11  1  0  0  0  0
  7  8  1  0  0  0  0
  8  9  1  0  0  0  0
  9  1  1  6  0  0  0
  9 10  1  0  0  0  0
 11  6  1  0  0  0  0
 12 13  1  0  0  0  0
 13 14  1  0  0  0  0
 15 20  2  0  0  0  0
 16 17  1  0  0  0  0
 17 19  2  0  0  0  0
 17 18  1  0  0  0  0
 18 14  1  6  0  0  0
 18 20  1  0  0  0  0
 19 15  1  0  0  0  0
 22 19  1  0  0  0  0
 22 21  1  0  0  0  0
 23 22  2  0  0  0  0
 24 26  1  6  0  0  0
 24  3  1  0  0  0  0
 24 28  1  0  0  0  0
 25 26  1  0  0  0  0
 28 27  1  1  0  0  0
 28 29  1  0  0  0  0
 29 30  1  0  0  0  0
 30 31  1  0  0  0  0
 31 34  1  6  0  0  0
 31 33  1  0  0  0  0
 32 33  1  0  0  0  0
 34 35  1  0  0  0  0
 35 36  1  0  0  0  0
 36 37  1  1  0  0  0
 36 38  1  0  0  0  0
M  END
>  <MODEL>
8

>  <REMARK>
 VINA RESULT:      -5.8      2.101      2.799
  Name = 
  16 active torsions:
  status: ('A' for Active; 'I' for Inactive)
    1  A    between atoms: C_1  and  C_35
    2  A    between atoms: N_3  and  C_22
    3  A    between atoms: C_8  and  C_29
    4  A    between atoms: C_8  and  C_31
    5  A    between atoms: C_8  and  O_37
    6  A    between atoms: C_10  and  C_21
    7  A    between atoms: C_10  and  C_35
    8  A    between atoms: C_12  and  C_21
    9  A    between atoms: C_13  and  C_32
   10  A    between atoms: C_14  and  C_16
   11  A    between atoms: C_15  and  C_20
   12  A    between atoms: C_17  and  C_30
   13  A    between atoms: C_17  and  O_37
   14  A    between atoms: C_20  and  C_30
   15  A    between atoms: C_20  and  C_38
   16  A    between atoms: C_31  and  C_32
                            x       y       z     vdW  Elec       q    Type
                         _______ _______ _______ _____ _____    ______ ____

>  <TORSDO>
F 16

$$$$
=
 OpenBabel11042417003D

 38 40  0  0  1  0  0  0  0  0999 V2000
  191.9290  176.0430  144.6450 N   0  0  0  0  0  0  0  0  0  0  0  0
  192.6630  176.8420  145.4460 C   0  0  0  0  0  3  0  0  0  0  0  0
  193.9780  175.7300  144.1120 C   0  0  0  0  0  0  0  0  0  0  0  0
  192.7150  175.3780  143.8160 N   0  0  0  0  0  0  0  0  0  0  0  0
  194.0010  176.6630  145.1330 C   0  0  0  0  0  3  0  0  0  0  0  0
  188.5180  176.7940  146.0020 C   0  0  1  0  0  3  0  0  0  0  0  0
  189.8000  174.6540  146.5030 C   0  0  0  0  0  2  0  0  0  0  0  0
  189.9570  174.6900  145.0480 N   0  0  0  0  0  2  0  0  0  0  0  0
  190.4670  176.0030  144.6110 C   0  0  1  0  0  3  0  0  0  0  0  0
  189.8610  177.1870  145.3920 C   0  0  0  0  0  2  0  0  0  0  0  0
  188.6890  175.6100  146.9560 C   0  0  0  0  0  2  0  0  0  0  0  0
  187.9010  177.9650  146.7430 C   0  0  0  0  0  2  0  0  0  0  0  0
  186.4050  178.0240  146.4800 C   0  0  0  0  0  2  0  0  0  0  0  0
  185.9330  176.7810  145.7400 C   0  0  0  0  0  2  0  0  0  0  0  0
  185.8600  179.1120  143.2470 C   0  0  0  0  0  3  0  0  0  0  0  0
  186.6810  175.4630  142.9520 C   0  0  0  0  0  1  0  0  0  0  0  0
  186.2280  176.8450  143.2930 C   0  0  0  0  0  0  0  0  0  0  0  0
  185.2930  177.1440  144.4030 C   0  0  2  0  0  3  0  0  0  0  0  0
  186.5540  177.9480  142.6470 C   0  0  0  0  0  0  0  0  0  0  0  0
  185.0430  178.5880  144.3460 N   0  0  0  0  0  0  0  0  0  0  0  0
  188.6970  178.2590  141.6850 O   0  0  0  0  0  1  0  0  0  0  0  0
  187.4670  178.0580  141.4930 C   0  0  0  0  0  0  0  0  0  0  0  0
  186.9970  177.9400  140.1920 O   0  0  0  0  0  0  0  0  0  0  0  0
  195.1870  175.2530  143.3650 C   0  0  1  0  0  3  0  0  0  0  0  0
  195.7520  176.7260  141.5280 O   0  0  0  0  0  1  0  0  0  0  0  0
  196.0710  176.3910  142.8460 C   0  0  0  0  0  2  0  0  0  0  0  0
  196.8080  174.6900  145.0530 O   0  0  0  0  0  1  0  0  0  0  0  0
  195.9380  174.1420  144.1090 C   0  0  1  0  0  3  0  0  0  0  0  0
  195.0140  173.1270  144.7690 C   0  0  0  0  0  2  0  0  0  0  0  0
  194.8510  172.0180  143.9340 O   0  0  0  0  0  0  0  0  0  0  0  0
  193.8290  171.2660  144.5250 C   0  0  2  0  0  3  0  0  0  0  0  0
  194.5390  170.0550  146.4540 O   0  0  0  0  0  1  0  0  0  0  0  0
  194.3970  169.9660  145.0700 C   0  0  0  0  0  2  0  0  0  0  0  0
  192.7560  170.9670  143.4850 C   0  0  0  0  0  2  0  0  0  0  0  0
  191.3980  171.5220  143.8980 C   0  0  0  0  0  2  0  0  0  0  0  0
  190.5100  171.7570  142.6870 C   0  0  2  0  0  3  0  0  0  0  0  0
  189.1800  171.8750  143.0930 O   0  0  0  0  0  1  0  0  0  0  0  0
  190.6340  170.6370  141.7730 N   0  0  0  0  0  1  0  0  0  0  0  0
  1  2  1  0  0  0  0
  3  5  1  0  0  0  0
  4  3  2  0  0  0  0
  4  1  1  0  0  0  0
  5  2  2  0  0  0  0
  6 12  1  1  0  0  0
  6 11  1  0  0  0  0
  7 11  1  0  0  0  0
  8  7  1  0  0  0  0
  9  1  1  1  0  0  0
  9  8  1  0  0  0  0
  9 10  1  0  0  0  0
 10  6  1  0  0  0  0
 13 12  1  0  0  0  0
 14 13  1  0  0  0  0
 15 20  2  0  0  0  0
 16 17  1  0  0  0  0
 17 18  1  0  0  0  0
 18 14  1  1  0  0  0
 19 15  1  0  0  0  0
 19 17  2  0  0  0  0
 20 18  1  0  0  0  0
 22 21  1  0  0  0  0
 22 19  1  0  0  0  0
 23 22  2  0  0  0  0
 24 26  1  1  0  0  0
 24 28  1  0  0  0  0
 24  3  1  0  0  0  0
 25 26  1  0  0  0  0
 28 29  1  0  0  0  0
 28 27  1  1  0  0  0
 30 31  1  0  0  0  0
 30 29  1  0  0  0  0
 31 34  1  6  0  0  0
 31 33  1  0  0  0  0
 33 32  1  0  0  0  0
 34 35  1  0  0  0  0
 36 38  1  6  0  0  0
 36 37  1  0  0  0  0
 36 35  1  0  0  0  0
M  END
>  <MODEL>
9

>  <REMARK>
 VINA RESULT:      -5.8      2.593      8.607
  Name = 
  16 active torsions:
  status: ('A' for Active; 'I' for Inactive)
    1  A    between atoms: C_1  and  C_35
    2  A    between atoms: N_3  and  C_22
    3  A    between atoms: C_8  and  C_29
    4  A    between atoms: C_8  and  C_31
    5  A    between atoms: C_8  and  O_37
    6  A    between atoms: C_10  and  C_21
    7  A    between atoms: C_10  and  C_35
    8  A    between atoms: C_12  and  C_21
    9  A    between atoms: C_13  and  C_32
   10  A    between atoms: C_14  and  C_16
   11  A    between atoms: C_15  and  C_20
   12  A    between atoms: C_17  and  C_30
   13  A    between atoms: C_17  and  O_37
   14  A    between atoms: C_20  and  C_30
   15  A    between atoms: C_20  and  C_38
   16  A    between atoms: C_31  and  C_32
                            x       y       z     vdW  Elec       q    Type
                         _______ _______ _______ _____ _____    ______ ____

>  <TORSDO>
F 16

$$$$
