=
 OpenBabel11042414403D

 59 64  0  0  1  0  0  0  0  0999 V2000
  193.6710  175.9210  144.3360 C   0  0  0  0  0  0  0  0  0  0  0  0
  193.5220  174.9600  145.3320 C   0  0  0  0  0  0  0  0  0  0  0  0
  191.4740  176.0400  145.5070 C   0  0  0  0  0  0  0  0  0  0  0  0
  192.2850  176.8690  144.2840 S   0  0  0  0  0  0  0  0  0  0  0  0
  192.2900  175.0220  146.0030 C   0  0  0  0  0  3  0  0  0  0  0  0
  194.1160  175.5720  141.2720 C   0  0  0  0  0  1  0  0  0  0  0  0
  196.3260  176.5140  141.9530 N   0  0  0  0  0  0  0  0  0  0  0  0
  195.0910  176.0980  142.2770 C   0  0  0  0  0  0  0  0  0  0  0  0
  194.8800  176.1870  143.6040 N   0  0  0  0  0  0  0  0  0  0  0  0
  196.8570  176.8760  143.1450 C   0  0  0  0  0  3  0  0  0  0  0  0
  195.9820  176.6780  144.1480 N   0  0  0  0  0  0  0  0  0  0  0  0
  194.5040  173.9650  145.6260 N   0  0  0  0  0  2  0  0  0  0  0  0
  195.1710  171.7550  145.7860 O   0  0  0  0  0  0  0  0  0  0  0  0
  194.2930  172.5720  145.3980 C   0  0  0  0  0  0  0  0  0  0  0  0
  193.0240  172.0820  144.7540 C   0  0  0  0  0  2  0  0  0  0  0  0
  192.4720  170.1230  143.2560 N   0  0  0  0  0  2  0  0  0  0  0  0
  194.2210  171.5920  142.7540 O   0  0  0  0  0  0  0  0  0  0  0  0
  193.2750  171.2720  143.5250 C   0  0  0  0  0  0  0  0  0  0  0  0
  192.7580  169.2490  142.1290 C   0  0  0  0  0  2  0  0  0  0  0  0
  190.7580  169.7190  140.9490 O   0  0  0  0  0  0  0  0  0  0  0  0
  192.7330  170.1430  139.7560 N   0  0  0  0  0  2  0  0  0  0  0  0
  192.0160  169.6920  140.9140 C   0  0  0  0  0  0  0  0  0  0  0  0
  192.1720  170.8290  138.5880 C   0  0  2  0  0  3  0  0  0  0  0  0
  191.9090  169.9340  137.3710 C   0  0  0  0  0  2  0  0  0  0  0  0
  190.5970  169.4490  137.3590 O   0  0  0  0  0  1  0  0  0  0  0  0
  192.7080  172.1200  138.3520 O   0  0  0  0  0  0  0  0  0  0  0  0
  193.5900  174.3320  136.0770 C   0  0  2  0  0  3  0  0  0  0  0  0
  193.7860  173.0080  136.5350 O   0  0  0  0  0  0  0  0  0  0  0  0
  193.2790  175.2580  137.2430 C   0  0  0  0  0  2  0  0  0  0  0  0
  192.5600  172.4830  137.0010 C   0  0  2  0  0  3  0  0  0  0  0  0
  191.4730  173.5360  136.8100 C   0  0  2  0  0  3  0  0  0  0  0  0
  192.1680  174.7760  136.3130 C   0  0  2  0  0  3  0  0  0  0  0  0
  190.7590  173.8160  137.9890 O   0  0  0  0  0  0  0  0  0  0  0  0
  189.2290  173.0970  137.7870 P   0  0  0  0  0  0  0  0  0  0  0  0
  188.0410  174.3040  137.8460 O   0  0  0  0  0  1  0  0  0  0  0  0
  189.1590  172.3410  136.2740 O   0  0  0  0  0  0  0  0  0  0  0  0
  188.9680  172.0850  138.8800 O   0  0  0  0  0  1  0  0  0  0  0  0
  190.1840  176.5030  146.1010 C   0  0  0  0  0  2  0  0  0  0  0  0
  189.1940  175.3700  146.2930 C   0  0  0  0  0  2  0  0  0  0  0  0
  188.0610  175.8330  146.9670 O   0  0  0  0  0  0  0  0  0  0  0  0
  187.8820  177.1380  146.4980 C   0  0  0  0  0  2  0  0  0  0  0  0
  186.1550  176.2790  145.0580 O   0  0  0  0  0  0  0  0  0  0  0  0
  186.4730  176.6970  143.7510 C   0  0  1  0  0  3  0  0  0  0  0  0
  186.4690  177.3410  145.9320 C   0  0  2  0  0  0  0  0  0  0  0  0
  186.8540  178.1570  143.7640 C   0  0  2  0  0  3  0  0  0  0  0  0
  186.4350  178.6190  145.1260 C   0  0  0  0  0  2  0  0  0  0  0  0
  184.5190  178.4420  146.8310 O   0  0  0  0  0  1  0  0  0  0  0  0
  185.4210  177.4000  147.0450 C   0  0  0  0  0  2  0  0  0  0  0  0
  184.8810  178.3240  142.4270 O   0  0  0  0  0  1  0  0  0  0  0  0
  186.1210  178.9170  142.6650 C   0  0  0  0  0  2  0  0  0  0  0  0
  187.6330  175.8740  143.2100 C   0  0  0  0  0  2  0  0  0  0  0  0
  187.3230  175.3910  141.8010 C   0  0  0  0  0  2  0  0  0  0  0  0
  191.4760  173.3900  141.3580 C   0  0  0  0  0  1  0  0  0  0  0  0
  189.3290  172.2160  143.9840 C   0  0  0  0  0  1  0  0  0  0  0  0
  188.3540  174.4560  141.3810 N   0  0  0  0  0  0  0  0  0  0  0  0
  189.6280  174.9500  141.8950 C   0  0  0  0  0  2  0  0  0  0  0  0
  188.1020  173.1960  142.0720 C   0  0  0  0  0  2  0  0  0  0  0  0
  189.4340  172.6390  142.5320 C   0  0  1  0  0  3  0  0  0  0  0  0
  190.4320  173.7680  142.3930 C   0  0  1  0  0  3  0  0  0  0  0  0
  1  2  2  0  0  0  0
  2 12  1  0  0  0  0
  2  5  1  0  0  0  0
  3  5  2  0  0  0  0
  3 38  1  0  0  0  0
  4  1  1  0  0  0  0
  4  3  1  0  0  0  0
  6  8  1  0  0  0  0
  7  8  2  0  0  0  0
  7 10  1  0  0  0  0
  8  9  1  0  0  0  0
  9 11  1  0  0  0  0
  9  1  1  0  0  0  0
 10 11  2  0  0  0  0
 14 12  1  0  0  0  0
 14 13  2  0  0  0  0
 15 14  1  0  0  0  0
 16 18  1  0  0  0  0
 17 18  2  0  0  0  0
 18 15  1  0  0  0  0
 19 16  1  0  0  0  0
 21 22  1  0  0  0  0
 22 20  2  0  0  0  0
 22 19  1  0  0  0  0
 23 24  1  6  0  0  0
 23 21  1  0  0  0  0
 25 24  1  0  0  0  0
 26 23  1  0  0  0  0
 27 32  1  0  0  0  0
 27 28  1  0  0  0  0
 27 29  1  1  0  0  0
 28 30  1  0  0  0  0
 30 26  1  1  0  0  0
 31 30  1  0  0  0  0
 31 33  1  1  0  0  0
 32 31  1  0  0  0  0
 32 29  1  1  0  0  0
 34 35  1  0  0  0  0
 34 33  1  0  0  0  0
 34 37  1  0  0  0  0
 36 34  2  0  0  0  0
 38 39  1  0  0  0  0
 39 40  1  0  0  0  0
 41 40  1  0  0  0  0
 42 44  1  0  0  0  0
 43 51  1  1  0  0  0
 43 45  1  0  0  0  0
 43 42  1  0  0  0  0
 44 41  1  1  0  0  0
 44 48  1  0  0  0  0
 45 50  1  6  0  0  0
 45 46  1  0  0  0  0
 46 44  1  0  0  0  0
 47 48  1  0  0  0  0
 49 50  1  0  0  0  0
 52 51  1  0  0  0  0
 55 52  1  0  0  0  0
 55 56  1  0  0  0  0
 55 57  1  0  0  0  0
 56 59  1  0  0  0  0
 57 58  1  0  0  0  0
 58 54  1  1  0  0  0
 59 53  1  6  0  0  0
 59 58  1  0  0  0  0
M  END
>  <MODEL>
1

>  <REMARK>
 VINA RESULT:      -6.3      0.000      0.000
  Name = 
  22 active torsions:
  status: ('A' for Active; 'I' for Inactive)
    1  A    between atoms: C_2  and  C_25
    2  A    between atoms: C_3  and  N_33
    3  A    between atoms: P_6  and  O_19
    4  A    between atoms: N_7  and  C_47
    5  A    between atoms: C_8  and  N_17
    6  A    between atoms: C_15  and  O_34
    7  A    between atoms: C_15  and  C_49
    8  A    between atoms: N_18  and  C_41
    9  A    between atoms: O_19  and  C_48
   10  A    between atoms: C_20  and  C_23
   11  A    between atoms: C_21  and  O_51
   12  A    between atoms: C_22  and  C_23
   13  A    between atoms: C_22  and  O_34
   14  A    between atoms: C_25  and  N_39
   15  A    between atoms: C_25  and  O_51
   16  A    between atoms: C_28  and  C_50
   17  A    between atoms: C_28  and  C_56
   18  A    between atoms: C_29  and  C_55
   19  A    between atoms: C_31  and  C_49
   20  A    between atoms: C_40  and  C_46
   21  A    between atoms: C_41  and  C_46
   22  A    between atoms: C_43  and  C_47
                            x       y       z     vdW  Elec       q    Type
                         _______ _______ _______ _____ _____    ______ ____

>  <TORSDO>
F 22

$$$$
=
 OpenBabel11042414403D

 59 64  0  0  1  0  0  0  0  0999 V2000
  194.3110  174.8560  145.0170 C   0  0  0  0  0  0  0  0  0  0  0  0
  193.5380  173.6990  145.0540 C   0  0  0  0  0  0  0  0  0  0  0  0
  192.1740  175.1320  146.2710 C   0  0  0  0  0  0  0  0  0  0  0  0
  193.5210  176.0650  145.8770 S   0  0  0  0  0  0  0  0  0  0  0  0
  192.3340  173.8420  145.7630 C   0  0  0  0  0  3  0  0  0  0  0  0
  196.8820  173.5960  146.2440 C   0  0  0  0  0  1  0  0  0  0  0  0
  197.8200  174.6270  144.1730 N   0  0  0  0  0  0  0  0  0  0  0  0
  196.7720  174.3790  144.9750 C   0  0  0  0  0  0  0  0  0  0  0  0
  195.6500  174.9520  144.5010 N   0  0  0  0  0  0  0  0  0  0  0  0
  197.2820  175.3690  143.1770 C   0  0  0  0  0  3  0  0  0  0  0  0
  195.9660  175.5690  143.3730 N   0  0  0  0  0  0  0  0  0  0  0  0
  193.8990  172.4850  144.3950 N   0  0  0  0  0  2  0  0  0  0  0  0
  193.8720  171.0900  142.5480 O   0  0  0  0  0  0  0  0  0  0  0  0
  193.6140  172.2300  143.0190 C   0  0  0  0  0  0  0  0  0  0  0  0
  192.9700  173.2850  142.1600 C   0  0  0  0  0  2  0  0  0  0  0  0
  194.5820  172.7020  140.3030 N   0  0  0  0  0  2  0  0  0  0  0  0
  193.8930  174.9050  140.6780 O   0  0  0  0  0  0  0  0  0  0  0  0
  193.8230  173.6880  141.0030 C   0  0  0  0  0  0  0  0  0  0  0  0
  195.5080  173.0730  139.2440 C   0  0  0  0  0  2  0  0  0  0  0  0
  195.7120  172.4740  136.9600 O   0  0  0  0  0  0  0  0  0  0  0  0
  193.5080  172.7280  137.7230 N   0  0  0  0  0  2  0  0  0  0  0  0
  194.9310  172.7630  137.9040 C   0  0  0  0  0  0  0  0  0  0  0  0
  192.7840  172.2130  136.5570 C   0  0  2  0  0  3  0  0  0  0  0  0
  192.3980  173.2660  135.5120 C   0  0  0  0  0  2  0  0  0  0  0  0
  192.6430  174.5650  135.9710 O   0  0  0  0  0  1  0  0  0  0  0  0
  191.8360  171.2020  136.8550 O   0  0  0  0  0  0  0  0  0  0  0  0
  191.8550  168.2390  138.2940 C   0  0  2  0  0  3  0  0  0  0  0  0
  192.6560  169.2210  137.6630 O   0  0  0  0  0  0  0  0  0  0  0  0
  190.4500  168.2440  137.7100 C   0  0  0  0  0  2  0  0  0  0  0  0
  192.1980  170.5070  138.0240 C   0  0  2  0  0  3  0  0  0  0  0  0
  191.0220  170.3570  138.9840 C   0  0  2  0  0  3  0  0  0  0  0  0
  190.7320  168.8810  139.0690 C   0  0  2  0  0  3  0  0  0  0  0  0
  189.8740  171.0570  138.5700 O   0  0  0  0  0  0  0  0  0  0  0  0
  189.6330  172.2790  139.7300 P   0  0  0  0  0  0  0  0  0  0  0  0
  190.6300  173.5980  139.3570 O   0  0  0  0  0  0  0  0  0  0  0  0
  188.0190  172.7880  139.6830 O   0  0  0  0  0  1  0  0  0  0  0  0
  189.9710  171.7730  141.1150 O   0  0  0  0  0  1  0  0  0  0  0  0
  191.1100  175.5800  147.2180 C   0  0  0  0  0  2  0  0  0  0  0  0
  190.4000  176.8330  146.7430 C   0  0  0  0  0  2  0  0  0  0  0  0
  189.0510  176.7850  147.1040 O   0  0  0  0  0  0  0  0  0  0  0  0
  188.3600  176.8220  145.8900 C   0  0  0  0  0  2  0  0  0  0  0  0
  186.1130  176.3930  145.1450 O   0  0  0  0  0  0  0  0  0  0  0  0
  185.8710  177.2640  144.0640 C   0  0  1  0  0  3  0  0  0  0  0  0
  186.8650  177.1030  146.1030 C   0  0  2  0  0  0  0  0  0  0  0  0
  186.3480  178.6520  144.4160 C   0  0  2  0  0  3  0  0  0  0  0  0
  186.6010  178.5750  145.8900 C   0  0  0  0  0  2  0  0  0  0  0  0
  185.8780  177.7750  148.1990 O   0  0  0  0  0  1  0  0  0  0  0  0
  186.4110  176.6900  147.5040 C   0  0  0  0  0  2  0  0  0  0  0  0
  184.0250  179.2100  144.4480 O   0  0  0  0  0  1  0  0  0  0  0  0
  185.2830  179.6900  144.0830 C   0  0  0  0  0  2  0  0  0  0  0  0
  186.6050  176.7720  142.8260 C   0  0  0  0  0  2  0  0  0  0  0  0
  187.4390  177.8950  142.2280 C   0  0  0  0  0  2  0  0  0  0  0  0
  191.9210  176.7960  142.6140 C   0  0  0  0  0  1  0  0  0  0  0  0
  189.5060  174.3080  143.5420 C   0  0  0  0  0  1  0  0  0  0  0  0
  188.7560  177.3820  141.8890 N   0  0  0  0  0  0  0  0  0  0  0  0
  189.6510  177.7140  142.9940 C   0  0  0  0  0  2  0  0  0  0  0  0
  188.6610  175.9260  141.8720 C   0  0  0  0  0  2  0  0  0  0  0  0
  189.9050  175.3670  142.5330 C   0  0  1  0  0  3  0  0  0  0  0  0
  190.5640  176.5320  143.2410 C   0  0  1  0  0  3  0  0  0  0  0  0
  1  2  2  0  0  0  0
  1  4  1  0  0  0  0
  2  5  1  0  0  0  0
  3 38  1  0  0  0  0
  4  3  1  0  0  0  0
  5  3  2  0  0  0  0
  7  8  2  0  0  0  0
  8  6  1  0  0  0  0
  9  8  1  0  0  0  0
  9  1  1  0  0  0  0
 10 11  2  0  0  0  0
 10  7  1  0  0  0  0
 11  9  1  0  0  0  0
 12  2  1  0  0  0  0
 13 14  2  0  0  0  0
 14 12  1  0  0  0  0
 15 14  1  0  0  0  0
 16 18  1  0  0  0  0
 17 18  2  0  0  0  0
 18 15  1  0  0  0  0
 19 16  1  0  0  0  0
 20 22  2  0  0  0  0
 21 22  1  0  0  0  0
 22 19  1  0  0  0  0
 23 24  1  1  0  0  0
 23 26  1  0  0  0  0
 23 21  1  0  0  0  0
 24 25  1  0  0  0  0
 27 29  1  6  0  0  0
 27 32  1  0  0  0  0
 28 30  1  0  0  0  0
 28 27  1  0  0  0  0
 30 26  1  6  0  0  0
 30 31  1  0  0  0  0
 31 33  1  6  0  0  0
 31 32  1  0  0  0  0
 32 29  1  6  0  0  0
 33 34  1  0  0  0  0
 34 37  1  0  0  0  0
 35 34  2  0  0  0  0
 36 34  1  0  0  0  0
 39 40  1  0  0  0  0
 39 38  1  0  0  0  0
 41 40  1  0  0  0  0
 42 44  1  0  0  0  0
 43 51  1  6  0  0  0
 43 45  1  0  0  0  0
 43 42  1  0  0  0  0
 44 41  1  6  0  0  0
 44 48  1  0  0  0  0
 45 50  1  1  0  0  0
 45 46  1  0  0  0  0
 46 44  1  0  0  0  0
 48 47  1  0  0  0  0
 50 49  1  0  0  0  0
 52 51  1  0  0  0  0
 55 52  1  0  0  0  0
 55 56  1  0  0  0  0
 56 59  1  0  0  0  0
 57 55  1  0  0  0  0
 57 58  1  0  0  0  0
 58 59  1  0  0  0  0
 58 54  1  1  0  0  0
 59 53  1  6  0  0  0
M  END
>  <MODEL>
2

>  <REMARK>
 VINA RESULT:      -5.6      1.931      3.327
  Name = 
  22 active torsions:
  status: ('A' for Active; 'I' for Inactive)
    1  A    between atoms: C_2  and  C_25
    2  A    between atoms: C_3  and  N_33
    3  A    between atoms: P_6  and  O_19
    4  A    between atoms: N_7  and  C_47
    5  A    between atoms: C_8  and  N_17
    6  A    between atoms: C_15  and  O_34
    7  A    between atoms: C_15  and  C_49
    8  A    between atoms: N_18  and  C_41
    9  A    between atoms: O_19  and  C_48
   10  A    between atoms: C_20  and  C_23
   11  A    between atoms: C_21  and  O_51
   12  A    between atoms: C_22  and  C_23
   13  A    between atoms: C_22  and  O_34
   14  A    between atoms: C_25  and  N_39
   15  A    between atoms: C_25  and  O_51
   16  A    between atoms: C_28  and  C_50
   17  A    between atoms: C_28  and  C_56
   18  A    between atoms: C_29  and  C_55
   19  A    between atoms: C_31  and  C_49
   20  A    between atoms: C_40  and  C_46
   21  A    between atoms: C_41  and  C_46
   22  A    between atoms: C_43  and  C_47
                            x       y       z     vdW  Elec       q    Type
                         _______ _______ _______ _____ _____    ______ ____

>  <TORSDO>
F 22

$$$$
=
 OpenBabel11042414403D

 59 64  0  0  1  0  0  0  0  0999 V2000
  191.2810  174.5930  144.8550 C   0  0  0  0  0  0  0  0  0  0  0  0
  191.8280  173.4060  144.3750 C   0  0  0  0  0  0  0  0  0  0  0  0
  190.1390  173.7300  142.8130 C   0  0  0  0  0  0  0  0  0  0  0  0
  189.9880  175.0310  143.8740 S   0  0  0  0  0  0  0  0  0  0  0  0
  191.1880  172.9080  143.2280 C   0  0  0  0  0  3  0  0  0  0  0  0
  193.4980  176.7400  145.2810 C   0  0  0  0  0  1  0  0  0  0  0  0
  192.5290  176.6180  147.5790 N   0  0  0  0  0  0  0  0  0  0  0  0
  192.5450  176.2030  146.3020 C   0  0  0  0  0  0  0  0  0  0  0  0
  191.6320  175.2370  146.0920 N   0  0  0  0  0  0  0  0  0  0  0  0
  191.5500  175.8680  148.1380 C   0  0  0  0  0  3  0  0  0  0  0  0
  191.0050  175.0290  147.2380 N   0  0  0  0  0  0  0  0  0  0  0  0
  192.9650  172.7670  144.9560 N   0  0  0  0  0  2  0  0  0  0  0  0
  195.2220  172.2540  144.9680 O   0  0  0  0  0  0  0  0  0  0  0  0
  194.2930  172.9390  144.4620 C   0  0  0  0  0  0  0  0  0  0  0  0
  194.5730  173.8840  143.3240 C   0  0  0  0  0  2  0  0  0  0  0  0
  194.3080  171.9700  141.6940 N   0  0  0  0  0  2  0  0  0  0  0  0
  195.9190  173.6350  141.3750 O   0  0  0  0  0  0  0  0  0  0  0  0
  194.9710  173.1770  142.0710 C   0  0  0  0  0  0  0  0  0  0  0  0
  194.7430  171.1980  140.5420 C   0  0  0  0  0  2  0  0  0  0  0  0
  193.8530  170.4610  138.4720 O   0  0  0  0  0  0  0  0  0  0  0  0
  192.2670  171.2720  139.9990 N   0  0  0  0  0  2  0  0  0  0  0  0
  193.6110  170.9720  139.5970 C   0  0  0  0  0  0  0  0  0  0  0  0
  191.0360  170.8910  139.2990 C   0  0  2  0  0  3  0  0  0  0  0  0
  190.6560  169.4090  139.4080 C   0  0  0  0  0  2  0  0  0  0  0  0
  190.1250  168.9220  138.2090 O   0  0  0  0  0  1  0  0  0  0  0  0
  190.8540  171.5270  138.0450 O   0  0  0  0  0  0  0  0  0  0  0  0
  189.1030  173.9120  136.5970 C   0  0  2  0  0  3  0  0  0  0  0  0
  189.0810  172.9060  137.5920 O   0  0  0  0  0  0  0  0  0  0  0  0
  189.9950  173.4920  135.4380 C   0  0  0  0  0  2  0  0  0  0  0  0
  190.3460  172.8280  138.2140 C   0  0  2  0  0  3  0  0  0  0  0  0
  191.2610  173.8810  137.5960 C   0  0  2  0  0  3  0  0  0  0  0  0
  190.4830  174.5070  136.4690 C   0  0  2  0  0  3  0  0  0  0  0  0
  192.4730  173.3510  137.1180 O   0  0  0  0  0  0  0  0  0  0  0  0
  193.7010  174.3100  137.8040 P   0  0  0  0  0  0  0  0  0  0  0  0
  195.1840  173.5060  137.6410 O   0  0  0  0  0  1  0  0  0  0  0  0
  193.7900  175.7850  136.9780 O   0  0  0  0  0  0  0  0  0  0  0  0
  193.4260  174.5580  139.2700 O   0  0  0  0  0  1  0  0  0  0  0  0
  189.1410  173.4140  141.7490 C   0  0  0  0  0  2  0  0  0  0  0  0
  187.8140  174.1140  141.9720 C   0  0  0  0  0  2  0  0  0  0  0  0
  187.8170  175.3600  141.3400 O   0  0  0  0  0  0  0  0  0  0  0  0
  187.1470  176.2060  142.2280 C   0  0  0  0  0  2  0  0  0  0  0  0
  186.4940  178.4820  142.6560 O   0  0  0  0  0  0  0  0  0  0  0  0
  185.1060  178.5560  142.4260 C   0  0  1  0  0  3  0  0  0  0  0  0
  187.0440  177.6340  141.6730 C   0  0  2  0  0  0  0  0  0  0  0  0
  184.7700  177.8550  141.1320 C   0  0  2  0  0  3  0  0  0  0  0  0
  186.1060  177.6410  140.4890 C   0  0  0  0  0  2  0  0  0  0  0  0
  189.2580  178.3050  142.3580 O   0  0  0  0  0  1  0  0  0  0  0  0
  188.4130  178.1740  141.2560 C   0  0  0  0  0  2  0  0  0  0  0  0
  182.5290  178.4840  140.5950 O   0  0  0  0  0  1  0  0  0  0  0  0
  183.8630  178.7220  140.2660 C   0  0  0  0  0  2  0  0  0  0  0  0
  184.3530  177.8970  143.5710 C   0  0  0  0  0  2  0  0  0  0  0  0
  184.5840  178.6650  144.8630 C   0  0  0  0  0  2  0  0  0  0  0  0
  187.5800  176.0960  147.2860 C   0  0  0  0  0  1  0  0  0  0  0  0
  186.9400  179.4370  148.4300 C   0  0  0  0  0  1  0  0  0  0  0  0
  185.1050  177.7560  145.8710 N   0  0  0  0  0  0  0  0  0  0  0  0
  186.5180  177.5400  145.5760 C   0  0  0  0  0  2  0  0  0  0  0  0
  185.0630  178.4580  147.1500 C   0  0  0  0  0  2  0  0  0  0  0  0
  186.3450  178.1490  147.8960 C   0  0  1  0  0  3  0  0  0  0  0  0
  187.2830  177.5280  146.8820 C   0  0  1  0  0  3  0  0  0  0  0  0
  1  9  1  0  0  0  0
  2  1  2  0  0  0  0
  2 12  1  0  0  0  0
  3  5  2  0  0  0  0
  3  4  1  0  0  0  0
  4  1  1  0  0  0  0
  5  2  1  0  0  0  0
  6  8  1  0  0  0  0
  7 10  1  0  0  0  0
  8  7  2  0  0  0  0
  9  8  1  0  0  0  0
  9 11  1  0  0  0  0
 11 10  2  0  0  0  0
 14 12  1  0  0  0  0
 14 13  2  0  0  0  0
 15 14  1  0  0  0  0
 16 18  1  0  0  0  0
 17 18  2  0  0  0  0
 18 15  1  0  0  0  0
 19 16  1  0  0  0  0
 20 22  2  0  0  0  0
 22 21  1  0  0  0  0
 22 19  1  0  0  0  0
 23 24  1  6  0  0  0
 23 21  1  0  0  0  0
 25 24  1  0  0  0  0
 26 23  1  0  0  0  0
 27 29  1  6  0  0  0
 27 28  1  0  0  0  0
 28 30  1  0  0  0  0
 30 26  1  6  0  0  0
 31 33  1  6  0  0  0
 31 30  1  0  0  0  0
 32 29  1  6  0  0  0
 32 27  1  0  0  0  0
 32 31  1  0  0  0  0
 33 34  1  0  0  0  0
 34 37  1  0  0  0  0
 35 34  1  0  0  0  0
 36 34  2  0  0  0  0
 38 39  1  0  0  0  0
 38  3  1  0  0  0  0
 40 39  1  0  0  0  0
 40 41  1  0  0  0  0
 43 42  1  0  0  0  0
 43 51  1  1  0  0  0
 44 48  1  6  0  0  0
 44 41  1  0  0  0  0
 44 42  1  0  0  0  0
 45 50  1  6  0  0  0
 45 43  1  0  0  0  0
 46 45  1  0  0  0  0
 46 44  1  0  0  0  0
 48 47  1  0  0  0  0
 50 49  1  0  0  0  0
 51 52  1  0  0  0  0
 52 55  1  0  0  0  0
 55 57  1  0  0  0  0
 56 55  1  0  0  0  0
 56 59  1  0  0  0  0
 57 58  1  0  0  0  0
 58 54  1  6  0  0  0
 59 53  1  1  0  0  0
 59 58  1  0  0  0  0
M  END
>  <MODEL>
3

>  <REMARK>
 VINA RESULT:      -5.4      2.465      4.595
  Name = 
  22 active torsions:
  status: ('A' for Active; 'I' for Inactive)
    1  A    between atoms: C_2  and  C_25
    2  A    between atoms: C_3  and  N_33
    3  A    between atoms: P_6  and  O_19
    4  A    between atoms: N_7  and  C_47
    5  A    between atoms: C_8  and  N_17
    6  A    between atoms: C_15  and  O_34
    7  A    between atoms: C_15  and  C_49
    8  A    between atoms: N_18  and  C_41
    9  A    between atoms: O_19  and  C_48
   10  A    between atoms: C_20  and  C_23
   11  A    between atoms: C_21  and  O_51
   12  A    between atoms: C_22  and  C_23
   13  A    between atoms: C_22  and  O_34
   14  A    between atoms: C_25  and  N_39
   15  A    between atoms: C_25  and  O_51
   16  A    between atoms: C_28  and  C_50
   17  A    between atoms: C_28  and  C_56
   18  A    between atoms: C_29  and  C_55
   19  A    between atoms: C_31  and  C_49
   20  A    between atoms: C_40  and  C_46
   21  A    between atoms: C_41  and  C_46
   22  A    between atoms: C_43  and  C_47
                            x       y       z     vdW  Elec       q    Type
                         _______ _______ _______ _____ _____    ______ ____

>  <TORSDO>
F 22

$$$$
=
 OpenBabel11042414403D

 59 64  0  0  1  0  0  0  0  0999 V2000
  191.0780  174.5550  145.6480 C   0  0  0  0  0  0  0  0  0  0  0  0
  192.1550  173.9900  144.9700 C   0  0  0  0  0  0  0  0  0  0  0  0
  190.4360  172.6340  144.1940 C   0  0  0  0  0  0  0  0  0  0  0  0
  189.6820  173.7040  145.2560 S   0  0  0  0  0  0  0  0  0  0  0  0
  191.8050  172.9030  144.1530 C   0  0  0  0  0  3  0  0  0  0  0  0
  190.1060  177.5070  145.4320 C   0  0  0  0  0  1  0  0  0  0  0  0
  190.9010  177.4570  147.7990 N   0  0  0  0  0  0  0  0  0  0  0  0
  190.7120  176.8350  146.6240 C   0  0  0  0  0  0  0  0  0  0  0  0
  191.1670  175.5690  146.6640 N   0  0  0  0  0  0  0  0  0  0  0  0
  191.4820  176.5040  148.5660 C   0  0  0  0  0  3  0  0  0  0  0  0
  191.6450  175.3580  147.8800 N   0  0  0  0  0  0  0  0  0  0  0  0
  193.4900  174.4880  145.0510 N   0  0  0  0  0  2  0  0  0  0  0  0
  195.1450  175.9770  144.4150 O   0  0  0  0  0  0  0  0  0  0  0  0
  193.9240  175.6690  144.3750 C   0  0  0  0  0  0  0  0  0  0  0  0
  192.9500  176.5040  143.5870 C   0  0  0  0  0  2  0  0  0  0  0  0
  190.8570  175.7420  142.3920 N   0  0  0  0  0  2  0  0  0  0  0  0
  192.9810  175.0540  141.6970 O   0  0  0  0  0  0  0  0  0  0  0  0
  192.2810  175.7350  142.4950 C   0  0  0  0  0  0  0  0  0  0  0  0
  190.1670  174.9180  141.4120 C   0  0  0  0  0  2  0  0  0  0  0  0
  187.9320  174.2140  141.7670 O   0  0  0  0  0  0  0  0  0  0  0  0
  188.1790  176.4800  141.2110 N   0  0  0  0  0  2  0  0  0  0  0  0
  188.6970  175.1640  141.4540 C   0  0  0  0  0  0  0  0  0  0  0  0
  186.8080  176.9410  141.4480 C   0  0  2  0  0  3  0  0  0  0  0  0
  186.0830  177.4910  140.2140 C   0  0  0  0  0  2  0  0  0  0  0  0
  186.7120  177.0980  139.0270 O   0  0  0  0  0  1  0  0  0  0  0  0
  186.6230  177.6220  142.6780 O   0  0  0  0  0  0  0  0  0  0  0  0
  183.8080  179.0260  143.6560 C   0  0  2  0  0  3  0  0  0  0  0  0
  184.4240  178.2670  142.6330 O   0  0  0  0  0  0  0  0  0  0  0  0
  184.8150  179.9690  144.2970 C   0  0  0  0  0  2  0  0  0  0  0  0
  185.3440  177.3610  143.2050 C   0  0  2  0  0  3  0  0  0  0  0  0
  185.3100  177.5220  144.7220 C   0  0  2  0  0  3  0  0  0  0  0  0
  184.3920  178.6830  145.0030 C   0  0  2  0  0  3  0  0  0  0  0  0
  186.5780  177.7550  145.2840 O   0  0  0  0  0  0  0  0  0  0  0  0
  186.4810  177.2060  146.8920 P   0  0  0  0  0  0  0  0  0  0  0  0
  187.5870  175.9410  147.1100 O   0  0  0  0  0  0  0  0  0  0  0  0
  186.8880  178.4690  147.9430 O   0  0  0  0  0  1  0  0  0  0  0  0
  185.0860  176.7090  147.2010 O   0  0  0  0  0  1  0  0  0  0  0  0
  189.7530  171.4480  143.5960 C   0  0  0  0  0  2  0  0  0  0  0  0
  190.5260  170.8580  142.4320 C   0  0  0  0  0  2  0  0  0  0  0  0
  190.1190  171.4550  141.2360 O   0  0  0  0  0  0  0  0  0  0  0  0
  191.2640  171.4460  140.4330 C   0  0  0  0  0  2  0  0  0  0  0  0
  191.9230  171.6350  138.1260 O   0  0  0  0  0  0  0  0  0  0  0  0
  191.4950  172.9030  137.6850 C   0  0  1  0  0  3  0  0  0  0  0  0
  190.9200  171.1180  138.9720 C   0  0  2  0  0  0  0  0  0  0  0  0
  190.0740  173.1410  138.1350 C   0  0  2  0  0  3  0  0  0  0  0  0
  189.6200  171.7920  138.6030 C   0  0  0  0  0  2  0  0  0  0  0  0
  191.5930  168.9050  139.6590 O   0  0  0  0  0  1  0  0  0  0  0  0
  190.8060  169.6090  138.7480 C   0  0  0  0  0  2  0  0  0  0  0  0
  189.3390  172.7900  135.8890 O   0  0  0  0  0  1  0  0  0  0  0  0
  189.2190  173.6510  136.9800 C   0  0  0  0  0  2  0  0  0  0  0  0
  192.3980  173.9850  138.2570 C   0  0  0  0  0  2  0  0  0  0  0  0
  193.1450  174.6930  137.1370 C   0  0  0  0  0  2  0  0  0  0  0  0
  196.9410  175.4440  139.6810 C   0  0  0  0  0  1  0  0  0  0  0  0
  197.3800  174.0840  136.3880 C   0  0  0  0  0  1  0  0  0  0  0  0
  194.3110  175.3610  137.6900 N   0  0  0  0  0  0  0  0  0  0  0  0
  194.8660  174.4890  138.7210 C   0  0  0  0  0  2  0  0  0  0  0  0
  195.3150  175.4240  136.6330 C   0  0  0  0  0  2  0  0  0  0  0  0
  196.6630  175.1070  137.2470 C   0  0  1  0  0  3  0  0  0  0  0  0
  196.3750  174.5240  138.6140 C   0  0  1  0  0  3  0  0  0  0  0  0
  1  9  1  0  0  0  0
  2 12  1  0  0  0  0
  2  1  2  0  0  0  0
  3  4  1  0  0  0  0
  4  1  1  0  0  0  0
  5  3  2  0  0  0  0
  5  2  1  0  0  0  0
  6  8  1  0  0  0  0
  7 10  1  0  0  0  0
  8  9  1  0  0  0  0
  8  7  2  0  0  0  0
  9 11  1  0  0  0  0
 11 10  2  0  0  0  0
 14 13  2  0  0  0  0
 14 12  1  0  0  0  0
 15 14  1  0  0  0  0
 16 18  1  0  0  0  0
 17 18  2  0  0  0  0
 18 15  1  0  0  0  0
 19 22  1  0  0  0  0
 19 16  1  0  0  0  0
 21 23  1  0  0  0  0
 21 22  1  0  0  0  0
 22 20  2  0  0  0  0
 23 24  1  6  0  0  0
 23 26  1  0  0  0  0
 25 24  1  0  0  0  0
 27 29  1  6  0  0  0
 27 32  1  0  0  0  0
 28 30  1  0  0  0  0
 28 27  1  0  0  0  0
 30 26  1  6  0  0  0
 30 31  1  0  0  0  0
 31 32  1  0  0  0  0
 31 33  1  6  0  0  0
 32 29  1  6  0  0  0
 33 34  1  0  0  0  0
 34 35  2  0  0  0  0
 34 37  1  0  0  0  0
 34 36  1  0  0  0  0
 38  3  1  0  0  0  0
 39 38  1  0  0  0  0
 40 39  1  0  0  0  0
 41 40  1  0  0  0  0
 42 44  1  0  0  0  0
 43 42  1  0  0  0  0
 43 45  1  0  0  0  0
 43 51  1  1  0  0  0
 44 48  1  6  0  0  0
 44 41  1  0  0  0  0
 45 50  1  6  0  0  0
 45 46  1  0  0  0  0
 46 44  1  0  0  0  0
 48 47  1  0  0  0  0
 49 50  1  0  0  0  0
 52 55  1  0  0  0  0
 52 51  1  0  0  0  0
 55 56  1  0  0  0  0
 57 58  1  0  0  0  0
 57 55  1  0  0  0  0
 58 54  1  6  0  0  0
 58 59  1  0  0  0  0
 59 56  1  0  0  0  0
 59 53  1  1  0  0  0
M  END
>  <MODEL>
4

>  <REMARK>
 VINA RESULT:      -5.3      2.785      8.353
  Name = 
  22 active torsions:
  status: ('A' for Active; 'I' for Inactive)
    1  A    between atoms: C_2  and  C_25
    2  A    between atoms: C_3  and  N_33
    3  A    between atoms: P_6  and  O_19
    4  A    between atoms: N_7  and  C_47
    5  A    between atoms: C_8  and  N_17
    6  A    between atoms: C_15  and  O_34
    7  A    between atoms: C_15  and  C_49
    8  A    between atoms: N_18  and  C_41
    9  A    between atoms: O_19  and  C_48
   10  A    between atoms: C_20  and  C_23
   11  A    between atoms: C_21  and  O_51
   12  A    between atoms: C_22  and  C_23
   13  A    between atoms: C_22  and  O_34
   14  A    between atoms: C_25  and  N_39
   15  A    between atoms: C_25  and  O_51
   16  A    between atoms: C_28  and  C_50
   17  A    between atoms: C_28  and  C_56
   18  A    between atoms: C_29  and  C_55
   19  A    between atoms: C_31  and  C_49
   20  A    between atoms: C_40  and  C_46
   21  A    between atoms: C_41  and  C_46
   22  A    between atoms: C_43  and  C_47
                            x       y       z     vdW  Elec       q    Type
                         _______ _______ _______ _____ _____    ______ ____

>  <TORSDO>
F 22

$$$$
=
 OpenBabel11042414403D

 59 64  0  0  1  0  0  0  0  0999 V2000
  191.0700  174.5700  145.7090 C   0  0  0  0  0  0  0  0  0  0  0  0
  192.1290  173.9940  145.0130 C   0  0  0  0  0  0  0  0  0  0  0  0
  190.3740  172.6970  144.2170 C   0  0  0  0  0  0  0  0  0  0  0  0
  189.6520  173.7620  145.3050 S   0  0  0  0  0  0  0  0  0  0  0  0
  191.7500  172.9330  144.1750 C   0  0  0  0  0  3  0  0  0  0  0  0
  190.0750  177.5200  145.5990 C   0  0  0  0  0  1  0  0  0  0  0  0
  190.9510  177.4180  147.9340 N   0  0  0  0  0  0  0  0  0  0  0  0
  190.7250  176.8230  146.7520 C   0  0  0  0  0  0  0  0  0  0  0  0
  191.1880  175.5600  146.7450 N   0  0  0  0  0  0  0  0  0  0  0  0
  191.5630  176.4510  148.6570 C   0  0  0  0  0  3  0  0  0  0  0  0
  191.7090  175.3230  147.9380 N   0  0  0  0  0  0  0  0  0  0  0  0
  193.4770  174.4580  145.0980 N   0  0  0  0  0  2  0  0  0  0  0  0
  195.1630  175.9220  144.4890 O   0  0  0  0  0  0  0  0  0  0  0  0
  193.9350  175.6450  144.4500 C   0  0  0  0  0  0  0  0  0  0  0  0
  192.9770  176.5230  143.6900 C   0  0  0  0  0  2  0  0  0  0  0  0
  190.8590  175.8620  142.4800 N   0  0  0  0  0  2  0  0  0  0  0  0
  192.9560  175.1050  141.7760 O   0  0  0  0  0  0  0  0  0  0  0  0
  192.2810  175.7980  142.5850 C   0  0  0  0  0  0  0  0  0  0  0  0
  190.1400  175.0820  141.4860 C   0  0  0  0  0  2  0  0  0  0  0  0
  187.9770  174.4530  142.2230 O   0  0  0  0  0  0  0  0  0  0  0  0
  188.0750  176.4960  141.0730 N   0  0  0  0  0  2  0  0  0  0  0  0
  188.6690  175.3010  141.6020 C   0  0  0  0  0  0  0  0  0  0  0  0
  186.7100  176.9760  141.3100 C   0  0  2  0  0  3  0  0  0  0  0  0
  185.9950  177.5410  140.0780 C   0  0  0  0  0  2  0  0  0  0  0  0
  186.6870  177.2460  138.8980 O   0  0  0  0  0  1  0  0  0  0  0  0
  186.5340  177.6550  142.5430 O   0  0  0  0  0  0  0  0  0  0  0  0
  183.7960  179.1590  143.5870 C   0  0  2  0  0  3  0  0  0  0  0  0
  184.3750  178.4230  142.5260 O   0  0  0  0  0  0  0  0  0  0  0  0
  184.8490  180.0090  144.2810 C   0  0  0  0  0  2  0  0  0  0  0  0
  185.2400  177.4380  143.0520 C   0  0  2  0  0  3  0  0  0  0  0  0
  185.2070  177.5190  144.5740 C   0  0  2  0  0  3  0  0  0  0  0  0
  184.3520  178.7120  144.9150 C   0  0  2  0  0  3  0  0  0  0  0  0
  186.4830  177.6510  145.1520 O   0  0  0  0  0  0  0  0  0  0  0  0
  186.3070  177.1800  146.7780 P   0  0  0  0  0  0  0  0  0  0  0  0
  184.7840  176.4660  146.9840 O   0  0  0  0  0  0  0  0  0  0  0  0
  187.4970  176.0380  147.1640 O   0  0  0  0  0  1  0  0  0  0  0  0
  186.4270  178.3760  147.6950 O   0  0  0  0  0  1  0  0  0  0  0  0
  189.6600  171.5410  143.5980 C   0  0  0  0  0  2  0  0  0  0  0  0
  190.4500  170.9070  142.4690 C   0  0  0  0  0  2  0  0  0  0  0  0
  190.2650  171.6330  141.2890 O   0  0  0  0  0  0  0  0  0  0  0  0
  191.5230  171.6380  140.6800 C   0  0  0  0  0  2  0  0  0  0  0  0
  192.4340  171.0510  138.5310 O   0  0  0  0  0  0  0  0  0  0  0  0
  193.5060  171.9330  138.2910 C   0  0  1  0  0  3  0  0  0  0  0  0
  191.4070  171.7890  139.1560 C   0  0  2  0  0  0  0  0  0  0  0  0
  193.0850  173.3440  138.6250 C   0  0  2  0  0  3  0  0  0  0  0  0
  191.5990  173.2410  138.7840 C   0  0  0  0  0  2  0  0  0  0  0  0
  190.0830  169.9240  138.3870 O   0  0  0  0  0  1  0  0  0  0  0  0
  190.0530  171.2950  138.6440 C   0  0  0  0  0  2  0  0  0  0  0  0
  192.3260  174.6470  136.7730 O   0  0  0  0  0  1  0  0  0  0  0  0
  193.4640  174.3020  137.5020 C   0  0  0  0  0  2  0  0  0  0  0  0
  194.7020  171.5430  139.1460 C   0  0  0  0  0  2  0  0  0  0  0  0
  195.0150  172.6440  140.1470 C   0  0  0  0  0  2  0  0  0  0  0  0
  196.3030  171.7330  144.5010 C   0  0  0  0  0  1  0  0  0  0  0  0
  193.9030  169.5410  142.9760 C   0  0  0  0  0  1  0  0  0  0  0  0
  195.7460  172.0760  141.2670 N   0  0  0  0  0  0  0  0  0  0  0  0
  195.2290  172.6920  142.4850 C   0  0  0  0  0  2  0  0  0  0  0  0
  195.3880  170.6640  141.3460 C   0  0  0  0  0  2  0  0  0  0  0  0
  195.2000  170.3090  142.8060 C   0  0  1  0  0  3  0  0  0  0  0  0
  195.1230  171.6240  143.5530 C   0  0  1  0  0  3  0  0  0  0  0  0
  1  9  1  0  0  0  0
  2 12  1  0  0  0  0
  2  1  2  0  0  0  0
  3  4  1  0  0  0  0
  4  1  1  0  0  0  0
  5  3  2  0  0  0  0
  5  2  1  0  0  0  0
  6  8  1  0  0  0  0
  7 10  1  0  0  0  0
  8  7  2  0  0  0  0
  9  8  1  0  0  0  0
  9 11  1  0  0  0  0
 11 10  2  0  0  0  0
 14 13  2  0  0  0  0
 14 12  1  0  0  0  0
 15 14  1  0  0  0  0
 16 18  1  0  0  0  0
 17 18  2  0  0  0  0
 18 15  1  0  0  0  0
 19 22  1  0  0  0  0
 19 16  1  0  0  0  0
 21 23  1  0  0  0  0
 21 22  1  0  0  0  0
 22 20  2  0  0  0  0
 23 24  1  6  0  0  0
 23 26  1  0  0  0  0
 25 24  1  0  0  0  0
 27 29  1  6  0  0  0
 27 32  1  0  0  0  0
 28 30  1  0  0  0  0
 28 27  1  0  0  0  0
 30 26  1  6  0  0  0
 30 31  1  0  0  0  0
 31 32  1  0  0  0  0
 31 33  1  6  0  0  0
 32 29  1  6  0  0  0
 33 34  1  0  0  0  0
 34 35  2  0  0  0  0
 34 36  1  0  0  0  0
 34 37  1  0  0  0  0
 38  3  1  0  0  0  0
 39 38  1  0  0  0  0
 40 39  1  0  0  0  0
 41 40  1  0  0  0  0
 42 44  1  0  0  0  0
 43 42  1  0  0  0  0
 43 45  1  0  0  0  0
 43 51  1  1  0  0  0
 44 48  1  6  0  0  0
 44 41  1  0  0  0  0
 45 50  1  6  0  0  0
 45 46  1  0  0  0  0
 46 44  1  0  0  0  0
 47 48  1  0  0  0  0
 49 50  1  0  0  0  0
 51 52  1  0  0  0  0
 52 55  1  0  0  0  0
 55 57  1  0  0  0  0
 55 56  1  0  0  0  0
 56 59  1  0  0  0  0
 57 58  1  0  0  0  0
 58 54  1  6  0  0  0
 58 59  1  0  0  0  0
 59 53  1  1  0  0  0
M  END
>  <MODEL>
5

>  <REMARK>
 VINA RESULT:      -5.0      2.719      8.241
  Name = 
  22 active torsions:
  status: ('A' for Active; 'I' for Inactive)
    1  A    between atoms: C_2  and  C_25
    2  A    between atoms: C_3  and  N_33
    3  A    between atoms: P_6  and  O_19
    4  A    between atoms: N_7  and  C_47
    5  A    between atoms: C_8  and  N_17
    6  A    between atoms: C_15  and  O_34
    7  A    between atoms: C_15  and  C_49
    8  A    between atoms: N_18  and  C_41
    9  A    between atoms: O_19  and  C_48
   10  A    between atoms: C_20  and  C_23
   11  A    between atoms: C_21  and  O_51
   12  A    between atoms: C_22  and  C_23
   13  A    between atoms: C_22  and  O_34
   14  A    between atoms: C_25  and  N_39
   15  A    between atoms: C_25  and  O_51
   16  A    between atoms: C_28  and  C_50
   17  A    between atoms: C_28  and  C_56
   18  A    between atoms: C_29  and  C_55
   19  A    between atoms: C_31  and  C_49
   20  A    between atoms: C_40  and  C_46
   21  A    between atoms: C_41  and  C_46
   22  A    between atoms: C_43  and  C_47
                            x       y       z     vdW  Elec       q    Type
                         _______ _______ _______ _____ _____    ______ ____

>  <TORSDO>
F 22

$$$$
=
 OpenBabel11042414403D

 59 64  0  0  1  0  0  0  0  0999 V2000
  195.6320  173.0170  143.2870 C   0  0  0  0  0  0  0  0  0  0  0  0
  194.7500  174.0460  143.6080 C   0  0  0  0  0  0  0  0  0  0  0  0
  195.9480  175.0620  141.8960 C   0  0  0  0  0  0  0  0  0  0  0  0
  196.6470  173.5360  142.0520 S   0  0  0  0  0  0  0  0  0  0  0  0
  194.9240  175.2050  142.8340 C   0  0  0  0  0  3  0  0  0  0  0  0
  196.8330  172.6720  146.1400 C   0  0  0  0  0  1  0  0  0  0  0  0
  196.1570  170.3210  145.6400 N   0  0  0  0  0  0  0  0  0  0  0  0
  196.2480  171.6080  145.2670 C   0  0  0  0  0  0  0  0  0  0  0  0
  195.7830  171.7870  144.0160 N   0  0  0  0  0  0  0  0  0  0  0  0
  195.6000  169.7230  144.5610 C   0  0  0  0  0  3  0  0  0  0  0  0
  195.3730  170.6090  143.5750 N   0  0  0  0  0  0  0  0  0  0  0  0
  193.7270  173.9320  144.5970 N   0  0  0  0  0  2  0  0  0  0  0  0
  191.5510  173.4530  145.2230 O   0  0  0  0  0  0  0  0  0  0  0  0
  192.4250  173.4180  144.3160 C   0  0  0  0  0  0  0  0  0  0  0  0
  192.0860  172.8910  142.9470 C   0  0  0  0  0  2  0  0  0  0  0  0
  189.8810  173.8770  142.2040 N   0  0  0  0  0  2  0  0  0  0  0  0
  191.9160  174.6490  141.3490 O   0  0  0  0  0  0  0  0  0  0  0  0
  191.3070  173.8660  142.1290 C   0  0  0  0  0  0  0  0  0  0  0  0
  189.0860  174.7350  141.3410 C   0  0  0  0  0  2  0  0  0  0  0  0
  187.0640  174.1390  142.4250 O   0  0  0  0  0  0  0  0  0  0  0  0
  187.4000  176.4450  142.1580 N   0  0  0  0  0  2  0  0  0  0  0  0
  187.7830  175.0730  141.9850 C   0  0  0  0  0  0  0  0  0  0  0  0
  186.2900  176.9500  142.9720 C   0  0  2  0  0  3  0  0  0  0  0  0
  185.1750  177.6540  142.1900 C   0  0  0  0  0  2  0  0  0  0  0  0
  185.6810  178.6680  141.3690 O   0  0  0  0  0  1  0  0  0  0  0  0
  186.6830  177.5150  144.2120 O   0  0  0  0  0  0  0  0  0  0  0  0
  184.8040  177.6890  146.9120 C   0  0  2  0  0  3  0  0  0  0  0  0
  184.8610  177.2340  145.5740 O   0  0  0  0  0  0  0  0  0  0  0  0
  185.6280  178.9570  147.0780 C   0  0  0  0  0  2  0  0  0  0  0  0
  186.1640  176.7700  145.2870 C   0  0  2  0  0  3  0  0  0  0  0  0
  187.0200  176.9100  146.5420 C   0  0  2  0  0  3  0  0  0  0  0  0
  186.1620  177.6110  147.5630 C   0  0  2  0  0  3  0  0  0  0  0  0
  188.2090  177.6300  146.3260 O   0  0  0  0  0  0  0  0  0  0  0  0
  189.4530  176.4690  146.2860 P   0  0  0  0  0  0  0  0  0  0  0  0
  190.6720  176.9300  147.3690 O   0  0  0  0  0  1  0  0  0  0  0  0
  188.8370  174.9680  146.7710 O   0  0  0  0  0  1  0  0  0  0  0  0
  190.0360  176.3600  144.8950 O   0  0  0  0  0  0  0  0  0  0  0  0
  196.5170  176.1450  141.0410 C   0  0  0  0  0  2  0  0  0  0  0  0
  197.4270  175.6090  139.9520 C   0  0  0  0  0  2  0  0  0  0  0  0
  196.7240  175.5070  138.7490 O   0  0  0  0  0  0  0  0  0  0  0  0
  197.7050  175.2260  137.7930 C   0  0  0  0  0  2  0  0  0  0  0  0
  195.8060  174.4260  136.5490 O   0  0  0  0  0  0  0  0  0  0  0  0
  195.9540  173.0290  136.4390 C   0  0  1  0  0  3  0  0  0  0  0  0
  197.0860  175.0010  136.4050 C   0  0  2  0  0  0  0  0  0  0  0  0
  197.3710  172.6990  136.0390 C   0  0  2  0  0  3  0  0  0  0  0  0
  197.9410  174.0240  135.6320 C   0  0  0  0  0  2  0  0  0  0  0  0
  195.9570  176.2300  134.6630 O   0  0  0  0  0  1  0  0  0  0  0  0
  196.9610  176.3120  135.6270 C   0  0  0  0  0  2  0  0  0  0  0  0
  197.3100  170.4030  135.3850 O   0  0  0  0  0  1  0  0  0  0  0  0
  197.3910  171.7030  134.8860 C   0  0  0  0  0  2  0  0  0  0  0  0
  195.6330  172.3660  137.7700 C   0  0  0  0  0  2  0  0  0  0  0  0
  194.5330  171.3310  137.5910 C   0  0  0  0  0  2  0  0  0  0  0  0
  190.5780  173.6860  138.0980 C   0  0  0  0  0  1  0  0  0  0  0  0
  190.3800  170.3570  136.7720 C   0  0  0  0  0  1  0  0  0  0  0  0
  193.3060  171.8330  138.1870 N   0  0  0  0  0  0  0  0  0  0  0  0
  192.7470  172.8220  137.2700 C   0  0  0  0  0  2  0  0  0  0  0  0
  192.3550  170.7260  138.2150 C   0  0  0  0  0  2  0  0  0  0  0  0
  190.9970  171.2660  137.8170 C   0  0  1  0  0  3  0  0  0  0  0  0
  191.2450  172.6380  137.2270 C   0  0  1  0  0  3  0  0  0  0  0  0
  1  2  2  0  0  0  0
  1  9  1  0  0  0  0
  2 12  1  0  0  0  0
  3  4  1  0  0  0  0
  3  5  2  0  0  0  0
  4  1  1  0  0  0  0
  5  2  1  0  0  0  0
  8  7  2  0  0  0  0
  8  6  1  0  0  0  0
  9  8  1  0  0  0  0
 10  7  1  0  0  0  0
 11  9  1  0  0  0  0
 11 10  2  0  0  0  0
 14 12  1  0  0  0  0
 14 13  2  0  0  0  0
 15 14  1  0  0  0  0
 17 18  2  0  0  0  0
 18 16  1  0  0  0  0
 18 15  1  0  0  0  0
 19 22  1  0  0  0  0
 19 16  1  0  0  0  0
 21 23  1  0  0  0  0
 22 21  1  0  0  0  0
 22 20  2  0  0  0  0
 23 24  1  6  0  0  0
 23 26  1  0  0  0  0
 25 24  1  0  0  0  0
 27 29  1  6  0  0  0
 27 32  1  0  0  0  0
 28 27  1  0  0  0  0
 30 26  1  6  0  0  0
 30 28  1  0  0  0  0
 30 31  1  0  0  0  0
 31 33  1  6  0  0  0
 31 32  1  0  0  0  0
 32 29  1  6  0  0  0
 34 33  1  0  0  0  0
 34 36  1  0  0  0  0
 34 35  1  0  0  0  0
 37 34  2  0  0  0  0
 38  3  1  0  0  0  0
 39 38  1  0  0  0  0
 40 39  1  0  0  0  0
 41 40  1  0  0  0  0
 43 42  1  0  0  0  0
 43 51  1  1  0  0  0
 44 48  1  6  0  0  0
 44 42  1  0  0  0  0
 44 41  1  0  0  0  0
 45 50  1  6  0  0  0
 45 43  1  0  0  0  0
 46 45  1  0  0  0  0
 46 44  1  0  0  0  0
 47 48  1  0  0  0  0
 50 49  1  0  0  0  0
 52 51  1  0  0  0  0
 52 55  1  0  0  0  0
 55 57  1  0  0  0  0
 56 55  1  0  0  0  0
 58 54  1  6  0  0  0
 58 57  1  0  0  0  0
 59 56  1  0  0  0  0
 59 58  1  0  0  0  0
 59 53  1  1  0  0  0
M  END
>  <MODEL>
6

>  <REMARK>
 VINA RESULT:      -4.9      3.040      9.613
  Name = 
  22 active torsions:
  status: ('A' for Active; 'I' for Inactive)
    1  A    between atoms: C_2  and  C_25
    2  A    between atoms: C_3  and  N_33
    3  A    between atoms: P_6  and  O_19
    4  A    between atoms: N_7  and  C_47
    5  A    between atoms: C_8  and  N_17
    6  A    between atoms: C_15  and  O_34
    7  A    between atoms: C_15  and  C_49
    8  A    between atoms: N_18  and  C_41
    9  A    between atoms: O_19  and  C_48
   10  A    between atoms: C_20  and  C_23
   11  A    between atoms: C_21  and  O_51
   12  A    between atoms: C_22  and  C_23
   13  A    between atoms: C_22  and  O_34
   14  A    between atoms: C_25  and  N_39
   15  A    between atoms: C_25  and  O_51
   16  A    between atoms: C_28  and  C_50
   17  A    between atoms: C_28  and  C_56
   18  A    between atoms: C_29  and  C_55
   19  A    between atoms: C_31  and  C_49
   20  A    between atoms: C_40  and  C_46
   21  A    between atoms: C_41  and  C_46
   22  A    between atoms: C_43  and  C_47
                            x       y       z     vdW  Elec       q    Type
                         _______ _______ _______ _____ _____    ______ ____

>  <TORSDO>
F 22

$$$$
=
 OpenBabel11042414403D

 59 64  0  0  1  0  0  0  0  0999 V2000
  196.4240  173.0000  142.2710 C   0  0  0  0  0  0  0  0  0  0  0  0
  196.7490  174.2740  141.8120 C   0  0  0  0  0  0  0  0  0  0  0  0
  196.4280  173.1870  139.7850 C   0  0  0  0  0  0  0  0  0  0  0  0
  196.1620  171.9970  140.9480 S   0  0  0  0  0  0  0  0  0  0  0  0
  196.7600  174.3890  140.4130 C   0  0  0  0  0  3  0  0  0  0  0  0
  194.6440  170.8330  143.6260 C   0  0  0  0  0  1  0  0  0  0  0  0
  196.1800  171.4070  145.5080 N   0  0  0  0  0  0  0  0  0  0  0  0
  195.7750  171.5930  144.2420 C   0  0  0  0  0  0  0  0  0  0  0  0
  196.4910  172.5610  143.6390 N   0  0  0  0  0  0  0  0  0  0  0  0
  197.1900  172.2980  145.6470 C   0  0  0  0  0  3  0  0  0  0  0  0
  197.3790  173.0000  144.5150 N   0  0  0  0  0  0  0  0  0  0  0  0
  197.0040  175.3840  142.6730 N   0  0  0  0  0  2  0  0  0  0  0  0
  196.2760  177.1420  143.9920 O   0  0  0  0  0  0  0  0  0  0  0  0
  195.9690  176.1100  143.3370 C   0  0  0  0  0  0  0  0  0  0  0  0
  194.5310  175.6820  143.2140 C   0  0  0  0  0  2  0  0  0  0  0  0
  193.6390  176.1570  145.5300 N   0  0  0  0  0  2  0  0  0  0  0  0
  193.7890  173.9760  144.7010 O   0  0  0  0  0  0  0  0  0  0  0  0
  193.9550  175.2110  144.5090 C   0  0  0  0  0  0  0  0  0  0  0  0
  193.1810  175.7270  146.8420 C   0  0  0  0  0  2  0  0  0  0  0  0
  191.6110  176.9730  148.1070 O   0  0  0  0  0  0  0  0  0  0  0  0
  190.7330  175.9130  146.2070 N   0  0  0  0  0  2  0  0  0  0  0  0
  191.8020  176.2260  147.1120 C   0  0  0  0  0  0  0  0  0  0  0  0
  189.3940  176.5110  146.1900 C   0  0  2  0  0  3  0  0  0  0  0  0
  188.3000  175.6780  146.8680 C   0  0  0  0  0  2  0  0  0  0  0  0
  188.8400  174.6360  147.6290 O   0  0  0  0  0  1  0  0  0  0  0  0
  189.0640  177.1740  144.9810 O   0  0  0  0  0  0  0  0  0  0  0  0
  187.6840  176.7880  142.0150 C   0  0  2  0  0  3  0  0  0  0  0  0
  188.5790  176.2220  142.9530 O   0  0  0  0  0  0  0  0  0  0  0  0
  187.7160  178.3070  142.1000 C   0  0  0  0  0  2  0  0  0  0  0  0
  188.0970  176.4470  144.2620 C   0  0  2  0  0  3  0  0  0  0  0  0
  186.7720  177.1980  144.1720 C   0  0  2  0  0  3  0  0  0  0  0  0
  186.5640  177.5150  142.7140 C   0  0  2  0  0  3  0  0  0  0  0  0
  186.7500  178.3780  144.9360 O   0  0  0  0  0  0  0  0  0  0  0  0
  185.3930  178.2460  145.9550 P   0  0  0  0  0  0  0  0  0  0  0  0
  185.7090  179.0640  147.4050 O   0  0  0  0  0  1  0  0  0  0  0  0
  184.0550  178.9660  145.2060 O   0  0  0  0  0  0  0  0  0  0  0  0
  185.0920  176.7940  146.2560 O   0  0  0  0  0  1  0  0  0  0  0  0
  196.5180  172.9030  138.3220 C   0  0  0  0  0  2  0  0  0  0  0  0
  195.4080  171.9910  137.8370 C   0  0  0  0  0  2  0  0  0  0  0  0
  194.4230  172.7390  137.1870 O   0  0  0  0  0  0  0  0  0  0  0  0
  193.7210  171.8040  136.4200 C   0  0  0  0  0  2  0  0  0  0  0  0
  191.8970  172.4490  137.8510 O   0  0  0  0  0  0  0  0  0  0  0  0
  191.5700  171.3190  138.6250 C   0  0  1  0  0  3  0  0  0  0  0  0
  192.2030  171.9990  136.5500 C   0  0  2  0  0  0  0  0  0  0  0  0
  191.5010  170.1000  137.7380 C   0  0  2  0  0  3  0  0  0  0  0  0
  191.5130  170.6700  136.3530 C   0  0  0  0  0  2  0  0  0  0  0  0
  190.3230  172.8120  135.2740 O   0  0  0  0  0  1  0  0  0  0  0  0
  191.6790  173.0140  135.5320 C   0  0  0  0  0  2  0  0  0  0  0  0
  190.3200  168.6740  139.2470 O   0  0  0  0  0  1  0  0  0  0  0  0
  190.2280  169.3060  138.0070 C   0  0  0  0  0  2  0  0  0  0  0  0
  192.6230  171.1050  139.7030 C   0  0  0  0  0  2  0  0  0  0  0  0
  191.9610  170.9600  141.0640 C   0  0  0  0  0  2  0  0  0  0  0  0
  187.9230  173.0260  141.9970 C   0  0  0  0  0  1  0  0  0  0  0  0
  190.3400  172.8140  144.6420 C   0  0  0  0  0  1  0  0  0  0  0  0
  190.9620  172.0050  141.2220 N   0  0  0  0  0  0  0  0  0  0  0  0
  189.7040  171.3560  141.5770 C   0  0  0  0  0  2  0  0  0  0  0  0
  191.3480  172.8000  142.3830 C   0  0  0  0  0  2  0  0  0  0  0  0
  190.0950  173.1100  143.1760 C   0  0  1  0  0  3  0  0  0  0  0  0
  189.0180  172.1920  142.6360 C   0  0  1  0  0  3  0  0  0  0  0  0
  1  9  1  0  0  0  0
  2  1  2  0  0  0  0
  2 12  1  0  0  0  0
  3  5  2  0  0  0  0
  3  4  1  0  0  0  0
  4  1  1  0  0  0  0
  5  2  1  0  0  0  0
  6  8  1  0  0  0  0
  7 10  1  0  0  0  0
  8  7  2  0  0  0  0
  9  8  1  0  0  0  0
  9 11  1  0  0  0  0
 11 10  2  0  0  0  0
 12 14  1  0  0  0  0
 14 13  2  0  0  0  0
 15 14  1  0  0  0  0
 15 18  1  0  0  0  0
 16 19  1  0  0  0  0
 18 17  2  0  0  0  0
 18 16  1  0  0  0  0
 19 22  1  0  0  0  0
 21 22  1  0  0  0  0
 22 20  2  0  0  0  0
 23 21  1  0  0  0  0
 23 24  1  6  0  0  0
 24 25  1  0  0  0  0
 26 23  1  0  0  0  0
 27 29  1  6  0  0  0
 27 32  1  0  0  0  0
 27 28  1  0  0  0  0
 28 30  1  0  0  0  0
 30 26  1  1  0  0  0
 31 30  1  0  0  0  0
 31 33  1  1  0  0  0
 32 29  1  1  0  0  0
 32 31  1  0  0  0  0
 33 34  1  0  0  0  0
 34 37  1  0  0  0  0
 34 35  1  0  0  0  0
 36 34  2  0  0  0  0
 38  3  1  0  0  0  0
 39 38  1  0  0  0  0
 40 39  1  0  0  0  0
 41 44  1  0  0  0  0
 41 40  1  0  0  0  0
 42 43  1  0  0  0  0
 43 51  1  1  0  0  0
 44 48  1  6  0  0  0
 44 42  1  0  0  0  0
 45 50  1  1  0  0  0
 45 43  1  0  0  0  0
 46 44  1  0  0  0  0
 46 45  1  0  0  0  0
 47 48  1  0  0  0  0
 50 49  1  0  0  0  0
 51 52  1  0  0  0  0
 52 55  1  0  0  0  0
 55 56  1  0  0  0  0
 55 57  1  0  0  0  0
 56 59  1  0  0  0  0
 57 58  1  0  0  0  0
 58 54  1  1  0  0  0
 59 53  1  6  0  0  0
 59 58  1  0  0  0  0
M  END
>  <MODEL>
7

>  <REMARK>
 VINA RESULT:      -4.9      2.732      8.543
  Name = 
  22 active torsions:
  status: ('A' for Active; 'I' for Inactive)
    1  A    between atoms: C_2  and  C_25
    2  A    between atoms: C_3  and  N_33
    3  A    between atoms: P_6  and  O_19
    4  A    between atoms: N_7  and  C_47
    5  A    between atoms: C_8  and  N_17
    6  A    between atoms: C_15  and  O_34
    7  A    between atoms: C_15  and  C_49
    8  A    between atoms: N_18  and  C_41
    9  A    between atoms: O_19  and  C_48
   10  A    between atoms: C_20  and  C_23
   11  A    between atoms: C_21  and  O_51
   12  A    between atoms: C_22  and  C_23
   13  A    between atoms: C_22  and  O_34
   14  A    between atoms: C_25  and  N_39
   15  A    between atoms: C_25  and  O_51
   16  A    between atoms: C_28  and  C_50
   17  A    between atoms: C_28  and  C_56
   18  A    between atoms: C_29  and  C_55
   19  A    between atoms: C_31  and  C_49
   20  A    between atoms: C_40  and  C_46
   21  A    between atoms: C_41  and  C_46
   22  A    between atoms: C_43  and  C_47
                            x       y       z     vdW  Elec       q    Type
                         _______ _______ _______ _____ _____    ______ ____

>  <TORSDO>
F 22

$$$$
=
 OpenBabel11042414403D

 59 64  0  0  1  0  0  0  0  0999 V2000
  195.1090  172.5870  143.9940 C   0  0  0  0  0  0  0  0  0  0  0  0
  194.3570  173.6850  144.4060 C   0  0  0  0  0  0  0  0  0  0  0  0
  195.9100  174.7500  143.0460 C   0  0  0  0  0  0  0  0  0  0  0  0
  196.3460  173.1220  142.9900 S   0  0  0  0  0  0  0  0  0  0  0  0
  194.8040  174.9090  143.8830 C   0  0  0  0  0  3  0  0  0  0  0  0
  194.6330  170.0060  142.3180 C   0  0  0  0  0  1  0  0  0  0  0  0
  194.8230  169.0350  144.6100 N   0  0  0  0  0  0  0  0  0  0  0  0
  194.8220  170.1050  143.7980 C   0  0  0  0  0  0  0  0  0  0  0  0
  194.9760  171.2460  144.4950 N   0  0  0  0  0  0  0  0  0  0  0  0
  194.9990  169.5770  145.8390 C   0  0  0  0  0  3  0  0  0  0  0  0
  195.0910  170.9180  145.7720 N   0  0  0  0  0  0  0  0  0  0  0  0
  193.2060  173.5860  145.2450 N   0  0  0  0  0  2  0  0  0  0  0  0
  190.9160  173.4370  145.5420 O   0  0  0  0  0  0  0  0  0  0  0  0
  191.8840  173.4070  144.7370 C   0  0  0  0  0  0  0  0  0  0  0  0
  191.6460  173.2370  143.2610 C   0  0  0  0  0  2  0  0  0  0  0  0
  189.6690  174.7330  142.7670 N   0  0  0  0  0  2  0  0  0  0  0  0
  191.8030  175.2110  141.9370 O   0  0  0  0  0  0  0  0  0  0  0  0
  191.0630  174.4560  142.6250 C   0  0  0  0  0  0  0  0  0  0  0  0
  189.0470  175.8490  142.0710 C   0  0  0  0  0  2  0  0  0  0  0  0
  186.9650  174.8970  142.6850 O   0  0  0  0  0  0  0  0  0  0  0  0
  186.9740  177.2380  142.5250 N   0  0  0  0  0  2  0  0  0  0  0  0
  187.6010  175.9510  142.4220 C   0  0  0  0  0  0  0  0  0  0  0  0
  185.6510  177.5270  143.0850 C   0  0  2  0  0  3  0  0  0  0  0  0
  184.5630  177.8500  142.0550 C   0  0  0  0  0  2  0  0  0  0  0  0
  183.4030  178.3420  142.6640 O   0  0  0  0  0  1  0  0  0  0  0  0
  185.6750  178.2910  144.2800 O   0  0  0  0  0  0  0  0  0  0  0  0
  184.9370  178.3270  147.4900 C   0  0  2  0  0  3  0  0  0  0  0  0
  184.4280  178.0860  146.1920 O   0  0  0  0  0  0  0  0  0  0  0  0
  186.0070  179.4080  147.4490 C   0  0  0  0  0  2  0  0  0  0  0  0
  185.4250  177.4750  145.3990 C   0  0  2  0  0  3  0  0  0  0  0  0
  186.6760  177.2790  146.2500 C   0  0  2  0  0  3  0  0  0  0  0  0
  186.3910  177.9360  147.5760 C   0  0  2  0  0  3  0  0  0  0  0  0
  187.8330  177.8300  145.6710 O   0  0  0  0  0  0  0  0  0  0  0  0
  189.1440  177.1270  146.4980 P   0  0  0  0  0  0  0  0  0  0  0  0
  188.7820  175.5040  146.8280 O   0  0  0  0  0  1  0  0  0  0  0  0
  190.5240  177.1850  145.5180 O   0  0  0  0  0  0  0  0  0  0  0  0
  189.4060  177.8550  147.7980 O   0  0  0  0  0  1  0  0  0  0  0  0
  196.7450  175.8470  142.4710 C   0  0  0  0  0  2  0  0  0  0  0  0
  197.4720  175.4220  141.2090 C   0  0  0  0  0  2  0  0  0  0  0  0
  196.5850  175.4010  140.1290 O   0  0  0  0  0  0  0  0  0  0  0  0
  197.0150  174.3290  139.3430 C   0  0  0  0  0  2  0  0  0  0  0  0
  194.7800  174.2480  138.4550 O   0  0  0  0  0  0  0  0  0  0  0  0
  194.3120  172.9340  138.6540 C   0  0  1  0  0  3  0  0  0  0  0  0
  196.1400  174.1650  138.0910 C   0  0  2  0  0  0  0  0  0  0  0  0
  195.3770  171.9490  138.2360 C   0  0  2  0  0  3  0  0  0  0  0  0
  196.3710  172.7950  137.4990 C   0  0  0  0  0  2  0  0  0  0  0  0
  196.1640  174.7860  135.7600 O   0  0  0  0  0  1  0  0  0  0  0  0
  196.4460  175.2410  137.0480 C   0  0  0  0  0  2  0  0  0  0  0  0
  194.2770  169.8320  138.1250 O   0  0  0  0  0  1  0  0  0  0  0  0
  194.7900  170.8650  137.3400 C   0  0  0  0  0  2  0  0  0  0  0  0
  193.9690  172.7210  140.1200 C   0  0  0  0  0  2  0  0  0  0  0  0
  192.5990  172.0730  140.2510 C   0  0  0  0  0  2  0  0  0  0  0  0
  189.6960  171.1920  136.7520 C   0  0  0  0  0  1  0  0  0  0  0  0
  188.4660  173.1680  139.4850 C   0  0  0  0  0  1  0  0  0  0  0  0
  191.8770  172.2310  139.0000 N   0  0  0  0  0  0  0  0  0  0  0  0
  191.0830  171.0220  138.7980 C   0  0  0  0  0  2  0  0  0  0  0  0
  190.9180  173.3150  139.1880 C   0  0  0  0  0  2  0  0  0  0  0  0
  189.6150  172.9090  138.5300 C   0  0  1  0  0  3  0  0  0  0  0  0
  189.7300  171.4250  138.2510 C   0  0  1  0  0  3  0  0  0  0  0  0
  1  2  2  0  0  0  0
  1  9  1  0  0  0  0
  2 12  1  0  0  0  0
  3  5  2  0  0  0  0
  4  3  1  0  0  0  0
  4  1  1  0  0  0  0
  5  2  1  0  0  0  0
  6  8  1  0  0  0  0
  7 10  1  0  0  0  0
  8  9  1  0  0  0  0
  8  7  2  0  0  0  0
  9 11  1  0  0  0  0
 11 10  2  0  0  0  0
 14 12  1  0  0  0  0
 14 13  2  0  0  0  0
 15 14  1  0  0  0  0
 17 18  2  0  0  0  0
 18 16  1  0  0  0  0
 18 15  1  0  0  0  0
 19 22  1  0  0  0  0
 19 16  1  0  0  0  0
 21 23  1  0  0  0  0
 22 21  1  0  0  0  0
 22 20  2  0  0  0  0
 23 24  1  6  0  0  0
 23 26  1  0  0  0  0
 24 25  1  0  0  0  0
 27 29  1  6  0  0  0
 27 32  1  0  0  0  0
 28 27  1  0  0  0  0
 30 26  1  6  0  0  0
 30 28  1  0  0  0  0
 30 31  1  0  0  0  0
 31 33  1  6  0  0  0
 31 32  1  0  0  0  0
 32 29  1  6  0  0  0
 33 34  1  0  0  0  0
 34 35  1  0  0  0  0
 34 37  1  0  0  0  0
 36 34  2  0  0  0  0
 38  3  1  0  0  0  0
 39 38  1  0  0  0  0
 40 39  1  0  0  0  0
 41 40  1  0  0  0  0
 42 43  1  0  0  0  0
 43 51  1  1  0  0  0
 44 48  1  6  0  0  0
 44 42  1  0  0  0  0
 44 41  1  0  0  0  0
 45 50  1  6  0  0  0
 45 43  1  0  0  0  0
 46 44  1  0  0  0  0
 46 45  1  0  0  0  0
 47 48  1  0  0  0  0
 50 49  1  0  0  0  0
 51 52  1  0  0  0  0
 55 57  1  0  0  0  0
 55 52  1  0  0  0  0
 56 55  1  0  0  0  0
 58 57  1  0  0  0  0
 58 54  1  1  0  0  0
 59 53  1  6  0  0  0
 59 58  1  0  0  0  0
 59 56  1  0  0  0  0
M  END
>  <MODEL>
8

>  <REMARK>
 VINA RESULT:      -4.9      3.086      9.201
  Name = 
  22 active torsions:
  status: ('A' for Active; 'I' for Inactive)
    1  A    between atoms: C_2  and  C_25
    2  A    between atoms: C_3  and  N_33
    3  A    between atoms: P_6  and  O_19
    4  A    between atoms: N_7  and  C_47
    5  A    between atoms: C_8  and  N_17
    6  A    between atoms: C_15  and  O_34
    7  A    between atoms: C_15  and  C_49
    8  A    between atoms: N_18  and  C_41
    9  A    between atoms: O_19  and  C_48
   10  A    between atoms: C_20  and  C_23
   11  A    between atoms: C_21  and  O_51
   12  A    between atoms: C_22  and  C_23
   13  A    between atoms: C_22  and  O_34
   14  A    between atoms: C_25  and  N_39
   15  A    between atoms: C_25  and  O_51
   16  A    between atoms: C_28  and  C_50
   17  A    between atoms: C_28  and  C_56
   18  A    between atoms: C_29  and  C_55
   19  A    between atoms: C_31  and  C_49
   20  A    between atoms: C_40  and  C_46
   21  A    between atoms: C_41  and  C_46
   22  A    between atoms: C_43  and  C_47
                            x       y       z     vdW  Elec       q    Type
                         _______ _______ _______ _____ _____    ______ ____

>  <TORSDO>
F 22

$$$$
=
 OpenBabel11042414403D

 59 64  0  0  1  0  0  0  0  0999 V2000
  195.8200  173.1480  141.7950 C   0  0  0  0  0  0  0  0  0  0  0  0
  196.1280  172.4170  142.9380 C   0  0  0  0  0  0  0  0  0  0  0  0
  194.6140  170.9710  141.9330 C   0  0  0  0  0  0  0  0  0  0  0  0
  194.6910  172.2930  140.8910 S   0  0  0  0  0  0  0  0  0  0  0  0
  195.4490  171.1900  143.0300 C   0  0  0  0  0  3  0  0  0  0  0  0
  197.9210  174.0580  139.6830 C   0  0  0  0  0  1  0  0  0  0  0  0
  197.1840  176.2690  140.5780 N   0  0  0  0  0  0  0  0  0  0  0  0
  197.1070  174.9280  140.5860 C   0  0  0  0  0  0  0  0  0  0  0  0
  196.2430  174.4960  141.5240 N   0  0  0  0  0  0  0  0  0  0  0  0
  196.3130  176.6370  141.5470 C   0  0  0  0  0  3  0  0  0  0  0  0
  195.7420  175.5640  142.1230 N   0  0  0  0  0  0  0  0  0  0  0  0
  197.0810  172.8380  143.9150 N   0  0  0  0  0  2  0  0  0  0  0  0
  197.6100  173.7130  145.9920 O   0  0  0  0  0  0  0  0  0  0  0  0
  196.7160  173.2550  145.2310 C   0  0  0  0  0  0  0  0  0  0  0  0
  195.2820  173.1970  145.6850 C   0  0  0  0  0  2  0  0  0  0  0  0
  193.3680  174.4780  144.6450 N   0  0  0  0  0  2  0  0  0  0  0  0
  195.0030  175.5500  145.9290 O   0  0  0  0  0  0  0  0  0  0  0  0
  194.5490  174.4750  145.4470 C   0  0  0  0  0  0  0  0  0  0  0  0
  192.6910  175.7190  144.3020 C   0  0  0  0  0  2  0  0  0  0  0  0
  191.8960  176.9600  146.1580 O   0  0  0  0  0  0  0  0  0  0  0  0
  190.3760  175.3990  145.2880 N   0  0  0  0  0  2  0  0  0  0  0  0
  191.6520  176.0540  145.3190 C   0  0  0  0  0  0  0  0  0  0  0  0
  189.1780  175.7740  146.0450 C   0  0  2  0  0  3  0  0  0  0  0  0
  188.9080  174.9310  147.2970 C   0  0  0  0  0  2  0  0  0  0  0  0
  190.0610  174.7740  148.0730 O   0  0  0  0  0  1  0  0  0  0  0  0
  188.0670  176.1370  145.2430 O   0  0  0  0  0  0  0  0  0  0  0  0
  185.9680  178.5200  146.1170 C   0  0  2  0  0  3  0  0  0  0  0  0
  187.1840  177.8760  146.4460 O   0  0  0  0  0  0  0  0  0  0  0  0
  185.0020  177.5360  145.4730 C   0  0  0  0  0  2  0  0  0  0  0  0
  187.8710  177.5300  145.2620 C   0  0  2  0  0  3  0  0  0  0  0  0
  187.0540  178.0060  144.0650 C   0  0  2  0  0  3  0  0  0  0  0  0
  185.7650  178.5500  144.6230 C   0  0  2  0  0  3  0  0  0  0  0  0
  186.7920  176.9880  143.1310 O   0  0  0  0  0  0  0  0  0  0  0  0
  187.0270  177.6910  141.5990 P   0  0  0  0  0  0  0  0  0  0  0  0
  187.0660  176.4650  140.4300 O   0  0  0  0  0  0  0  0  0  0  0  0
  185.7350  178.7290  141.2530 O   0  0  0  0  0  1  0  0  0  0  0  0
  188.3290  178.4600  141.5600 O   0  0  0  0  0  1  0  0  0  0  0  0
  193.6180  169.8670  141.7920 C   0  0  0  0  0  2  0  0  0  0  0  0
  193.4250  169.4400  140.3500 C   0  0  0  0  0  2  0  0  0  0  0  0
  192.4360  170.2220  139.7470 O   0  0  0  0  0  0  0  0  0  0  0  0
  192.1650  169.5750  138.5380 C   0  0  0  0  0  2  0  0  0  0  0  0
  192.4890  171.8370  137.7830 O   0  0  0  0  0  0  0  0  0  0  0  0
  191.2070  172.4020  137.6350 C   0  0  1  0  0  3  0  0  0  0  0  0
  192.4180  170.5010  137.3380 C   0  0  2  0  0  0  0  0  0  0  0  0
  190.3080  171.4340  136.9050 C   0  0  2  0  0  3  0  0  0  0  0  0
  191.2560  170.4000  136.3790 C   0  0  0  0  0  2  0  0  0  0  0  0
  194.8310  170.5070  137.3790 O   0  0  0  0  0  1  0  0  0  0  0  0
  193.7200  170.1430  136.6190 C   0  0  0  0  0  2  0  0  0  0  0  0
  189.8090  173.5070  135.8270 O   0  0  0  0  0  1  0  0  0  0  0  0
  189.5610  172.1350  135.7770 C   0  0  0  0  0  2  0  0  0  0  0  0
  190.6160  172.7140  139.0010 C   0  0  0  0  0  2  0  0  0  0  0  0
  189.3300  171.9300  139.2090 C   0  0  0  0  0  2  0  0  0  0  0  0
  189.4560  172.1520  143.8330 C   0  0  0  0  0  1  0  0  0  0  0  0
  189.9290  175.2030  142.0020 C   0  0  0  0  0  1  0  0  0  0  0  0
  188.8870  172.0970  140.5840 N   0  0  0  0  0  0  0  0  0  0  0  0
  190.0240  171.7950  141.4490 C   0  0  0  0  0  2  0  0  0  0  0  0
  188.5990  173.5140  140.7770 C   0  0  0  0  0  2  0  0  0  0  0  0
  189.1310  173.9200  142.1360 C   0  0  1  0  0  3  0  0  0  0  0  0
  190.0370  172.7930  142.5860 C   0  0  1  0  0  3  0  0  0  0  0  0
  1  2  2  0  0  0  0
  2  5  1  0  0  0  0
  2 12  1  0  0  0  0
  3  5  2  0  0  0  0
  4  1  1  0  0  0  0
  4  3  1  0  0  0  0
  6  8  1  0  0  0  0
  7  8  2  0  0  0  0
  7 10  1  0  0  0  0
  8  9  1  0  0  0  0
  9  1  1  0  0  0  0
  9 11  1  0  0  0  0
 10 11  2  0  0  0  0
 12 14  1  0  0  0  0
 14 15  1  0  0  0  0
 14 13  2  0  0  0  0
 16 18  1  0  0  0  0
 18 15  1  0  0  0  0
 18 17  2  0  0  0  0
 19 16  1  0  0  0  0
 19 22  1  0  0  0  0
 21 22  1  0  0  0  0
 21 23  1  0  0  0  0
 22 20  2  0  0  0  0
 23 24  1  6  0  0  0
 24 25  1  0  0  0  0
 26 23  1  0  0  0  0
 27 29  1  1  0  0  0
 27 28  1  0  0  0  0
 30 26  1  6  0  0  0
 30 28  1  0  0  0  0
 31 33  1  6  0  0  0
 31 32  1  0  0  0  0
 31 30  1  0  0  0  0
 32 29  1  1  0  0  0
 32 27  1  0  0  0  0
 34 33  1  0  0  0  0
 35 34  2  0  0  0  0
 36 34  1  0  0  0  0
 37 34  1  0  0  0  0
 38  3  1  0  0  0  0
 39 38  1  0  0  0  0
 40 39  1  0  0  0  0
 41 40  1  0  0  0  0
 43 42  1  0  0  0  0
 43 51  1  1  0  0  0
 44 48  1  6  0  0  0
 44 42  1  0  0  0  0
 44 41  1  0  0  0  0
 45 50  1  6  0  0  0
 45 43  1  0  0  0  0
 46 45  1  0  0  0  0
 46 44  1  0  0  0  0
 48 47  1  0  0  0  0
 50 49  1  0  0  0  0
 51 52  1  0  0  0  0
 52 55  1  0  0  0  0
 55 57  1  0  0  0  0
 55 56  1  0  0  0  0
 56 59  1  0  0  0  0
 57 58  1  0  0  0  0
 58 54  1  6  0  0  0
 58 59  1  0  0  0  0
 59 53  1  1  0  0  0
M  END
>  <MODEL>
9

>  <REMARK>
 VINA RESULT:      -4.9      2.438      8.094
  Name = 
  22 active torsions:
  status: ('A' for Active; 'I' for Inactive)
    1  A    between atoms: C_2  and  C_25
    2  A    between atoms: C_3  and  N_33
    3  A    between atoms: P_6  and  O_19
    4  A    between atoms: N_7  and  C_47
    5  A    between atoms: C_8  and  N_17
    6  A    between atoms: C_15  and  O_34
    7  A    between atoms: C_15  and  C_49
    8  A    between atoms: N_18  and  C_41
    9  A    between atoms: O_19  and  C_48
   10  A    between atoms: C_20  and  C_23
   11  A    between atoms: C_21  and  O_51
   12  A    between atoms: C_22  and  C_23
   13  A    between atoms: C_22  and  O_34
   14  A    between atoms: C_25  and  N_39
   15  A    between atoms: C_25  and  O_51
   16  A    between atoms: C_28  and  C_50
   17  A    between atoms: C_28  and  C_56
   18  A    between atoms: C_29  and  C_55
   19  A    between atoms: C_31  and  C_49
   20  A    between atoms: C_40  and  C_46
   21  A    between atoms: C_41  and  C_46
   22  A    between atoms: C_43  and  C_47
                            x       y       z     vdW  Elec       q    Type
                         _______ _______ _______ _____ _____    ______ ____

>  <TORSDO>
F 22

$$$$
