=
 OpenBabel11042417013D

 38 42  0  0  1  0  0  0  0  0999 V2000
  185.2380  178.0590  145.4880 C   0  0  0  0  0  0  0  0  0  0  0  0
  186.0090  176.6680  142.8660 C   0  0  0  0  0  3  0  0  0  0  0  0
  187.2690  176.5980  145.0480 C   0  0  0  0  0  0  0  0  0  0  0  0
  185.1120  177.6350  143.0330 C   0  0  0  0  0  3  0  0  0  0  0  0
  185.0730  178.5240  144.1450 N   0  0  0  0  0  0  0  0  0  0  0  0
  187.1540  176.3200  143.7230 C   0  0  0  0  0  0  0  0  0  0  0  0
  186.2130  177.2360  145.8610 C   0  0  0  0  0  3  0  0  0  0  0  0
  184.3530  178.5960  146.5600 C   0  0  0  0  0  1  0  0  0  0  0  0
  184.4600  179.7170  143.9510 O   0  0  0  0  0  1  0  0  0  0  0  0
  189.7370  176.6790  145.4890 C   0  0  0  0  0  3  0  0  0  0  0  0
  190.8570  176.2610  146.2100 C   0  0  0  0  0  0  0  0  0  0  0  0
  190.7100  175.3310  147.2410 C   0  0  0  0  0  3  0  0  0  0  0  0
  189.4380  174.8380  147.5370 C   0  0  0  0  0  3  0  0  0  0  0  0
  188.4710  176.1750  145.8190 C   0  0  0  0  0  0  0  0  0  0  0  0
  188.3590  175.2620  146.8260 N   0  0  0  0  0  0  0  0  0  0  0  0
  192.2060  176.7820  145.8600 C   0  0  0  0  0  2  0  0  0  0  0  0
  193.2600  176.1230  146.7290 C   0  0  0  0  0  2  0  0  0  0  0  0
  194.6280  176.3270  146.1070 C   0  0  0  0  0  2  0  0  0  0  0  0
  196.3550  175.5610  143.3140 C   0  0  0  0  0  0  0  0  0  0  0  0
  196.2560  174.5840  145.3300 C   0  0  1  0  0  3  0  0  0  0  0  0
  196.0680  173.0880  145.4890 C   0  0  0  0  0  1  0  0  0  0  0  0
  197.0460  174.8570  144.1390 N   0  0  0  0  0  0  0  0  0  0  0  0
  194.9000  175.2520  145.0670 C   0  0  2  0  0  3  0  0  0  0  0  0
  195.0470  175.8690  143.7610 N   0  0  0  0  0  2  0  0  0  0  0  0
  196.2370  177.0110  141.3120 O   0  0  0  0  0  0  0  0  0  0  0  0
  196.8780  176.0010  142.0190 C   0  0  0  0  0  0  0  0  0  0  0  0
  197.9110  175.4650  141.5390 O   0  0  0  0  0  1  0  0  0  0  0  0
  188.9770  174.8440  142.4900 C   0  0  0  0  0  0  0  0  0  0  0  0
  188.1490  175.5190  143.0490 C   0  0  0  0  0  0  0  0  0  0  0  0
  189.9670  174.0320  141.8310 C   0  0  0  0  0  0  0  0  0  0  0  0
  192.0500  172.5970  140.3890 C   0  0  0  0  0  3  0  0  0  0  0  0
  192.9330  172.2050  142.7730 C   0  0  0  0  0  3  0  0  0  0  0  0
  189.8710  173.8130  140.3760 C   0  0  0  0  0  3  0  0  0  0  0  0
  191.2180  173.5430  143.9620 C   0  0  0  0  0  3  0  0  0  0  0  0
  190.8130  173.1320  139.7090 C   0  0  0  0  0  3  0  0  0  0  0  0
  191.9170  172.6480  141.8440 N   0  0  0  0  0  0  0  0  0  0  0  0
  192.4500  172.6530  144.1610 C   0  0  0  0  0  3  0  0  0  0  0  0
  190.9620  173.4490  142.5070 C   0  0  0  0  0  0  0  0  0  0  0  0
  1  7  2  0  0  0  0
  1  8  1  0  0  0  0
  2  4  2  0  0  0  0
  2  6  1  0  0  0  0
  3 14  1  0  0  0  0
  3  7  1  0  0  0  0
  4  5  1  0  0  0  0
  5  1  1  0  0  0  0
  6  3  2  0  0  0  0
  9  5  1  0  0  0  0
 10 14  2  0  0  0  0
 10 11  1  0  0  0  0
 11 12  2  0  0  0  0
 12 13  1  0  0  0  0
 14 15  1  0  0  0  0
 15 13  2  0  0  0  0
 16 11  1  0  0  0  0
 16 17  1  0  0  0  0
 18 17  1  0  0  0  0
 19 24  1  0  0  0  0
 19 22  2  0  0  0  0
 20 21  1  6  0  0  0
 22 20  1  0  0  0  0
 23 20  1  0  0  0  0
 23 18  1  1  0  0  0
 24 23  1  0  0  0  0
 25 26  2  0  0  0  0
 26 19  1  0  0  0  0
 27 26  1  0  0  0  0
 28 29  3  0  0  0  0
 29  6  1  0  0  0  0
 30 28  1  0  0  0  0
 30 38  1  0  0  0  0
 31 36  1  0  0  0  0
 32 37  2  0  0  0  0
 33 30  2  0  0  0  0
 34 37  1  0  0  0  0
 35 33  1  0  0  0  0
 35 31  2  0  0  0  0
 36 38  1  0  0  0  0
 36 32  1  0  0  0  0
 38 34  2  0  0  0  0
M  END
>  <MODEL>
1

>  <REMARK>
 VINA RESULT:      -8.1      0.000      0.000
  Name = 
  8 active torsions:
  status: ('A' for Active; 'I' for Inactive)
    1  A    between atoms: C_2  and  C_22
    2  A    between atoms: C_3  and  C_5
    3  A    between atoms: C_8  and  C_14
    4  A    between atoms: C_8  and  C_16
    5  A    between atoms: C_9  and  C_26
    6  A    between atoms: C_16  and  C_19
    7  A    between atoms: C_19  and  C_28
    8  A    between atoms: C_24  and  C_31
                            x       y       z     vdW  Elec       q    Type
                         _______ _______ _______ _____ _____    ______ ____

>  <TORSDO>
F 8

$$$$
=
 OpenBabel11042417013D

 38 42  0  0  1  0  0  0  0  0999 V2000
  190.7100  172.9680  140.1790 C   0  0  0  0  0  0  0  0  0  0  0  0
  188.1910  174.7140  140.0840 C   0  0  0  0  0  3  0  0  0  0  0  0
  189.7020  174.3380  142.0670 C   0  0  0  0  0  0  0  0  0  0  0  0
  188.5710  173.7970  139.2000 C   0  0  0  0  0  3  0  0  0  0  0  0
  189.4900  172.7430  139.4660 N   0  0  0  0  0  0  0  0  0  0  0  0
  188.5720  174.8370  141.5010 C   0  0  0  0  0  0  0  0  0  0  0  0
  190.7750  173.6490  141.3190 C   0  0  0  0  0  3  0  0  0  0  0  0
  191.9660  172.3250  139.6990 C   0  0  0  0  0  1  0  0  0  0  0  0
  189.4020  171.6430  138.6790 O   0  0  0  0  0  1  0  0  0  0  0  0
  190.8710  175.5560  143.9200 C   0  0  0  0  0  3  0  0  0  0  0  0
  191.1470  175.7270  145.2790 C   0  0  0  0  0  0  0  0  0  0  0  0
  190.5580  174.8780  146.2170 C   0  0  0  0  0  3  0  0  0  0  0  0
  189.6950  173.8720  145.7790 C   0  0  0  0  0  3  0  0  0  0  0  0
  189.9910  174.5440  143.5120 C   0  0  0  0  0  0  0  0  0  0  0  0
  189.4360  173.7250  144.4520 N   0  0  0  0  0  0  0  0  0  0  0  0
  192.0890  176.7910  145.7210 C   0  0  0  0  0  2  0  0  0  0  0  0
  193.1940  176.1880  146.5670 C   0  0  0  0  0  2  0  0  0  0  0  0
  194.5320  176.7470  146.1220 C   0  0  0  0  0  2  0  0  0  0  0  0
  194.2690  174.0650  144.0960 C   0  0  0  0  0  0  0  0  0  0  0  0
  195.2970  176.0410  143.8400 C   0  0  1  0  0  3  0  0  0  0  0  0
  196.7210  176.1450  143.3310 C   0  0  0  0  0  1  0  0  0  0  0  0
  194.6280  174.9170  143.2020 N   0  0  0  0  0  0  0  0  0  0  0  0
  195.3040  175.7010  145.3360 C   0  0  2  0  0  3  0  0  0  0  0  0
  194.6150  174.4250  145.4200 N   0  0  0  0  0  2  0  0  0  0  0  0
  192.6160  172.3040  144.6380 O   0  0  0  0  0  1  0  0  0  0  0  0
  193.5670  172.8220  143.7670 C   0  0  0  0  0  0  0  0  0  0  0  0
  193.8220  172.2180  142.6920 O   0  0  0  0  0  0  0  0  0  0  0  0
  186.9220  176.3650  142.9020 C   0  0  0  0  0  0  0  0  0  0  0  0
  187.6700  175.6660  142.2650 C   0  0  0  0  0  0  0  0  0  0  0  0
  186.0370  177.2060  143.6650 C   0  0  0  0  0  0  0  0  0  0  0  0
  184.0670  178.7410  145.1630 C   0  0  0  0  0  3  0  0  0  0  0  0
  185.6110  178.1310  147.1280 C   0  0  0  0  0  3  0  0  0  0  0  0
  184.9580  177.9370  142.9750 C   0  0  0  0  0  3  0  0  0  0  0  0
  187.1990  176.7230  145.8480 C   0  0  0  0  0  3  0  0  0  0  0  0
  184.0620  178.6660  143.6550 C   0  0  0  0  0  3  0  0  0  0  0  0
  185.3060  178.1980  145.7150 N   0  0  0  0  0  0  0  0  0  0  0  0
  186.8960  177.2960  147.2360 C   0  0  0  0  0  3  0  0  0  0  0  0
  186.1790  177.3610  144.9850 C   0  0  0  0  0  0  0  0  0  0  0  0
  1  7  2  0  0  0  0
  2  6  1  0  0  0  0
  3 14  1  0  0  0  0
  4  5  1  0  0  0  0
  4  2  2  0  0  0  0
  5  1  1  0  0  0  0
  6  3  2  0  0  0  0
  6 29  1  0  0  0  0
  7  3  1  0  0  0  0
  8  1  1  0  0  0  0
  9  5  1  0  0  0  0
 10 11  1  0  0  0  0
 11 16  1  0  0  0  0
 11 12  2  0  0  0  0
 13 12  1  0  0  0  0
 14 10  2  0  0  0  0
 14 15  1  0  0  0  0
 15 13  2  0  0  0  0
 16 17  1  0  0  0  0
 18 17  1  0  0  0  0
 19 24  1  0  0  0  0
 20 21  1  6  0  0  0
 20 23  1  0  0  0  0
 22 20  1  0  0  0  0
 22 19  2  0  0  0  0
 23 24  1  0  0  0  0
 23 18  1  1  0  0  0
 26 19  1  0  0  0  0
 26 25  1  0  0  0  0
 27 26  2  0  0  0  0
 28 30  1  0  0  0  0
 29 28  3  0  0  0  0
 30 38  1  0  0  0  0
 31 36  1  0  0  0  0
 32 37  2  0  0  0  0
 33 35  1  0  0  0  0
 33 30  2  0  0  0  0
 34 37  1  0  0  0  0
 35 31  2  0  0  0  0
 36 32  1  0  0  0  0
 38 36  1  0  0  0  0
 38 34  2  0  0  0  0
M  END
>  <MODEL>
2

>  <REMARK>
 VINA RESULT:      -8.0      2.557      5.993
  Name = 
  8 active torsions:
  status: ('A' for Active; 'I' for Inactive)
    1  A    between atoms: C_2  and  C_22
    2  A    between atoms: C_3  and  C_5
    3  A    between atoms: C_8  and  C_14
    4  A    between atoms: C_8  and  C_16
    5  A    between atoms: C_9  and  C_26
    6  A    between atoms: C_16  and  C_19
    7  A    between atoms: C_19  and  C_28
    8  A    between atoms: C_24  and  C_31
                            x       y       z     vdW  Elec       q    Type
                         _______ _______ _______ _____ _____    ______ ____

>  <TORSDO>
F 8

$$$$
=
 OpenBabel11042417013D

 38 42  0  0  1  0  0  0  0  0999 V2000
  185.7930  178.3730  145.8250 C   0  0  0  0  0  0  0  0  0  0  0  0
  186.1990  176.8210  143.2120 C   0  0  0  0  0  3  0  0  0  0  0  0
  187.6750  176.7640  145.2550 C   0  0  0  0  0  0  0  0  0  0  0  0
  185.3860  177.8510  143.4200 C   0  0  0  0  0  3  0  0  0  0  0  0
  185.5170  178.7890  144.4840 N   0  0  0  0  0  0  0  0  0  0  0  0
  187.4050  176.4360  143.9640 C   0  0  0  0  0  0  0  0  0  0  0  0
  186.7510  177.5050  146.1380 C   0  0  0  0  0  3  0  0  0  0  0  0
  185.0600  179.0140  146.9540 C   0  0  0  0  0  1  0  0  0  0  0  0
  184.9610  180.0090  144.2940 O   0  0  0  0  0  1  0  0  0  0  0  0
  190.1720  176.7670  145.4890 C   0  0  0  0  0  3  0  0  0  0  0  0
  191.3350  176.3070  146.1110 C   0  0  0  0  0  0  0  0  0  0  0  0
  191.2460  175.3720  147.1430 C   0  0  0  0  0  3  0  0  0  0  0  0
  189.9880  174.9160  147.5410 C   0  0  0  0  0  3  0  0  0  0  0  0
  188.9230  176.2980  145.9190 C   0  0  0  0  0  0  0  0  0  0  0  0
  188.8670  175.3790  146.9260 N   0  0  0  0  0  0  0  0  0  0  0  0
  192.6660  176.7910  145.6530 C   0  0  0  0  0  2  0  0  0  0  0  0
  193.7680  176.0640  146.4000 C   0  0  0  0  0  2  0  0  0  0  0  0
  194.6330  175.3070  145.4100 C   0  0  0  0  0  2  0  0  0  0  0  0
  193.6580  172.2210  144.4680 C   0  0  0  0  0  0  0  0  0  0  0  0
  195.6830  173.0920  144.8790 C   0  0  1  0  0  3  0  0  0  0  0  0
  196.7000  172.3820  145.7500 C   0  0  0  0  0  1  0  0  0  0  0  0
  194.8980  172.1130  144.1430 N   0  0  0  0  0  0  0  0  0  0  0  0
  194.6690  173.8300  145.7630 C   0  0  2  0  0  3  0  0  0  0  0  0
  193.3910  173.2230  145.4310 N   0  0  0  0  0  2  0  0  0  0  0  0
  191.2840  171.5590  144.2490 O   0  0  0  0  0  1  0  0  0  0  0  0
  192.6130  171.3710  143.8920 C   0  0  0  0  0  0  0  0  0  0  0  0
  192.9160  170.4660  143.0710 O   0  0  0  0  0  0  0  0  0  0  0  0
  188.9940  174.7980  142.6170 C   0  0  0  0  0  0  0  0  0  0  0  0
  188.2730  175.5430  143.2340 C   0  0  0  0  0  0  0  0  0  0  0  0
  189.8450  173.9050  141.8750 C   0  0  0  0  0  0  0  0  0  0  0  0
  191.4530  172.1790  140.1680 C   0  0  0  0  0  3  0  0  0  0  0  0
  193.3440  173.7030  141.0150 C   0  0  0  0  0  3  0  0  0  0  0  0
  189.2590  172.7170  141.2290 C   0  0  0  0  0  3  0  0  0  0  0  0
  191.9300  175.2340  142.3560 C   0  0  0  0  0  3  0  0  0  0  0  0
  189.9970  171.9030  140.4610 C   0  0  0  0  0  3  0  0  0  0  0  0
  191.9820  173.2180  141.0490 N   0  0  0  0  0  0  0  0  0  0  0  0
  193.3740  174.9230  141.9460 C   0  0  0  0  0  3  0  0  0  0  0  0
  191.1620  174.1110  141.7740 C   0  0  0  0  0  0  0  0  0  0  0  0
  1  7  2  0  0  0  0
  1  8  1  0  0  0  0
  2  4  2  0  0  0  0
  2  6  1  0  0  0  0
  3 14  1  0  0  0  0
  3  7  1  0  0  0  0
  4  5  1  0  0  0  0
  5  1  1  0  0  0  0
  6  3  2  0  0  0  0
  9  5  1  0  0  0  0
 10 14  2  0  0  0  0
 10 11  1  0  0  0  0
 11 12  2  0  0  0  0
 12 13  1  0  0  0  0
 14 15  1  0  0  0  0
 15 13  2  0  0  0  0
 16 11  1  0  0  0  0
 16 17  1  0  0  0  0
 18 17  1  0  0  0  0
 19 24  1  0  0  0  0
 20 21  1  1  0  0  0
 20 23  1  0  0  0  0
 22 19  2  0  0  0  0
 22 20  1  0  0  0  0
 23 18  1  6  0  0  0
 24 23  1  0  0  0  0
 26 25  1  0  0  0  0
 26 19  1  0  0  0  0
 27 26  2  0  0  0  0
 28 29  3  0  0  0  0
 29  6  1  0  0  0  0
 30 28  1  0  0  0  0
 31 35  2  0  0  0  0
 31 36  1  0  0  0  0
 32 36  1  0  0  0  0
 32 37  2  0  0  0  0
 33 30  2  0  0  0  0
 35 33  1  0  0  0  0
 36 38  1  0  0  0  0
 37 34  1  0  0  0  0
 38 30  1  0  0  0  0
 38 34  2  0  0  0  0
M  END
>  <MODEL>
3

>  <REMARK>
 VINA RESULT:      -7.9      2.177      2.546
  Name = 
  8 active torsions:
  status: ('A' for Active; 'I' for Inactive)
    1  A    between atoms: C_2  and  C_22
    2  A    between atoms: C_3  and  C_5
    3  A    between atoms: C_8  and  C_14
    4  A    between atoms: C_8  and  C_16
    5  A    between atoms: C_9  and  C_26
    6  A    between atoms: C_16  and  C_19
    7  A    between atoms: C_19  and  C_28
    8  A    between atoms: C_24  and  C_31
                            x       y       z     vdW  Elec       q    Type
                         _______ _______ _______ _____ _____    ______ ____

>  <TORSDO>
F 8

$$$$
=
 OpenBabel11042417013D

 38 42  0  0  1  0  0  0  0  0999 V2000
  185.8570  178.5300  145.4170 C   0  0  0  0  0  0  0  0  0  0  0  0
  187.1960  177.7100  142.7830 C   0  0  0  0  0  3  0  0  0  0  0  0
  187.9190  177.0770  145.1130 C   0  0  0  0  0  0  0  0  0  0  0  0
  186.2950  178.6710  142.9650 C   0  0  0  0  0  3  0  0  0  0  0  0
  186.0100  179.2920  144.2150 N   0  0  0  0  0  0  0  0  0  0  0  0
  188.1090  177.1090  143.7680 C   0  0  0  0  0  0  0  0  0  0  0  0
  186.7110  177.5840  145.7970 C   0  0  0  0  0  3  0  0  0  0  0  0
  184.7550  178.8700  146.3610 C   0  0  0  0  0  1  0  0  0  0  0  0
  185.4720  180.5340  144.1710 O   0  0  0  0  0  1  0  0  0  0  0  0
  190.2040  176.9340  146.1350 C   0  0  0  0  0  3  0  0  0  0  0  0
  191.1250  176.2950  146.9690 C   0  0  0  0  0  0  0  0  0  0  0  0
  190.7510  175.1400  147.6580 C   0  0  0  0  0  3  0  0  0  0  0  0
  189.4550  174.6460  147.5050 C   0  0  0  0  0  3  0  0  0  0  0  0
  188.9060  176.4190  146.0110 C   0  0  0  0  0  0  0  0  0  0  0  0
  188.5720  175.2850  146.6920 N   0  0  0  0  0  0  0  0  0  0  0  0
  192.5090  176.8280  147.0990 C   0  0  0  0  0  2  0  0  0  0  0  0
  193.2990  176.5330  145.8390 C   0  0  0  0  0  2  0  0  0  0  0  0
  194.4220  175.5660  146.1620 C   0  0  0  0  0  2  0  0  0  0  0  0
  195.6710  172.5070  145.4930 C   0  0  0  0  0  0  0  0  0  0  0  0
  193.5670  173.2550  145.6960 C   0  0  1  0  0  3  0  0  0  0  0  0
  192.4930  172.9140  144.6820 C   0  0  0  0  0  1  0  0  0  0  0  0
  194.4870  172.1360  145.8320 N   0  0  0  0  0  0  0  0  0  0  0  0
  194.4260  174.4130  145.1720 C   0  0  2  0  0  3  0  0  0  0  0  0
  195.7650  173.8580  145.0820 N   0  0  0  0  0  2  0  0  0  0  0  0
  196.8350  170.5170  146.3930 O   0  0  0  0  0  1  0  0  0  0  0  0
  196.8230  171.6030  145.5250 C   0  0  0  0  0  0  0  0  0  0  0  0
  197.8070  171.8050  144.7670 O   0  0  0  0  0  0  0  0  0  0  0  0
  190.1550  175.8340  142.6670 C   0  0  0  0  0  0  0  0  0  0  0  0
  189.2240  176.4170  143.1650 C   0  0  0  0  0  0  0  0  0  0  0  0
  191.2700  175.1360  142.0820 C   0  0  0  0  0  0  0  0  0  0  0  0
  193.6070  173.6820  141.1320 C   0  0  0  0  0  3  0  0  0  0  0  0
  191.8080  172.0400  140.3070 C   0  0  0  0  0  3  0  0  0  0  0  0
  192.6190  175.7250  142.1700 C   0  0  0  0  0  3  0  0  0  0  0  0
  189.8470  173.2340  141.2420 C   0  0  0  0  0  3  0  0  0  0  0  0
  193.6970  175.0730  141.7120 C   0  0  0  0  0  3  0  0  0  0  0  0
  192.2190  173.3090  140.8650 N   0  0  0  0  0  0  0  0  0  0  0  0
  190.2760  172.0150  140.4170 C   0  0  0  0  0  3  0  0  0  0  0  0
  191.1140  173.9740  141.4400 C   0  0  0  0  0  0  0  0  0  0  0  0
  1  7  2  0  0  0  0
  1  8  1  0  0  0  0
  2  4  2  0  0  0  0
  2  6  1  0  0  0  0
  3  7  1  0  0  0  0
  3 14  1  0  0  0  0
  4  5  1  0  0  0  0
  5  1  1  0  0  0  0
  6  3  2  0  0  0  0
  9  5  1  0  0  0  0
 10 11  1  0  0  0  0
 11 16  1  0  0  0  0
 11 12  2  0  0  0  0
 13 12  1  0  0  0  0
 14 10  2  0  0  0  0
 14 15  1  0  0  0  0
 15 13  2  0  0  0  0
 17 18  1  0  0  0  0
 17 16  1  0  0  0  0
 19 26  1  0  0  0  0
 19 22  2  0  0  0  0
 20 21  1  6  0  0  0
 20 22  1  0  0  0  0
 23 20  1  0  0  0  0
 23 18  1  1  0  0  0
 24 23  1  0  0  0  0
 24 19  1  0  0  0  0
 26 25  1  0  0  0  0
 27 26  2  0  0  0  0
 28 29  3  0  0  0  0
 29  6  1  0  0  0  0
 30 33  2  0  0  0  0
 30 28  1  0  0  0  0
 31 35  2  0  0  0  0
 32 37  2  0  0  0  0
 32 36  1  0  0  0  0
 34 38  2  0  0  0  0
 35 33  1  0  0  0  0
 36 31  1  0  0  0  0
 36 38  1  0  0  0  0
 37 34  1  0  0  0  0
 38 30  1  0  0  0  0
M  END
>  <MODEL>
4

>  <REMARK>
 VINA RESULT:      -7.9      2.013      2.727
  Name = 
  8 active torsions:
  status: ('A' for Active; 'I' for Inactive)
    1  A    between atoms: C_2  and  C_22
    2  A    between atoms: C_3  and  C_5
    3  A    between atoms: C_8  and  C_14
    4  A    between atoms: C_8  and  C_16
    5  A    between atoms: C_9  and  C_26
    6  A    between atoms: C_16  and  C_19
    7  A    between atoms: C_19  and  C_28
    8  A    between atoms: C_24  and  C_31
                            x       y       z     vdW  Elec       q    Type
                         _______ _______ _______ _____ _____    ______ ____

>  <TORSDO>
F 8

$$$$
=
 OpenBabel11042417013D

 38 42  0  0  1  0  0  0  0  0999 V2000
  195.1550  170.4550  145.8060 C   0  0  0  0  0  0  0  0  0  0  0  0
  193.0380  170.7060  143.6010 C   0  0  0  0  0  3  0  0  0  0  0  0
  193.7530  172.4940  145.2280 C   0  0  0  0  0  0  0  0  0  0  0  0
  193.5750  169.5890  144.0810 C   0  0  0  0  0  3  0  0  0  0  0  0
  194.2200  169.4740  145.3450 N   0  0  0  0  0  0  0  0  0  0  0  0
  192.9420  172.0280  144.2430 C   0  0  0  0  0  0  0  0  0  0  0  0
  194.9210  171.7640  145.7620 C   0  0  0  0  0  3  0  0  0  0  0  0
  196.4110  170.0100  146.4730 C   0  0  0  0  0  1  0  0  0  0  0  0
  194.2650  168.2380  145.8980 O   0  0  0  0  0  1  0  0  0  0  0  0
  192.3720  174.2150  146.4190 C   0  0  0  0  0  3  0  0  0  0  0  0
  192.2100  175.5070  146.9240 C   0  0  0  0  0  0  0  0  0  0  0  0
  193.2370  176.4410  146.7790 C   0  0  0  0  0  3  0  0  0  0  0  0
  194.4150  176.0630  146.1340 C   0  0  0  0  0  3  0  0  0  0  0  0
  193.5720  173.8620  145.7870 C   0  0  0  0  0  0  0  0  0  0  0  0
  194.5550  174.7980  145.6540 N   0  0  0  0  0  0  0  0  0  0  0  0
  190.9350  175.8950  147.5870 C   0  0  0  0  0  2  0  0  0  0  0  0
  190.2310  176.9650  146.7750 C   0  0  0  0  0  2  0  0  0  0  0  0
  188.9230  176.4150  146.2400 C   0  0  0  0  0  2  0  0  0  0  0  0
  186.2410  177.7690  144.7120 C   0  0  0  0  0  0  0  0  0  0  0  0
  186.4930  176.8030  146.7200 C   0  0  1  0  0  3  0  0  0  0  0  0
  185.9470  177.4330  147.9870 C   0  0  0  0  0  1  0  0  0  0  0  0
  185.6050  177.0960  145.6050 N   0  0  0  0  0  0  0  0  0  0  0  0
  187.8270  177.4620  146.3470 C   0  0  2  0  0  3  0  0  0  0  0  0
  187.5890  178.0480  145.0400 N   0  0  0  0  0  2  0  0  0  0  0  0
  184.3270  177.8040  143.1430 O   0  0  0  0  0  1  0  0  0  0  0  0
  185.6160  178.2130  143.4640 C   0  0  0  0  0  0  0  0  0  0  0  0
  186.2440  178.9680  142.6760 O   0  0  0  0  0  0  0  0  0  0  0  0
  191.1110  173.5910  143.1360 C   0  0  0  0  0  0  0  0  0  0  0  0
  191.9460  172.8830  143.6420 C   0  0  0  0  0  0  0  0  0  0  0  0
  190.1140  174.4290  142.5240 C   0  0  0  0  0  0  0  0  0  0  0  0
  187.9330  176.0340  141.4510 C   0  0  0  0  0  3  0  0  0  0  0  0
  189.4000  177.9610  142.3180 C   0  0  0  0  0  3  0  0  0  0  0  0
  189.0220  173.8090  141.7510 C   0  0  0  0  0  3  0  0  0  0  0  0
  191.1760  176.5640  143.3360 C   0  0  0  0  0  3  0  0  0  0  0  0
  188.0270  174.5430  141.2330 C   0  0  0  0  0  3  0  0  0  0  0  0
  189.1780  176.5680  142.0010 N   0  0  0  0  0  0  0  0  0  0  0  0
  190.7410  178.0090  143.0640 C   0  0  0  0  0  3  0  0  0  0  0  0
  190.1610  175.7620  142.6170 C   0  0  0  0  0  0  0  0  0  0  0  0
  1  8  1  0  0  0  0
  2  4  2  0  0  0  0
  2  6  1  0  0  0  0
  3  7  1  0  0  0  0
  3 14  1  0  0  0  0
  4  5  1  0  0  0  0
  5  1  1  0  0  0  0
  5  9  1  0  0  0  0
  6  3  2  0  0  0  0
  7  1  2  0  0  0  0
 10 11  1  0  0  0  0
 11 16  1  0  0  0  0
 12 11  2  0  0  0  0
 13 12  1  0  0  0  0
 14 10  2  0  0  0  0
 15 14  1  0  0  0  0
 15 13  2  0  0  0  0
 17 16  1  0  0  0  0
 18 17  1  0  0  0  0
 19 24  1  0  0  0  0
 19 22  2  0  0  0  0
 20 21  1  1  0  0  0
 22 20  1  0  0  0  0
 23 18  1  6  0  0  0
 23 20  1  0  0  0  0
 24 23  1  0  0  0  0
 25 26  1  0  0  0  0
 26 19  1  0  0  0  0
 27 26  2  0  0  0  0
 28 29  3  0  0  0  0
 29  6  1  0  0  0  0
 30 38  1  0  0  0  0
 30 28  1  0  0  0  0
 31 36  1  0  0  0  0
 32 37  2  0  0  0  0
 33 30  2  0  0  0  0
 35 31  2  0  0  0  0
 35 33  1  0  0  0  0
 36 32  1  0  0  0  0
 36 38  1  0  0  0  0
 37 34  1  0  0  0  0
 38 34  2  0  0  0  0
M  END
>  <MODEL>
5

>  <REMARK>
 VINA RESULT:      -7.8      3.018      8.274
  Name = 
  8 active torsions:
  status: ('A' for Active; 'I' for Inactive)
    1  A    between atoms: C_2  and  C_22
    2  A    between atoms: C_3  and  C_5
    3  A    between atoms: C_8  and  C_14
    4  A    between atoms: C_8  and  C_16
    5  A    between atoms: C_9  and  C_26
    6  A    between atoms: C_16  and  C_19
    7  A    between atoms: C_19  and  C_28
    8  A    between atoms: C_24  and  C_31
                            x       y       z     vdW  Elec       q    Type
                         _______ _______ _______ _____ _____    ______ ____

>  <TORSDO>
F 8

$$$$
=
 OpenBabel11042417013D

 38 42  0  0  1  0  0  0  0  0999 V2000
  186.0940  178.5590  145.5880 C   0  0  0  0  0  0  0  0  0  0  0  0
  185.7270  176.7180  143.1630 C   0  0  0  0  0  3  0  0  0  0  0  0
  187.8750  177.1970  144.3920 C   0  0  0  0  0  0  0  0  0  0  0  0
  184.8730  177.6270  143.6220 C   0  0  0  0  0  3  0  0  0  0  0  0
  185.2250  178.7220  144.4630 N   0  0  0  0  0  0  0  0  0  0  0  0
  187.1840  176.6430  143.3620 C   0  0  0  0  0  0  0  0  0  0  0  0
  187.2520  177.9070  145.5290 C   0  0  0  0  0  3  0  0  0  0  0  0
  185.7600  179.2370  146.8720 C   0  0  0  0  0  1  0  0  0  0  0  0
  184.4030  179.7980  144.4390 O   0  0  0  0  0  1  0  0  0  0  0  0
  189.8980  176.1210  145.4120 C   0  0  0  0  0  3  0  0  0  0  0  0
  191.2850  175.9920  145.5140 C   0  0  0  0  0  0  0  0  0  0  0  0
  192.1150  176.7870  144.7220 C   0  0  0  0  0  3  0  0  0  0  0  0
  191.5400  177.6960  143.8330 C   0  0  0  0  0  3  0  0  0  0  0  0
  189.3510  177.0350  144.5010 C   0  0  0  0  0  0  0  0  0  0  0  0
  190.1870  177.8030  143.7450 N   0  0  0  0  0  0  0  0  0  0  0  0
  191.8750  175.0330  146.4860 C   0  0  0  0  0  2  0  0  0  0  0  0
  193.3250  174.7610  146.1350 C   0  0  0  0  0  2  0  0  0  0  0  0
  193.4280  173.4340  145.4090 C   0  0  0  0  0  2  0  0  0  0  0  0
  195.8290  175.1790  143.8100 C   0  0  0  0  0  0  0  0  0  0  0  0
  195.9040  173.7970  145.5740 C   0  0  1  0  0  3  0  0  0  0  0  0
  196.9380  172.6940  145.6850 C   0  0  0  0  0  1  0  0  0  0  0  0
  196.4830  174.9450  144.8930 N   0  0  0  0  0  0  0  0  0  0  0  0
  194.7530  173.3390  144.6700 C   0  0  2  0  0  3  0  0  0  0  0  0
  194.7600  174.2840  143.5670 N   0  0  0  0  0  2  0  0  0  0  0  0
  197.1870  177.1650  143.2320 O   0  0  0  0  0  1  0  0  0  0  0  0
  196.1690  176.2780  142.9030 C   0  0  0  0  0  0  0  0  0  0  0  0
  195.5410  176.4230  141.8220 O   0  0  0  0  0  0  0  0  0  0  0  0
  188.4090  175.0890  141.5990 C   0  0  0  0  0  0  0  0  0  0  0  0
  187.8490  175.7980  142.3990 C   0  0  0  0  0  0  0  0  0  0  0  0
  189.0860  174.2430  140.6520 C   0  0  0  0  0  0  0  0  0  0  0  0
  190.5230  172.7390  138.6140 C   0  0  0  0  0  3  0  0  0  0  0  0
  192.0010  172.1160  140.6250 C   0  0  0  0  0  3  0  0  0  0  0  0
  188.5610  174.1310  139.2780 C   0  0  0  0  0  3  0  0  0  0  0  0
  190.8340  173.5090  142.3100 C   0  0  0  0  0  3  0  0  0  0  0  0
  189.2040  173.4210  138.3410 C   0  0  0  0  0  3  0  0  0  0  0  0
  190.8130  172.7030  140.0470 N   0  0  0  0  0  0  0  0  0  0  0  0
  191.9770  172.5080  142.1100 C   0  0  0  0  0  3  0  0  0  0  0  0
  190.1680  173.5350  140.9880 C   0  0  0  0  0  0  0  0  0  0  0  0
  1  8  1  0  0  0  0
  2  6  1  0  0  0  0
  2  4  2  0  0  0  0
  3 14  1  0  0  0  0
  3  7  1  0  0  0  0
  4  5  1  0  0  0  0
  5  1  1  0  0  0  0
  6  3  2  0  0  0  0
  7  1  2  0  0  0  0
  9  5  1  0  0  0  0
 10 11  1  0  0  0  0
 11 16  1  0  0  0  0
 12 11  2  0  0  0  0
 13 12  1  0  0  0  0
 14 10  2  0  0  0  0
 15 13  2  0  0  0  0
 15 14  1  0  0  0  0
 17 16  1  0  0  0  0
 18 17  1  0  0  0  0
 19 22  2  0  0  0  0
 20 21  1  6  0  0  0
 22 20  1  0  0  0  0
 23 18  1  1  0  0  0
 23 20  1  0  0  0  0
 24 19  1  0  0  0  0
 24 23  1  0  0  0  0
 26 25  1  0  0  0  0
 26 19  1  0  0  0  0
 27 26  2  0  0  0  0
 28 29  3  0  0  0  0
 29  6  1  0  0  0  0
 30 38  1  0  0  0  0
 30 28  1  0  0  0  0
 31 36  1  0  0  0  0
 32 37  2  0  0  0  0
 33 30  2  0  0  0  0
 35 31  2  0  0  0  0
 35 33  1  0  0  0  0
 36 32  1  0  0  0  0
 36 38  1  0  0  0  0
 37 34  1  0  0  0  0
 38 34  2  0  0  0  0
M  END
>  <MODEL>
6

>  <REMARK>
 VINA RESULT:      -7.8      1.449      1.944
  Name = 
  8 active torsions:
  status: ('A' for Active; 'I' for Inactive)
    1  A    between atoms: C_2  and  C_22
    2  A    between atoms: C_3  and  C_5
    3  A    between atoms: C_8  and  C_14
    4  A    between atoms: C_8  and  C_16
    5  A    between atoms: C_9  and  C_26
    6  A    between atoms: C_16  and  C_19
    7  A    between atoms: C_19  and  C_28
    8  A    between atoms: C_24  and  C_31
                            x       y       z     vdW  Elec       q    Type
                         _______ _______ _______ _____ _____    ______ ____

>  <TORSDO>
F 8

$$$$
=
 OpenBabel11042417013D

 38 42  0  0  1  0  0  0  0  0999 V2000
  185.7440  178.4380  145.5770 C   0  0  0  0  0  0  0  0  0  0  0  0
  186.6380  177.0640  142.9850 C   0  0  0  0  0  3  0  0  0  0  0  0
  187.6720  176.8120  145.2700 C   0  0  0  0  0  0  0  0  0  0  0  0
  185.8190  178.1030  143.1050 C   0  0  0  0  0  3  0  0  0  0  0  0
  185.7500  178.9580  144.2430 N   0  0  0  0  0  0  0  0  0  0  0  0
  187.6610  176.5870  143.9300 C   0  0  0  0  0  0  0  0  0  0  0  0
  186.6020  177.5180  146.0060 C   0  0  0  0  0  3  0  0  0  0  0  0
  184.8110  179.0200  146.5820 C   0  0  0  0  0  1  0  0  0  0  0  0
  185.2670  180.2070  144.0400 O   0  0  0  0  0  1  0  0  0  0  0  0
  190.0210  176.8510  146.1450 C   0  0  0  0  0  3  0  0  0  0  0  0
  191.0290  176.3100  146.9460 C   0  0  0  0  0  0  0  0  0  0  0  0
  190.7700  175.1720  147.7120 C   0  0  0  0  0  3  0  0  0  0  0  0
  189.4990  174.5980  147.6690 C   0  0  0  0  0  3  0  0  0  0  0  0
  188.7510  176.2570  146.1320 C   0  0  0  0  0  0  0  0  0  0  0  0
  188.5300  175.1430  146.8860 N   0  0  0  0  0  0  0  0  0  0  0  0
  192.3840  176.9260  146.9580 C   0  0  0  0  0  2  0  0  0  0  0  0
  193.4200  175.9130  146.5110 C   0  0  0  0  0  2  0  0  0  0  0  0
  193.9230  176.2820  145.1290 C   0  0  0  0  0  2  0  0  0  0  0  0
  196.2500  173.8640  144.8090 C   0  0  0  0  0  0  0  0  0  0  0  0
  195.7830  175.6670  143.5620 C   0  0  1  0  0  3  0  0  0  0  0  0
  196.8650  176.6150  143.0850 C   0  0  0  0  0  1  0  0  0  0  0  0
  196.3030  174.3090  143.6030 N   0  0  0  0  0  0  0  0  0  0  0  0
  195.4110  175.9940  145.0140 C   0  0  2  0  0  3  0  0  0  0  0  0
  195.7270  174.7820  145.7500 N   0  0  0  0  0  2  0  0  0  0  0  0
  195.8620  171.6700  145.8880 O   0  0  0  0  0  1  0  0  0  0  0  0
  196.7000  172.5180  145.1740 C   0  0  0  0  0  0  0  0  0  0  0  0
  197.8490  172.1240  144.8430 O   0  0  0  0  0  0  0  0  0  0  0  0
  189.4550  174.9910  142.8100 C   0  0  0  0  0  0  0  0  0  0  0  0
  188.6410  175.7200  143.3210 C   0  0  0  0  0  0  0  0  0  0  0  0
  190.4190  174.1120  142.2020 C   0  0  0  0  0  0  0  0  0  0  0  0
  192.4680  172.5350  140.8610 C   0  0  0  0  0  3  0  0  0  0  0  0
  193.2440  172.1420  143.2820 C   0  0  0  0  0  3  0  0  0  0  0  0
  190.3620  173.8690  140.7480 C   0  0  0  0  0  3  0  0  0  0  0  0
  191.5670  173.5960  144.3840 C   0  0  0  0  0  3  0  0  0  0  0  0
  191.2870  173.1240  140.1270 C   0  0  0  0  0  3  0  0  0  0  0  0
  192.2870  172.6220  142.3090 N   0  0  0  0  0  0  0  0  0  0  0  0
  192.7390  172.6440  144.6430 C   0  0  0  0  0  3  0  0  0  0  0  0
  191.3560  173.4880  142.9230 C   0  0  0  0  0  0  0  0  0  0  0  0
  1  7  2  0  0  0  0
  1  8  1  0  0  0  0
  2  4  2  0  0  0  0
  2  6  1  0  0  0  0
  3  7  1  0  0  0  0
  3 14  1  0  0  0  0
  4  5  1  0  0  0  0
  5  1  1  0  0  0  0
  6  3  2  0  0  0  0
  9  5  1  0  0  0  0
 10 11  1  0  0  0  0
 11 16  1  0  0  0  0
 11 12  2  0  0  0  0
 13 12  1  0  0  0  0
 14 10  2  0  0  0  0
 14 15  1  0  0  0  0
 15 13  2  0  0  0  0
 17 16  1  0  0  0  0
 18 17  1  0  0  0  0
 19 26  1  0  0  0  0
 19 24  1  0  0  0  0
 20 21  1  1  0  0  0
 20 22  1  0  0  0  0
 20 23  1  0  0  0  0
 22 19  2  0  0  0  0
 23 18  1  6  0  0  0
 23 24  1  0  0  0  0
 26 25  1  0  0  0  0
 27 26  2  0  0  0  0
 28 29  3  0  0  0  0
 29  6  1  0  0  0  0
 30 28  1  0  0  0  0
 30 38  1  0  0  0  0
 31 36  1  0  0  0  0
 32 37  2  0  0  0  0
 33 30  2  0  0  0  0
 34 37  1  0  0  0  0
 35 33  1  0  0  0  0
 35 31  2  0  0  0  0
 36 38  1  0  0  0  0
 36 32  1  0  0  0  0
 38 34  2  0  0  0  0
M  END
>  <MODEL>
7

>  <REMARK>
 VINA RESULT:      -7.8      1.482      1.938
  Name = 
  8 active torsions:
  status: ('A' for Active; 'I' for Inactive)
    1  A    between atoms: C_2  and  C_22
    2  A    between atoms: C_3  and  C_5
    3  A    between atoms: C_8  and  C_14
    4  A    between atoms: C_8  and  C_16
    5  A    between atoms: C_9  and  C_26
    6  A    between atoms: C_16  and  C_19
    7  A    between atoms: C_19  and  C_28
    8  A    between atoms: C_24  and  C_31
                            x       y       z     vdW  Elec       q    Type
                         _______ _______ _______ _____ _____    ______ ____

>  <TORSDO>
F 8

$$$$
=
 OpenBabel11042417013D

 38 42  0  0  1  0  0  0  0  0999 V2000
  193.8490  174.2530  145.3620 C   0  0  0  0  0  0  0  0  0  0  0  0
  191.8740  176.2570  146.5810 C   0  0  0  0  0  3  0  0  0  0  0  0
  191.3560  174.4470  144.9060 C   0  0  0  0  0  0  0  0  0  0  0  0
  193.2020  176.3170  146.6050 C   0  0  0  0  0  3  0  0  0  0  0  0
  194.0630  175.6260  145.7050 N   0  0  0  0  0  0  0  0  0  0  0  0
  191.0040  175.5340  145.6390 C   0  0  0  0  0  0  0  0  0  0  0  0
  192.6660  173.7670  144.9980 C   0  0  0  0  0  3  0  0  0  0  0  0
  195.0150  173.3270  145.2940 C   0  0  0  0  0  1  0  0  0  0  0  0
  195.3010  176.1450  145.5240 O   0  0  0  0  0  1  0  0  0  0  0  0
  189.9590  174.4220  142.8240 C   0  0  0  0  0  3  0  0  0  0  0  0
  189.0300  173.7960  141.9910 C   0  0  0  0  0  0  0  0  0  0  0  0
  188.5140  172.5480  142.3440 C   0  0  0  0  0  3  0  0  0  0  0  0
  188.9440  171.9430  143.5250 C   0  0  0  0  0  3  0  0  0  0  0  0
  190.3800  173.7840  143.9990 C   0  0  0  0  0  0  0  0  0  0  0  0
  189.8530  172.5670  144.3210 N   0  0  0  0  0  0  0  0  0  0  0  0
  188.5680  174.4710  140.7470 C   0  0  0  0  0  2  0  0  0  0  0  0
  188.5130  173.4750  139.6050 C   0  0  0  0  0  2  0  0  0  0  0  0
  189.6110  173.7910  138.6070 C   0  0  0  0  0  2  0  0  0  0  0  0
  191.6830  171.9440  140.5190 C   0  0  0  0  0  0  0  0  0  0  0  0
  190.0420  171.3710  139.1040 C   0  0  1  0  0  3  0  0  0  0  0  0
  190.2260  170.2890  138.0580 C   0  0  0  0  0  1  0  0  0  0  0  0
  190.8020  171.0330  140.2980 N   0  0  0  0  0  0  0  0  0  0  0  0
  190.6530  172.6860  138.6030 C   0  0  2  0  0  3  0  0  0  0  0  0
  191.6900  172.9950  139.5720 N   0  0  0  0  0  2  0  0  0  0  0  0
  193.6710  172.7790  141.7340 O   0  0  0  0  0  0  0  0  0  0  0  0
  192.6060  171.8900  141.6560 C   0  0  0  0  0  0  0  0  0  0  0  0
  192.4370  171.0390  142.5680 O   0  0  0  0  0  1  0  0  0  0  0  0
  188.5080  176.4240  145.6260 C   0  0  0  0  0  0  0  0  0  0  0  0
  189.6430  176.0160  145.6350 C   0  0  0  0  0  0  0  0  0  0  0  0
  187.1570  176.9210  145.6120 C   0  0  0  0  0  0  0  0  0  0  0  0
  184.5120  178.1380  145.6800 C   0  0  0  0  0  3  0  0  0  0  0  0
  184.7400  177.9240  143.1270 C   0  0  0  0  0  3  0  0  0  0  0  0
  186.4520  177.1370  146.8890 C   0  0  0  0  0  3  0  0  0  0  0  0
  187.0430  177.0090  143.0970 C   0  0  0  0  0  3  0  0  0  0  0  0
  185.2250  177.6740  146.9280 C   0  0  0  0  0  3  0  0  0  0  0  0
  185.1820  177.6500  144.4760 N   0  0  0  0  0  0  0  0  0  0  0  0
  185.8580  177.4070  142.2100 C   0  0  0  0  0  3  0  0  0  0  0  0
  186.5110  177.1720  144.4690 C   0  0  0  0  0  0  0  0  0  0  0  0
  1  5  1  0  0  0  0
  2  4  2  0  0  0  0
  3  7  1  0  0  0  0
  3  6  2  0  0  0  0
  5  4  1  0  0  0  0
  6  2  1  0  0  0  0
  7  1  2  0  0  0  0
  8  1  1  0  0  0  0
  9  5  1  0  0  0  0
 10 14  1  0  0  0  0
 11 12  1  0  0  0  0
 11 10  2  0  0  0  0
 12 13  2  0  0  0  0
 13 15  1  0  0  0  0
 14 15  2  0  0  0  0
 14  3  1  0  0  0  0
 16 11  1  0  0  0  0
 17 16  1  0  0  0  0
 18 17  1  0  0  0  0
 19 26  1  0  0  0  0
 20 21  1  6  0  0  0
 20 22  1  0  0  0  0
 22 19  2  0  0  0  0
 23 18  1  1  0  0  0
 23 20  1  0  0  0  0
 23 24  1  0  0  0  0
 24 19  1  0  0  0  0
 26 25  2  0  0  0  0
 26 27  1  0  0  0  0
 28 29  3  0  0  0  0
 29  6  1  0  0  0  0
 30 28  1  0  0  0  0
 30 33  2  0  0  0  0
 31 35  2  0  0  0  0
 32 36  1  0  0  0  0
 33 35  1  0  0  0  0
 34 38  2  0  0  0  0
 36 31  1  0  0  0  0
 37 34  1  0  0  0  0
 37 32  2  0  0  0  0
 38 36  1  0  0  0  0
 38 30  1  0  0  0  0
M  END
>  <MODEL>
8

>  <REMARK>
 VINA RESULT:      -7.7      2.745      7.580
  Name = 
  8 active torsions:
  status: ('A' for Active; 'I' for Inactive)
    1  A    between atoms: C_2  and  C_22
    2  A    between atoms: C_3  and  C_5
    3  A    between atoms: C_8  and  C_14
    4  A    between atoms: C_8  and  C_16
    5  A    between atoms: C_9  and  C_26
    6  A    between atoms: C_16  and  C_19
    7  A    between atoms: C_19  and  C_28
    8  A    between atoms: C_24  and  C_31
                            x       y       z     vdW  Elec       q    Type
                         _______ _______ _______ _____ _____    ______ ____

>  <TORSDO>
F 8

$$$$
=
 OpenBabel11042417013D

 38 42  0  0  1  0  0  0  0  0999 V2000
  185.3190  178.0740  145.7300 C   0  0  0  0  0  0  0  0  0  0  0  0
  186.0000  176.7810  143.0340 C   0  0  0  0  0  3  0  0  0  0  0  0
  187.3350  176.6330  145.1670 C   0  0  0  0  0  0  0  0  0  0  0  0
  185.1100  177.7400  143.2670 C   0  0  0  0  0  3  0  0  0  0  0  0
  185.1080  178.5880  144.4110 N   0  0  0  0  0  0  0  0  0  0  0  0
  187.1750  176.4040  143.8380 C   0  0  0  0  0  0  0  0  0  0  0  0
  186.3070  177.2390  146.0390 C   0  0  0  0  0  3  0  0  0  0  0  0
  184.4710  178.5690  146.8510 C   0  0  0  0  0  1  0  0  0  0  0  0
  184.4880  179.7860  144.2830 O   0  0  0  0  0  1  0  0  0  0  0  0
  189.8170  176.6920  145.5170 C   0  0  0  0  0  3  0  0  0  0  0  0
  190.9620  176.2490  146.1840 C   0  0  0  0  0  0  0  0  0  0  0  0
  190.8490  175.2920  147.1930 C   0  0  0  0  0  3  0  0  0  0  0  0
  189.5870  174.7970  147.5240 C   0  0  0  0  0  3  0  0  0  0  0  0
  188.5620  176.1840  145.8800 C   0  0  0  0  0  0  0  0  0  0  0  0
  188.4840  175.2450  146.8660 N   0  0  0  0  0  0  0  0  0  0  0  0
  192.3000  176.7740  145.7980 C   0  0  0  0  0  2  0  0  0  0  0  0
  193.0290  175.7580  144.9400 C   0  0  0  0  0  2  0  0  0  0  0  0
  194.1580  175.1390  145.7410 C   0  0  0  0  0  2  0  0  0  0  0  0
  196.4530  175.2460  143.2740 C   0  0  0  0  0  0  0  0  0  0  0  0
  196.5050  174.3550  145.3300 C   0  0  1  0  0  3  0  0  0  0  0  0
  197.0070  172.9470  145.5820 C   0  0  0  0  0  1  0  0  0  0  0  0
  197.2540  174.9550  144.2370 N   0  0  0  0  0  0  0  0  0  0  0  0
  195.0530  174.3080  144.8370 C   0  0  2  0  0  3  0  0  0  0  0  0
  195.0990  174.9100  143.5170 N   0  0  0  0  0  2  0  0  0  0  0  0
  196.2260  176.9600  141.5020 O   0  0  0  0  0  1  0  0  0  0  0  0
  196.9070  175.8690  142.0280 C   0  0  0  0  0  0  0  0  0  0  0  0
  197.9180  175.4180  141.4280 O   0  0  0  0  0  0  0  0  0  0  0  0
  188.9560  174.9880  142.4790 C   0  0  0  0  0  0  0  0  0  0  0  0
  188.1460  175.6300  143.1010 C   0  0  0  0  0  0  0  0  0  0  0  0
  189.9170  174.2250  141.7280 C   0  0  0  0  0  0  0  0  0  0  0  0
  191.8120  172.4880  140.3590 C   0  0  0  0  0  3  0  0  0  0  0  0
  190.1490  172.7960  138.4220 C   0  0  0  0  0  3  0  0  0  0  0  0
  191.1920  173.8420  142.3620 C   0  0  0  0  0  3  0  0  0  0  0  0
  188.4900  174.1650  139.6530 C   0  0  0  0  0  3  0  0  0  0  0  0
  192.0810  173.0630  141.7290 C   0  0  0  0  0  3  0  0  0  0  0  0
  190.6560  173.1280  139.7350 N   0  0  0  0  0  0  0  0  0  0  0  0
  188.8180  173.5510  138.2880 C   0  0  0  0  0  3  0  0  0  0  0  0
  189.6960  173.8690  140.4580 C   0  0  0  0  0  0  0  0  0  0  0  0
  1  7  2  0  0  0  0
  1  8  1  0  0  0  0
  2  4  2  0  0  0  0
  2  6  1  0  0  0  0
  3 14  1  0  0  0  0
  3  7  1  0  0  0  0
  4  5  1  0  0  0  0
  5  1  1  0  0  0  0
  6  3  2  0  0  0  0
  9  5  1  0  0  0  0
 10 14  2  0  0  0  0
 10 11  1  0  0  0  0
 11 12  2  0  0  0  0
 12 13  1  0  0  0  0
 14 15  1  0  0  0  0
 15 13  2  0  0  0  0
 16 11  1  0  0  0  0
 17 18  1  0  0  0  0
 17 16  1  0  0  0  0
 19 24  1  0  0  0  0
 19 22  2  0  0  0  0
 20 21  1  6  0  0  0
 22 20  1  0  0  0  0
 23 20  1  0  0  0  0
 23 18  1  1  0  0  0
 24 23  1  0  0  0  0
 25 26  1  0  0  0  0
 26 19  1  0  0  0  0
 27 26  2  0  0  0  0
 28 29  3  0  0  0  0
 29  6  1  0  0  0  0
 30 33  2  0  0  0  0
 30 28  1  0  0  0  0
 31 35  2  0  0  0  0
 32 36  1  0  0  0  0
 34 38  2  0  0  0  0
 35 33  1  0  0  0  0
 36 31  1  0  0  0  0
 36 38  1  0  0  0  0
 37 32  2  0  0  0  0
 37 34  1  0  0  0  0
 38 30  1  0  0  0  0
M  END
>  <MODEL>
9

>  <REMARK>
 VINA RESULT:      -7.7      0.855      1.883
  Name = 
  8 active torsions:
  status: ('A' for Active; 'I' for Inactive)
    1  A    between atoms: C_2  and  C_22
    2  A    between atoms: C_3  and  C_5
    3  A    between atoms: C_8  and  C_14
    4  A    between atoms: C_8  and  C_16
    5  A    between atoms: C_9  and  C_26
    6  A    between atoms: C_16  and  C_19
    7  A    between atoms: C_19  and  C_28
    8  A    between atoms: C_24  and  C_31
                            x       y       z     vdW  Elec       q    Type
                         _______ _______ _______ _____ _____    ______ ____

>  <TORSDO>
F 8

$$$$
