=
 OpenBabel11042414223D

 27 29  0  0  0  0  0  0  0  0999 V2000
  190.7790  174.5390  144.3650 C   0  0  0  0  0  0  0  0  0  0  0  0
  193.1060  174.2370  145.1560 C   0  0  0  0  0  0  0  0  0  0  0  0
  195.2080  174.8750  146.0110 N   0  0  0  0  0  0  0  0  0  0  0  0
  192.6690  175.5430  145.2620 C   0  0  0  0  0  0  0  0  0  0  0  0
  194.7750  176.1660  146.1140 C   0  0  0  0  0  3  0  0  0  0  0  0
  191.8960  173.2700  144.5220 S   0  0  0  0  0  0  0  0  0  0  0  0
  194.3940  173.8920  145.5340 C   0  0  0  0  0  3  0  0  0  0  0  0
  191.3450  175.7430  144.8210 C   0  0  0  0  0  0  0  0  0  0  0  0
  193.5070  176.5020  145.7360 N   0  0  0  0  0  0  0  0  0  0  0  0
  189.7500  175.1170  141.6670 O   0  0  0  0  0  0  0  0  0  0  0  0
  189.4350  174.4090  143.8830 N   0  0  0  0  0  2  0  0  0  0  0  0
  188.9670  174.7030  142.5630 C   0  0  0  0  0  0  0  0  0  0  0  0
  187.5250  174.5060  142.2360 C   0  0  0  0  0  2  0  0  0  0  0  0
  186.7350  175.6290  142.7190 N   0  0  0  0  0  0  0  0  0  0  0  0
  186.6570  176.7290  142.0410 C   0  0  0  0  0  3  0  0  0  0  0  0
  185.8610  177.8570  142.5280 C   0  0  0  0  0  0  0  0  0  0  0  0
  186.3910  178.9850  142.7090 O   0  0  0  0  0  0  0  0  0  0  0  0
  184.5100  177.6800  142.7930 O   0  0  0  0  0  1  0  0  0  0  0  0
  190.8040  178.1120  143.5770 S   0  0  0  0  0  0  0  0  0  0  0  0
  190.6350  177.0520  144.8140 C   0  0  0  0  0  0  0  0  0  0  0  0
  189.7680  177.4610  145.9590 C   0  0  0  0  0  2  0  0  0  0  0  0
  188.3050  177.3980  145.5530 C   0  0  0  0  0  2  0  0  0  0  0  0
  187.5970  176.3020  146.3280 C   0  0  0  0  0  2  0  0  0  0  0  0
  186.4370  176.8470  147.0120 N   0  0  0  0  0  2  0  0  0  0  0  0
  185.4220  179.0270  147.2890 C   0  0  0  0  0  2  0  0  0  0  0  0
  184.5660  178.2190  146.3380 C   0  0  0  0  0  2  0  0  0  0  0  0
  186.0740  178.0660  146.3150 C   0  0  0  0  0  3  0  0  0  0  0  0
  1  6  1  0  0  0  0
  1  8  2  0  0  0  0
  2  4  2  0  0  0  0
  2  7  1  0  0  0  0
  3  5  1  0  0  0  0
  4  9  1  0  0  0  0
  6  2  1  0  0  0  0
  7  3  2  0  0  0  0
  8  4  1  0  0  0  0
  9  5  2  0  0  0  0
 10 12  2  0  0  0  0
 11  1  1  0  0  0  0
 12 11  1  0  0  0  0
 13 12  1  0  0  0  0
 13 14  1  0  0  0  0
 15 16  1  0  0  0  0
 15 14  2  0  0  0  0
 16 17  2  0  0  0  0
 16 18  1  0  0  0  0
 19 20  2  0  0  0  0
 20  8  1  0  0  0  0
 20 21  1  0  0  0  0
 22 21  1  0  0  0  0
 22 23  1  0  0  0  0
 23 24  1  0  0  0  0
 26 25  1  0  0  0  0
 27 26  1  0  0  0  0
 27 24  1  0  0  0  0
 27 25  1  0  0  0  0
M  END
>  <MODEL>
1

>  <REMARK>
 VINA RESULT:      -5.7      0.000      0.000
  Name = 
  10 active torsions:
  status: ('A' for Active; 'I' for Inactive)
    1  A    between atoms: C_1  and  N_17
    2  A    between atoms: C_2  and  C_11
    3  A    between atoms: C_5  and  C_13
    4  A    between atoms: C_5  and  C_16
    5  A    between atoms: N_9  and  C_10
    6  A    between atoms: C_10  and  C_23
    7  A    between atoms: C_13  and  C_19
    8  A    between atoms: C_16  and  N_25
    9  A    between atoms: C_18  and  N_25
   10  A    between atoms: C_19  and  C_26
                            x       y       z     vdW  Elec       q    Type
                         _______ _______ _______ _____ _____    ______ ____

>  <TORSDO>
F 10

$$$$
=
 OpenBabel11042414223D

 27 29  0  0  0  0  0  0  0  0999 V2000
  187.5900  176.5070  146.0940 C   0  0  0  0  0  0  0  0  0  0  0  0
  185.4470  177.7440  146.0190 C   0  0  0  0  0  0  0  0  0  0  0  0
  183.6470  178.9090  145.0400 N   0  0  0  0  0  0  0  0  0  0  0  0
  185.9920  177.5380  144.7660 C   0  0  0  0  0  0  0  0  0  0  0  0
  184.1880  178.7060  143.8020 C   0  0  0  0  0  3  0  0  0  0  0  0
  186.4290  177.0720  147.1960 S   0  0  0  0  0  0  0  0  0  0  0  0
  184.2570  178.4400  146.1640 C   0  0  0  0  0  3  0  0  0  0  0  0
  187.2120  176.8320  144.7800 C   0  0  0  0  0  0  0  0  0  0  0  0
  185.3620  178.0240  143.6640 N   0  0  0  0  0  0  0  0  0  0  0  0
  190.0530  177.4850  147.3790 O   0  0  0  0  0  0  0  0  0  0  0  0
  188.7670  175.7620  146.4360 N   0  0  0  0  0  2  0  0  0  0  0  0
  189.9510  176.2720  147.0580 C   0  0  0  0  0  0  0  0  0  0  0  0
  191.0850  175.3450  147.3430 C   0  0  0  0  0  2  0  0  0  0  0  0
  192.3550  175.9840  147.0300 N   0  0  0  0  0  0  0  0  0  0  0  0
  192.8110  176.0020  145.8190 C   0  0  0  0  0  3  0  0  0  0  0  0
  194.0880  176.6450  145.5050 C   0  0  0  0  0  0  0  0  0  0  0  0
  194.6730  176.4120  144.4150 O   0  0  0  0  0  0  0  0  0  0  0  0
  194.6590  177.5180  146.4210 O   0  0  0  0  0  1  0  0  0  0  0  0
  189.3340  177.3610  143.1450 S   0  0  0  0  0  0  0  0  0  0  0  0
  188.0140  176.4890  143.5730 C   0  0  0  0  0  0  0  0  0  0  0  0
  187.6210  175.3550  142.6860 C   0  0  0  0  0  2  0  0  0  0  0  0
  188.5850  175.2480  141.5180 C   0  0  0  0  0  2  0  0  0  0  0  0
  189.2140  173.8670  141.4860 C   0  0  0  0  0  2  0  0  0  0  0  0
  188.7560  173.0860  142.6220 N   0  0  0  0  0  2  0  0  0  0  0  0
  189.7180  172.3400  144.7140 C   0  0  0  0  0  2  0  0  0  0  0  0
  190.5590  173.4790  144.1810 C   0  0  0  0  0  2  0  0  0  0  0  0
  189.9340  172.4880  143.2210 C   0  0  0  0  0  3  0  0  0  0  0  0
  1 11  1  0  0  0  0
  1  6  1  0  0  0  0
  2  7  1  0  0  0  0
  2  6  1  0  0  0  0
  3  7  2  0  0  0  0
  4  8  1  0  0  0  0
  4  2  2  0  0  0  0
  5  3  1  0  0  0  0
  8  1  2  0  0  0  0
  9  5  2  0  0  0  0
  9  4  1  0  0  0  0
 11 12  1  0  0  0  0
 12 13  1  0  0  0  0
 12 10  2  0  0  0  0
 14 13  1  0  0  0  0
 15 14  2  0  0  0  0
 16 15  1  0  0  0  0
 16 18  1  0  0  0  0
 17 16  2  0  0  0  0
 19 20  2  0  0  0  0
 20  8  1  0  0  0  0
 21 20  1  0  0  0  0
 22 21  1  0  0  0  0
 23 22  1  0  0  0  0
 23 24  1  0  0  0  0
 24 27  1  0  0  0  0
 26 25  1  0  0  0  0
 27 26  1  0  0  0  0
 27 25  1  0  0  0  0
M  END
>  <MODEL>
2

>  <REMARK>
 VINA RESULT:      -5.7      2.993      7.394
  Name = 
  10 active torsions:
  status: ('A' for Active; 'I' for Inactive)
    1  A    between atoms: C_1  and  N_17
    2  A    between atoms: C_2  and  C_11
    3  A    between atoms: C_5  and  C_13
    4  A    between atoms: C_5  and  C_16
    5  A    between atoms: N_9  and  C_10
    6  A    between atoms: C_10  and  C_23
    7  A    between atoms: C_13  and  C_19
    8  A    between atoms: C_16  and  N_25
    9  A    between atoms: C_18  and  N_25
   10  A    between atoms: C_19  and  C_26
                            x       y       z     vdW  Elec       q    Type
                         _______ _______ _______ _____ _____    ______ ____

>  <TORSDO>
F 10

$$$$
=
 OpenBabel11042414223D

 27 29  0  0  0  0  0  0  0  0999 V2000
  191.2540  175.6850  143.1880 C   0  0  0  0  0  0  0  0  0  0  0  0
  193.6520  175.8080  143.7920 C   0  0  0  0  0  0  0  0  0  0  0  0
  195.5830  175.4470  145.0940 N   0  0  0  0  0  0  0  0  0  0  0  0
  192.9060  175.0840  144.7020 C   0  0  0  0  0  0  0  0  0  0  0  0
  194.8450  174.7320  145.9930 C   0  0  0  0  0  3  0  0  0  0  0  0
  192.6720  176.3690  142.5560 S   0  0  0  0  0  0  0  0  0  0  0  0
  195.0110  175.9970  143.9860 C   0  0  0  0  0  3  0  0  0  0  0  0
  191.5360  174.9950  144.3800 C   0  0  0  0  0  0  0  0  0  0  0  0
  193.5050  174.5530  145.8000 N   0  0  0  0  0  0  0  0  0  0  0  0
  189.5310  178.0470  142.8360 O   0  0  0  0  0  0  0  0  0  0  0  0
  189.9560  175.7520  142.5810 N   0  0  0  0  0  2  0  0  0  0  0  0
  189.1420  176.9200  142.4290 C   0  0  0  0  0  0  0  0  0  0  0  0
  187.8110  176.8030  141.7670 C   0  0  0  0  0  2  0  0  0  0  0  0
  186.7620  177.3150  142.6370 N   0  0  0  0  0  0  0  0  0  0  0  0
  186.2730  178.5000  142.4640 C   0  0  0  0  0  3  0  0  0  0  0  0
  185.2170  179.0130  143.3390 C   0  0  0  0  0  0  0  0  0  0  0  0
  184.1070  178.4240  143.4200 O   0  0  0  0  0  0  0  0  0  0  0  0
  185.4440  180.1610  144.0860 O   0  0  0  0  0  1  0  0  0  0  0  0
  190.0000  172.7790  144.8070 S   0  0  0  0  0  0  0  0  0  0  0  0
  190.5120  174.2860  145.1950 C   0  0  0  0  0  0  0  0  0  0  0  0
  189.8860  174.9420  146.3820 C   0  0  0  0  0  2  0  0  0  0  0  0
  188.5780  175.6040  145.9820 C   0  0  0  0  0  2  0  0  0  0  0  0
  188.6560  177.0990  146.2240 C   0  0  0  0  0  2  0  0  0  0  0  0
  187.3550  177.7070  146.0030 N   0  0  0  0  0  2  0  0  0  0  0  0
  185.0990  176.9440  146.4410 C   0  0  0  0  0  2  0  0  0  0  0  0
  185.3520  178.1860  147.2670 C   0  0  0  0  0  2  0  0  0  0  0  0
  186.4730  177.1930  147.0330 C   0  0  0  0  0  3  0  0  0  0  0  0
  1  8  2  0  0  0  0
  2  7  2  0  0  0  0
  2  4  1  0  0  0  0
  3  5  2  0  0  0  0
  4  9  2  0  0  0  0
  6  1  1  0  0  0  0
  6  2  1  0  0  0  0
  7  3  1  0  0  0  0
  8  4  1  0  0  0  0
  8 20  1  0  0  0  0
  9  5  1  0  0  0  0
 11  1  1  0  0  0  0
 12 11  1  0  0  0  0
 12 10  2  0  0  0  0
 13 12  1  0  0  0  0
 13 14  1  0  0  0  0
 15 14  2  0  0  0  0
 15 16  1  0  0  0  0
 16 17  2  0  0  0  0
 16 18  1  0  0  0  0
 19 20  2  0  0  0  0
 20 21  1  0  0  0  0
 22 23  1  0  0  0  0
 22 21  1  0  0  0  0
 24 23  1  0  0  0  0
 24 27  1  0  0  0  0
 25 27  1  0  0  0  0
 25 26  1  0  0  0  0
 27 26  1  0  0  0  0
M  END
>  <MODEL>
3

>  <REMARK>
 VINA RESULT:      -5.6      1.665      2.326
  Name = 
  10 active torsions:
  status: ('A' for Active; 'I' for Inactive)
    1  A    between atoms: C_1  and  N_17
    2  A    between atoms: C_2  and  C_11
    3  A    between atoms: C_5  and  C_13
    4  A    between atoms: C_5  and  C_16
    5  A    between atoms: N_9  and  C_10
    6  A    between atoms: C_10  and  C_23
    7  A    between atoms: C_13  and  C_19
    8  A    between atoms: C_16  and  N_25
    9  A    between atoms: C_18  and  N_25
   10  A    between atoms: C_19  and  C_26
                            x       y       z     vdW  Elec       q    Type
                         _______ _______ _______ _____ _____    ______ ____

>  <TORSDO>
F 10

$$$$
=
 OpenBabel11042414223D

 27 29  0  0  0  0  0  0  0  0999 V2000
  187.4890  176.5340  146.2950 C   0  0  0  0  0  0  0  0  0  0  0  0
  185.3510  177.7690  146.1060 C   0  0  0  0  0  0  0  0  0  0  0  0
  183.6440  179.0030  145.0490 N   0  0  0  0  0  0  0  0  0  0  0  0
  186.0180  177.6630  144.9000 C   0  0  0  0  0  0  0  0  0  0  0  0
  184.3060  178.9000  143.8580 C   0  0  0  0  0  3  0  0  0  0  0  0
  186.2210  177.0080  147.3170 S   0  0  0  0  0  0  0  0  0  0  0  0
  184.1460  178.4480  146.1880 C   0  0  0  0  0  3  0  0  0  0  0  0
  187.2380  176.9610  144.9790 C   0  0  0  0  0  0  0  0  0  0  0  0
  185.4950  178.2340  143.7840 N   0  0  0  0  0  0  0  0  0  0  0  0
  190.0620  177.5140  147.3400 O   0  0  0  0  0  0  0  0  0  0  0  0
  188.6340  175.7660  146.6910 N   0  0  0  0  0  2  0  0  0  0  0  0
  189.8740  176.2770  147.1930 C   0  0  0  0  0  0  0  0  0  0  0  0
  190.9630  175.3260  147.5590 C   0  0  0  0  0  2  0  0  0  0  0  0
  192.2660  175.9110  147.2800 N   0  0  0  0  0  0  0  0  0  0  0  0
  193.0690  175.3700  146.4220 C   0  0  0  0  0  3  0  0  0  0  0  0
  194.3790  175.9600  146.1420 C   0  0  0  0  0  0  0  0  0  0  0  0
  194.5180  177.2090  146.0690 O   0  0  0  0  0  1  0  0  0  0  0  0
  195.4780  175.1330  145.9530 O   0  0  0  0  0  0  0  0  0  0  0  0
  187.8670  175.5320  142.7390 S   0  0  0  0  0  0  0  0  0  0  0  0
  188.1580  176.7160  143.8340 C   0  0  0  0  0  0  0  0  0  0  0  0
  189.4030  177.5220  143.6620 C   0  0  0  0  0  2  0  0  0  0  0  0
  190.6230  176.6200  143.7400 C   0  0  0  0  0  2  0  0  0  0  0  0
  191.8750  177.4060  143.3980 C   0  0  0  0  0  2  0  0  0  0  0  0
  192.8440  176.5390  142.7490 N   0  0  0  0  0  2  0  0  0  0  0  0
  193.3330  174.1690  142.7520 C   0  0  0  0  0  2  0  0  0  0  0  0
  192.7210  174.5280  141.4170 C   0  0  0  0  0  2  0  0  0  0  0  0
  192.2440  175.2210  142.6780 C   0  0  0  0  0  3  0  0  0  0  0  0
  1 11  1  0  0  0  0
  1  6  1  0  0  0  0
  2  7  1  0  0  0  0
  2  6  1  0  0  0  0
  3  7  2  0  0  0  0
  4  8  1  0  0  0  0
  4  2  2  0  0  0  0
  5  3  1  0  0  0  0
  8  1  2  0  0  0  0
  9  5  2  0  0  0  0
  9  4  1  0  0  0  0
 11 12  1  0  0  0  0
 12 10  2  0  0  0  0
 12 13  1  0  0  0  0
 14 13  1  0  0  0  0
 15 14  2  0  0  0  0
 16 15  1  0  0  0  0
 17 16  1  0  0  0  0
 18 16  2  0  0  0  0
 19 20  2  0  0  0  0
 20  8  1  0  0  0  0
 21 22  1  0  0  0  0
 21 20  1  0  0  0  0
 23 22  1  0  0  0  0
 24 23  1  0  0  0  0
 26 27  1  0  0  0  0
 26 25  1  0  0  0  0
 27 24  1  0  0  0  0
 27 25  1  0  0  0  0
M  END
>  <MODEL>
4

>  <REMARK>
 VINA RESULT:      -5.6      3.279      7.732
  Name = 
  10 active torsions:
  status: ('A' for Active; 'I' for Inactive)
    1  A    between atoms: C_1  and  N_17
    2  A    between atoms: C_2  and  C_11
    3  A    between atoms: C_5  and  C_13
    4  A    between atoms: C_5  and  C_16
    5  A    between atoms: N_9  and  C_10
    6  A    between atoms: C_10  and  C_23
    7  A    between atoms: C_13  and  C_19
    8  A    between atoms: C_16  and  N_25
    9  A    between atoms: C_18  and  N_25
   10  A    between atoms: C_19  and  C_26
                            x       y       z     vdW  Elec       q    Type
                         _______ _______ _______ _____ _____    ______ ____

>  <TORSDO>
F 10

$$$$
=
 OpenBabel11042414223D

 27 29  0  0  0  0  0  0  0  0999 V2000
  188.2210  177.3470  146.2810 C   0  0  0  0  0  0  0  0  0  0  0  0
  185.8950  178.1570  146.0320 C   0  0  0  0  0  0  0  0  0  0  0  0
  183.9150  178.7580  144.9040 N   0  0  0  0  0  0  0  0  0  0  0  0
  186.4620  177.7770  144.8310 C   0  0  0  0  0  0  0  0  0  0  0  0
  184.4770  178.3830  143.7170 C   0  0  0  0  0  3  0  0  0  0  0  0
  186.9850  177.9350  147.2840 S   0  0  0  0  0  0  0  0  0  0  0  0
  184.6030  178.6560  146.0760 C   0  0  0  0  0  3  0  0  0  0  0  0
  187.7870  177.3080  144.9450 C   0  0  0  0  0  0  0  0  0  0  0  0
  185.7520  177.8960  143.6790 N   0  0  0  0  0  0  0  0  0  0  0  0
  188.9880  174.6850  147.2800 O   0  0  0  0  0  0  0  0  0  0  0  0
  189.5120  176.9050  146.7250 N   0  0  0  0  0  2  0  0  0  0  0  0
  189.8500  175.6010  147.2090 C   0  0  0  0  0  0  0  0  0  0  0  0
  191.2520  175.3170  147.6290 C   0  0  0  0  0  2  0  0  0  0  0  0
  192.1810  175.6480  146.5580 N   0  0  0  0  0  0  0  0  0  0  0  0
  193.1940  176.4250  146.7710 C   0  0  0  0  0  3  0  0  0  0  0  0
  194.1280  176.7560  145.6940 C   0  0  0  0  0  0  0  0  0  0  0  0
  194.8360  177.7950  145.7550 O   0  0  0  0  0  1  0  0  0  0  0  0
  194.2320  175.9150  144.5940 O   0  0  0  0  0  0  0  0  0  0  0  0
  189.7400  177.8340  143.1120 S   0  0  0  0  0  0  0  0  0  0  0  0
  188.6310  176.8500  143.8070 C   0  0  0  0  0  0  0  0  0  0  0  0
  188.4690  175.4810  143.2330 C   0  0  0  0  0  2  0  0  0  0  0  0
  187.9850  175.5720  141.7960 C   0  0  0  0  0  2  0  0  0  0  0  0
  188.4730  174.3730  141.0050 C   0  0  0  0  0  2  0  0  0  0  0  0
  188.3450  173.1660  141.8030 N   0  0  0  0  0  2  0  0  0  0  0  0
  189.9480  171.5520  142.6320 C   0  0  0  0  0  2  0  0  0  0  0  0
  190.7070  172.7440  142.0910 C   0  0  0  0  0  2  0  0  0  0  0  0
  189.4310  172.2880  141.4110 C   0  0  0  0  0  3  0  0  0  0  0  0
  1 11  1  0  0  0  0
  1  6  1  0  0  0  0
  2  7  1  0  0  0  0
  2  6  1  0  0  0  0
  3  7  2  0  0  0  0
  4  8  1  0  0  0  0
  4  2  2  0  0  0  0
  5  3  1  0  0  0  0
  8  1  2  0  0  0  0
  9  5  2  0  0  0  0
  9  4  1  0  0  0  0
 11 12  1  0  0  0  0
 12 10  2  0  0  0  0
 12 13  1  0  0  0  0
 14 15  2  0  0  0  0
 14 13  1  0  0  0  0
 16 17  1  0  0  0  0
 16 15  1  0  0  0  0
 18 16  2  0  0  0  0
 19 20  2  0  0  0  0
 20  8  1  0  0  0  0
 21 20  1  0  0  0  0
 22 21  1  0  0  0  0
 23 22  1  0  0  0  0
 23 24  1  0  0  0  0
 26 25  1  0  0  0  0
 27 24  1  0  0  0  0
 27 26  1  0  0  0  0
 27 25  1  0  0  0  0
M  END
>  <MODEL>
5

>  <REMARK>
 VINA RESULT:      -5.5      3.027      7.445
  Name = 
  10 active torsions:
  status: ('A' for Active; 'I' for Inactive)
    1  A    between atoms: C_1  and  N_17
    2  A    between atoms: C_2  and  C_11
    3  A    between atoms: C_5  and  C_13
    4  A    between atoms: C_5  and  C_16
    5  A    between atoms: N_9  and  C_10
    6  A    between atoms: C_10  and  C_23
    7  A    between atoms: C_13  and  C_19
    8  A    between atoms: C_16  and  N_25
    9  A    between atoms: C_18  and  N_25
   10  A    between atoms: C_19  and  C_26
                            x       y       z     vdW  Elec       q    Type
                         _______ _______ _______ _____ _____    ______ ____

>  <TORSDO>
F 10

$$$$
=
 OpenBabel11042414223D

 27 29  0  0  0  0  0  0  0  0999 V2000
  191.0620  175.5500  145.8210 C   0  0  0  0  0  0  0  0  0  0  0  0
  193.5370  175.4740  145.8340 C   0  0  0  0  0  0  0  0  0  0  0  0
  195.7180  175.6580  144.9610 N   0  0  0  0  0  0  0  0  0  0  0  0
  193.0190  175.8910  144.6230 C   0  0  0  0  0  0  0  0  0  0  0  0
  195.2050  176.0680  143.7630 C   0  0  0  0  0  3  0  0  0  0  0  0
  192.2990  175.1580  146.9150 S   0  0  0  0  0  0  0  0  0  0  0  0
  194.9060  175.3530  146.0110 C   0  0  0  0  0  3  0  0  0  0  0  0
  191.6110  175.9460  144.5890 C   0  0  0  0  0  0  0  0  0  0  0  0
  193.8550  176.1810  143.5920 N   0  0  0  0  0  0  0  0  0  0  0  0
  189.4020  177.7190  146.9220 O   0  0  0  0  0  0  0  0  0  0  0  0
  189.6570  175.5300  146.1120 N   0  0  0  0  0  2  0  0  0  0  0  0
  188.8810  176.6050  146.6520 C   0  0  0  0  0  0  0  0  0  0  0  0
  187.4220  176.4050  146.8900 C   0  0  0  0  0  2  0  0  0  0  0  0
  186.6420  177.3010  146.0490 N   0  0  0  0  0  0  0  0  0  0  0  0
  185.7270  178.0630  146.5570 C   0  0  0  0  0  3  0  0  0  0  0  0
  184.9440  178.9650  145.7100 C   0  0  0  0  0  0  0  0  0  0  0  0
  183.6920  178.8540  145.6400 O   0  0  0  0  0  1  0  0  0  0  0  0
  185.5900  179.9500  144.9760 O   0  0  0  0  0  0  0  0  0  0  0  0
  190.4130  177.9160  143.1260 S   0  0  0  0  0  0  0  0  0  0  0  0
  190.8000  176.3490  143.4070 C   0  0  0  0  0  0  0  0  0  0  0  0
  190.2780  175.3280  142.4500 C   0  0  0  0  0  2  0  0  0  0  0  0
  188.7600  175.2930  142.5020 C   0  0  0  0  0  2  0  0  0  0  0  0
  188.1900  175.3180  141.0960 C   0  0  0  0  0  2  0  0  0  0  0  0
  187.3580  176.4960  140.9190 N   0  0  0  0  0  2  0  0  0  0  0  0
  185.5450  177.5350  142.1410 C   0  0  0  0  0  2  0  0  0  0  0  0
  186.7730  178.4090  142.2730 C   0  0  0  0  0  2  0  0  0  0  0  0
  186.9190  176.9010  142.2400 C   0  0  0  0  0  3  0  0  0  0  0  0
  1 11  1  0  0  0  0
  1  6  1  0  0  0  0
  2  7  1  0  0  0  0
  2  6  1  0  0  0  0
  3  7  2  0  0  0  0
  4  2  2  0  0  0  0
  5  3  1  0  0  0  0
  8  4  1  0  0  0  0
  8  1  2  0  0  0  0
  9  5  2  0  0  0  0
  9  4  1  0  0  0  0
 11 12  1  0  0  0  0
 12 13  1  0  0  0  0
 12 10  2  0  0  0  0
 14 15  2  0  0  0  0
 14 13  1  0  0  0  0
 16 15  1  0  0  0  0
 17 16  1  0  0  0  0
 18 16  2  0  0  0  0
 19 20  2  0  0  0  0
 20  8  1  0  0  0  0
 21 22  1  0  0  0  0
 21 20  1  0  0  0  0
 23 22  1  0  0  0  0
 24 23  1  0  0  0  0
 24 27  1  0  0  0  0
 25 27  1  0  0  0  0
 25 26  1  0  0  0  0
 27 26  1  0  0  0  0
M  END
>  <MODEL>
6

>  <REMARK>
 VINA RESULT:      -5.5      1.940      3.666
  Name = 
  10 active torsions:
  status: ('A' for Active; 'I' for Inactive)
    1  A    between atoms: C_1  and  N_17
    2  A    between atoms: C_2  and  C_11
    3  A    between atoms: C_5  and  C_13
    4  A    between atoms: C_5  and  C_16
    5  A    between atoms: N_9  and  C_10
    6  A    between atoms: C_10  and  C_23
    7  A    between atoms: C_13  and  C_19
    8  A    between atoms: C_16  and  N_25
    9  A    between atoms: C_18  and  N_25
   10  A    between atoms: C_19  and  C_26
                            x       y       z     vdW  Elec       q    Type
                         _______ _______ _______ _____ _____    ______ ____

>  <TORSDO>
F 10

$$$$
=
 OpenBabel11042414223D

 27 29  0  0  0  0  0  0  0  0999 V2000
  188.6360  176.8550  145.0930 C   0  0  0  0  0  0  0  0  0  0  0  0
  186.9060  177.6630  146.6700 C   0  0  0  0  0  0  0  0  0  0  0  0
  184.8040  178.4820  147.3520 N   0  0  0  0  0  0  0  0  0  0  0  0
  186.4520  177.5890  145.3670 C   0  0  0  0  0  0  0  0  0  0  0  0
  184.3570  178.4110  146.0630 C   0  0  0  0  0  3  0  0  0  0  0  0
  188.5020  177.1670  146.7560 S   0  0  0  0  0  0  0  0  0  0  0  0
  186.0740  178.1160  147.6820 C   0  0  0  0  0  3  0  0  0  0  0  0
  187.4170  177.1280  144.4480 C   0  0  0  0  0  0  0  0  0  0  0  0
  185.1810  177.9680  145.0690 N   0  0  0  0  0  0  0  0  0  0  0  0
  190.5150  178.2910  143.3390 O   0  0  0  0  0  0  0  0  0  0  0  0
  189.8020  176.3410  144.4350 N   0  0  0  0  0  2  0  0  0  0  0  0
  190.6930  177.0690  143.5830 C   0  0  0  0  0  0  0  0  0  0  0  0
  191.8640  176.3680  142.9810 C   0  0  0  0  0  2  0  0  0  0  0  0
  192.8130  175.9810  144.0140 N   0  0  0  0  0  0  0  0  0  0  0  0
  193.4420  176.8730  144.7100 C   0  0  0  0  0  3  0  0  0  0  0  0
  194.3950  176.4820  145.7490 C   0  0  0  0  0  0  0  0  0  0  0  0
  194.3580  177.0180  146.8880 O   0  0  0  0  0  1  0  0  0  0  0  0
  195.3490  175.5110  145.4750 O   0  0  0  0  0  0  0  0  0  0  0  0
  187.0390  178.2640  141.9950 S   0  0  0  0  0  0  0  0  0  0  0  0
  187.1950  176.9680  142.9850 C   0  0  0  0  0  0  0  0  0  0  0  0
  187.0690  175.6130  142.3700 C   0  0  0  0  0  2  0  0  0  0  0  0
  188.1680  175.4030  141.3420 C   0  0  0  0  0  2  0  0  0  0  0  0
  188.5140  173.9300  141.2420 C   0  0  0  0  0  2  0  0  0  0  0  0
  189.5530  173.5970  142.2010 N   0  0  0  0  0  2  0  0  0  0  0  0
  189.6970  172.2920  144.2350 C   0  0  0  0  0  2  0  0  0  0  0  0
  190.4200  171.5450  143.1360 C   0  0  0  0  0  2  0  0  0  0  0  0
  189.1700  172.3390  142.8140 C   0  0  0  0  0  3  0  0  0  0  0  0
  1  6  1  0  0  0  0
  2  6  1  0  0  0  0
  2  7  1  0  0  0  0
  3  7  2  0  0  0  0
  4  2  2  0  0  0  0
  5  3  1  0  0  0  0
  8  1  2  0  0  0  0
  8  4  1  0  0  0  0
  9  4  1  0  0  0  0
  9  5  2  0  0  0  0
 10 12  2  0  0  0  0
 11  1  1  0  0  0  0
 12 11  1  0  0  0  0
 13 12  1  0  0  0  0
 13 14  1  0  0  0  0
 14 15  2  0  0  0  0
 15 16  1  0  0  0  0
 16 17  1  0  0  0  0
 18 16  2  0  0  0  0
 19 20  2  0  0  0  0
 20  8  1  0  0  0  0
 21 20  1  0  0  0  0
 22 21  1  0  0  0  0
 23 22  1  0  0  0  0
 23 24  1  0  0  0  0
 24 27  1  0  0  0  0
 26 25  1  0  0  0  0
 27 26  1  0  0  0  0
 27 25  1  0  0  0  0
M  END
>  <MODEL>
7

>  <REMARK>
 VINA RESULT:      -5.4      2.807      7.113
  Name = 
  10 active torsions:
  status: ('A' for Active; 'I' for Inactive)
    1  A    between atoms: C_1  and  N_17
    2  A    between atoms: C_2  and  C_11
    3  A    between atoms: C_5  and  C_13
    4  A    between atoms: C_5  and  C_16
    5  A    between atoms: N_9  and  C_10
    6  A    between atoms: C_10  and  C_23
    7  A    between atoms: C_13  and  C_19
    8  A    between atoms: C_16  and  N_25
    9  A    between atoms: C_18  and  N_25
   10  A    between atoms: C_19  and  C_26
                            x       y       z     vdW  Elec       q    Type
                         _______ _______ _______ _____ _____    ______ ____

>  <TORSDO>
F 10

$$$$
=
 OpenBabel11042414223D

 27 29  0  0  0  0  0  0  0  0999 V2000
  191.1890  176.8690  144.3990 C   0  0  0  0  0  0  0  0  0  0  0  0
  189.4010  177.6330  142.8660 C   0  0  0  0  0  0  0  0  0  0  0  0
  187.3820  177.5130  141.6560 N   0  0  0  0  0  0  0  0  0  0  0  0
  189.1350  176.3990  143.4270 C   0  0  0  0  0  0  0  0  0  0  0  0
  187.1210  176.2920  142.2110 C   0  0  0  0  0  3  0  0  0  0  0  0
  190.8680  178.2190  143.4210 S   0  0  0  0  0  0  0  0  0  0  0  0
  188.5150  178.2040  141.9660 C   0  0  0  0  0  3  0  0  0  0  0  0
  190.1370  175.9420  144.3080 C   0  0  0  0  0  0  0  0  0  0  0  0
  187.9990  175.7330  143.0930 N   0  0  0  0  0  0  0  0  0  0  0  0
  193.9430  176.1980  143.6000 O   0  0  0  0  0  0  0  0  0  0  0  0
  192.3400  176.7060  145.2390 N   0  0  0  0  0  2  0  0  0  0  0  0
  193.6670  176.3750  144.8160 C   0  0  0  0  0  0  0  0  0  0  0  0
  194.7490  176.2470  145.8340 C   0  0  0  0  0  2  0  0  0  0  0  0
  195.7540  175.2900  145.3930 N   0  0  0  0  0  0  0  0  0  0  0  0
  195.7180  174.0580  145.7860 C   0  0  0  0  0  3  0  0  0  0  0  0
  196.7280  173.0970  145.3410 C   0  0  0  0  0  0  0  0  0  0  0  0
  197.3320  173.2600  144.2480 O   0  0  0  0  0  0  0  0  0  0  0  0
  197.0210  171.9940  146.1310 O   0  0  0  0  0  1  0  0  0  0  0  0
  190.8950  173.3240  144.4660 S   0  0  0  0  0  0  0  0  0  0  0  0
  190.1070  174.6420  145.0340 C   0  0  0  0  0  0  0  0  0  0  0  0
  189.3220  174.4850  146.2950 C   0  0  0  0  0  2  0  0  0  0  0  0
  189.0940  175.8410  146.9400 C   0  0  0  0  0  2  0  0  0  0  0  0
  187.6230  176.2080  146.8750 C   0  0  0  0  0  2  0  0  0  0  0  0
  187.4700  177.5610  146.3690 N   0  0  0  0  0  2  0  0  0  0  0  0
  186.0440  178.7630  144.8260 C   0  0  0  0  0  2  0  0  0  0  0  0
  185.5630  179.0390  146.2330 C   0  0  0  0  0  2  0  0  0  0  0  0
  186.1100  177.6720  145.8750 C   0  0  0  0  0  3  0  0  0  0  0  0
  1 11  1  0  0  0  0
  2  6  1  0  0  0  0
  2  4  1  0  0  0  0
  3  7  1  0  0  0  0
  3  5  2  0  0  0  0
  4  8  1  0  0  0  0
  5  9  1  0  0  0  0
  6  1  1  0  0  0  0
  7  2  2  0  0  0  0
  8  1  2  0  0  0  0
  8 20  1  0  0  0  0
  9  4  2  0  0  0  0
 10 12  2  0  0  0  0
 12 11  1  0  0  0  0
 12 13  1  0  0  0  0
 14 15  2  0  0  0  0
 14 13  1  0  0  0  0
 16 15  1  0  0  0  0
 16 18  1  0  0  0  0
 17 16  2  0  0  0  0
 19 20  2  0  0  0  0
 20 21  1  0  0  0  0
 21 22  1  0  0  0  0
 23 22  1  0  0  0  0
 24 23  1  0  0  0  0
 25 27  1  0  0  0  0
 25 26  1  0  0  0  0
 27 26  1  0  0  0  0
 27 24  1  0  0  0  0
M  END
>  <MODEL>
8

>  <REMARK>
 VINA RESULT:      -5.4      2.897      6.756
  Name = 
  10 active torsions:
  status: ('A' for Active; 'I' for Inactive)
    1  A    between atoms: C_1  and  N_17
    2  A    between atoms: C_2  and  C_11
    3  A    between atoms: C_5  and  C_13
    4  A    between atoms: C_5  and  C_16
    5  A    between atoms: N_9  and  C_10
    6  A    between atoms: C_10  and  C_23
    7  A    between atoms: C_13  and  C_19
    8  A    between atoms: C_16  and  N_25
    9  A    between atoms: C_18  and  N_25
   10  A    between atoms: C_19  and  C_26
                            x       y       z     vdW  Elec       q    Type
                         _______ _______ _______ _____ _____    ______ ____

>  <TORSDO>
F 10

$$$$
=
 OpenBabel11042414223D

 27 29  0  0  0  0  0  0  0  0999 V2000
  184.5050  178.2050  142.3270 C   0  0  0  0  0  0  0  0  0  0  0  0
  186.9020  178.0570  141.7230 C   0  0  0  0  0  0  0  0  0  0  0  0
  189.2220  177.8520  142.0830 N   0  0  0  0  0  0  0  0  0  0  0  0
  186.6820  177.9300  143.0810 C   0  0  0  0  0  0  0  0  0  0  0  0
  189.0030  177.7280  143.4260 C   0  0  0  0  0  3  0  0  0  0  0  0
  185.4490  178.2680  140.9180 S   0  0  0  0  0  0  0  0  0  0  0  0
  188.1890  178.0190  141.2110 C   0  0  0  0  0  3  0  0  0  0  0  0
  185.3240  178.0070  143.4520 C   0  0  0  0  0  0  0  0  0  0  0  0
  187.7340  177.7710  143.9260 N   0  0  0  0  0  0  0  0  0  0  0  0
  182.5910  177.8970  140.1100 O   0  0  0  0  0  0  0  0  0  0  0  0
  183.0740  178.2930  142.3730 N   0  0  0  0  0  2  0  0  0  0  0  0
  182.1720  178.1410  141.2730 C   0  0  0  0  0  0  0  0  0  0  0  0
  180.7040  178.2640  141.5070 C   0  0  0  0  0  2  0  0  0  0  0  0
  180.0790  179.0260  140.4360 N   0  0  0  0  0  0  0  0  0  0  0  0
  179.8490  180.2930  140.5650 C   0  0  0  0  0  3  0  0  0  0  0  0
  179.2210  181.0570  139.4870 C   0  0  0  0  0  0  0  0  0  0  0  0
  178.1250  180.6870  138.9910 O   0  0  0  0  0  0  0  0  0  0  0  0
  179.8430  182.2010  139.0050 O   0  0  0  0  0  1  0  0  0  0  0  0
  183.8290  179.0610  145.4780 S   0  0  0  0  0  0  0  0  0  0  0  0
  184.8130  177.9140  144.8480 C   0  0  0  0  0  0  0  0  0  0  0  0
  185.2130  176.7840  145.7380 C   0  0  0  0  0  2  0  0  0  0  0  0
  185.5720  177.3090  147.1180 C   0  0  0  0  0  2  0  0  0  0  0  0
  187.0580  177.1390  147.3690 C   0  0  0  0  0  2  0  0  0  0  0  0
  187.5780  176.0480  146.5620 N   0  0  0  0  0  2  0  0  0  0  0  0
  189.6410  174.9820  145.8800 C   0  0  0  0  0  2  0  0  0  0  0  0
  189.3200  174.5420  147.2910 C   0  0  0  0  0  2  0  0  0  0  0  0
  188.9960  175.9550  146.8480 C   0  0  0  0  0  3  0  0  0  0  0  0
  1 11  1  0  0  0  0
  1  8  2  0  0  0  0
  2  4  1  0  0  0  0
  3  5  2  0  0  0  0
  4  8  1  0  0  0  0
  4  9  2  0  0  0  0
  5  9  1  0  0  0  0
  6  2  1  0  0  0  0
  6  1  1  0  0  0  0
  7  2  2  0  0  0  0
  7  3  1  0  0  0  0
  8 20  1  0  0  0  0
 10 12  2  0  0  0  0
 12 13  1  0  0  0  0
 12 11  1  0  0  0  0
 14 15  2  0  0  0  0
 14 13  1  0  0  0  0
 16 15  1  0  0  0  0
 17 16  2  0  0  0  0
 18 16  1  0  0  0  0
 20 19  2  0  0  0  0
 20 21  1  0  0  0  0
 21 22  1  0  0  0  0
 22 23  1  0  0  0  0
 24 27  1  0  0  0  0
 24 23  1  0  0  0  0
 25 27  1  0  0  0  0
 25 26  1  0  0  0  0
 27 26  1  0  0  0  0
M  END
>  <MODEL>
9

>  <REMARK>
 VINA RESULT:      -5.3      4.360      6.895
  Name = 
  10 active torsions:
  status: ('A' for Active; 'I' for Inactive)
    1  A    between atoms: C_1  and  N_17
    2  A    between atoms: C_2  and  C_11
    3  A    between atoms: C_5  and  C_13
    4  A    between atoms: C_5  and  C_16
    5  A    between atoms: N_9  and  C_10
    6  A    between atoms: C_10  and  C_23
    7  A    between atoms: C_13  and  C_19
    8  A    between atoms: C_16  and  N_25
    9  A    between atoms: C_18  and  N_25
   10  A    between atoms: C_19  and  C_26
                            x       y       z     vdW  Elec       q    Type
                         _______ _______ _______ _____ _____    ______ ____

>  <TORSDO>
F 10

$$$$
