=
 OpenBabel11042419093D

 59 64  0  0  1  0  0  0  0  0999 V2000
  186.6300  176.4760  142.5320 C   0  0  0  0  0  3  0  0  0  0  0  0
  187.9280  176.1270  142.5400 C   0  0  0  0  0  0  0  0  0  0  0  0
  189.2670  174.6230  147.2850 Cl  0  0  0  0  0  0  0  0  0  0  0  0
  188.9040  175.4120  144.7000 C   0  0  0  0  0  3  0  0  0  0  0  0
  190.9730  177.6180  144.1960 C   0  0  0  0  0  3  0  0  0  0  0  0
  191.7870  176.5470  144.8160 C   0  0  0  0  0  0  0  0  0  0  0  0
  189.7840  175.6020  145.8850 C   0  0  2  0  0  3  0  0  0  0  0  0
  189.7270  177.5090  143.7090 C   0  0  0  0  0  3  0  0  0  0  0  0
  188.8680  176.2950  143.6920 C   0  0  0  0  0  0  0  0  0  0  0  0
  191.2420  175.5230  145.5030 C   0  0  0  0  0  0  0  0  0  0  0  0
  194.2320  176.7420  145.5060 C   0  0  0  0  0  0  0  0  0  0  0  0
  193.1920  176.5820  144.5340 N   0  0  0  0  0  2  0  0  0  0  0  0
  193.9660  177.1270  146.6750 O   0  0  0  0  0  0  0  0  0  0  0  0
  195.6500  176.4850  145.1170 C   0  0  0  0  0  2  0  0  0  0  0  0
  196.7770  174.8170  141.1270 N   0  0  0  0  0  0  0  0  0  0  0  0
  197.8580  173.6070  138.7850 C   0  0  0  0  0  2  0  0  0  0  0  0
  195.8570  175.0430  144.7680 C   0  0  0  0  0  0  0  0  0  0  0  0
  196.1340  172.8650  144.9650 C   0  0  0  0  0  3  0  0  0  0  0  0
  196.2450  173.2370  143.6370 C   0  0  0  0  0  3  0  0  0  0  0  0
  196.5850  174.4450  138.7130 C   0  0  0  0  0  2  0  0  0  0  0  0
  195.8880  174.0180  145.6920 C   0  0  0  0  0  3  0  0  0  0  0  0
  196.5750  175.4770  139.8380 C   0  0  0  0  0  2  0  0  0  0  0  0
  197.9320  173.9290  141.2650 C   0  0  0  0  0  2  0  0  0  0  0  0
  197.9410  172.9020  140.1350 C   0  0  0  0  0  2  0  0  0  0  0  0
  196.0820  174.5690  143.5250 N   0  0  0  0  0  0  0  0  0  0  0  0
  196.0970  175.3140  142.2930 C   0  0  0  0  0  0  0  0  0  0  0  0
  195.4810  176.4150  142.2270 O   0  0  0  0  0  0  0  0  0  0  0  0
  192.1360  173.2620  144.9590 C   0  0  0  0  0  1  0  0  0  0  0  0
  192.0430  174.4060  145.7930 O   0  0  0  0  0  0  0  0  0  0  0  0
  185.3660  178.3730  146.1670 C   0  0  0  0  0  0  0  0  0  0  0  0
  184.7910  178.9980  147.3900 C   0  0  0  0  0  1  0  0  0  0  0  0
  186.4280  178.5370  143.8750 C   0  0  0  0  0  2  0  0  0  0  0  0
  186.0600  176.3160  144.9260 C   0  0  0  0  0  2  0  0  0  0  0  0
  185.6040  179.2410  144.9520 C   0  0  0  0  0  2  0  0  0  0  0  0
  185.4950  177.0360  146.1230 C   0  0  0  0  0  3  0  0  0  0  0  0
  185.8840  177.1320  143.6450 C   0  0  2  0  0  3  0  0  0  0  0  0
  188.4540  175.5480  141.2600 C   0  0  0  0  0  2  0  0  0  0  0  0
  191.1150  174.3890  141.7270 C   0  0  0  0  0  1  0  0  0  0  0  0
  189.9700  173.5120  141.5370 N   0  0  0  0  0  0  0  0  0  0  0  0
  187.6630  173.2880  141.2130 O   0  0  0  0  0  0  0  0  0  0  0  0
  188.6520  174.0600  141.3500 C   0  0  0  0  0  0  0  0  0  0  0  0
  189.6590  171.5170  142.7220 O   0  0  0  0  0  1  0  0  0  0  0  0
  190.2090  172.0690  141.5620 C   0  0  2  0  0  3  0  0  0  0  0  0
  192.2230  169.3330  142.0340 C   0  0  0  0  0  0  0  0  0  0  0  0
  192.0710  170.6990  142.4140 N   0  0  0  0  0  2  0  0  0  0  0  0
  192.3950  168.4520  142.9150 O   0  0  0  0  0  0  0  0  0  0  0  0
  191.7040  171.7450  141.4640 C   0  0  1  0  0  3  0  0  0  0  0  0
  192.6310  172.2950  139.2660 C   0  0  0  0  0  2  0  0  0  0  0  0
  192.1010  171.3680  140.0580 C   0  0  0  0  0  0  0  0  0  0  0  0
  192.2040  168.9660  140.6550 N   0  0  0  0  0  2  0  0  0  0  0  0
  192.0230  169.9390  139.5760 C   0  0  1  0  0  3  0  0  0  0  0  0
  190.2500  170.9180  138.0690 C   0  0  0  0  0  2  0  0  0  0  0  0
  191.7910  168.6780  136.5950 C   0  0  0  0  0  2  0  0  0  0  0  0
  190.9190  168.4300  137.7890 C   0  0  0  0  0  2  0  0  0  0  0  0
  190.7780  169.6400  138.7320 C   0  0  1  0  0  3  0  0  0  0  0  0
  191.5550  169.5860  135.6430 C   0  0  0  0  0  0  0  0  0  0  0  0
  189.4980  170.6440  136.7720 C   0  0  0  0  0  2  0  0  0  0  0  0
  192.5130  169.6740  134.5130 C   0  0  0  0  0  1  0  0  0  0  0  0
  190.4490  170.5000  135.6760 N   0  0  0  0  0  0  0  0  0  0  0  0
  1  2  2  0  0  0  0
  2  9  1  0  0  0  0
  4  7  1  0  0  0  0
  5  6  1  0  0  0  0
  6 10  2  0  0  0  0
  7  3  1  1  0  0  0
  8  5  2  0  0  0  0
  9  8  1  0  0  0  0
  9  4  2  0  0  0  0
 10 29  1  0  0  0  0
 10  7  1  0  0  0  0
 11 13  2  0  0  0  0
 12  6  1  0  0  0  0
 12 11  1  0  0  0  0
 14 11  1  0  0  0  0
 15 23  1  0  0  0  0
 15 26  1  0  0  0  0
 16 24  1  0  0  0  0
 17 14  1  0  0  0  0
 17 21  2  0  0  0  0
 18 21  1  0  0  0  0
 19 18  2  0  0  0  0
 20 16  1  0  0  0  0
 20 22  1  0  0  0  0
 22 15  1  0  0  0  0
 24 23  1  0  0  0  0
 25 19  1  0  0  0  0
 25 17  1  0  0  0  0
 26 25  1  0  0  0  0
 27 26  2  0  0  0  0
 28 29  1  0  0  0  0
 30 31  1  0  0  0  0
 32 34  1  0  0  0  0
 33 35  1  0  0  0  0
 34 30  1  0  0  0  0
 35 30  2  0  0  0  0
 36  1  1  6  0  0  0
 36 32  1  0  0  0  0
 36 33  1  0  0  0  0
 37 41  1  0  0  0  0
 37  2  1  0  0  0  0
 39 43  1  0  0  0  0
 39 38  1  0  0  0  0
 40 41  2  0  0  0  0
 41 39  1  0  0  0  0
 43 42  1  1  0  0  0
 44 45  1  0  0  0  0
 44 46  2  0  0  0  0
 47 43  1  6  0  0  0
 47 45  1  0  0  0  0
 48 49  2  0  0  0  0
 49 47  1  0  0  0  0
 50 44  1  0  0  0  0
 51 49  1  1  0  0  0
 51 50  1  0  0  0  0
 52 55  1  0  0  0  0
 53 54  1  0  0  0  0
 55 54  1  6  0  0  0
 55 51  1  0  0  0  0
 56 59  2  0  0  0  0
 56 53  1  0  0  0  0
 57 52  1  0  0  0  0
 58 56  1  0  0  0  0
 59 57  1  0  0  0  0
M  END
>  <MODEL>
1

>  <REMARK>
 VINA RESULT:      -8.9      0.000      0.000
  Name = 
  11 active torsions:
  status: ('A' for Active; 'I' for Inactive)
    1  A    between atoms: O_6  and  C_55
    2  A    between atoms: C_12  and  C_40
    3  A    between atoms: N_18  and  C_48
    4  A    between atoms: N_19  and  C_28
    5  A    between atoms: C_20  and  C_40
    6  A    between atoms: C_24  and  C_48
    7  A    between atoms: C_30  and  C_59
    8  A    between atoms: C_32  and  C_57
    9  A    between atoms: C_34  and  C_43
   10  A    between atoms: C_43  and  C_58
   11  A    between atoms: C_51  and  C_58
                            x       y       z     vdW  Elec       q    Type
                         _______ _______ _______ _____ _____    ______ ____

>  <TORSDO>
F 11

$$$$
=
 OpenBabel11042419093D

 59 64  0  0  1  0  0  0  0  0999 V2000
  188.5360  174.9130  145.0970 C   0  0  0  0  0  3  0  0  0  0  0  0
  189.7860  174.4360  144.9690 C   0  0  0  0  0  0  0  0  0  0  0  0
  193.7230  177.1830  146.8470 Cl  0  0  0  0  0  0  0  0  0  0  0  0
  191.8750  175.5880  145.6300 C   0  0  0  0  0  3  0  0  0  0  0  0
  192.3470  175.9020  142.6180 C   0  0  0  0  0  3  0  0  0  0  0  0
  193.7120  175.6470  143.1330 C   0  0  0  0  0  0  0  0  0  0  0  0
  193.0540  176.4560  145.3610 C   0  0  2  0  0  3  0  0  0  0  0  0
  191.1880  175.7260  143.2710 C   0  0  0  0  0  3  0  0  0  0  0  0
  191.0040  175.2520  144.6690 C   0  0  0  0  0  0  0  0  0  0  0  0
  194.0340  175.7770  144.4360 C   0  0  0  0  0  0  0  0  0  0  0  0
  195.5340  175.9010  141.3700 C   0  0  0  0  0  0  0  0  0  0  0  0
  194.6540  175.1220  142.1890 N   0  0  0  0  0  2  0  0  0  0  0  0
  195.3590  177.1410  141.2370 O   0  0  0  0  0  0  0  0  0  0  0  0
  196.6490  175.2290  140.6390 C   0  0  0  0  0  2  0  0  0  0  0  0
  196.8830  171.6800  143.3460 N   0  0  0  0  0  0  0  0  0  0  0  0
  196.5980  169.3880  145.0130 C   0  0  0  0  0  2  0  0  0  0  0  0
  196.2930  173.8140  140.3030 C   0  0  0  0  0  0  0  0  0  0  0  0
  195.4990  172.0570  139.2350 C   0  0  0  0  0  3  0  0  0  0  0  0
  196.0120  171.6720  140.4620 C   0  0  0  0  0  3  0  0  0  0  0  0
  197.9410  170.1010  144.8920 C   0  0  0  0  0  2  0  0  0  0  0  0
  195.6750  173.4270  139.1310 C   0  0  0  0  0  3  0  0  0  0  0  0
  197.7220  171.5710  144.5380 C   0  0  0  0  0  2  0  0  0  0  0  0
  195.6080  170.9620  143.3390 C   0  0  0  0  0  2  0  0  0  0  0  0
  195.8310  169.4950  143.6990 C   0  0  0  0  0  2  0  0  0  0  0  0
  196.4890  172.7500  141.1110 N   0  0  0  0  0  0  0  0  0  0  0  0
  197.1290  172.7370  142.4000 C   0  0  0  0  0  0  0  0  0  0  0  0
  197.9410  173.6570  142.6990 O   0  0  0  0  0  0  0  0  0  0  0  0
  195.3490  174.0180  145.6130 C   0  0  0  0  0  1  0  0  0  0  0  0
  195.2490  175.2320  144.8850 O   0  0  0  0  0  0  0  0  0  0  0  0
  186.4550  178.5880  144.3400 C   0  0  0  0  0  0  0  0  0  0  0  0
  185.8630  179.9280  144.0750 C   0  0  0  0  0  1  0  0  0  0  0  0
  186.9710  176.6510  145.8860 C   0  0  0  0  0  2  0  0  0  0  0  0
  187.6240  176.5470  143.4910 C   0  0  0  0  0  2  0  0  0  0  0  0
  186.5970  178.1280  145.7730 C   0  0  0  0  0  2  0  0  0  0  0  0
  186.9970  177.9060  143.3160 C   0  0  0  0  0  3  0  0  0  0  0  0
  188.1100  176.3320  144.9240 C   0  0  2  0  0  3  0  0  0  0  0  0
  189.9340  172.9510  145.1200 C   0  0  0  0  0  2  0  0  0  0  0  0
  192.3020  171.9080  143.7240 C   0  0  0  0  0  1  0  0  0  0  0  0
  190.9870  171.7670  143.1180 N   0  0  0  0  0  0  0  0  0  0  0  0
  188.6730  172.0780  143.2810 O   0  0  0  0  0  0  0  0  0  0  0  0
  189.8110  172.2310  143.8060 C   0  0  0  0  0  0  0  0  0  0  0  0
  190.6910  169.7510  141.9630 O   0  0  0  0  0  1  0  0  0  0  0  0
  190.9100  171.1220  141.8060 C   0  0  2  0  0  3  0  0  0  0  0  0
  192.5810  169.5910  139.2320 C   0  0  0  0  0  0  0  0  0  0  0  0
  192.7720  170.1200  140.5430 N   0  0  0  0  0  2  0  0  0  0  0  0
  192.9940  168.4360  138.9550 O   0  0  0  0  0  0  0  0  0  0  0  0
  192.1750  171.3790  140.9790 C   0  0  1  0  0  3  0  0  0  0  0  0
  192.1580  173.5850  139.9190 C   0  0  0  0  0  2  0  0  0  0  0  0
  191.8980  172.2870  139.8050 C   0  0  0  0  0  0  0  0  0  0  0  0
  191.9420  170.3780  138.2270 N   0  0  0  0  0  2  0  0  0  0  0  0
  191.4490  171.7340  138.4740 C   0  0  1  0  0  3  0  0  0  0  0  0
  189.3660  173.0750  138.9610 C   0  0  0  0  0  2  0  0  0  0  0  0
  189.8390  172.9020  135.9090 C   0  0  0  0  0  3  0  0  0  0  0  0
  189.5120  171.7130  136.7610 C   0  0  0  0  0  2  0  0  0  0  0  0
  189.9390  171.8520  138.2350 C   0  0  1  0  0  3  0  0  0  0  0  0
  189.3600  174.1360  136.0910 C   0  0  0  0  0  0  0  0  0  0  0  0
  188.1170  173.6310  138.2880 C   0  0  0  0  0  2  0  0  0  0  0  0
  189.7700  175.1900  135.1300 C   0  0  0  0  0  1  0  0  0  0  0  0
  188.5030  174.5010  137.1830 N   0  0  0  0  0  2  0  0  0  0  0  0
  2  1  2  0  0  0  0
  2 37  1  0  0  0  0
  5  6  1  0  0  0  0
  5  8  2  0  0  0  0
  6 10  2  0  0  0  0
  7  4  1  0  0  0  0
  7  3  1  1  0  0  0
  8  9  1  0  0  0  0
  9  2  1  0  0  0  0
  9  4  2  0  0  0  0
 10 29  1  0  0  0  0
 10  7  1  0  0  0  0
 11 12  1  0  0  0  0
 12  6  1  0  0  0  0
 13 11  2  0  0  0  0
 14 11  1  0  0  0  0
 15 22  1  0  0  0  0
 17 14  1  0  0  0  0
 17 25  1  0  0  0  0
 18 19  2  0  0  0  0
 19 25  1  0  0  0  0
 20 16  1  0  0  0  0
 21 18  1  0  0  0  0
 21 17  2  0  0  0  0
 22 20  1  0  0  0  0
 23 15  1  0  0  0  0
 23 24  1  0  0  0  0
 24 16  1  0  0  0  0
 25 26  1  0  0  0  0
 26 27  2  0  0  0  0
 26 15  1  0  0  0  0
 29 28  1  0  0  0  0
 30 34  1  0  0  0  0
 31 30  1  0  0  0  0
 33 36  1  0  0  0  0
 34 32  1  0  0  0  0
 35 33  1  0  0  0  0
 35 30  2  0  0  0  0
 36  1  1  6  0  0  0
 36 32  1  0  0  0  0
 39 38  1  0  0  0  0
 39 41  1  0  0  0  0
 40 41  2  0  0  0  0
 41 37  1  0  0  0  0
 43 42  1  1  0  0  0
 43 39  1  0  0  0  0
 44 45  1  0  0  0  0
 45 47  1  0  0  0  0
 46 44  2  0  0  0  0
 47 43  1  6  0  0  0
 49 48  2  0  0  0  0
 49 47  1  0  0  0  0
 50 44  1  0  0  0  0
 51 50  1  1  0  0  0
 51 49  1  0  0  0  0
 53 56  2  0  0  0  0
 53 54  1  0  0  0  0
 55 54  1  6  0  0  0
 55 51  1  0  0  0  0
 55 52  1  0  0  0  0
 56 59  1  0  0  0  0
 57 52  1  0  0  0  0
 58 56  1  0  0  0  0
 59 57  1  0  0  0  0
M  END
>  <MODEL>
2

>  <REMARK>
 VINA RESULT:      -8.7      2.277      3.872
  Name = 
  11 active torsions:
  status: ('A' for Active; 'I' for Inactive)
    1  A    between atoms: O_6  and  C_55
    2  A    between atoms: C_12  and  C_40
    3  A    between atoms: N_18  and  C_48
    4  A    between atoms: N_19  and  C_28
    5  A    between atoms: C_20  and  C_40
    6  A    between atoms: C_24  and  C_48
    7  A    between atoms: C_30  and  C_59
    8  A    between atoms: C_32  and  C_57
    9  A    between atoms: C_34  and  C_43
   10  A    between atoms: C_43  and  C_58
   11  A    between atoms: C_51  and  C_58
                            x       y       z     vdW  Elec       q    Type
                         _______ _______ _______ _____ _____    ______ ____

>  <TORSDO>
F 11

$$$$
=
 OpenBabel11042419093D

 59 64  0  0  1  0  0  0  0  0999 V2000
  186.6070  176.4940  142.5320 C   0  0  0  0  0  3  0  0  0  0  0  0
  187.9030  176.1380  142.5190 C   0  0  0  0  0  0  0  0  0  0  0  0
  189.3780  174.5530  147.1970 Cl  0  0  0  0  0  0  0  0  0  0  0  0
  188.9410  175.3960  144.6400 C   0  0  0  0  0  3  0  0  0  0  0  0
  190.9440  177.6640  144.1490 C   0  0  0  0  0  3  0  0  0  0  0  0
  191.7970  176.5990  144.7260 C   0  0  0  0  0  0  0  0  0  0  0  0
  189.8410  175.5780  145.8120 C   0  0  2  0  0  3  0  0  0  0  0  0
  189.6920  177.5360  143.6850 C   0  0  0  0  0  3  0  0  0  0  0  0
  188.8620  176.3020  143.6550 C   0  0  0  0  0  0  0  0  0  0  0  0
  191.2920  175.5460  145.3980 C   0  0  0  0  0  0  0  0  0  0  0  0
  194.2540  176.7980  145.3730 C   0  0  0  0  0  0  0  0  0  0  0  0
  193.1950  176.6760  144.4170 N   0  0  0  0  0  2  0  0  0  0  0  0
  194.0070  177.1090  146.5680 O   0  0  0  0  0  0  0  0  0  0  0  0
  195.6670  176.5890  144.9400 C   0  0  0  0  0  2  0  0  0  0  0  0
  196.1660  172.1480  144.9080 N   0  0  0  0  0  0  0  0  0  0  0  0
  196.0900  169.3090  144.6920 C   0  0  0  0  0  2  0  0  0  0  0  0
  195.7340  175.6980  143.7390 C   0  0  0  0  0  0  0  0  0  0  0  0
  195.6170  174.9890  141.6550 C   0  0  0  0  0  3  0  0  0  0  0  0
  195.9400  173.9370  142.4940 C   0  0  0  0  0  3  0  0  0  0  0  0
  197.2220  170.0030  145.4430 C   0  0  0  0  0  2  0  0  0  0  0  0
  195.4820  176.1170  142.4480 C   0  0  0  0  0  3  0  0  0  0  0  0
  196.7400  171.3460  145.9870 C   0  0  0  0  0  2  0  0  0  0  0  0
  195.1260  171.5350  144.0810 C   0  0  0  0  0  2  0  0  0  0  0  0
  195.6100  170.1900  143.5430 C   0  0  0  0  0  2  0  0  0  0  0  0
  196.0030  174.3760  143.7650 N   0  0  0  0  0  0  0  0  0  0  0  0
  196.3460  173.5750  144.9120 C   0  0  0  0  0  0  0  0  0  0  0  0
  196.8370  174.1340  145.9330 O   0  0  0  0  0  0  0  0  0  0  0  0
  191.9930  173.1900  144.9910 C   0  0  0  0  0  1  0  0  0  0  0  0
  192.1260  174.4420  145.6440 O   0  0  0  0  0  0  0  0  0  0  0  0
  185.4140  178.4060  146.1830 C   0  0  0  0  0  0  0  0  0  0  0  0
  184.8630  179.0360  147.4140 C   0  0  0  0  0  1  0  0  0  0  0  0
  186.4320  178.5610  143.8700 C   0  0  0  0  0  2  0  0  0  0  0  0
  186.0830  176.3440  144.9360 C   0  0  0  0  0  2  0  0  0  0  0  0
  185.6290  179.2690  144.9600 C   0  0  0  0  0  2  0  0  0  0  0  0
  185.5420  177.0680  146.1420 C   0  0  0  0  0  3  0  0  0  0  0  0
  185.8830  177.1550  143.6560 C   0  0  2  0  0  3  0  0  0  0  0  0
  188.4050  175.5560  141.2310 C   0  0  0  0  0  2  0  0  0  0  0  0
  191.0780  174.4250  141.7040 C   0  0  0  0  0  1  0  0  0  0  0  0
  189.9410  173.5360  141.5150 N   0  0  0  0  0  0  0  0  0  0  0  0
  187.6370  173.2870  141.1890 O   0  0  0  0  0  0  0  0  0  0  0  0
  188.6180  174.0700  141.3250 C   0  0  0  0  0  0  0  0  0  0  0  0
  189.6500  171.5410  142.7060 O   0  0  0  0  0  1  0  0  0  0  0  0
  190.1950  172.0950  141.5440 C   0  0  2  0  0  3  0  0  0  0  0  0
  192.2370  169.3810  142.0260 C   0  0  0  0  0  0  0  0  0  0  0  0
  192.0700  170.7470  142.4020 N   0  0  0  0  0  2  0  0  0  0  0  0
  192.4160  168.5050  142.9090 O   0  0  0  0  0  0  0  0  0  0  0  0
  191.6940  171.7870  141.4480 C   0  0  1  0  0  3  0  0  0  0  0  0
  192.6160  172.3390  139.2490 C   0  0  0  0  0  2  0  0  0  0  0  0
  192.0950  171.4090  140.0430 C   0  0  0  0  0  0  0  0  0  0  0  0
  192.2220  169.0100  140.6470 N   0  0  0  0  0  2  0  0  0  0  0  0
  192.0320  169.9780  139.5660 C   0  0  1  0  0  3  0  0  0  0  0  0
  190.2710  170.9290  138.0260 C   0  0  0  0  0  2  0  0  0  0  0  0
  191.8120  168.6480  136.6130 C   0  0  0  0  0  2  0  0  0  0  0  0
  190.9320  168.4320  137.8090 C   0  0  0  0  0  2  0  0  0  0  0  0
  190.7900  169.6640  138.7220 C   0  0  1  0  0  3  0  0  0  0  0  0
  191.5850  169.5340  135.6390 C   0  0  0  0  0  0  0  0  0  0  0  0
  189.5250  170.6270  136.7320 C   0  0  0  0  0  2  0  0  0  0  0  0
  192.5500  169.5920  134.5130 C   0  0  0  0  0  1  0  0  0  0  0  0
  190.4820  170.4530  135.6450 N   0  0  0  0  0  0  0  0  0  0  0  0
  2  1  2  0  0  0  0
  2  9  1  0  0  0  0
  4  7  1  0  0  0  0
  5  6  1  0  0  0  0
  6 10  2  0  0  0  0
  7  3  1  1  0  0  0
  8  5  2  0  0  0  0
  9  8  1  0  0  0  0
  9  4  2  0  0  0  0
 10 29  1  0  0  0  0
 10  7  1  0  0  0  0
 11 13  2  0  0  0  0
 12  6  1  0  0  0  0
 12 11  1  0  0  0  0
 14 11  1  0  0  0  0
 15 26  1  0  0  0  0
 15 22  1  0  0  0  0
 16 20  1  0  0  0  0
 17 25  1  0  0  0  0
 17 14  1  0  0  0  0
 18 21  1  0  0  0  0
 18 19  2  0  0  0  0
 19 25  1  0  0  0  0
 20 22  1  0  0  0  0
 21 17  2  0  0  0  0
 23 15  1  0  0  0  0
 24 23  1  0  0  0  0
 24 16  1  0  0  0  0
 25 26  1  0  0  0  0
 26 27  2  0  0  0  0
 28 29  1  0  0  0  0
 30 31  1  0  0  0  0
 32 34  1  0  0  0  0
 33 35  1  0  0  0  0
 34 30  1  0  0  0  0
 35 30  2  0  0  0  0
 36  1  1  6  0  0  0
 36 32  1  0  0  0  0
 36 33  1  0  0  0  0
 37 41  1  0  0  0  0
 37  2  1  0  0  0  0
 39 43  1  0  0  0  0
 39 38  1  0  0  0  0
 40 41  2  0  0  0  0
 41 39  1  0  0  0  0
 43 42  1  1  0  0  0
 44 45  1  0  0  0  0
 44 46  2  0  0  0  0
 47 43  1  6  0  0  0
 47 45  1  0  0  0  0
 48 49  2  0  0  0  0
 49 47  1  0  0  0  0
 50 44  1  0  0  0  0
 51 49  1  1  0  0  0
 51 50  1  0  0  0  0
 52 55  1  0  0  0  0
 53 54  1  0  0  0  0
 55 54  1  6  0  0  0
 55 51  1  0  0  0  0
 56 59  2  0  0  0  0
 56 53  1  0  0  0  0
 57 52  1  0  0  0  0
 58 56  1  0  0  0  0
 59 57  1  0  0  0  0
M  END
>  <MODEL>
3

>  <REMARK>
 VINA RESULT:      -8.7      1.165      2.292
  Name = 
  11 active torsions:
  status: ('A' for Active; 'I' for Inactive)
    1  A    between atoms: O_6  and  C_55
    2  A    between atoms: C_12  and  C_40
    3  A    between atoms: N_18  and  C_48
    4  A    between atoms: N_19  and  C_28
    5  A    between atoms: C_20  and  C_40
    6  A    between atoms: C_24  and  C_48
    7  A    between atoms: C_30  and  C_59
    8  A    between atoms: C_32  and  C_57
    9  A    between atoms: C_34  and  C_43
   10  A    between atoms: C_43  and  C_58
   11  A    between atoms: C_51  and  C_58
                            x       y       z     vdW  Elec       q    Type
                         _______ _______ _______ _____ _____    ______ ____

>  <TORSDO>
F 11

$$$$
=
 OpenBabel11042419093D

 59 64  0  0  1  0  0  0  0  0999 V2000
  187.8260  175.1620  142.8580 C   0  0  0  0  0  3  0  0  0  0  0  0
  188.9980  174.5670  143.1360 C   0  0  0  0  0  0  0  0  0  0  0  0
  191.4180  175.2900  147.6300 Cl  0  0  0  0  0  0  0  0  0  0  0  0
  190.4590  174.8570  145.1130 C   0  0  0  0  0  3  0  0  0  0  0  0
  192.2130  176.5390  143.2440 C   0  0  0  0  0  3  0  0  0  0  0  0
  193.2140  175.8310  144.0750 C   0  0  0  0  0  0  0  0  0  0  0  0
  191.5560  175.5260  145.8660 C   0  0  2  0  0  3  0  0  0  0  0  0
  190.9030  176.2660  143.1440 C   0  0  0  0  0  3  0  0  0  0  0  0
  190.1480  175.2000  143.8560 C   0  0  0  0  0  0  0  0  0  0  0  0
  192.9010  175.2380  145.2450 C   0  0  0  0  0  0  0  0  0  0  0  0
  195.6880  176.4160  143.9070 C   0  0  0  0  0  0  0  0  0  0  0  0
  194.5210  175.6910  143.5030 N   0  0  0  0  0  2  0  0  0  0  0  0
  195.5900  177.4350  144.6400 O   0  0  0  0  0  0  0  0  0  0  0  0
  197.0310  175.9800  143.4240 C   0  0  0  0  0  2  0  0  0  0  0  0
  196.4320  171.5510  143.3830 N   0  0  0  0  0  0  0  0  0  0  0  0
  195.6710  168.8150  143.1520 C   0  0  0  0  0  2  0  0  0  0  0  0
  196.9080  175.0970  142.2200 C   0  0  0  0  0  0  0  0  0  0  0  0
  196.6720  174.4350  140.1310 C   0  0  0  0  0  3  0  0  0  0  0  0
  196.7080  173.3380  140.9730 C   0  0  0  0  0  3  0  0  0  0  0  0
  196.9200  169.2140  143.9330 C   0  0  0  0  0  2  0  0  0  0  0  0
  196.7970  175.5630  140.9250 C   0  0  0  0  0  3  0  0  0  0  0  0
  196.7670  170.6340  144.4720 C   0  0  0  0  0  2  0  0  0  0  0  0
  195.2950  171.2090  142.5280 C   0  0  0  0  0  2  0  0  0  0  0  0
  195.4490  169.7850  141.9960 C   0  0  0  0  0  2  0  0  0  0  0  0
  196.8460  173.7490  142.2470 N   0  0  0  0  0  0  0  0  0  0  0  0
  196.9550  172.8910  143.3980 C   0  0  0  0  0  0  0  0  0  0  0  0
  197.5430  173.3140  144.4330 O   0  0  0  0  0  0  0  0  0  0  0  0
  193.8470  172.9510  145.5310 C   0  0  0  0  0  1  0  0  0  0  0  0
  193.8220  174.3420  145.8120 O   0  0  0  0  0  0  0  0  0  0  0  0
  185.8770  178.8260  143.9470 C   0  0  0  0  0  0  0  0  0  0  0  0
  185.3120  180.1670  144.2630 C   0  0  0  0  0  1  0  0  0  0  0  0
  187.0450  176.6870  144.6350 C   0  0  0  0  0  2  0  0  0  0  0  0
  186.2770  176.9960  142.2920 C   0  0  0  0  0  2  0  0  0  0  0  0
  186.7530  178.1480  144.9770 C   0  0  0  0  0  2  0  0  0  0  0  0
  185.7330  178.3390  142.7030 C   0  0  0  0  0  3  0  0  0  0  0  0
  187.4550  176.5720  143.1710 C   0  0  2  0  0  3  0  0  0  0  0  0
  189.1450  173.1570  142.6460 C   0  0  0  0  0  2  0  0  0  0  0  0
  188.1980  172.8300  139.8820 C   0  0  0  0  0  1  0  0  0  0  0  0
  189.6260  172.8500  140.1570 N   0  0  0  0  0  0  0  0  0  0  0  0
  191.3530  173.0940  141.7190 O   0  0  0  0  0  0  0  0  0  0  0  0
  190.1100  173.0520  141.4980 C   0  0  0  0  0  0  0  0  0  0  0  0
  190.4820  173.8010  138.1950 O   0  0  0  0  0  1  0  0  0  0  0  0
  190.5380  172.6780  139.0250 C   0  0  2  0  0  3  0  0  0  0  0  0
  191.4240  171.3020  136.0110 C   0  0  0  0  0  0  0  0  0  0  0  0
  190.2880  171.6530  136.7990 N   0  0  0  0  0  2  0  0  0  0  0  0
  191.4930  171.6710  134.8110 O   0  0  0  0  0  0  0  0  0  0  0  0
  190.2180  171.4030  138.2360 C   0  0  1  0  0  3  0  0  0  0  0  0
  190.6830  169.3730  139.5230 C   0  0  0  0  0  2  0  0  0  0  0  0
  191.1200  170.2600  138.6350 C   0  0  0  0  0  0  0  0  0  0  0  0
  192.4720  170.5140  136.5750 N   0  0  0  0  0  2  0  0  0  0  0  0
  192.4510  170.0370  137.9580 C   0  0  1  0  0  3  0  0  0  0  0  0
  194.9610  169.9690  138.2340 C   0  0  0  0  0  2  0  0  0  0  0  0
  194.0130  172.8750  137.7580 C   0  0  0  0  0  2  0  0  0  0  0  0
  193.6590  172.0820  138.9810 C   0  0  0  0  0  2  0  0  0  0  0  0
  193.6480  170.5580  138.7660 C   0  0  1  0  0  3  0  0  0  0  0  0
  195.1760  172.8050  137.1040 C   0  0  0  0  0  0  0  0  0  0  0  0
  196.1600  170.8730  138.4920 C   0  0  0  0  0  2  0  0  0  0  0  0
  195.3660  173.6870  135.9250 C   0  0  0  0  0  1  0  0  0  0  0  0
  196.2320  171.8980  137.4580 N   0  0  0  0  0  0  0  0  0  0  0  0
  1  2  2  0  0  0  0
  2  9  1  0  0  0  0
  4  7  1  0  0  0  0
  5  6  1  0  0  0  0
  6 10  2  0  0  0  0
  7  3  1  1  0  0  0
  8  5  2  0  0  0  0
  8  9  1  0  0  0  0
  9  4  2  0  0  0  0
 10 29  1  0  0  0  0
 10  7  1  0  0  0  0
 11 13  2  0  0  0  0
 12 11  1  0  0  0  0
 12  6  1  0  0  0  0
 14 11  1  0  0  0  0
 15 26  1  0  0  0  0
 15 22  1  0  0  0  0
 16 20  1  0  0  0  0
 17 25  1  0  0  0  0
 17 14  1  0  0  0  0
 18 21  1  0  0  0  0
 18 19  2  0  0  0  0
 19 25  1  0  0  0  0
 20 22  1  0  0  0  0
 21 17  2  0  0  0  0
 23 15  1  0  0  0  0
 24 23  1  0  0  0  0
 24 16  1  0  0  0  0
 25 26  1  0  0  0  0
 26 27  2  0  0  0  0
 28 29  1  0  0  0  0
 30 31  1  0  0  0  0
 30 34  1  0  0  0  0
 32 34  1  0  0  0  0
 33 35  1  0  0  0  0
 33 36  1  0  0  0  0
 35 30  2  0  0  0  0
 36  1  1  6  0  0  0
 36 32  1  0  0  0  0
 37  2  1  0  0  0  0
 38 39  1  0  0  0  0
 39 41  1  0  0  0  0
 41 40  2  0  0  0  0
 41 37  1  0  0  0  0
 43 42  1  6  0  0  0
 43 39  1  0  0  0  0
 44 50  1  0  0  0  0
 44 45  1  0  0  0  0
 45 47  1  0  0  0  0
 46 44  2  0  0  0  0
 47 49  1  0  0  0  0
 47 43  1  1  0  0  0
 49 48  2  0  0  0  0
 51 50  1  6  0  0  0
 51 49  1  0  0  0  0
 51 55  1  0  0  0  0
 52 57  1  0  0  0  0
 53 54  1  0  0  0  0
 55 52  1  6  0  0  0
 55 54  1  0  0  0  0
 56 59  2  0  0  0  0
 56 53  1  0  0  0  0
 58 56  1  0  0  0  0
 59 57  1  0  0  0  0
M  END
>  <MODEL>
4

>  <REMARK>
 VINA RESULT:      -8.4      2.331      3.903
  Name = 
  11 active torsions:
  status: ('A' for Active; 'I' for Inactive)
    1  A    between atoms: O_6  and  C_55
    2  A    between atoms: C_12  and  C_40
    3  A    between atoms: N_18  and  C_48
    4  A    between atoms: N_19  and  C_28
    5  A    between atoms: C_20  and  C_40
    6  A    between atoms: C_24  and  C_48
    7  A    between atoms: C_30  and  C_59
    8  A    between atoms: C_32  and  C_57
    9  A    between atoms: C_34  and  C_43
   10  A    between atoms: C_43  and  C_58
   11  A    between atoms: C_51  and  C_58
                            x       y       z     vdW  Elec       q    Type
                         _______ _______ _______ _____ _____    ______ ____

>  <TORSDO>
F 11

$$$$
=
 OpenBabel11042419093D

 59 64  0  0  1  0  0  0  0  0999 V2000
  188.8910  174.7370  144.8750 C   0  0  0  0  0  3  0  0  0  0  0  0
  190.1630  174.3090  144.7910 C   0  0  0  0  0  0  0  0  0  0  0  0
  194.1880  176.9750  146.5970 Cl  0  0  0  0  0  0  0  0  0  0  0  0
  192.2790  175.4420  145.3940 C   0  0  0  0  0  3  0  0  0  0  0  0
  192.5470  175.9740  142.3870 C   0  0  0  0  0  3  0  0  0  0  0  0
  193.9450  175.7040  142.7920 C   0  0  0  0  0  0  0  0  0  0  0  0
  193.4290  176.3450  145.1100 C   0  0  2  0  0  3  0  0  0  0  0  0
  191.4360  175.7360  143.1010 C   0  0  0  0  0  3  0  0  0  0  0  0
  191.3500  175.1620  144.4710 C   0  0  0  0  0  0  0  0  0  0  0  0
  194.3530  175.7460  144.0770 C   0  0  0  0  0  0  0  0  0  0  0  0
  195.9870  175.9620  141.2900 C   0  0  0  0  0  0  0  0  0  0  0  0
  194.8280  175.2600  141.7540 N   0  0  0  0  0  2  0  0  0  0  0  0
  196.1740  177.1690  141.5970 O   0  0  0  0  0  0  0  0  0  0  0  0
  196.9660  175.2650  140.4040 C   0  0  0  0  0  2  0  0  0  0  0  0
  195.1930  172.8120  137.1160 N   0  0  0  0  0  0  0  0  0  0  0  0
  194.4510  171.0420  135.0120 C   0  0  0  0  0  2  0  0  0  0  0  0
  196.7340  173.7860  140.4070 C   0  0  0  0  0  0  0  0  0  0  0  0
  196.7980  171.6630  140.9970 C   0  0  0  0  0  3  0  0  0  0  0  0
  196.1180  171.8010  139.7990 C   0  0  0  0  0  3  0  0  0  0  0  0
  193.5180  172.1660  135.4490 C   0  0  0  0  0  2  0  0  0  0  0  0
  197.1960  172.9310  141.3880 C   0  0  0  0  0  3  0  0  0  0  0  0
  194.3280  173.3130  136.0490 C   0  0  0  0  0  2  0  0  0  0  0  0
  196.0680  171.6800  136.8100 C   0  0  0  0  0  2  0  0  0  0  0  0
  195.2550  170.5370  136.2060 C   0  0  0  0  0  2  0  0  0  0  0  0
  196.0880  173.0980  139.4420 N   0  0  0  0  0  0  0  0  0  0  0  0
  195.4390  173.6310  138.2730 C   0  0  0  0  0  0  0  0  0  0  0  0
  195.0550  174.8350  138.2710 O   0  0  0  0  0  0  0  0  0  0  0  0
  195.7580  173.9790  145.1290 C   0  0  0  0  0  1  0  0  0  0  0  0
  195.5990  175.1890  144.4060 O   0  0  0  0  0  0  0  0  0  0  0  0
  186.6230  178.2970  144.1090 C   0  0  0  0  0  0  0  0  0  0  0  0
  185.9610  179.5970  143.8100 C   0  0  0  0  0  1  0  0  0  0  0  0
  187.4570  176.5500  145.7400 C   0  0  0  0  0  2  0  0  0  0  0  0
  187.6640  176.1750  143.2930 C   0  0  0  0  0  2  0  0  0  0  0  0
  187.0340  178.0040  145.5340 C   0  0  0  0  0  2  0  0  0  0  0  0
  186.9840  177.5040  143.0860 C   0  0  0  0  0  3  0  0  0  0  0  0
  188.4080  176.1260  144.6270 C   0  0  2  0  0  3  0  0  0  0  0  0
  190.3720  172.8410  145.0170 C   0  0  0  0  0  2  0  0  0  0  0  0
  192.7190  171.5360  143.8220 C   0  0  0  0  0  1  0  0  0  0  0  0
  191.4290  171.4540  143.1530 N   0  0  0  0  0  0  0  0  0  0  0  0
  189.1420  171.9480  143.1660 O   0  0  0  0  0  0  0  0  0  0  0  0
  190.2600  172.0490  143.7440 C   0  0  0  0  0  0  0  0  0  0  0  0
  191.3010  169.3580  142.1160 O   0  0  0  0  0  1  0  0  0  0  0  0
  191.3700  170.7340  141.8800 C   0  0  2  0  0  3  0  0  0  0  0  0
  192.9950  169.3130  139.2140 C   0  0  0  0  0  0  0  0  0  0  0  0
  193.2220  169.8540  140.5150 N   0  0  0  0  0  2  0  0  0  0  0  0
  193.4660  168.1880  138.9120 O   0  0  0  0  0  0  0  0  0  0  0  0
  192.5690  171.0720  140.9870 C   0  0  1  0  0  3  0  0  0  0  0  0
  192.3520  173.2720  139.9360 C   0  0  0  0  0  2  0  0  0  0  0  0
  192.1700  171.9590  139.8320 C   0  0  0  0  0  0  0  0  0  0  0  0
  192.2520  170.0570  138.2480 N   0  0  0  0  0  2  0  0  0  0  0  0
  191.6870  171.3780  138.5250 C   0  0  1  0  0  3  0  0  0  0  0  0
  189.5400  172.5060  139.2280 C   0  0  0  0  0  2  0  0  0  0  0  0
  189.8600  172.6330  136.1540 C   0  0  0  0  0  3  0  0  0  0  0  0
  189.6670  171.3520  136.9110 C   0  0  0  0  0  2  0  0  0  0  0  0
  190.1610  171.3980  138.3690 C   0  0  1  0  0  3  0  0  0  0  0  0
  189.3020  173.8050  136.4670 C   0  0  0  0  0  0  0  0  0  0  0  0
  188.2190  173.0180  138.6670 C   0  0  0  0  0  2  0  0  0  0  0  0
  189.5810  174.9670  135.5860 C   0  0  0  0  0  1  0  0  0  0  0  0
  188.4800  174.0070  137.6270 N   0  0  0  0  0  2  0  0  0  0  0  0
  2  1  2  0  0  0  0
  2 37  1  0  0  0  0
  5  6  1  0  0  0  0
  5  8  2  0  0  0  0
  6 10  2  0  0  0  0
  7  4  1  0  0  0  0
  7  3  1  1  0  0  0
  8  9  1  0  0  0  0
  9  2  1  0  0  0  0
  9  4  2  0  0  0  0
 10 29  1  0  0  0  0
 10  7  1  0  0  0  0
 11 13  2  0  0  0  0
 11 12  1  0  0  0  0
 12  6  1  0  0  0  0
 14 17  1  0  0  0  0
 14 11  1  0  0  0  0
 15 26  1  0  0  0  0
 16 20  1  0  0  0  0
 16 24  1  0  0  0  0
 17 21  2  0  0  0  0
 18 21  1  0  0  0  0
 19 18  2  0  0  0  0
 20 22  1  0  0  0  0
 22 15  1  0  0  0  0
 23 15  1  0  0  0  0
 24 23  1  0  0  0  0
 25 19  1  0  0  0  0
 25 17  1  0  0  0  0
 26 25  1  0  0  0  0
 27 26  2  0  0  0  0
 29 28  1  0  0  0  0
 30 34  1  0  0  0  0
 31 30  1  0  0  0  0
 33 36  1  0  0  0  0
 34 32  1  0  0  0  0
 35 33  1  0  0  0  0
 35 30  2  0  0  0  0
 36  1  1  1  0  0  0
 36 32  1  0  0  0  0
 39 41  1  0  0  0  0
 39 38  1  0  0  0  0
 40 41  2  0  0  0  0
 41 37  1  0  0  0  0
 43 42  1  1  0  0  0
 43 39  1  0  0  0  0
 44 45  1  0  0  0  0
 45 47  1  0  0  0  0
 46 44  2  0  0  0  0
 47 43  1  6  0  0  0
 49 48  2  0  0  0  0
 49 47  1  0  0  0  0
 50 44  1  0  0  0  0
 51 50  1  1  0  0  0
 51 49  1  0  0  0  0
 53 56  2  0  0  0  0
 53 54  1  0  0  0  0
 55 54  1  6  0  0  0
 55 51  1  0  0  0  0
 55 52  1  0  0  0  0
 56 59  1  0  0  0  0
 57 52  1  0  0  0  0
 58 56  1  0  0  0  0
 59 57  1  0  0  0  0
M  END
>  <MODEL>
5

>  <REMARK>
 VINA RESULT:      -8.3      2.281      3.807
  Name = 
  11 active torsions:
  status: ('A' for Active; 'I' for Inactive)
    1  A    between atoms: O_6  and  C_55
    2  A    between atoms: C_12  and  C_40
    3  A    between atoms: N_18  and  C_48
    4  A    between atoms: N_19  and  C_28
    5  A    between atoms: C_20  and  C_40
    6  A    between atoms: C_24  and  C_48
    7  A    between atoms: C_30  and  C_59
    8  A    between atoms: C_32  and  C_57
    9  A    between atoms: C_34  and  C_43
   10  A    between atoms: C_43  and  C_58
   11  A    between atoms: C_51  and  C_58
                            x       y       z     vdW  Elec       q    Type
                         _______ _______ _______ _____ _____    ______ ____

>  <TORSDO>
F 11

$$$$
=
 OpenBabel11042419093D

 59 64  0  0  1  0  0  0  0  0999 V2000
  194.0090  173.9070  145.0370 C   0  0  0  0  0  3  0  0  0  0  0  0
  193.7920  174.9080  144.1660 C   0  0  0  0  0  0  0  0  0  0  0  0
  196.4500  174.7830  139.7510 Cl  0  0  0  0  0  0  0  0  0  0  0  0
  194.8610  174.5760  141.9580 C   0  0  0  0  0  3  0  0  0  0  0  0
  191.9960  174.2860  140.9080 C   0  0  0  0  0  3  0  0  0  0  0  0
  192.7370  173.2860  140.1040 C   0  0  0  0  0  0  0  0  0  0  0  0
  194.8410  174.5060  140.4710 C   0  0  2  0  0  3  0  0  0  0  0  0
  192.4240  174.9160  142.0120 C   0  0  0  0  0  3  0  0  0  0  0  0
  193.7470  174.7720  142.6770 C   0  0  0  0  0  0  0  0  0  0  0  0
  194.0800  173.2950  139.9900 C   0  0  0  0  0  0  0  0  0  0  0  0
  191.0830  171.3580  140.2920 C   0  0  0  0  0  0  0  0  0  0  0  0
  191.9570  172.2170  139.5530 N   0  0  0  0  0  2  0  0  0  0  0  0
  191.1330  171.3180  141.5500 O   0  0  0  0  0  0  0  0  0  0  0  0
  190.1270  170.4730  139.5630 C   0  0  0  0  0  2  0  0  0  0  0  0
  188.6160  174.0240  137.3090 N   0  0  0  0  0  0  0  0  0  0  0  0
  188.0720  176.3510  135.7580 C   0  0  0  0  0  2  0  0  0  0  0  0
  190.2040  170.7030  138.0850 C   0  0  0  0  0  0  0  0  0  0  0  0
  190.7540  170.4790  135.9620 C   0  0  0  0  0  3  0  0  0  0  0  0
  189.9580  171.5990  136.1290 C   0  0  0  0  0  3  0  0  0  0  0  0
  186.9700  175.6840  136.5750 C   0  0  0  0  0  2  0  0  0  0  0  0
  190.9160  169.9040  137.2120 C   0  0  0  0  0  3  0  0  0  0  0  0
  187.5770  174.9460  137.7660 C   0  0  0  0  0  2  0  0  0  0  0  0
  189.6740  174.5590  136.4520 C   0  0  0  0  0  2  0  0  0  0  0  0
  189.0630  175.3010  135.2660 C   0  0  0  0  0  2  0  0  0  0  0  0
  189.6320  171.7330  137.4280 N   0  0  0  0  0  0  0  0  0  0  0  0
  188.7880  172.7620  137.9780 C   0  0  0  0  0  0  0  0  0  0  0  0
  188.1670  172.5440  139.0560 O   0  0  0  0  0  0  0  0  0  0  0  0
  195.3650  171.1780  140.2710 C   0  0  0  0  0  1  0  0  0  0  0  0
  194.7180  172.1560  139.4710 O   0  0  0  0  0  0  0  0  0  0  0  0
  194.4170  169.6370  144.9380 C   0  0  0  0  0  0  0  0  0  0  0  0
  194.6510  168.1740  144.7940 C   0  0  0  0  0  1  0  0  0  0  0  0
  192.9780  171.7000  144.6410 C   0  0  0  0  0  2  0  0  0  0  0  0
  195.1880  171.8680  145.7650 C   0  0  0  0  0  2  0  0  0  0  0  0
  193.2540  170.2620  144.2010 C   0  0  0  0  0  2  0  0  0  0  0  0
  195.3380  170.3810  145.5770 C   0  0  0  0  0  3  0  0  0  0  0  0
  194.2850  172.4820  144.6940 C   0  0  2  0  0  3  0  0  0  0  0  0
  193.6120  176.2690  144.7710 C   0  0  0  0  0  2  0  0  0  0  0  0
  191.4050  177.7630  143.5280 C   0  0  0  0  0  1  0  0  0  0  0  0
  191.2300  177.1840  144.8520 N   0  0  0  0  0  0  0  0  0  0  0  0
  192.1070  175.8940  146.5960 O   0  0  0  0  0  0  0  0  0  0  0  0
  192.2830  176.4130  145.4590 C   0  0  0  0  0  0  0  0  0  0  0  0
  190.1620  177.9290  146.7980 O   0  0  0  0  0  1  0  0  0  0  0  0
  189.9470  177.4010  145.5220 C   0  0  2  0  0  3  0  0  0  0  0  0
  186.6820  176.5260  146.1050 C   0  0  0  0  0  0  0  0  0  0  0  0
  188.0160  176.2550  146.5340 N   0  0  0  0  0  2  0  0  0  0  0  0
  185.7920  176.7890  146.9530 O   0  0  0  0  0  0  0  0  0  0  0  0
  189.1280  176.1070  145.6010 C   0  0  1  0  0  3  0  0  0  0  0  0
  189.3360  174.7520  143.5730 C   0  0  0  0  0  2  0  0  0  0  0  0
  188.6440  175.6700  144.2400 C   0  0  0  0  0  0  0  0  0  0  0  0
  186.3510  176.4770  144.7180 N   0  0  0  0  0  2  0  0  0  0  0  0
  187.3320  176.1630  143.6770 C   0  0  1  0  0  3  0  0  0  0  0  0
  187.2510  176.8010  141.2350 C   0  0  0  0  0  2  0  0  0  0  0  0
  185.2370  178.5010  142.8540 C   0  0  0  0  0  2  0  0  0  0  0  0
  186.7230  178.5920  143.0320 C   0  0  0  0  0  2  0  0  0  0  0  0
  187.4850  177.3050  142.6650 C   0  0  1  0  0  3  0  0  0  0  0  0
  184.6110  178.2790  141.6940 C   0  0  0  0  0  0  0  0  0  0  0  0
  186.7410  177.8900  140.3000 C   0  0  0  0  0  2  0  0  0  0  0  0
  183.1270  178.2490  141.6990 C   0  0  0  0  0  1  0  0  0  0  0  0
  185.2980  178.0340  140.4570 N   0  0  0  0  0  0  0  0  0  0  0  0
  2 37  1  0  0  0  0
  2  1  2  0  0  0  0
  4  9  2  0  0  0  0
  5  8  2  0  0  0  0
  6  5  1  0  0  0  0
  7  3  1  1  0  0  0
  7  4  1  0  0  0  0
  8  9  1  0  0  0  0
  9  2  1  0  0  0  0
 10  6  2  0  0  0  0
 10  7  1  0  0  0  0
 11 13  2  0  0  0  0
 12  6  1  0  0  0  0
 12 11  1  0  0  0  0
 14 11  1  0  0  0  0
 15 22  1  0  0  0  0
 15 26  1  0  0  0  0
 16 20  1  0  0  0  0
 17 14  1  0  0  0  0
 18 19  2  0  0  0  0
 18 21  1  0  0  0  0
 19 25  1  0  0  0  0
 20 22  1  0  0  0  0
 21 17  2  0  0  0  0
 23 15  1  0  0  0  0
 24 16  1  0  0  0  0
 24 23  1  0  0  0  0
 25 26  1  0  0  0  0
 25 17  1  0  0  0  0
 26 27  2  0  0  0  0
 29 10  1  0  0  0  0
 29 28  1  0  0  0  0
 30 35  2  0  0  0  0
 31 30  1  0  0  0  0
 32 36  1  0  0  0  0
 34 32  1  0  0  0  0
 34 30  1  0  0  0  0
 35 33  1  0  0  0  0
 36  1  1  1  0  0  0
 36 33  1  0  0  0  0
 37 41  1  0  0  0  0
 38 39  1  0  0  0  0
 39 41  1  0  0  0  0
 39 43  1  0  0  0  0
 41 40  2  0  0  0  0
 43 42  1  1  0  0  0
 44 45  1  0  0  0  0
 44 46  2  0  0  0  0
 47 43  1  6  0  0  0
 47 45  1  0  0  0  0
 48 49  2  0  0  0  0
 49 47  1  0  0  0  0
 50 44  1  0  0  0  0
 51 49  1  1  0  0  0
 51 50  1  0  0  0  0
 53 54  1  0  0  0  0
 55 52  1  6  0  0  0
 55 54  1  0  0  0  0
 55 51  1  0  0  0  0
 56 58  1  0  0  0  0
 56 53  1  0  0  0  0
 57 59  1  0  0  0  0
 57 52  1  0  0  0  0
 59 56  2  0  0  0  0
M  END
>  <MODEL>
6

>  <REMARK>
 VINA RESULT:      -8.3      3.214      9.126
  Name = 
  11 active torsions:
  status: ('A' for Active; 'I' for Inactive)
    1  A    between atoms: O_6  and  C_55
    2  A    between atoms: C_12  and  C_40
    3  A    between atoms: N_18  and  C_48
    4  A    between atoms: N_19  and  C_28
    5  A    between atoms: C_20  and  C_40
    6  A    between atoms: C_24  and  C_48
    7  A    between atoms: C_30  and  C_59
    8  A    between atoms: C_32  and  C_57
    9  A    between atoms: C_34  and  C_43
   10  A    between atoms: C_43  and  C_58
   11  A    between atoms: C_51  and  C_58
                            x       y       z     vdW  Elec       q    Type
                         _______ _______ _______ _____ _____    ______ ____

>  <TORSDO>
F 11

$$$$
=
 OpenBabel11042419093D

 59 64  0  0  1  0  0  0  0  0999 V2000
  192.5610  171.0620  142.3940 C   0  0  0  0  0  3  0  0  0  0  0  0
  193.7550  171.0890  143.0110 C   0  0  0  0  0  0  0  0  0  0  0  0
  197.7060  174.0910  144.4090 Cl  0  0  0  0  0  0  0  0  0  0  0  0
  195.4170  172.7950  143.6880 C   0  0  0  0  0  3  0  0  0  0  0  0
  193.2620  173.7360  145.6550 C   0  0  0  0  0  3  0  0  0  0  0  0
  193.8770  175.0100  145.2160 C   0  0  0  0  0  0  0  0  0  0  0  0
  195.9510  173.8340  144.6100 C   0  0  2  0  0  3  0  0  0  0  0  0
  193.4140  172.5270  145.0920 C   0  0  0  0  0  3  0  0  0  0  0  0
  194.2460  172.1810  143.9090 C   0  0  0  0  0  0  0  0  0  0  0  0
  195.0800  175.0670  144.6090 C   0  0  0  0  0  0  0  0  0  0  0  0
  191.8630  176.4520  144.6200 C   0  0  0  0  0  0  0  0  0  0  0  0
  193.0640  176.1820  145.3530 N   0  0  0  0  0  2  0  0  0  0  0  0
  191.5690  175.7780  143.5980 O   0  0  0  0  0  0  0  0  0  0  0  0
  190.9710  177.5680  145.0510 C   0  0  0  0  0  2  0  0  0  0  0  0
  186.6070  177.9290  145.9460 N   0  0  0  0  0  0  0  0  0  0  0  0
  183.8590  178.5620  146.3450 C   0  0  0  0  0  2  0  0  0  0  0  0
  189.8630  177.7800  144.0660 C   0  0  0  0  0  0  0  0  0  0  0  0
  188.7910  178.2150  142.1900 C   0  0  0  0  0  3  0  0  0  0  0  0
  187.8850  178.0250  143.2190 C   0  0  0  0  0  3  0  0  0  0  0  0
  184.4420  177.2560  146.8760 C   0  0  0  0  0  2  0  0  0  0  0  0
  190.0580  178.0620  142.7290 C   0  0  0  0  0  3  0  0  0  0  0  0
  185.9360  177.4230  147.1430 C   0  0  0  0  0  2  0  0  0  0  0  0
  186.0670  179.1350  145.3190 C   0  0  0  0  0  2  0  0  0  0  0  0
  184.5710  178.9670  145.0590 C   0  0  0  0  0  2  0  0  0  0  0  0
  188.5460  177.7660  144.3620 N   0  0  0  0  0  0  0  0  0  0  0  0
  187.9390  177.4800  145.6360 C   0  0  0  0  0  0  0  0  0  0  0  0
  188.5770  176.8020  146.4890 O   0  0  0  0  0  0  0  0  0  0  0  0
  195.7730  176.3380  142.5820 C   0  0  0  0  0  1  0  0  0  0  0  0
  195.4500  176.2570  143.9610 O   0  0  0  0  0  0  0  0  0  0  0  0
  189.2320  173.6850  141.7220 C   0  0  0  0  0  0  0  0  0  0  0  0
  188.1390  174.6850  141.5830 C   0  0  0  0  0  1  0  0  0  0  0  0
  190.1380  171.4860  142.5940 C   0  0  0  0  0  2  0  0  0  0  0  0
  191.5490  172.9370  141.1520 C   0  0  0  0  0  2  0  0  0  0  0  0
  189.0760  172.5770  142.7390 C   0  0  0  0  0  2  0  0  0  0  0  0
  190.3870  173.8920  141.0660 C   0  0  0  0  0  3  0  0  0  0  0  0
  191.5140  172.1240  142.4460 C   0  0  2  0  0  3  0  0  0  0  0  0
  194.6580  169.9240  142.7340 C   0  0  0  0  0  2  0  0  0  0  0  0
  196.1560  171.1250  140.5070 C   0  0  0  0  0  1  0  0  0  0  0  0
  195.2190  170.0430  140.2460 N   0  0  0  0  0  0  0  0  0  0  0  0
  193.7190  168.4570  141.0890 O   0  0  0  0  0  0  0  0  0  0  0  0
  194.5080  169.4130  141.3280 C   0  0  0  0  0  0  0  0  0  0  0  0
  195.8880  168.5330  138.5860 O   0  0  0  0  0  1  0  0  0  0  0  0
  195.0470  169.6160  138.8570 C   0  0  2  0  0  3  0  0  0  0  0  0
  195.3290  170.0090  135.4610 C   0  0  0  0  0  0  0  0  0  0  0  0
  196.0040  170.2830  136.6880 N   0  0  0  0  0  2  0  0  0  0  0  0
  195.9450  169.4580  134.5140 O   0  0  0  0  0  0  0  0  0  0  0  0
  195.3110  170.7650  137.8780 C   0  0  1  0  0  3  0  0  0  0  0  0
  193.7220  172.6070  138.1590 C   0  0  0  0  0  2  0  0  0  0  0  0
  194.0380  171.4890  137.5130 C   0  0  0  0  0  0  0  0  0  0  0  0
  193.9600  170.3810  135.2980 N   0  0  0  0  0  2  0  0  0  0  0  0
  193.1840  171.0380  136.3510 C   0  0  1  0  0  3  0  0  0  0  0  0
  191.8100  170.1970  138.2960 C   0  0  0  0  0  2  0  0  0  0  0  0
  190.0410  171.8450  136.3650 C   0  0  0  0  0  3  0  0  0  0  0  0
  190.6730  170.5370  135.9910 C   0  0  0  0  0  2  0  0  0  0  0  0
  191.9620  170.2120  136.7690 C   0  0  1  0  0  3  0  0  0  0  0  0
  189.5700  172.1540  137.5770 C   0  0  0  0  0  0  0  0  0  0  0  0
  190.3670  170.0020  138.7440 C   0  0  0  0  0  2  0  0  0  0  0  0
  188.9470  173.4890  137.7610 C   0  0  0  0  0  1  0  0  0  0  0  0
  189.6670  171.2820  138.7130 N   0  0  0  0  0  2  0  0  0  0  0  0
  1  2  2  0  0  0  0
  2  9  1  0  0  0  0
  4  9  2  0  0  0  0
  4  7  1  0  0  0  0
  6 12  1  0  0  0  0
  6  5  1  0  0  0  0
  7  3  1  6  0  0  0
  8  5  2  0  0  0  0
  9  8  1  0  0  0  0
 10  7  1  0  0  0  0
 10  6  2  0  0  0  0
 11 14  1  0  0  0  0
 11 12  1  0  0  0  0
 13 11  2  0  0  0  0
 15 22  1  0  0  0  0
 16 20  1  0  0  0  0
 17 25  1  0  0  0  0
 17 14  1  0  0  0  0
 18 21  1  0  0  0  0
 18 19  2  0  0  0  0
 19 25  1  0  0  0  0
 20 22  1  0  0  0  0
 21 17  2  0  0  0  0
 23 15  1  0  0  0  0
 24 23  1  0  0  0  0
 24 16  1  0  0  0  0
 25 26  1  0  0  0  0
 26 15  1  0  0  0  0
 26 27  2  0  0  0  0
 28 29  1  0  0  0  0
 29 10  1  0  0  0  0
 30 34  1  0  0  0  0
 31 30  1  0  0  0  0
 32 34  1  0  0  0  0
 33 36  1  0  0  0  0
 35 33  1  0  0  0  0
 35 30  2  0  0  0  0
 36  1  1  6  0  0  0
 36 32  1  0  0  0  0
 37  2  1  0  0  0  0
 39 38  1  0  0  0  0
 39 41  1  0  0  0  0
 40 41  2  0  0  0  0
 41 37  1  0  0  0  0
 43 42  1  6  0  0  0
 43 39  1  0  0  0  0
 44 45  1  0  0  0  0
 45 47  1  0  0  0  0
 46 44  2  0  0  0  0
 47 43  1  1  0  0  0
 49 47  1  0  0  0  0
 49 48  2  0  0  0  0
 50 44  1  0  0  0  0
 51 50  1  6  0  0  0
 51 55  1  0  0  0  0
 51 49  1  0  0  0  0
 52 57  1  0  0  0  0
 53 56  2  0  0  0  0
 54 53  1  0  0  0  0
 55 54  1  6  0  0  0
 55 52  1  0  0  0  0
 56 58  1  0  0  0  0
 56 59  1  0  0  0  0
 59 57  1  0  0  0  0
M  END
>  <MODEL>
7

>  <REMARK>
 VINA RESULT:      -8.1      2.913      7.606
  Name = 
  11 active torsions:
  status: ('A' for Active; 'I' for Inactive)
    1  A    between atoms: O_6  and  C_55
    2  A    between atoms: C_12  and  C_40
    3  A    between atoms: N_18  and  C_48
    4  A    between atoms: N_19  and  C_28
    5  A    between atoms: C_20  and  C_40
    6  A    between atoms: C_24  and  C_48
    7  A    between atoms: C_30  and  C_59
    8  A    between atoms: C_32  and  C_57
    9  A    between atoms: C_34  and  C_43
   10  A    between atoms: C_43  and  C_58
   11  A    between atoms: C_51  and  C_58
                            x       y       z     vdW  Elec       q    Type
                         _______ _______ _______ _____ _____    ______ ____

>  <TORSDO>
F 11

$$$$
=
 OpenBabel11042419093D

 59 64  0  0  1  0  0  0  0  0999 V2000
  195.0820  175.8790  144.5090 C   0  0  0  0  0  3  0  0  0  0  0  0
  194.1750  175.1630  145.1960 C   0  0  0  0  0  0  0  0  0  0  0  0
  190.1400  172.0050  144.6320 Cl  0  0  0  0  0  0  0  0  0  0  0  0
  192.3940  173.5400  144.6260 C   0  0  0  0  0  3  0  0  0  0  0  0
  194.7040  171.6410  143.9490 C   0  0  0  0  0  3  0  0  0  0  0  0
  193.7030  171.3190  142.9050 C   0  0  0  0  0  0  0  0  0  0  0  0
  191.8920  172.1700  144.3340 C   0  0  2  0  0  3  0  0  0  0  0  0
  194.7040  172.7020  144.7700 C   0  0  0  0  0  3  0  0  0  0  0  0
  193.6940  173.7920  144.8360 C   0  0  0  0  0  0  0  0  0  0  0  0
  192.4050  171.6700  143.0060 C   0  0  0  0  0  0  0  0  0  0  0  0
  194.9730  171.4010  140.6970 C   0  0  0  0  0  0  0  0  0  0  0  0
  194.2140  170.7230  141.7050 N   0  0  0  0  0  2  0  0  0  0  0  0
  195.0280  172.6590  140.6710 O   0  0  0  0  0  0  0  0  0  0  0  0
  195.6740  170.6090  139.6440 C   0  0  0  0  0  2  0  0  0  0  0  0
  192.0660  171.3940  137.1270 N   0  0  0  0  0  0  0  0  0  0  0  0
  189.8580  172.3200  135.5840 C   0  0  0  0  0  2  0  0  0  0  0  0
  195.6320  171.3150  138.3240 C   0  0  0  0  0  0  0  0  0  0  0  0
  196.2370  172.5140  136.5760 C   0  0  0  0  0  3  0  0  0  0  0  0
  194.9040  172.1550  136.4650 C   0  0  0  0  0  3  0  0  0  0  0  0
  190.0340  170.8330  135.8780 C   0  0  0  0  0  2  0  0  0  0  0  0
  196.7050  171.9800  137.7660 C   0  0  0  0  0  3  0  0  0  0  0  0
  190.8090  170.6480  137.1800 C   0  0  0  0  0  2  0  0  0  0  0  0
  192.0030  172.8120  136.7730 C   0  0  0  0  0  2  0  0  0  0  0  0
  191.2210  172.9940  135.4730 C   0  0  0  0  0  2  0  0  0  0  0  0
  194.5400  171.4290  137.5380 N   0  0  0  0  0  0  0  0  0  0  0  0
  193.2400  170.8520  137.7580 C   0  0  0  0  0  0  0  0  0  0  0  0
  193.1300  169.8350  138.4990 O   0  0  0  0  0  0  0  0  0  0  0  0
  191.3480  172.7000  141.0000 C   0  0  0  0  0  1  0  0  0  0  0  0
  191.5980  171.5990  141.8590 O   0  0  0  0  0  0  0  0  0  0  0  0
  197.1900  175.6720  140.7780 C   0  0  0  0  0  0  0  0  0  0  0  0
  197.8650  175.4670  139.4670 C   0  0  0  0  0  1  0  0  0  0  0  0
  197.2360  175.8160  143.3050 C   0  0  0  0  0  2  0  0  0  0  0  0
  195.1200  176.2230  142.0680 C   0  0  0  0  0  2  0  0  0  0  0  0
  197.9380  175.3170  142.0430 C   0  0  0  0  0  2  0  0  0  0  0  0
  195.8870  176.0020  140.7900 C   0  0  0  0  0  3  0  0  0  0  0  0
  195.7520  175.4720  143.2400 C   0  0  2  0  0  3  0  0  0  0  0  0
  193.5970  175.8340  146.4060 C   0  0  0  0  0  2  0  0  0  0  0  0
  191.1920  175.4180  148.0450 C   0  0  0  0  0  1  0  0  0  0  0  0
  191.1330  176.2980  146.8880 N   0  0  0  0  0  0  0  0  0  0  0  0
  192.2520  177.3350  145.1130 O   0  0  0  0  0  0  0  0  0  0  0  0
  192.3100  176.5490  146.0980 C   0  0  0  0  0  0  0  0  0  0  0  0
  189.5450  177.8910  147.5400 O   0  0  0  0  0  1  0  0  0  0  0  0
  189.8480  176.9240  146.5760 C   0  0  2  0  0  3  0  0  0  0  0  0
  186.4630  176.8240  147.1240 C   0  0  0  0  0  0  0  0  0  0  0  0
  187.6800  176.1600  147.4600 N   0  0  0  0  0  2  0  0  0  0  0  0
  185.6630  177.1660  148.0310 O   0  0  0  0  0  0  0  0  0  0  0  0
  188.7250  175.8850  146.4790 C   0  0  1  0  0  3  0  0  0  0  0  0
  188.5960  174.8630  144.2580 C   0  0  0  0  0  2  0  0  0  0  0  0
  188.1560  175.8080  145.0830 C   0  0  0  0  0  0  0  0  0  0  0  0
  186.1420  177.0830  145.7570 N   0  0  0  0  0  2  0  0  0  0  0  0
  187.0180  176.7010  144.6490 C   0  0  1  0  0  3  0  0  0  0  0  0
  188.2020  177.4660  142.5530 C   0  0  0  0  0  2  0  0  0  0  0  0
  185.3130  178.5710  142.6170 C   0  0  0  0  0  2  0  0  0  0  0  0
  186.3720  178.9740  143.5990 C   0  0  0  0  0  2  0  0  0  0  0  0
  187.4660  177.9130  143.8220 C   0  0  1  0  0  3  0  0  0  0  0  0
  185.5240  178.2960  141.3270 C   0  0  0  0  0  0  0  0  0  0  0  0
  188.0900  178.4760  141.4180 C   0  0  0  0  0  2  0  0  0  0  0  0
  184.3500  177.9410  140.4910 C   0  0  0  0  0  1  0  0  0  0  0  0
  186.8250  178.2890  140.7190 N   0  0  0  0  0  0  0  0  0  0  0  0
  1  2  2  0  0  0  0
  2 37  1  0  0  0  0
  4  9  2  0  0  0  0
  5  8  2  0  0  0  0
  6 10  2  0  0  0  0
  6  5  1  0  0  0  0
  7  4  1  0  0  0  0
  7  3  1  6  0  0  0
  8  9  1  0  0  0  0
  9  2  1  0  0  0  0
 10  7  1  0  0  0  0
 11 12  1  0  0  0  0
 12  6  1  0  0  0  0
 13 11  2  0  0  0  0
 14 11  1  0  0  0  0
 15 22  1  0  0  0  0
 15 26  1  0  0  0  0
 16 20  1  0  0  0  0
 17 14  1  0  0  0  0
 18 21  1  0  0  0  0
 19 18  2  0  0  0  0
 19 25  1  0  0  0  0
 20 22  1  0  0  0  0
 21 17  2  0  0  0  0
 23 15  1  0  0  0  0
 24 16  1  0  0  0  0
 24 23  1  0  0  0  0
 25 26  1  0  0  0  0
 25 17  1  0  0  0  0
 26 27  2  0  0  0  0
 28 29  1  0  0  0  0
 29 10  1  0  0  0  0
 30 35  2  0  0  0  0
 30 34  1  0  0  0  0
 31 30  1  0  0  0  0
 33 36  1  0  0  0  0
 34 32  1  0  0  0  0
 35 33  1  0  0  0  0
 36 32  1  0  0  0  0
 36  1  1  1  0  0  0
 39 38  1  0  0  0  0
 40 41  2  0  0  0  0
 41 37  1  0  0  0  0
 41 39  1  0  0  0  0
 43 39  1  0  0  0  0
 43 42  1  1  0  0  0
 44 45  1  0  0  0  0
 44 46  2  0  0  0  0
 47 43  1  6  0  0  0
 47 45  1  0  0  0  0
 48 49  2  0  0  0  0
 49 47  1  0  0  0  0
 50 44  1  0  0  0  0
 51 49  1  1  0  0  0
 51 50  1  0  0  0  0
 53 54  1  0  0  0  0
 54 55  1  0  0  0  0
 55 52  1  6  0  0  0
 55 51  1  0  0  0  0
 56 53  1  0  0  0  0
 57 52  1  0  0  0  0
 58 56  1  0  0  0  0
 59 56  2  0  0  0  0
 59 57  1  0  0  0  0
M  END
>  <MODEL>
8

>  <REMARK>
 VINA RESULT:      -7.9      2.818      8.758
  Name = 
  11 active torsions:
  status: ('A' for Active; 'I' for Inactive)
    1  A    between atoms: O_6  and  C_55
    2  A    between atoms: C_12  and  C_40
    3  A    between atoms: N_18  and  C_48
    4  A    between atoms: N_19  and  C_28
    5  A    between atoms: C_20  and  C_40
    6  A    between atoms: C_24  and  C_48
    7  A    between atoms: C_30  and  C_59
    8  A    between atoms: C_32  and  C_57
    9  A    between atoms: C_34  and  C_43
   10  A    between atoms: C_43  and  C_58
   11  A    between atoms: C_51  and  C_58
                            x       y       z     vdW  Elec       q    Type
                         _______ _______ _______ _____ _____    ______ ____

>  <TORSDO>
F 11

$$$$
=
 OpenBabel11042419093D

 59 64  0  0  1  0  0  0  0  0999 V2000
  187.2430  177.2010  143.1550 C   0  0  0  0  0  3  0  0  0  0  0  0
  188.4960  176.8080  142.8660 C   0  0  0  0  0  0  0  0  0  0  0  0
  190.4720  175.0630  147.2960 Cl  0  0  0  0  0  0  0  0  0  0  0  0
  189.7460  175.9290  144.8130 C   0  0  0  0  0  3  0  0  0  0  0  0
  191.9900  177.8000  143.8860 C   0  0  0  0  0  3  0  0  0  0  0  0
  192.7360  176.6110  144.3590 C   0  0  0  0  0  0  0  0  0  0  0  0
  190.8550  175.9680  145.8060 C   0  0  2  0  0  3  0  0  0  0  0  0
  190.6730  177.8870  143.6470 C   0  0  0  0  0  3  0  0  0  0  0  0
  189.6530  176.8180  143.8160 C   0  0  0  0  0  0  0  0  0  0  0  0
  192.1840  175.6740  145.1550 C   0  0  0  0  0  0  0  0  0  0  0  0
  195.2790  176.6500  144.5190 C   0  0  0  0  0  0  0  0  0  0  0  0
  194.0510  176.4350  143.8150 N   0  0  0  0  0  2  0  0  0  0  0  0
  195.2910  177.2690  145.6150 O   0  0  0  0  0  0  0  0  0  0  0  0
  196.5620  176.1680  143.9280 C   0  0  0  0  0  2  0  0  0  0  0  0
  195.6820  171.8430  143.2270 N   0  0  0  0  0  0  0  0  0  0  0  0
  194.7400  169.2260  142.6130 C   0  0  0  0  0  2  0  0  0  0  0  0
  196.3270  175.4980  142.6100 C   0  0  0  0  0  0  0  0  0  0  0  0
  195.9540  175.1920  140.4590 C   0  0  0  0  0  3  0  0  0  0  0  0
  195.9590  173.9740  141.1150 C   0  0  0  0  0  3  0  0  0  0  0  0
  196.0460  169.4240  143.3760 C   0  0  0  0  0  2  0  0  0  0  0  0
  196.1860  176.1700  141.4120 C   0  0  0  0  0  3  0  0  0  0  0  0
  196.0090  170.7470  144.1390 C   0  0  0  0  0  2  0  0  0  0  0  0
  194.4880  171.7050  142.3940 C   0  0  0  0  0  2  0  0  0  0  0  0
  194.5260  170.3790  141.6380 C   0  0  0  0  0  2  0  0  0  0  0  0
  196.1810  174.1680  142.4290 N   0  0  0  0  0  0  0  0  0  0  0  0
  196.2900  173.1320  143.4230 C   0  0  0  0  0  0  0  0  0  0  0  0
  196.9500  173.3510  144.4770 O   0  0  0  0  0  0  0  0  0  0  0  0
  192.3170  173.2020  144.8760 C   0  0  0  0  0  1  0  0  0  0  0  0
  192.8470  174.4450  145.3070 O   0  0  0  0  0  0  0  0  0  0  0  0
  185.0450  178.3460  146.6580 C   0  0  0  0  0  0  0  0  0  0  0  0
  184.3850  178.8440  147.8950 C   0  0  0  0  0  1  0  0  0  0  0  0
  186.4170  176.6230  145.4080 C   0  0  0  0  0  2  0  0  0  0  0  0
  185.5240  178.6120  144.2180 C   0  0  0  0  0  2  0  0  0  0  0  0
  186.0190  177.1940  146.7690 C   0  0  0  0  0  2  0  0  0  0  0  0
  184.8880  179.0380  145.5160 C   0  0  0  0  0  3  0  0  0  0  0  0
  186.7700  177.7590  144.4550 C   0  0  2  0  0  3  0  0  0  0  0  0
  188.7260  176.3520  141.4560 C   0  0  0  0  0  2  0  0  0  0  0  0
  191.0400  174.5520  141.6780 C   0  0  0  0  0  1  0  0  0  0  0  0
  189.7250  174.0040  141.3790 N   0  0  0  0  0  0  0  0  0  0  0  0
  187.4340  174.3710  141.0750 O   0  0  0  0  0  0  0  0  0  0  0  0
  188.5730  174.8640  141.3090 C   0  0  0  0  0  0  0  0  0  0  0  0
  188.7950  171.9980  142.1500 O   0  0  0  0  0  1  0  0  0  0  0  0
  189.6240  172.5590  141.1740 C   0  0  2  0  0  3  0  0  0  0  0  0
  190.8670  169.3630  141.2460 C   0  0  0  0  0  0  0  0  0  0  0  0
  190.9590  170.6230  141.9080 N   0  0  0  0  0  2  0  0  0  0  0  0
  190.6840  168.3140  141.9140 O   0  0  0  0  0  0  0  0  0  0  0  0
  191.0030  171.8910  141.1860 C   0  0  1  0  0  3  0  0  0  0  0  0
  192.3940  172.6010  139.3000 C   0  0  0  0  0  2  0  0  0  0  0  0
  191.5440  171.7040  139.7890 C   0  0  0  0  0  0  0  0  0  0  0  0
  191.0050  169.2870  139.8270 N   0  0  0  0  0  2  0  0  0  0  0  0
  191.2340  170.4630  138.9860 C   0  0  1  0  0  3  0  0  0  0  0  0
  189.6230  172.1110  137.9550 C   0  0  0  0  0  2  0  0  0  0  0  0
  191.4330  170.8730  135.7730 C   0  0  0  0  0  2  0  0  0  0  0  0
  190.4290  170.0820  136.5580 C   0  0  0  0  0  2  0  0  0  0  0  0
  190.1190  170.6590  137.9520 C   0  0  1  0  0  3  0  0  0  0  0  0
  191.2790  172.1410  135.3810 C   0  0  0  0  0  0  0  0  0  0  0  0
  189.0520  172.5430  136.6100 C   0  0  0  0  0  2  0  0  0  0  0  0
  192.3660  172.7600  134.5830 C   0  0  0  0  0  1  0  0  0  0  0  0
  190.1380  172.9440  135.7230 N   0  0  0  0  0  0  0  0  0  0  0  0
  2  1  2  0  0  0  0
  2  9  1  0  0  0  0
  4  7  1  0  0  0  0
  5  6  1  0  0  0  0
  6 10  2  0  0  0  0
  7  3  1  1  0  0  0
  8  9  1  0  0  0  0
  8  5  2  0  0  0  0
  9  4  2  0  0  0  0
 10 29  1  0  0  0  0
 10  7  1  0  0  0  0
 11 13  2  0  0  0  0
 12  6  1  0  0  0  0
 12 11  1  0  0  0  0
 14 11  1  0  0  0  0
 15 26  1  0  0  0  0
 15 22  1  0  0  0  0
 16 20  1  0  0  0  0
 17 14  1  0  0  0  0
 18 19  2  0  0  0  0
 18 21  1  0  0  0  0
 19 25  1  0  0  0  0
 20 22  1  0  0  0  0
 21 17  2  0  0  0  0
 23 15  1  0  0  0  0
 24 23  1  0  0  0  0
 24 16  1  0  0  0  0
 25 17  1  0  0  0  0
 25 26  1  0  0  0  0
 26 27  2  0  0  0  0
 28 29  1  0  0  0  0
 30 34  1  0  0  0  0
 30 31  1  0  0  0  0
 32 34  1  0  0  0  0
 33 36  1  0  0  0  0
 33 35  1  0  0  0  0
 35 30  2  0  0  0  0
 36  1  1  6  0  0  0
 36 32  1  0  0  0  0
 37  2  1  0  0  0  0
 39 38  1  0  0  0  0
 40 41  2  0  0  0  0
 41 39  1  0  0  0  0
 41 37  1  0  0  0  0
 43 39  1  0  0  0  0
 43 42  1  1  0  0  0
 44 45  1  0  0  0  0
 44 46  2  0  0  0  0
 47 43  1  6  0  0  0
 47 45  1  0  0  0  0
 48 49  2  0  0  0  0
 49 47  1  0  0  0  0
 50 44  1  0  0  0  0
 51 49  1  1  0  0  0
 51 50  1  0  0  0  0
 53 54  1  0  0  0  0
 55 54  1  6  0  0  0
 55 52  1  0  0  0  0
 55 51  1  0  0  0  0
 56 59  2  0  0  0  0
 56 53  1  0  0  0  0
 57 52  1  0  0  0  0
 58 56  1  0  0  0  0
 59 57  1  0  0  0  0
M  END
>  <MODEL>
9

>  <REMARK>
 VINA RESULT:      -7.8      1.550      2.523
  Name = 
  11 active torsions:
  status: ('A' for Active; 'I' for Inactive)
    1  A    between atoms: O_6  and  C_55
    2  A    between atoms: C_12  and  C_40
    3  A    between atoms: N_18  and  C_48
    4  A    between atoms: N_19  and  C_28
    5  A    between atoms: C_20  and  C_40
    6  A    between atoms: C_24  and  C_48
    7  A    between atoms: C_30  and  C_59
    8  A    between atoms: C_32  and  C_57
    9  A    between atoms: C_34  and  C_43
   10  A    between atoms: C_43  and  C_58
   11  A    between atoms: C_51  and  C_58
                            x       y       z     vdW  Elec       q    Type
                         _______ _______ _______ _____ _____    ______ ____

>  <TORSDO>
F 11

$$$$
