=
 OpenBabel11042414003D

 36 38  0  0  1  0  0  0  0  0999 V2000
  190.3190  174.2160  141.9720 C   0  0  1  0  0  3  0  0  0  0  0  0
  189.8310  174.1120  143.3420 N   0  0  0  0  0  2  0  0  0  0  0  0
  191.7200  174.8210  141.9390 C   0  0  0  0  0  2  0  0  0  0  0  0
  191.4470  176.3640  145.1130 C   0  0  0  0  0  0  0  0  0  0  0  0
  193.5490  175.4760  144.2980 C   0  0  0  0  0  3  0  0  0  0  0  0
  191.9450  176.3310  146.4200 C   0  0  0  0  0  3  0  0  0  0  0  0
  188.9980  175.8250  144.8850 C   0  0  2  0  0  3  0  0  0  0  0  0
  190.1010  176.7830  144.8810 N   0  0  0  0  0  2  0  0  0  0  0  0
  188.8440  175.1670  143.5150 C   0  0  0  0  0  2  0  0  0  0  0  0
  194.0520  175.4440  145.6100 C   0  0  0  0  0  0  0  0  0  0  0  0
  192.2530  175.9460  144.0470 C   0  0  0  0  0  0  0  0  0  0  0  0
  193.2440  175.8770  146.6650 C   0  0  0  0  0  3  0  0  0  0  0  0
  191.7590  175.9930  142.7440 O   0  0  0  0  0  0  0  0  0  0  0  0
  186.2230  177.5260  147.0360 C   0  0  0  0  0  0  0  0  0  0  0  0
  187.4810  176.7530  146.7490 C   0  0  0  0  0  2  0  0  0  0  0  0
  185.2710  177.8440  145.9550 C   0  0  0  0  0  0  0  0  0  0  0  0
  186.8230  176.8490  144.3450 C   0  0  0  0  0  3  0  0  0  0  0  0
  185.9790  177.8820  148.2190 O   0  0  0  0  0  0  0  0  0  0  0  0
  187.7260  176.5090  145.2790 C   0  0  0  0  0  0  0  0  0  0  0  0
  183.9800  178.5300  146.2490 C   0  0  0  0  0  1  0  0  0  0  0  0
  185.5600  177.5200  144.6950 C   0  0  0  0  0  3  0  0  0  0  0  0
  195.3760  174.9780  145.8950 N   0  0  0  0  0  0  0  0  0  0  0  0
  196.1280  174.4010  145.0140 C   0  0  0  0  0  3  0  0  0  0  0  0
  197.4980  173.9510  145.3690 C   0  0  0  0  0  2  0  0  0  0  0  0
  197.8430  172.8110  144.5970 O   0  0  0  0  0  0  0  0  0  0  0  0
  197.5910  171.5540  145.0730 C   0  0  0  0  0  0  0  0  0  0  0  0
  197.3770  170.4910  145.4800 N   0  0  0  0  0  0  0  0  0  0  0  0
  190.4350  172.7700  140.1050 O   0  0  0  0  0  0  0  0  0  0  0  0
  190.3200  172.8700  141.3180 C   0  0  0  0  0  0  0  0  0  0  0  0
  190.1850  171.6440  142.1670 C   0  0  0  0  0  2  0  0  0  0  0  0
  191.5500  171.0630  142.4960 C   0  0  0  0  0  2  0  0  0  0  0  0
  191.8650  171.2650  143.9660 C   0  0  0  0  0  2  0  0  0  0  0  0
  193.6280  171.2560  144.2200 S   0  0  0  0  0  0  0  0  0  0  0  0
  193.9570  171.7760  145.5940 O   0  0  0  0  0  0  0  0  0  0  0  0
  194.2400  169.5930  144.0440 C   0  0  0  0  0  1  0  0  0  0  0  0
  194.2760  172.1320  143.1850 O   0  0  0  0  0  0  0  0  0  0  0  0
  1 29  1  1  0  0  0
  1  2  1  0  0  0  0
  2  9  1  0  0  0  0
  3  1  1  0  0  0  0
  3 13  1  0  0  0  0
  4  6  1  0  0  0  0
  5 10  2  0  0  0  0
  6 12  2  0  0  0  0
  7 19  1  6  0  0  0
  8  7  1  0  0  0  0
  8  4  1  0  0  0  0
  9  7  1  0  0  0  0
 10 22  1  0  0  0  0
 10 12  1  0  0  0  0
 11  5  1  0  0  0  0
 11  4  2  0  0  0  0
 13 11  1  0  0  0  0
 14 18  2  0  0  0  0
 15 14  1  0  0  0  0
 16 20  1  0  0  0  0
 16 14  1  0  0  0  0
 17 21  1  0  0  0  0
 17 19  2  0  0  0  0
 19 15  1  0  0  0  0
 21 16  2  0  0  0  0
 23 24  1  0  0  0  0
 23 22  2  0  0  0  0
 25 26  1  0  0  0  0
 25 24  1  0  0  0  0
 26 27  3  0  0  0  0
 28 29  2  0  0  0  0
 29 30  1  0  0  0  0
 30 31  1  0  0  0  0
 31 32  1  0  0  0  0
 32 33  1  0  0  0  0
 33 34  2  0  0  0  0
 35 33  1  0  0  0  0
 36 33  2  0  0  0  0
M  END
>  <MODEL>
1

>  <REMARK>
 VINA RESULT:      -6.7      0.000      0.000
  Name = 
  10 active torsions:
  status: ('A' for Active; 'I' for Inactive)
    1  A    between atoms: C_2  and  O_10
    2  A    between atoms: N_3  and  C_26
    3  A    between atoms: C_4  and  C_36
    4  A    between atoms: C_7  and  S_17
    5  A    between atoms: C_7  and  C_25
    6  A    between atoms: O_10  and  C_30
    7  A    between atoms: C_15  and  C_20
    8  A    between atoms: C_25  and  C_29
    9  A    between atoms: C_29  and  C_36
   10  A    between atoms: C_30  and  C_31
                            x       y       z     vdW  Elec       q    Type
                         _______ _______ _______ _____ _____    ______ ____

>  <TORSDO>
F 10

$$$$
=
 OpenBabel11042414003D

 36 38  0  0  1  0  0  0  0  0999 V2000
  192.4880  174.4870  144.0390 C   0  0  1  0  0  3  0  0  0  0  0  0
  191.3390  173.6060  143.8660 N   0  0  0  0  0  2  0  0  0  0  0  0
  192.1160  175.9320  143.7200 C   0  0  0  0  0  2  0  0  0  0  0  0
  189.3020  175.0830  141.7480 C   0  0  0  0  0  0  0  0  0  0  0  0
  189.3490  177.0820  143.1190 C   0  0  0  0  0  3  0  0  0  0  0  0
  187.9060  175.1540  141.7030 C   0  0  0  0  0  3  0  0  0  0  0  0
  190.2570  172.7550  141.8380 C   0  0  2  0  0  3  0  0  0  0  0  0
  189.9740  173.9940  141.1160 N   0  0  0  0  0  2  0  0  0  0  0  0
  191.5570  172.8710  142.6300 C   0  0  0  0  0  2  0  0  0  0  0  0
  187.9460  177.1550  143.0740 C   0  0  0  0  0  0  0  0  0  0  0  0
  190.0280  176.0550  142.4490 C   0  0  0  0  0  0  0  0  0  0  0  0
  187.2320  176.1880  142.3590 C   0  0  0  0  0  3  0  0  0  0  0  0
  191.4210  175.9900  142.4820 O   0  0  0  0  0  0  0  0  0  0  0  0
  190.0020  170.6420  138.5690 C   0  0  0  0  0  0  0  0  0  0  0  0
  189.7980  171.8210  139.4820 C   0  0  0  0  0  2  0  0  0  0  0  0
  190.5260  169.3660  139.0910 C   0  0  0  0  0  0  0  0  0  0  0  0
  190.8200  170.4230  141.2790 C   0  0  0  0  0  3  0  0  0  0  0  0
  189.6970  170.7500  137.3520 O   0  0  0  0  0  0  0  0  0  0  0  0
  190.3310  171.6080  140.8790 C   0  0  0  0  0  0  0  0  0  0  0  0
  190.6450  168.1690  138.2090 C   0  0  0  0  0  1  0  0  0  0  0  0
  190.9060  169.2720  140.3650 C   0  0  0  0  0  3  0  0  0  0  0  0
  187.2270  178.1980  143.7400 N   0  0  0  0  0  0  0  0  0  0  0  0
  186.1590  178.7440  143.2520 C   0  0  0  0  0  3  0  0  0  0  0  0
  185.4510  179.8150  144.0000 C   0  0  0  0  0  2  0  0  0  0  0  0
  184.2300  179.3090  144.5180 O   0  0  0  0  0  0  0  0  0  0  0  0
  184.1990  178.7110  145.7480 C   0  0  0  0  0  0  0  0  0  0  0  0
  184.1730  178.1990  146.7860 N   0  0  0  0  0  0  0  0  0  0  0  0
  193.6070  173.3760  145.8020 O   0  0  0  0  0  0  0  0  0  0  0  0
  193.0170  174.3830  145.4350 C   0  0  0  0  0  0  0  0  0  0  0  0
  192.8220  175.5290  146.3780 C   0  0  0  0  0  2  0  0  0  0  0  0
  191.7020  175.2320  147.3620 C   0  0  0  0  0  2  0  0  0  0  0  0
  190.5850  176.2470  147.2060 C   0  0  0  0  0  2  0  0  0  0  0  0
  189.0480  175.4160  146.8610 S   0  0  0  0  0  0  0  0  0  0  0  0
  188.7800  174.3660  147.9070 O   0  0  0  0  0  0  0  0  0  0  0  0
  187.7240  176.6060  146.8510 C   0  0  0  0  0  1  0  0  0  0  0  0
  189.1360  174.7640  145.5100 O   0  0  0  0  0  0  0  0  0  0  0  0
  1 29  1  1  0  0  0
  2  1  1  0  0  0  0
  3  1  1  0  0  0  0
  4 11  1  0  0  0  0
  6  4  2  0  0  0  0
  6 12  1  0  0  0  0
  7 19  1  6  0  0  0
  7  9  1  0  0  0  0
  8  4  1  0  0  0  0
  8  7  1  0  0  0  0
  9  2  1  0  0  0  0
 10  5  1  0  0  0  0
 10 22  1  0  0  0  0
 11 13  1  0  0  0  0
 11  5  2  0  0  0  0
 12 10  2  0  0  0  0
 13  3  1  0  0  0  0
 14 16  1  0  0  0  0
 14 15  1  0  0  0  0
 15 19  1  0  0  0  0
 16 21  2  0  0  0  0
 18 14  2  0  0  0  0
 19 17  2  0  0  0  0
 20 16  1  0  0  0  0
 21 17  1  0  0  0  0
 23 22  2  0  0  0  0
 23 24  1  0  0  0  0
 24 25  1  0  0  0  0
 25 26  1  0  0  0  0
 26 27  3  0  0  0  0
 29 28  2  0  0  0  0
 29 30  1  0  0  0  0
 30 31  1  0  0  0  0
 32 31  1  0  0  0  0
 33 32  1  0  0  0  0
 33 34  2  0  0  0  0
 35 33  1  0  0  0  0
 36 33  2  0  0  0  0
M  END
>  <MODEL>
2

>  <REMARK>
 VINA RESULT:      -6.6      2.976      8.727
  Name = 
  10 active torsions:
  status: ('A' for Active; 'I' for Inactive)
    1  A    between atoms: C_2  and  O_10
    2  A    between atoms: N_3  and  C_26
    3  A    between atoms: C_4  and  C_36
    4  A    between atoms: C_7  and  S_17
    5  A    between atoms: C_7  and  C_25
    6  A    between atoms: O_10  and  C_30
    7  A    between atoms: C_15  and  C_20
    8  A    between atoms: C_25  and  C_29
    9  A    between atoms: C_29  and  C_36
   10  A    between atoms: C_30  and  C_31
                            x       y       z     vdW  Elec       q    Type
                         _______ _______ _______ _____ _____    ______ ____

>  <TORSDO>
F 10

$$$$
=
 OpenBabel11042414003D

 36 38  0  0  1  0  0  0  0  0999 V2000
  190.3720  174.2940  142.0050 C   0  0  1  0  0  3  0  0  0  0  0  0
  189.8690  174.1740  143.3680 N   0  0  0  0  0  2  0  0  0  0  0  0
  191.7660  174.9140  141.9930 C   0  0  0  0  0  2  0  0  0  0  0  0
  191.4410  176.4290  145.1760 C   0  0  0  0  0  0  0  0  0  0  0  0
  193.5610  175.5690  144.3770 C   0  0  0  0  0  3  0  0  0  0  0  0
  191.9240  176.3900  146.4870 C   0  0  0  0  0  3  0  0  0  0  0  0
  189.0000  175.8650  144.9150 C   0  0  2  0  0  3  0  0  0  0  0  0
  190.0930  176.8350  144.9320 N   0  0  0  0  0  2  0  0  0  0  0  0
  188.8690  175.2160  143.5390 C   0  0  0  0  0  2  0  0  0  0  0  0
  194.0500  175.5310  145.6940 C   0  0  0  0  0  0  0  0  0  0  0  0
  192.2630  176.0270  144.1150 C   0  0  0  0  0  0  0  0  0  0  0  0
  193.2250  175.9480  146.7440 C   0  0  0  0  0  3  0  0  0  0  0  0
  191.7830  176.0790  142.8070 O   0  0  0  0  0  0  0  0  0  0  0  0
  186.1910  177.5350  147.0460 C   0  0  0  0  0  0  0  0  0  0  0  0
  187.4620  176.7790  146.7690 C   0  0  0  0  0  2  0  0  0  0  0  0
  185.2400  177.8340  145.9590 C   0  0  0  0  0  0  0  0  0  0  0  0
  186.8130  176.8550  144.3610 C   0  0  0  0  0  3  0  0  0  0  0  0
  185.9360  177.8920  148.2270 O   0  0  0  0  0  0  0  0  0  0  0  0
  187.7170  176.5320  145.3000 C   0  0  0  0  0  0  0  0  0  0  0  0
  183.9370  178.5030  146.2440 C   0  0  0  0  0  1  0  0  0  0  0  0
  185.5390  177.5090  144.7020 C   0  0  0  0  0  3  0  0  0  0  0  0
  195.3760  175.0780  145.9910 N   0  0  0  0  0  0  0  0  0  0  0  0
  195.9810  174.1640  145.3020 C   0  0  0  0  0  3  0  0  0  0  0  0
  197.3620  173.7450  145.6540 C   0  0  0  0  0  2  0  0  0  0  0  0
  197.5960  172.4260  145.1840 O   0  0  0  0  0  0  0  0  0  0  0  0
  196.9090  171.3710  145.7190 C   0  0  0  0  0  0  0  0  0  0  0  0
  196.3290  170.4760  146.1680 N   0  0  0  0  0  0  0  0  0  0  0  0
  189.4430  172.1920  141.4450 O   0  0  0  0  0  0  0  0  0  0  0  0
  190.3940  172.9530  141.3400 C   0  0  0  0  0  0  0  0  0  0  0  0
  191.5950  172.5540  140.5390 C   0  0  0  0  0  2  0  0  0  0  0  0
  191.1980  172.1970  139.1160 C   0  0  0  0  0  2  0  0  0  0  0  0
  190.8190  173.4500  138.3480 C   0  0  0  0  0  2  0  0  0  0  0  0
  189.2690  173.2050  137.5070 S   0  0  0  0  0  0  0  0  0  0  0  0
  188.1420  173.1490  138.5030 O   0  0  0  0  0  0  0  0  0  0  0  0
  188.9980  174.5480  136.3680 C   0  0  0  0  0  1  0  0  0  0  0  0
  189.3260  171.9130  136.7420 O   0  0  0  0  0  0  0  0  0  0  0  0
  1 29  1  1  0  0  0
  1  2  1  0  0  0  0
  2  9  1  0  0  0  0
  3  1  1  0  0  0  0
  3 13  1  0  0  0  0
  4  6  1  0  0  0  0
  5 10  2  0  0  0  0
  6 12  2  0  0  0  0
  7  8  1  0  0  0  0
  7 19  1  6  0  0  0
  8  4  1  0  0  0  0
  9  7  1  0  0  0  0
 10 22  1  0  0  0  0
 10 12  1  0  0  0  0
 11  5  1  0  0  0  0
 11  4  2  0  0  0  0
 13 11  1  0  0  0  0
 14 18  2  0  0  0  0
 15 14  1  0  0  0  0
 16 20  1  0  0  0  0
 16 14  1  0  0  0  0
 17 21  1  0  0  0  0
 17 19  2  0  0  0  0
 19 15  1  0  0  0  0
 21 16  2  0  0  0  0
 23 24  1  0  0  0  0
 23 22  2  0  0  0  0
 25 24  1  0  0  0  0
 25 26  1  0  0  0  0
 26 27  3  0  0  0  0
 29 28  2  0  0  0  0
 30 29  1  0  0  0  0
 31 30  1  0  0  0  0
 32 31  1  0  0  0  0
 33 32  1  0  0  0  0
 33 34  2  0  0  0  0
 35 33  1  0  0  0  0
 36 33  2  0  0  0  0
M  END
>  <MODEL>
3

>  <REMARK>
 VINA RESULT:      -6.6      1.990      3.305
  Name = 
  10 active torsions:
  status: ('A' for Active; 'I' for Inactive)
    1  A    between atoms: C_2  and  O_10
    2  A    between atoms: N_3  and  C_26
    3  A    between atoms: C_4  and  C_36
    4  A    between atoms: C_7  and  S_17
    5  A    between atoms: C_7  and  C_25
    6  A    between atoms: O_10  and  C_30
    7  A    between atoms: C_15  and  C_20
    8  A    between atoms: C_25  and  C_29
    9  A    between atoms: C_29  and  C_36
   10  A    between atoms: C_30  and  C_31
                            x       y       z     vdW  Elec       q    Type
                         _______ _______ _______ _____ _____    ______ ____

>  <TORSDO>
F 10

$$$$
=
 OpenBabel11042414003D

 36 38  0  0  1  0  0  0  0  0999 V2000
  192.7380  175.4450  146.0500 C   0  0  1  0  0  3  0  0  0  0  0  0
  191.8980  176.2410  145.1650 N   0  0  0  0  0  2  0  0  0  0  0  0
  192.9290  174.0360  145.4950 C   0  0  0  0  0  2  0  0  0  0  0  0
  190.0470  174.1380  143.4410 C   0  0  0  0  0  0  0  0  0  0  0  0
  192.0480  172.9410  142.7810 C   0  0  0  0  0  3  0  0  0  0  0  0
  189.6240  174.1550  142.1090 C   0  0  0  0  0  3  0  0  0  0  0  0
  189.4780  176.1960  144.7750 C   0  0  2  0  0  3  0  0  0  0  0  0
  189.2620  174.7900  144.4400 N   0  0  0  0  0  2  0  0  0  0  0  0
  190.5960  176.3450  145.8050 C   0  0  0  0  0  2  0  0  0  0  0  0
  191.6240  172.9560  141.4410 C   0  0  0  0  0  0  0  0  0  0  0  0
  191.2580  173.5210  143.7820 C   0  0  0  0  0  0  0  0  0  0  0  0
  190.4070  173.5620  141.1140 C   0  0  0  0  0  3  0  0  0  0  0  0
  191.6710  173.4930  145.1140 O   0  0  0  0  0  0  0  0  0  0  0  0
  186.2920  178.4290  145.0670 C   0  0  0  0  0  0  0  0  0  0  0  0
  187.6100  177.9520  144.5200 C   0  0  0  0  0  2  0  0  0  0  0  0
  185.7660  177.8960  146.3380 C   0  0  0  0  0  0  0  0  0  0  0  0
  187.6600  176.3490  146.4310 C   0  0  0  0  0  3  0  0  0  0  0  0
  185.6500  179.3090  144.4350 O   0  0  0  0  0  0  0  0  0  0  0  0
  188.2100  176.8010  145.2920 C   0  0  0  0  0  0  0  0  0  0  0  0
  184.5050  178.4300  146.9280 C   0  0  0  0  0  1  0  0  0  0  0  0
  186.4170  176.9210  146.9720 C   0  0  0  0  0  3  0  0  0  0  0  0
  192.4060  172.3630  140.3990 N   0  0  0  0  0  0  0  0  0  0  0  0
  192.3590  172.7580  139.1670 C   0  0  0  0  0  3  0  0  0  0  0  0
  193.2060  172.1090  138.1330 C   0  0  0  0  0  2  0  0  0  0  0  0
  194.4770  172.7380  138.0930 O   0  0  0  0  0  0  0  0  0  0  0  0
  194.5720  174.0900  137.9100 C   0  0  0  0  0  0  0  0  0  0  0  0
  194.6570  175.2340  137.7520 N   0  0  0  0  0  0  0  0  0  0  0  0
  194.1640  177.1030  146.9510 O   0  0  0  0  0  0  0  0  0  0  0  0
  194.0650  176.1100  146.2440 C   0  0  0  0  0  0  0  0  0  0  0  0
  195.2730  175.5420  145.5670 C   0  0  0  0  0  2  0  0  0  0  0  0
  195.6110  176.3340  144.3150 C   0  0  0  0  0  2  0  0  0  0  0  0
  196.3340  175.4500  143.3150 C   0  0  0  0  0  2  0  0  0  0  0  0
  195.4150  175.3740  141.7920 S   0  0  0  0  0  0  0  0  0  0  0  0
  195.2870  173.9450  141.3340 O   0  0  0  0  0  0  0  0  0  0  0  0
  193.7960  176.0710  142.0450 C   0  0  0  0  0  1  0  0  0  0  0  0
  196.1380  176.1720  140.7440 O   0  0  0  0  0  0  0  0  0  0  0  0
  1 29  1  6  0  0  0
  2  9  1  0  0  0  0
  2  1  1  0  0  0  0
  3  1  1  0  0  0  0
  4 11  1  0  0  0  0
  4  8  1  0  0  0  0
  5 11  2  0  0  0  0
  6  4  2  0  0  0  0
  7 19  1  1  0  0  0
  7  9  1  0  0  0  0
  8  7  1  0  0  0  0
 10  5  1  0  0  0  0
 11 13  1  0  0  0  0
 12 10  2  0  0  0  0
 12  6  1  0  0  0  0
 13  3  1  0  0  0  0
 14 16  1  0  0  0  0
 15 14  1  0  0  0  0
 15 19  1  0  0  0  0
 16 20  1  0  0  0  0
 16 21  2  0  0  0  0
 17 21  1  0  0  0  0
 18 14  2  0  0  0  0
 19 17  2  0  0  0  0
 22 10  1  0  0  0  0
 23 22  2  0  0  0  0
 24 23  1  0  0  0  0
 25 24  1  0  0  0  0
 26 25  1  0  0  0  0
 27 26  3  0  0  0  0
 29 28  2  0  0  0  0
 30 29  1  0  0  0  0
 31 30  1  0  0  0  0
 32 31  1  0  0  0  0
 33 35  1  0  0  0  0
 33 32  1  0  0  0  0
 34 33  2  0  0  0  0
 36 33  2  0  0  0  0
M  END
>  <MODEL>
4

>  <REMARK>
 VINA RESULT:      -6.3      2.889      5.319
  Name = 
  10 active torsions:
  status: ('A' for Active; 'I' for Inactive)
    1  A    between atoms: C_2  and  O_10
    2  A    between atoms: N_3  and  C_26
    3  A    between atoms: C_4  and  C_36
    4  A    between atoms: C_7  and  S_17
    5  A    between atoms: C_7  and  C_25
    6  A    between atoms: O_10  and  C_30
    7  A    between atoms: C_15  and  C_20
    8  A    between atoms: C_25  and  C_29
    9  A    between atoms: C_29  and  C_36
   10  A    between atoms: C_30  and  C_31
                            x       y       z     vdW  Elec       q    Type
                         _______ _______ _______ _____ _____    ______ ____

>  <TORSDO>
F 10

$$$$
=
 OpenBabel11042414003D

 36 38  0  0  1  0  0  0  0  0999 V2000
  191.7730  175.2200  144.2150 C   0  0  1  0  0  3  0  0  0  0  0  0
  190.7250  174.2330  143.9910 N   0  0  0  0  0  2  0  0  0  0  0  0
  191.2470  176.6340  143.9810 C   0  0  0  0  0  2  0  0  0  0  0  0
  188.5280  175.6030  141.9610 C   0  0  0  0  0  0  0  0  0  0  0  0
  188.3690  177.5120  143.4460 C   0  0  0  0  0  3  0  0  0  0  0  0
  187.1330  175.5260  141.9200 C   0  0  0  0  0  3  0  0  0  0  0  0
  189.7280  173.3900  141.9160 C   0  0  2  0  0  3  0  0  0  0  0  0
  189.3100  174.6310  141.2670 N   0  0  0  0  0  2  0  0  0  0  0  0
  191.0130  173.5980  142.7140 C   0  0  0  0  0  2  0  0  0  0  0  0
  186.9660  177.4380  143.4040 C   0  0  0  0  0  0  0  0  0  0  0  0
  189.1500  176.6050  142.7180 C   0  0  0  0  0  0  0  0  0  0  0  0
  186.3560  176.4420  142.6340 C   0  0  0  0  0  3  0  0  0  0  0  0
  190.5420  176.6880  142.7470 O   0  0  0  0  0  0  0  0  0  0  0  0
  190.8200  170.0550  140.2100 C   0  0  0  0  0  0  0  0  0  0  0  0
  190.7630  171.1210  141.2720 C   0  0  0  0  0  2  0  0  0  0  0  0
  190.2270  170.2850  138.8790 C   0  0  0  0  0  0  0  0  0  0  0  0
  189.3880  172.4450  139.6660 C   0  0  0  0  0  3  0  0  0  0  0  0
  191.4030  168.9680  140.4650 O   0  0  0  0  0  0  0  0  0  0  0  0
  189.9200  172.3150  140.8920 C   0  0  0  0  0  0  0  0  0  0  0  0
  190.3600  169.2690  137.7960 C   0  0  0  0  0  1  0  0  0  0  0  0
  189.5580  171.4110  138.6330 C   0  0  0  0  0  3  0  0  0  0  0  0
  186.1430  178.3570  144.1290 N   0  0  0  0  0  0  0  0  0  0  0  0
  184.9810  178.0430  144.6040 C   0  0  0  0  0  3  0  0  0  0  0  0
  184.1800  179.0410  145.3600 C   0  0  0  0  0  2  0  0  0  0  0  0
  184.0660  178.6350  146.7150 O   0  0  0  0  0  0  0  0  0  0  0  0
  185.1810  178.2790  147.4230 C   0  0  0  0  0  0  0  0  0  0  0  0
  186.1250  177.9730  148.0200 N   0  0  0  0  0  0  0  0  0  0  0  0
  191.6420  175.4210  146.5680 O   0  0  0  0  0  0  0  0  0  0  0  0
  192.3180  175.0930  145.6030 C   0  0  0  0  0  0  0  0  0  0  0  0
  193.7010  174.5540  145.7980 C   0  0  0  0  0  2  0  0  0  0  0  0
  194.6620  175.6650  146.1880 C   0  0  0  0  0  2  0  0  0  0  0  0
  194.8000  176.6610  145.0510 C   0  0  0  0  0  2  0  0  0  0  0  0
  195.9440  176.0430  143.8340 S   0  0  0  0  0  0  0  0  0  0  0  0
  196.7840  174.9420  144.4240 O   0  0  0  0  0  0  0  0  0  0  0  0
  195.0360  175.4220  142.4340 C   0  0  0  0  0  1  0  0  0  0  0  0
  196.8350  177.1670  143.3850 O   0  0  0  0  0  0  0  0  0  0  0  0
  1 29  1  1  0  0  0
  2  1  1  0  0  0  0
  3  1  1  0  0  0  0
  4 11  1  0  0  0  0
  6  4  2  0  0  0  0
  6 12  1  0  0  0  0
  7 19  1  6  0  0  0
  7  9  1  0  0  0  0
  8  7  1  0  0  0  0
  8  4  1  0  0  0  0
  9  2  1  0  0  0  0
 10  5  1  0  0  0  0
 10 22  1  0  0  0  0
 11 13  1  0  0  0  0
 11  5  2  0  0  0  0
 12 10  2  0  0  0  0
 13  3  1  0  0  0  0
 14 18  2  0  0  0  0
 14 15  1  0  0  0  0
 16 14  1  0  0  0  0
 17 19  2  0  0  0  0
 19 15  1  0  0  0  0
 20 16  1  0  0  0  0
 21 16  2  0  0  0  0
 21 17  1  0  0  0  0
 22 23  2  0  0  0  0
 23 24  1  0  0  0  0
 24 25  1  0  0  0  0
 25 26  1  0  0  0  0
 26 27  3  0  0  0  0
 29 30  1  0  0  0  0
 29 28  2  0  0  0  0
 30 31  1  0  0  0  0
 32 31  1  0  0  0  0
 33 34  2  0  0  0  0
 33 32  1  0  0  0  0
 35 33  1  0  0  0  0
 36 33  2  0  0  0  0
M  END
>  <MODEL>
5

>  <REMARK>
 VINA RESULT:      -6.3      2.914      8.398
  Name = 
  10 active torsions:
  status: ('A' for Active; 'I' for Inactive)
    1  A    between atoms: C_2  and  O_10
    2  A    between atoms: N_3  and  C_26
    3  A    between atoms: C_4  and  C_36
    4  A    between atoms: C_7  and  S_17
    5  A    between atoms: C_7  and  C_25
    6  A    between atoms: O_10  and  C_30
    7  A    between atoms: C_15  and  C_20
    8  A    between atoms: C_25  and  C_29
    9  A    between atoms: C_29  and  C_36
   10  A    between atoms: C_30  and  C_31
                            x       y       z     vdW  Elec       q    Type
                         _______ _______ _______ _____ _____    ______ ____

>  <TORSDO>
F 10

$$$$
=
 OpenBabel11042414003D

 36 38  0  0  1  0  0  0  0  0999 V2000
  190.2940  174.3130  141.7580 C   0  0  1  0  0  3  0  0  0  0  0  0
  189.7960  174.1810  143.1210 N   0  0  0  0  0  2  0  0  0  0  0  0
  191.7140  174.8710  141.7500 C   0  0  0  0  0  2  0  0  0  0  0  0
  191.4780  176.3190  144.9720 C   0  0  0  0  0  0  0  0  0  0  0  0
  193.5540  175.3880  144.1350 C   0  0  0  0  0  3  0  0  0  0  0  0
  191.9690  176.2260  146.2780 C   0  0  0  0  0  3  0  0  0  0  0  0
  189.0140  175.8700  144.7160 C   0  0  2  0  0  3  0  0  0  0  0  0
  190.1480  176.7900  144.7490 N   0  0  0  0  0  2  0  0  0  0  0  0
  188.8450  175.2620  143.3260 C   0  0  0  0  0  2  0  0  0  0  0  0
  194.0490  175.2950  145.4470 C   0  0  0  0  0  0  0  0  0  0  0  0
  192.2750  175.9080  143.8950 C   0  0  0  0  0  0  0  0  0  0  0  0
  193.2510  175.7210  146.5130 C   0  0  0  0  0  3  0  0  0  0  0  0
  191.7880  176.0140  142.5920 O   0  0  0  0  0  0  0  0  0  0  0  0
  186.3870  177.7940  146.8660 C   0  0  0  0  0  0  0  0  0  0  0  0
  187.6350  177.0060  146.5730 C   0  0  0  0  0  2  0  0  0  0  0  0
  185.3430  177.9630  145.8370 C   0  0  0  0  0  0  0  0  0  0  0  0
  186.7800  176.7940  144.2380 C   0  0  0  0  0  3  0  0  0  0  0  0
  186.2330  178.2920  148.0130 O   0  0  0  0  0  0  0  0  0  0  0  0
  187.7630  176.5830  145.1280 C   0  0  0  0  0  0  0  0  0  0  0  0
  184.0660  178.6660  146.1510 C   0  0  0  0  0  1  0  0  0  0  0  0
  185.5360  177.4880  144.6070 C   0  0  0  0  0  3  0  0  0  0  0  0
  195.3550  174.7770  145.7220 N   0  0  0  0  0  0  0  0  0  0  0  0
  196.2370  174.5570  144.7990 C   0  0  0  0  0  3  0  0  0  0  0  0
  197.5800  174.0280  145.1510 C   0  0  0  0  0  2  0  0  0  0  0  0
  197.6990  172.6880  144.7000 O   0  0  0  0  0  0  0  0  0  0  0  0
  197.1720  171.6630  145.4370 C   0  0  0  0  0  0  0  0  0  0  0  0
  196.7240  170.7930  146.0570 N   0  0  0  0  0  0  0  0  0  0  0  0
  190.1160  172.9320  139.8460 O   0  0  0  0  0  0  0  0  0  0  0  0
  190.2530  172.9890  141.0600 C   0  0  0  0  0  0  0  0  0  0  0  0
  190.3890  171.7340  141.8650 C   0  0  0  0  0  2  0  0  0  0  0  0
  191.4570  170.8280  141.2750 C   0  0  0  0  0  2  0  0  0  0  0  0
  190.8170  169.6070  140.6420 C   0  0  0  0  0  2  0  0  0  0  0  0
  191.1750  169.5630  138.8990 S   0  0  0  0  0  0  0  0  0  0  0  0
  191.6880  168.2030  138.5080 O   0  0  0  0  0  0  0  0  0  0  0  0
  189.6920  169.9310  137.9830 C   0  0  0  0  0  1  0  0  0  0  0  0
  192.2170  170.6000  138.5860 O   0  0  0  0  0  0  0  0  0  0  0  0
  1 29  1  1  0  0  0
  1  2  1  0  0  0  0
  2  9  1  0  0  0  0
  3  1  1  0  0  0  0
  3 13  1  0  0  0  0
  4  6  1  0  0  0  0
  5 10  2  0  0  0  0
  6 12  2  0  0  0  0
  7  8  1  0  0  0  0
  7 19  1  6  0  0  0
  8  4  1  0  0  0  0
  9  7  1  0  0  0  0
 10 22  1  0  0  0  0
 10 12  1  0  0  0  0
 11  5  1  0  0  0  0
 11  4  2  0  0  0  0
 13 11  1  0  0  0  0
 14 18  2  0  0  0  0
 15 14  1  0  0  0  0
 16 20  1  0  0  0  0
 16 14  1  0  0  0  0
 17 21  1  0  0  0  0
 17 19  2  0  0  0  0
 19 15  1  0  0  0  0
 21 16  2  0  0  0  0
 23 24  1  0  0  0  0
 23 22  2  0  0  0  0
 25 24  1  0  0  0  0
 25 26  1  0  0  0  0
 26 27  3  0  0  0  0
 28 29  2  0  0  0  0
 29 30  1  0  0  0  0
 31 30  1  0  0  0  0
 32 31  1  0  0  0  0
 33 32  1  0  0  0  0
 34 33  2  0  0  0  0
 35 33  1  0  0  0  0
 36 33  2  0  0  0  0
M  END
>  <MODEL>
6

>  <REMARK>
 VINA RESULT:      -6.2      1.693      2.415
  Name = 
  10 active torsions:
  status: ('A' for Active; 'I' for Inactive)
    1  A    between atoms: C_2  and  O_10
    2  A    between atoms: N_3  and  C_26
    3  A    between atoms: C_4  and  C_36
    4  A    between atoms: C_7  and  S_17
    5  A    between atoms: C_7  and  C_25
    6  A    between atoms: O_10  and  C_30
    7  A    between atoms: C_15  and  C_20
    8  A    between atoms: C_25  and  C_29
    9  A    between atoms: C_29  and  C_36
   10  A    between atoms: C_30  and  C_31
                            x       y       z     vdW  Elec       q    Type
                         _______ _______ _______ _____ _____    ______ ____

>  <TORSDO>
F 10

$$$$
=
 OpenBabel11042414003D

 36 38  0  0  1  0  0  0  0  0999 V2000
  192.1600  175.7500  144.6620 C   0  0  1  0  0  3  0  0  0  0  0  0
  191.2180  174.6450  144.5390 N   0  0  0  0  0  2  0  0  0  0  0  0
  191.5200  177.0620  144.2170 C   0  0  0  0  0  2  0  0  0  0  0  0
  189.0070  175.5140  142.2630 C   0  0  0  0  0  0  0  0  0  0  0  0
  188.6030  177.5800  143.4640 C   0  0  0  0  0  3  0  0  0  0  0  0
  187.6280  175.2970  142.1830 C   0  0  0  0  0  3  0  0  0  0  0  0
  190.4030  173.4400  142.5660 C   0  0  2  0  0  3  0  0  0  0  0  0
  189.9070  174.5370  141.7380 N   0  0  0  0  0  2  0  0  0  0  0  0
  191.6240  173.8760  143.3730 C   0  0  0  0  0  2  0  0  0  0  0  0
  187.2170  177.3650  143.3830 C   0  0  0  0  0  0  0  0  0  0  0  0
  189.4980  176.6630  142.8960 C   0  0  0  0  0  0  0  0  0  0  0  0
  186.7370  176.2220  142.7360 C   0  0  0  0  0  3  0  0  0  0  0  0
  190.8740  176.8830  142.9630 O   0  0  0  0  0  0  0  0  0  0  0  0
  190.8200  169.7660  141.3200 C   0  0  0  0  0  0  0  0  0  0  0  0
  190.5400  170.8820  142.2900 C   0  0  0  0  0  2  0  0  0  0  0  0
  191.3950  170.0490  139.9920 C   0  0  0  0  0  0  0  0  0  0  0  0
  191.2460  172.4430  140.4760 C   0  0  0  0  0  3  0  0  0  0  0  0
  190.5780  168.5800  141.6660 O   0  0  0  0  0  0  0  0  0  0  0  0
  190.7410  172.2610  141.7070 C   0  0  0  0  0  0  0  0  0  0  0  0
  191.7580  168.9400  139.0630 C   0  0  0  0  0  1  0  0  0  0  0  0
  191.5940  171.3090  139.6050 C   0  0  0  0  0  3  0  0  0  0  0  0
  186.2800  178.2900  143.9450 N   0  0  0  0  0  0  0  0  0  0  0  0
  185.2010  177.9190  144.5570 C   0  0  0  0  0  3  0  0  0  0  0  0
  184.2740  178.9290  145.1300 C   0  0  0  0  0  2  0  0  0  0  0  0
  184.0750  178.6660  146.5110 O   0  0  0  0  0  0  0  0  0  0  0  0
  185.1440  178.4160  147.3260 C   0  0  0  0  0  0  0  0  0  0  0  0
  186.0520  178.2050  148.0120 N   0  0  0  0  0  0  0  0  0  0  0  0
  191.8780  175.6990  147.0100 O   0  0  0  0  0  0  0  0  0  0  0  0
  192.6470  175.8630  146.0730 C   0  0  0  0  0  0  0  0  0  0  0  0
  194.0890  176.1740  146.3260 C   0  0  0  0  0  2  0  0  0  0  0  0
  194.9650  175.6060  145.2200 C   0  0  0  0  0  2  0  0  0  0  0  0
  195.8730  174.5250  145.7750 C   0  0  0  0  0  2  0  0  0  0  0  0
  195.3280  172.9240  145.2180 S   0  0  0  0  0  0  0  0  0  0  0  0
  193.9550  172.6260  145.7600 O   0  0  0  0  0  0  0  0  0  0  0  0
  195.2890  172.9020  143.4370 C   0  0  0  0  0  1  0  0  0  0  0  0
  196.2940  171.8810  145.7030 O   0  0  0  0  0  0  0  0  0  0  0  0
  1 29  1  1  0  0  0
  2  1  1  0  0  0  0
  3  1  1  0  0  0  0
  4 11  1  0  0  0  0
  6  4  2  0  0  0  0
  6 12  1  0  0  0  0
  7 19  1  6  0  0  0
  7  9  1  0  0  0  0
  8  4  1  0  0  0  0
  8  7  1  0  0  0  0
  9  2  1  0  0  0  0
 10  5  1  0  0  0  0
 10 22  1  0  0  0  0
 11 13  1  0  0  0  0
 11  5  2  0  0  0  0
 12 10  2  0  0  0  0
 13  3  1  0  0  0  0
 14 18  2  0  0  0  0
 14 15  1  0  0  0  0
 16 14  1  0  0  0  0
 17 19  2  0  0  0  0
 19 15  1  0  0  0  0
 20 16  1  0  0  0  0
 21 16  2  0  0  0  0
 21 17  1  0  0  0  0
 22 23  2  0  0  0  0
 23 24  1  0  0  0  0
 24 25  1  0  0  0  0
 25 26  1  0  0  0  0
 26 27  3  0  0  0  0
 29 30  1  0  0  0  0
 29 28  2  0  0  0  0
 31 32  1  0  0  0  0
 31 30  1  0  0  0  0
 33 36  2  0  0  0  0
 33 34  2  0  0  0  0
 33 32  1  0  0  0  0
 35 33  1  0  0  0  0
M  END
>  <MODEL>
7

>  <REMARK>
 VINA RESULT:      -6.2      2.369      8.229
  Name = 
  10 active torsions:
  status: ('A' for Active; 'I' for Inactive)
    1  A    between atoms: C_2  and  O_10
    2  A    between atoms: N_3  and  C_26
    3  A    between atoms: C_4  and  C_36
    4  A    between atoms: C_7  and  S_17
    5  A    between atoms: C_7  and  C_25
    6  A    between atoms: O_10  and  C_30
    7  A    between atoms: C_15  and  C_20
    8  A    between atoms: C_25  and  C_29
    9  A    between atoms: C_29  and  C_36
   10  A    between atoms: C_30  and  C_31
                            x       y       z     vdW  Elec       q    Type
                         _______ _______ _______ _____ _____    ______ ____

>  <TORSDO>
F 10

$$$$
=
 OpenBabel11042414003D

 36 38  0  0  1  0  0  0  0  0999 V2000
  191.3480  173.9940  145.0040 C   0  0  1  0  0  3  0  0  0  0  0  0
  191.0250  174.9970  143.9970 N   0  0  0  0  0  2  0  0  0  0  0  0
  191.0540  172.5900  144.4850 C   0  0  0  0  0  2  0  0  0  0  0  0
  188.7750  173.6670  141.9990 C   0  0  0  0  0  0  0  0  0  0  0  0
  190.2250  171.7540  141.6640 C   0  0  0  0  0  3  0  0  0  0  0  0
  188.5930  173.7640  140.6160 C   0  0  0  0  0  3  0  0  0  0  0  0
  188.8640  175.8630  143.2270 C   0  0  2  0  0  3  0  0  0  0  0  0
  188.1690  174.6310  142.8600 N   0  0  0  0  0  2  0  0  0  0  0  0
  189.7870  175.6330  144.4210 C   0  0  0  0  0  2  0  0  0  0  0  0
  190.0420  171.8480  140.2740 C   0  0  0  0  0  0  0  0  0  0  0  0
  189.5850  172.6530  142.5270 C   0  0  0  0  0  0  0  0  0  0  0  0
  189.2200  172.8550  139.7580 C   0  0  0  0  0  3  0  0  0  0  0  0
  189.7550  172.5500  143.9080 O   0  0  0  0  0  0  0  0  0  0  0  0
  186.5210  178.2820  145.1950 C   0  0  0  0  0  0  0  0  0  0  0  0
  187.4490  177.1190  144.9750 C   0  0  0  0  0  2  0  0  0  0  0  0
  185.9750  179.0380  144.0520 C   0  0  0  0  0  0  0  0  0  0  0  0
  187.3500  177.6840  142.5470 C   0  0  0  0  0  3  0  0  0  0  0  0
  186.1950  178.5910  146.3720 O   0  0  0  0  0  0  0  0  0  0  0  0
  187.8710  176.9400  143.5360 C   0  0  0  0  0  0  0  0  0  0  0  0
  184.9850  180.1340  144.2610 C   0  0  0  0  0  1  0  0  0  0  0  0
  186.3690  178.7490  142.8120 C   0  0  0  0  0  3  0  0  0  0  0  0
  190.6750  170.9370  139.3690 N   0  0  0  0  0  0  0  0  0  0  0  0
  190.0390  170.3230  138.4240 C   0  0  0  0  0  3  0  0  0  0  0  0
  190.7570  169.3980  137.5090 C   0  0  0  0  0  2  0  0  0  0  0  0
  191.3280  170.1330  136.4380 O   0  0  0  0  0  0  0  0  0  0  0  0
  190.5360  170.8980  135.6270 C   0  0  0  0  0  0  0  0  0  0  0  0
  189.8620  171.5420  134.9410 N   0  0  0  0  0  0  0  0  0  0  0  0
  193.6130  173.3150  144.9830 O   0  0  0  0  0  0  0  0  0  0  0  0
  192.7840  174.1080  145.4070 C   0  0  0  0  0  0  0  0  0  0  0  0
  193.1990  175.2080  146.3340 C   0  0  0  0  0  2  0  0  0  0  0  0
  194.6700  175.5440  146.1480 C   0  0  0  0  0  2  0  0  0  0  0  0
  194.8310  176.6230  145.0930 C   0  0  0  0  0  2  0  0  0  0  0  0
  195.9280  176.0600  143.8080 S   0  0  0  0  0  0  0  0  0  0  0  0
  196.8440  177.1770  143.3820 O   0  0  0  0  0  0  0  0  0  0  0  0
  196.8920  174.6910  144.4140 C   0  0  0  0  0  1  0  0  0  0  0  0
  195.1120  175.6060  142.6310 O   0  0  0  0  0  0  0  0  0  0  0  0
  1 29  1  6  0  0  0
  2  9  1  0  0  0  0
  2  1  1  0  0  0  0
  3  1  1  0  0  0  0
  4 11  1  0  0  0  0
  4  8  1  0  0  0  0
  5 11  2  0  0  0  0
  6  4  2  0  0  0  0
  7 19  1  1  0  0  0
  7  9  1  0  0  0  0
  8  7  1  0  0  0  0
 10  5  1  0  0  0  0
 11 13  1  0  0  0  0
 12 10  2  0  0  0  0
 12  6  1  0  0  0  0
 13  3  1  0  0  0  0
 14 18  2  0  0  0  0
 15 14  1  0  0  0  0
 16 20  1  0  0  0  0
 16 14  1  0  0  0  0
 17 21  1  0  0  0  0
 17 19  2  0  0  0  0
 19 15  1  0  0  0  0
 21 16  2  0  0  0  0
 22 10  1  0  0  0  0
 23 22  2  0  0  0  0
 24 23  1  0  0  0  0
 25 24  1  0  0  0  0
 26 25  1  0  0  0  0
 27 26  3  0  0  0  0
 28 29  2  0  0  0  0
 29 30  1  0  0  0  0
 31 30  1  0  0  0  0
 32 31  1  0  0  0  0
 33 35  1  0  0  0  0
 33 32  1  0  0  0  0
 34 33  2  0  0  0  0
 36 33  2  0  0  0  0
M  END
>  <MODEL>
8

>  <REMARK>
 VINA RESULT:      -6.2      3.112      6.196
  Name = 
  10 active torsions:
  status: ('A' for Active; 'I' for Inactive)
    1  A    between atoms: C_2  and  O_10
    2  A    between atoms: N_3  and  C_26
    3  A    between atoms: C_4  and  C_36
    4  A    between atoms: C_7  and  S_17
    5  A    between atoms: C_7  and  C_25
    6  A    between atoms: O_10  and  C_30
    7  A    between atoms: C_15  and  C_20
    8  A    between atoms: C_25  and  C_29
    9  A    between atoms: C_29  and  C_36
   10  A    between atoms: C_30  and  C_31
                            x       y       z     vdW  Elec       q    Type
                         _______ _______ _______ _____ _____    ______ ____

>  <TORSDO>
F 10

$$$$
=
 OpenBabel11042414003D

 36 38  0  0  1  0  0  0  0  0999 V2000
  192.3760  175.4170  145.9850 C   0  0  1  0  0  3  0  0  0  0  0  0
  191.6140  176.2700  145.0820 N   0  0  0  0  0  2  0  0  0  0  0  0
  192.5490  174.0200  145.3960 C   0  0  0  0  0  2  0  0  0  0  0  0
  189.7930  174.2880  143.1910 C   0  0  0  0  0  0  0  0  0  0  0  0
  191.7860  173.0410  142.6030 C   0  0  0  0  0  3  0  0  0  0  0  0
  189.4460  174.3610  141.8380 C   0  0  0  0  0  3  0  0  0  0  0  0
  189.2200  176.3230  144.5580 C   0  0  2  0  0  3  0  0  0  0  0  0
  188.9760  174.9370  144.1660 N   0  0  0  0  0  2  0  0  0  0  0  0
  190.2830  176.4010  145.6520 C   0  0  0  0  0  2  0  0  0  0  0  0
  191.4390  173.1120  141.2430 C   0  0  0  0  0  0  0  0  0  0  0  0
  190.9610  173.6170  143.5780 C   0  0  0  0  0  0  0  0  0  0  0  0
  190.2640  173.7710  140.8700 C   0  0  0  0  0  3  0  0  0  0  0  0
  191.2980  173.5340  144.9290 O   0  0  0  0  0  0  0  0  0  0  0  0
  186.1090  178.6700  144.7550 C   0  0  0  0  0  0  0  0  0  0  0  0
  187.4400  178.1630  144.2680 C   0  0  0  0  0  2  0  0  0  0  0  0
  185.4850  178.1060  145.9670 C   0  0  0  0  0  0  0  0  0  0  0  0
  187.3100  176.4810  146.1060 C   0  0  0  0  0  3  0  0  0  0  0  0
  185.5420  179.6020  144.1250 O   0  0  0  0  0  0  0  0  0  0  0  0
  187.9460  176.9570  145.0240 C   0  0  0  0  0  0  0  0  0  0  0  0
  184.2120  178.6660  146.5030 C   0  0  0  0  0  1  0  0  0  0  0  0
  186.0580  177.0800  146.5960 C   0  0  0  0  0  3  0  0  0  0  0  0
  192.2580  172.5230  140.2270 N   0  0  0  0  0  0  0  0  0  0  0  0
  191.9360  172.5190  138.9740 C   0  0  0  0  0  3  0  0  0  0  0  0
  192.8360  171.9020  137.9650 C   0  0  0  0  0  2  0  0  0  0  0  0
  192.1120  171.6460  136.7710 O   0  0  0  0  0  0  0  0  0  0  0  0
  190.8370  171.1540  136.8300 C   0  0  0  0  0  0  0  0  0  0  0  0
  189.7570  170.7390  136.8750 N   0  0  0  0  0  0  0  0  0  0  0  0
  193.7900  177.1210  146.8170 O   0  0  0  0  0  0  0  0  0  0  0  0
  193.7110  176.0270  146.2740 C   0  0  0  0  0  0  0  0  0  0  0  0
  194.9530  175.2820  145.8960 C   0  0  0  0  0  2  0  0  0  0  0  0
  195.6300  175.9340  144.7010 C   0  0  0  0  0  2  0  0  0  0  0  0
  195.8170  174.9200  143.5880 C   0  0  0  0  0  2  0  0  0  0  0  0
  195.0510  175.5100  142.0920 S   0  0  0  0  0  0  0  0  0  0  0  0
  193.6810  176.0560  142.3910 O   0  0  0  0  0  0  0  0  0  0  0  0
  196.0650  176.7870  141.3760 C   0  0  0  0  0  1  0  0  0  0  0  0
  194.9340  174.3700  141.1190 O   0  0  0  0  0  0  0  0  0  0  0  0
  1 29  1  6  0  0  0
  2  9  1  0  0  0  0
  2  1  1  0  0  0  0
  3  1  1  0  0  0  0
  4 11  1  0  0  0  0
  4  8  1  0  0  0  0
  5 11  2  0  0  0  0
  6  4  2  0  0  0  0
  7 19  1  1  0  0  0
  7  9  1  0  0  0  0
  8  7  1  0  0  0  0
 10  5  1  0  0  0  0
 11 13  1  0  0  0  0
 12 10  2  0  0  0  0
 12  6  1  0  0  0  0
 13  3  1  0  0  0  0
 14 16  1  0  0  0  0
 15 14  1  0  0  0  0
 15 19  1  0  0  0  0
 16 20  1  0  0  0  0
 16 21  2  0  0  0  0
 17 21  1  0  0  0  0
 18 14  2  0  0  0  0
 19 17  2  0  0  0  0
 22 10  1  0  0  0  0
 23 22  2  0  0  0  0
 24 23  1  0  0  0  0
 25 26  1  0  0  0  0
 25 24  1  0  0  0  0
 26 27  3  0  0  0  0
 29 28  2  0  0  0  0
 30 29  1  0  0  0  0
 31 30  1  0  0  0  0
 32 31  1  0  0  0  0
 33 34  2  0  0  0  0
 33 32  1  0  0  0  0
 35 33  1  0  0  0  0
 36 33  2  0  0  0  0
M  END
>  <MODEL>
9

>  <REMARK>
 VINA RESULT:      -6.2      2.787      5.654
  Name = 
  10 active torsions:
  status: ('A' for Active; 'I' for Inactive)
    1  A    between atoms: C_2  and  O_10
    2  A    between atoms: N_3  and  C_26
    3  A    between atoms: C_4  and  C_36
    4  A    between atoms: C_7  and  S_17
    5  A    between atoms: C_7  and  C_25
    6  A    between atoms: O_10  and  C_30
    7  A    between atoms: C_15  and  C_20
    8  A    between atoms: C_25  and  C_29
    9  A    between atoms: C_29  and  C_36
   10  A    between atoms: C_30  and  C_31
                            x       y       z     vdW  Elec       q    Type
                         _______ _______ _______ _____ _____    ______ ____

>  <TORSDO>
F 10

$$$$
