=
 OpenBabel11042418273D

 28 31  0  0  1  0  0  0  0  0999 V2000
  189.0900  176.6000  145.3640 N   0  0  0  0  0  0  0  0  0  0  0  0
  185.9570  177.6050  144.3240 C   0  0  0  0  0  0  0  0  0  0  0  0
  187.2490  177.6140  143.9740 C   0  0  0  0  0  3  0  0  0  0  0  0
  185.7220  177.2410  145.7740 C   0  0  1  0  0  3  0  0  0  0  0  0
  187.1300  177.0910  146.2130 C   0  0  0  0  0  0  0  0  0  0  0  0
  188.8760  175.9460  146.5380 C   0  0  0  0  0  0  0  0  0  0  0  0
  187.9730  177.3190  145.1940 C   0  0  0  0  0  0  0  0  0  0  0  0
  185.0770  178.4000  146.5150 C   0  0  0  0  0  1  0  0  0  0  0  0
  187.6440  176.1790  147.0600 N   0  0  0  0  0  0  0  0  0  0  0  0
  192.0170  175.0400  142.5720 C   0  0  2  0  0  3  0  0  0  0  0  0
  189.0800  174.1740  143.6900 C   0  0  0  0  0  1  0  0  0  0  0  0
  189.5810  175.5160  143.1850 C   0  0  1  0  0  3  0  0  0  0  0  0
  192.7210  176.2800  143.0340 C   0  0  1  0  0  3  0  0  0  0  0  0
  190.1230  176.3610  144.3560 C   0  0  1  0  0  3  0  0  0  0  0  0
  192.9330  175.7300  141.7550 O   0  0  0  0  0  0  0  0  0  0  0  0
  190.5920  175.2780  142.0560 C   0  0  0  0  0  2  0  0  0  0  0  0
  191.8950  177.5640  142.8990 C   0  0  0  0  0  2  0  0  0  0  0  0
  190.8010  177.6860  143.9640 C   0  0  0  0  0  2  0  0  0  0  0  0
  184.8990  177.8280  143.3760 C   0  0  0  0  0  0  0  0  0  0  0  0
  184.0480  178.0080  142.6150 N   0  0  0  0  0  0  0  0  0  0  0  0
  189.8140  174.9420  147.1260 C   0  0  0  0  0  2  0  0  0  0  0  0
  191.0290  175.6120  147.7650 C   0  0  2  0  0  3  0  0  0  0  0  0
  190.8560  176.9970  147.7440 O   0  0  0  0  0  0  0  0  0  0  0  0
  191.2540  177.4000  148.9330 O   0  0  0  0  0  1  0  0  0  0  0  0
  192.2360  174.1620  146.0540 C   0  0  0  0  0  1  0  0  0  0  0  0
  192.3700  175.2500  147.1070 C   0  0  1  0  0  3  0  0  0  0  0  0
  194.5370  176.1440  146.5230 O   0  0  0  0  0  1  0  0  0  0  0  0
  193.1770  176.4480  146.6080 C   0  0  0  0  0  2  0  0  0  0  0  0
  1  6  1  0  0  0  0
  2  4  1  0  0  0  0
  3  2  2  0  0  0  0
  3  7  1  0  0  0  0
  4  5  1  0  0  0  0
  4  8  1  1  0  0  0
  5  9  1  0  0  0  0
  6  9  2  0  0  0  0
  6 21  1  0  0  0  0
  7  1  1  0  0  0  0
  7  5  2  0  0  0  0
 10 16  1  6  0  0  0
 10 13  1  0  0  0  0
 12 11  1  1  0  0  0
 12 14  1  0  0  0  0
 13 17  1  6  0  0  0
 14 18  1  6  0  0  0
 14  1  1  0  0  0  0
 15 10  1  0  0  0  0
 15 13  1  0  0  0  0
 16 12  1  0  0  0  0
 17 18  1  0  0  0  0
 19  2  1  0  0  0  0
 20 19  3  0  0  0  0
 22 21  1  6  0  0  0
 23 22  1  0  0  0  0
 23 24  1  0  0  0  0
 26 25  1  6  0  0  0
 26 22  1  0  0  0  0
 27 28  1  0  0  0  0
 28 26  1  0  0  0  0
M  END
>  <MODEL>
1

>  <REMARK>
 VINA RESULT:      -6.8      0.000      0.000
  Name = 
  7 active torsions:
  status: ('A' for Active; 'I' for Inactive)
    1  A    between atoms: C_1  and  C_4
    2  A    between atoms: O_2  and  C_26
    3  A    between atoms: N_3  and  C_20
    4  A    between atoms: C_5  and  C_15
    5  A    between atoms: C_5  and  C_26
    6  A    between atoms: C_14  and  C_23
    7  A    between atoms: C_14  and  C_26
                            x       y       z     vdW  Elec       q    Type
                         _______ _______ _______ _____ _____    ______ ____

>  <TORSDO>
F 7

$$$$
=
 OpenBabel11042418273D

 28 31  0  0  1  0  0  0  0  0999 V2000
  188.9000  175.6020  143.6120 N   0  0  0  0  0  0  0  0  0  0  0  0
  189.9570  173.0090  141.5960 C   0  0  0  0  0  0  0  0  0  0  0  0
  190.3550  173.8210  142.5820 C   0  0  0  0  0  3  0  0  0  0  0  0
  188.6850  173.4620  140.9110 C   0  0  1  0  0  3  0  0  0  0  0  0
  188.4490  174.7210  141.6560 C   0  0  0  0  0  0  0  0  0  0  0  0
  187.6060  175.8200  143.2510 C   0  0  0  0  0  0  0  0  0  0  0  0
  189.4050  174.9140  142.5790 C   0  0  0  0  0  0  0  0  0  0  0  0
  188.9520  173.7760  139.4490 C   0  0  0  0  0  1  0  0  0  0  0  0
  187.2760  175.2340  142.0720 N   0  0  0  0  0  0  0  0  0  0  0  0
  191.3310  176.6460  147.0450 C   0  0  2  0  0  3  0  0  0  0  0  0
  190.2440  178.1190  144.3490 C   0  0  0  0  0  1  0  0  0  0  0  0
  189.5080  177.2570  145.3600 C   0  0  1  0  0  3  0  0  0  0  0  0
  191.0210  175.2130  147.3610 C   0  0  1  0  0  3  0  0  0  0  0  0
  189.5300  175.7780  144.9200 C   0  0  1  0  0  3  0  0  0  0  0  0
  191.2670  176.1680  148.3680 O   0  0  0  0  0  0  0  0  0  0  0  0
  190.0970  177.5100  146.7530 C   0  0  0  0  0  2  0  0  0  0  0  0
  189.5270  174.8720  147.3460 C   0  0  0  0  0  2  0  0  0  0  0  0
  188.9510  174.7730  145.9300 C   0  0  0  0  0  2  0  0  0  0  0  0
  190.6320  171.7760  141.2900 C   0  0  0  0  0  0  0  0  0  0  0  0
  191.1740  170.7850  141.0440 N   0  0  0  0  0  0  0  0  0  0  0  0
  186.5900  176.4890  144.1210 C   0  0  0  0  0  2  0  0  0  0  0  0
  186.2310  177.8800  143.6010 C   0  0  2  0  0  3  0  0  0  0  0  0
  187.1760  178.2760  142.6530 O   0  0  0  0  0  0  0  0  0  0  0  0
  186.4750  178.5040  141.5610 O   0  0  0  0  0  1  0  0  0  0  0  0
  185.2580  180.1350  144.2770 C   0  0  0  0  0  1  0  0  0  0  0  0
  186.1180  178.9530  144.6960 C   0  0  1  0  0  3  0  0  0  0  0  0
  184.3960  178.6600  146.3650 O   0  0  0  0  0  1  0  0  0  0  0  0
  185.7400  178.4160  146.0760 C   0  0  0  0  0  2  0  0  0  0  0  0
  2  3  2  0  0  0  0
  4  8  1  6  0  0  0
  4  2  1  0  0  0  0
  4  5  1  0  0  0  0
  5  9  1  0  0  0  0
  5  7  2  0  0  0  0
  6  1  1  0  0  0  0
  6 21  1  0  0  0  0
  7  3  1  0  0  0  0
  7  1  1  0  0  0  0
  9  6  2  0  0  0  0
 10 16  1  1  0  0  0
 10 13  1  0  0  0  0
 10 15  1  0  0  0  0
 12 11  1  6  0  0  0
 12 16  1  0  0  0  0
 13 17  1  1  0  0  0
 13 15  1  0  0  0  0
 14  1  1  6  0  0  0
 14 12  1  0  0  0  0
 14 18  1  0  0  0  0
 18 17  1  0  0  0  0
 19  2  1  0  0  0  0
 20 19  3  0  0  0  0
 22 21  1  1  0  0  0
 22 26  1  0  0  0  0
 23 22  1  0  0  0  0
 24 23  1  0  0  0  0
 26 25  1  6  0  0  0
 26 28  1  0  0  0  0
 28 27  1  0  0  0  0
M  END
>  <MODEL>
2

>  <REMARK>
 VINA RESULT:      -6.5      3.203      6.448
  Name = 
  7 active torsions:
  status: ('A' for Active; 'I' for Inactive)
    1  A    between atoms: C_1  and  C_4
    2  A    between atoms: O_2  and  C_26
    3  A    between atoms: N_3  and  C_20
    4  A    between atoms: C_5  and  C_15
    5  A    between atoms: C_5  and  C_26
    6  A    between atoms: C_14  and  C_23
    7  A    between atoms: C_14  and  C_26
                            x       y       z     vdW  Elec       q    Type
                         _______ _______ _______ _____ _____    ______ ____

>  <TORSDO>
F 7

$$$$
=
 OpenBabel11042418273D

 28 31  0  0  1  0  0  0  0  0999 V2000
  188.6120  176.0550  143.6830 N   0  0  0  0  0  0  0  0  0  0  0  0
  188.7760  174.0990  140.8450 C   0  0  0  0  0  0  0  0  0  0  0  0
  187.9310  174.8090  141.6010 C   0  0  0  0  0  3  0  0  0  0  0  0
  190.1040  173.8180  141.5170 C   0  0  1  0  0  3  0  0  0  0  0  0
  189.8470  174.4590  142.8280 C   0  0  0  0  0  0  0  0  0  0  0  0
  189.8920  176.1120  144.1430 C   0  0  0  0  0  0  0  0  0  0  0  0
  188.6170  174.9960  142.8640 C   0  0  0  0  0  0  0  0  0  0  0  0
  190.2970  172.3240  141.7080 C   0  0  0  0  0  1  0  0  0  0  0  0
  190.7000  175.1750  143.5860 N   0  0  0  0  0  0  0  0  0  0  0  0
  186.1020  179.5890  143.6790 C   0  0  2  0  0  3  0  0  0  0  0  0
  188.4820  178.3440  141.8320 C   0  0  0  0  0  1  0  0  0  0  0  0
  187.2410  177.6850  142.4080 C   0  0  1  0  0  3  0  0  0  0  0  0
  185.6030  178.9070  144.9170 C   0  0  1  0  0  3  0  0  0  0  0  0
  187.5550  177.0610  143.7840 C   0  0  1  0  0  3  0  0  0  0  0  0
  184.7830  179.7530  144.1440 O   0  0  0  0  0  0  0  0  0  0  0  0
  186.0960  178.7060  142.4250 C   0  0  0  0  0  2  0  0  0  0  0  0
  185.1670  177.4530  144.7060 C   0  0  0  0  0  2  0  0  0  0  0  0
  186.3480  176.4910  144.5490 C   0  0  0  0  0  2  0  0  0  0  0  0
  188.4740  173.7270  139.4900 C   0  0  0  0  0  0  0  0  0  0  0  0
  188.2310  173.4280  138.4000 N   0  0  0  0  0  0  0  0  0  0  0  0
  190.4180  177.1860  145.0400 C   0  0  0  0  0  2  0  0  0  0  0  0
  190.2540  176.8200  146.5150 C   0  0  2  0  0  3  0  0  0  0  0  0
  189.6370  177.8780  147.1860 O   0  0  0  0  0  0  0  0  0  0  0  0
  188.3510  177.5980  147.1380 O   0  0  0  0  0  1  0  0  0  0  0  0
  191.4350  175.2290  148.1140 C   0  0  0  0  0  1  0  0  0  0  0  0
  191.5660  176.4540  147.2250 C   0  0  1  0  0  3  0  0  0  0  0  0
  193.9170  176.9200  146.9240 O   0  0  0  0  0  1  0  0  0  0  0  0
  192.7860  176.3820  146.3070 C   0  0  0  0  0  2  0  0  0  0  0  0
  1  6  1  0  0  0  0
  2  4  1  0  0  0  0
  2  3  2  0  0  0  0
  3  7  1  0  0  0  0
  4  8  1  1  0  0  0
  4  5  1  0  0  0  0
  5  7  2  0  0  0  0
  5  9  1  0  0  0  0
  6 21  1  0  0  0  0
  7  1  1  0  0  0  0
  9  6  2  0  0  0  0
 10 16  1  6  0  0  0
 10 15  1  0  0  0  0
 10 13  1  0  0  0  0
 12 11  1  1  0  0  0
 12 16  1  0  0  0  0
 12 14  1  0  0  0  0
 13 17  1  6  0  0  0
 14  1  1  6  0  0  0
 14 18  1  0  0  0  0
 15 13  1  0  0  0  0
 18 17  1  0  0  0  0
 19  2  1  0  0  0  0
 20 19  3  0  0  0  0
 22 21  1  6  0  0  0
 22 23  1  0  0  0  0
 22 26  1  0  0  0  0
 24 23  1  0  0  0  0
 26 25  1  6  0  0  0
 28 27  1  0  0  0  0
 28 26  1  0  0  0  0
M  END
>  <MODEL>
3

>  <REMARK>
 VINA RESULT:      -6.4      2.689      5.135
  Name = 
  7 active torsions:
  status: ('A' for Active; 'I' for Inactive)
    1  A    between atoms: C_1  and  C_4
    2  A    between atoms: O_2  and  C_26
    3  A    between atoms: N_3  and  C_20
    4  A    between atoms: C_5  and  C_15
    5  A    between atoms: C_5  and  C_26
    6  A    between atoms: C_14  and  C_23
    7  A    between atoms: C_14  and  C_26
                            x       y       z     vdW  Elec       q    Type
                         _______ _______ _______ _____ _____    ______ ____

>  <TORSDO>
F 7

$$$$
=
 OpenBabel11042418273D

 28 31  0  0  1  0  0  0  0  0999 V2000
  189.6320  175.4330  144.2130 N   0  0  0  0  0  0  0  0  0  0  0  0
  189.3270  174.0230  141.0780 C   0  0  0  0  0  0  0  0  0  0  0  0
  188.6210  174.3870  142.1540 C   0  0  0  0  0  3  0  0  0  0  0  0
  190.8210  173.9730  141.3190 C   0  0  1  0  0  3  0  0  0  0  0  0
  190.8420  174.3280  142.7570 C   0  0  0  0  0  0  0  0  0  0  0  0
  190.9550  175.7260  144.3370 C   0  0  0  0  0  0  0  0  0  0  0  0
  189.5980  174.5410  143.2130 C   0  0  0  0  0  0  0  0  0  0  0  0
  191.3420  172.5580  141.1340 C   0  0  0  0  0  1  0  0  0  0  0  0
  191.7270  175.1060  143.4090 N   0  0  0  0  0  0  0  0  0  0  0  0
  186.1000  176.7360  146.3620 C   0  0  2  0  0  3  0  0  0  0  0  0
  188.7250  174.9020  146.9660 C   0  0  0  0  0  1  0  0  0  0  0  0
  188.6140  176.2700  146.3160 C   0  0  1  0  0  3  0  0  0  0  0  0
  185.8620  177.3900  145.0330 C   0  0  1  0  0  3  0  0  0  0  0  0
  188.4790  176.1270  144.7860 C   0  0  1  0  0  3  0  0  0  0  0  0
  185.3620  177.9290  146.2350 O   0  0  0  0  0  0  0  0  0  0  0  0
  187.4700  177.0460  146.9810 C   0  0  0  0  0  2  0  0  0  0  0  0
  187.0250  178.2560  144.5370 C   0  0  0  0  0  2  0  0  0  0  0  0
  188.2060  177.4310  144.0160 C   0  0  0  0  0  2  0  0  0  0  0  0
  188.7190  173.7970  139.7950 C   0  0  0  0  0  0  0  0  0  0  0  0
  188.2290  173.6150  138.7630 N   0  0  0  0  0  0  0  0  0  0  0  0
  191.5060  176.7480  145.2790 C   0  0  0  0  0  2  0  0  0  0  0  0
  192.2380  176.0980  146.4520 C   0  0  2  0  0  3  0  0  0  0  0  0
  191.8780  176.7440  147.6350 O   0  0  0  0  0  0  0  0  0  0  0  0
  191.4980  175.7750  148.4420 O   0  0  0  0  0  1  0  0  0  0  0  0
  194.3160  174.7310  145.9060 C   0  0  0  0  0  1  0  0  0  0  0  0
  193.7680  176.0880  146.3140 C   0  0  1  0  0  3  0  0  0  0  0  0
  195.3350  176.7670  144.6050 O   0  0  0  0  0  1  0  0  0  0  0  0
  194.3380  177.2260  145.4680 C   0  0  0  0  0  2  0  0  0  0  0  0
  1  6  1  0  0  0  0
  1 14  1  0  0  0  0
  2  4  1  0  0  0  0
  2  3  2  0  0  0  0
  3  7  1  0  0  0  0
  4  8  1  1  0  0  0
  4  5  1  0  0  0  0
  5  7  2  0  0  0  0
  5  9  1  0  0  0  0
  6 21  1  0  0  0  0
  7  1  1  0  0  0  0
  9  6  2  0  0  0  0
 10 16  1  1  0  0  0
 12 11  1  1  0  0  0
 12 16  1  0  0  0  0
 13 17  1  1  0  0  0
 13 15  1  0  0  0  0
 13 10  1  0  0  0  0
 14 18  1  6  0  0  0
 14 12  1  0  0  0  0
 15 10  1  0  0  0  0
 18 17  1  0  0  0  0
 19  2  1  0  0  0  0
 20 19  3  0  0  0  0
 22 21  1  6  0  0  0
 22 23  1  0  0  0  0
 23 24  1  0  0  0  0
 26 25  1  6  0  0  0
 26 22  1  0  0  0  0
 27 28  1  0  0  0  0
 28 26  1  0  0  0  0
M  END
>  <MODEL>
4

>  <REMARK>
 VINA RESULT:      -6.3      2.393      5.041
  Name = 
  7 active torsions:
  status: ('A' for Active; 'I' for Inactive)
    1  A    between atoms: C_1  and  C_4
    2  A    between atoms: O_2  and  C_26
    3  A    between atoms: N_3  and  C_20
    4  A    between atoms: C_5  and  C_15
    5  A    between atoms: C_5  and  C_26
    6  A    between atoms: C_14  and  C_23
    7  A    between atoms: C_14  and  C_26
                            x       y       z     vdW  Elec       q    Type
                         _______ _______ _______ _____ _____    ______ ____

>  <TORSDO>
F 7

$$$$
=
 OpenBabel11042418273D

 28 31  0  0  1  0  0  0  0  0999 V2000
  190.2180  175.4640  143.4480 N   0  0  0  0  0  0  0  0  0  0  0  0
  190.0020  172.3300  142.0180 C   0  0  0  0  0  0  0  0  0  0  0  0
  190.8710  173.2070  142.5360 C   0  0  0  0  0  3  0  0  0  0  0  0
  188.6460  172.9280  141.7100 C   0  0  1  0  0  3  0  0  0  0  0  0
  188.9100  174.3320  142.1000 C   0  0  0  0  0  0  0  0  0  0  0  0
  188.9340  175.9110  143.5040 C   0  0  0  0  0  0  0  0  0  0  0  0
  190.1690  174.4740  142.5460 C   0  0  0  0  0  0  0  0  0  0  0  0
  188.3600  172.8560  140.2200 C   0  0  0  0  0  1  0  0  0  0  0  0
  188.0840  175.1910  142.7280 N   0  0  0  0  0  0  0  0  0  0  0  0
  192.8830  176.3240  146.7560 C   0  0  2  0  0  3  0  0  0  0  0  0
  190.1920  174.5560  146.2520 C   0  0  0  0  0  1  0  0  0  0  0  0
  191.4680  174.6550  145.4340 C   0  0  1  0  0  3  0  0  0  0  0  0
  193.5250  177.1410  145.6750 C   0  0  1  0  0  3  0  0  0  0  0  0
  191.3300  175.7480  144.3540 C   0  0  1  0  0  3  0  0  0  0  0  0
  194.2630  176.6020  146.7470 O   0  0  0  0  0  0  0  0  0  0  0  0
  192.6550  174.8530  146.3850 C   0  0  0  0  0  2  0  0  0  0  0  0
  193.8470  176.3580  144.3980 C   0  0  0  0  0  2  0  0  0  0  0  0
  192.6060  176.0580  143.5520 C   0  0  0  0  0  2  0  0  0  0  0  0
  190.3120  170.9340  141.8650 C   0  0  0  0  0  0  0  0  0  0  0  0
  190.5610  169.8120  141.7420 N   0  0  0  0  0  0  0  0  0  0  0  0
  188.4520  176.9730  144.4400 C   0  0  0  0  0  2  0  0  0  0  0  0
  186.9500  177.2110  144.2980 C   0  0  2  0  0  3  0  0  0  0  0  0
  186.7240  178.5490  143.9710 O   0  0  0  0  0  0  0  0  0  0  0  0
  186.6460  178.5620  142.6570 O   0  0  0  0  0  1  0  0  0  0  0  0
  186.9860  176.6900  146.7910 C   0  0  0  0  0  1  0  0  0  0  0  0
  186.1300  176.8380  145.5430 C   0  0  1  0  0  3  0  0  0  0  0  0
  184.8300  178.1430  147.1070 O   0  0  0  0  0  1  0  0  0  0  0  0
  184.9000  177.7140  145.7790 C   0  0  0  0  0  2  0  0  0  0  0  0
  1  6  1  0  0  0  0
  2  3  2  0  0  0  0
  3  7  1  0  0  0  0
  4  8  1  6  0  0  0
  4  2  1  0  0  0  0
  4  5  1  0  0  0  0
  5  7  2  0  0  0  0
  5  9  1  0  0  0  0
  6 21  1  0  0  0  0
  7  1  1  0  0  0  0
  9  6  2  0  0  0  0
 10 16  1  6  0  0  0
 12 11  1  1  0  0  0
 12 16  1  0  0  0  0
 13 17  1  6  0  0  0
 13 15  1  0  0  0  0
 13 10  1  0  0  0  0
 14  1  1  6  0  0  0
 14 12  1  0  0  0  0
 15 10  1  0  0  0  0
 18 14  1  0  0  0  0
 18 17  1  0  0  0  0
 19  2  1  0  0  0  0
 20 19  3  0  0  0  0
 22 21  1  1  0  0  0
 22 26  1  0  0  0  0
 23 22  1  0  0  0  0
 24 23  1  0  0  0  0
 26 28  1  0  0  0  0
 26 25  1  1  0  0  0
 28 27  1  0  0  0  0
M  END
>  <MODEL>
5

>  <REMARK>
 VINA RESULT:      -6.2      3.047      5.919
  Name = 
  7 active torsions:
  status: ('A' for Active; 'I' for Inactive)
    1  A    between atoms: C_1  and  C_4
    2  A    between atoms: O_2  and  C_26
    3  A    between atoms: N_3  and  C_20
    4  A    between atoms: C_5  and  C_15
    5  A    between atoms: C_5  and  C_26
    6  A    between atoms: C_14  and  C_23
    7  A    between atoms: C_14  and  C_26
                            x       y       z     vdW  Elec       q    Type
                         _______ _______ _______ _____ _____    ______ ____

>  <TORSDO>
F 7

$$$$
=
 OpenBabel11042418273D

 28 31  0  0  1  0  0  0  0  0999 V2000
  191.0630  174.8550  144.2650 N   0  0  0  0  0  0  0  0  0  0  0  0
  194.2770  176.1070  144.3610 C   0  0  0  0  0  0  0  0  0  0  0  0
  193.5520  175.0680  143.9290 C   0  0  0  0  0  3  0  0  0  0  0  0
  193.5520  176.9820  145.3610 C   0  0  1  0  0  3  0  0  0  0  0  0
  192.2840  176.2220  145.4660 C   0  0  0  0  0  0  0  0  0  0  0  0
  190.3000  175.8030  144.8730 C   0  0  0  0  0  0  0  0  0  0  0  0
  192.3070  175.1430  144.6680 C   0  0  0  0  0  0  0  0  0  0  0  0
  194.2700  176.9650  146.6990 C   0  0  0  0  0  1  0  0  0  0  0  0
  191.0320  176.7060  145.5760 N   0  0  0  0  0  0  0  0  0  0  0  0
  190.1820  171.5010  141.6650 C   0  0  2  0  0  3  0  0  0  0  0  0
  189.8580  172.2240  144.8260 C   0  0  0  0  0  1  0  0  0  0  0  0
  189.5090  173.0390  143.5930 C   0  0  1  0  0  3  0  0  0  0  0  0
  190.7860  172.4540  140.6780 C   0  0  1  0  0  3  0  0  0  0  0  0
  190.6980  173.9350  143.1880 C   0  0  1  0  0  3  0  0  0  0  0  0
  189.8290  171.4910  140.3020 O   0  0  0  0  0  0  0  0  0  0  0  0
  189.0290  172.0900  142.4880 C   0  0  0  0  0  2  0  0  0  0  0  0
  190.1370  173.8420  140.6610 C   0  0  0  0  0  2  0  0  0  0  0  0
  190.5350  174.7030  141.8640 C   0  0  0  0  0  2  0  0  0  0  0  0
  195.5850  176.4030  143.8420 C   0  0  0  0  0  0  0  0  0  0  0  0
  196.6370  176.6420  143.4240 N   0  0  0  0  0  0  0  0  0  0  0  0
  188.8270  175.9580  144.6700 C   0  0  0  0  0  2  0  0  0  0  0  0
  188.4950  177.2390  143.9060 C   0  0  2  0  0  3  0  0  0  0  0  0
  187.7440  178.0830  144.7260 O   0  0  0  0  0  0  0  0  0  0  0  0
  187.2860  177.2980  145.6800 O   0  0  0  0  0  1  0  0  0  0  0  0
  186.9900  175.6940  142.5510 C   0  0  0  0  0  1  0  0  0  0  0  0
  187.7500  177.0100  142.5820 C   0  0  1  0  0  3  0  0  0  0  0  0
  185.5530  177.8210  141.9880 O   0  0  0  0  0  1  0  0  0  0  0  0
  186.8930  178.1890  142.1220 C   0  0  0  0  0  2  0  0  0  0  0  0
  1  7  1  0  0  0  0
  1  6  1  0  0  0  0
  2  4  1  0  0  0  0
  3  2  2  0  0  0  0
  3  7  1  0  0  0  0
  4  5  1  0  0  0  0
  4  8  1  1  0  0  0
  5  9  1  0  0  0  0
  6  9  2  0  0  0  0
  7  5  2  0  0  0  0
 10 16  1  1  0  0  0
 12 11  1  1  0  0  0
 13 17  1  1  0  0  0
 13 10  1  0  0  0  0
 14 18  1  6  0  0  0
 14 12  1  0  0  0  0
 14  1  1  0  0  0  0
 15 13  1  0  0  0  0
 15 10  1  0  0  0  0
 16 12  1  0  0  0  0
 17 18  1  0  0  0  0
 19  2  1  0  0  0  0
 20 19  3  0  0  0  0
 21  6  1  0  0  0  0
 22 21  1  1  0  0  0
 22 23  1  0  0  0  0
 23 24  1  0  0  0  0
 26 25  1  1  0  0  0
 26 22  1  0  0  0  0
 27 28  1  0  0  0  0
 28 26  1  0  0  0  0
M  END
>  <MODEL>
6

>  <REMARK>
 VINA RESULT:      -6.2      3.303      6.245
  Name = 
  7 active torsions:
  status: ('A' for Active; 'I' for Inactive)
    1  A    between atoms: C_1  and  C_4
    2  A    between atoms: O_2  and  C_26
    3  A    between atoms: N_3  and  C_20
    4  A    between atoms: C_5  and  C_15
    5  A    between atoms: C_5  and  C_26
    6  A    between atoms: C_14  and  C_23
    7  A    between atoms: C_14  and  C_26
                            x       y       z     vdW  Elec       q    Type
                         _______ _______ _______ _____ _____    ______ ____

>  <TORSDO>
F 7

$$$$
=
 OpenBabel11042418273D

 28 31  0  0  1  0  0  0  0  0999 V2000
  189.0180  176.5780  145.0680 N   0  0  0  0  0  0  0  0  0  0  0  0
  191.0520  177.1590  147.7940 C   0  0  0  0  0  0  0  0  0  0  0  0
  190.0240  177.6680  147.1050 C   0  0  0  0  0  3  0  0  0  0  0  0
  191.7860  176.0540  147.0650 C   0  0  1  0  0  3  0  0  0  0  0  0
  191.0180  176.0540  145.7980 C   0  0  0  0  0  0  0  0  0  0  0  0
  189.4350  175.3830  144.5690 C   0  0  0  0  0  0  0  0  0  0  0  0
  190.0430  176.9780  145.8320 C   0  0  0  0  0  0  0  0  0  0  0  0
  193.2240  176.4610  146.7910 C   0  0  0  0  0  1  0  0  0  0  0  0
  190.6450  174.9980  145.0500 N   0  0  0  0  0  0  0  0  0  0  0  0
  185.4180  178.9340  144.5380 C   0  0  2  0  0  3  0  0  0  0  0  0
  188.0310  178.1280  142.7640 C   0  0  0  0  0  1  0  0  0  0  0  0
  187.1220  177.2630  143.6200 C   0  0  1  0  0  3  0  0  0  0  0  0
  185.2280  178.4680  145.9500 C   0  0  1  0  0  3  0  0  0  0  0  0
  187.6760  177.1590  145.0560 C   0  0  1  0  0  3  0  0  0  0  0  0
  184.1410  178.7590  145.1040 O   0  0  0  0  0  0  0  0  0  0  0  0
  185.6900  177.8070  143.5330 C   0  0  0  0  0  2  0  0  0  0  0  0
  185.3310  176.9500  146.1350 C   0  0  0  0  0  2  0  0  0  0  0  0
  186.7720  176.4350  146.0690 C   0  0  0  0  0  2  0  0  0  0  0  0
  191.3590  177.5680  149.1380 C   0  0  0  0  0  0  0  0  0  0  0  0
  191.6060  177.8970  150.2190 N   0  0  0  0  0  0  0  0  0  0  0  0
  188.5980  174.4890  143.7120 C   0  0  0  0  0  2  0  0  0  0  0  0
  189.1660  174.3690  142.2980 C   0  0  2  0  0  3  0  0  0  0  0  0
  188.1150  174.3130  141.3820 O   0  0  0  0  0  0  0  0  0  0  0  0
  188.1890  175.4500  140.7200 O   0  0  0  0  0  1  0  0  0  0  0  0
  189.6360  171.9270  142.8450 C   0  0  0  0  0  1  0  0  0  0  0  0
  190.0960  173.1630  142.0910 C   0  0  1  0  0  3  0  0  0  0  0  0
  190.1670  171.5310  140.3110 O   0  0  0  0  0  1  0  0  0  0  0  0
  190.4330  172.8650  140.6300 C   0  0  0  0  0  2  0  0  0  0  0  0
  1  7  1  0  0  0  0
  2 19  1  0  0  0  0
  3  2  2  0  0  0  0
  4  8  1  6  0  0  0
  4  2  1  0  0  0  0
  5  7  2  0  0  0  0
  5  4  1  0  0  0  0
  6  9  2  0  0  0  0
  6  1  1  0  0  0  0
  7  3  1  0  0  0  0
  9  5  1  0  0  0  0
 10 16  1  6  0  0  0
 10 15  1  0  0  0  0
 10 13  1  0  0  0  0
 12 11  1  6  0  0  0
 12 14  1  0  0  0  0
 13 17  1  6  0  0  0
 14  1  1  6  0  0  0
 14 18  1  0  0  0  0
 15 13  1  0  0  0  0
 16 12  1  0  0  0  0
 18 17  1  0  0  0  0
 19 20  3  0  0  0  0
 21  6  1  0  0  0  0
 22 21  1  1  0  0  0
 23 22  1  0  0  0  0
 24 23  1  0  0  0  0
 26 22  1  0  0  0  0
 26 25  1  6  0  0  0
 27 28  1  0  0  0  0
 28 26  1  0  0  0  0
M  END
>  <MODEL>
7

>  <REMARK>
 VINA RESULT:      -6.1      3.349      6.393
  Name = 
  7 active torsions:
  status: ('A' for Active; 'I' for Inactive)
    1  A    between atoms: C_1  and  C_4
    2  A    between atoms: O_2  and  C_26
    3  A    between atoms: N_3  and  C_20
    4  A    between atoms: C_5  and  C_15
    5  A    between atoms: C_5  and  C_26
    6  A    between atoms: C_14  and  C_23
    7  A    between atoms: C_14  and  C_26
                            x       y       z     vdW  Elec       q    Type
                         _______ _______ _______ _____ _____    ______ ____

>  <TORSDO>
F 7

$$$$
=
 OpenBabel11042418273D

 28 31  0  0  1  0  0  0  0  0999 V2000
  188.6920  175.9950  143.2330 N   0  0  0  0  0  0  0  0  0  0  0  0
  188.9140  174.1510  140.3240 C   0  0  0  0  0  0  0  0  0  0  0  0
  188.0450  174.7930  141.1140 C   0  0  0  0  0  3  0  0  0  0  0  0
  190.2620  173.9110  140.9710 C   0  0  1  0  0  3  0  0  0  0  0  0
  189.9910  174.4920  142.3070 C   0  0  0  0  0  0  0  0  0  0  0  0
  189.9730  176.0970  143.6800 C   0  0  0  0  0  0  0  0  0  0  0  0
  188.7380  174.9670  142.3750 C   0  0  0  0  0  0  0  0  0  0  0  0
  190.5290  172.4220  141.1050 C   0  0  0  0  0  1  0  0  0  0  0  0
  190.8190  175.2210  143.0810 N   0  0  0  0  0  0  0  0  0  0  0  0
  186.0380  179.4140  143.4690 C   0  0  2  0  0  3  0  0  0  0  0  0
  188.5650  178.4710  141.6390 C   0  0  0  0  0  1  0  0  0  0  0  0
  187.3240  177.7070  142.0660 C   0  0  1  0  0  3  0  0  0  0  0  0
  185.5020  178.5800  144.5930 C   0  0  1  0  0  3  0  0  0  0  0  0
  187.5900  176.9450  143.3810 C   0  0  1  0  0  3  0  0  0  0  0  0
  184.6900  179.4770  143.8710 O   0  0  0  0  0  0  0  0  0  0  0  0
  186.1370  178.6770  142.1270 C   0  0  0  0  0  2  0  0  0  0  0  0
  185.1400  177.1450  144.1990 C   0  0  0  0  0  2  0  0  0  0  0  0
  186.3680  176.2490  144.0070 C   0  0  0  0  0  2  0  0  0  0  0  0
  188.6130  173.8130  138.9600 C   0  0  0  0  0  0  0  0  0  0  0  0
  188.3710  173.5410  137.8620 N   0  0  0  0  0  0  0  0  0  0  0  0
  190.4580  177.1630  144.6100 C   0  0  0  0  0  2  0  0  0  0  0  0
  190.3540  176.7280  146.0710 C   0  0  2  0  0  3  0  0  0  0  0  0
  191.3140  175.7490  146.3290 O   0  0  0  0  0  0  0  0  0  0  0  0
  192.2040  176.3480  147.0930 O   0  0  0  0  0  1  0  0  0  0  0  0
  189.0270  174.9030  147.2520 C   0  0  0  0  0  1  0  0  0  0  0  0
  188.9660  176.2100  146.4780 C   0  0  1  0  0  3  0  0  0  0  0  0
  186.7950  176.7410  147.3950 O   0  0  0  0  0  1  0  0  0  0  0  0
  188.0740  177.2490  147.1570 C   0  0  0  0  0  2  0  0  0  0  0  0
  1  6  1  0  0  0  0
  2  4  1  0  0  0  0
  2  3  2  0  0  0  0
  3  7  1  0  0  0  0
  4  8  1  1  0  0  0
  4  5  1  0  0  0  0
  5  7  2  0  0  0  0
  5  9  1  0  0  0  0
  6 21  1  0  0  0  0
  7  1  1  0  0  0  0
  9  6  2  0  0  0  0
 10 16  1  6  0  0  0
 10 15  1  0  0  0  0
 10 13  1  0  0  0  0
 12 11  1  1  0  0  0
 12 16  1  0  0  0  0
 12 14  1  0  0  0  0
 13 17  1  6  0  0  0
 14  1  1  6  0  0  0
 14 18  1  0  0  0  0
 15 13  1  0  0  0  0
 18 17  1  0  0  0  0
 19  2  1  0  0  0  0
 20 19  3  0  0  0  0
 22 21  1  6  0  0  0
 22 23  1  0  0  0  0
 22 26  1  0  0  0  0
 23 24  1  0  0  0  0
 26 28  1  0  0  0  0
 26 25  1  1  0  0  0
 28 27  1  0  0  0  0
M  END
>  <MODEL>
8

>  <REMARK>
 VINA RESULT:      -6.0      2.896      5.613
  Name = 
  7 active torsions:
  status: ('A' for Active; 'I' for Inactive)
    1  A    between atoms: C_1  and  C_4
    2  A    between atoms: O_2  and  C_26
    3  A    between atoms: N_3  and  C_20
    4  A    between atoms: C_5  and  C_15
    5  A    between atoms: C_5  and  C_26
    6  A    between atoms: C_14  and  C_23
    7  A    between atoms: C_14  and  C_26
                            x       y       z     vdW  Elec       q    Type
                         _______ _______ _______ _____ _____    ______ ____

>  <TORSDO>
F 7

$$$$
=
 OpenBabel11042418273D

 28 31  0  0  1  0  0  0  0  0999 V2000
  189.9160  175.3620  144.4660 N   0  0  0  0  0  0  0  0  0  0  0  0
  193.3460  175.3600  144.0920 C   0  0  0  0  0  0  0  0  0  0  0  0
  192.2010  175.4640  143.4080 C   0  0  0  0  0  3  0  0  0  0  0  0
  193.1670  174.8380  145.5020 C   0  0  1  0  0  3  0  0  0  0  0  0
  191.7030  174.6100  145.4870 C   0  0  0  0  0  0  0  0  0  0  0  0
  189.7100  175.2340  145.8050 C   0  0  0  0  0  0  0  0  0  0  0  0
  191.1800  174.9520  144.2990 C   0  0  0  0  0  0  0  0  0  0  0  0
  193.8890  173.5120  145.6730 C   0  0  0  0  0  1  0  0  0  0  0  0
  190.8170  174.8290  146.4780 N   0  0  0  0  0  0  0  0  0  0  0  0
  187.5040  178.0990  142.1250 C   0  0  2  0  0  3  0  0  0  0  0  0
  190.0340  178.2920  144.1700 C   0  0  0  0  0  1  0  0  0  0  0  0
  189.7910  177.3590  142.9960 C   0  0  1  0  0  3  0  0  0  0  0  0
  186.8460  176.7970  141.7770 C   0  0  1  0  0  3  0  0  0  0  0  0
  189.1010  176.0650  143.4750 C   0  0  1  0  0  3  0  0  0  0  0  0
  186.8550  177.8940  140.8920 O   0  0  0  0  0  0  0  0  0  0  0  0
  189.0220  178.1180  141.9070 C   0  0  0  0  0  2  0  0  0  0  0  0
  187.8080  175.7230  141.2570 C   0  0  0  0  0  2  0  0  0  0  0  0
  188.6580  175.0950  142.3650 C   0  0  0  0  0  2  0  0  0  0  0  0
  194.6080  175.7970  143.5570 C   0  0  0  0  0  0  0  0  0  0  0  0
  195.6220  176.1480  143.1270 N   0  0  0  0  0  0  0  0  0  0  0  0
  188.4570  175.6490  146.5080 C   0  0  0  0  0  2  0  0  0  0  0  0
  188.3330  177.1690  146.5890 C   0  0  2  0  0  3  0  0  0  0  0  0
  188.7870  177.6020  147.8370 O   0  0  0  0  0  0  0  0  0  0  0  0
  190.0500  177.9200  147.6390 O   0  0  0  0  0  1  0  0  0  0  0  0
  186.0950  176.8040  145.4300 C   0  0  0  0  0  1  0  0  0  0  0  0
  186.9130  177.7010  146.3440 C   0  0  1  0  0  3  0  0  0  0  0  0
  185.7430  179.4250  147.5680 O   0  0  0  0  0  1  0  0  0  0  0  0
  186.1520  178.0910  147.6120 C   0  0  0  0  0  2  0  0  0  0  0  0
  1  6  1  0  0  0  0
  2  4  1  0  0  0  0
  3  2  2  0  0  0  0
  3  7  1  0  0  0  0
  4  8  1  6  0  0  0
  5  4  1  0  0  0  0
  5  9  1  0  0  0  0
  6  9  2  0  0  0  0
  6 21  1  0  0  0  0
  7  1  1  0  0  0  0
  7  5  2  0  0  0  0
 10 16  1  6  0  0  0
 12 14  1  0  0  0  0
 12 11  1  1  0  0  0
 13 17  1  6  0  0  0
 13 10  1  0  0  0  0
 14 18  1  6  0  0  0
 14  1  1  0  0  0  0
 15 13  1  0  0  0  0
 15 10  1  0  0  0  0
 16 12  1  0  0  0  0
 17 18  1  0  0  0  0
 19  2  1  0  0  0  0
 20 19  3  0  0  0  0
 22 21  1  1  0  0  0
 22 23  1  0  0  0  0
 24 23  1  0  0  0  0
 26 25  1  1  0  0  0
 26 22  1  0  0  0  0
 26 28  1  0  0  0  0
 27 28  1  0  0  0  0
M  END
>  <MODEL>
9

>  <REMARK>
 VINA RESULT:      -6.0      2.613      5.901
  Name = 
  7 active torsions:
  status: ('A' for Active; 'I' for Inactive)
    1  A    between atoms: C_1  and  C_4
    2  A    between atoms: O_2  and  C_26
    3  A    between atoms: N_3  and  C_20
    4  A    between atoms: C_5  and  C_15
    5  A    between atoms: C_5  and  C_26
    6  A    between atoms: C_14  and  C_23
    7  A    between atoms: C_14  and  C_26
                            x       y       z     vdW  Elec       q    Type
                         _______ _______ _______ _____ _____    ______ ____

>  <TORSDO>
F 7

$$$$
