=
 OpenBabel11042418413D

 34 37  0  0  1  0  0  0  0  0999 V2000
  190.6600  175.3270  144.3700 C   0  0  1  0  0  0  0  0  0  0  0  0
  194.0240  176.0000  143.1570 C   0  0  0  0  0  3  0  0  0  0  0  0
  192.1370  174.9540  144.3210 C   0  0  0  0  0  0  0  0  0  0  0  0
  192.9050  175.0270  143.0350 C   0  0  0  0  0  2  0  0  0  0  0  0
  195.1320  174.6690  144.9290 C   0  0  0  0  0  0  0  0  0  0  0  0
  195.0370  175.8300  144.0060 C   0  0  0  0  0  0  0  0  0  0  0  0
  192.7080  174.4940  145.3980 N   0  0  0  0  0  0  0  0  0  0  0  0
  194.0870  174.1190  145.5630 C   0  0  0  0  0  3  0  0  0  0  0  0
  196.0980  176.7770  143.9760 N   0  0  0  0  0  1  0  0  0  0  0  0
  197.5370  173.7610  145.5600 C   0  0  0  0  0  3  0  0  0  0  0  0
  196.4400  174.1740  145.2740 C   0  0  0  0  0  0  0  0  0  0  0  0
  190.2580  176.0630  143.0750 C   0  0  0  0  0  2  0  0  0  0  0  0
  186.9790  177.1820  140.6430 C   0  0  0  0  0  2  0  0  0  0  0  0
  186.1650  178.2790  142.6940 C   0  0  0  0  0  0  0  0  0  0  0  0
  187.4140  178.5490  143.2110 O   0  0  0  0  0  0  0  0  0  0  0  0
  186.1070  177.0370  141.8730 C   0  0  2  0  0  3  0  0  0  0  0  0
  189.6470  177.4410  143.3290 C   0  0  2  0  0  3  0  0  0  0  0  0
  188.2830  177.5430  142.7620 C   0  0  2  0  0  0  0  0  0  0  0  0
  189.3950  178.0930  142.1040 O   0  0  0  0  0  0  0  0  0  0  0  0
  185.1670  179.0150  142.9110 O   0  0  0  0  0  0  0  0  0  0  0  0
  187.5540  176.5240  141.8870 C   0  0  2  0  0  3  0  0  0  0  0  0
  189.8150  174.0480  144.5330 C   0  0  0  0  0  2  0  0  0  0  0  0
  190.6160  172.4450  142.9530 O   0  0  0  0  0  1  0  0  0  0  0  0
  188.5210  173.2720  142.5360 O   0  0  0  0  0  0  0  0  0  0  0  0
  189.6800  173.2110  143.2990 C   0  0  0  0  0  0  0  0  0  0  0  0
  190.3680  176.2240  145.5970 C   0  0  0  0  0  2  0  0  0  0  0  0
  189.9020  174.8960  147.5020 O   0  0  0  0  0  0  0  0  0  0  0  0
  189.4540  175.6120  146.6220 C   0  0  0  0  0  0  0  0  0  0  0  0
  187.9970  175.9430  146.5890 C   0  0  0  0  0  2  0  0  0  0  0  0
  187.7800  177.4470  146.5330 C   0  0  0  0  0  2  0  0  0  0  0  0
  186.0440  177.8560  146.8860 P   0  0  0  0  0  0  0  0  0  0  0  0
  185.0440  176.6420  146.2650 O   0  0  0  0  0  1  0  0  0  0  0  0
  185.6520  179.3300  146.1530 O   0  0  0  0  0  0  0  0  0  0  0  0
  185.8260  177.9680  148.3770 O   0  0  0  0  0  1  0  0  0  0  0  0
  1 12  1  6  0  0  0
  1 22  1  0  0  0  0
  1 26  1  0  0  0  0
  2  6  2  0  0  0  0
  3  1  1  0  0  0  0
  3  7  2  0  0  0  0
  4  2  1  0  0  0  0
  4  3  1  0  0  0  0
  5 11  1  0  0  0  0
  5  8  2  0  0  0  0
  6  5  1  0  0  0  0
  7  8  1  0  0  0  0
  9  6  1  0  0  0  0
 11 10  3  0  0  0  0
 14 20  2  0  0  0  0
 14 15  1  0  0  0  0
 16 13  1  6  0  0  0
 16 21  1  0  0  0  0
 16 14  1  0  0  0  0
 17 12  1  6  0  0  0
 18 19  1  6  0  0  0
 18 15  1  0  0  0  0
 18 17  1  0  0  0  0
 19 17  1  0  0  0  0
 21 13  1  6  0  0  0
 21 18  1  0  0  0  0
 23 25  1  0  0  0  0
 24 25  2  0  0  0  0
 25 22  1  0  0  0  0
 26 28  1  0  0  0  0
 28 27  2  0  0  0  0
 29 28  1  0  0  0  0
 30 29  1  0  0  0  0
 30 31  1  0  0  0  0
 31 34  1  0  0  0  0
 32 31  1  0  0  0  0
 33 31  2  0  0  0  0
M  END
>  <MODEL>
1

>  <REMARK>
 VINA RESULT:      -6.4      0.000      0.000
  Name = 
  11 active torsions:
  status: ('A' for Active; 'I' for Inactive)
    1  A    between atoms: P_2  and  C_23
    2  A    between atoms: C_4  and  C_23
    3  A    between atoms: C_4  and  C_29
    4  A    between atoms: C_9  and  C_15
    5  A    between atoms: C_11  and  C_12
    6  A    between atoms: C_11  and  C_15
    7  A    between atoms: C_13  and  C_15
    8  A    between atoms: C_13  and  C_21
    9  A    between atoms: C_14  and  C_15
   10  A    between atoms: C_14  and  C_29
   11  A    between atoms: C_18  and  C_33
                            x       y       z     vdW  Elec       q    Type
                         _______ _______ _______ _____ _____    ______ ____

>  <TORSDO>
F 11

$$$$
=
 OpenBabel11042418413D

 34 37  0  0  1  0  0  0  0  0999 V2000
  189.3620  175.9330  144.5210 C   0  0  1  0  0  0  0  0  0  0  0  0
  186.6230  178.2280  145.2040 C   0  0  0  0  0  3  0  0  0  0  0  0
  187.9310  176.3850  144.2560 C   0  0  0  0  0  0  0  0  0  0  0  0
  187.0390  176.8110  145.3840 C   0  0  0  0  0  2  0  0  0  0  0  0
  185.4240  177.7230  143.0950 C   0  0  0  0  0  0  0  0  0  0  0  0
  185.8820  178.6370  144.1750 C   0  0  0  0  0  0  0  0  0  0  0  0
  187.4640  176.3220  143.0410 N   0  0  0  0  0  0  0  0  0  0  0  0
  186.1610  176.7270  142.5850 C   0  0  0  0  0  3  0  0  0  0  0  0
  185.4670  179.9970  144.1500 N   0  0  0  0  0  1  0  0  0  0  0  0
  183.1040  178.2220  141.9230 C   0  0  0  0  0  3  0  0  0  0  0  0
  184.1610  177.9950  142.4590 C   0  0  0  0  0  0  0  0  0  0  0  0
  189.8250  174.9680  143.4100 C   0  0  0  0  0  2  0  0  0  0  0  0
  189.6840  172.3630  140.0760 C   0  0  0  0  0  2  0  0  0  0  0  0
  190.5780  170.7020  141.6620 C   0  0  0  0  0  0  0  0  0  0  0  0
  189.9790  171.2440  142.7800 O   0  0  0  0  0  0  0  0  0  0  0  0
  190.9360  171.7080  140.6230 C   0  0  2  0  0  3  0  0  0  0  0  0
  189.4570  173.5100  143.6860 C   0  0  2  0  0  3  0  0  0  0  0  0
  189.8640  172.6260  142.5700 C   0  0  2  0  0  0  0  0  0  0  0  0
  188.5340  173.0520  142.7230 O   0  0  0  0  0  0  0  0  0  0  0  0
  190.8070  169.4700  141.5450 O   0  0  0  0  0  0  0  0  0  0  0  0
  190.4380  173.0350  141.2130 C   0  0  2  0  0  3  0  0  0  0  0  0
  190.2870  177.1660  144.5670 C   0  0  0  0  0  2  0  0  0  0  0  0
  190.1270  178.2440  142.4420 O   0  0  0  0  0  0  0  0  0  0  0  0
  192.1540  177.2850  142.9060 O   0  0  0  0  0  1  0  0  0  0  0  0
  190.8440  177.5950  143.2450 C   0  0  0  0  0  0  0  0  0  0  0  0
  189.4640  175.2370  145.8990 C   0  0  0  0  0  2  0  0  0  0  0  0
  190.5620  176.4300  147.6260 O   0  0  0  0  0  0  0  0  0  0  0  0
  190.6660  175.6250  146.7150 C   0  0  0  0  0  0  0  0  0  0  0  0
  191.9780  174.9640  146.4400 C   0  0  0  0  0  2  0  0  0  0  0  0
  193.1290  175.9440  146.6120 C   0  0  0  0  0  2  0  0  0  0  0  0
  194.4600  175.5800  145.4300 P   0  0  0  0  0  0  0  0  0  0  0  0
  195.6670  174.6820  146.2020 O   0  0  0  0  0  1  0  0  0  0  0  0
  195.1220  177.0300  144.8620 O   0  0  0  0  0  1  0  0  0  0  0  0
  193.9200  174.7880  144.2620 O   0  0  0  0  0  0  0  0  0  0  0  0
  1 12  1  6  0  0  0
  1 22  1  0  0  0  0
  1 26  1  0  0  0  0
  2  4  1  0  0  0  0
  3  1  1  0  0  0  0
  3  4  1  0  0  0  0
  5  6  1  0  0  0  0
  6  2  2  0  0  0  0
  7  3  2  0  0  0  0
  8  7  1  0  0  0  0
  8  5  2  0  0  0  0
  9  6  1  0  0  0  0
 10 11  3  0  0  0  0
 11  5  1  0  0  0  0
 14 15  1  0  0  0  0
 16 13  1  6  0  0  0
 16 21  1  0  0  0  0
 16 14  1  0  0  0  0
 17 12  1  6  0  0  0
 18 19  1  6  0  0  0
 18 15  1  0  0  0  0
 18 17  1  0  0  0  0
 19 17  1  0  0  0  0
 20 14  2  0  0  0  0
 21 13  1  6  0  0  0
 21 18  1  0  0  0  0
 23 25  2  0  0  0  0
 24 25  1  0  0  0  0
 25 22  1  0  0  0  0
 26 28  1  0  0  0  0
 28 27  2  0  0  0  0
 29 30  1  0  0  0  0
 29 28  1  0  0  0  0
 31 32  1  0  0  0  0
 31 30  1  0  0  0  0
 33 31  1  0  0  0  0
 34 31  2  0  0  0  0
M  END
>  <MODEL>
2

>  <REMARK>
 VINA RESULT:      -6.4      3.598      7.575
  Name = 
  11 active torsions:
  status: ('A' for Active; 'I' for Inactive)
    1  A    between atoms: P_2  and  C_23
    2  A    between atoms: C_4  and  C_23
    3  A    between atoms: C_4  and  C_29
    4  A    between atoms: C_9  and  C_15
    5  A    between atoms: C_11  and  C_12
    6  A    between atoms: C_11  and  C_15
    7  A    between atoms: C_13  and  C_15
    8  A    between atoms: C_13  and  C_21
    9  A    between atoms: C_14  and  C_15
   10  A    between atoms: C_14  and  C_29
   11  A    between atoms: C_18  and  C_33
                            x       y       z     vdW  Elec       q    Type
                         _______ _______ _______ _____ _____    ______ ____

>  <TORSDO>
F 11

$$$$
=
 OpenBabel11042418413D

 34 37  0  0  1  0  0  0  0  0999 V2000
  190.6010  175.0600  145.4820 C   0  0  1  0  0  0  0  0  0  0  0  0
  189.4600  177.5530  143.0890 C   0  0  0  0  0  3  0  0  0  0  0  0
  189.6960  176.2400  145.1460 C   0  0  0  0  0  0  0  0  0  0  0  0
  190.2170  177.4080  144.3620 C   0  0  0  0  0  2  0  0  0  0  0  0
  187.3310  177.9940  144.2780 C   0  0  0  0  0  0  0  0  0  0  0  0
  188.1570  177.8300  143.0530 C   0  0  0  0  0  0  0  0  0  0  0  0
  188.4810  176.2580  145.6170 N   0  0  0  0  0  0  0  0  0  0  0  0
  187.4720  177.2570  145.3880 C   0  0  0  0  0  3  0  0  0  0  0  0
  187.5540  178.0350  141.7810 N   0  0  0  0  0  1  0  0  0  0  0  0
  185.2910  179.6780  144.2050 C   0  0  0  0  0  3  0  0  0  0  0  0
  186.2210  178.9100  144.2370 C   0  0  0  0  0  0  0  0  0  0  0  0
  191.8720  175.1040  144.6080 C   0  0  0  0  0  2  0  0  0  0  0  0
  195.6110  175.2750  142.6310 C   0  0  0  0  0  2  0  0  0  0  0  0
  196.5070  174.5730  144.8170 C   0  0  0  0  0  0  0  0  0  0  0  0
  195.3910  173.8590  145.2010 O   0  0  0  0  0  0  0  0  0  0  0  0
  196.2060  175.7420  143.9440 C   0  0  2  0  0  3  0  0  0  0  0  0
  192.9110  174.0560  145.0030 C   0  0  2  0  0  3  0  0  0  0  0  0
  194.2760  174.4660  144.6030 C   0  0  2  0  0  0  0  0  0  0  0  0
  193.5380  173.5370  143.8510 O   0  0  0  0  0  0  0  0  0  0  0  0
  197.6710  174.2630  145.1860 O   0  0  0  0  0  0  0  0  0  0  0  0
  194.6820  175.6790  143.7650 C   0  0  2  0  0  3  0  0  0  0  0  0
  190.9860  175.1210  146.9740 C   0  0  0  0  0  2  0  0  0  0  0  0
  190.8420  177.2490  148.0510 O   0  0  0  0  0  1  0  0  0  0  0  0
  192.8950  176.7250  147.1810 O   0  0  0  0  0  0  0  0  0  0  0  0
  191.5630  176.4250  147.4320 C   0  0  0  0  0  0  0  0  0  0  0  0
  189.8540  173.7240  145.2590 C   0  0  0  0  0  2  0  0  0  0  0  0
  190.4000  172.3350  143.4200 O   0  0  0  0  0  0  0  0  0  0  0  0
  189.7540  173.2890  143.8230 C   0  0  0  0  0  0  0  0  0  0  0  0
  188.8070  173.9980  142.9100 C   0  0  0  0  0  2  0  0  0  0  0  0
  188.2230  173.0430  141.8810 C   0  0  0  0  0  2  0  0  0  0  0  0
  188.7130  173.5360  140.2020 P   0  0  0  0  0  0  0  0  0  0  0  0
  188.0710  172.4410  139.0850 O   0  0  0  0  0  0  0  0  0  0  0  0
  190.4020  173.5270  140.0830 O   0  0  0  0  0  1  0  0  0  0  0  0
  188.1990  174.9230  139.8930 O   0  0  0  0  0  1  0  0  0  0  0  0
  1 12  1  6  0  0  0
  1 22  1  0  0  0  0
  2  4  1  0  0  0  0
  3  1  1  0  0  0  0
  3  7  2  0  0  0  0
  4  3  1  0  0  0  0
  5  8  2  0  0  0  0
  6  2  2  0  0  0  0
  6  5  1  0  0  0  0
  8  7  1  0  0  0  0
  9  6  1  0  0  0  0
 10 11  3  0  0  0  0
 11  5  1  0  0  0  0
 14 20  2  0  0  0  0
 14 15  1  0  0  0  0
 16 13  1  6  0  0  0
 16 14  1  0  0  0  0
 17 12  1  6  0  0  0
 18 19  1  6  0  0  0
 18 17  1  0  0  0  0
 18 15  1  0  0  0  0
 19 17  1  0  0  0  0
 21 13  1  6  0  0  0
 21 16  1  0  0  0  0
 21 18  1  0  0  0  0
 22 25  1  0  0  0  0
 24 25  2  0  0  0  0
 25 23  1  0  0  0  0
 26  1  1  0  0  0  0
 27 28  2  0  0  0  0
 28 26  1  0  0  0  0
 29 28  1  0  0  0  0
 30 29  1  0  0  0  0
 31 30  1  0  0  0  0
 32 31  2  0  0  0  0
 33 31  1  0  0  0  0
 34 31  1  0  0  0  0
M  END
>  <MODEL>
3

>  <REMARK>
 VINA RESULT:      -6.4      3.351      7.627
  Name = 
  11 active torsions:
  status: ('A' for Active; 'I' for Inactive)
    1  A    between atoms: P_2  and  C_23
    2  A    between atoms: C_4  and  C_23
    3  A    between atoms: C_4  and  C_29
    4  A    between atoms: C_9  and  C_15
    5  A    between atoms: C_11  and  C_12
    6  A    between atoms: C_11  and  C_15
    7  A    between atoms: C_13  and  C_15
    8  A    between atoms: C_13  and  C_21
    9  A    between atoms: C_14  and  C_15
   10  A    between atoms: C_14  and  C_29
   11  A    between atoms: C_18  and  C_33
                            x       y       z     vdW  Elec       q    Type
                         _______ _______ _______ _____ _____    ______ ____

>  <TORSDO>
F 11

$$$$
=
 OpenBabel11042418413D

 34 37  0  0  1  0  0  0  0  0999 V2000
  190.2580  175.3670  144.4040 C   0  0  1  0  0  0  0  0  0  0  0  0
  193.5100  175.5470  146.0260 C   0  0  0  0  0  3  0  0  0  0  0  0
  191.7110  175.8260  144.3840 C   0  0  0  0  0  0  0  0  0  0  0  0
  192.3550  176.3900  145.6160 C   0  0  0  0  0  2  0  0  0  0  0  0
  194.7400  176.0210  143.9270 C   0  0  0  0  0  0  0  0  0  0  0  0
  194.5930  175.3910  145.2660 C   0  0  0  0  0  0  0  0  0  0  0  0
  192.3680  175.7960  143.2590 N   0  0  0  0  0  0  0  0  0  0  0  0
  193.7440  176.1540  143.0420 C   0  0  0  0  0  3  0  0  0  0  0  0
  195.6760  174.6350  145.7950 N   0  0  0  0  0  1  0  0  0  0  0  0
  197.1630  176.7210  143.1260 C   0  0  0  0  0  3  0  0  0  0  0  0
  196.0590  176.4010  143.4910 C   0  0  0  0  0  0  0  0  0  0  0  0
  189.3820  176.3550  143.6060 C   0  0  0  0  0  2  0  0  0  0  0  0
  185.4720  177.5050  142.4610 C   0  0  0  0  0  2  0  0  0  0  0  0
  186.3920  177.4110  140.1760 C   0  0  0  0  0  0  0  0  0  0  0  0
  187.3160  176.4220  140.4410 O   0  0  0  0  0  0  0  0  0  0  0  0
  186.1080  178.2990  141.3390 C   0  0  2  0  0  3  0  0  0  0  0  0
  188.8400  175.7640  142.3040 C   0  0  2  0  0  3  0  0  0  0  0  0
  187.6970  176.5490  141.7850 C   0  0  2  0  0  0  0  0  0  0  0  0
  187.5050  175.3440  142.4810 O   0  0  0  0  0  0  0  0  0  0  0  0
  185.8500  177.5500  139.0480 O   0  0  0  0  0  0  0  0  0  0  0  0
  186.9770  177.7160  142.4620 C   0  0  2  0  0  3  0  0  0  0  0  0
  190.1590  173.9580  143.7860 C   0  0  0  0  0  2  0  0  0  0  0  0
  189.7070  172.0920  145.2080 O   0  0  0  0  0  1  0  0  0  0  0  0
  191.9220  172.6090  144.9420 O   0  0  0  0  0  0  0  0  0  0  0  0
  190.5760  172.8360  144.6860 C   0  0  0  0  0  0  0  0  0  0  0  0
  189.7420  175.2620  145.8590 C   0  0  0  0  0  2  0  0  0  0  0  0
  189.3780  177.5680  146.2590 O   0  0  0  0  0  0  0  0  0  0  0  0
  188.9260  176.4360  146.3250 C   0  0  0  0  0  0  0  0  0  0  0  0
  187.5320  176.2080  146.8130 C   0  0  0  0  0  2  0  0  0  0  0  0
  186.5130  176.7460  145.8200 C   0  0  0  0  0  2  0  0  0  0  0  0
  185.7390  178.2620  146.4580 P   0  0  0  0  0  0  0  0  0  0  0  0
  186.4960  178.7150  147.9010 O   0  0  0  0  0  1  0  0  0  0  0  0
  184.0980  177.9740  146.7560 O   0  0  0  0  0  1  0  0  0  0  0  0
  185.8730  179.3800  145.4520 O   0  0  0  0  0  0  0  0  0  0  0  0
  1 12  1  6  0  0  0
  1 26  1  0  0  0  0
  3  1  1  0  0  0  0
  3  4  1  0  0  0  0
  4  2  1  0  0  0  0
  5  6  1  0  0  0  0
  6  9  1  0  0  0  0
  6  2  2  0  0  0  0
  7  3  2  0  0  0  0
  8  7  1  0  0  0  0
  8  5  2  0  0  0  0
 10 11  3  0  0  0  0
 11  5  1  0  0  0  0
 14 15  1  0  0  0  0
 14 16  1  0  0  0  0
 16 13  1  1  0  0  0
 16 21  1  0  0  0  0
 17 19  1  0  0  0  0
 17 12  1  1  0  0  0
 18 15  1  6  0  0  0
 18 17  1  0  0  0  0
 18 21  1  0  0  0  0
 18 19  1  0  0  0  0
 20 14  2  0  0  0  0
 21 13  1  1  0  0  0
 22  1  1  0  0  0  0
 22 25  1  0  0  0  0
 25 24  2  0  0  0  0
 25 23  1  0  0  0  0
 26 28  1  0  0  0  0
 27 28  2  0  0  0  0
 28 29  1  0  0  0  0
 30 31  1  0  0  0  0
 30 29  1  0  0  0  0
 31 33  1  0  0  0  0
 31 32  1  0  0  0  0
 34 31  2  0  0  0  0
M  END
>  <MODEL>
4

>  <REMARK>
 VINA RESULT:      -6.3      1.757      2.449
  Name = 
  11 active torsions:
  status: ('A' for Active; 'I' for Inactive)
    1  A    between atoms: P_2  and  C_23
    2  A    between atoms: C_4  and  C_23
    3  A    between atoms: C_4  and  C_29
    4  A    between atoms: C_9  and  C_15
    5  A    between atoms: C_11  and  C_12
    6  A    between atoms: C_11  and  C_15
    7  A    between atoms: C_13  and  C_15
    8  A    between atoms: C_13  and  C_21
    9  A    between atoms: C_14  and  C_15
   10  A    between atoms: C_14  and  C_29
   11  A    between atoms: C_18  and  C_33
                            x       y       z     vdW  Elec       q    Type
                         _______ _______ _______ _____ _____    ______ ____

>  <TORSDO>
F 11

$$$$
=
 OpenBabel11042418413D

 34 37  0  0  1  0  0  0  0  0999 V2000
  189.1200  176.4380  144.1370 C   0  0  1  0  0  0  0  0  0  0  0  0
  187.8560  177.8650  141.0380 C   0  0  0  0  0  3  0  0  0  0  0  0
  187.9820  177.0910  143.3600 C   0  0  0  0  0  0  0  0  0  0  0  0
  188.2480  178.2330  142.4240 C   0  0  0  0  0  2  0  0  0  0  0  0
  185.4730  177.5970  141.6650 C   0  0  0  0  0  0  0  0  0  0  0  0
  186.5980  177.5890  140.6930 C   0  0  0  0  0  0  0  0  0  0  0  0
  186.7600  176.6940  143.5780 N   0  0  0  0  0  0  0  0  0  0  0  0
  185.5630  177.1590  142.9290 C   0  0  0  0  0  3  0  0  0  0  0  0
  186.3220  177.3370  139.3200 N   0  0  0  0  0  1  0  0  0  0  0  0
  183.0700  178.2910  140.8020 C   0  0  0  0  0  3  0  0  0  0  0  0
  184.1660  177.9760  141.1960 C   0  0  0  0  0  0  0  0  0  0  0  0
  189.8170  175.3770  143.2600 C   0  0  0  0  0  2  0  0  0  0  0  0
  189.7010  172.6600  140.0160 C   0  0  0  0  0  2  0  0  0  0  0  0
  190.4410  171.0190  141.7000 C   0  0  0  0  0  0  0  0  0  0  0  0
  189.8200  171.6290  142.7690 O   0  0  0  0  0  0  0  0  0  0  0  0
  190.8940  171.9670  140.6430 C   0  0  2  0  0  3  0  0  0  0  0  0
  189.3680  173.9490  143.5690 C   0  0  2  0  0  3  0  0  0  0  0  0
  189.7810  173.0060  142.5050 C   0  0  2  0  0  0  0  0  0  0  0  0
  188.4680  173.4990  142.5810 O   0  0  0  0  0  0  0  0  0  0  0  0
  190.6160  169.7740  141.6360 O   0  0  0  0  0  0  0  0  0  0  0  0
  190.4340  173.3370  141.1630 C   0  0  2  0  0  3  0  0  0  0  0  0
  190.1340  177.5180  144.5630 C   0  0  0  0  0  2  0  0  0  0  0  0
  191.9100  177.6450  142.9690 O   0  0  0  0  0  0  0  0  0  0  0  0
  192.4520  176.6670  144.9680 O   0  0  0  0  0  1  0  0  0  0  0  0
  191.5440  177.2820  144.1160 C   0  0  0  0  0  0  0  0  0  0  0  0
  188.5850  175.7820  145.4320 C   0  0  0  0  0  2  0  0  0  0  0  0
  189.9920  176.3080  147.2620 O   0  0  0  0  0  0  0  0  0  0  0  0
  188.9290  176.5130  146.6990 C   0  0  0  0  0  0  0  0  0  0  0  0
  187.9830  177.5420  147.2280 C   0  0  0  0  0  2  0  0  0  0  0  0
  186.5480  177.2050  146.8560 C   0  0  0  0  0  2  0  0  0  0  0  0
  185.5480  178.7180  146.7360 P   0  0  0  0  0  0  0  0  0  0  0  0
  185.8730  179.4920  145.2680 O   0  0  0  0  0  0  0  0  0  0  0  0
  185.9410  179.7570  148.0130 O   0  0  0  0  0  1  0  0  0  0  0  0
  184.0770  178.3800  146.8050 O   0  0  0  0  0  1  0  0  0  0  0  0
  1 12  1  6  0  0  0
  1 22  1  0  0  0  0
  1 26  1  0  0  0  0
  2  4  1  0  0  0  0
  3  7  2  0  0  0  0
  3  1  1  0  0  0  0
  4  3  1  0  0  0  0
  5  8  2  0  0  0  0
  6  2  2  0  0  0  0
  6  5  1  0  0  0  0
  8  7  1  0  0  0  0
  9  6  1  0  0  0  0
 10 11  3  0  0  0  0
 11  5  1  0  0  0  0
 14 15  1  0  0  0  0
 16 13  1  6  0  0  0
 16 21  1  0  0  0  0
 16 14  1  0  0  0  0
 17 12  1  6  0  0  0
 18 19  1  6  0  0  0
 18 15  1  0  0  0  0
 18 17  1  0  0  0  0
 19 17  1  0  0  0  0
 20 14  2  0  0  0  0
 21 13  1  6  0  0  0
 21 18  1  0  0  0  0
 23 25  2  0  0  0  0
 25 22  1  0  0  0  0
 25 24  1  0  0  0  0
 26 28  1  0  0  0  0
 28 29  1  0  0  0  0
 28 27  2  0  0  0  0
 30 29  1  0  0  0  0
 31 34  1  0  0  0  0
 31 30  1  0  0  0  0
 31 33  1  0  0  0  0
 32 31  2  0  0  0  0
M  END
>  <MODEL>
5

>  <REMARK>
 VINA RESULT:      -6.3      3.180      6.666
  Name = 
  11 active torsions:
  status: ('A' for Active; 'I' for Inactive)
    1  A    between atoms: P_2  and  C_23
    2  A    between atoms: C_4  and  C_23
    3  A    between atoms: C_4  and  C_29
    4  A    between atoms: C_9  and  C_15
    5  A    between atoms: C_11  and  C_12
    6  A    between atoms: C_11  and  C_15
    7  A    between atoms: C_13  and  C_15
    8  A    between atoms: C_13  and  C_21
    9  A    between atoms: C_14  and  C_15
   10  A    between atoms: C_14  and  C_29
   11  A    between atoms: C_18  and  C_33
                            x       y       z     vdW  Elec       q    Type
                         _______ _______ _______ _____ _____    ______ ____

>  <TORSDO>
F 11

$$$$
=
 OpenBabel11042418413D

 34 37  0  0  1  0  0  0  0  0999 V2000
  189.6390  176.1770  144.4690 C   0  0  1  0  0  0  0  0  0  0  0  0
  188.1750  177.7850  141.5510 C   0  0  0  0  0  3  0  0  0  0  0  0
  188.4540  176.8750  143.8100 C   0  0  0  0  0  0  0  0  0  0  0  0
  188.6620  178.0700  142.9280 C   0  0  0  0  0  2  0  0  0  0  0  0
  185.8390  177.4820  142.3220 C   0  0  0  0  0  0  0  0  0  0  0  0
  186.8960  177.5310  141.2770 C   0  0  0  0  0  0  0  0  0  0  0  0
  187.2480  176.4680  144.0860 N   0  0  0  0  0  0  0  0  0  0  0  0
  186.0120  176.9710  143.5480 C   0  0  0  0  0  3  0  0  0  0  0  0
  186.5270  177.3610  139.9140 N   0  0  0  0  0  1  0  0  0  0  0  0
  183.3880  178.2320  141.6650 C   0  0  0  0  0  3  0  0  0  0  0  0
  184.5050  177.8890  141.9650 C   0  0  0  0  0  0  0  0  0  0  0  0
  190.9250  176.4460  143.6610 C   0  0  0  0  0  2  0  0  0  0  0  0
  194.3960  174.2880  142.5570 C   0  0  0  0  0  2  0  0  0  0  0  0
  195.5830  176.2970  143.3500 C   0  0  0  0  0  0  0  0  0  0  0  0
  194.6460  176.6460  144.2990 O   0  0  0  0  0  0  0  0  0  0  0  0
  195.0090  175.6140  142.1560 C   0  0  2  0  0  3  0  0  0  0  0  0
  192.1620  176.6280  144.5410 C   0  0  2  0  0  3  0  0  0  0  0  0
  193.3960  176.2060  143.8390 C   0  0  2  0  0  0  0  0  0  0  0  0
  192.7700  175.3790  144.7870 O   0  0  0  0  0  0  0  0  0  0  0  0
  196.8100  176.5480  143.4830 O   0  0  0  0  0  0  0  0  0  0  0  0
  193.5100  175.5210  142.4770 C   0  0  2  0  0  3  0  0  0  0  0  0
  189.8020  176.6990  145.9100 C   0  0  0  0  0  2  0  0  0  0  0  0
  188.1540  175.5820  147.2300 O   0  0  0  0  0  0  0  0  0  0  0  0
  190.3270  175.0430  147.7120 O   0  0  0  0  0  1  0  0  0  0  0  0
  189.3760  175.7480  146.9860 C   0  0  0  0  0  0  0  0  0  0  0  0
  189.3850  174.6540  144.5630 C   0  0  0  0  0  2  0  0  0  0  0  0
  190.7940  173.3410  143.1850 O   0  0  0  0  0  0  0  0  0  0  0  0
  189.7080  173.8810  143.3140 C   0  0  0  0  0  0  0  0  0  0  0  0
  188.6610  173.7290  142.2590 C   0  0  0  0  0  2  0  0  0  0  0  0
  189.1180  174.3420  140.9440 C   0  0  0  0  0  2  0  0  0  0  0  0
  189.3240  173.0550  139.6780 P   0  0  0  0  0  0  0  0  0  0  0  0
  190.0560  171.6970  140.3700 O   0  0  0  0  0  1  0  0  0  0  0  0
  190.3050  173.6430  138.4300 O   0  0  0  0  0  0  0  0  0  0  0  0
  187.9800  172.6610  139.1100 O   0  0  0  0  0  1  0  0  0  0  0  0
  1 12  1  6  0  0  0
  1 26  1  0  0  0  0
  1 22  1  0  0  0  0
  2  4  1  0  0  0  0
  3  7  2  0  0  0  0
  3  1  1  0  0  0  0
  4  3  1  0  0  0  0
  5  8  2  0  0  0  0
  6  2  2  0  0  0  0
  6  5  1  0  0  0  0
  8  7  1  0  0  0  0
  9  6  1  0  0  0  0
 10 11  3  0  0  0  0
 11  5  1  0  0  0  0
 14 20  2  0  0  0  0
 14 15  1  0  0  0  0
 16 21  1  0  0  0  0
 16 13  1  1  0  0  0
 16 14  1  0  0  0  0
 17 12  1  6  0  0  0
 17 19  1  0  0  0  0
 18 15  1  1  0  0  0
 18 17  1  0  0  0  0
 18 19  1  0  0  0  0
 21 13  1  1  0  0  0
 21 18  1  0  0  0  0
 22 25  1  0  0  0  0
 25 23  2  0  0  0  0
 25 24  1  0  0  0  0
 27 28  2  0  0  0  0
 28 26  1  0  0  0  0
 29 28  1  0  0  0  0
 30 29  1  0  0  0  0
 31 32  1  0  0  0  0
 31 30  1  0  0  0  0
 33 31  2  0  0  0  0
 34 31  1  0  0  0  0
M  END
>  <MODEL>
6

>  <REMARK>
 VINA RESULT:      -6.3      3.442      7.738
  Name = 
  11 active torsions:
  status: ('A' for Active; 'I' for Inactive)
    1  A    between atoms: P_2  and  C_23
    2  A    between atoms: C_4  and  C_23
    3  A    between atoms: C_4  and  C_29
    4  A    between atoms: C_9  and  C_15
    5  A    between atoms: C_11  and  C_12
    6  A    between atoms: C_11  and  C_15
    7  A    between atoms: C_13  and  C_15
    8  A    between atoms: C_13  and  C_21
    9  A    between atoms: C_14  and  C_15
   10  A    between atoms: C_14  and  C_29
   11  A    between atoms: C_18  and  C_33
                            x       y       z     vdW  Elec       q    Type
                         _______ _______ _______ _____ _____    ______ ____

>  <TORSDO>
F 11

$$$$
=
 OpenBabel11042418413D

 34 37  0  0  1  0  0  0  0  0999 V2000
  190.4540  175.1730  145.6730 C   0  0  1  0  0  0  0  0  0  0  0  0
  189.4860  172.3490  143.5940 C   0  0  0  0  0  3  0  0  0  0  0  0
  190.7620  173.7910  145.1100 C   0  0  0  0  0  0  0  0  0  0  0  0
  189.6910  172.7460  145.0130 C   0  0  0  0  0  2  0  0  0  0  0  0
  191.7920  171.4640  143.3920 C   0  0  0  0  0  0  0  0  0  0  0  0
  190.4330  171.7590  142.8660 C   0  0  0  0  0  0  0  0  0  0  0  0
  191.9910  173.5010  144.7860 N   0  0  0  0  0  0  0  0  0  0  0  0
  192.4750  172.2730  144.2140 C   0  0  0  0  0  3  0  0  0  0  0  0
  190.0980  171.3410  141.5470 N   0  0  0  0  0  1  0  0  0  0  0  0
  193.0590  169.3270  142.4810 C   0  0  0  0  0  3  0  0  0  0  0  0
  192.4810  170.3020  142.8950 C   0  0  0  0  0  0  0  0  0  0  0  0
  188.9400  175.4540  145.5840 C   0  0  0  0  0  2  0  0  0  0  0  0
  186.3260  178.7250  144.9600 C   0  0  0  0  0  2  0  0  0  0  0  0
  185.1710  177.8480  146.9530 C   0  0  0  0  0  0  0  0  0  0  0  0
  186.2980  177.3170  147.5430 O   0  0  0  0  0  0  0  0  0  0  0  0
  185.2060  177.8370  145.4630 C   0  0  2  0  0  3  0  0  0  0  0  0
  188.3790  176.1390  146.8300 C   0  0  2  0  0  3  0  0  0  0  0  0
  187.1750  176.9400  146.5150 C   0  0  2  0  0  0  0  0  0  0  0  0
  188.4340  177.5400  146.6800 O   0  0  0  0  0  0  0  0  0  0  0  0
  184.1990  178.2910  147.6210 O   0  0  0  0  0  0  0  0  0  0  0  0
  186.5820  177.2370  145.1370 C   0  0  2  0  0  3  0  0  0  0  0  0
  190.9170  175.2420  147.1420 C   0  0  0  0  0  2  0  0  0  0  0  0
  191.9190  177.1880  148.0990 O   0  0  0  0  0  1  0  0  0  0  0  0
  193.3300  175.8510  146.8880 O   0  0  0  0  0  0  0  0  0  0  0  0
  192.0770  176.1520  147.4050 C   0  0  0  0  0  0  0  0  0  0  0  0
  191.2380  176.2600  144.8990 C   0  0  0  0  0  2  0  0  0  0  0  0
  190.1750  178.2770  144.2570 O   0  0  0  0  0  0  0  0  0  0  0  0
  190.4010  177.1100  143.9830 C   0  0  0  0  0  0  0  0  0  0  0  0
  189.9010  176.5260  142.7010 C   0  0  0  0  0  2  0  0  0  0  0  0
  188.8160  177.3990  142.0910 C   0  0  0  0  0  2  0  0  0  0  0  0
  187.4370  176.3770  141.4920 P   0  0  0  0  0  0  0  0  0  0  0  0
  185.9860  177.2250  141.6820 O   0  0  0  0  0  1  0  0  0  0  0  0
  187.3660  174.9440  142.3900 O   0  0  0  0  0  1  0  0  0  0  0  0
  187.6300  176.0410  140.0320 O   0  0  0  0  0  0  0  0  0  0  0  0
  1 26  1  6  0  0  0
  1 22  1  0  0  0  0
  2  4  1  0  0  0  0
  3  1  1  0  0  0  0
  4  3  1  0  0  0  0
  5  8  2  0  0  0  0
  6  5  1  0  0  0  0
  6  2  2  0  0  0  0
  7  3  2  0  0  0  0
  8  7  1  0  0  0  0
  9  6  1  0  0  0  0
 10 11  3  0  0  0  0
 11  5  1  0  0  0  0
 12  1  1  0  0  0  0
 14 15  1  0  0  0  0
 14 20  2  0  0  0  0
 16 13  1  1  0  0  0
 16 14  1  0  0  0  0
 17 12  1  6  0  0  0
 18 19  1  1  0  0  0
 18 17  1  0  0  0  0
 18 15  1  0  0  0  0
 19 17  1  0  0  0  0
 21 13  1  1  0  0  0
 21 16  1  0  0  0  0
 21 18  1  0  0  0  0
 22 25  1  0  0  0  0
 24 25  2  0  0  0  0
 25 23  1  0  0  0  0
 28 27  2  0  0  0  0
 28 26  1  0  0  0  0
 29 28  1  0  0  0  0
 30 29  1  0  0  0  0
 31 32  1  0  0  0  0
 31 30  1  0  0  0  0
 31 33  1  0  0  0  0
 34 31  2  0  0  0  0
M  END
>  <MODEL>
7

>  <REMARK>
 VINA RESULT:      -6.3      2.764      4.984
  Name = 
  11 active torsions:
  status: ('A' for Active; 'I' for Inactive)
    1  A    between atoms: P_2  and  C_23
    2  A    between atoms: C_4  and  C_23
    3  A    between atoms: C_4  and  C_29
    4  A    between atoms: C_9  and  C_15
    5  A    between atoms: C_11  and  C_12
    6  A    between atoms: C_11  and  C_15
    7  A    between atoms: C_13  and  C_15
    8  A    between atoms: C_13  and  C_21
    9  A    between atoms: C_14  and  C_15
   10  A    between atoms: C_14  and  C_29
   11  A    between atoms: C_18  and  C_33
                            x       y       z     vdW  Elec       q    Type
                         _______ _______ _______ _____ _____    ______ ____

>  <TORSDO>
F 11

$$$$
=
 OpenBabel11042418413D

 34 37  0  0  1  0  0  0  0  0999 V2000
  189.5780  175.7550  144.2340 C   0  0  1  0  0  0  0  0  0  0  0  0
  188.0580  177.8040  141.6400 C   0  0  0  0  0  3  0  0  0  0  0  0
  188.3890  176.5650  143.7290 C   0  0  0  0  0  0  0  0  0  0  0  0
  188.5960  177.8730  143.0250 C   0  0  0  0  0  2  0  0  0  0  0  0
  185.7420  177.4340  142.4410 C   0  0  0  0  0  0  0  0  0  0  0  0
  186.7650  177.6180  141.3780 C   0  0  0  0  0  0  0  0  0  0  0  0
  187.1830  176.1440  143.9850 N   0  0  0  0  0  0  0  0  0  0  0  0
  185.9430  176.7440  143.5710 C   0  0  0  0  0  3  0  0  0  0  0  0
  186.3480  177.6580  140.0180 N   0  0  0  0  0  1  0  0  0  0  0  0
  183.2890  178.3180  141.9880 C   0  0  0  0  0  3  0  0  0  0  0  0
  184.4070  177.9140  142.1960 C   0  0  0  0  0  0  0  0  0  0  0  0
  190.6900  176.7030  144.7290 C   0  0  0  0  0  2  0  0  0  0  0  0
  194.4900  177.0950  146.5520 C   0  0  0  0  0  2  0  0  0  0  0  0
  195.2320  175.6140  144.7280 C   0  0  0  0  0  0  0  0  0  0  0  0
  194.2970  176.0460  143.8100 O   0  0  0  0  0  0  0  0  0  0  0  0
  194.7590  175.6620  146.1400 C   0  0  2  0  0  3  0  0  0  0  0  0
  191.9020  176.7470  143.7990 C   0  0  2  0  0  3  0  0  0  0  0  0
  193.1560  176.4390  144.5240 C   0  0  2  0  0  0  0  0  0  0  0  0
  192.7930  177.7600  144.2110 O   0  0  0  0  0  0  0  0  0  0  0  0
  196.3740  175.2050  144.3910 O   0  0  0  0  0  0  0  0  0  0  0  0
  193.3430  176.2460  146.0300 C   0  0  2  0  0  3  0  0  0  0  0  0
  189.1180  174.8370  145.3840 C   0  0  0  0  0  2  0  0  0  0  0  0
  188.2800  176.1800  147.1740 O   0  0  0  0  0  0  0  0  0  0  0  0
  190.2990  175.1720  147.5650 O   0  0  0  0  0  1  0  0  0  0  0  0
  189.2030  175.4380  146.7540 C   0  0  0  0  0  0  0  0  0  0  0  0
  190.1250  174.8400  143.1140 C   0  0  0  0  0  2  0  0  0  0  0  0
  189.5910  172.5760  143.5630 O   0  0  0  0  0  0  0  0  0  0  0  0
  189.3480  173.5700  142.8990 C   0  0  0  0  0  0  0  0  0  0  0  0
  188.2310  173.5590  141.9060 C   0  0  0  0  0  2  0  0  0  0  0  0
  188.6060  174.3350  140.6530 C   0  0  0  0  0  2  0  0  0  0  0  0
  189.3000  173.2220  139.3960 P   0  0  0  0  0  0  0  0  0  0  0  0
  188.1890  173.0370  138.1350 O   0  0  0  0  0  0  0  0  0  0  0  0
  189.6110  171.7100  140.0910 O   0  0  0  0  0  1  0  0  0  0  0  0
  190.5870  173.7910  138.8470 O   0  0  0  0  0  1  0  0  0  0  0  0
  1 26  1  6  0  0  0
  1 12  1  0  0  0  0
  1 22  1  0  0  0  0
  2  4  1  0  0  0  0
  3  7  2  0  0  0  0
  3  1  1  0  0  0  0
  4  3  1  0  0  0  0
  5  8  2  0  0  0  0
  6  2  2  0  0  0  0
  6  5  1  0  0  0  0
  8  7  1  0  0  0  0
  9  6  1  0  0  0  0
 10 11  3  0  0  0  0
 11  5  1  0  0  0  0
 14 16  1  0  0  0  0
 15 14  1  0  0  0  0
 16 13  1  1  0  0  0
 17 19  1  0  0  0  0
 17 18  1  0  0  0  0
 17 12  1  1  0  0  0
 18 15  1  6  0  0  0
 18 21  1  0  0  0  0
 19 18  1  0  0  0  0
 20 14  2  0  0  0  0
 21 16  1  0  0  0  0
 21 13  1  1  0  0  0
 22 25  1  0  0  0  0
 25 23  2  0  0  0  0
 25 24  1  0  0  0  0
 28 26  1  0  0  0  0
 28 27  2  0  0  0  0
 29 28  1  0  0  0  0
 30 29  1  0  0  0  0
 31 33  1  0  0  0  0
 31 30  1  0  0  0  0
 32 31  2  0  0  0  0
 34 31  1  0  0  0  0
M  END
>  <MODEL>
8

>  <REMARK>
 VINA RESULT:      -6.3      3.446      7.863
  Name = 
  11 active torsions:
  status: ('A' for Active; 'I' for Inactive)
    1  A    between atoms: P_2  and  C_23
    2  A    between atoms: C_4  and  C_23
    3  A    between atoms: C_4  and  C_29
    4  A    between atoms: C_9  and  C_15
    5  A    between atoms: C_11  and  C_12
    6  A    between atoms: C_11  and  C_15
    7  A    between atoms: C_13  and  C_15
    8  A    between atoms: C_13  and  C_21
    9  A    between atoms: C_14  and  C_15
   10  A    between atoms: C_14  and  C_29
   11  A    between atoms: C_18  and  C_33
                            x       y       z     vdW  Elec       q    Type
                         _______ _______ _______ _____ _____    ______ ____

>  <TORSDO>
F 11

$$$$
=
 OpenBabel11042418413D

 34 37  0  0  1  0  0  0  0  0999 V2000
  190.6760  175.8270  144.5770 C   0  0  1  0  0  0  0  0  0  0  0  0
  191.1300  172.2510  144.0800 C   0  0  0  0  0  3  0  0  0  0  0  0
  191.3920  174.5310  144.9400 C   0  0  0  0  0  0  0  0  0  0  0  0
  190.6320  173.2440  145.0690 C   0  0  0  0  0  2  0  0  0  0  0  0
  193.3890  172.2050  145.0980 C   0  0  0  0  0  0  0  0  0  0  0  0
  192.3730  171.7730  144.1020 C   0  0  0  0  0  0  0  0  0  0  0  0
  192.6650  174.5690  145.2160 N   0  0  0  0  0  0  0  0  0  0  0  0
  193.5200  173.4610  145.5470 C   0  0  0  0  0  3  0  0  0  0  0  0
  192.7150  170.7600  143.1630 N   0  0  0  0  0  1  0  0  0  0  0  0
  195.2160  170.4540  145.8740 C   0  0  0  0  0  3  0  0  0  0  0  0
  194.3830  171.2530  145.5180 C   0  0  0  0  0  0  0  0  0  0  0  0
  189.1490  175.6110  144.6030 C   0  0  0  0  0  2  0  0  0  0  0  0
  185.3400  177.0270  145.7910 C   0  0  0  0  0  2  0  0  0  0  0  0
  185.9960  179.0560  144.5560 C   0  0  0  0  0  0  0  0  0  0  0  0
  186.7950  178.4070  143.6390 O   0  0  0  0  0  0  0  0  0  0  0  0
  185.9620  178.4040  145.8960 C   0  0  2  0  0  3  0  0  0  0  0  0
  188.3970  176.4940  143.6070 C   0  0  2  0  0  3  0  0  0  0  0  0
  187.3280  177.2740  144.2710 C   0  0  2  0  0  0  0  0  0  0  0  0
  187.0430  176.1080  143.5420 O   0  0  0  0  0  0  0  0  0  0  0  0
  185.3650  180.1100  144.2810 O   0  0  0  0  0  0  0  0  0  0  0  0
  186.8520  177.1660  145.7200 C   0  0  2  0  0  3  0  0  0  0  0  0
  191.0690  176.9270  145.5820 C   0  0  0  0  0  2  0  0  0  0  0  0
  189.6560  177.7670  147.3160 O   0  0  0  0  0  0  0  0  0  0  0  0
  190.6050  175.7230  147.7260 O   0  0  0  0  0  1  0  0  0  0  0  0
  190.4040  176.8360  146.9210 C   0  0  0  0  0  0  0  0  0  0  0  0
  191.1150  176.3140  143.1760 C   0  0  0  0  0  2  0  0  0  0  0  0
  190.5570  174.5660  141.6780 O   0  0  0  0  0  0  0  0  0  0  0  0
  191.4460  175.2170  142.2010 C   0  0  0  0  0  0  0  0  0  0  0  0
  192.8740  174.9740  141.8330 C   0  0  0  0  0  2  0  0  0  0  0  0
  193.7230  176.2080  142.1010 C   0  0  0  0  0  2  0  0  0  0  0  0
  195.3670  175.7310  142.7100 P   0  0  0  0  0  0  0  0  0  0  0  0
  195.5080  174.0460  142.6900 O   0  0  0  0  0  1  0  0  0  0  0  0
  195.5630  176.2880  144.2970 O   0  0  0  0  0  1  0  0  0  0  0  0
  196.4440  176.3310  141.8360 O   0  0  0  0  0  0  0  0  0  0  0  0
  1 26  1  6  0  0  0
  1 12  1  0  0  0  0
  1  3  1  0  0  0  0
  1 22  1  0  0  0  0
  2  6  2  0  0  0  0
  2  4  1  0  0  0  0
  3  4  1  0  0  0  0
  3  7  2  0  0  0  0
  5 11  1  0  0  0  0
  5  8  2  0  0  0  0
  6  5  1  0  0  0  0
  7  8  1  0  0  0  0
  9  6  1  0  0  0  0
 11 10  3  0  0  0  0
 14 16  1  0  0  0  0
 15 18  1  0  0  0  0
 15 14  1  0  0  0  0
 16 13  1  6  0  0  0
 17 18  1  0  0  0  0
 17 12  1  1  0  0  0
 18 19  1  6  0  0  0
 18 21  1  0  0  0  0
 19 17  1  0  0  0  0
 20 14  2  0  0  0  0
 21 13  1  6  0  0  0
 21 16  1  0  0  0  0
 22 25  1  0  0  0  0
 25 23  2  0  0  0  0
 25 24  1  0  0  0  0
 27 28  2  0  0  0  0
 28 26  1  0  0  0  0
 29 30  1  0  0  0  0
 29 28  1  0  0  0  0
 30 31  1  0  0  0  0
 31 33  1  0  0  0  0
 32 31  1  0  0  0  0
 34 31  2  0  0  0  0
M  END
>  <MODEL>
9

>  <REMARK>
 VINA RESULT:      -6.2      3.209      5.527
  Name = 
  11 active torsions:
  status: ('A' for Active; 'I' for Inactive)
    1  A    between atoms: P_2  and  C_23
    2  A    between atoms: C_4  and  C_23
    3  A    between atoms: C_4  and  C_29
    4  A    between atoms: C_9  and  C_15
    5  A    between atoms: C_11  and  C_12
    6  A    between atoms: C_11  and  C_15
    7  A    between atoms: C_13  and  C_15
    8  A    between atoms: C_13  and  C_21
    9  A    between atoms: C_14  and  C_15
   10  A    between atoms: C_14  and  C_29
   11  A    between atoms: C_18  and  C_33
                            x       y       z     vdW  Elec       q    Type
                         _______ _______ _______ _____ _____    ______ ____

>  <TORSDO>
F 11

$$$$
