=
 OpenBabel11042414183D

 65 69  0  0  1  0  0  0  0  0999 V2000
  194.0320  175.5890  142.9910 C   0  0  0  0  0  2  0  0  0  0  0  0
  192.6210  175.8740  143.4000 C   0  0  0  0  0  3  0  0  0  0  0  0
  195.4670  173.6800  143.6450 C   0  0  0  0  0  0  0  0  0  0  0  0
  194.2300  176.5550  145.8620 N   0  0  0  0  0  2  0  0  0  0  0  0
  195.4880  174.6900  146.3320 O   0  0  0  0  0  0  0  0  0  0  0  0
  194.7880  174.8000  144.0340 C   0  0  0  0  0  0  0  0  0  0  0  0
  194.8680  175.3350  145.4450 C   0  0  0  0  0  0  0  0  0  0  0  0
  192.3550  176.7710  144.3510 C   0  0  0  0  0  0  0  0  0  0  0  0
  193.4840  177.4810  145.0200 C   0  0  0  0  0  2  0  0  0  0  0  0
  195.7520  169.6920  145.4030 C   0  0  0  0  0  3  0  0  0  0  0  0
  196.3360  171.6980  145.0490 C   0  0  0  0  0  0  0  0  0  0  0  0
  196.9320  169.9500  146.0750 C   0  0  0  0  0  3  0  0  0  0  0  0
  195.3720  170.8080  144.7500 N   0  0  0  0  0  0  0  0  0  0  0  0
  197.2560  171.1990  145.8320 O   0  0  0  0  0  0  0  0  0  0  0  0
  196.3820  173.0450  144.5610 N   0  0  0  0  0  2  0  0  0  0  0  0
  196.2580  173.3370  141.3110 C   0  0  0  0  0  3  0  0  0  0  0  0
  195.3640  173.1230  142.2730 C   0  0  0  0  0  3  0  0  0  0  0  0
  195.1320  171.7460  138.0880 C   0  0  1  0  0  3  0  0  0  0  0  0
  194.8210  172.5770  139.3480 C   0  0  1  0  0  3  0  0  0  0  0  0
  197.3220  171.1530  137.2060 O   0  0  0  0  0  0  0  0  0  0  0  0
  196.1090  172.7510  140.0160 N   0  0  0  0  0  0  0  0  0  0  0  0
  196.6210  171.6770  138.1110 C   0  0  0  0  0  0  0  0  0  0  0  0
  197.1750  172.2480  139.2730 N   0  0  0  0  0  2  0  0  0  0  0  0
  194.1450  174.1740  138.9020 S   0  0  0  0  0  0  0  0  0  0  0  0
  195.2520  175.1870  138.8010 O   0  0  0  0  0  0  0  0  0  0  0  0
  193.1950  174.6030  139.9840 O   0  0  0  0  0  0  0  0  0  0  0  0
  193.2310  174.1060  137.3630 C   0  0  2  0  0  3  0  0  0  0  0  0
  193.6430  175.1890  136.4210 C   0  0  0  0  0  0  0  0  0  0  0  0
  193.2000  176.3560  136.5830 O   0  0  0  0  0  1  0  0  0  0  0  0
  194.5450  174.9270  135.3960 O   0  0  0  0  0  0  0  0  0  0  0  0
  191.2510  173.5980  136.5170 C   0  0  0  0  0  1  0  0  0  0  0  0
  191.8620  174.2000  137.6190 O   0  0  0  0  0  0  0  0  0  0  0  0
  194.6130  170.4610  138.2610 O   0  0  0  0  0  0  0  0  0  0  0  0
  193.2260  170.6210  138.2800 C   0  0  0  0  0  2  0  0  0  0  0  0
  192.6660  170.2370  136.9260 C   0  0  0  0  0  2  0  0  0  0  0  0
  192.5580  168.7280  136.8060 C   0  0  0  0  0  2  0  0  0  0  0  0
  190.5260  168.2160  137.6350 O   0  0  0  0  0  1  0  0  0  0  0  0
  191.1970  168.3510  136.4660 N   0  0  0  0  0  2  0  0  0  0  0  0
  191.0460  177.0660  144.7450 O   0  0  0  0  0  0  0  0  0  0  0  0
  190.0500  176.0670  144.9400 C   0  0  0  0  0  2  0  0  0  0  0  0
  188.8670  176.3590  144.0740 C   0  0  0  0  0  0  0  0  0  0  0  0
  188.3750  175.4160  143.3430 N   0  0  0  0  0  0  0  0  0  0  0  0
  187.2200  175.5960  142.4980 C   0  0  0  0  0  2  0  0  0  0  0  0
  188.3670  175.0390  140.2750 N   0  0  0  0  0  2  0  0  0  0  0  0
  187.6560  175.9590  141.1130 C   0  0  0  0  0  0  0  0  0  0  0  0
  187.4220  177.1200  140.6850 O   0  0  0  0  0  0  0  0  0  0  0  0
  188.6600  173.6320  140.5500 C   0  0  2  0  0  3  0  0  0  0  0  0
  191.2950  172.5160  142.6510 C   0  0  2  0  0  3  0  0  0  0  0  0
  190.1600  173.3070  142.4070 O   0  0  0  0  0  0  0  0  0  0  0  0
  190.7780  172.2110  140.3810 C   0  0  0  0  0  2  0  0  0  0  0  0
  191.3890  171.4800  141.5370 C   0  0  2  0  0  3  0  0  0  0  0  0
  190.1070  173.4260  141.0090 C   0  0  1  0  0  3  0  0  0  0  0  0
  190.5440  170.2440  141.8160 C   0  0  0  0  0  1  0  0  0  0  0  0
  191.2900  171.9360  144.0700 C   0  0  2  0  0  3  0  0  0  0  0  0
  190.0060  172.3060  144.7880 C   0  0  0  0  0  1  0  0  0  0  0  0
  192.3720  172.4440  144.7920 O   0  0  0  0  0  1  0  0  0  0  0  0
  188.2190  172.6980  139.4240 C   0  0  0  0  0  2  0  0  0  0  0  0
  188.1420  173.4060  138.2240 O   0  0  0  0  0  1  0  0  0  0  0  0
  188.2540  177.7300  144.1270 C   0  0  0  0  0  2  0  0  0  0  0  0
  187.1160  177.7640  145.0920 C   0  0  0  0  0  0  0  0  0  0  0  0
  186.1440  178.7650  144.9910 C   0  0  0  0  0  3  0  0  0  0  0  0
  185.0110  177.8650  146.9310 C   0  0  0  0  0  3  0  0  0  0  0  0
  187.0350  176.8150  146.1180 C   0  0  0  0  0  3  0  0  0  0  0  0
  185.9840  176.8670  147.0370 C   0  0  0  0  0  3  0  0  0  0  0  0
  185.0920  178.8150  145.9080 C   0  0  0  0  0  3  0  0  0  0  0  0
  1  2  1  0  0  0  0
  1  6  1  0  0  0  0
  2  8  2  0  0  0  0
  3  6  2  0  0  0  0
  3 15  1  0  0  0  0
  6  7  1  0  0  0  0
  7  4  1  0  0  0  0
  7  5  2  0  0  0  0
  8 39  1  0  0  0  0
  8  9  1  0  0  0  0
  9  4  1  0  0  0  0
 10 12  2  0  0  0  0
 11 14  1  0  0  0  0
 13 11  2  0  0  0  0
 13 10  1  0  0  0  0
 14 12  1  0  0  0  0
 15 11  1  0  0  0  0
 16 17  2  0  0  0  0
 17  3  1  0  0  0  0
 18 22  1  0  0  0  0
 18 33  1  1  0  0  0
 18 19  1  0  0  0  0
 19 24  1  6  0  0  0
 19 21  1  0  0  0  0
 20 22  2  0  0  0  0
 21 16  1  0  0  0  0
 22 23  1  0  0  0  0
 23 21  1  0  0  0  0
 24 26  2  0  0  0  0
 25 24  2  0  0  0  0
 27 28  1  6  0  0  0
 27 32  1  0  0  0  0
 27 24  1  0  0  0  0
 28 29  1  0  0  0  0
 30 28  2  0  0  0  0
 31 32  1  0  0  0  0
 33 34  1  0  0  0  0
 35 34  1  0  0  0  0
 36 35  1  0  0  0  0
 38 36  1  0  0  0  0
 38 37  1  0  0  0  0
 39 40  1  0  0  0  0
 41 59  1  0  0  0  0
 41 40  1  0  0  0  0
 42 41  2  0  0  0  0
 43 42  1  0  0  0  0
 44 47  1  0  0  0  0
 44 45  1  0  0  0  0
 45 43  1  0  0  0  0
 46 45  2  0  0  0  0
 47 57  1  6  0  0  0
 48 54  1  1  0  0  0
 49 48  1  0  0  0  0
 50 52  1  0  0  0  0
 50 51  1  0  0  0  0
 51 53  1  1  0  0  0
 51 48  1  0  0  0  0
 52 47  1  6  0  0  0
 52 49  1  0  0  0  0
 54 55  1  1  0  0  0
 54 56  1  0  0  0  0
 58 57  1  0  0  0  0
 59 60  1  0  0  0  0
 60 63  1  0  0  0  0
 61 60  2  0  0  0  0
 61 65  1  0  0  0  0
 62 64  1  0  0  0  0
 63 64  2  0  0  0  0
 65 62  2  0  0  0  0
M  END
>  <MODEL>
1

>  <REMARK>
 VINA RESULT:      -6.1      0.000      0.000
  Name = 
  23 active torsions:
  status: ('A' for Active; 'I' for Inactive)
    1  A    between atoms: C_1  and  C_13
    2  A    between atoms: C_2  and  N_25
    3  A    between atoms: C_3  and  C_62
    4  A    between atoms: S_4  and  C_9
    5  A    between atoms: S_4  and  C_21
    6  A    between atoms: C_6  and  O_63
    7  A    between atoms: N_7  and  CA_49
    8  A    between atoms: C_8  and  C_38
    9  A    between atoms: C_17  and  CA_49
   10  A    between atoms: C_20  and  C_26
   11  A    between atoms: C_21  and  O_30
   12  A    between atoms: C_21  and  C_33
   13  A    between atoms: C_26  and  N_61
   14  A    between atoms: C_31  and  CA_49
   15  A    between atoms: C_32  and  C_44
   16  A    between atoms: C_32  and  C_64
   17  A    between atoms: C_38  and  N_54
   18  A    between atoms: C_39  and  C_47
   19  A    between atoms: C_39  and  O_56
   20  A    between atoms: C_44  and  O_63
   21  A    between atoms: C_47  and  C_62
   22  A    between atoms: C_53  and  O_56
   23  A    between atoms: N_55  and  C_64
                            x       y       z     vdW  Elec       q    Type
                         _______ _______ _______ _____ _____    ______ ____

>  <TORSDO>
F 23

$$$$
=
 OpenBabel11042414183D

 65 69  0  0  1  0  0  0  0  0999 V2000
  192.9430  173.2830  139.9700 C   0  0  0  0  0  2  0  0  0  0  0  0
  193.6760  172.5140  141.0240 C   0  0  0  0  0  3  0  0  0  0  0  0
  190.7760  172.7430  138.8990 C   0  0  0  0  0  0  0  0  0  0  0  0
  194.1100  170.8860  138.5190 N   0  0  0  0  0  2  0  0  0  0  0  0
  192.0190  170.4690  137.6640 O   0  0  0  0  0  0  0  0  0  0  0  0
  192.0830  172.3960  139.1010 C   0  0  0  0  0  0  0  0  0  0  0  0
  192.7190  171.2250  138.3890 C   0  0  0  0  0  0  0  0  0  0  0  0
  194.7090  171.7330  140.7030 C   0  0  0  0  0  0  0  0  0  0  0  0
  195.1200  171.6170  139.2740 C   0  0  0  0  0  2  0  0  0  0  0  0
  189.9200  173.4620  134.6770 C   0  0  0  0  0  3  0  0  0  0  0  0
  189.8180  172.4300  136.5250 C   0  0  0  0  0  0  0  0  0  0  0  0
  189.1830  172.3030  134.5140 C   0  0  0  0  0  3  0  0  0  0  0  0
  190.3230  173.5410  135.9610 N   0  0  0  0  0  0  0  0  0  0  0  0
  189.1420  171.6980  135.6780 O   0  0  0  0  0  0  0  0  0  0  0  0
  190.0010  172.0560  137.8970 N   0  0  0  0  0  2  0  0  0  0  0  0
  188.9310  173.7960  140.1930 C   0  0  0  0  0  3  0  0  0  0  0  0
  190.1300  173.8670  139.6240 C   0  0  0  0  0  3  0  0  0  0  0  0
  187.4620  176.2550  142.6380 C   0  0  1  0  0  3  0  0  0  0  0  0
  188.2890  174.9880  142.3530 C   0  0  1  0  0  3  0  0  0  0  0  0
  186.7510  177.9520  141.0440 O   0  0  0  0  0  0  0  0  0  0  0  0
  188.3760  174.9090  140.8960 N   0  0  0  0  0  0  0  0  0  0  0  0
  187.3020  176.8450  141.2780 C   0  0  0  0  0  0  0  0  0  0  0  0
  187.8200  176.0190  140.2620 N   0  0  0  0  0  2  0  0  0  0  0  0
  189.9320  175.1340  143.0530 S   0  0  0  0  0  0  0  0  0  0  0  0
  190.7030  176.2030  142.3280 O   0  0  0  0  0  0  0  0  0  0  0  0
  190.6390  173.8210  142.8730 O   0  0  0  0  0  0  0  0  0  0  0  0
  189.8790  175.4950  144.8070 C   0  0  2  0  0  3  0  0  0  0  0  0
  190.4230  176.8520  145.1130 C   0  0  0  0  0  0  0  0  0  0  0  0
  191.5000  176.9610  145.7560 O   0  0  0  0  0  1  0  0  0  0  0  0
  189.7730  177.9930  144.6540 O   0  0  0  0  0  0  0  0  0  0  0  0
  189.6260  173.7450  146.1370 C   0  0  0  0  0  1  0  0  0  0  0  0
  190.5990  174.5290  145.5120 O   0  0  0  0  0  0  0  0  0  0  0  0
  186.2080  175.8710  143.1180 O   0  0  0  0  0  0  0  0  0  0  0  0
  186.1610  176.3240  144.4380 C   0  0  0  0  0  2  0  0  0  0  0  0
  186.1980  177.8380  144.4430 C   0  0  0  0  0  2  0  0  0  0  0  0
  186.1550  178.3640  145.8660 C   0  0  0  0  0  2  0  0  0  0  0  0
  183.9530  178.2780  146.3380 O   0  0  0  0  0  1  0  0  0  0  0  0
  185.1280  177.6690  146.6240 N   0  0  0  0  0  2  0  0  0  0  0  0
  195.4190  171.0120  141.6690 O   0  0  0  0  0  0  0  0  0  0  0  0
  195.3430  169.5960  141.7930 C   0  0  0  0  0  2  0  0  0  0  0  0
  195.0070  169.2300  143.2020 C   0  0  0  0  0  0  0  0  0  0  0  0
  195.7580  169.6640  144.1600 N   0  0  0  0  0  0  0  0  0  0  0  0
  195.4970  169.3850  145.5520 C   0  0  0  0  0  2  0  0  0  0  0  0
  196.3720  171.7130  146.1740 N   0  0  0  0  0  2  0  0  0  0  0  0
  196.3090  170.3010  146.4130 C   0  0  0  0  0  0  0  0  0  0  0  0
  196.9860  169.8110  147.3540 O   0  0  0  0  0  0  0  0  0  0  0  0
  195.6030  172.4830  145.1950 C   0  0  2  0  0  3  0  0  0  0  0  0
  196.4290  175.1480  143.0010 C   0  0  2  0  0  3  0  0  0  0  0  0
  196.2990  173.7790  143.2870 O   0  0  0  0  0  0  0  0  0  0  0  0
  195.8980  175.0190  145.2840 C   0  0  0  0  0  2  0  0  0  0  0  0
  195.7200  175.9240  144.1040 C   0  0  2  0  0  3  0  0  0  0  0  0
  196.3770  173.7020  144.6870 C   0  0  1  0  0  3  0  0  0  0  0  0
  194.2270  176.0760  143.8440 C   0  0  0  0  0  1  0  0  0  0  0  0
  195.9630  175.4790  141.5780 C   0  0  2  0  0  3  0  0  0  0  0  0
  196.8200  174.7520  140.5580 C   0  0  0  0  0  1  0  0  0  0  0  0
  196.0640  176.8530  141.3550 O   0  0  0  0  0  1  0  0  0  0  0  0
  194.1800  172.7900  145.6600 C   0  0  0  0  0  2  0  0  0  0  0  0
  193.2830  171.9080  145.0550 O   0  0  0  0  0  1  0  0  0  0  0  0
  193.7720  168.4160  143.4630 C   0  0  0  0  0  2  0  0  0  0  0  0
  192.6490  168.8610  142.5870 C   0  0  0  0  0  0  0  0  0  0  0  0
  192.3680  168.1670  141.4050 C   0  0  0  0  0  3  0  0  0  0  0  0
  190.5810  169.7230  140.9120 C   0  0  0  0  0  3  0  0  0  0  0  0
  191.8960  169.9910  142.9280 C   0  0  0  0  0  3  0  0  0  0  0  0
  190.8640  170.4220  142.0900 C   0  0  0  0  0  3  0  0  0  0  0  0
  191.3340  168.5970  140.5690 C   0  0  0  0  0  3  0  0  0  0  0  0
  1  2  1  0  0  0  0
  3  6  2  0  0  0  0
  3 17  1  0  0  0  0
  4  9  1  0  0  0  0
  5  7  2  0  0  0  0
  6  1  1  0  0  0  0
  7  4  1  0  0  0  0
  7  6  1  0  0  0  0
  8  2  2  0  0  0  0
  8 39  1  0  0  0  0
  9  8  1  0  0  0  0
 10 13  1  0  0  0  0
 11 15  1  0  0  0  0
 12 10  2  0  0  0  0
 12 14  1  0  0  0  0
 13 11  2  0  0  0  0
 14 11  1  0  0  0  0
 15  3  1  0  0  0  0
 16 21  1  0  0  0  0
 17 16  2  0  0  0  0
 18 33  1  6  0  0  0
 19 18  1  0  0  0  0
 19 24  1  1  0  0  0
 20 22  2  0  0  0  0
 21 19  1  0  0  0  0
 22 18  1  0  0  0  0
 23 21  1  0  0  0  0
 23 22  1  0  0  0  0
 24 27  1  0  0  0  0
 25 24  2  0  0  0  0
 26 24  2  0  0  0  0
 27 28  1  6  0  0  0
 27 32  1  0  0  0  0
 28 29  1  0  0  0  0
 30 28  2  0  0  0  0
 32 31  1  0  0  0  0
 33 34  1  0  0  0  0
 34 35  1  0  0  0  0
 35 36  1  0  0  0  0
 36 38  1  0  0  0  0
 37 38  1  0  0  0  0
 39 40  1  0  0  0  0
 40 41  1  0  0  0  0
 41 59  1  0  0  0  0
 41 42  2  0  0  0  0
 42 43  1  0  0  0  0
 43 45  1  0  0  0  0
 44 45  1  0  0  0  0
 45 46  2  0  0  0  0
 47 57  1  1  0  0  0
 47 44  1  0  0  0  0
 48 54  1  6  0  0  0
 48 49  1  0  0  0  0
 48 51  1  0  0  0  0
 49 52  1  0  0  0  0
 51 53  1  6  0  0  0
 51 50  1  0  0  0  0
 52 47  1  1  0  0  0
 52 50  1  0  0  0  0
 54 55  1  6  0  0  0
 56 54  1  0  0  0  0
 58 57  1  0  0  0  0
 60 63  1  0  0  0  0
 60 59  1  0  0  0  0
 61 60  2  0  0  0  0
 62 64  1  0  0  0  0
 64 63  2  0  0  0  0
 65 62  2  0  0  0  0
 65 61  1  0  0  0  0
M  END
>  <MODEL>
2

>  <REMARK>
 VINA RESULT:      -5.6      2.487      9.705
  Name = 
  23 active torsions:
  status: ('A' for Active; 'I' for Inactive)
    1  A    between atoms: C_1  and  C_13
    2  A    between atoms: C_2  and  N_25
    3  A    between atoms: C_3  and  C_62
    4  A    between atoms: S_4  and  C_9
    5  A    between atoms: S_4  and  C_21
    6  A    between atoms: C_6  and  O_63
    7  A    between atoms: N_7  and  CA_49
    8  A    between atoms: C_8  and  C_38
    9  A    between atoms: C_17  and  CA_49
   10  A    between atoms: C_20  and  C_26
   11  A    between atoms: C_21  and  O_30
   12  A    between atoms: C_21  and  C_33
   13  A    between atoms: C_26  and  N_61
   14  A    between atoms: C_31  and  CA_49
   15  A    between atoms: C_32  and  C_44
   16  A    between atoms: C_32  and  C_64
   17  A    between atoms: C_38  and  N_54
   18  A    between atoms: C_39  and  C_47
   19  A    between atoms: C_39  and  O_56
   20  A    between atoms: C_44  and  O_63
   21  A    between atoms: C_47  and  C_62
   22  A    between atoms: C_53  and  O_56
   23  A    between atoms: N_55  and  C_64
                            x       y       z     vdW  Elec       q    Type
                         _______ _______ _______ _____ _____    ______ ____

>  <TORSDO>
F 23

$$$$
=
 OpenBabel11042414183D

 65 69  0  0  1  0  0  0  0  0999 V2000
  192.8250  174.9210  141.5100 C   0  0  0  0  0  2  0  0  0  0  0  0
  191.9070  175.5100  142.5350 C   0  0  0  0  0  3  0  0  0  0  0  0
  194.0480  172.7700  141.5950 C   0  0  0  0  0  0  0  0  0  0  0  0
  194.6530  175.9000  143.7270 N   0  0  0  0  0  2  0  0  0  0  0  0
  195.6390  173.8250  143.7400 O   0  0  0  0  0  0  0  0  0  0  0  0
  193.8710  174.0190  142.1210 C   0  0  0  0  0  0  0  0  0  0  0  0
  194.7640  174.5620  143.2120 C   0  0  0  0  0  0  0  0  0  0  0  0
  192.3320  176.4680  143.3600 C   0  0  0  0  0  0  0  0  0  0  0  0
  193.7430  176.9410  143.2650 C   0  0  0  0  0  2  0  0  0  0  0  0
  194.5410  168.8300  143.4140 C   0  0  0  0  0  3  0  0  0  0  0  0
  195.1780  170.6760  142.5910 C   0  0  0  0  0  0  0  0  0  0  0  0
  195.9230  168.8600  143.3730 C   0  0  0  0  0  3  0  0  0  0  0  0
  194.0680  169.9900  142.9160 N   0  0  0  0  0  0  0  0  0  0  0  0
  196.2740  170.0170  142.8620 O   0  0  0  0  0  0  0  0  0  0  0  0
  195.1850  171.9800  141.9970 N   0  0  0  0  0  2  0  0  0  0  0  0
  192.9020  172.8020  139.3870 C   0  0  0  0  0  3  0  0  0  0  0  0
  193.1510  172.2110  140.5520 C   0  0  0  0  0  3  0  0  0  0  0  0
  190.5790  171.9180  136.5580 C   0  0  1  0  0  3  0  0  0  0  0  0
  191.6330  172.8550  137.1780 C   0  0  1  0  0  3  0  0  0  0  0  0
  189.9810  169.6730  137.2830 O   0  0  0  0  0  0  0  0  0  0  0  0
  192.0440  172.1990  138.4170 N   0  0  0  0  0  0  0  0  0  0  0  0
  190.6310  170.7350  137.4640 C   0  0  0  0  0  0  0  0  0  0  0  0
  191.4770  170.9350  138.5720 N   0  0  0  0  0  2  0  0  0  0  0  0
  193.0420  173.0330  136.0860 S   0  0  0  0  0  0  0  0  0  0  0  0
  192.6770  172.5710  134.7020 O   0  0  0  0  0  0  0  0  0  0  0  0
  194.1540  172.1690  136.6080 O   0  0  0  0  0  0  0  0  0  0  0  0
  193.6360  174.7220  136.0350 C   0  0  2  0  0  3  0  0  0  0  0  0
  194.9670  174.8650  136.6970 C   0  0  0  0  0  0  0  0  0  0  0  0
  196.0010  174.9980  135.9920 O   0  0  0  0  0  0  0  0  0  0  0  0
  195.0650  174.8970  138.0840 O   0  0  0  0  0  1  0  0  0  0  0  0
  192.3180  176.4560  135.6420 C   0  0  0  0  0  1  0  0  0  0  0  0
  192.7120  175.5700  136.6480 O   0  0  0  0  0  0  0  0  0  0  0  0
  189.3240  172.5210  136.6670 O   0  0  0  0  0  0  0  0  0  0  0  0
  189.5700  173.7990  137.1750 C   0  0  0  0  0  2  0  0  0  0  0  0
  188.2580  174.5430  137.2960 C   0  0  0  0  0  2  0  0  0  0  0  0
  188.0810  175.4990  136.1300 C   0  0  0  0  0  2  0  0  0  0  0  0
  186.0970  176.2630  135.3820 O   0  0  0  0  0  1  0  0  0  0  0  0
  186.9830  176.4120  136.3960 N   0  0  0  0  0  2  0  0  0  0  0  0
  191.4930  177.0440  144.3190 O   0  0  0  0  0  0  0  0  0  0  0  0
  191.6270  176.8000  145.7160 C   0  0  0  0  0  2  0  0  0  0  0  0
  190.3350  176.2890  146.2650 C   0  0  0  0  0  0  0  0  0  0  0  0
  189.2840  177.0360  146.1990 N   0  0  0  0  0  0  0  0  0  0  0  0
  187.9880  176.6170  146.6770 C   0  0  0  0  0  2  0  0  0  0  0  0
  186.2240  178.1560  145.6350 N   0  0  0  0  0  2  0  0  0  0  0  0
  187.0650  177.7930  146.7370 C   0  0  0  0  0  0  0  0  0  0  0  0
  187.0530  178.5070  147.7750 O   0  0  0  0  0  0  0  0  0  0  0  0
  186.0290  177.4190  144.3860 C   0  0  2  0  0  3  0  0  0  0  0  0
  188.2430  176.1380  141.9240 C   0  0  2  0  0  3  0  0  0  0  0  0
  187.4780  175.9910  143.0930 O   0  0  0  0  0  0  0  0  0  0  0  0
  187.4130  178.2780  142.4170 C   0  0  0  0  0  2  0  0  0  0  0  0
  187.8160  177.4340  141.2460 C   0  0  2  0  0  3  0  0  0  0  0  0
  187.3270  177.3000  143.5810 C   0  0  1  0  0  3  0  0  0  0  0  0
  186.5980  177.2520  140.3510 C   0  0  0  0  0  1  0  0  0  0  0  0
  188.1670  174.8910  141.0350 C   0  0  2  0  0  3  0  0  0  0  0  0
  187.5410  173.7370  141.7950 C   0  0  0  0  0  1  0  0  0  0  0  0
  189.4500  174.5210  140.6290 O   0  0  0  0  0  1  0  0  0  0  0  0
  184.8320  177.9160  143.5780 C   0  0  0  0  0  2  0  0  0  0  0  0
  184.3740  179.1250  144.1040 O   0  0  0  0  0  1  0  0  0  0  0  0
  190.2890  174.8960  146.8270 C   0  0  0  0  0  2  0  0  0  0  0  0
  190.6060  173.8890  145.7720 C   0  0  0  0  0  0  0  0  0  0  0  0
  189.5850  173.3770  144.9650 C   0  0  0  0  0  3  0  0  0  0  0  0
  191.1860  171.9610  143.8300 C   0  0  0  0  0  3  0  0  0  0  0  0
  191.9190  173.4320  145.6090 C   0  0  0  0  0  3  0  0  0  0  0  0
  192.2080  172.4680  144.6400 C   0  0  0  0  0  3  0  0  0  0  0  0
  189.8740  172.4150  143.9940 C   0  0  0  0  0  3  0  0  0  0  0  0
  1  6  1  0  0  0  0
  1  2  1  0  0  0  0
  2  8  2  0  0  0  0
  3 15  1  0  0  0  0
  3  6  2  0  0  0  0
  6  7  1  0  0  0  0
  7  4  1  0  0  0  0
  7  5  2  0  0  0  0
  8 39  1  0  0  0  0
  9  8  1  0  0  0  0
  9  4  1  0  0  0  0
 11 14  1  0  0  0  0
 11 13  2  0  0  0  0
 12 10  2  0  0  0  0
 13 10  1  0  0  0  0
 14 12  1  0  0  0  0
 15 11  1  0  0  0  0
 16 17  2  0  0  0  0
 17  3  1  0  0  0  0
 18 33  1  1  0  0  0
 18 19  1  0  0  0  0
 18 22  1  0  0  0  0
 19 24  1  6  0  0  0
 19 21  1  0  0  0  0
 20 22  2  0  0  0  0
 21 23  1  0  0  0  0
 21 16  1  0  0  0  0
 22 23  1  0  0  0  0
 24 26  2  0  0  0  0
 25 24  2  0  0  0  0
 27 24  1  0  0  0  0
 27 32  1  1  0  0  0
 27 28  1  0  0  0  0
 28 30  1  0  0  0  0
 29 28  2  0  0  0  0
 31 32  1  0  0  0  0
 33 34  1  0  0  0  0
 34 35  1  0  0  0  0
 36 38  1  0  0  0  0
 36 35  1  0  0  0  0
 37 38  1  0  0  0  0
 39 40  1  0  0  0  0
 40 41  1  0  0  0  0
 41 59  1  0  0  0  0
 42 41  2  0  0  0  0
 42 43  1  0  0  0  0
 43 45  1  0  0  0  0
 44 45  1  0  0  0  0
 45 46  2  0  0  0  0
 47 57  1  6  0  0  0
 47 44  1  0  0  0  0
 48 54  1  6  0  0  0
 48 49  1  0  0  0  0
 49 52  1  0  0  0  0
 50 52  1  0  0  0  0
 51 53  1  6  0  0  0
 51 48  1  0  0  0  0
 51 50  1  0  0  0  0
 52 47  1  6  0  0  0
 54 55  1  1  0  0  0
 56 54  1  0  0  0  0
 57 58  1  0  0  0  0
 60 59  1  0  0  0  0
 61 60  2  0  0  0  0
 62 65  2  0  0  0  0
 62 64  1  0  0  0  0
 63 60  1  0  0  0  0
 64 63  2  0  0  0  0
 65 61  1  0  0  0  0
M  END
>  <MODEL>
3

>  <REMARK>
 VINA RESULT:      -5.4      2.359      5.149
  Name = 
  23 active torsions:
  status: ('A' for Active; 'I' for Inactive)
    1  A    between atoms: C_1  and  C_13
    2  A    between atoms: C_2  and  N_25
    3  A    between atoms: C_3  and  C_62
    4  A    between atoms: S_4  and  C_9
    5  A    between atoms: S_4  and  C_21
    6  A    between atoms: C_6  and  O_63
    7  A    between atoms: N_7  and  CA_49
    8  A    between atoms: C_8  and  C_38
    9  A    between atoms: C_17  and  CA_49
   10  A    between atoms: C_20  and  C_26
   11  A    between atoms: C_21  and  O_30
   12  A    between atoms: C_21  and  C_33
   13  A    between atoms: C_26  and  N_61
   14  A    between atoms: C_31  and  CA_49
   15  A    between atoms: C_32  and  C_44
   16  A    between atoms: C_32  and  C_64
   17  A    between atoms: C_38  and  N_54
   18  A    between atoms: C_39  and  C_47
   19  A    between atoms: C_39  and  O_56
   20  A    between atoms: C_44  and  O_63
   21  A    between atoms: C_47  and  C_62
   22  A    between atoms: C_53  and  O_56
   23  A    between atoms: N_55  and  C_64
                            x       y       z     vdW  Elec       q    Type
                         _______ _______ _______ _____ _____    ______ ____

>  <TORSDO>
F 23

$$$$
=
 OpenBabel11042414183D

 65 69  0  0  1  0  0  0  0  0999 V2000
  193.0210  170.9270  144.1300 C   0  0  0  0  0  2  0  0  0  0  0  0
  192.7670  170.2240  142.8340 C   0  0  0  0  0  3  0  0  0  0  0  0
  194.0250  173.1610  144.4980 C   0  0  0  0  0  0  0  0  0  0  0  0
  195.7550  169.9950  143.1970 N   0  0  0  0  0  2  0  0  0  0  0  0
  196.5210  172.1370  143.5150 O   0  0  0  0  0  0  0  0  0  0  0  0
  194.1910  171.8790  144.0510 C   0  0  0  0  0  0  0  0  0  0  0  0
  195.5330  171.3580  143.5940 C   0  0  0  0  0  0  0  0  0  0  0  0
  193.5900  169.2660  142.4050 C   0  0  0  0  0  0  0  0  0  0  0  0
  194.7830  168.9090  143.2250 C   0  0  0  0  0  2  0  0  0  0  0  0
  195.7730  176.3880  142.1300 C   0  0  0  0  0  3  0  0  0  0  0  0
  195.6200  175.0510  143.7670 C   0  0  0  0  0  0  0  0  0  0  0  0
  196.7740  176.6660  143.0430 C   0  0  0  0  0  3  0  0  0  0  0  0
  195.0390  175.3570  142.5940 N   0  0  0  0  0  0  0  0  0  0  0  0
  196.6460  175.8170  144.0350 O   0  0  0  0  0  0  0  0  0  0  0  0
  195.1740  174.0170  144.6540 N   0  0  0  0  0  2  0  0  0  0  0  0
  191.9640  174.5130  144.1670 C   0  0  0  0  0  3  0  0  0  0  0  0
  192.7030  173.6950  144.9110 C   0  0  0  0  0  3  0  0  0  0  0  0
  188.5620  176.0500  144.6620 C   0  0  1  0  0  3  0  0  0  0  0  0
  189.6650  175.5220  143.7260 C   0  0  1  0  0  3  0  0  0  0  0  0
  188.3780  175.7310  147.0680 O   0  0  0  0  0  0  0  0  0  0  0  0
  190.6870  174.9730  144.6150 N   0  0  0  0  0  0  0  0  0  0  0  0
  189.0290  175.5890  146.0000 C   0  0  0  0  0  0  0  0  0  0  0  0
  190.3010  174.9840  145.9540 N   0  0  0  0  0  2  0  0  0  0  0  0
  189.0270  174.2310  142.6610 S   0  0  0  0  0  0  0  0  0  0  0  0
  187.5810  174.4980  142.3450 O   0  0  0  0  0  0  0  0  0  0  0  0
  189.1290  172.9230  143.3940 O   0  0  0  0  0  0  0  0  0  0  0  0
  189.9720  174.0880  141.1470 C   0  0  2  0  0  3  0  0  0  0  0  0
  189.1450  173.5600  140.0210 C   0  0  0  0  0  0  0  0  0  0  0  0
  188.9720  172.3190  139.9050 O   0  0  0  0  0  1  0  0  0  0  0  0
  188.5300  174.4310  139.1280 O   0  0  0  0  0  0  0  0  0  0  0  0
  192.0900  173.8110  140.5680 C   0  0  0  0  0  1  0  0  0  0  0  0
  191.0750  173.2560  141.3510 O   0  0  0  0  0  0  0  0  0  0  0  0
  188.5790  177.4460  144.6300 O   0  0  0  0  0  0  0  0  0  0  0  0
  187.4350  177.8150  143.9180 C   0  0  0  0  0  2  0  0  0  0  0  0
  186.2190  177.2140  144.5900 C   0  0  0  0  0  2  0  0  0  0  0  0
  185.6820  178.1550  145.6520 C   0  0  0  0  0  2  0  0  0  0  0  0
  184.0820  178.7780  144.1930 O   0  0  0  0  0  1  0  0  0  0  0  0
  185.0190  179.2870  145.0270 N   0  0  0  0  0  2  0  0  0  0  0  0
  193.3700  168.5850  141.2040 O   0  0  0  0  0  0  0  0  0  0  0  0
  194.3680  168.4390  140.1990 C   0  0  0  0  0  2  0  0  0  0  0  0
  194.7190  169.7780  139.6380 C   0  0  0  0  0  0  0  0  0  0  0  0
  195.9540  170.1570  139.6420 N   0  0  0  0  0  0  0  0  0  0  0  0
  196.3910  171.4210  139.0980 C   0  0  0  0  0  2  0  0  0  0  0  0
  197.2240  172.1170  136.7760 N   0  0  0  0  0  2  0  0  0  0  0  0
  197.2090  171.1870  137.8680 C   0  0  0  0  0  0  0  0  0  0  0  0
  197.8780  170.1250  137.7730 O   0  0  0  0  0  0  0  0  0  0  0  0
  196.5900  173.4350  136.7250 C   0  0  2  0  0  3  0  0  0  0  0  0
  193.4910  173.8860  135.0540 C   0  0  2  0  0  3  0  0  0  0  0  0
  194.3440  173.1570  135.8990 O   0  0  0  0  0  0  0  0  0  0  0  0
  195.5680  174.9770  134.9620 C   0  0  0  0  0  2  0  0  0  0  0  0
  194.1020  175.2680  134.8540 C   0  0  2  0  0  3  0  0  0  0  0  0
  195.6370  173.5670  135.5340 C   0  0  1  0  0  3  0  0  0  0  0  0
  193.7280  176.2390  135.9660 C   0  0  0  0  0  1  0  0  0  0  0  0
  192.0470  173.8890  135.5680 C   0  0  2  0  0  3  0  0  0  0  0  0
  191.9750  173.2610  136.9470 C   0  0  0  0  0  1  0  0  0  0  0  0
  191.2340  173.1610  134.6980 O   0  0  0  0  0  1  0  0  0  0  0  0
  197.5880  174.5840  136.8620 C   0  0  0  0  0  2  0  0  0  0  0  0
  197.0220  175.6160  137.6130 O   0  0  0  0  0  1  0  0  0  0  0  0
  193.6290  170.6190  139.0370 C   0  0  0  0  0  2  0  0  0  0  0  0
  192.9430  169.8840  137.9330 C   0  0  0  0  0  0  0  0  0  0  0  0
  193.6130  169.6530  136.7270 C   0  0  0  0  0  3  0  0  0  0  0  0
  191.6450  168.5570  135.8400 C   0  0  0  0  0  3  0  0  0  0  0  0
  191.6200  169.4540  138.0890 C   0  0  0  0  0  3  0  0  0  0  0  0
  190.9720  168.7920  137.0440 C   0  0  0  0  0  3  0  0  0  0  0  0
  192.9650  168.9880  135.6820 C   0  0  0  0  0  3  0  0  0  0  0  0
  2  1  1  0  0  0  0
  3 15  1  0  0  0  0
  3 17  1  0  0  0  0
  4  9  1  0  0  0  0
  4  7  1  0  0  0  0
  5  7  2  0  0  0  0
  6  1  1  0  0  0  0
  6  3  2  0  0  0  0
  7  6  1  0  0  0  0
  8  2  2  0  0  0  0
  8  9  1  0  0  0  0
 10 13  1  0  0  0  0
 10 12  2  0  0  0  0
 11 14  1  0  0  0  0
 11 15  1  0  0  0  0
 12 14  1  0  0  0  0
 13 11  2  0  0  0  0
 16 21  1  0  0  0  0
 16 17  2  0  0  0  0
 18 33  1  1  0  0  0
 18 22  1  0  0  0  0
 19 24  1  6  0  0  0
 19 21  1  0  0  0  0
 19 18  1  0  0  0  0
 21 23  1  0  0  0  0
 22 20  2  0  0  0  0
 23 22  1  0  0  0  0
 24 26  2  0  0  0  0
 25 24  2  0  0  0  0
 27 28  1  6  0  0  0
 27 32  1  0  0  0  0
 27 24  1  0  0  0  0
 29 28  1  0  0  0  0
 30 28  2  0  0  0  0
 31 32  1  0  0  0  0
 34 35  1  0  0  0  0
 34 33  1  0  0  0  0
 35 36  1  0  0  0  0
 37 38  1  0  0  0  0
 38 36  1  0  0  0  0
 39  8  1  0  0  0  0
 40 39  1  0  0  0  0
 41 42  2  0  0  0  0
 41 40  1  0  0  0  0
 43 42  1  0  0  0  0
 44 45  1  0  0  0  0
 45 43  1  0  0  0  0
 46 45  2  0  0  0  0
 47 44  1  0  0  0  0
 47 57  1  6  0  0  0
 48 54  1  1  0  0  0
 48 49  1  0  0  0  0
 50 52  1  0  0  0  0
 51 50  1  0  0  0  0
 51 48  1  0  0  0  0
 51 53  1  1  0  0  0
 52 49  1  0  0  0  0
 52 47  1  1  0  0  0
 54 55  1  1  0  0  0
 56 54  1  0  0  0  0
 57 58  1  0  0  0  0
 59 41  1  0  0  0  0
 60 63  1  0  0  0  0
 60 59  1  0  0  0  0
 61 60  2  0  0  0  0
 62 64  1  0  0  0  0
 64 63  2  0  0  0  0
 65 62  2  0  0  0  0
 65 61  1  0  0  0  0
M  END
>  <MODEL>
4

>  <REMARK>
 VINA RESULT:      -5.1      2.483      9.299
  Name = 
  23 active torsions:
  status: ('A' for Active; 'I' for Inactive)
    1  A    between atoms: C_1  and  C_13
    2  A    between atoms: C_2  and  N_25
    3  A    between atoms: C_3  and  C_62
    4  A    between atoms: S_4  and  C_9
    5  A    between atoms: S_4  and  C_21
    6  A    between atoms: C_6  and  O_63
    7  A    between atoms: N_7  and  CA_49
    8  A    between atoms: C_8  and  C_38
    9  A    between atoms: C_17  and  CA_49
   10  A    between atoms: C_20  and  C_26
   11  A    between atoms: C_21  and  O_30
   12  A    between atoms: C_21  and  C_33
   13  A    between atoms: C_26  and  N_61
   14  A    between atoms: C_31  and  CA_49
   15  A    between atoms: C_32  and  C_44
   16  A    between atoms: C_32  and  C_64
   17  A    between atoms: C_38  and  N_54
   18  A    between atoms: C_39  and  C_47
   19  A    between atoms: C_39  and  O_56
   20  A    between atoms: C_44  and  O_63
   21  A    between atoms: C_47  and  C_62
   22  A    between atoms: C_53  and  O_56
   23  A    between atoms: N_55  and  C_64
                            x       y       z     vdW  Elec       q    Type
                         _______ _______ _______ _____ _____    ______ ____

>  <TORSDO>
F 23

$$$$
=
 OpenBabel11042414183D

 65 69  0  0  1  0  0  0  0  0999 V2000
  190.9640  173.3040  137.8440 C   0  0  0  0  0  2  0  0  0  0  0  0
  189.8210  173.7970  138.6750 C   0  0  0  0  0  3  0  0  0  0  0  0
  192.9010  174.5820  136.9790 C   0  0  0  0  0  0  0  0  0  0  0  0
  189.2270  174.8860  135.9220 N   0  0  0  0  0  2  0  0  0  0  0  0
  191.1060  176.0400  135.2780 O   0  0  0  0  0  0  0  0  0  0  0  0
  191.5480  174.3840  136.9650 C   0  0  0  0  0  0  0  0  0  0  0  0
  190.6410  175.1310  136.0160 C   0  0  0  0  0  0  0  0  0  0  0  0
  188.6380  174.0620  138.1170 C   0  0  0  0  0  0  0  0  0  0  0  0
  188.4660  173.8760  136.6470 C   0  0  0  0  0  2  0  0  0  0  0  0
  196.9930  175.8640  136.1490 C   0  0  0  0  0  3  0  0  0  0  0  0
  194.8970  175.7600  135.8490 C   0  0  0  0  0  0  0  0  0  0  0  0
  196.6560  176.5850  135.0180 C   0  0  0  0  0  3  0  0  0  0  0  0
  195.8700  175.3390  136.6770 N   0  0  0  0  0  0  0  0  0  0  0  0
  195.3550  176.4980  134.8710 O   0  0  0  0  0  0  0  0  0  0  0  0
  193.5090  175.4350  135.9890 N   0  0  0  0  0  2  0  0  0  0  0  0
  193.9100  174.2050  139.2210 C   0  0  0  0  0  3  0  0  0  0  0  0
  193.7970  173.8840  137.9360 C   0  0  0  0  0  3  0  0  0  0  0  0
  195.9030  172.7390  142.0610 C   0  0  1  0  0  3  0  0  0  0  0  0
  194.6650  173.5010  141.5520 C   0  0  1  0  0  3  0  0  0  0  0  0
  197.5070  171.4670  140.7440 O   0  0  0  0  0  0  0  0  0  0  0  0
  194.7760  173.4770  140.0950 N   0  0  0  0  0  0  0  0  0  0  0  0
  196.5050  172.2270  140.7970 C   0  0  0  0  0  0  0  0  0  0  0  0
  195.8430  172.7010  139.6470 N   0  0  0  0  0  2  0  0  0  0  0  0
  193.1590  172.6740  142.0610 S   0  0  0  0  0  0  0  0  0  0  0  0
  192.0040  173.6350  142.0010 O   0  0  0  0  0  0  0  0  0  0  0  0
  193.3320  172.2140  143.4810 O   0  0  0  0  0  0  0  0  0  0  0  0
  192.8160  171.2340  141.0540 C   0  0  2  0  0  3  0  0  0  0  0  0
  191.3910  170.8020  141.1670 C   0  0  0  0  0  0  0  0  0  0  0  0
  190.8760  170.6460  142.3050 O   0  0  0  0  0  1  0  0  0  0  0  0
  190.6180  170.6140  140.0260 O   0  0  0  0  0  0  0  0  0  0  0  0
  194.0120  169.5690  140.2210 C   0  0  0  0  0  1  0  0  0  0  0  0
  193.6570  170.1840  141.4250 O   0  0  0  0  0  0  0  0  0  0  0  0
  196.7810  173.6530  142.6460 O   0  0  0  0  0  0  0  0  0  0  0  0
  196.3270  173.8170  143.9570 C   0  0  0  0  0  2  0  0  0  0  0  0
  197.5080  173.7500  144.9010 C   0  0  0  0  0  2  0  0  0  0  0  0
  197.2180  172.7970  146.0460 C   0  0  0  0  0  2  0  0  0  0  0  0
  196.4560  170.7250  146.4980 O   0  0  0  0  0  1  0  0  0  0  0  0
  196.3440  171.7270  145.5950 N   0  0  0  0  0  2  0  0  0  0  0  0
  187.5500  174.5130  138.8710 O   0  0  0  0  0  0  0  0  0  0  0  0
  187.1650  175.8820  138.9380 C   0  0  0  0  0  2  0  0  0  0  0  0
  187.5010  176.4350  140.2840 C   0  0  0  0  0  0  0  0  0  0  0  0
  187.9620  175.6410  141.1930 N   0  0  0  0  0  0  0  0  0  0  0  0
  188.3390  176.0890  142.5120 C   0  0  0  0  0  2  0  0  0  0  0  0
  188.9820  175.0420  144.7620 N   0  0  0  0  0  2  0  0  0  0  0  0
  188.7100  174.9130  143.3600 C   0  0  0  0  0  0  0  0  0  0  0  0
  188.8200  173.7820  142.8190 O   0  0  0  0  0  0  0  0  0  0  0  0
  188.8290  176.2400  145.5890 C   0  0  2  0  0  3  0  0  0  0  0  0
  192.3320  176.7770  145.3840 C   0  0  2  0  0  3  0  0  0  0  0  0
  191.2160  176.0770  145.8730 O   0  0  0  0  0  0  0  0  0  0  0  0
  190.4520  177.9690  144.6380 C   0  0  0  0  0  2  0  0  0  0  0  0
  191.8610  177.6600  144.2350 C   0  0  2  0  0  3  0  0  0  0  0  0
  190.1530  176.9890  145.7650 C   0  0  1  0  0  3  0  0  0  0  0  0
  191.8230  176.9180  142.9060 C   0  0  0  0  0  1  0  0  0  0  0  0
  193.4890  175.8320  145.0390 C   0  0  2  0  0  3  0  0  0  0  0  0
  194.3730  175.6140  146.2520 C   0  0  0  0  0  1  0  0  0  0  0  0
  194.2580  176.3840  144.0130 O   0  0  0  0  0  1  0  0  0  0  0  0
  188.0790  175.9740  146.8930 C   0  0  0  0  0  2  0  0  0  0  0  0
  186.8420  176.6210  146.8690 O   0  0  0  0  0  1  0  0  0  0  0  0
  187.3460  177.9110  140.5190 C   0  0  0  0  0  2  0  0  0  0  0  0
  186.1760  178.1850  141.4050 C   0  0  0  0  0  0  0  0  0  0  0  0
  186.3780  178.6900  142.6930 C   0  0  0  0  0  3  0  0  0  0  0  0
  183.9910  178.6500  143.0880 C   0  0  0  0  0  3  0  0  0  0  0  0
  184.8770  177.9090  140.9600 C   0  0  0  0  0  3  0  0  0  0  0  0
  183.7860  178.1400  141.8020 C   0  0  0  0  0  3  0  0  0  0  0  0
  185.2870  178.9240  143.5340 C   0  0  0  0  0  3  0  0  0  0  0  0
  1  2  1  0  0  0  0
  3 17  1  0  0  0  0
  4  7  1  0  0  0  0
  4  9  1  0  0  0  0
  5  7  2  0  0  0  0
  6  3  2  0  0  0  0
  6  1  1  0  0  0  0
  7  6  1  0  0  0  0
  8  2  2  0  0  0  0
  8 39  1  0  0  0  0
  9  8  1  0  0  0  0
 10 13  1  0  0  0  0
 11 15  1  0  0  0  0
 11 13  2  0  0  0  0
 12 10  2  0  0  0  0
 14 12  1  0  0  0  0
 14 11  1  0  0  0  0
 15  3  1  0  0  0  0
 16 21  1  0  0  0  0
 17 16  2  0  0  0  0
 18 33  1  6  0  0  0
 19 18  1  0  0  0  0
 19 24  1  6  0  0  0
 20 22  2  0  0  0  0
 21 19  1  0  0  0  0
 22 18  1  0  0  0  0
 23 21  1  0  0  0  0
 23 22  1  0  0  0  0
 24 26  2  0  0  0  0
 25 24  2  0  0  0  0
 27 28  1  1  0  0  0
 27 32  1  0  0  0  0
 27 24  1  0  0  0  0
 28 29  1  0  0  0  0
 30 28  2  0  0  0  0
 31 32  1  0  0  0  0
 33 34  1  0  0  0  0
 34 35  1  0  0  0  0
 35 36  1  0  0  0  0
 38 36  1  0  0  0  0
 38 37  1  0  0  0  0
 39 40  1  0  0  0  0
 40 41  1  0  0  0  0
 41 59  1  0  0  0  0
 41 42  2  0  0  0  0
 42 43  1  0  0  0  0
 43 45  1  0  0  0  0
 44 47  1  0  0  0  0
 45 44  1  0  0  0  0
 46 45  2  0  0  0  0
 47 57  1  1  0  0  0
 48 54  1  6  0  0  0
 48 49  1  0  0  0  0
 50 52  1  0  0  0  0
 51 53  1  6  0  0  0
 51 50  1  0  0  0  0
 51 48  1  0  0  0  0
 52 47  1  6  0  0  0
 52 49  1  0  0  0  0
 54 55  1  1  0  0  0
 56 54  1  0  0  0  0
 58 57  1  0  0  0  0
 59 60  1  0  0  0  0
 60 61  1  0  0  0  0
 61 65  2  0  0  0  0
 62 65  1  0  0  0  0
 63 60  2  0  0  0  0
 63 64  1  0  0  0  0
 64 62  2  0  0  0  0
M  END
>  <MODEL>
5

>  <REMARK>
 VINA RESULT:      -4.8      2.451      6.992
  Name = 
  23 active torsions:
  status: ('A' for Active; 'I' for Inactive)
    1  A    between atoms: C_1  and  C_13
    2  A    between atoms: C_2  and  N_25
    3  A    between atoms: C_3  and  C_62
    4  A    between atoms: S_4  and  C_9
    5  A    between atoms: S_4  and  C_21
    6  A    between atoms: C_6  and  O_63
    7  A    between atoms: N_7  and  CA_49
    8  A    between atoms: C_8  and  C_38
    9  A    between atoms: C_17  and  CA_49
   10  A    between atoms: C_20  and  C_26
   11  A    between atoms: C_21  and  O_30
   12  A    between atoms: C_21  and  C_33
   13  A    between atoms: C_26  and  N_61
   14  A    between atoms: C_31  and  CA_49
   15  A    between atoms: C_32  and  C_44
   16  A    between atoms: C_32  and  C_64
   17  A    between atoms: C_38  and  N_54
   18  A    between atoms: C_39  and  C_47
   19  A    between atoms: C_39  and  O_56
   20  A    between atoms: C_44  and  O_63
   21  A    between atoms: C_47  and  C_62
   22  A    between atoms: C_53  and  O_56
   23  A    between atoms: N_55  and  C_64
                            x       y       z     vdW  Elec       q    Type
                         _______ _______ _______ _____ _____    ______ ____

>  <TORSDO>
F 23

$$$$
=
 OpenBabel11042414183D

 65 69  0  0  1  0  0  0  0  0999 V2000
  195.4990  173.9110  142.2330 C   0  0  0  0  0  2  0  0  0  0  0  0
  194.2340  174.4790  142.7960 C   0  0  0  0  0  3  0  0  0  0  0  0
  196.5770  171.7420  142.7490 C   0  0  0  0  0  0  0  0  0  0  0  0
  196.2240  174.7940  145.0450 N   0  0  0  0  0  2  0  0  0  0  0  0
  197.1160  172.7060  145.3990 O   0  0  0  0  0  0  0  0  0  0  0  0
  196.1930  172.9760  143.1950 C   0  0  0  0  0  0  0  0  0  0  0  0
  196.5440  173.4720  144.5780 C   0  0  0  0  0  0  0  0  0  0  0  0
  194.2710  175.4040  143.7570 C   0  0  0  0  0  0  0  0  0  0  0  0
  195.5910  175.8600  144.2800 C   0  0  0  0  0  2  0  0  0  0  0  0
  195.9250  168.4420  145.5330 C   0  0  0  0  0  3  0  0  0  0  0  0
  197.0620  169.8580  144.4420 C   0  0  0  0  0  0  0  0  0  0  0  0
  197.2700  168.2380  145.7810 C   0  0  0  0  0  3  0  0  0  0  0  0
  195.7950  169.4760  144.6790 N   0  0  0  0  0  0  0  0  0  0  0  0
  197.9360  169.1340  145.0910 O   0  0  0  0  0  0  0  0  0  0  0  0
  197.4410  170.9250  143.5630 N   0  0  0  0  0  2  0  0  0  0  0  0
  197.0380  171.1620  140.3740 C   0  0  0  0  0  3  0  0  0  0  0  0
  196.2030  171.2290  141.4070 C   0  0  0  0  0  3  0  0  0  0  0  0
  195.3890  170.3020  137.0990 C   0  0  1  0  0  3  0  0  0  0  0  0
  195.6830  171.3160  138.2210 C   0  0  1  0  0  3  0  0  0  0  0  0
  196.4980  168.1740  136.6950 O   0  0  0  0  0  0  0  0  0  0  0  0
  196.6190  170.6350  139.1130 N   0  0  0  0  0  0  0  0  0  0  0  0
  196.3360  169.1950  137.4130 C   0  0  0  0  0  0  0  0  0  0  0  0
  197.0280  169.3970  138.6230 N   0  0  0  0  0  2  0  0  0  0  0  0
  196.4430  172.7950  137.5540 S   0  0  0  0  0  0  0  0  0  0  0  0
  196.3360  172.7920  136.0540 O   0  0  0  0  0  0  0  0  0  0  0  0
  197.8960  172.7900  137.9350 O   0  0  0  0  0  0  0  0  0  0  0  0
  195.7040  174.2840  138.2220 C   0  0  2  0  0  3  0  0  0  0  0  0
  194.6160  174.8080  137.3440 C   0  0  0  0  0  0  0  0  0  0  0  0
  194.9030  175.5670  136.3820 O   0  0  0  0  0  0  0  0  0  0  0  0
  193.2950  174.4270  137.5540 O   0  0  0  0  0  1  0  0  0  0  0  0
  196.5530  175.6680  139.7250 C   0  0  0  0  0  1  0  0  0  0  0  0
  196.6830  175.2640  138.3940 O   0  0  0  0  0  0  0  0  0  0  0  0
  194.0800  169.8390  137.2480 O   0  0  0  0  0  0  0  0  0  0  0  0
  193.3800  170.3450  136.1490 C   0  0  0  0  0  2  0  0  0  0  0  0
  191.9730  170.6970  136.5800 C   0  0  0  0  0  2  0  0  0  0  0  0
  191.4950  171.9440  135.8580 C   0  0  0  0  0  2  0  0  0  0  0  0
  190.2740  173.1550  137.3150 O   0  0  0  0  0  1  0  0  0  0  0  0
  190.1490  172.2830  136.2860 N   0  0  0  0  0  2  0  0  0  0  0  0
  193.1050  175.9590  144.2940 O   0  0  0  0  0  0  0  0  0  0  0  0
  192.8400  177.3580  144.2960 C   0  0  0  0  0  2  0  0  0  0  0  0
  191.4030  177.5990  143.9640 C   0  0  0  0  0  0  0  0  0  0  0  0
  191.0070  177.4560  142.7440 N   0  0  0  0  0  0  0  0  0  0  0  0
  189.6350  177.6400  142.3340 C   0  0  0  0  0  2  0  0  0  0  0  0
  187.5530  176.1660  142.0920 N   0  0  0  0  0  2  0  0  0  0  0  0
  188.9780  176.3090  142.1480 C   0  0  0  0  0  0  0  0  0  0  0  0
  189.6980  175.2790  142.0740 O   0  0  0  0  0  0  0  0  0  0  0  0
  186.5530  177.2360  142.0740 C   0  0  2  0  0  3  0  0  0  0  0  0
  185.0960  177.4600  145.3040 C   0  0  2  0  0  3  0  0  0  0  0  0
  186.0870  176.9910  144.4260 O   0  0  0  0  0  0  0  0  0  0  0  0
  184.4160  178.1250  143.1570 C   0  0  0  0  0  2  0  0  0  0  0  0
  184.3220  178.5600  144.5880 C   0  0  2  0  0  3  0  0  0  0  0  0
  185.4870  177.0420  143.1570 C   0  0  1  0  0  3  0  0  0  0  0  0
  184.9910  179.9220  144.7140 C   0  0  0  0  0  1  0  0  0  0  0  0
  185.6830  177.8650  146.6610 C   0  0  2  0  0  3  0  0  0  0  0  0
  187.0850  178.4190  146.4860 C   0  0  0  0  0  1  0  0  0  0  0  0
  185.7390  176.7520  147.5020 O   0  0  0  0  0  1  0  0  0  0  0  0
  185.9910  177.5070  140.6800 C   0  0  0  0  0  2  0  0  0  0  0  0
  187.0260  177.5020  139.7430 O   0  0  0  0  0  1  0  0  0  0  0  0
  190.4530  177.9460  145.0760 C   0  0  0  0  0  2  0  0  0  0  0  0
  190.2690  176.7860  145.9960 C   0  0  0  0  0  0  0  0  0  0  0  0
  190.9580  176.7430  147.2130 C   0  0  0  0  0  3  0  0  0  0  0  0
  189.9700  174.5880  147.7000 C   0  0  0  0  0  3  0  0  0  0  0  0
  189.4320  175.7240  145.6310 C   0  0  0  0  0  3  0  0  0  0  0  0
  189.2840  174.6260  146.4820 C   0  0  0  0  0  3  0  0  0  0  0  0
  190.8080  175.6450  148.0650 C   0  0  0  0  0  3  0  0  0  0  0  0
  1  2  1  0  0  0  0
  1  6  1  0  0  0  0
  2  8  2  0  0  0  0
  3  6  2  0  0  0  0
  3 15  1  0  0  0  0
  6  7  1  0  0  0  0
  7  4  1  0  0  0  0
  7  5  2  0  0  0  0
  8  9  1  0  0  0  0
  8 39  1  0  0  0  0
  9  4  1  0  0  0  0
 10 12  2  0  0  0  0
 11 13  2  0  0  0  0
 11 14  1  0  0  0  0
 13 10  1  0  0  0  0
 14 12  1  0  0  0  0
 15 11  1  0  0  0  0
 16 17  2  0  0  0  0
 17  3  1  0  0  0  0
 18 33  1  1  0  0  0
 18 22  1  0  0  0  0
 18 19  1  0  0  0  0
 19 24  1  6  0  0  0
 19 21  1  0  0  0  0
 20 22  2  0  0  0  0
 21 16  1  0  0  0  0
 22 23  1  0  0  0  0
 23 21  1  0  0  0  0
 24 26  2  0  0  0  0
 24 27  1  0  0  0  0
 25 24  2  0  0  0  0
 27 28  1  6  0  0  0
 27 32  1  0  0  0  0
 28 30  1  0  0  0  0
 29 28  2  0  0  0  0
 32 31  1  0  0  0  0
 34 35  1  0  0  0  0
 34 33  1  0  0  0  0
 36 38  1  0  0  0  0
 36 35  1  0  0  0  0
 38 37  1  0  0  0  0
 39 40  1  0  0  0  0
 41 40  1  0  0  0  0
 41 59  1  0  0  0  0
 42 41  2  0  0  0  0
 43 42  1  0  0  0  0
 44 45  1  0  0  0  0
 45 43  1  0  0  0  0
 46 45  2  0  0  0  0
 47 57  1  6  0  0  0
 47 44  1  0  0  0  0
 48 54  1  1  0  0  0
 49 48  1  0  0  0  0
 50 51  1  0  0  0  0
 51 53  1  6  0  0  0
 51 48  1  0  0  0  0
 52 47  1  6  0  0  0
 52 50  1  0  0  0  0
 52 49  1  0  0  0  0
 54 55  1  6  0  0  0
 54 56  1  0  0  0  0
 58 57  1  0  0  0  0
 59 60  1  0  0  0  0
 60 61  1  0  0  0  0
 61 65  2  0  0  0  0
 62 65  1  0  0  0  0
 63 60  2  0  0  0  0
 63 64  1  0  0  0  0
 64 62  2  0  0  0  0
M  END
>  <MODEL>
6

>  <REMARK>
 VINA RESULT:      -4.7      2.304      4.438
  Name = 
  23 active torsions:
  status: ('A' for Active; 'I' for Inactive)
    1  A    between atoms: C_1  and  C_13
    2  A    between atoms: C_2  and  N_25
    3  A    between atoms: C_3  and  C_62
    4  A    between atoms: S_4  and  C_9
    5  A    between atoms: S_4  and  C_21
    6  A    between atoms: C_6  and  O_63
    7  A    between atoms: N_7  and  CA_49
    8  A    between atoms: C_8  and  C_38
    9  A    between atoms: C_17  and  CA_49
   10  A    between atoms: C_20  and  C_26
   11  A    between atoms: C_21  and  O_30
   12  A    between atoms: C_21  and  C_33
   13  A    between atoms: C_26  and  N_61
   14  A    between atoms: C_31  and  CA_49
   15  A    between atoms: C_32  and  C_44
   16  A    between atoms: C_32  and  C_64
   17  A    between atoms: C_38  and  N_54
   18  A    between atoms: C_39  and  C_47
   19  A    between atoms: C_39  and  O_56
   20  A    between atoms: C_44  and  O_63
   21  A    between atoms: C_47  and  C_62
   22  A    between atoms: C_53  and  O_56
   23  A    between atoms: N_55  and  C_64
                            x       y       z     vdW  Elec       q    Type
                         _______ _______ _______ _____ _____    ______ ____

>  <TORSDO>
F 23

$$$$
=
 OpenBabel11042414183D

 65 69  0  0  1  0  0  0  0  0999 V2000
  192.5100  176.9180  142.8240 C   0  0  0  0  0  2  0  0  0  0  0  0
  191.0520  177.1720  142.5990 C   0  0  0  0  0  3  0  0  0  0  0  0
  193.6580  174.7520  143.1750 C   0  0  0  0  0  0  0  0  0  0  0  0
  191.2200  176.5280  145.5440 N   0  0  0  0  0  2  0  0  0  0  0  0
  192.2950  174.5020  145.6890 O   0  0  0  0  0  0  0  0  0  0  0  0
  192.7600  175.6720  143.6400 C   0  0  0  0  0  0  0  0  0  0  0  0
  192.1040  175.5370  144.9950 C   0  0  0  0  0  0  0  0  0  0  0  0
  190.2740  177.6000  143.5950 C   0  0  0  0  0  0  0  0  0  0  0  0
  190.8680  177.8100  144.9470 C   0  0  0  0  0  2  0  0  0  0  0  0
  197.3680  173.8400  145.2910 C   0  0  0  0  0  3  0  0  0  0  0  0
  195.3690  173.5230  144.6640 C   0  0  0  0  0  0  0  0  0  0  0  0
  196.8730  172.6990  145.8960 C   0  0  0  0  0  3  0  0  0  0  0  0
  196.4070  174.3640  144.5050 N   0  0  0  0  0  0  0  0  0  0  0  0
  195.6390  172.5380  145.4800 O   0  0  0  0  0  0  0  0  0  0  0  0
  194.0910  173.6780  144.0340 N   0  0  0  0  0  2  0  0  0  0  0  0
  194.5300  173.8120  141.0430 C   0  0  0  0  0  3  0  0  0  0  0  0
  194.2770  174.8540  141.8290 C   0  0  0  0  0  3  0  0  0  0  0  0
  195.8330  173.5420  137.5200 C   0  0  1  0  0  3  0  0  0  0  0  0
  194.8690  173.0750  138.6270 C   0  0  1  0  0  3  0  0  0  0  0  0
  197.1990  175.5560  137.4950 O   0  0  0  0  0  0  0  0  0  0  0  0
  195.1080  173.9820  139.7470 N   0  0  0  0  0  0  0  0  0  0  0  0
  196.4100  174.7870  138.1030 C   0  0  0  0  0  0  0  0  0  0  0  0
  195.9940  175.0100  139.4300 N   0  0  0  0  0  2  0  0  0  0  0  0
  193.1670  173.2120  138.0850 S   0  0  0  0  0  0  0  0  0  0  0  0
  192.3550  173.9270  139.1290 O   0  0  0  0  0  0  0  0  0  0  0  0
  192.6160  171.8260  137.9070 O   0  0  0  0  0  0  0  0  0  0  0  0
  193.0350  174.0620  136.5140 C   0  0  2  0  0  3  0  0  0  0  0  0
  191.7330  174.7790  136.3760 C   0  0  0  0  0  0  0  0  0  0  0  0
  191.7240  176.0050  136.0880 O   0  0  0  0  0  0  0  0  0  0  0  0
  190.5310  174.0930  136.5180 O   0  0  0  0  0  1  0  0  0  0  0  0
  194.0350  173.7860  134.5590 C   0  0  0  0  0  1  0  0  0  0  0  0
  193.1840  173.1510  135.4670 O   0  0  0  0  0  0  0  0  0  0  0  0
  196.8470  172.5920  137.3800 O   0  0  0  0  0  0  0  0  0  0  0  0
  196.2720  171.3770  137.7590 C   0  0  0  0  0  2  0  0  0  0  0  0
  196.0380  170.5340  136.5240 C   0  0  0  0  0  2  0  0  0  0  0  0
  195.7420  169.0970  136.9120 C   0  0  0  0  0  2  0  0  0  0  0  0
  197.6010  168.5900  135.7440 O   0  0  0  0  0  1  0  0  0  0  0  0
  196.3230  168.1870  135.9400 N   0  0  0  0  0  2  0  0  0  0  0  0
  188.9120  177.8570  143.4100 O   0  0  0  0  0  0  0  0  0  0  0  0
  188.1970  177.4580  142.2450 C   0  0  0  0  0  2  0  0  0  0  0  0
  187.6990  176.0600  142.4130 C   0  0  0  0  0  0  0  0  0  0  0  0
  188.2270  175.1150  141.7080 N   0  0  0  0  0  0  0  0  0  0  0  0
  187.8310  173.7320  141.8210 C   0  0  0  0  0  2  0  0  0  0  0  0
  189.6880  172.2830  140.8110 N   0  0  0  0  0  2  0  0  0  0  0  0
  188.4200  172.9420  140.6950 C   0  0  0  0  0  0  0  0  0  0  0  0
  187.8000  172.8840  139.6010 O   0  0  0  0  0  0  0  0  0  0  0  0
  190.5190  172.1600  142.0100 C   0  0  2  0  0  3  0  0  0  0  0  0
  193.3290  170.0290  142.4100 C   0  0  2  0  0  3  0  0  0  0  0  0
  192.4810  171.0520  142.8640 O   0  0  0  0  0  0  0  0  0  0  0  0
  191.8630  170.4810  140.6320 C   0  0  0  0  0  2  0  0  0  0  0  0
  192.6510  169.3520  141.2250 C   0  0  2  0  0  3  0  0  0  0  0  0
  191.8960  171.5700  141.6960 C   0  0  1  0  0  3  0  0  0  0  0  0
  191.6730  168.2660  141.6530 C   0  0  0  0  0  1  0  0  0  0  0  0
  193.7370  169.0830  143.5450 C   0  0  2  0  0  3  0  0  0  0  0  0
  193.6320  169.7870  144.8840 C   0  0  0  0  0  1  0  0  0  0  0  0
  195.0550  168.6620  143.3580 O   0  0  0  0  0  1  0  0  0  0  0  0
  189.7940  171.4830  143.1730 C   0  0  0  0  0  2  0  0  0  0  0  0
  189.9080  172.2660  144.3220 O   0  0  0  0  0  1  0  0  0  0  0  0
  186.6350  175.7890  143.4380 C   0  0  0  0  0  2  0  0  0  0  0  0
  185.8680  177.0320  143.7460 C   0  0  0  0  0  0  0  0  0  0  0  0
  186.0690  177.6930  144.9630 C   0  0  0  0  0  3  0  0  0  0  0  0
  184.3960  179.3320  144.3530 C   0  0  0  0  0  3  0  0  0  0  0  0
  184.9260  177.5220  142.8340 C   0  0  0  0  0  3  0  0  0  0  0  0
  184.1900  178.6700  143.1380 C   0  0  0  0  0  3  0  0  0  0  0  0
  185.3340  178.8420  145.2660 C   0  0  0  0  0  3  0  0  0  0  0  0
  1  6  1  0  0  0  0
  2  1  1  0  0  0  0
  2  8  2  0  0  0  0
  3  6  2  0  0  0  0
  3 15  1  0  0  0  0
  6  7  1  0  0  0  0
  7  4  1  0  0  0  0
  7  5  2  0  0  0  0
  8  9  1  0  0  0  0
  9  4  1  0  0  0  0
 10 12  2  0  0  0  0
 11 14  1  0  0  0  0
 13 11  2  0  0  0  0
 13 10  1  0  0  0  0
 14 12  1  0  0  0  0
 15 11  1  0  0  0  0
 16 17  2  0  0  0  0
 17  3  1  0  0  0  0
 18 33  1  1  0  0  0
 18 22  1  0  0  0  0
 18 19  1  0  0  0  0
 19 24  1  6  0  0  0
 19 21  1  0  0  0  0
 20 22  2  0  0  0  0
 21 16  1  0  0  0  0
 22 23  1  0  0  0  0
 23 21  1  0  0  0  0
 24 25  2  0  0  0  0
 26 24  2  0  0  0  0
 27 32  1  6  0  0  0
 27 24  1  0  0  0  0
 28 27  1  0  0  0  0
 28 30  1  0  0  0  0
 29 28  2  0  0  0  0
 31 32  1  0  0  0  0
 33 34  1  0  0  0  0
 35 36  1  0  0  0  0
 35 34  1  0  0  0  0
 37 38  1  0  0  0  0
 38 36  1  0  0  0  0
 39  8  1  0  0  0  0
 40 41  1  0  0  0  0
 40 39  1  0  0  0  0
 41 59  1  0  0  0  0
 42 43  1  0  0  0  0
 42 41  2  0  0  0  0
 44 47  1  0  0  0  0
 45 44  1  0  0  0  0
 45 43  1  0  0  0  0
 46 45  2  0  0  0  0
 47 57  1  1  0  0  0
 48 49  1  0  0  0  0
 48 54  1  1  0  0  0
 50 51  1  0  0  0  0
 50 52  1  0  0  0  0
 51 53  1  1  0  0  0
 51 48  1  0  0  0  0
 52 47  1  1  0  0  0
 52 49  1  0  0  0  0
 54 55  1  1  0  0  0
 56 54  1  0  0  0  0
 57 58  1  0  0  0  0
 59 60  1  0  0  0  0
 60 61  1  0  0  0  0
 61 65  2  0  0  0  0
 62 65  1  0  0  0  0
 63 64  1  0  0  0  0
 63 60  2  0  0  0  0
 64 62  2  0  0  0  0
M  END
>  <MODEL>
7

>  <REMARK>
 VINA RESULT:      -4.7      2.080      3.180
  Name = 
  23 active torsions:
  status: ('A' for Active; 'I' for Inactive)
    1  A    between atoms: C_1  and  C_13
    2  A    between atoms: C_2  and  N_25
    3  A    between atoms: C_3  and  C_62
    4  A    between atoms: S_4  and  C_9
    5  A    between atoms: S_4  and  C_21
    6  A    between atoms: C_6  and  O_63
    7  A    between atoms: N_7  and  CA_49
    8  A    between atoms: C_8  and  C_38
    9  A    between atoms: C_17  and  CA_49
   10  A    between atoms: C_20  and  C_26
   11  A    between atoms: C_21  and  O_30
   12  A    between atoms: C_21  and  C_33
   13  A    between atoms: C_26  and  N_61
   14  A    between atoms: C_31  and  CA_49
   15  A    between atoms: C_32  and  C_44
   16  A    between atoms: C_32  and  C_64
   17  A    between atoms: C_38  and  N_54
   18  A    between atoms: C_39  and  C_47
   19  A    between atoms: C_39  and  O_56
   20  A    between atoms: C_44  and  O_63
   21  A    between atoms: C_47  and  C_62
   22  A    between atoms: C_53  and  O_56
   23  A    between atoms: N_55  and  C_64
                            x       y       z     vdW  Elec       q    Type
                         _______ _______ _______ _____ _____    ______ ____

>  <TORSDO>
F 23

$$$$
=
 OpenBabel11042414183D

 65 69  0  0  1  0  0  0  0  0999 V2000
  193.0150  172.2190  140.6450 C   0  0  0  0  0  2  0  0  0  0  0  0
  192.8430  172.5990  142.0820 C   0  0  0  0  0  3  0  0  0  0  0  0
  191.9330  173.2090  138.6500 C   0  0  0  0  0  0  0  0  0  0  0  0
  190.2920  171.1270  141.4210 N   0  0  0  0  0  2  0  0  0  0  0  0
  189.4200  172.1700  139.5690 O   0  0  0  0  0  0  0  0  0  0  0  0
  191.7870  172.5130  139.8180 C   0  0  0  0  0  0  0  0  0  0  0  0
  190.4580  171.9310  140.2410 C   0  0  0  0  0  0  0  0  0  0  0  0
  192.0590  171.8810  142.8880 C   0  0  0  0  0  0  0  0  0  0  0  0
  191.3390  170.6960  142.3390 C   0  0  0  0  0  2  0  0  0  0  0  0
  190.5590  170.7990  135.2770 C   0  0  0  0  0  3  0  0  0  0  0  0
  190.5090  172.4080  136.6550 C   0  0  0  0  0  0  0  0  0  0  0  0
  189.4310  171.5640  135.0450 C   0  0  0  0  0  3  0  0  0  0  0  0
  191.2450  171.3390  136.3040 N   0  0  0  0  0  0  0  0  0  0  0  0
  189.4400  172.5480  135.9140 O   0  0  0  0  0  0  0  0  0  0  0  0
  190.8280  173.3010  137.7300 N   0  0  0  0  0  2  0  0  0  0  0  0
  193.6160  173.9660  136.9820 C   0  0  0  0  0  3  0  0  0  0  0  0
  193.2240  173.8190  138.2440 C   0  0  0  0  0  3  0  0  0  0  0  0
  197.1880  175.1120  136.6450 C   0  0  1  0  0  3  0  0  0  0  0  0
  196.1640  174.0260  137.0260 C   0  0  1  0  0  3  0  0  0  0  0  0
  196.7840  177.1550  135.3860 O   0  0  0  0  0  0  0  0  0  0  0  0
  194.8640  174.5840  136.6590 N   0  0  0  0  0  0  0  0  0  0  0  0
  196.3400  176.1200  135.9470 C   0  0  0  0  0  0  0  0  0  0  0  0
  194.9680  175.8050  135.9960 N   0  0  0  0  0  2  0  0  0  0  0  0
  196.4640  172.5210  136.1020 S   0  0  0  0  0  0  0  0  0  0  0  0
  197.9380  172.2230  136.0760 O   0  0  0  0  0  0  0  0  0  0  0  0
  195.9870  172.7310  134.6930 O   0  0  0  0  0  0  0  0  0  0  0  0
  195.5660  171.1290  136.7850 C   0  0  2  0  0  3  0  0  0  0  0  0
  196.0070  170.8090  138.1750 C   0  0  0  0  0  0  0  0  0  0  0  0
  195.2540  170.1380  138.9280 O   0  0  0  0  0  1  0  0  0  0  0  0
  197.2600  171.2090  138.6270 O   0  0  0  0  0  0  0  0  0  0  0  0
  194.4360  169.6250  135.6190 C   0  0  0  0  0  1  0  0  0  0  0  0
  195.7340  170.0100  135.9680 O   0  0  0  0  0  0  0  0  0  0  0  0
  197.6970  175.6770  137.8160 O   0  0  0  0  0  0  0  0  0  0  0  0
  197.8630  174.6090  138.7010 C   0  0  0  0  0  2  0  0  0  0  0  0
  197.5270  175.0730  140.1030 C   0  0  0  0  0  2  0  0  0  0  0  0
  196.3460  174.2930  140.6500 C   0  0  0  0  0  2  0  0  0  0  0  0
  195.0090  176.0310  140.1270 O   0  0  0  0  0  1  0  0  0  0  0  0
  195.3350  175.2080  141.1520 N   0  0  0  0  0  2  0  0  0  0  0  0
  191.8880  172.2070  144.2370 O   0  0  0  0  0  0  0  0  0  0  0  0
  192.9020  172.8280  145.0210 C   0  0  0  0  0  2  0  0  0  0  0  0
  192.8050  174.3130  144.8880 C   0  0  0  0  0  0  0  0  0  0  0  0
  191.6430  174.8740  144.9430 N   0  0  0  0  0  0  0  0  0  0  0  0
  191.4530  176.3020  144.8510 C   0  0  0  0  0  2  0  0  0  0  0  0
  189.0170  176.8180  145.4580 N   0  0  0  0  0  2  0  0  0  0  0  0
  190.4010  176.7370  145.8220 C   0  0  0  0  0  0  0  0  0  0  0  0
  190.7470  177.0770  146.9840 O   0  0  0  0  0  0  0  0  0  0  0  0
  188.4040  176.3930  144.1980 C   0  0  2  0  0  3  0  0  0  0  0  0
  185.2250  177.6740  145.1190 C   0  0  2  0  0  3  0  0  0  0  0  0
  186.4600  177.0870  145.4400 O   0  0  0  0  0  0  0  0  0  0  0  0
  186.2620  177.2050  143.0660 C   0  0  0  0  0  2  0  0  0  0  0  0
  185.3080  178.1800  143.6840 C   0  0  2  0  0  3  0  0  0  0  0  0
  186.8760  176.4680  144.2500 C   0  0  1  0  0  3  0  0  0  0  0  0
  185.9220  179.5700  143.5890 C   0  0  0  0  0  1  0  0  0  0  0  0
  184.8120  178.7300  146.1510 C   0  0  2  0  0  3  0  0  0  0  0  0
  185.9240  178.9470  147.1600 C   0  0  0  0  0  1  0  0  0  0  0  0
  183.6660  178.3070  146.8270 O   0  0  0  0  0  1  0  0  0  0  0  0
  188.9520  175.0610  143.6860 C   0  0  0  0  0  2  0  0  0  0  0  0
  189.2350  175.1580  142.3230 O   0  0  0  0  0  1  0  0  0  0  0  0
  194.0700  175.1110  144.7490 C   0  0  0  0  0  2  0  0  0  0  0  0
  195.2680  174.2400  144.9350 C   0  0  0  0  0  0  0  0  0  0  0  0
  195.6230  173.3190  143.9430 C   0  0  0  0  0  3  0  0  0  0  0  0
  197.4800  172.5660  145.3010 C   0  0  0  0  0  3  0  0  0  0  0  0
  196.0200  174.3190  146.1130 C   0  0  0  0  0  3  0  0  0  0  0  0
  197.1240  173.4820  146.2960 C   0  0  0  0  0  3  0  0  0  0  0  0
  196.7280  172.4840  144.1250 C   0  0  0  0  0  3  0  0  0  0  0  0
  1  2  1  0  0  0  0
  2  8  2  0  0  0  0
  3  6  2  0  0  0  0
  4  9  1  0  0  0  0
  5  7  2  0  0  0  0
  6  7  1  0  0  0  0
  6  1  1  0  0  0  0
  7  4  1  0  0  0  0
  8 39  1  0  0  0  0
  9  8  1  0  0  0  0
 10 13  1  0  0  0  0
 11 15  1  0  0  0  0
 12 10  2  0  0  0  0
 12 14  1  0  0  0  0
 13 11  2  0  0  0  0
 14 11  1  0  0  0  0
 15  3  1  0  0  0  0
 16 17  2  0  0  0  0
 17  3  1  0  0  0  0
 18 19  1  0  0  0  0
 18 33  1  1  0  0  0
 19 24  1  6  0  0  0
 20 22  2  0  0  0  0
 21 16  1  0  0  0  0
 21 19  1  0  0  0  0
 22 23  1  0  0  0  0
 22 18  1  0  0  0  0
 23 21  1  0  0  0  0
 24 27  1  0  0  0  0
 25 24  2  0  0  0  0
 26 24  2  0  0  0  0
 27 32  1  6  0  0  0
 27 28  1  0  0  0  0
 28 30  2  0  0  0  0
 28 29  1  0  0  0  0
 31 32  1  0  0  0  0
 33 34  1  0  0  0  0
 34 35  1  0  0  0  0
 35 36  1  0  0  0  0
 36 38  1  0  0  0  0
 37 38  1  0  0  0  0
 39 40  1  0  0  0  0
 41 42  2  0  0  0  0
 41 40  1  0  0  0  0
 43 42  1  0  0  0  0
 43 45  1  0  0  0  0
 44 45  1  0  0  0  0
 45 46  2  0  0  0  0
 47 57  1  1  0  0  0
 47 44  1  0  0  0  0
 48 49  1  0  0  0  0
 48 54  1  1  0  0  0
 50 51  1  0  0  0  0
 50 52  1  0  0  0  0
 51 53  1  1  0  0  0
 51 48  1  0  0  0  0
 52 47  1  6  0  0  0
 52 49  1  0  0  0  0
 54 56  1  0  0  0  0
 54 55  1  1  0  0  0
 58 57  1  0  0  0  0
 59 41  1  0  0  0  0
 59 60  1  0  0  0  0
 60 63  1  0  0  0  0
 61 65  1  0  0  0  0
 61 60  2  0  0  0  0
 62 64  1  0  0  0  0
 63 64  2  0  0  0  0
 65 62  2  0  0  0  0
M  END
>  <MODEL>
8

>  <REMARK>
 VINA RESULT:      -4.7      2.492      7.564
  Name = 
  23 active torsions:
  status: ('A' for Active; 'I' for Inactive)
    1  A    between atoms: C_1  and  C_13
    2  A    between atoms: C_2  and  N_25
    3  A    between atoms: C_3  and  C_62
    4  A    between atoms: S_4  and  C_9
    5  A    between atoms: S_4  and  C_21
    6  A    between atoms: C_6  and  O_63
    7  A    between atoms: N_7  and  CA_49
    8  A    between atoms: C_8  and  C_38
    9  A    between atoms: C_17  and  CA_49
   10  A    between atoms: C_20  and  C_26
   11  A    between atoms: C_21  and  O_30
   12  A    between atoms: C_21  and  C_33
   13  A    between atoms: C_26  and  N_61
   14  A    between atoms: C_31  and  CA_49
   15  A    between atoms: C_32  and  C_44
   16  A    between atoms: C_32  and  C_64
   17  A    between atoms: C_38  and  N_54
   18  A    between atoms: C_39  and  C_47
   19  A    between atoms: C_39  and  O_56
   20  A    between atoms: C_44  and  O_63
   21  A    between atoms: C_47  and  C_62
   22  A    between atoms: C_53  and  O_56
   23  A    between atoms: N_55  and  C_64
                            x       y       z     vdW  Elec       q    Type
                         _______ _______ _______ _____ _____    ______ ____

>  <TORSDO>
F 23

$$$$
=
 OpenBabel11042414183D

 65 69  0  0  1  0  0  0  0  0999 V2000
  188.0510  176.6040  141.6000 C   0  0  0  0  0  2  0  0  0  0  0  0
  187.8160  175.6980  140.4330 C   0  0  0  0  0  3  0  0  0  0  0  0
  186.7900  176.7320  143.7280 C   0  0  0  0  0  0  0  0  0  0  0  0
  185.5900  177.7270  140.2240 N   0  0  0  0  0  2  0  0  0  0  0  0
  184.5260  177.7120  142.2600 O   0  0  0  0  0  0  0  0  0  0  0  0
  186.7850  176.8960  142.3710 C   0  0  0  0  0  0  0  0  0  0  0  0
  185.5940  177.4680  141.6380 C   0  0  0  0  0  0  0  0  0  0  0  0
  187.1880  176.1410  139.3420 C   0  0  0  0  0  0  0  0  0  0  0  0
  186.7040  177.5510  139.3010 C   0  0  0  0  0  2  0  0  0  0  0  0
  186.3930  178.4120  147.7400 C   0  0  0  0  0  3  0  0  0  0  0  0
  185.7210  177.7540  145.8410 C   0  0  0  0  0  0  0  0  0  0  0  0
  185.0370  178.6560  147.6250 C   0  0  0  0  0  3  0  0  0  0  0  0
  186.8270  177.8360  146.6010 N   0  0  0  0  0  0  0  0  0  0  0  0
  184.6620  178.2320  146.4400 O   0  0  0  0  0  0  0  0  0  0  0  0
  185.6840  177.2220  144.5110 N   0  0  0  0  0  2  0  0  0  0  0  0
  189.1670  176.6460  144.4580 C   0  0  0  0  0  3  0  0  0  0  0  0
  187.9400  176.1330  144.4530 C   0  0  0  0  0  3  0  0  0  0  0  0
  192.1470  174.7260  145.7310 C   0  0  1  0  0  3  0  0  0  0  0  0
  191.3940  175.4120  144.5750 C   0  0  1  0  0  3  0  0  0  0  0  0
  191.6970  174.9190  148.1150 O   0  0  0  0  0  0  0  0  0  0  0  0
  190.2250  176.0300  145.1960 N   0  0  0  0  0  0  0  0  0  0  0  0
  191.3780  175.1780  146.9260 C   0  0  0  0  0  0  0  0  0  0  0  0
  190.2290  175.9190  146.5850 N   0  0  0  0  0  2  0  0  0  0  0  0
  192.4160  176.6710  143.8130 S   0  0  0  0  0  0  0  0  0  0  0  0
  192.9160  177.6260  144.8620 O   0  0  0  0  0  0  0  0  0  0  0  0
  191.5720  177.4310  142.8300 O   0  0  0  0  0  0  0  0  0  0  0  0
  193.7950  175.9590  142.9200 C   0  0  2  0  0  3  0  0  0  0  0  0
  193.3420  175.1140  141.7750 C   0  0  0  0  0  0  0  0  0  0  0  0
  193.7520  175.3690  140.6130 O   0  0  0  0  0  0  0  0  0  0  0  0
  192.5080  174.0230  141.9910 O   0  0  0  0  0  1  0  0  0  0  0  0
  195.8660  175.2510  143.2450 C   0  0  0  0  0  1  0  0  0  0  0  0
  194.5790  175.1960  143.7870 O   0  0  0  0  0  0  0  0  0  0  0  0
  192.0090  173.3430  145.5960 O   0  0  0  0  0  0  0  0  0  0  0  0
  193.2720  172.8790  145.2210 C   0  0  0  0  0  2  0  0  0  0  0  0
  193.1080  171.7570  144.2190 C   0  0  0  0  0  2  0  0  0  0  0  0
  193.8500  170.5180  144.6860 C   0  0  0  0  0  2  0  0  0  0  0  0
  195.2140  170.1220  146.4360 O   0  0  0  0  0  1  0  0  0  0  0  0
  195.0960  170.8970  145.3310 N   0  0  0  0  0  2  0  0  0  0  0  0
  186.9640  175.3200  138.2330 O   0  0  0  0  0  0  0  0  0  0  0  0
  187.7210  175.4140  137.0310 C   0  0  0  0  0  2  0  0  0  0  0  0
  188.6200  174.2270  136.9070 C   0  0  0  0  0  0  0  0  0  0  0  0
  188.6500  173.3580  137.8620 N   0  0  0  0  0  0  0  0  0  0  0  0
  189.4660  172.1690  137.8190 C   0  0  0  0  0  2  0  0  0  0  0  0
  191.6150  171.3580  138.9560 N   0  0  0  0  0  2  0  0  0  0  0  0
  190.4410  172.1810  138.9530 C   0  0  0  0  0  0  0  0  0  0  0  0
  190.2040  172.9090  139.9520 O   0  0  0  0  0  0  0  0  0  0  0  0
  192.1100  170.5140  137.8670 C   0  0  2  0  0  3  0  0  0  0  0  0
  195.5380  170.2930  138.7630 C   0  0  2  0  0  3  0  0  0  0  0  0
  194.5160  170.6470  137.8660 O   0  0  0  0  0  0  0  0  0  0  0  0
  193.5490  169.4720  139.7030 C   0  0  0  0  0  2  0  0  0  0  0  0
  194.8930  169.9950  140.1110 C   0  0  2  0  0  3  0  0  0  0  0  0
  193.4310  169.8300  138.2270 C   0  0  1  0  0  3  0  0  0  0  0  0
  194.6790  171.2490  140.9470 C   0  0  0  0  0  1  0  0  0  0  0  0
  196.6510  171.3470  138.8000 C   0  0  2  0  0  3  0  0  0  0  0  0
  197.0170  171.7790  137.3930 C   0  0  0  0  0  1  0  0  0  0  0  0
  197.7840  170.8150  139.4180 O   0  0  0  0  0  1  0  0  0  0  0  0
  192.1170  171.2240  136.5150 C   0  0  0  0  0  2  0  0  0  0  0  0
  191.6500  170.3610  135.5230 O   0  0  0  0  0  1  0  0  0  0  0  0
  189.4200  174.0550  135.6460 C   0  0  0  0  0  2  0  0  0  0  0  0
  190.5700  175.0060  135.6150 C   0  0  0  0  0  0  0  0  0  0  0  0
  191.7060  174.7550  136.3930 C   0  0  0  0  0  3  0  0  0  0  0  0
  192.7060  176.8120  135.6030 C   0  0  0  0  0  3  0  0  0  0  0  0
  190.5030  176.1650  134.8340 C   0  0  0  0  0  3  0  0  0  0  0  0
  191.5690  177.0680  134.8290 C   0  0  0  0  0  3  0  0  0  0  0  0
  192.7730  175.6560  136.3860 C   0  0  0  0  0  3  0  0  0  0  0  0
  1  6  1  0  0  0  0
  2  1  1  0  0  0  0
  3 17  1  0  0  0  0
  3 15  1  0  0  0  0
  4  7  1  0  0  0  0
  6  3  2  0  0  0  0
  7  5  2  0  0  0  0
  7  6  1  0  0  0  0
  8  2  2  0  0  0  0
  9  8  1  0  0  0  0
  9  4  1  0  0  0  0
 11 14  1  0  0  0  0
 11 13  2  0  0  0  0
 12 10  2  0  0  0  0
 13 10  1  0  0  0  0
 14 12  1  0  0  0  0
 15 11  1  0  0  0  0
 16 21  1  0  0  0  0
 17 16  2  0  0  0  0
 18 33  1  6  0  0  0
 18 22  1  0  0  0  0
 19 24  1  1  0  0  0
 19 21  1  0  0  0  0
 19 18  1  0  0  0  0
 21 23  1  0  0  0  0
 22 20  2  0  0  0  0
 23 22  1  0  0  0  0
 24 25  2  0  0  0  0
 26 24  2  0  0  0  0
 27 28  1  6  0  0  0
 27 32  1  0  0  0  0
 27 24  1  0  0  0  0
 28 30  1  0  0  0  0
 29 28  2  0  0  0  0
 31 32  1  0  0  0  0
 34 33  1  0  0  0  0
 35 36  1  0  0  0  0
 35 34  1  0  0  0  0
 36 38  1  0  0  0  0
 38 37  1  0  0  0  0
 39  8  1  0  0  0  0
 40 39  1  0  0  0  0
 41 40  1  0  0  0  0
 41 42  2  0  0  0  0
 43 42  1  0  0  0  0
 43 45  1  0  0  0  0
 45 44  1  0  0  0  0
 45 46  2  0  0  0  0
 47 57  1  6  0  0  0
 47 44  1  0  0  0  0
 48 54  1  1  0  0  0
 48 51  1  0  0  0  0
 49 52  1  0  0  0  0
 49 48  1  0  0  0  0
 50 51  1  0  0  0  0
 51 53  1  1  0  0  0
 52 47  1  1  0  0  0
 52 50  1  0  0  0  0
 54 55  1  6  0  0  0
 54 56  1  0  0  0  0
 58 57  1  0  0  0  0
 59 41  1  0  0  0  0
 60 59  1  0  0  0  0
 60 61  1  0  0  0  0
 62 65  1  0  0  0  0
 63 60  2  0  0  0  0
 64 63  1  0  0  0  0
 64 62  2  0  0  0  0
 65 61  2  0  0  0  0
M  END
>  <MODEL>
9

>  <REMARK>
 VINA RESULT:      -4.3      2.518      8.809
  Name = 
  23 active torsions:
  status: ('A' for Active; 'I' for Inactive)
    1  A    between atoms: C_1  and  C_13
    2  A    between atoms: C_2  and  N_25
    3  A    between atoms: C_3  and  C_62
    4  A    between atoms: S_4  and  C_9
    5  A    between atoms: S_4  and  C_21
    6  A    between atoms: C_6  and  O_63
    7  A    between atoms: N_7  and  CA_49
    8  A    between atoms: C_8  and  C_38
    9  A    between atoms: C_17  and  CA_49
   10  A    between atoms: C_20  and  C_26
   11  A    between atoms: C_21  and  O_30
   12  A    between atoms: C_21  and  C_33
   13  A    between atoms: C_26  and  N_61
   14  A    between atoms: C_31  and  CA_49
   15  A    between atoms: C_32  and  C_44
   16  A    between atoms: C_32  and  C_64
   17  A    between atoms: C_38  and  N_54
   18  A    between atoms: C_39  and  C_47
   19  A    between atoms: C_39  and  O_56
   20  A    between atoms: C_44  and  O_63
   21  A    between atoms: C_47  and  C_62
   22  A    between atoms: C_53  and  O_56
   23  A    between atoms: N_55  and  C_64
                            x       y       z     vdW  Elec       q    Type
                         _______ _______ _______ _____ _____    ______ ____

>  <TORSDO>
F 23

$$$$
