=
 OpenBabel11042418393D

 34 35  0  0  1  0  0  0  0  0999 V2000
  191.6930  178.3450  143.5580 C   0  0  0  0  0  1  0  0  0  0  0  0
  191.5190  176.8430  143.4190 C   0  0  1  0  0  3  0  0  0  0  0  0
  193.5230  175.7380  144.4440 C   0  0  0  0  0  0  0  0  0  0  0  0
  192.8520  174.7380  146.5560 C   0  0  0  0  0  2  0  0  0  0  0  0
  191.4210  175.7340  146.0300 S   0  0  0  0  0  0  0  0  0  0  0  0
  194.0400  175.0070  145.6370 C   0  0  1  0  0  3  0  0  0  0  0  0
  192.2470  176.1040  144.5040 C   0  0  0  0  0  0  0  0  0  0  0  0
  194.3500  176.0700  143.3220 N   0  0  0  0  0  2  0  0  0  0  0  0
  195.4250  176.6870  143.4630 O   0  0  0  0  0  1  0  0  0  0  0  0
  194.6760  173.6870  145.2120 C   0  0  0  0  0  2  0  0  0  0  0  0
  193.6820  172.5290  145.2710 C   0  0  2  0  0  3  0  0  0  0  0  0
  194.3720  171.2760  145.7770 C   0  0  0  0  0  1  0  0  0  0  0  0
  192.9970  172.2850  143.9230 C   0  0  0  0  0  2  0  0  0  0  0  0
  192.0030  171.1300  143.9530 C   0  0  0  0  0  2  0  0  0  0  0  0
  190.8790  171.4130  143.0760 N   0  0  0  0  0  2  0  0  0  0  0  0
  188.6070  172.2640  142.6640 N   0  0  0  0  0  1  0  0  0  0  0  0
  189.7120  172.0910  143.5400 C   0  0  0  0  0  0  0  0  0  0  0  0
  189.6520  172.5370  144.7170 O   0  0  0  0  0  0  0  0  0  0  0  0
  190.1080  176.4980  143.4130 N   0  0  0  0  0  2  0  0  0  0  0  0
  189.3660  177.7440  143.2710 C   0  0  0  0  0  2  0  0  0  0  0  0
  187.9620  177.6220  143.8580 C   0  0  1  0  0  3  0  0  0  0  0  0
  184.9980  178.0390  140.8620 N   0  0  0  0  0  0  0  0  0  0  0  0
  186.9090  177.7470  142.8000 C   0  0  0  0  0  0  0  0  0  0  0  0
  186.2280  177.5630  140.5410 C   0  0  0  0  0  0  0  0  0  0  0  0
  187.1760  177.4260  141.5040 N   0  0  0  0  0  0  0  0  0  0  0  0
  184.6950  178.3800  142.1420 C   0  0  0  0  0  3  0  0  0  0  0  0
  185.6520  178.2450  143.1440 C   0  0  0  0  0  3  0  0  0  0  0  0
  186.5290  177.2250  139.1940 N   0  0  0  0  0  1  0  0  0  0  0  0
  187.7850  176.3570  144.6890 C   0  0  0  0  0  2  0  0  0  0  0  0
  187.7720  176.6920  146.1710 C   0  0  0  0  0  2  0  0  0  0  0  0
  186.3500  176.9750  146.6110 C   0  0  0  0  0  2  0  0  0  0  0  0
  186.2700  178.3300  147.2940 C   0  0  0  0  0  2  0  0  0  0  0  0
  185.3030  179.1240  146.6710 O   0  0  0  0  0  0  0  0  0  0  0  0
  184.2120  178.2730  146.5030 C   0  0  0  0  0  1  0  0  0  0  0  0
  2  1  1  1  0  0  0
  2  7  1  0  0  0  0
  3  7  2  0  0  0  0
  3  6  1  0  0  0  0
  5  4  1  0  0  0  0
  6 10  1  6  0  0  0
  6  4  1  0  0  0  0
  7  5  1  0  0  0  0
  8  9  1  0  0  0  0
  8  3  1  0  0  0  0
 10 11  1  0  0  0  0
 11 12  1  6  0  0  0
 13 14  1  0  0  0  0
 13 11  1  0  0  0  0
 15 17  1  0  0  0  0
 15 14  1  0  0  0  0
 16 17  1  0  0  0  0
 17 18  2  0  0  0  0
 19  2  1  0  0  0  0
 20 19  1  0  0  0  0
 21 20  1  6  0  0  0
 21 29  1  0  0  0  0
 22 26  1  0  0  0  0
 23 27  1  0  0  0  0
 23 21  1  0  0  0  0
 24 22  2  0  0  0  0
 24 25  1  0  0  0  0
 25 23  2  0  0  0  0
 26 27  2  0  0  0  0
 28 24  1  0  0  0  0
 29 30  1  0  0  0  0
 30 31  1  0  0  0  0
 31 32  1  0  0  0  0
 33 32  1  0  0  0  0
 34 33  1  0  0  0  0
M  END
>  <MODEL>
1

>  <REMARK>
 VINA RESULT:      -5.7      0.000      0.000
  Name = 
  16 active torsions:
  status: ('A' for Active; 'I' for Inactive)
    1  A    between atoms: C_1  and  C_9
    2  A    between atoms: C_1  and  C_21
    3  A    between atoms: C_2  and  C_3
    4  A    between atoms: C_2  and  N_4
    5  A    between atoms: C_3  and  C_29
    6  A    between atoms: C_6  and  C_15
    7  A    between atoms: C_6  and  C_29
    8  A    between atoms: C_7  and  N_12
    9  A    between atoms: O_8  and  C_27
   10  A    between atoms: C_9  and  C_31
   11  A    between atoms: C_13  and  C_21
   12  A    between atoms: C_21  and  C_32
   13  A    between atoms: C_23  and  C_25
   14  A    between atoms: C_23  and  N_33
   15  A    between atoms: C_27  and  C_31
   16  A    between atoms: C_32  and  N_33
                            x       y       z     vdW  Elec       q    Type
                         _______ _______ _______ _____ _____    ______ ____

>  <TORSDO>
F 16

$$$$
=
 OpenBabel11042418393D

 34 35  0  0  1  0  0  0  0  0999 V2000
  187.9740  173.0550  141.7860 C   0  0  0  0  0  1  0  0  0  0  0  0
  188.7850  174.2040  142.3570 C   0  0  1  0  0  3  0  0  0  0  0  0
  190.6800  173.3320  143.7490 C   0  0  0  0  0  0  0  0  0  0  0  0
  192.7230  173.4710  142.4380 C   0  0  0  0  0  2  0  0  0  0  0  0
  191.3840  173.8620  141.2680 S   0  0  0  0  0  0  0  0  0  0  0  0
  192.1350  173.0000  143.7650 C   0  0  1  0  0  3  0  0  0  0  0  0
  190.2120  173.8020  142.5980 C   0  0  0  0  0  0  0  0  0  0  0  0
  189.8260  173.1180  144.8800 N   0  0  0  0  0  2  0  0  0  0  0  0
  189.4450  171.9750  145.2030 O   0  0  0  0  0  1  0  0  0  0  0  0
  192.8270  173.7140  144.9220 C   0  0  0  0  0  2  0  0  0  0  0  0
  194.3460  173.7110  144.7690 C   0  0  2  0  0  3  0  0  0  0  0  0
  194.8960  172.3300  145.0760 C   0  0  0  0  0  1  0  0  0  0  0  0
  195.0170  174.7850  145.6290 C   0  0  0  0  0  2  0  0  0  0  0  0
  195.1320  176.1330  144.9270 C   0  0  0  0  0  2  0  0  0  0  0  0
  195.2300  175.9440  143.4900 N   0  0  0  0  0  2  0  0  0  0  0  0
  196.2910  176.3690  141.3100 N   0  0  0  0  0  1  0  0  0  0  0  0
  196.2920  176.5110  142.7240 C   0  0  0  0  0  0  0  0  0  0  0  0
  197.2290  177.1380  143.2880 O   0  0  0  0  0  0  0  0  0  0  0  0
  188.7130  175.3580  141.4780 N   0  0  0  0  0  2  0  0  0  0  0  0
  188.9690  176.5340  142.2980 C   0  0  0  0  0  2  0  0  0  0  0  0
  187.9210  176.6780  143.4000 C   0  0  1  0  0  3  0  0  0  0  0  0
  189.6910  177.2480  147.2030 N   0  0  0  0  0  0  0  0  0  0  0  0
  188.5540  176.9010  144.7380 C   0  0  0  0  0  0  0  0  0  0  0  0
  190.4580  176.8840  146.1440 C   0  0  0  0  0  0  0  0  0  0  0  0
  189.8880  176.7060  144.9230 N   0  0  0  0  0  0  0  0  0  0  0  0
  188.3540  177.4410  147.0630 C   0  0  0  0  0  3  0  0  0  0  0  0
  187.7520  177.2650  145.8200 C   0  0  0  0  0  3  0  0  0  0  0  0
  191.8530  176.6740  146.3150 N   0  0  0  0  0  1  0  0  0  0  0  0
  186.8800  177.7450  143.0790 C   0  0  0  0  0  2  0  0  0  0  0  0
  185.5260  177.1050  142.8230 C   0  0  0  0  0  2  0  0  0  0  0  0
  184.4310  178.1160  143.0990 C   0  0  0  0  0  2  0  0  0  0  0  0
  184.8270  179.0190  144.2560 C   0  0  0  0  0  2  0  0  0  0  0  0
  183.8070  179.0500  145.2090 O   0  0  0  0  0  0  0  0  0  0  0  0
  184.2680  178.2280  146.2370 C   0  0  0  0  0  1  0  0  0  0  0  0
  2  1  1  6  0  0  0
  2  7  1  0  0  0  0
  3  6  1  0  0  0  0
  3  8  1  0  0  0  0
  4  6  1  0  0  0  0
  5  4  1  0  0  0  0
  5  7  1  0  0  0  0
  6 10  1  1  0  0  0
  7  3  2  0  0  0  0
  8  9  1  0  0  0  0
 11 10  1  0  0  0  0
 11 12  1  1  0  0  0
 11 13  1  0  0  0  0
 14 13  1  0  0  0  0
 15 14  1  0  0  0  0
 16 17  1  0  0  0  0
 17 18  2  0  0  0  0
 17 15  1  0  0  0  0
 19 20  1  0  0  0  0
 19  2  1  0  0  0  0
 21 20  1  6  0  0  0
 21 23  1  0  0  0  0
 23 25  2  0  0  0  0
 23 27  1  0  0  0  0
 24 28  1  0  0  0  0
 24 22  2  0  0  0  0
 25 24  1  0  0  0  0
 26 22  1  0  0  0  0
 27 26  2  0  0  0  0
 29 21  1  0  0  0  0
 30 29  1  0  0  0  0
 30 31  1  0  0  0  0
 31 32  1  0  0  0  0
 32 33  1  0  0  0  0
 33 34  1  0  0  0  0
M  END
>  <MODEL>
2

>  <REMARK>
 VINA RESULT:      -5.7      2.158      5.117
  Name = 
  16 active torsions:
  status: ('A' for Active; 'I' for Inactive)
    1  A    between atoms: C_1  and  C_9
    2  A    between atoms: C_1  and  C_21
    3  A    between atoms: C_2  and  C_3
    4  A    between atoms: C_2  and  N_4
    5  A    between atoms: C_3  and  C_29
    6  A    between atoms: C_6  and  C_15
    7  A    between atoms: C_6  and  C_29
    8  A    between atoms: C_7  and  N_12
    9  A    between atoms: O_8  and  C_27
   10  A    between atoms: C_9  and  C_31
   11  A    between atoms: C_13  and  C_21
   12  A    between atoms: C_21  and  C_32
   13  A    between atoms: C_23  and  C_25
   14  A    between atoms: C_23  and  N_33
   15  A    between atoms: C_27  and  C_31
   16  A    between atoms: C_32  and  N_33
                            x       y       z     vdW  Elec       q    Type
                         _______ _______ _______ _____ _____    ______ ____

>  <TORSDO>
F 16

$$$$
=
 OpenBabel11042418393D

 34 35  0  0  1  0  0  0  0  0999 V2000
  193.6610  176.5200  144.9550 C   0  0  0  0  0  1  0  0  0  0  0  0
  192.4110  176.2900  145.7830 C   0  0  1  0  0  3  0  0  0  0  0  0
  190.0550  177.1430  145.6860 C   0  0  0  0  0  0  0  0  0  0  0  0
  189.4280  177.4040  143.3510 C   0  0  0  0  0  2  0  0  0  0  0  0
  191.2140  177.0490  143.3240 S   0  0  0  0  0  0  0  0  0  0  0  0
  188.9610  177.6170  144.7880 C   0  0  1  0  0  3  0  0  0  0  0  0
  191.1850  176.7970  145.0800 C   0  0  0  0  0  0  0  0  0  0  0  0
  189.9210  177.1020  147.1120 N   0  0  0  0  0  2  0  0  0  0  0  0
  189.7100  178.1370  147.7770 O   0  0  0  0  0  1  0  0  0  0  0  0
  187.6860  176.8180  145.0430 C   0  0  0  0  0  2  0  0  0  0  0  0
  186.6040  177.6660  145.7070 C   0  0  2  0  0  3  0  0  0  0  0  0
  185.4950  176.7740  146.2340 C   0  0  0  0  0  1  0  0  0  0  0  0
  186.0560  178.7450  144.7690 C   0  0  0  0  0  2  0  0  0  0  0  0
  184.7280  178.3650  144.1240 C   0  0  0  0  0  2  0  0  0  0  0  0
  184.7570  178.6620  142.7020 N   0  0  0  0  0  2  0  0  0  0  0  0
  185.5290  178.2240  140.4070 N   0  0  0  0  0  1  0  0  0  0  0  0
  185.4610  177.8390  141.7720 C   0  0  0  0  0  0  0  0  0  0  0  0
  186.0220  176.7760  142.1510 O   0  0  0  0  0  0  0  0  0  0  0  0
  192.2760  174.8810  146.1100 N   0  0  0  0  0  2  0  0  0  0  0  0
  193.0760  174.1420  145.1430 C   0  0  0  0  0  2  0  0  0  0  0  0
  192.2380  173.0900  144.4200 C   0  0  1  0  0  3  0  0  0  0  0  0
  194.0200  169.2550  144.6300 N   0  0  0  0  0  0  0  0  0  0  0  0
  192.8800  171.7390  144.4750 C   0  0  0  0  0  0  0  0  0  0  0  0
  192.9660  169.4710  143.8020 C   0  0  0  0  0  0  0  0  0  0  0  0
  192.3990  170.7030  143.7330 N   0  0  0  0  0  0  0  0  0  0  0  0
  194.5230  170.2580  145.3950 C   0  0  0  0  0  3  0  0  0  0  0  0
  193.9560  171.5290  145.3370 C   0  0  0  0  0  3  0  0  0  0  0  0
  192.4460  168.4040  143.0200 N   0  0  0  0  0  1  0  0  0  0  0  0
  190.7960  173.0540  144.9120 C   0  0  0  0  0  2  0  0  0  0  0  0
  189.8560  173.5800  143.8410 C   0  0  0  0  0  2  0  0  0  0  0  0
  189.2640  172.4140  143.0740 C   0  0  0  0  0  2  0  0  0  0  0  0
  189.1380  172.7630  141.6000 C   0  0  0  0  0  2  0  0  0  0  0  0
  189.4730  174.1040  141.3960 O   0  0  0  0  0  0  0  0  0  0  0  0
  188.4390  174.6030  140.6050 C   0  0  0  0  0  1  0  0  0  0  0  0
  2  1  1  6  0  0  0
  2 19  1  0  0  0  0
  3  8  1  0  0  0  0
  4  6  1  0  0  0  0
  5  4  1  0  0  0  0
  5  7  1  0  0  0  0
  6 10  1  1  0  0  0
  6  3  1  0  0  0  0
  7  3  2  0  0  0  0
  7  2  1  0  0  0  0
  8  9  1  0  0  0  0
 10 11  1  0  0  0  0
 11 12  1  6  0  0  0
 13 11  1  0  0  0  0
 14 13  1  0  0  0  0
 15 14  1  0  0  0  0
 16 17  1  0  0  0  0
 17 18  2  0  0  0  0
 17 15  1  0  0  0  0
 20 19  1  0  0  0  0
 21 23  1  0  0  0  0
 21 29  1  1  0  0  0
 21 20  1  0  0  0  0
 22 26  1  0  0  0  0
 23 27  1  0  0  0  0
 24 22  2  0  0  0  0
 25 24  1  0  0  0  0
 25 23  2  0  0  0  0
 27 26  2  0  0  0  0
 28 24  1  0  0  0  0
 30 29  1  0  0  0  0
 31 30  1  0  0  0  0
 32 31  1  0  0  0  0
 33 32  1  0  0  0  0
 34 33  1  0  0  0  0
M  END
>  <MODEL>
3

>  <REMARK>
 VINA RESULT:      -5.6      2.360      7.869
  Name = 
  16 active torsions:
  status: ('A' for Active; 'I' for Inactive)
    1  A    between atoms: C_1  and  C_9
    2  A    between atoms: C_1  and  C_21
    3  A    between atoms: C_2  and  C_3
    4  A    between atoms: C_2  and  N_4
    5  A    between atoms: C_3  and  C_29
    6  A    between atoms: C_6  and  C_15
    7  A    between atoms: C_6  and  C_29
    8  A    between atoms: C_7  and  N_12
    9  A    between atoms: O_8  and  C_27
   10  A    between atoms: C_9  and  C_31
   11  A    between atoms: C_13  and  C_21
   12  A    between atoms: C_21  and  C_32
   13  A    between atoms: C_23  and  C_25
   14  A    between atoms: C_23  and  N_33
   15  A    between atoms: C_27  and  C_31
   16  A    between atoms: C_32  and  N_33
                            x       y       z     vdW  Elec       q    Type
                         _______ _______ _______ _____ _____    ______ ____

>  <TORSDO>
F 16

$$$$
=
 OpenBabel11042418393D

 34 35  0  0  1  0  0  0  0  0999 V2000
  189.6280  173.6200  145.2990 C   0  0  0  0  0  1  0  0  0  0  0  0
  190.5540  174.7630  144.9250 C   0  0  1  0  0  3  0  0  0  0  0  0
  192.9350  174.5230  145.6760 C   0  0  0  0  0  0  0  0  0  0  0  0
  194.1880  173.4150  143.9110 C   0  0  0  0  0  2  0  0  0  0  0  0
  192.4460  173.2990  143.3960 S   0  0  0  0  0  0  0  0  0  0  0  0
  194.2770  173.9690  145.3310 C   0  0  1  0  0  3  0  0  0  0  0  0
  191.9740  174.2960  144.7860 C   0  0  0  0  0  0  0  0  0  0  0  0
  192.6770  175.2150  146.9040 N   0  0  0  0  0  2  0  0  0  0  0  0
  192.6900  176.4620  146.9650 O   0  0  0  0  0  1  0  0  0  0  0  0
  195.3330  175.0680  145.3930 C   0  0  0  0  0  2  0  0  0  0  0  0
  196.1730  175.1250  144.1190 C   0  0  2  0  0  3  0  0  0  0  0  0
  197.5390  174.5110  144.3690 C   0  0  0  0  0  1  0  0  0  0  0  0
  196.2920  176.5490  143.5680 C   0  0  0  0  0  2  0  0  0  0  0  0
  196.2810  176.6080  142.0450 C   0  0  0  0  0  2  0  0  0  0  0  0
  195.1050  175.9300  141.5250 N   0  0  0  0  0  2  0  0  0  0  0  0
  193.8510  174.8420  139.7080 N   0  0  0  0  0  1  0  0  0  0  0  0
  195.0560  175.4180  140.1940 C   0  0  0  0  0  0  0  0  0  0  0  0
  196.0680  175.4720  139.4450 O   0  0  0  0  0  0  0  0  0  0  0  0
  190.0970  175.4040  143.7040 N   0  0  0  0  0  2  0  0  0  0  0  0
  188.6750  175.6720  143.8720 C   0  0  0  0  0  2  0  0  0  0  0  0
  188.3890  177.1720  143.8480 C   0  0  1  0  0  3  0  0  0  0  0  0
  185.5530  178.2270  140.8860 N   0  0  0  0  0  0  0  0  0  0  0  0
  187.3760  177.5240  142.8030 C   0  0  0  0  0  0  0  0  0  0  0  0
  186.6060  177.4300  140.5670 C   0  0  0  0  0  0  0  0  0  0  0  0
  187.5120  177.0900  141.5200 N   0  0  0  0  0  0  0  0  0  0  0  0
  185.3870  178.6900  142.1520 C   0  0  0  0  0  3  0  0  0  0  0  0
  186.3050  178.3510  143.1430 C   0  0  0  0  0  3  0  0  0  0  0  0
  186.7680  176.9670  139.2340 N   0  0  0  0  0  1  0  0  0  0  0  0
  188.0040  177.7150  145.2190 C   0  0  0  0  0  2  0  0  0  0  0  0
  187.5740  176.5840  146.1370 C   0  0  0  0  0  2  0  0  0  0  0  0
  186.1180  176.7680  146.5160 C   0  0  0  0  0  2  0  0  0  0  0  0
  185.8540  178.2140  146.9030 C   0  0  0  0  0  2  0  0  0  0  0  0
  184.4900  178.4060  147.1320 O   0  0  0  0  0  0  0  0  0  0  0  0
  183.9750  178.7590  145.8860 C   0  0  0  0  0  1  0  0  0  0  0  0
  2  1  1  6  0  0  0
  3  8  1  0  0  0  0
  4  6  1  0  0  0  0
  5  4  1  0  0  0  0
  5  7  1  0  0  0  0
  6 10  1  6  0  0  0
  6  3  1  0  0  0  0
  7  2  1  0  0  0  0
  7  3  2  0  0  0  0
  8  9  1  0  0  0  0
 11 12  1  1  0  0  0
 11 10  1  0  0  0  0
 13 11  1  0  0  0  0
 14 13  1  0  0  0  0
 15 14  1  0  0  0  0
 16 17  1  0  0  0  0
 17 15  1  0  0  0  0
 18 17  2  0  0  0  0
 19 20  1  0  0  0  0
 19  2  1  0  0  0  0
 21 20  1  1  0  0  0
 21 29  1  0  0  0  0
 22 26  1  0  0  0  0
 23 27  1  0  0  0  0
 23 21  1  0  0  0  0
 24 22  2  0  0  0  0
 24 25  1  0  0  0  0
 25 23  2  0  0  0  0
 26 27  2  0  0  0  0
 28 24  1  0  0  0  0
 29 30  1  0  0  0  0
 30 31  1  0  0  0  0
 31 32  1  0  0  0  0
 32 33  1  0  0  0  0
 34 33  1  0  0  0  0
M  END
>  <MODEL>
4

>  <REMARK>
 VINA RESULT:      -5.6      2.264      3.644
  Name = 
  16 active torsions:
  status: ('A' for Active; 'I' for Inactive)
    1  A    between atoms: C_1  and  C_9
    2  A    between atoms: C_1  and  C_21
    3  A    between atoms: C_2  and  C_3
    4  A    between atoms: C_2  and  N_4
    5  A    between atoms: C_3  and  C_29
    6  A    between atoms: C_6  and  C_15
    7  A    between atoms: C_6  and  C_29
    8  A    between atoms: C_7  and  N_12
    9  A    between atoms: O_8  and  C_27
   10  A    between atoms: C_9  and  C_31
   11  A    between atoms: C_13  and  C_21
   12  A    between atoms: C_21  and  C_32
   13  A    between atoms: C_23  and  C_25
   14  A    between atoms: C_23  and  N_33
   15  A    between atoms: C_27  and  C_31
   16  A    between atoms: C_32  and  N_33
                            x       y       z     vdW  Elec       q    Type
                         _______ _______ _______ _____ _____    ______ ____

>  <TORSDO>
F 16

$$$$
=
 OpenBabel11042418393D

 34 35  0  0  1  0  0  0  0  0999 V2000
  190.4840  177.5850  147.7700 C   0  0  0  0  0  1  0  0  0  0  0  0
  190.3170  176.8020  146.4810 C   0  0  1  0  0  3  0  0  0  0  0  0
  191.9790  176.8770  144.6040 C   0  0  0  0  0  0  0  0  0  0  0  0
  193.9350  175.5890  145.2600 C   0  0  0  0  0  2  0  0  0  0  0  0
  192.9190  175.7030  146.7660 S   0  0  0  0  0  0  0  0  0  0  0  0
  193.3490  176.4800  144.1680 C   0  0  1  0  0  3  0  0  0  0  0  0
  191.6420  176.5140  145.8370 C   0  0  0  0  0  0  0  0  0  0  0  0
  191.0930  177.6380  143.7750 N   0  0  0  0  0  2  0  0  0  0  0  0
  191.1210  178.8860  143.7640 O   0  0  0  0  0  1  0  0  0  0  0  0
  193.2820  175.7090  142.8520 C   0  0  0  0  0  2  0  0  0  0  0  0
  193.5380  174.2170  143.0500 C   0  0  2  0  0  3  0  0  0  0  0  0
  194.5970  173.7380  142.0740 C   0  0  0  0  0  1  0  0  0  0  0  0
  192.2550  173.3890  142.9360 C   0  0  0  0  0  2  0  0  0  0  0  0
  191.8860  172.6680  144.2270 C   0  0  0  0  0  2  0  0  0  0  0  0
  192.4790  171.3420  144.2480 N   0  0  0  0  0  2  0  0  0  0  0  0
  194.2690  169.7730  144.8740 N   0  0  0  0  0  1  0  0  0  0  0  0
  193.6860  171.0650  144.9590 C   0  0  0  0  0  0  0  0  0  0  0  0
  194.2390  171.9550  145.6590 O   0  0  0  0  0  0  0  0  0  0  0  0
  189.5820  175.5740  146.7290 N   0  0  0  0  0  2  0  0  0  0  0  0
  188.7320  175.3460  145.5680 C   0  0  0  0  0  2  0  0  0  0  0  0
  187.8890  176.5790  145.2490 C   0  0  1  0  0  3  0  0  0  0  0  0
  187.6100  177.2280  141.0740 N   0  0  0  0  0  0  0  0  0  0  0  0
  187.7690  176.7990  143.7730 C   0  0  0  0  0  0  0  0  0  0  0  0
  187.9660  176.0080  141.5510 C   0  0  0  0  0  0  0  0  0  0  0  0
  188.0510  175.8010  142.8910 N   0  0  0  0  0  0  0  0  0  0  0  0
  187.3310  178.2530  141.9210 C   0  0  0  0  0  3  0  0  0  0  0  0
  187.4110  178.0600  143.2980 C   0  0  0  0  0  3  0  0  0  0  0  0
  188.2670  174.9530  140.6470 N   0  0  0  0  0  1  0  0  0  0  0  0
  186.5260  176.5470  145.9310 C   0  0  0  0  0  2  0  0  0  0  0  0
  186.4940  177.5170  147.1000 C   0  0  0  0  0  2  0  0  0  0  0  0
  185.9020  178.8350  146.6440 C   0  0  0  0  0  2  0  0  0  0  0  0
  184.5480  178.6070  145.9930 C   0  0  0  0  0  2  0  0  0  0  0  0
  184.3960  179.4550  144.8940 O   0  0  0  0  0  0  0  0  0  0  0  0
  184.0140  178.6100  143.8530 C   0  0  0  0  0  1  0  0  0  0  0  0
  2 19  1  0  0  0  0
  2  1  1  1  0  0  0
  3  7  2  0  0  0  0
  4  5  1  0  0  0  0
  6 10  1  6  0  0  0
  6  3  1  0  0  0  0
  6  4  1  0  0  0  0
  7  2  1  0  0  0  0
  7  5  1  0  0  0  0
  8  3  1  0  0  0  0
  9  8  1  0  0  0  0
 10 11  1  0  0  0  0
 11 12  1  6  0  0  0
 13 11  1  0  0  0  0
 13 14  1  0  0  0  0
 14 15  1  0  0  0  0
 15 17  1  0  0  0  0
 16 17  1  0  0  0  0
 17 18  2  0  0  0  0
 20 19  1  0  0  0  0
 21 20  1  6  0  0  0
 21 29  1  0  0  0  0
 22 24  2  0  0  0  0
 22 26  1  0  0  0  0
 23 21  1  0  0  0  0
 24 25  1  0  0  0  0
 25 23  2  0  0  0  0
 26 27  2  0  0  0  0
 27 23  1  0  0  0  0
 28 24  1  0  0  0  0
 29 30  1  0  0  0  0
 31 30  1  0  0  0  0
 32 31  1  0  0  0  0
 33 32  1  0  0  0  0
 34 33  1  0  0  0  0
M  END
>  <MODEL>
5

>  <REMARK>
 VINA RESULT:      -5.6      2.175      3.030
  Name = 
  16 active torsions:
  status: ('A' for Active; 'I' for Inactive)
    1  A    between atoms: C_1  and  C_9
    2  A    between atoms: C_1  and  C_21
    3  A    between atoms: C_2  and  C_3
    4  A    between atoms: C_2  and  N_4
    5  A    between atoms: C_3  and  C_29
    6  A    between atoms: C_6  and  C_15
    7  A    between atoms: C_6  and  C_29
    8  A    between atoms: C_7  and  N_12
    9  A    between atoms: O_8  and  C_27
   10  A    between atoms: C_9  and  C_31
   11  A    between atoms: C_13  and  C_21
   12  A    between atoms: C_21  and  C_32
   13  A    between atoms: C_23  and  C_25
   14  A    between atoms: C_23  and  N_33
   15  A    between atoms: C_27  and  C_31
   16  A    between atoms: C_32  and  N_33
                            x       y       z     vdW  Elec       q    Type
                         _______ _______ _______ _____ _____    ______ ____

>  <TORSDO>
F 16

$$$$
=
 OpenBabel11042418393D

 34 35  0  0  1  0  0  0  0  0999 V2000
  194.0930  176.5840  146.2480 C   0  0  0  0  0  1  0  0  0  0  0  0
  193.1750  175.8600  145.2790 C   0  0  1  0  0  3  0  0  0  0  0  0
  190.8480  176.4650  145.9910 C   0  0  0  0  0  0  0  0  0  0  0  0
  189.8550  177.8580  144.2620 C   0  0  0  0  0  2  0  0  0  0  0  0
  191.6060  177.7000  143.7920 S   0  0  0  0  0  0  0  0  0  0  0  0
  189.6300  177.2570  145.6470 C   0  0  1  0  0  3  0  0  0  0  0  0
  191.8600  176.5690  145.1360 C   0  0  0  0  0  0  0  0  0  0  0  0
  190.9480  175.6790  147.1840 N   0  0  0  0  0  2  0  0  0  0  0  0
  191.2200  176.1980  148.2860 O   0  0  0  0  0  1  0  0  0  0  0  0
  188.4020  176.3530  145.6270 C   0  0  0  0  0  2  0  0  0  0  0  0
  187.1130  177.1360  145.8670 C   0  0  2  0  0  3  0  0  0  0  0  0
  186.5070  176.7430  147.2020 C   0  0  0  0  0  1  0  0  0  0  0  0
  186.1090  176.9620  144.7240 C   0  0  0  0  0  2  0  0  0  0  0  0
  185.7570  178.2710  144.0280 C   0  0  0  0  0  2  0  0  0  0  0  0
  185.2710  178.0090  142.6830 N   0  0  0  0  0  2  0  0  0  0  0  0
  185.5970  177.8500  140.2490 N   0  0  0  0  0  1  0  0  0  0  0  0
  186.1400  178.0250  141.5500 C   0  0  0  0  0  0  0  0  0  0  0  0
  187.3800  178.1940  141.6930 O   0  0  0  0  0  0  0  0  0  0  0  0
  193.8250  175.7060  143.9890 N   0  0  0  0  0  2  0  0  0  0  0  0
  193.7560  174.2920  143.6450 C   0  0  0  0  0  2  0  0  0  0  0  0
  192.9870  173.5030  144.7020 C   0  0  1  0  0  3  0  0  0  0  0  0
  189.5620  171.6550  143.0350 N   0  0  0  0  0  0  0  0  0  0  0  0
  191.7830  172.8290  144.1210 C   0  0  0  0  0  0  0  0  0  0  0  0
  190.7500  171.6020  142.3800 C   0  0  0  0  0  0  0  0  0  0  0  0
  191.8480  172.1920  142.9190 N   0  0  0  0  0  0  0  0  0  0  0  0
  189.4520  172.2890  144.2310 C   0  0  0  0  0  3  0  0  0  0  0  0
  190.5670  172.8990  144.8000 C   0  0  0  0  0  3  0  0  0  0  0  0
  190.8400  170.9440  141.1230 N   0  0  0  0  0  1  0  0  0  0  0  0
  193.8760  172.5240  145.4600 C   0  0  0  0  0  2  0  0  0  0  0  0
  195.2370  172.4180  144.7950 C   0  0  0  0  0  2  0  0  0  0  0  0
  196.3160  172.7830  145.7950 C   0  0  0  0  0  2  0  0  0  0  0  0
  197.0310  174.0510  145.3590 C   0  0  0  0  0  2  0  0  0  0  0  0
  197.2920  174.0060  143.9880 O   0  0  0  0  0  0  0  0  0  0  0  0
  197.4330  175.3430  143.6180 C   0  0  0  0  0  1  0  0  0  0  0  0
  2  1  1  1  0  0  0
  3  8  1  0  0  0  0
  4  6  1  0  0  0  0
  5  4  1  0  0  0  0
  5  7  1  0  0  0  0
  6 10  1  6  0  0  0
  6  3  1  0  0  0  0
  7  2  1  0  0  0  0
  7  3  2  0  0  0  0
  8  9  1  0  0  0  0
 10 11  1  0  0  0  0
 11 12  1  1  0  0  0
 13 11  1  0  0  0  0
 14 13  1  0  0  0  0
 15 14  1  0  0  0  0
 16 17  1  0  0  0  0
 17 18  2  0  0  0  0
 17 15  1  0  0  0  0
 19  2  1  0  0  0  0
 20 19  1  0  0  0  0
 21 20  1  6  0  0  0
 21 29  1  0  0  0  0
 22 26  1  0  0  0  0
 23 21  1  0  0  0  0
 23 27  1  0  0  0  0
 24 25  1  0  0  0  0
 24 22  2  0  0  0  0
 25 23  2  0  0  0  0
 26 27  2  0  0  0  0
 28 24  1  0  0  0  0
 30 29  1  0  0  0  0
 30 31  1  0  0  0  0
 32 31  1  0  0  0  0
 33 32  1  0  0  0  0
 34 33  1  0  0  0  0
M  END
>  <MODEL>
6

>  <REMARK>
 VINA RESULT:      -5.5      2.199      7.657
  Name = 
  16 active torsions:
  status: ('A' for Active; 'I' for Inactive)
    1  A    between atoms: C_1  and  C_9
    2  A    between atoms: C_1  and  C_21
    3  A    between atoms: C_2  and  C_3
    4  A    between atoms: C_2  and  N_4
    5  A    between atoms: C_3  and  C_29
    6  A    between atoms: C_6  and  C_15
    7  A    between atoms: C_6  and  C_29
    8  A    between atoms: C_7  and  N_12
    9  A    between atoms: O_8  and  C_27
   10  A    between atoms: C_9  and  C_31
   11  A    between atoms: C_13  and  C_21
   12  A    between atoms: C_21  and  C_32
   13  A    between atoms: C_23  and  C_25
   14  A    between atoms: C_23  and  N_33
   15  A    between atoms: C_27  and  C_31
   16  A    between atoms: C_32  and  N_33
                            x       y       z     vdW  Elec       q    Type
                         _______ _______ _______ _____ _____    ______ ____

>  <TORSDO>
F 16

$$$$
=
 OpenBabel11042418393D

 34 35  0  0  1  0  0  0  0  0999 V2000
  189.6770  172.3960  145.2210 C   0  0  0  0  0  1  0  0  0  0  0  0
  190.2100  173.8130  145.3280 C   0  0  1  0  0  3  0  0  0  0  0  0
  192.5310  174.2650  144.4940 C   0  0  0  0  0  0  0  0  0  0  0  0
  192.4140  174.7190  142.1080 C   0  0  0  0  0  2  0  0  0  0  0  0
  190.7480  174.1430  142.5600 S   0  0  0  0  0  0  0  0  0  0  0  0
  193.3660  174.5420  143.2880 C   0  0  1  0  0  3  0  0  0  0  0  0
  191.2330  174.0970  144.2660 C   0  0  0  0  0  0  0  0  0  0  0  0
  193.0890  174.1410  145.8080 N   0  0  0  0  0  2  0  0  0  0  0  0
  193.0780  175.0940  146.6140 O   0  0  0  0  0  1  0  0  0  0  0  0
  194.1810  175.8150  143.4920 C   0  0  0  0  0  2  0  0  0  0  0  0
  195.6700  175.5190  143.6600 C   0  0  2  0  0  3  0  0  0  0  0  0
  196.4750  176.7950  143.4960 C   0  0  0  0  0  1  0  0  0  0  0  0
  196.1540  174.4260  142.7040 C   0  0  0  0  0  2  0  0  0  0  0  0
  197.0060  173.3630  143.3870 C   0  0  0  0  0  2  0  0  0  0  0  0
  196.1610  172.3120  143.9290 N   0  0  0  0  0  2  0  0  0  0  0  0
  195.2850  170.9790  145.8030 N   0  0  0  0  0  1  0  0  0  0  0  0
  196.0580  172.0740  145.3320 C   0  0  0  0  0  0  0  0  0  0  0  0
  196.6450  172.8250  146.1570 O   0  0  0  0  0  0  0  0  0  0  0  0
  189.1180  174.7690  145.2640 N   0  0  0  0  0  2  0  0  0  0  0  0
  189.2700  175.6650  146.4030 C   0  0  0  0  0  2  0  0  0  0  0  0
  188.6330  177.0250  146.1250 C   0  0  1  0  0  3  0  0  0  0  0  0
  189.0690  178.0850  142.0500 N   0  0  0  0  0  0  0  0  0  0  0  0
  188.7820  177.4220  144.6900 C   0  0  0  0  0  0  0  0  0  0  0  0
  187.8320  177.8870  142.5720 C   0  0  0  0  0  0  0  0  0  0  0  0
  187.6950  177.5510  143.8810 N   0  0  0  0  0  0  0  0  0  0  0  0
  190.1810  177.9560  142.8200 C   0  0  0  0  0  3  0  0  0  0  0  0
  190.0600  177.6130  144.1640 C   0  0  0  0  0  3  0  0  0  0  0  0
  186.6830  178.0140  141.7460 N   0  0  0  0  0  1  0  0  0  0  0  0
  187.1810  177.0940  146.5850 C   0  0  0  0  0  2  0  0  0  0  0  0
  186.9720  178.2830  147.5070 C   0  0  0  0  0  2  0  0  0  0  0  0
  185.5380  178.7600  147.3970 C   0  0  0  0  0  2  0  0  0  0  0  0
  184.7410  177.8290  146.4990 C   0  0  0  0  0  2  0  0  0  0  0  0
  183.8110  178.5600  145.7570 O   0  0  0  0  0  0  0  0  0  0  0  0
  184.5580  179.1230  144.7230 C   0  0  0  0  0  1  0  0  0  0  0  0
  2  1  1  6  0  0  0
  3  8  1  0  0  0  0
  4  5  1  0  0  0  0
  4  6  1  0  0  0  0
  5  7  1  0  0  0  0
  6 10  1  1  0  0  0
  6  3  1  0  0  0  0
  7  3  2  0  0  0  0
  7  2  1  0  0  0  0
  8  9  1  0  0  0  0
 10 11  1  0  0  0  0
 11 12  1  6  0  0  0
 13 14  1  0  0  0  0
 13 11  1  0  0  0  0
 14 15  1  0  0  0  0
 15 17  1  0  0  0  0
 17 16  1  0  0  0  0
 17 18  2  0  0  0  0
 19  2  1  0  0  0  0
 19 20  1  0  0  0  0
 21 20  1  6  0  0  0
 21 29  1  0  0  0  0
 22 24  2  0  0  0  0
 22 26  1  0  0  0  0
 23 21  1  0  0  0  0
 24 25  1  0  0  0  0
 25 23  2  0  0  0  0
 26 27  2  0  0  0  0
 27 23  1  0  0  0  0
 28 24  1  0  0  0  0
 29 30  1  0  0  0  0
 31 30  1  0  0  0  0
 32 31  1  0  0  0  0
 33 32  1  0  0  0  0
 34 33  1  0  0  0  0
M  END
>  <MODEL>
7

>  <REMARK>
 VINA RESULT:      -5.5      2.521      4.109
  Name = 
  16 active torsions:
  status: ('A' for Active; 'I' for Inactive)
    1  A    between atoms: C_1  and  C_9
    2  A    between atoms: C_1  and  C_21
    3  A    between atoms: C_2  and  C_3
    4  A    between atoms: C_2  and  N_4
    5  A    between atoms: C_3  and  C_29
    6  A    between atoms: C_6  and  C_15
    7  A    between atoms: C_6  and  C_29
    8  A    between atoms: C_7  and  N_12
    9  A    between atoms: O_8  and  C_27
   10  A    between atoms: C_9  and  C_31
   11  A    between atoms: C_13  and  C_21
   12  A    between atoms: C_21  and  C_32
   13  A    between atoms: C_23  and  C_25
   14  A    between atoms: C_23  and  N_33
   15  A    between atoms: C_27  and  C_31
   16  A    between atoms: C_32  and  N_33
                            x       y       z     vdW  Elec       q    Type
                         _______ _______ _______ _____ _____    ______ ____

>  <TORSDO>
F 16

$$$$
=
 OpenBabel11042418393D

 34 35  0  0  1  0  0  0  0  0999 V2000
  194.1200  176.9150  146.6590 C   0  0  0  0  0  1  0  0  0  0  0  0
  193.1030  175.9520  146.0760 C   0  0  1  0  0  3  0  0  0  0  0  0
  190.7400  176.7880  146.1550 C   0  0  0  0  0  0  0  0  0  0  0  0
  190.2360  177.8660  144.0340 C   0  0  0  0  0  2  0  0  0  0  0  0
  192.0260  177.5400  143.9840 S   0  0  0  0  0  0  0  0  0  0  0  0
  189.6880  177.5540  145.4240 C   0  0  1  0  0  3  0  0  0  0  0  0
  191.9080  176.6790  145.5300 C   0  0  0  0  0  0  0  0  0  0  0  0
  190.5310  176.2430  147.4630 N   0  0  0  0  0  2  0  0  0  0  0  0
  190.1300  175.0730  147.6260 O   0  0  0  0  0  1  0  0  0  0  0  0
  188.4160  176.7200  145.3040 C   0  0  0  0  0  2  0  0  0  0  0  0
  187.1730  177.5140  145.7010 C   0  0  2  0  0  3  0  0  0  0  0  0
  187.2130  177.8340  147.1840 C   0  0  0  0  0  1  0  0  0  0  0  0
  185.8790  176.7910  145.3190 C   0  0  0  0  0  2  0  0  0  0  0  0
  185.1320  177.4600  144.1710 C   0  0  0  0  0  2  0  0  0  0  0  0
  185.6630  177.0090  142.8960 N   0  0  0  0  0  2  0  0  0  0  0  0
  186.8360  177.4060  140.7700 N   0  0  0  0  0  1  0  0  0  0  0  0
  186.4160  177.8720  142.0440 C   0  0  0  0  0  0  0  0  0  0  0  0
  186.7100  179.0410  142.4100 O   0  0  0  0  0  0  0  0  0  0  0  0
  193.7200  175.1270  145.0510 N   0  0  0  0  0  2  0  0  0  0  0  0
  192.8210  174.0050  144.8110 C   0  0  0  0  0  2  0  0  0  0  0  0
  192.8430  173.5840  143.3440 C   0  0  1  0  0  3  0  0  0  0  0  0
  189.0100  172.2980  142.0850 N   0  0  0  0  0  0  0  0  0  0  0  0
  191.4920  173.1380  142.8770 C   0  0  0  0  0  0  0  0  0  0  0  0
  189.2130  173.5950  142.4310 C   0  0  0  0  0  0  0  0  0  0  0  0
  190.4450  174.0060  142.8300 N   0  0  0  0  0  0  0  0  0  0  0  0
  190.0260  171.3970  142.1290 C   0  0  0  0  0  3  0  0  0  0  0  0
  191.2960  171.8000  142.5350 C   0  0  0  0  0  3  0  0  0  0  0  0
  188.1330  174.5190  142.3900 N   0  0  0  0  0  1  0  0  0  0  0  0
  193.4300  174.6590  142.4360 C   0  0  0  0  0  2  0  0  0  0  0  0
  194.1200  174.0260  141.2400 C   0  0  0  0  0  2  0  0  0  0  0  0
  195.3080  174.8760  140.8360 C   0  0  0  0  0  2  0  0  0  0  0  0
  195.1930  176.2650  141.4420 C   0  0  0  0  0  2  0  0  0  0  0  0
  196.4560  176.7310  141.8140 O   0  0  0  0  0  0  0  0  0  0  0  0
  196.4170  176.7660  143.2070 C   0  0  0  0  0  1  0  0  0  0  0  0
  2  1  1  6  0  0  0
  3  8  1  0  0  0  0
  4  6  1  0  0  0  0
  5  4  1  0  0  0  0
  5  7  1  0  0  0  0
  6 10  1  6  0  0  0
  6  3  1  0  0  0  0
  7  2  1  0  0  0  0
  7  3  2  0  0  0  0
  8  9  1  0  0  0  0
 10 11  1  0  0  0  0
 11 12  1  1  0  0  0
 13 11  1  0  0  0  0
 14 13  1  0  0  0  0
 15 14  1  0  0  0  0
 16 17  1  0  0  0  0
 17 18  2  0  0  0  0
 17 15  1  0  0  0  0
 19  2  1  0  0  0  0
 20 19  1  0  0  0  0
 21 29  1  6  0  0  0
 21 20  1  0  0  0  0
 22 26  1  0  0  0  0
 22 24  2  0  0  0  0
 23 21  1  0  0  0  0
 24 25  1  0  0  0  0
 25 23  2  0  0  0  0
 26 27  2  0  0  0  0
 27 23  1  0  0  0  0
 28 24  1  0  0  0  0
 30 29  1  0  0  0  0
 31 30  1  0  0  0  0
 31 32  1  0  0  0  0
 32 33  1  0  0  0  0
 33 34  1  0  0  0  0
M  END
>  <MODEL>
8

>  <REMARK>
 VINA RESULT:      -5.4      2.351      7.296
  Name = 
  16 active torsions:
  status: ('A' for Active; 'I' for Inactive)
    1  A    between atoms: C_1  and  C_9
    2  A    between atoms: C_1  and  C_21
    3  A    between atoms: C_2  and  C_3
    4  A    between atoms: C_2  and  N_4
    5  A    between atoms: C_3  and  C_29
    6  A    between atoms: C_6  and  C_15
    7  A    between atoms: C_6  and  C_29
    8  A    between atoms: C_7  and  N_12
    9  A    between atoms: O_8  and  C_27
   10  A    between atoms: C_9  and  C_31
   11  A    between atoms: C_13  and  C_21
   12  A    between atoms: C_21  and  C_32
   13  A    between atoms: C_23  and  C_25
   14  A    between atoms: C_23  and  N_33
   15  A    between atoms: C_27  and  C_31
   16  A    between atoms: C_32  and  N_33
                            x       y       z     vdW  Elec       q    Type
                         _______ _______ _______ _____ _____    ______ ____

>  <TORSDO>
F 16

$$$$
=
 OpenBabel11042418393D

 34 35  0  0  1  0  0  0  0  0999 V2000
  191.3870  176.8290  147.9820 C   0  0  0  0  0  1  0  0  0  0  0  0
  190.8670  176.3610  146.6350 C   0  0  1  0  0  3  0  0  0  0  0  0
  192.1110  176.7150  144.4870 C   0  0  0  0  0  0  0  0  0  0  0  0
  193.9850  175.1660  144.4210 C   0  0  0  0  0  2  0  0  0  0  0  0
  193.3160  175.0260  146.1080 S   0  0  0  0  0  0  0  0  0  0  0  0
  193.3050  176.3180  143.6850 C   0  0  1  0  0  3  0  0  0  0  0  0
  191.9890  176.1180  145.6680 C   0  0  0  0  0  0  0  0  0  0  0  0
  191.1770  177.7080  144.0440 N   0  0  0  0  0  2  0  0  0  0  0  0
  191.5580  178.8160  143.6160 O   0  0  0  0  0  1  0  0  0  0  0  0
  192.8780  175.8640  142.2930 C   0  0  0  0  0  2  0  0  0  0  0  0
  192.8700  174.3420  142.1660 C   0  0  2  0  0  3  0  0  0  0  0  0
  193.6860  173.9170  140.9590 C   0  0  0  0  0  1  0  0  0  0  0  0
  191.4490  173.7740  142.1100 C   0  0  0  0  0  2  0  0  0  0  0  0
  191.1270  173.0880  140.7870 C   0  0  0  0  0  2  0  0  0  0  0  0
  190.0640  173.8000  140.0990 N   0  0  0  0  0  2  0  0  0  0  0  0
  188.1720  173.8880  138.5280 N   0  0  0  0  0  1  0  0  0  0  0  0
  189.1360  173.1310  139.2450 C   0  0  0  0  0  0  0  0  0  0  0  0
  189.1650  171.8770  139.1210 O   0  0  0  0  0  0  0  0  0  0  0  0
  190.0540  175.1680  146.7970 N   0  0  0  0  0  2  0  0  0  0  0  0
  189.1860  175.0840  145.6300 C   0  0  0  0  0  2  0  0  0  0  0  0
  188.3360  176.3440  145.4820 C   0  0  1  0  0  3  0  0  0  0  0  0
  186.9020  176.7850  141.5220 N   0  0  0  0  0  0  0  0  0  0  0  0
  187.8440  176.5170  144.0780 C   0  0  0  0  0  0  0  0  0  0  0  0
  186.4840  177.6340  142.4960 C   0  0  0  0  0  0  0  0  0  0  0  0
  186.9490  177.4940  143.7640 N   0  0  0  0  0  0  0  0  0  0  0  0
  187.7860  175.7910  141.7960 C   0  0  0  0  0  3  0  0  0  0  0  0
  188.2750  175.6310  143.0900 C   0  0  0  0  0  3  0  0  0  0  0  0
  185.5490  178.6600  142.1910 N   0  0  0  0  0  1  0  0  0  0  0  0
  187.1970  176.4020  146.4930 C   0  0  0  0  0  2  0  0  0  0  0  0
  187.3510  177.6130  147.3980 C   0  0  0  0  0  2  0  0  0  0  0  0
  185.9890  178.2260  147.6560 C   0  0  0  0  0  2  0  0  0  0  0  0
  185.7680  179.4210  146.7430 C   0  0  0  0  0  2  0  0  0  0  0  0
  184.8450  179.0970  145.7450 O   0  0  0  0  0  0  0  0  0  0  0  0
  183.9150  178.2790  146.3860 C   0  0  0  0  0  1  0  0  0  0  0  0
  2 19  1  0  0  0  0
  2  1  1  1  0  0  0
  3  7  2  0  0  0  0
  4  5  1  0  0  0  0
  6 10  1  6  0  0  0
  6  4  1  0  0  0  0
  6  3  1  0  0  0  0
  7  5  1  0  0  0  0
  7  2  1  0  0  0  0
  8  3  1  0  0  0  0
  9  8  1  0  0  0  0
 11 12  1  6  0  0  0
 11 10  1  0  0  0  0
 13 11  1  0  0  0  0
 14 13  1  0  0  0  0
 15 14  1  0  0  0  0
 16 17  1  0  0  0  0
 17 15  1  0  0  0  0
 18 17  2  0  0  0  0
 20 19  1  0  0  0  0
 21 20  1  6  0  0  0
 21 29  1  0  0  0  0
 22 26  1  0  0  0  0
 22 24  2  0  0  0  0
 23 21  1  0  0  0  0
 24 25  1  0  0  0  0
 25 23  2  0  0  0  0
 26 27  2  0  0  0  0
 27 23  1  0  0  0  0
 28 24  1  0  0  0  0
 29 30  1  0  0  0  0
 30 31  1  0  0  0  0
 32 31  1  0  0  0  0
 33 34  1  0  0  0  0
 33 32  1  0  0  0  0
M  END
>  <MODEL>
9

>  <REMARK>
 VINA RESULT:      -5.4      2.459      3.252
  Name = 
  16 active torsions:
  status: ('A' for Active; 'I' for Inactive)
    1  A    between atoms: C_1  and  C_9
    2  A    between atoms: C_1  and  C_21
    3  A    between atoms: C_2  and  C_3
    4  A    between atoms: C_2  and  N_4
    5  A    between atoms: C_3  and  C_29
    6  A    between atoms: C_6  and  C_15
    7  A    between atoms: C_6  and  C_29
    8  A    between atoms: C_7  and  N_12
    9  A    between atoms: O_8  and  C_27
   10  A    between atoms: C_9  and  C_31
   11  A    between atoms: C_13  and  C_21
   12  A    between atoms: C_21  and  C_32
   13  A    between atoms: C_23  and  C_25
   14  A    between atoms: C_23  and  N_33
   15  A    between atoms: C_27  and  C_31
   16  A    between atoms: C_32  and  N_33
                            x       y       z     vdW  Elec       q    Type
                         _______ _______ _______ _____ _____    ______ ____

>  <TORSDO>
F 16

$$$$
