=
 OpenBabel11042418103D

 40 44  0  0  1  0  0  0  0  0999 V2000
  190.6400  177.3550  144.1900 C   0  0  0  0  0  1  0  0  0  0  0  0
  190.6910  173.9990  143.4490 C   0  0  1  0  0  3  0  0  0  0  0  0
  190.0310  171.8090  142.4120 C   0  0  0  0  0  3  0  0  0  0  0  0
  189.3930  175.4150  145.1350 C   0  0  0  0  0  0  0  0  0  0  0  0
  189.3250  175.9120  142.7380 N   0  0  0  0  0  0  0  0  0  0  0  0
  190.1370  173.2150  145.6660 O   0  0  0  0  0  0  0  0  0  0  0  0
  188.7430  173.2740  140.8800 N   0  0  0  0  0  2  0  0  0  0  0  0
  189.7930  174.2970  141.0090 C   0  0  0  0  0  2  0  0  0  0  0  0
  190.9510  172.5490  143.0560 C   0  0  0  0  0  0  0  0  0  0  0  0
  189.9270  174.8130  142.4130 C   0  0  0  0  0  0  0  0  0  0  0  0
  189.3920  176.4920  144.0710 C   0  0  2  0  0  3  0  0  0  0  0  0
  188.6800  172.3380  142.0160 C   0  0  0  0  0  2  0  0  0  0  0  0
  188.8330  175.6010  146.3370 C   0  0  0  0  0  3  0  0  0  0  0  0
  190.0600  174.1400  144.8120 C   0  0  0  0  0  0  0  0  0  0  0  0
  193.5080  169.0350  145.2010 O   0  0  0  0  0  0  0  0  0  0  0  0
  197.9400  171.5890  144.1390 C   0  0  0  0  0  1  0  0  0  0  0  0
  195.8320  172.9030  143.9360 C   0  0  2  0  0  3  0  0  0  0  0  0
  193.5000  170.1110  144.5460 C   0  0  0  0  0  0  0  0  0  0  0  0
  194.7020  170.8510  144.3320 N   0  0  0  0  0  0  0  0  0  0  0  0
  192.2750  170.6400  144.0420 N   0  0  0  0  0  2  0  0  0  0  0  0
  195.8430  170.8100  145.2220 C   0  0  0  0  0  2  0  0  0  0  0  0
  193.3960  172.5690  143.1310 C   0  0  0  0  0  3  0  0  0  0  0  0
  192.2490  171.9270  143.4010 C   0  0  0  0  0  0  0  0  0  0  0  0
  194.7520  171.9580  143.3960 C   0  0  1  0  0  3  0  0  0  0  0  0
  196.6860  172.0340  144.8700 C   0  0  1  0  0  3  0  0  0  0  0  0
  195.2800  174.1560  144.6500 C   0  0  1  0  0  3  0  0  0  0  0  0
  195.7230  174.3000  146.1050 C   0  0  0  0  0  1  0  0  0  0  0  0
  195.5250  175.3650  143.8940 N   0  0  0  0  0  0  0  0  0  0  0  0
  196.6090  175.5530  143.2250 C   0  0  0  0  0  3  0  0  0  0  0  0
  196.0160  176.8130  141.3140 O   0  0  0  0  0  1  0  0  0  0  0  0
  196.8100  176.8190  142.4620 C   0  0  0  0  0  2  0  0  0  0  0  0
  188.1400  176.8640  146.7500 C   0  0  0  0  0  2  0  0  0  0  0  0
  186.7280  176.5900  147.2550 C   0  0  0  0  0  2  0  0  0  0  0  0
  185.2790  177.5620  143.9670 C   0  0  2  0  0  3  0  0  0  0  0  0
  185.8890  178.9340  146.1320 S   0  0  0  0  0  0  0  0  0  0  0  0
  185.7740  177.2660  142.5630 C   0  0  0  0  0  1  0  0  0  0  0  0
  185.6820  177.1420  146.2980 C   0  0  1  0  0  3  0  0  0  0  0  0
  184.5840  179.7960  144.0660 C   0  0  0  0  0  1  0  0  0  0  0  0
  185.6880  178.9020  144.3700 N   0  0  0  0  0  0  0  0  0  0  0  0
  185.8710  176.5590  144.9250 C   0  0  0  0  0  2  0  0  0  0  0  0
  2 10  1  6  0  0  0
  2 14  1  0  0  0  0
  3  9  2  0  0  0  0
  4 13  2  0  0  0  0
  5 11  1  0  0  0  0
  7  8  1  0  0  0  0
  7 12  1  0  0  0  0
  8 10  1  0  0  0  0
  9 23  1  0  0  0  0
  9  2  1  0  0  0  0
 10  5  2  0  0  0  0
 11  1  1  6  0  0  0
 11  4  1  0  0  0  0
 12  3  1  0  0  0  0
 13 32  1  0  0  0  0
 14  4  1  0  0  0  0
 14  6  2  0  0  0  0
 17 26  1  1  0  0  0
 17 25  1  0  0  0  0
 18 15  2  0  0  0  0
 19 18  1  0  0  0  0
 19 21  1  0  0  0  0
 20 18  1  0  0  0  0
 22 23  2  0  0  0  0
 23 20  1  0  0  0  0
 24 22  1  1  0  0  0
 24 17  1  0  0  0  0
 24 19  1  0  0  0  0
 25 16  1  6  0  0  0
 25 21  1  0  0  0  0
 26 27  1  1  0  0  0
 28 26  1  0  0  0  0
 29 28  2  0  0  0  0
 30 31  1  0  0  0  0
 31 29  1  0  0  0  0
 32 33  1  0  0  0  0
 34 36  1  6  0  0  0
 34 39  1  0  0  0  0
 34 40  1  0  0  0  0
 35 37  1  0  0  0  0
 37 33  1  1  0  0  0
 38 39  1  0  0  0  0
 39 35  1  0  0  0  0
 40 37  1  0  0  0  0
M  END
>  <MODEL>
1

>  <REMARK>
 VINA RESULT:      -7.5      0.000      0.000
  Name = 
  7 active torsions:
  status: ('A' for Active; 'I' for Inactive)
    1  A    between atoms: C_10  and  C_20
    2  A    between atoms: N_15  and  C_20
    3  A    between atoms: C_21  and  C_26
    4  A    between atoms: C_22  and  C_31
    5  A    between atoms: C_22  and  C_38
    6  A    between atoms: C_27  and  C_31
    7  A    between atoms: C_33  and  C_35
                            x       y       z     vdW  Elec       q    Type
                         _______ _______ _______ _____ _____    ______ ____

>  <TORSDO>
F 7

$$$$
=
 OpenBabel11042418103D

 40 44  0  0  1  0  0  0  0  0999 V2000
  191.9670  174.2930  141.5130 C   0  0  0  0  0  1  0  0  0  0  0  0
  191.1240  175.4780  144.6280 C   0  0  1  0  0  3  0  0  0  0  0  0
  191.3980  176.2960  146.9860 C   0  0  0  0  0  3  0  0  0  0  0  0
  191.5840  173.1450  143.6920 C   0  0  0  0  0  0  0  0  0  0  0  0
  193.2310  174.9440  143.4870 N   0  0  0  0  0  0  0  0  0  0  0  0
  189.9220  173.5140  145.3580 O   0  0  0  0  0  0  0  0  0  0  0  0
  193.7690  176.5400  146.3000 N   0  0  0  0  0  2  0  0  0  0  0  0
  193.3190  176.8690  144.9370 C   0  0  0  0  0  2  0  0  0  0  0  0
  190.6320  176.1840  145.8860 C   0  0  0  0  0  0  0  0  0  0  0  0
  192.5850  175.7340  144.2830 C   0  0  0  0  0  0  0  0  0  0  0  0
  192.6110  173.8170  142.8070 C   0  0  2  0  0  3  0  0  0  0  0  0
  192.7960  175.7500  147.0740 C   0  0  0  0  0  2  0  0  0  0  0  0
  191.3450  171.8280  143.6320 C   0  0  0  0  0  3  0  0  0  0  0  0
  190.8240  173.9990  144.6220 C   0  0  0  0  0  0  0  0  0  0  0  0
  186.2190  176.4930  147.8640 O   0  0  0  0  0  0  0  0  0  0  0  0
  184.6390  179.5160  143.9080 C   0  0  0  0  0  1  0  0  0  0  0  0
  186.7590  178.2540  143.5560 C   0  0  2  0  0  3  0  0  0  0  0  0
  187.0150  176.8460  146.9540 C   0  0  0  0  0  0  0  0  0  0  0  0
  186.5610  177.5990  145.8310 N   0  0  0  0  0  0  0  0  0  0  0  0
  188.3870  176.4580  147.0060 N   0  0  0  0  0  2  0  0  0  0  0  0
  185.2050  177.5550  145.3260 C   0  0  0  0  0  2  0  0  0  0  0  0
  188.8490  177.5380  144.9020 C   0  0  0  0  0  3  0  0  0  0  0  0
  189.2680  176.7570  145.9090 C   0  0  0  0  0  0  0  0  0  0  0  0
  187.4930  178.2060  144.9000 C   0  0  1  0  0  3  0  0  0  0  0  0
  185.2700  178.1360  143.9150 C   0  0  1  0  0  3  0  0  0  0  0  0
  187.2020  177.1700  142.5500 C   0  0  1  0  0  3  0  0  0  0  0  0
  186.6280  175.7810  142.8250 C   0  0  0  0  0  1  0  0  0  0  0  0
  186.9840  177.5780  141.1790 N   0  0  0  0  0  0  0  0  0  0  0  0
  186.9250  176.7340  140.2090 C   0  0  0  0  0  3  0  0  0  0  0  0
  186.7260  176.1250  137.9330 O   0  0  0  0  0  1  0  0  0  0  0  0
  186.6990  177.2090  138.8130 C   0  0  0  0  0  2  0  0  0  0  0  0
  192.0650  170.8880  142.7140 C   0  0  0  0  0  2  0  0  0  0  0  0
  191.0990  170.1530  141.7930 C   0  0  0  0  0  2  0  0  0  0  0  0
  189.6590  171.9360  138.8610 C   0  0  2  0  0  3  0  0  0  0  0  0
  190.6300  169.5080  139.1810 S   0  0  0  0  0  0  0  0  0  0  0  0
  188.3470  172.6890  138.7310 C   0  0  0  0  0  1  0  0  0  0  0  0
  191.0840  170.7680  140.4010 C   0  0  1  0  0  3  0  0  0  0  0  0
  189.9720  170.6320  136.9410 C   0  0  0  0  0  1  0  0  0  0  0  0
  189.5180  170.5900  138.3200 N   0  0  0  0  0  0  0  0  0  0  0  0
  190.0380  171.8440  140.3170 C   0  0  0  0  0  2  0  0  0  0  0  0
  2 10  1  1  0  0  0
  2  9  1  0  0  0  0
  3 12  1  0  0  0  0
  4 14  1  0  0  0  0
  5 10  2  0  0  0  0
  7 12  1  0  0  0  0
  8  7  1  0  0  0  0
  9 23  1  0  0  0  0
  9  3  2  0  0  0  0
 10  8  1  0  0  0  0
 11  1  1  6  0  0  0
 11  5  1  0  0  0  0
 11  4  1  0  0  0  0
 13  4  2  0  0  0  0
 14  2  1  0  0  0  0
 14  6  2  0  0  0  0
 17 26  1  6  0  0  0
 17 25  1  0  0  0  0
 17 24  1  0  0  0  0
 18 20  1  0  0  0  0
 18 15  2  0  0  0  0
 19 18  1  0  0  0  0
 21 19  1  0  0  0  0
 22 23  2  0  0  0  0
 23 20  1  0  0  0  0
 24 22  1  6  0  0  0
 24 19  1  0  0  0  0
 25 16  1  1  0  0  0
 25 21  1  0  0  0  0
 26 27  1  1  0  0  0
 28 26  1  0  0  0  0
 29 28  2  0  0  0  0
 30 31  1  0  0  0  0
 31 29  1  0  0  0  0
 32 13  1  0  0  0  0
 33 32  1  0  0  0  0
 34 36  1  1  0  0  0
 34 40  1  0  0  0  0
 35 37  1  0  0  0  0
 37 33  1  1  0  0  0
 38 39  1  0  0  0  0
 39 34  1  0  0  0  0
 39 35  1  0  0  0  0
 40 37  1  0  0  0  0
M  END
>  <MODEL>
2

>  <REMARK>
 VINA RESULT:      -7.4      3.658      8.707
  Name = 
  7 active torsions:
  status: ('A' for Active; 'I' for Inactive)
    1  A    between atoms: C_10  and  C_20
    2  A    between atoms: N_15  and  C_20
    3  A    between atoms: C_21  and  C_26
    4  A    between atoms: C_22  and  C_31
    5  A    between atoms: C_22  and  C_38
    6  A    between atoms: C_27  and  C_31
    7  A    between atoms: C_33  and  C_35
                            x       y       z     vdW  Elec       q    Type
                         _______ _______ _______ _____ _____    ______ ____

>  <TORSDO>
F 7

$$$$
=
 OpenBabel11042418103D

 40 44  0  0  1  0  0  0  0  0999 V2000
  191.6640  174.0890  141.5670 C   0  0  0  0  0  1  0  0  0  0  0  0
  190.9560  175.4880  144.6260 C   0  0  1  0  0  3  0  0  0  0  0  0
  191.3330  176.4840  146.9000 C   0  0  0  0  0  3  0  0  0  0  0  0
  191.4150  173.1000  143.8410 C   0  0  0  0  0  0  0  0  0  0  0  0
  193.0140  174.9060  143.4190 N   0  0  0  0  0  0  0  0  0  0  0  0
  189.8320  173.5650  145.5590 O   0  0  0  0  0  0  0  0  0  0  0  0
  193.6610  176.7150  146.0760 N   0  0  0  0  0  2  0  0  0  0  0  0
  193.1360  176.9340  144.7180 C   0  0  0  0  0  2  0  0  0  0  0  0
  190.5150  176.2780  145.8520 C   0  0  0  0  0  0  0  0  0  0  0  0
  192.3930  175.7420  144.1880 C   0  0  0  0  0  0  0  0  0  0  0  0
  192.3830  173.7210  142.8570 C   0  0  2  0  0  3  0  0  0  0  0  0
  192.7440  175.9690  146.9550 C   0  0  0  0  0  2  0  0  0  0  0  0
  191.1990  171.7790  143.8900 C   0  0  0  0  0  3  0  0  0  0  0  0
  190.6860  174.0090  144.7440 C   0  0  0  0  0  0  0  0  0  0  0  0
  186.1470  176.5360  147.9380 O   0  0  0  0  0  0  0  0  0  0  0  0
  184.4190  179.4910  143.9930 C   0  0  0  0  0  1  0  0  0  0  0  0
  186.5500  178.2600  143.6000 C   0  0  2  0  0  3  0  0  0  0  0  0
  186.9150  176.8920  147.0050 C   0  0  0  0  0  0  0  0  0  0  0  0
  186.4200  177.6260  145.8850 N   0  0  0  0  0  0  0  0  0  0  0  0
  188.2940  176.5270  147.0260 N   0  0  0  0  0  2  0  0  0  0  0  0
  185.0530  177.5540  145.4150 C   0  0  0  0  0  2  0  0  0  0  0  0
  188.6850  177.5930  144.9000 C   0  0  0  0  0  3  0  0  0  0  0  0
  189.1420  176.8290  145.9040 C   0  0  0  0  0  0  0  0  0  0  0  0
  187.3190  178.2390  144.9260 C   0  0  1  0  0  3  0  0  0  0  0  0
  185.0730  178.1220  143.9970 C   0  0  1  0  0  3  0  0  0  0  0  0
  186.9860  177.1730  142.5940 C   0  0  1  0  0  3  0  0  0  0  0  0
  186.5360  175.7590  142.9590 C   0  0  0  0  0  1  0  0  0  0  0  0
  186.6290  177.5140  141.2340 N   0  0  0  0  0  0  0  0  0  0  0  0
  187.0110  176.8150  140.2240 C   0  0  0  0  0  3  0  0  0  0  0  0
  186.7340  176.1190  137.9820 O   0  0  0  0  0  1  0  0  0  0  0  0
  186.6140  177.2120  138.8420 C   0  0  0  0  0  2  0  0  0  0  0  0
  191.8910  170.7850  143.0070 C   0  0  0  0  0  2  0  0  0  0  0  0
  192.6690  169.7580  143.8210 C   0  0  0  0  0  2  0  0  0  0  0  0
  195.5910  171.9160  144.6330 C   0  0  2  0  0  3  0  0  0  0  0  0
  194.6940  170.8880  142.3790 S   0  0  0  0  0  0  0  0  0  0  0  0
  195.6490  173.2180  145.4110 C   0  0  0  0  0  1  0  0  0  0  0  0
  194.1390  170.1350  143.9300 C   0  0  1  0  0  3  0  0  0  0  0  0
  196.9510  172.1090  142.7360 C   0  0  0  0  0  1  0  0  0  0  0  0
  195.5770  172.1880  143.2010 N   0  0  0  0  0  0  0  0  0  0  0  0
  194.3330  171.1710  145.0030 C   0  0  0  0  0  2  0  0  0  0  0  0
  2 10  1  1  0  0  0
  2 14  1  0  0  0  0
  2  9  1  0  0  0  0
  3 12  1  0  0  0  0
  4 13  2  0  0  0  0
  4 14  1  0  0  0  0
  5 10  2  0  0  0  0
  7 12  1  0  0  0  0
  8  7  1  0  0  0  0
  9 23  1  0  0  0  0
  9  3  2  0  0  0  0
 10  8  1  0  0  0  0
 11  1  1  6  0  0  0
 11  5  1  0  0  0  0
 11  4  1  0  0  0  0
 14  6  2  0  0  0  0
 17 26  1  6  0  0  0
 17 25  1  0  0  0  0
 17 24  1  0  0  0  0
 18 20  1  0  0  0  0
 18 15  2  0  0  0  0
 19 18  1  0  0  0  0
 21 19  1  0  0  0  0
 22 23  2  0  0  0  0
 23 20  1  0  0  0  0
 24 22  1  6  0  0  0
 24 19  1  0  0  0  0
 25 16  1  1  0  0  0
 25 21  1  0  0  0  0
 26 27  1  1  0  0  0
 28 26  1  0  0  0  0
 29 28  2  0  0  0  0
 30 31  1  0  0  0  0
 31 29  1  0  0  0  0
 32 33  1  0  0  0  0
 32 13  1  0  0  0  0
 34 40  1  0  0  0  0
 34 36  1  1  0  0  0
 35 39  1  0  0  0  0
 35 37  1  0  0  0  0
 37 33  1  6  0  0  0
 37 40  1  0  0  0  0
 38 39  1  0  0  0  0
 39 34  1  0  0  0  0
M  END
>  <MODEL>
3

>  <REMARK>
 VINA RESULT:      -7.3      3.249      9.135
  Name = 
  7 active torsions:
  status: ('A' for Active; 'I' for Inactive)
    1  A    between atoms: C_10  and  C_20
    2  A    between atoms: N_15  and  C_20
    3  A    between atoms: C_21  and  C_26
    4  A    between atoms: C_22  and  C_31
    5  A    between atoms: C_22  and  C_38
    6  A    between atoms: C_27  and  C_31
    7  A    between atoms: C_33  and  C_35
                            x       y       z     vdW  Elec       q    Type
                         _______ _______ _______ _____ _____    ______ ____

>  <TORSDO>
F 7

$$$$
=
 OpenBabel11042418103D

 40 44  0  0  1  0  0  0  0  0999 V2000
  192.1600  170.5850  143.6370 C   0  0  0  0  0  1  0  0  0  0  0  0
  192.0250  174.0110  143.8950 C   0  0  1  0  0  3  0  0  0  0  0  0
  192.4970  176.4260  143.3990 C   0  0  0  0  0  3  0  0  0  0  0  0
  193.6190  172.2340  144.8060 C   0  0  0  0  0  0  0  0  0  0  0  0
  193.1680  172.4260  142.4070 N   0  0  0  0  0  0  0  0  0  0  0  0
  193.0510  174.1680  146.0750 O   0  0  0  0  0  0  0  0  0  0  0  0
  193.4000  175.4980  141.2840 N   0  0  0  0  0  2  0  0  0  0  0  0
  192.3800  174.4380  141.3370 C   0  0  0  0  0  2  0  0  0  0  0  0
  191.7180  175.5010  143.9870 C   0  0  0  0  0  0  0  0  0  0  0  0
  192.5350  173.5480  142.5350 C   0  0  0  0  0  0  0  0  0  0  0  0
  193.3720  171.4960  143.5070 C   0  0  2  0  0  3  0  0  0  0  0  0
  193.7220  176.0820  142.5970 C   0  0  0  0  0  2  0  0  0  0  0  0
  194.4170  171.7420  145.7630 C   0  0  0  0  0  3  0  0  0  0  0  0
  192.9270  173.5200  145.0000 C   0  0  0  0  0  0  0  0  0  0  0  0
  188.5790  174.9120  147.6320 O   0  0  0  0  0  0  0  0  0  0  0  0
  185.7140  178.8910  145.8300 C   0  0  0  0  0  1  0  0  0  0  0  0
  187.3900  177.9330  144.2530 C   0  0  2  0  0  3  0  0  0  0  0  0
  188.9440  175.5750  146.6250 C   0  0  0  0  0  0  0  0  0  0  0  0
  188.1170  176.6050  146.0830 N   0  0  0  0  0  0  0  0  0  0  0  0
  190.1770  175.2770  145.9740 N   0  0  0  0  0  2  0  0  0  0  0  0
  186.6750  176.6310  146.2100 C   0  0  0  0  0  2  0  0  0  0  0  0
  189.7920  176.9750  144.3060 C   0  0  0  0  0  3  0  0  0  0  0  0
  190.5370  175.9510  144.7550 C   0  0  0  0  0  0  0  0  0  0  0  0
  188.6160  177.5240  145.0780 C   0  0  1  0  0  3  0  0  0  0  0  0
  186.1860  177.6180  145.1520 C   0  0  1  0  0  3  0  0  0  0  0  0
  187.2890  177.2370  142.8790 C   0  0  1  0  0  3  0  0  0  0  0  0
  186.7220  175.8190  142.9290 C   0  0  0  0  0  1  0  0  0  0  0  0
  186.5980  178.0550  141.9040 N   0  0  0  0  0  0  0  0  0  0  0  0
  185.4030  177.7920  141.5060 C   0  0  0  0  0  3  0  0  0  0  0  0
  183.3610  178.4390  140.5060 O   0  0  0  0  0  1  0  0  0  0  0  0
  184.7380  178.6690  140.4990 C   0  0  0  0  0  2  0  0  0  0  0  0
  195.1550  170.4430  145.6510 C   0  0  0  0  0  2  0  0  0  0  0  0
  196.5880  170.5650  146.1550 C   0  0  0  0  0  2  0  0  0  0  0  0
  197.5350  173.4930  144.0610 C   0  0  2  0  0  3  0  0  0  0  0  0
  196.9890  170.9810  143.4860 S   0  0  0  0  0  0  0  0  0  0  0  0
  196.9340  174.8870  144.0120 C   0  0  0  0  0  1  0  0  0  0  0  0
  197.4440  171.3770  145.1940 C   0  0  1  0  0  3  0  0  0  0  0  0
  197.9410  172.7710  141.8710 C   0  0  0  0  0  1  0  0  0  0  0  0
  197.0010  172.6800  142.9760 N   0  0  0  0  0  0  0  0  0  0  0  0
  197.1850  172.8470  145.3770 C   0  0  0  0  0  2  0  0  0  0  0  0
  2 10  1  6  0  0  0
  2  9  1  0  0  0  0
  2 14  1  0  0  0  0
  3  9  2  0  0  0  0
  4 14  1  0  0  0  0
  4 13  2  0  0  0  0
  5 10  2  0  0  0  0
  5 11  1  0  0  0  0
  7  8  1  0  0  0  0
  7 12  1  0  0  0  0
  8 10  1  0  0  0  0
  9 23  1  0  0  0  0
 11  1  1  1  0  0  0
 11  4  1  0  0  0  0
 12  3  1  0  0  0  0
 14  6  2  0  0  0  0
 17 26  1  6  0  0  0
 17 24  1  0  0  0  0
 17 25  1  0  0  0  0
 18 15  2  0  0  0  0
 19 21  1  0  0  0  0
 19 18  1  0  0  0  0
 20 18  1  0  0  0  0
 22 23  2  0  0  0  0
 23 20  1  0  0  0  0
 24 22  1  6  0  0  0
 24 19  1  0  0  0  0
 25 16  1  1  0  0  0
 25 21  1  0  0  0  0
 26 27  1  1  0  0  0
 28 26  1  0  0  0  0
 29 28  2  0  0  0  0
 31 30  1  0  0  0  0
 31 29  1  0  0  0  0
 32 13  1  0  0  0  0
 32 33  1  0  0  0  0
 34 36  1  1  0  0  0
 34 40  1  0  0  0  0
 35 37  1  0  0  0  0
 37 40  1  0  0  0  0
 37 33  1  1  0  0  0
 38 39  1  0  0  0  0
 39 35  1  0  0  0  0
 39 34  1  0  0  0  0
M  END
>  <MODEL>
4

>  <REMARK>
 VINA RESULT:      -7.2      3.392      9.213
  Name = 
  7 active torsions:
  status: ('A' for Active; 'I' for Inactive)
    1  A    between atoms: C_10  and  C_20
    2  A    between atoms: N_15  and  C_20
    3  A    between atoms: C_21  and  C_26
    4  A    between atoms: C_22  and  C_31
    5  A    between atoms: C_22  and  C_38
    6  A    between atoms: C_27  and  C_31
    7  A    between atoms: C_33  and  C_35
                            x       y       z     vdW  Elec       q    Type
                         _______ _______ _______ _____ _____    ______ ____

>  <TORSDO>
F 7

$$$$
=
 OpenBabel11042418103D

 40 44  0  0  1  0  0  0  0  0999 V2000
  192.3940  174.9180  146.4770 C   0  0  0  0  0  1  0  0  0  0  0  0
  190.2720  174.8540  143.7730 C   0  0  1  0  0  3  0  0  0  0  0  0
  189.1510  174.0300  141.6830 C   0  0  0  0  0  3  0  0  0  0  0  0
  192.7020  175.5780  144.0940 C   0  0  0  0  0  0  0  0  0  0  0  0
  191.9580  173.3240  144.6920 N   0  0  0  0  0  0  0  0  0  0  0  0
  191.2400  176.7390  142.6150 O   0  0  0  0  0  0  0  0  0  0  0  0
  190.1850  171.8750  142.3460 N   0  0  0  0  0  2  0  0  0  0  0  0
  190.0120  172.2500  143.7580 C   0  0  0  0  0  2  0  0  0  0  0  0
  189.1500  174.8600  142.7410 C   0  0  0  0  0  0  0  0  0  0  0  0
  190.8010  173.4710  144.1320 C   0  0  0  0  0  0  0  0  0  0  0  0
  192.7990  174.4430  145.0900 C   0  0  2  0  0  3  0  0  0  0  0  0
  190.2400  173.0250  141.4260 C   0  0  0  0  0  2  0  0  0  0  0  0
  193.7370  176.3880  143.8340 C   0  0  0  0  0  3  0  0  0  0  0  0
  191.4060  175.7860  143.4230 C   0  0  0  0  0  0  0  0  0  0  0  0
  186.5300  178.5930  141.1040 O   0  0  0  0  0  0  0  0  0  0  0  0
  183.8820  178.7300  145.6050 C   0  0  0  0  0  1  0  0  0  0  0  0
  186.0070  177.4280  145.6120 C   0  0  2  0  0  3  0  0  0  0  0  0
  186.7450  177.7480  142.0130 C   0  0  0  0  0  0  0  0  0  0  0  0
  186.0820  177.8400  143.2740 N   0  0  0  0  0  0  0  0  0  0  0  0
  187.6950  176.7030  141.8170 N   0  0  0  0  0  2  0  0  0  0  0  0
  185.5980  179.0810  143.8420 C   0  0  0  0  0  2  0  0  0  0  0  0
  187.3370  175.8570  144.0450 C   0  0  0  0  0  3  0  0  0  0  0  0
  188.0290  175.8130  142.8950 C   0  0  0  0  0  0  0  0  0  0  0  0
  186.1400  176.7590  144.2400 C   0  0  1  0  0  3  0  0  0  0  0  0
  185.3720  178.7960  145.3260 C   0  0  1  0  0  3  0  0  0  0  0  0
  187.3350  177.5540  146.3890 C   0  0  1  0  0  3  0  0  0  0  0  0
  187.3100  178.5810  147.5200 C   0  0  0  0  0  1  0  0  0  0  0  0
  187.8240  176.2700  146.8440 N   0  0  0  0  0  0  0  0  0  0  0  0
  189.0530  176.0760  147.1720 C   0  0  0  0  0  3  0  0  0  0  0  0
  188.9700  173.7420  146.8060 O   0  0  0  0  0  1  0  0  0  0  0  0
  189.5040  174.7310  147.6340 C   0  0  0  0  0  2  0  0  0  0  0  0
  195.0850  176.2530  144.4740 C   0  0  0  0  0  2  0  0  0  0  0  0
  196.1440  175.8240  143.4650 C   0  0  0  0  0  2  0  0  0  0  0  0
  195.8860  172.1350  143.8850 C   0  0  2  0  0  3  0  0  0  0  0  0
  196.5590  174.0820  145.5270 S   0  0  0  0  0  0  0  0  0  0  0  0
  194.7390  171.1970  143.5520 C   0  0  0  0  0  1  0  0  0  0  0  0
  196.6370  174.4120  143.7470 C   0  0  1  0  0  3  0  0  0  0  0  0
  196.7650  171.5380  145.9730 C   0  0  0  0  0  1  0  0  0  0  0  0
  195.8660  172.4650  145.3050 N   0  0  0  0  0  0  0  0  0  0  0  0
  195.7410  173.4030  143.0840 C   0  0  0  0  0  2  0  0  0  0  0  0
  2  9  1  6  0  0  0
  2 10  1  0  0  0  0
  3  9  2  0  0  0  0
  4 11  1  0  0  0  0
  5 11  1  0  0  0  0
  6 14  2  0  0  0  0
  7  8  1  0  0  0  0
  8 10  1  0  0  0  0
  9 23  1  0  0  0  0
 10  5  2  0  0  0  0
 11  1  1  1  0  0  0
 12  3  1  0  0  0  0
 12  7  1  0  0  0  0
 13  4  2  0  0  0  0
 13 32  1  0  0  0  0
 14  2  1  0  0  0  0
 14  4  1  0  0  0  0
 15 18  2  0  0  0  0
 17 26  1  6  0  0  0
 18 19  1  0  0  0  0
 19 21  1  0  0  0  0
 19 24  1  0  0  0  0
 20 18  1  0  0  0  0
 20 23  1  0  0  0  0
 21 25  1  0  0  0  0
 23 22  2  0  0  0  0
 24 22  1  1  0  0  0
 24 17  1  0  0  0  0
 25 16  1  6  0  0  0
 25 17  1  0  0  0  0
 26 28  1  0  0  0  0
 26 27  1  1  0  0  0
 28 29  2  0  0  0  0
 29 31  1  0  0  0  0
 30 31  1  0  0  0  0
 33 32  1  0  0  0  0
 34 36  1  1  0  0  0
 34 39  1  0  0  0  0
 37 33  1  1  0  0  0
 37 35  1  0  0  0  0
 39 35  1  0  0  0  0
 39 38  1  0  0  0  0
 40 37  1  0  0  0  0
 40 34  1  0  0  0  0
M  END
>  <MODEL>
5

>  <REMARK>
 VINA RESULT:      -7.2      2.950      8.899
  Name = 
  7 active torsions:
  status: ('A' for Active; 'I' for Inactive)
    1  A    between atoms: C_10  and  C_20
    2  A    between atoms: N_15  and  C_20
    3  A    between atoms: C_21  and  C_26
    4  A    between atoms: C_22  and  C_31
    5  A    between atoms: C_22  and  C_38
    6  A    between atoms: C_27  and  C_31
    7  A    between atoms: C_33  and  C_35
                            x       y       z     vdW  Elec       q    Type
                         _______ _______ _______ _____ _____    ______ ____

>  <TORSDO>
F 7

$$$$
=
 OpenBabel11042418103D

 40 44  0  0  1  0  0  0  0  0999 V2000
  189.7010  171.9210  145.1680 C   0  0  0  0  0  1  0  0  0  0  0  0
  188.7280  174.0780  142.6740 C   0  0  1  0  0  3  0  0  0  0  0  0
  188.4060  175.0110  140.3650 C   0  0  0  0  0  3  0  0  0  0  0  0
  190.9090  173.7360  143.9600 C   0  0  0  0  0  0  0  0  0  0  0  0
  189.8520  171.8960  142.7400 N   0  0  0  0  0  0  0  0  0  0  0  0
  190.1760  175.9050  143.3040 O   0  0  0  0  0  0  0  0  0  0  0  0
  188.9790  172.6970  139.6820 N   0  0  0  0  0  2  0  0  0  0  0  0
  188.3210  172.1960  140.9000 C   0  0  0  0  0  2  0  0  0  0  0  0
  188.0690  175.0130  141.6670 C   0  0  0  0  0  0  0  0  0  0  0  0
  188.9950  172.6700  142.1550 C   0  0  0  0  0  0  0  0  0  0  0  0
  190.5580  172.2640  143.9570 C   0  0  2  0  0  3  0  0  0  0  0  0
  189.4440  174.0910  139.7860 C   0  0  0  0  0  2  0  0  0  0  0  0
  192.0180  174.2020  144.5500 C   0  0  0  0  0  3  0  0  0  0  0  0
  189.9690  174.6610  143.3030 C   0  0  0  0  0  0  0  0  0  0  0  0
  185.2080  178.8480  140.8890 O   0  0  0  0  0  0  0  0  0  0  0  0
  183.7060  178.7630  145.8910 C   0  0  0  0  0  1  0  0  0  0  0  0
  185.7460  177.4470  145.3280 C   0  0  2  0  0  3  0  0  0  0  0  0
  185.6160  177.9540  141.6780 C   0  0  0  0  0  0  0  0  0  0  0  0
  185.2730  177.9830  143.0630 N   0  0  0  0  0  0  0  0  0  0  0  0
  186.4720  176.9140  141.2090 N   0  0  0  0  0  2  0  0  0  0  0  0
  184.9610  179.1950  143.7910 C   0  0  0  0  0  2  0  0  0  0  0  0
  186.6360  175.9530  143.4130 C   0  0  0  0  0  3  0  0  0  0  0  0
  187.0340  175.9650  142.1310 C   0  0  0  0  0  0  0  0  0  0  0  0
  185.5370  176.8520  143.9310 C   0  0  1  0  0  3  0  0  0  0  0  0
  185.0880  178.8330  145.2690 C   0  0  1  0  0  3  0  0  0  0  0  0
  187.2230  177.5220  145.7730 C   0  0  1  0  0  3  0  0  0  0  0  0
  187.5270  178.6440  146.7640 C   0  0  0  0  0  1  0  0  0  0  0  0
  187.7150  176.2450  146.2420 N   0  0  0  0  0  0  0  0  0  0  0  0
  188.8800  176.1060  146.7720 C   0  0  0  0  0  3  0  0  0  0  0  0
  190.5890  174.8780  147.8470 O   0  0  0  0  0  1  0  0  0  0  0  0
  189.3380  174.7660  147.2390 C   0  0  0  0  0  2  0  0  0  0  0  0
  193.0230  173.3350  145.2450 C   0  0  0  0  0  2  0  0  0  0  0  0
  194.3820  173.3910  144.5570 C   0  0  0  0  0  2  0  0  0  0  0  0
  195.2520  169.9810  145.7690 C   0  0  2  0  0  3  0  0  0  0  0  0
  196.7010  172.1120  145.2240 S   0  0  0  0  0  0  0  0  0  0  0  0
  194.6840  169.1900  146.9350 C   0  0  0  0  0  1  0  0  0  0  0  0
  195.0370  172.0180  144.5140 C   0  0  1  0  0  3  0  0  0  0  0  0
  197.5810  169.7330  145.7560 C   0  0  0  0  0  1  0  0  0  0  0  0
  196.5030  170.6190  146.1610 N   0  0  0  0  0  0  0  0  0  0  0  0
  194.2650  171.0440  145.3610 C   0  0  0  0  0  2  0  0  0  0  0  0
  2  9  1  6  0  0  0
  2 14  1  0  0  0  0
  3  9  2  0  0  0  0
  4 13  2  0  0  0  0
  5 11  1  0  0  0  0
  7 12  1  0  0  0  0
  7  8  1  0  0  0  0
  8 10  1  0  0  0  0
  9 23  1  0  0  0  0
 10  2  1  0  0  0  0
 10  5  2  0  0  0  0
 11  4  1  0  0  0  0
 11  1  1  1  0  0  0
 12  3  1  0  0  0  0
 13 32  1  0  0  0  0
 14  6  2  0  0  0  0
 14  4  1  0  0  0  0
 15 18  2  0  0  0  0
 17 26  1  6  0  0  0
 18 19  1  0  0  0  0
 19 21  1  0  0  0  0
 19 24  1  0  0  0  0
 20 18  1  0  0  0  0
 20 23  1  0  0  0  0
 21 25  1  0  0  0  0
 23 22  2  0  0  0  0
 24 22  1  6  0  0  0
 24 17  1  0  0  0  0
 25 17  1  0  0  0  0
 25 16  1  6  0  0  0
 26 28  1  0  0  0  0
 26 27  1  1  0  0  0
 28 29  2  0  0  0  0
 29 31  1  0  0  0  0
 31 30  1  0  0  0  0
 33 32  1  0  0  0  0
 34 39  1  0  0  0  0
 34 36  1  1  0  0  0
 35 39  1  0  0  0  0
 37 33  1  1  0  0  0
 37 35  1  0  0  0  0
 37 40  1  0  0  0  0
 38 39  1  0  0  0  0
 40 34  1  0  0  0  0
M  END
>  <MODEL>
6

>  <REMARK>
 VINA RESULT:      -7.1      3.227      9.237
  Name = 
  7 active torsions:
  status: ('A' for Active; 'I' for Inactive)
    1  A    between atoms: C_10  and  C_20
    2  A    between atoms: N_15  and  C_20
    3  A    between atoms: C_21  and  C_26
    4  A    between atoms: C_22  and  C_31
    5  A    between atoms: C_22  and  C_38
    6  A    between atoms: C_27  and  C_31
    7  A    between atoms: C_33  and  C_35
                            x       y       z     vdW  Elec       q    Type
                         _______ _______ _______ _____ _____    ______ ____

>  <TORSDO>
F 7

$$$$
=
 OpenBabel11042418103D

 40 44  0  0  1  0  0  0  0  0999 V2000
  188.9790  174.3050  142.2010 C   0  0  0  0  0  1  0  0  0  0  0  0
  191.7450  175.4540  143.8890 C   0  0  1  0  0  3  0  0  0  0  0  0
  193.1780  176.2380  145.7960 C   0  0  0  0  0  3  0  0  0  0  0  0
  189.7040  176.5970  142.8600 C   0  0  0  0  0  0  0  0  0  0  0  0
  189.4590  174.8230  144.5290 N   0  0  0  0  0  0  0  0  0  0  0  0
  191.8600  177.6080  142.8030 O   0  0  0  0  0  0  0  0  0  0  0  0
  191.3620  175.2480  147.1650 N   0  0  0  0  0  2  0  0  0  0  0  0
  191.1650  174.2250  146.1260 C   0  0  0  0  0  2  0  0  0  0  0  0
  193.0870  175.7660  144.5400 C   0  0  0  0  0  0  0  0  0  0  0  0
  190.7210  174.8100  144.8170 C   0  0  0  0  0  0  0  0  0  0  0  0
  188.9300  175.3680  143.2890 C   0  0  2  0  0  3  0  0  0  0  0  0
  191.9790  176.4900  146.6690 C   0  0  0  0  0  2  0  0  0  0  0  0
  189.1240  177.6110  142.2050 C   0  0  0  0  0  3  0  0  0  0  0  0
  191.1450  176.6360  143.1690 C   0  0  0  0  0  0  0  0  0  0  0  0
  197.5110  177.2180  143.1930 O   0  0  0  0  0  0  0  0  0  0  0  0
  197.7650  173.3020  139.7460 C   0  0  0  0  0  1  0  0  0  0  0  0
  195.5030  173.8350  140.6470 C   0  0  2  0  0  3  0  0  0  0  0  0
  196.5810  176.3730  143.0960 C   0  0  0  0  0  0  0  0  0  0  0  0
  196.6130  175.3560  142.0950 N   0  0  0  0  0  0  0  0  0  0  0  0
  195.4480  176.4450  143.9590 N   0  0  0  0  0  2  0  0  0  0  0  0
  197.3090  175.4900  140.8320 C   0  0  0  0  0  2  0  0  0  0  0  0
  194.4140  174.5530  142.8810 C   0  0  0  0  0  3  0  0  0  0  0  0
  194.3320  175.5570  143.7680 C   0  0  0  0  0  0  0  0  0  0  0  0
  195.6790  174.2470  142.1130 C   0  0  1  0  0  3  0  0  0  0  0  0
  196.7350  174.4020  139.9270 C   0  0  1  0  0  3  0  0  0  0  0  0
  194.1830  174.3140  140.0060 C   0  0  1  0  0  3  0  0  0  0  0  0
  194.3620  175.1490  138.7390 C   0  0  0  0  0  1  0  0  0  0  0  0
  193.2510  173.2260  139.8030 N   0  0  0  0  0  0  0  0  0  0  0  0
  192.1120  173.1710  140.4010 C   0  0  0  0  0  3  0  0  0  0  0  0
  191.0940  171.7790  138.7840 O   0  0  0  0  0  1  0  0  0  0  0  0
  191.1890  172.0260  140.1540 C   0  0  0  0  0  2  0  0  0  0  0  0
  187.6690  177.6510  141.8460 C   0  0  0  0  0  2  0  0  0  0  0  0
  186.8780  178.5290  142.8080 C   0  0  0  0  0  2  0  0  0  0  0  0
  184.8320  177.8610  145.8440 C   0  0  2  0  0  3  0  0  0  0  0  0
  187.4300  177.9170  145.4120 S   0  0  0  0  0  0  0  0  0  0  0  0
  183.7050  178.6770  146.4550 C   0  0  0  0  0  1  0  0  0  0  0  0
  186.3390  177.7210  143.9790 C   0  0  1  0  0  3  0  0  0  0  0  0
  186.2320  177.1070  147.5630 C   0  0  0  0  0  1  0  0  0  0  0  0
  186.0810  178.1320  146.5440 N   0  0  0  0  0  0  0  0  0  0  0  0
  184.9890  178.2390  144.3930 C   0  0  0  0  0  2  0  0  0  0  0  0
  2 14  1  1  0  0  0
  2  9  1  0  0  0  0
  2 10  1  0  0  0  0
  3 12  1  0  0  0  0
  4 14  1  0  0  0  0
  4 11  1  0  0  0  0
  5 10  2  0  0  0  0
  6 14  2  0  0  0  0
  8  7  1  0  0  0  0
  9  3  2  0  0  0  0
 10  8  1  0  0  0  0
 11  1  1  6  0  0  0
 11  5  1  0  0  0  0
 12  7  1  0  0  0  0
 13  4  2  0  0  0  0
 17 26  1  6  0  0  0
 17 24  1  0  0  0  0
 18 15  2  0  0  0  0
 18 20  1  0  0  0  0
 19 24  1  0  0  0  0
 19 18  1  0  0  0  0
 21 19  1  0  0  0  0
 22 23  2  0  0  0  0
 23 20  1  0  0  0  0
 23  9  1  0  0  0  0
 24 22  1  6  0  0  0
 25 16  1  1  0  0  0
 25 17  1  0  0  0  0
 25 21  1  0  0  0  0
 26 27  1  6  0  0  0
 28 26  1  0  0  0  0
 28 29  2  0  0  0  0
 30 31  1  0  0  0  0
 31 29  1  0  0  0  0
 32 13  1  0  0  0  0
 32 33  1  0  0  0  0
 34 36  1  1  0  0  0
 34 39  1  0  0  0  0
 35 39  1  0  0  0  0
 37 33  1  6  0  0  0
 37 40  1  0  0  0  0
 37 35  1  0  0  0  0
 39 38  1  0  0  0  0
 40 34  1  0  0  0  0
M  END
>  <MODEL>
7

>  <REMARK>
 VINA RESULT:      -7.1      2.934      5.016
  Name = 
  7 active torsions:
  status: ('A' for Active; 'I' for Inactive)
    1  A    between atoms: C_10  and  C_20
    2  A    between atoms: N_15  and  C_20
    3  A    between atoms: C_21  and  C_26
    4  A    between atoms: C_22  and  C_31
    5  A    between atoms: C_22  and  C_38
    6  A    between atoms: C_27  and  C_31
    7  A    between atoms: C_33  and  C_35
                            x       y       z     vdW  Elec       q    Type
                         _______ _______ _______ _____ _____    ______ ____

>  <TORSDO>
F 7

$$$$
=
 OpenBabel11042418103D

 40 44  0  0  1  0  0  0  0  0999 V2000
  189.7280  171.9990  144.9850 C   0  0  0  0  0  1  0  0  0  0  0  0
  188.5310  174.2700  142.6980 C   0  0  1  0  0  3  0  0  0  0  0  0
  188.0200  175.3250  140.4780 C   0  0  0  0  0  3  0  0  0  0  0  0
  190.8080  173.9080  143.8000 C   0  0  0  0  0  0  0  0  0  0  0  0
  189.7000  172.1160  142.5550 N   0  0  0  0  0  0  0  0  0  0  0  0
  189.9850  176.0930  143.3270 O   0  0  0  0  0  0  0  0  0  0  0  0
  188.5870  173.0670  139.6210 N   0  0  0  0  0  2  0  0  0  0  0  0
  188.0320  172.4830  140.8520 C   0  0  0  0  0  2  0  0  0  0  0  0
  187.7800  175.2450  141.7990 C   0  0  0  0  0  0  0  0  0  0  0  0
  188.7870  172.9010  142.0810 C   0  0  0  0  0  0  0  0  0  0  0  0
  190.4860  172.4310  143.7370 C   0  0  2  0  0  3  0  0  0  0  0  0
  189.0310  174.4640  139.7720 C   0  0  0  0  0  2  0  0  0  0  0  0
  191.9470  174.3670  144.3350 C   0  0  0  0  0  3  0  0  0  0  0  0
  189.8030  174.8470  143.2680 C   0  0  0  0  0  0  0  0  0  0  0  0
  184.7680  179.0250  141.4440 O   0  0  0  0  0  0  0  0  0  0  0  0
  183.6920  178.6680  146.5430 C   0  0  0  0  0  1  0  0  0  0  0  0
  185.7100  177.4400  145.7510 C   0  0  2  0  0  3  0  0  0  0  0  0
  185.2630  178.1080  142.1520 C   0  0  0  0  0  0  0  0  0  0  0  0
  185.0360  178.0640  143.5610 N   0  0  0  0  0  0  0  0  0  0  0  0
  186.1030  177.1170  141.5650 N   0  0  0  0  0  2  0  0  0  0  0  0
  184.7560  179.2320  144.3690 C   0  0  0  0  0  2  0  0  0  0  0  0
  186.4750  176.0610  143.6990 C   0  0  0  0  0  3  0  0  0  0  0  0
  186.7650  176.1430  142.3910 C   0  0  0  0  0  0  0  0  0  0  0  0
  185.4010  176.9030  144.3490 C   0  0  1  0  0  3  0  0  0  0  0  0
  185.0150  178.8070  145.8130 C   0  0  1  0  0  3  0  0  0  0  0  0
  187.2170  177.5380  146.0750 C   0  0  1  0  0  3  0  0  0  0  0  0
  187.5800  178.6490  147.0590 C   0  0  0  0  0  1  0  0  0  0  0  0
  187.7700  176.2630  146.4800 N   0  0  0  0  0  0  0  0  0  0  0  0
  188.9980  176.1270  146.8400 C   0  0  0  0  0  3  0  0  0  0  0  0
  190.8160  174.9160  147.7460 O   0  0  0  0  0  1  0  0  0  0  0  0
  189.5180  174.7890  147.2470 C   0  0  0  0  0  2  0  0  0  0  0  0
  193.0180  173.4870  144.9030 C   0  0  0  0  0  2  0  0  0  0  0  0
  193.8870  174.2360  145.9060 C   0  0  0  0  0  2  0  0  0  0  0  0
  196.7260  175.5600  143.8950 C   0  0  2  0  0  3  0  0  0  0  0  0
  195.5980  173.1850  144.0550 S   0  0  0  0  0  0  0  0  0  0  0  0
  196.7960  176.7910  143.0080 C   0  0  0  0  0  1  0  0  0  0  0  0
  195.3260  174.3430  145.4210 C   0  0  1  0  0  3  0  0  0  0  0  0
  197.7860  173.7820  142.8010 C   0  0  0  0  0  1  0  0  0  0  0  0
  196.4890  174.3720  143.0840 N   0  0  0  0  0  0  0  0  0  0  0  0
  195.5920  175.7190  144.8760 C   0  0  0  0  0  2  0  0  0  0  0  0
  2  9  1  6  0  0  0
  2 14  1  0  0  0  0
  3  9  2  0  0  0  0
  4 13  2  0  0  0  0
  5 11  1  0  0  0  0
  7 12  1  0  0  0  0
  7  8  1  0  0  0  0
  8 10  1  0  0  0  0
  9 23  1  0  0  0  0
 10  5  2  0  0  0  0
 10  2  1  0  0  0  0
 11  4  1  0  0  0  0
 11  1  1  1  0  0  0
 12  3  1  0  0  0  0
 13 32  1  0  0  0  0
 14  6  2  0  0  0  0
 14  4  1  0  0  0  0
 15 18  2  0  0  0  0
 17 25  1  0  0  0  0
 17 26  1  6  0  0  0
 18 19  1  0  0  0  0
 19 24  1  0  0  0  0
 19 21  1  0  0  0  0
 20 18  1  0  0  0  0
 20 23  1  0  0  0  0
 21 25  1  0  0  0  0
 23 22  2  0  0  0  0
 24 22  1  6  0  0  0
 24 17  1  0  0  0  0
 25 16  1  1  0  0  0
 26 28  1  0  0  0  0
 26 27  1  1  0  0  0
 28 29  2  0  0  0  0
 29 31  1  0  0  0  0
 31 30  1  0  0  0  0
 32 33  1  0  0  0  0
 34 36  1  6  0  0  0
 34 40  1  0  0  0  0
 35 37  1  0  0  0  0
 37 33  1  6  0  0  0
 38 39  1  0  0  0  0
 39 34  1  0  0  0  0
 39 35  1  0  0  0  0
 40 37  1  0  0  0  0
M  END
>  <MODEL>
8

>  <REMARK>
 VINA RESULT:      -7.1      3.029      8.947
  Name = 
  7 active torsions:
  status: ('A' for Active; 'I' for Inactive)
    1  A    between atoms: C_10  and  C_20
    2  A    between atoms: N_15  and  C_20
    3  A    between atoms: C_21  and  C_26
    4  A    between atoms: C_22  and  C_31
    5  A    between atoms: C_22  and  C_38
    6  A    between atoms: C_27  and  C_31
    7  A    between atoms: C_33  and  C_35
                            x       y       z     vdW  Elec       q    Type
                         _______ _______ _______ _____ _____    ______ ____

>  <TORSDO>
F 7

$$$$
=
 OpenBabel11042418103D

 40 44  0  0  1  0  0  0  0  0999 V2000
  193.2530  171.6350  144.1980 C   0  0  0  0  0  1  0  0  0  0  0  0
  191.1880  172.8660  141.7410 C   0  0  1  0  0  3  0  0  0  0  0  0
  189.9630  173.0120  139.5540 C   0  0  0  0  0  3  0  0  0  0  0  0
  193.7030  173.0070  142.1660 C   0  0  0  0  0  0  0  0  0  0  0  0
  192.5620  170.8480  142.0020 N   0  0  0  0  0  0  0  0  0  0  0  0
  192.4910  174.8370  141.2420 O   0  0  0  0  0  0  0  0  0  0  0  0
  190.5870  170.6170  139.3950 N   0  0  0  0  0  2  0  0  0  0  0  0
  190.4660  170.5100  140.8580 C   0  0  0  0  0  2  0  0  0  0  0  0
  190.0980  173.4170  140.8290 C   0  0  0  0  0  0  0  0  0  0  0  0
  191.4560  171.3750  141.5830 C   0  0  0  0  0  0  0  0  0  0  0  0
  193.5840  171.6010  142.7130 C   0  0  2  0  0  3  0  0  0  0  0  0
  190.8570  171.9840  138.9180 C   0  0  0  0  0  2  0  0  0  0  0  0
  194.8690  173.6660  142.1450 C   0  0  0  0  0  3  0  0  0  0  0  0
  192.4740  173.6520  141.6710 C   0  0  0  0  0  0  0  0  0  0  0  0
  186.8770  176.9630  140.0920 O   0  0  0  0  0  0  0  0  0  0  0  0
  186.7790  177.9630  145.2180 C   0  0  0  0  0  1  0  0  0  0  0  0
  188.6790  176.5730  144.4000 C   0  0  2  0  0  3  0  0  0  0  0  0
  187.5420  176.2670  140.9050 C   0  0  0  0  0  0  0  0  0  0  0  0
  187.5810  176.5960  142.2940 N   0  0  0  0  0  0  0  0  0  0  0  0
  188.3100  175.1570  140.4450 N   0  0  0  0  0  2  0  0  0  0  0  0
  187.3940  177.9350  142.8100 C   0  0  0  0  0  2  0  0  0  0  0  0
  189.1240  174.7040  142.6680 C   0  0  0  0  0  3  0  0  0  0  0  0
  189.1630  174.4380  141.3520 C   0  0  0  0  0  0  0  0  0  0  0  0
  188.1450  175.6840  143.2710 C   0  0  1  0  0  3  0  0  0  0  0  0
  187.9360  177.9070  144.2380 C   0  0  1  0  0  3  0  0  0  0  0  0
  190.2120  176.7560  144.3930 C   0  0  1  0  0  3  0  0  0  0  0  0
  190.6800  178.1520  143.9840 C   0  0  0  0  0  1  0  0  0  0  0  0
  190.8160  176.3330  145.6380 N   0  0  0  0  0  0  0  0  0  0  0  0
  190.4860  176.8410  146.7730 C   0  0  0  0  0  3  0  0  0  0  0  0
  191.5110  177.4610  148.8110 O   0  0  0  0  0  1  0  0  0  0  0  0
  191.1410  176.3670  148.0270 C   0  0  0  0  0  2  0  0  0  0  0  0
  196.1640  173.0910  142.6320 C   0  0  0  0  0  2  0  0  0  0  0  0
  197.1850  174.1820  142.9330 C   0  0  0  0  0  2  0  0  0  0  0  0
  195.0580  175.2030  145.8110 C   0  0  2  0  0  3  0  0  0  0  0  0
  195.9530  176.4960  143.6970 S   0  0  0  0  0  0  0  0  0  0  0  0
  193.8050  174.5530  146.3710 C   0  0  0  0  0  1  0  0  0  0  0  0
  196.8030  174.9700  144.1770 C   0  0  1  0  0  3  0  0  0  0  0  0
  194.7370  177.5220  145.7430 C   0  0  0  0  0  1  0  0  0  0  0  0
  194.6980  176.3130  144.9370 N   0  0  0  0  0  0  0  0  0  0  0  0
  195.8340  174.1840  145.0160 C   0  0  0  0  0  2  0  0  0  0  0  0
  2  9  1  6  0  0  0
  3  9  2  0  0  0  0
  4 11  1  0  0  0  0
  5 11  1  0  0  0  0
  6 14  2  0  0  0  0
  7  8  1  0  0  0  0
  8 10  1  0  0  0  0
  9 23  1  0  0  0  0
 10  2  1  0  0  0  0
 10  5  2  0  0  0  0
 11  1  1  1  0  0  0
 12  7  1  0  0  0  0
 12  3  1  0  0  0  0
 13  4  2  0  0  0  0
 13 32  1  0  0  0  0
 14  2  1  0  0  0  0
 14  4  1  0  0  0  0
 15 18  2  0  0  0  0
 17 26  1  6  0  0  0
 18 19  1  0  0  0  0
 19 21  1  0  0  0  0
 19 24  1  0  0  0  0
 20 18  1  0  0  0  0
 20 23  1  0  0  0  0
 21 25  1  0  0  0  0
 23 22  2  0  0  0  0
 24 22  1  6  0  0  0
 24 17  1  0  0  0  0
 25 17  1  0  0  0  0
 25 16  1  1  0  0  0
 26 27  1  1  0  0  0
 26 28  1  0  0  0  0
 28 29  2  0  0  0  0
 29 31  1  0  0  0  0
 31 30  1  0  0  0  0
 32 33  1  0  0  0  0
 34 36  1  6  0  0  0
 35 37  1  0  0  0  0
 35 39  1  0  0  0  0
 37 33  1  6  0  0  0
 37 40  1  0  0  0  0
 39 38  1  0  0  0  0
 39 34  1  0  0  0  0
 40 34  1  0  0  0  0
M  END
>  <MODEL>
9

>  <REMARK>
 VINA RESULT:      -7.0      2.954      7.946
  Name = 
  7 active torsions:
  status: ('A' for Active; 'I' for Inactive)
    1  A    between atoms: C_10  and  C_20
    2  A    between atoms: N_15  and  C_20
    3  A    between atoms: C_21  and  C_26
    4  A    between atoms: C_22  and  C_31
    5  A    between atoms: C_22  and  C_38
    6  A    between atoms: C_27  and  C_31
    7  A    between atoms: C_33  and  C_35
                            x       y       z     vdW  Elec       q    Type
                         _______ _______ _______ _____ _____    ______ ____

>  <TORSDO>
F 7

$$$$
