=
 OpenBabel11042418293D

 30 32  0  0  1  0  0  0  0  0999 V2000
  190.4530  176.1260  144.0450 C   0  0  0  0  0  0  0  0  0  0  0  0
  193.8190  176.3870  144.2100 C   0  0  0  0  0  3  0  0  0  0  0  0
  191.8860  176.4150  145.7310 C   0  0  2  0  0  3  0  0  0  0  0  0
  191.4820  176.6690  143.4710 N   0  0  0  0  0  0  0  0  0  0  0  0
  192.7450  176.0200  146.8520 C   0  0  0  0  0  3  0  0  0  0  0  0
  194.5790  175.8900  145.2080 C   0  0  0  0  0  0  0  0  0  0  0  0
  194.0390  175.7980  146.5920 C   0  0  0  0  0  3  0  0  0  0  0  0
  190.6750  175.9480  145.4770 C   0  0  2  0  0  3  0  0  0  0  0  0
  192.4700  176.9960  144.4900 C   0  0  2  0  0  3  0  0  0  0  0  0
  188.3110  176.5740  142.9740 C   0  0  0  0  0  3  0  0  0  0  0  0
  189.1080  174.3540  142.9460 O   0  0  0  0  0  1  0  0  0  0  0  0
  189.2550  175.6920  143.3010 C   0  0  0  0  0  0  0  0  0  0  0  0
  187.0770  176.1770  142.2360 C   0  0  0  0  0  2  0  0  0  0  0  0
  186.6610  176.6290  139.6230 O   0  0  0  0  0  0  0  0  0  0  0  0
  186.7350  177.3500  140.9410 S   0  0  0  0  0  0  0  0  0  0  0  0
  187.8290  178.3790  140.8910 O   0  0  0  0  0  0  0  0  0  0  0  0
  185.2220  178.1200  141.2730 N   0  0  0  0  0  2  0  0  0  0  0  0
  184.9690  178.0020  142.6990 C   0  0  0  0  0  2  0  0  0  0  0  0
  185.4580  179.2500  143.4040 C   0  0  0  0  0  1  0  0  0  0  0  0
  195.8730  175.4170  144.9690 O   0  0  0  0  0  0  0  0  0  0  0  0
  196.5860  175.6840  143.7680 C   0  0  0  0  0  1  0  0  0  0  0  0
  189.8570  175.1100  146.4030 C   0  0  0  0  0  2  0  0  0  0  0  0
  188.5080  175.6410  146.4790 N   0  0  0  0  0  2  0  0  0  0  0  0
  188.6250  176.9770  146.8840 N   0  0  0  0  0  2  0  0  0  0  0  0
  186.3330  176.6170  146.1640 C   0  0  0  0  0  3  0  0  0  0  0  0
  185.6300  178.7210  147.8350 N   0  0  0  0  0  0  0  0  0  0  0  0
  187.3780  177.6370  146.5410 C   0  0  1  0  0  3  0  0  0  0  0  0
  185.0350  176.9170  146.3110 C   0  0  0  0  0  3  0  0  0  0  0  0
  186.8880  178.4510  147.7120 C   0  0  0  0  0  3  0  0  0  0  0  0
  184.6570  178.2740  146.8510 C   0  0  0  0  0  2  0  0  0  0  0  0
  1  8  1  0  0  0  0
  2  6  2  0  0  0  0
  3  5  1  6  0  0  0
  4  1  2  0  0  0  0
  4  9  1  0  0  0  0
  6  7  1  0  0  0  0
  7  5  2  0  0  0  0
  8  3  1  0  0  0  0
  8 22  1  6  0  0  0
  9  2  1  6  0  0  0
  9  3  1  0  0  0  0
 10 12  2  0  0  0  0
 11 12  1  0  0  0  0
 12  1  1  0  0  0  0
 13 10  1  0  0  0  0
 14 15  2  0  0  0  0
 15 17  1  0  0  0  0
 15 13  1  0  0  0  0
 16 15  2  0  0  0  0
 17 18  1  0  0  0  0
 18 19  1  0  0  0  0
 20  6  1  0  0  0  0
 21 20  1  0  0  0  0
 22 23  1  0  0  0  0
 23 24  1  0  0  0  0
 25 28  2  0  0  0  0
 25 27  1  0  0  0  0
 27 24  1  1  0  0  0
 27 29  1  0  0  0  0
 28 30  1  0  0  0  0
 29 26  2  0  0  0  0
 30 26  1  0  0  0  0
M  END
>  <MODEL>
1

>  <REMARK>
 VINA RESULT:      -6.5      0.000      0.000
  Name = 
  10 active torsions:
  status: ('A' for Active; 'I' for Inactive)
    1  A    between atoms: C_1  and  C_25
    2  A    between atoms: N_4  and  C_5
    3  A    between atoms: N_4  and  S_22
    4  A    between atoms: O_6  and  C_19
    5  A    between atoms: C_7  and  C_17
    6  A    between atoms: N_8  and  N_10
    7  A    between atoms: N_8  and  C_15
    8  A    between atoms: N_10  and  C_13
    9  A    between atoms: C_15  and  C_27
   10  A    between atoms: C_17  and  S_22
                            x       y       z     vdW  Elec       q    Type
                         _______ _______ _______ _____ _____    ______ ____

>  <TORSDO>
F 10

$$$$
=
 OpenBabel11042418293D

 30 32  0  0  1  0  0  0  0  0999 V2000
  190.1480  176.1790  144.0500 C   0  0  0  0  0  0  0  0  0  0  0  0
  193.5210  176.3860  144.0750 C   0  0  0  0  0  3  0  0  0  0  0  0
  191.6540  176.4470  145.6740 C   0  0  2  0  0  3  0  0  0  0  0  0
  191.1610  176.7040  143.4320 N   0  0  0  0  0  0  0  0  0  0  0  0
  192.5530  176.0400  146.7590 C   0  0  0  0  0  3  0  0  0  0  0  0
  194.3140  175.8780  145.0420 C   0  0  0  0  0  0  0  0  0  0  0  0
  193.8310  175.7960  146.4470 C   0  0  0  0  0  3  0  0  0  0  0  0
  190.4260  176.0000  145.4710 C   0  0  2  0  0  3  0  0  0  0  0  0
  192.1960  177.0170  144.4090 C   0  0  2  0  0  3  0  0  0  0  0  0
  187.9840  176.6650  143.0410 C   0  0  0  0  0  3  0  0  0  0  0  0
  188.7170  174.4230  143.0390 O   0  0  0  0  0  1  0  0  0  0  0  0
  188.9140  175.7640  143.3570 C   0  0  0  0  0  0  0  0  0  0  0  0
  186.7150  176.2880  142.3540 C   0  0  0  0  0  2  0  0  0  0  0  0
  186.4670  178.9540  142.5400 O   0  0  0  0  0  0  0  0  0  0  0  0
  185.7530  177.7440  142.0050 S   0  0  0  0  0  0  0  0  0  0  0  0
  184.4040  177.6250  142.6570 O   0  0  0  0  0  0  0  0  0  0  0  0
  185.5630  177.8880  140.2900 N   0  0  0  0  0  2  0  0  0  0  0  0
  186.7810  177.3970  139.6680 C   0  0  0  0  0  2  0  0  0  0  0  0
  186.4290  176.5940  138.4340 C   0  0  0  0  0  1  0  0  0  0  0  0
  195.5890  175.3840  144.7500 O   0  0  0  0  0  0  0  0  0  0  0  0
  196.2440  174.4070  145.5510 C   0  0  0  0  0  1  0  0  0  0  0  0
  189.6330  175.1760  146.4320 C   0  0  0  0  0  2  0  0  0  0  0  0
  188.2880  175.7100  146.5380 N   0  0  0  0  0  2  0  0  0  0  0  0
  188.4120  177.0220  147.0120 N   0  0  0  0  0  2  0  0  0  0  0  0
  186.1840  176.7840  146.0740 C   0  0  0  0  0  3  0  0  0  0  0  0
  185.4160  178.8660  147.7420 N   0  0  0  0  0  0  0  0  0  0  0  0
  187.2300  177.7460  146.5780 C   0  0  1  0  0  3  0  0  0  0  0  0
  184.8910  177.1360  146.1120 C   0  0  0  0  0  3  0  0  0  0  0  0
  186.6680  178.5460  147.7260 C   0  0  0  0  0  3  0  0  0  0  0  0
  184.5210  178.4920  146.6600 C   0  0  0  0  0  2  0  0  0  0  0  0
  1  8  1  0  0  0  0
  2  6  2  0  0  0  0
  3  5  1  6  0  0  0
  4  1  2  0  0  0  0
  4  9  1  0  0  0  0
  6  7  1  0  0  0  0
  7  5  2  0  0  0  0
  8  3  1  0  0  0  0
  8 22  1  6  0  0  0
  9  2  1  6  0  0  0
  9  3  1  0  0  0  0
 10 12  2  0  0  0  0
 11 12  1  0  0  0  0
 12  1  1  0  0  0  0
 13 10  1  0  0  0  0
 15 13  1  0  0  0  0
 15 14  2  0  0  0  0
 15 16  2  0  0  0  0
 17 15  1  0  0  0  0
 18 17  1  0  0  0  0
 19 18  1  0  0  0  0
 20  6  1  0  0  0  0
 20 21  1  0  0  0  0
 22 23  1  0  0  0  0
 23 24  1  0  0  0  0
 25 28  2  0  0  0  0
 25 27  1  0  0  0  0
 27 24  1  1  0  0  0
 27 29  1  0  0  0  0
 28 30  1  0  0  0  0
 29 26  2  0  0  0  0
 30 26  1  0  0  0  0
M  END
>  <MODEL>
2

>  <REMARK>
 VINA RESULT:      -6.5      1.339      1.686
  Name = 
  10 active torsions:
  status: ('A' for Active; 'I' for Inactive)
    1  A    between atoms: C_1  and  C_25
    2  A    between atoms: N_4  and  C_5
    3  A    between atoms: N_4  and  S_22
    4  A    between atoms: O_6  and  C_19
    5  A    between atoms: C_7  and  C_17
    6  A    between atoms: N_8  and  N_10
    7  A    between atoms: N_8  and  C_15
    8  A    between atoms: N_10  and  C_13
    9  A    between atoms: C_15  and  C_27
   10  A    between atoms: C_17  and  S_22
                            x       y       z     vdW  Elec       q    Type
                         _______ _______ _______ _____ _____    ______ ____

>  <TORSDO>
F 10

$$$$
=
 OpenBabel11042418293D

 30 32  0  0  1  0  0  0  0  0999 V2000
  187.7540  175.8940  142.1800 C   0  0  0  0  0  0  0  0  0  0  0  0
  189.4720  173.1090  143.0280 C   0  0  0  0  0  3  0  0  0  0  0  0
  189.9000  175.3050  142.0070 C   0  0  2  0  0  3  0  0  0  0  0  0
  187.7060  174.5970  142.1590 N   0  0  0  0  0  0  0  0  0  0  0  0
  191.3110  175.2270  142.3970 C   0  0  0  0  0  3  0  0  0  0  0  0
  190.7340  173.1020  143.5060 C   0  0  0  0  0  0  0  0  0  0  0  0
  191.7030  174.1530  143.0920 C   0  0  0  0  0  3  0  0  0  0  0  0
  189.1280  176.3760  142.0870 C   0  0  2  0  0  3  0  0  0  0  0  0
  189.0530  174.0800  141.9560 C   0  0  2  0  0  3  0  0  0  0  0  0
  185.9120  176.7670  143.5130 C   0  0  0  0  0  3  0  0  0  0  0  0
  186.0940  177.5020  141.2790 O   0  0  0  0  0  1  0  0  0  0  0  0
  186.5560  176.7380  142.3470 C   0  0  0  0  0  0  0  0  0  0  0  0
  184.6890  177.5940  143.7230 C   0  0  0  0  0  2  0  0  0  0  0  0
  183.6320  179.0890  145.6850 O   0  0  0  0  0  0  0  0  0  0  0  0
  184.9520  178.7500  145.0510 S   0  0  0  0  0  0  0  0  0  0  0  0
  185.5880  180.0000  144.5120 O   0  0  0  0  0  0  0  0  0  0  0  0
  185.9950  178.0220  146.2240 N   0  0  0  0  0  2  0  0  0  0  0  0
  185.5010  178.3850  147.5420 C   0  0  0  0  0  2  0  0  0  0  0  0
  186.3350  179.5200  148.0980 C   0  0  0  0  0  1  0  0  0  0  0  0
  191.1560  172.1370  144.4260 O   0  0  0  0  0  0  0  0  0  0  0  0
  192.5010  171.6800  144.5080 C   0  0  0  0  0  1  0  0  0  0  0  0
  189.6000  177.7650  142.3660 C   0  0  0  0  0  2  0  0  0  0  0  0
  190.1970  177.8220  143.6880 N   0  0  0  0  0  2  0  0  0  0  0  0
  189.1390  177.9050  144.6030 N   0  0  0  0  0  2  0  0  0  0  0  0
  188.7850  175.8170  145.7940 C   0  0  0  0  0  3  0  0  0  0  0  0
  191.5010  175.8540  146.3710 N   0  0  0  0  0  0  0  0  0  0  0  0
  189.5240  177.1320  145.7710 C   0  0  1  0  0  3  0  0  0  0  0  0
  189.3230  174.7710  146.4370 C   0  0  0  0  0  3  0  0  0  0  0  0
  191.0100  176.8750  145.7490 C   0  0  0  0  0  3  0  0  0  0  0  0
  190.6550  174.9410  147.1220 C   0  0  0  0  0  2  0  0  0  0  0  0
  1 12  1  0  0  0  0
  2  6  2  0  0  0  0
  3  8  1  0  0  0  0
  3  5  1  1  0  0  0
  4  1  2  0  0  0  0
  5  7  2  0  0  0  0
  6 20  1  0  0  0  0
  7  6  1  0  0  0  0
  8  1  1  0  0  0  0
  8 22  1  1  0  0  0
  9  3  1  0  0  0  0
  9  4  1  0  0  0  0
  9  2  1  1  0  0  0
 10 13  1  0  0  0  0
 11 12  1  0  0  0  0
 12 10  2  0  0  0  0
 13 15  1  0  0  0  0
 15 14  2  0  0  0  0
 15 17  1  0  0  0  0
 16 15  2  0  0  0  0
 17 18  1  0  0  0  0
 18 19  1  0  0  0  0
 20 21  1  0  0  0  0
 22 23  1  0  0  0  0
 23 24  1  0  0  0  0
 25 28  2  0  0  0  0
 26 30  1  0  0  0  0
 27 24  1  6  0  0  0
 27 25  1  0  0  0  0
 28 30  1  0  0  0  0
 29 27  1  0  0  0  0
 29 26  2  0  0  0  0
M  END
>  <MODEL>
3

>  <REMARK>
 VINA RESULT:      -6.2      2.699      4.712
  Name = 
  10 active torsions:
  status: ('A' for Active; 'I' for Inactive)
    1  A    between atoms: C_1  and  C_25
    2  A    between atoms: N_4  and  C_5
    3  A    between atoms: N_4  and  S_22
    4  A    between atoms: O_6  and  C_19
    5  A    between atoms: C_7  and  C_17
    6  A    between atoms: N_8  and  N_10
    7  A    between atoms: N_8  and  C_15
    8  A    between atoms: N_10  and  C_13
    9  A    between atoms: C_15  and  C_27
   10  A    between atoms: C_17  and  S_22
                            x       y       z     vdW  Elec       q    Type
                         _______ _______ _______ _____ _____    ______ ____

>  <TORSDO>
F 10

$$$$
=
 OpenBabel11042418293D

 30 32  0  0  1  0  0  0  0  0999 V2000
  187.4690  177.8050  144.4280 C   0  0  0  0  0  0  0  0  0  0  0  0
  184.4000  178.6120  143.2640 C   0  0  0  0  0  3  0  0  0  0  0  0
  186.7000  178.3970  142.4190 C   0  0  2  0  0  3  0  0  0  0  0  0
  186.3970  178.4800  144.7080 N   0  0  0  0  0  0  0  0  0  0  0  0
  186.1950  178.1970  141.0570 C   0  0  0  0  0  3  0  0  0  0  0  0
  183.9350  178.2900  142.0390 C   0  0  0  0  0  0  0  0  0  0  0  0
  184.8680  178.1740  140.8850 C   0  0  0  0  0  3  0  0  0  0  0  0
  187.6900  177.7310  142.9870 C   0  0  2  0  0  3  0  0  0  0  0  0
  185.8380  179.0080  143.4690 C   0  0  2  0  0  3  0  0  0  0  0  0
  189.5450  177.5630  145.6810 C   0  0  0  0  0  3  0  0  0  0  0  0
  187.7730  176.0940  146.1980 O   0  0  0  0  0  1  0  0  0  0  0  0
  188.2970  177.1510  145.4590 C   0  0  0  0  0  0  0  0  0  0  0  0
  190.4220  176.9220  146.7020 C   0  0  0  0  0  2  0  0  0  0  0  0
  192.0730  176.8660  144.5880 O   0  0  0  0  0  0  0  0  0  0  0  0
  191.8490  176.2030  145.9190 S   0  0  0  0  0  0  0  0  0  0  0  0
  191.6260  174.7310  145.7180 O   0  0  0  0  0  0  0  0  0  0  0  0
  193.2270  176.4530  146.9360 N   0  0  0  0  0  2  0  0  0  0  0  0
  194.3890  176.6060  146.0760 C   0  0  0  0  0  2  0  0  0  0  0  0
  195.1330  175.2890  145.9940 C   0  0  0  0  0  1  0  0  0  0  0  0
  182.5800  178.0210  141.8240 O   0  0  0  0  0  0  0  0  0  0  0  0
  181.9460  178.1940  140.5630 C   0  0  0  0  0  1  0  0  0  0  0  0
  188.6360  176.8150  142.2830 C   0  0  0  0  0  2  0  0  0  0  0  0
  188.0960  175.4680  142.2740 N   0  0  0  0  0  2  0  0  0  0  0  0
  188.5960  174.8430  141.1240 N   0  0  0  0  0  2  0  0  0  0  0  0
  189.0500  173.1740  142.8310 C   0  0  0  0  0  3  0  0  0  0  0  0
  190.1010  171.5950  140.8020 N   0  0  0  0  0  0  0  0  0  0  0  0
  189.5420  173.8330  141.5660 C   0  0  1  0  0  3  0  0  0  0  0  0
  189.4520  171.9290  143.1240 C   0  0  0  0  0  3  0  0  0  0  0  0
  189.7200  172.7900  140.4910 C   0  0  0  0  0  3  0  0  0  0  0  0
  190.3900  171.2230  142.1770 C   0  0  0  0  0  2  0  0  0  0  0  0
  1  4  2  0  0  0  0
  1 12  1  0  0  0  0
  3  5  1  1  0  0  0
  3  8  1  0  0  0  0
  3  9  1  0  0  0  0
  6  2  2  0  0  0  0
  7  5  2  0  0  0  0
  7  6  1  0  0  0  0
  8 22  1  6  0  0  0
  8  1  1  0  0  0  0
  9  2  1  6  0  0  0
  9  4  1  0  0  0  0
 10 13  1  0  0  0  0
 12 10  2  0  0  0  0
 12 11  1  0  0  0  0
 14 15  2  0  0  0  0
 15 13  1  0  0  0  0
 15 17  1  0  0  0  0
 16 15  2  0  0  0  0
 18 17  1  0  0  0  0
 19 18  1  0  0  0  0
 20  6  1  0  0  0  0
 21 20  1  0  0  0  0
 23 22  1  0  0  0  0
 24 23  1  0  0  0  0
 25 28  2  0  0  0  0
 26 30  1  0  0  0  0
 27 24  1  6  0  0  0
 27 25  1  0  0  0  0
 29 26  2  0  0  0  0
 29 27  1  0  0  0  0
 30 28  1  0  0  0  0
M  END
>  <MODEL>
4

>  <REMARK>
 VINA RESULT:      -6.2      3.292      8.296
  Name = 
  10 active torsions:
  status: ('A' for Active; 'I' for Inactive)
    1  A    between atoms: C_1  and  C_25
    2  A    between atoms: N_4  and  C_5
    3  A    between atoms: N_4  and  S_22
    4  A    between atoms: O_6  and  C_19
    5  A    between atoms: C_7  and  C_17
    6  A    between atoms: N_8  and  N_10
    7  A    between atoms: N_8  and  C_15
    8  A    between atoms: N_10  and  C_13
    9  A    between atoms: C_15  and  C_27
   10  A    between atoms: C_17  and  S_22
                            x       y       z     vdW  Elec       q    Type
                         _______ _______ _______ _____ _____    ______ ____

>  <TORSDO>
F 10

$$$$
=
 OpenBabel11042418293D

 30 32  0  0  1  0  0  0  0  0999 V2000
  190.5000  177.3740  144.3710 C   0  0  0  0  0  0  0  0  0  0  0  0
  193.6530  176.1550  144.4010 C   0  0  0  0  0  3  0  0  0  0  0  0
  191.7180  176.3130  145.9110 C   0  0  2  0  0  3  0  0  0  0  0  0
  191.7210  177.6420  144.0210 N   0  0  0  0  0  0  0  0  0  0  0  0
  192.2120  175.1700  146.6860 C   0  0  0  0  0  3  0  0  0  0  0  0
  194.0320  175.0220  145.0280 C   0  0  0  0  0  0  0  0  0  0  0  0
  193.3360  174.5770  146.2670 C   0  0  0  0  0  3  0  0  0  0  0  0
  190.4620  176.5320  145.5630 C   0  0  2  0  0  3  0  0  0  0  0  0
  192.6280  177.0750  145.0110 C   0  0  2  0  0  3  0  0  0  0  0  0
  189.3660  177.8350  142.2650 C   0  0  0  0  0  3  0  0  0  0  0  0
  188.1790  178.2400  144.2620 O   0  0  0  0  0  1  0  0  0  0  0  0
  189.3280  177.8220  143.5970 C   0  0  0  0  0  0  0  0  0  0  0  0
  188.2100  178.2940  141.4430 C   0  0  0  0  0  2  0  0  0  0  0  0
  186.4850  177.1500  139.7340 O   0  0  0  0  0  0  0  0  0  0  0  0
  187.1420  176.9200  141.0670 S   0  0  0  0  0  0  0  0  0  0  0  0
  186.0900  176.7930  142.1330 O   0  0  0  0  0  0  0  0  0  0  0  0
  188.0930  175.4760  141.0090 N   0  0  0  0  0  2  0  0  0  0  0  0
  187.7090  174.6480  142.1400 C   0  0  0  0  0  2  0  0  0  0  0  0
  188.0750  173.2050  141.8570 C   0  0  0  0  0  1  0  0  0  0  0  0
  195.0550  174.2170  144.5180 O   0  0  0  0  0  0  0  0  0  0  0  0
  196.3850  174.2410  145.0230 C   0  0  0  0  0  1  0  0  0  0  0  0
  189.2750  175.7910  146.0850 C   0  0  0  0  0  2  0  0  0  0  0  0
  188.4610  176.6800  146.8940 N   0  0  0  0  0  2  0  0  0  0  0  0
  187.3790  175.9210  147.3600 N   0  0  0  0  0  2  0  0  0  0  0  0
  186.5540  178.1960  147.5870 C   0  0  0  0  0  3  0  0  0  0  0  0
  184.8960  177.6550  145.4250 N   0  0  0  0  0  0  0  0  0  0  0  0
  186.1990  176.7640  147.2720 C   0  0  1  0  0  3  0  0  0  0  0  0
  185.8020  179.1860  147.0870 C   0  0  0  0  0  3  0  0  0  0  0  0
  185.6130  176.6830  145.8850 C   0  0  0  0  0  3  0  0  0  0  0  0
  184.6150  178.8370  146.2240 C   0  0  0  0  0  2  0  0  0  0  0  0
  1  8  1  0  0  0  0
  2  6  2  0  0  0  0
  3  5  1  6  0  0  0
  4  1  2  0  0  0  0
  4  9  1  0  0  0  0
  6  7  1  0  0  0  0
  7  5  2  0  0  0  0
  8  3  1  0  0  0  0
  8 22  1  6  0  0  0
  9  2  1  6  0  0  0
  9  3  1  0  0  0  0
 10 12  2  0  0  0  0
 12 11  1  0  0  0  0
 12  1  1  0  0  0  0
 13 10  1  0  0  0  0
 14 15  2  0  0  0  0
 15 13  1  0  0  0  0
 15 16  2  0  0  0  0
 17 15  1  0  0  0  0
 17 18  1  0  0  0  0
 19 18  1  0  0  0  0
 20 21  1  0  0  0  0
 20  6  1  0  0  0  0
 22 23  1  0  0  0  0
 23 24  1  0  0  0  0
 26 29  2  0  0  0  0
 26 30  1  0  0  0  0
 27 24  1  6  0  0  0
 27 25  1  0  0  0  0
 28 25  2  0  0  0  0
 29 27  1  0  0  0  0
 30 28  1  0  0  0  0
M  END
>  <MODEL>
5

>  <REMARK>
 VINA RESULT:      -6.1      1.786      2.372
  Name = 
  10 active torsions:
  status: ('A' for Active; 'I' for Inactive)
    1  A    between atoms: C_1  and  C_25
    2  A    between atoms: N_4  and  C_5
    3  A    between atoms: N_4  and  S_22
    4  A    between atoms: O_6  and  C_19
    5  A    between atoms: C_7  and  C_17
    6  A    between atoms: N_8  and  N_10
    7  A    between atoms: N_8  and  C_15
    8  A    between atoms: N_10  and  C_13
    9  A    between atoms: C_15  and  C_27
   10  A    between atoms: C_17  and  S_22
                            x       y       z     vdW  Elec       q    Type
                         _______ _______ _______ _____ _____    ______ ____

>  <TORSDO>
F 10

$$$$
=
 OpenBabel11042418293D

 30 32  0  0  1  0  0  0  0  0999 V2000
  189.7990  176.7210  144.6560 C   0  0  0  0  0  0  0  0  0  0  0  0
  192.7460  176.3780  146.2760 C   0  0  0  0  0  3  0  0  0  0  0  0
  190.9200  174.9570  145.4410 C   0  0  2  0  0  3  0  0  0  0  0  0
  190.5320  177.2300  145.5980 N   0  0  0  0  0  0  0  0  0  0  0  0
  191.8230  173.8030  145.3900 C   0  0  0  0  0  3  0  0  0  0  0  0
  193.6050  175.3530  146.0970 C   0  0  0  0  0  0  0  0  0  0  0  0
  193.1010  174.0010  145.7330 C   0  0  0  0  0  3  0  0  0  0  0  0
  190.0220  175.2840  144.5270 C   0  0  2  0  0  3  0  0  0  0  0  0
  191.2570  176.1540  146.2620 C   0  0  2  0  0  3  0  0  0  0  0  0
  187.6220  177.6510  144.0850 C   0  0  0  0  0  3  0  0  0  0  0  0
  189.4420  178.1760  142.6790 O   0  0  0  0  0  1  0  0  0  0  0  0
  188.9180  177.5340  143.7980 C   0  0  0  0  0  0  0  0  0  0  0  0
  186.6910  178.4510  143.2370 C   0  0  0  0  0  2  0  0  0  0  0  0
  184.0660  177.9500  142.9870 O   0  0  0  0  0  0  0  0  0  0  0  0
  185.0700  178.4840  143.9710 S   0  0  0  0  0  0  0  0  0  0  0  0
  184.7130  179.8970  144.3400 O   0  0  0  0  0  0  0  0  0  0  0  0
  185.0810  177.4940  145.3910 N   0  0  0  0  0  2  0  0  0  0  0  0
  184.4740  178.2590  146.4680 C   0  0  0  0  0  2  0  0  0  0  0  0
  185.5400  178.6540  147.4690 C   0  0  0  0  0  1  0  0  0  0  0  0
  194.9870  175.5360  146.2100 O   0  0  0  0  0  0  0  0  0  0  0  0
  195.9340  174.5540  145.8100 C   0  0  0  0  0  1  0  0  0  0  0  0
  189.5900  174.4200  143.3880 C   0  0  0  0  0  2  0  0  0  0  0  0
  190.3550  174.7570  142.2020 N   0  0  0  0  0  2  0  0  0  0  0  0
  191.1780  173.6560  141.9290 N   0  0  0  0  0  2  0  0  0  0  0  0
  192.6660  175.5590  142.1930 C   0  0  0  0  0  3  0  0  0  0  0  0
  194.7360  173.7220  142.4260 N   0  0  0  0  0  0  0  0  0  0  0  0
  192.4940  174.1790  141.6080 C   0  0  1  0  0  3  0  0  0  0  0  0
  193.8980  176.0070  142.4720 C   0  0  0  0  0  3  0  0  0  0  0  0
  193.5590  173.2620  142.1580 C   0  0  0  0  0  3  0  0  0  0  0  0
  195.0810  175.1150  142.1910 C   0  0  0  0  0  2  0  0  0  0  0  0
  1  4  2  0  0  0  0
  3  5  1  6  0  0  0
  3  9  1  0  0  0  0
  4  9  1  0  0  0  0
  5  7  2  0  0  0  0
  6 20  1  0  0  0  0
  6  2  2  0  0  0  0
  7  6  1  0  0  0  0
  8 22  1  6  0  0  0
  8  1  1  0  0  0  0
  8  3  1  0  0  0  0
  9  2  1  6  0  0  0
 11 12  1  0  0  0  0
 12 10  2  0  0  0  0
 12  1  1  0  0  0  0
 13 15  1  0  0  0  0
 13 10  1  0  0  0  0
 14 15  2  0  0  0  0
 15 16  2  0  0  0  0
 15 17  1  0  0  0  0
 17 18  1  0  0  0  0
 18 19  1  0  0  0  0
 21 20  1  0  0  0  0
 23 22  1  0  0  0  0
 24 23  1  0  0  0  0
 25 28  2  0  0  0  0
 27 24  1  1  0  0  0
 27 29  1  0  0  0  0
 27 25  1  0  0  0  0
 29 26  2  0  0  0  0
 30 26  1  0  0  0  0
 30 28  1  0  0  0  0
M  END
>  <MODEL>
6

>  <REMARK>
 VINA RESULT:      -6.0      2.501      5.312
  Name = 
  10 active torsions:
  status: ('A' for Active; 'I' for Inactive)
    1  A    between atoms: C_1  and  C_25
    2  A    between atoms: N_4  and  C_5
    3  A    between atoms: N_4  and  S_22
    4  A    between atoms: O_6  and  C_19
    5  A    between atoms: C_7  and  C_17
    6  A    between atoms: N_8  and  N_10
    7  A    between atoms: N_8  and  C_15
    8  A    between atoms: N_10  and  C_13
    9  A    between atoms: C_15  and  C_27
   10  A    between atoms: C_17  and  S_22
                            x       y       z     vdW  Elec       q    Type
                         _______ _______ _______ _____ _____    ______ ____

>  <TORSDO>
F 10

$$$$
=
 OpenBabel11042418293D

 30 32  0  0  1  0  0  0  0  0999 V2000
  189.8950  176.2460  142.8850 C   0  0  0  0  0  0  0  0  0  0  0  0
  187.3030  177.1620  140.9190 C   0  0  0  0  0  3  0  0  0  0  0  0
  187.6860  175.9680  143.0350 C   0  0  2  0  0  3  0  0  0  0  0  0
  189.5030  176.3170  141.6510 N   0  0  0  0  0  0  0  0  0  0  0  0
  186.3160  176.2650  143.4670 C   0  0  0  0  0  3  0  0  0  0  0  0
  186.0940  177.5520  141.3760 C   0  0  0  0  0  0  0  0  0  0  0  0
  185.5560  177.0030  142.6500 C   0  0  0  0  0  3  0  0  0  0  0  0
  188.7700  176.0270  143.7890 C   0  0  2  0  0  3  0  0  0  0  0  0
  188.0690  176.0580  141.5980 C   0  0  2  0  0  3  0  0  0  0  0  0
  192.0660  175.3850  143.5790 C   0  0  0  0  0  3  0  0  0  0  0  0
  191.8250  177.7230  143.3840 O   0  0  0  0  0  1  0  0  0  0  0  0
  191.3000  176.4370  143.2920 C   0  0  0  0  0  0  0  0  0  0  0  0
  193.4860  175.5310  144.0090 C   0  0  0  0  0  2  0  0  0  0  0  0
  192.3250  174.9460  146.3570 O   0  0  0  0  0  0  0  0  0  0  0  0
  193.6740  174.9920  145.6950 S   0  0  0  0  0  0  0  0  0  0  0  0
  194.5660  175.9490  146.4340 O   0  0  0  0  0  0  0  0  0  0  0  0
  194.3820  173.4120  145.6980 N   0  0  0  0  0  2  0  0  0  0  0  0
  195.6940  173.5140  145.0820 C   0  0  0  0  0  2  0  0  0  0  0  0
  196.7630  173.4030  146.1500 C   0  0  0  0  0  1  0  0  0  0  0  0
  185.3330  178.5050  140.6910 O   0  0  0  0  0  0  0  0  0  0  0  0
  183.9250  178.3930  140.5180 C   0  0  0  0  0  1  0  0  0  0  0  0
  188.7860  176.1790  145.2750 C   0  0  0  0  0  2  0  0  0  0  0  0
  188.3710  177.5240  145.6330 N   0  0  0  0  0  2  0  0  0  0  0  0
  187.9570  177.4740  146.9700 N   0  0  0  0  0  2  0  0  0  0  0  0
  186.4550  179.0460  145.8860 C   0  0  0  0  0  3  0  0  0  0  0  0
  184.3960  177.2970  146.5260 N   0  0  0  0  0  0  0  0  0  0  0  0
  186.6390  178.0810  147.0310 C   0  0  1  0  0  3  0  0  0  0  0  0
  185.2190  179.3160  145.4440 C   0  0  0  0  0  3  0  0  0  0  0  0
  185.5780  177.0120  146.9640 C   0  0  0  0  0  3  0  0  0  0  0  0
  184.0430  178.6440  146.1080 C   0  0  0  0  0  2  0  0  0  0  0  0
  1 12  1  0  0  0  0
  1  8  1  0  0  0  0
  2  6  2  0  0  0  0
  3  5  1  1  0  0  0
  3  8  1  0  0  0  0
  4  1  2  0  0  0  0
  6  7  1  0  0  0  0
  7  5  2  0  0  0  0
  8 22  1  1  0  0  0
  9  2  1  1  0  0  0
  9  4  1  0  0  0  0
  9  3  1  0  0  0  0
 10 13  1  0  0  0  0
 12 11  1  0  0  0  0
 12 10  2  0  0  0  0
 13 15  1  0  0  0  0
 15 17  1  0  0  0  0
 15 14  2  0  0  0  0
 15 16  2  0  0  0  0
 18 17  1  0  0  0  0
 18 19  1  0  0  0  0
 20  6  1  0  0  0  0
 21 20  1  0  0  0  0
 22 23  1  0  0  0  0
 23 24  1  0  0  0  0
 25 27  1  0  0  0  0
 26 29  2  0  0  0  0
 27 24  1  6  0  0  0
 28 25  2  0  0  0  0
 28 30  1  0  0  0  0
 29 27  1  0  0  0  0
 30 26  1  0  0  0  0
M  END
>  <MODEL>
7

>  <REMARK>
 VINA RESULT:      -6.0      2.676      6.983
  Name = 
  10 active torsions:
  status: ('A' for Active; 'I' for Inactive)
    1  A    between atoms: C_1  and  C_25
    2  A    between atoms: N_4  and  C_5
    3  A    between atoms: N_4  and  S_22
    4  A    between atoms: O_6  and  C_19
    5  A    between atoms: C_7  and  C_17
    6  A    between atoms: N_8  and  N_10
    7  A    between atoms: N_8  and  C_15
    8  A    between atoms: N_10  and  C_13
    9  A    between atoms: C_15  and  C_27
   10  A    between atoms: C_17  and  S_22
                            x       y       z     vdW  Elec       q    Type
                         _______ _______ _______ _____ _____    ______ ____

>  <TORSDO>
F 10

$$$$
=
 OpenBabel11042418293D

 30 32  0  0  1  0  0  0  0  0999 V2000
  190.2870  176.0220  146.3900 C   0  0  0  0  0  0  0  0  0  0  0  0
  193.6080  176.6140  146.1870 C   0  0  0  0  0  3  0  0  0  0  0  0
  192.0800  174.6930  146.3480 C   0  0  2  0  0  3  0  0  0  0  0  0
  191.2340  176.7880  146.8360 N   0  0  0  0  0  0  0  0  0  0  0  0
  193.0950  173.8180  145.7530 C   0  0  0  0  0  3  0  0  0  0  0  0
  194.4860  175.8400  145.5150 C   0  0  0  0  0  0  0  0  0  0  0  0
  194.2540  174.3760  145.3830 C   0  0  0  0  0  3  0  0  0  0  0  0
  190.7880  174.6890  146.0690 C   0  0  2  0  0  3  0  0  0  0  0  0
  192.4590  176.0050  146.9450 C   0  0  2  0  0  3  0  0  0  0  0  0
  188.6420  177.4110  145.2500 C   0  0  0  0  0  3  0  0  0  0  0  0
  187.8740  175.9840  146.9640 O   0  0  0  0  0  1  0  0  0  0  0  0
  188.9050  176.4940  146.1810 C   0  0  0  0  0  0  0  0  0  0  0  0
  187.2630  177.9280  145.0150 C   0  0  0  0  0  2  0  0  0  0  0  0
  186.3150  179.0400  142.7640 O   0  0  0  0  0  0  0  0  0  0  0  0
  186.8200  177.7300  143.3020 S   0  0  0  0  0  0  0  0  0  0  0  0
  185.7460  176.6860  143.1780 O   0  0  0  0  0  0  0  0  0  0  0  0
  188.2220  177.2350  142.4180 N   0  0  0  0  0  2  0  0  0  0  0  0
  187.7770  176.7340  141.1270 C   0  0  0  0  0  2  0  0  0  0  0  0
  188.1890  175.2850  140.9790 C   0  0  0  0  0  1  0  0  0  0  0  0
  195.6120  176.3900  144.8940 O   0  0  0  0  0  0  0  0  0  0  0  0
  196.4360  175.6590  143.9940 C   0  0  0  0  0  1  0  0  0  0  0  0
  190.0760  173.6430  145.2750 C   0  0  0  0  0  2  0  0  0  0  0  0
  189.9230  174.0910  143.9030 N   0  0  0  0  0  2  0  0  0  0  0  0
  190.6290  173.1830  143.1030 N   0  0  0  0  0  2  0  0  0  0  0  0
  191.6000  175.3770  142.7200 C   0  0  0  0  0  3  0  0  0  0  0  0
  193.8570  174.0540  141.7860 N   0  0  0  0  0  0  0  0  0  0  0  0
  191.4660  173.9640  142.2090 C   0  0  1  0  0  3  0  0  0  0  0  0
  192.6790  176.0990  142.3850 C   0  0  0  0  0  3  0  0  0  0  0  0
  192.8320  173.3340  142.1040 C   0  0  0  0  0  3  0  0  0  0  0  0
  193.7290  175.4740  141.5010 C   0  0  0  0  0  2  0  0  0  0  0  0
  1  4  2  0  0  0  0
  3  5  1  6  0  0  0
  3  9  1  0  0  0  0
  4  9  1  0  0  0  0
  6  2  2  0  0  0  0
  7  6  1  0  0  0  0
  7  5  2  0  0  0  0
  8 22  1  6  0  0  0
  8  3  1  0  0  0  0
  8  1  1  0  0  0  0
  9  2  1  6  0  0  0
 10 12  2  0  0  0  0
 12  1  1  0  0  0  0
 12 11  1  0  0  0  0
 13 10  1  0  0  0  0
 14 15  2  0  0  0  0
 15 13  1  0  0  0  0
 16 15  2  0  0  0  0
 17 15  1  0  0  0  0
 18 17  1  0  0  0  0
 19 18  1  0  0  0  0
 20  6  1  0  0  0  0
 21 20  1  0  0  0  0
 23 22  1  0  0  0  0
 24 23  1  0  0  0  0
 26 29  2  0  0  0  0
 27 25  1  0  0  0  0
 27 24  1  1  0  0  0
 28 25  2  0  0  0  0
 29 27  1  0  0  0  0
 30 26  1  0  0  0  0
 30 28  1  0  0  0  0
M  END
>  <MODEL>
8

>  <REMARK>
 VINA RESULT:      -6.0      2.537      4.920
  Name = 
  10 active torsions:
  status: ('A' for Active; 'I' for Inactive)
    1  A    between atoms: C_1  and  C_25
    2  A    between atoms: N_4  and  C_5
    3  A    between atoms: N_4  and  S_22
    4  A    between atoms: O_6  and  C_19
    5  A    between atoms: C_7  and  C_17
    6  A    between atoms: N_8  and  N_10
    7  A    between atoms: N_8  and  C_15
    8  A    between atoms: N_10  and  C_13
    9  A    between atoms: C_15  and  C_27
   10  A    between atoms: C_17  and  S_22
                            x       y       z     vdW  Elec       q    Type
                         _______ _______ _______ _____ _____    ______ ____

>  <TORSDO>
F 10

$$$$
=
 OpenBabel11042418293D

 30 32  0  0  1  0  0  0  0  0999 V2000
  188.9240  176.1670  144.4860 C   0  0  0  0  0  0  0  0  0  0  0  0
  188.4510  174.8600  141.4040 C   0  0  0  0  0  3  0  0  0  0  0  0
  190.1630  174.8570  143.1710 C   0  0  2  0  0  3  0  0  0  0  0  0
  188.4890  176.4450  143.2950 N   0  0  0  0  0  0  0  0  0  0  0  0
  190.7120  173.5990  142.6550 C   0  0  0  0  0  3  0  0  0  0  0  0
  188.8690  173.6370  141.0170 C   0  0  0  0  0  0  0  0  0  0  0  0
  190.0990  173.0390  141.6060 C   0  0  0  0  0  3  0  0  0  0  0  0
  189.9820  175.1630  144.4440 C   0  0  2  0  0  3  0  0  0  0  0  0
  189.2890  175.7130  142.3210 C   0  0  2  0  0  3  0  0  0  0  0  0
  187.0570  176.5880  145.9930 C   0  0  0  0  0  3  0  0  0  0  0  0
  189.1550  177.5040  146.5620 O   0  0  0  0  0  1  0  0  0  0  0  0
  188.3480  176.7580  145.7080 C   0  0  0  0  0  0  0  0  0  0  0  0
  186.4290  177.1800  147.2100 C   0  0  0  0  0  2  0  0  0  0  0  0
  185.9420  179.7710  147.7100 O   0  0  0  0  0  0  0  0  0  0  0  0
  185.5390  178.6600  146.7800 S   0  0  0  0  0  0  0  0  0  0  0  0
  184.0620  178.4130  146.9000 O   0  0  0  0  0  0  0  0  0  0  0  0
  185.9300  179.0910  145.1500 N   0  0  0  0  0  2  0  0  0  0  0  0
  184.6880  179.1410  144.3960 C   0  0  0  0  0  2  0  0  0  0  0  0
  184.7160  178.0870  143.3090 C   0  0  0  0  0  1  0  0  0  0  0  0
  188.1460  172.8830  140.0870 O   0  0  0  0  0  0  0  0  0  0  0  0
  188.5330  172.7560  138.7240 C   0  0  0  0  0  1  0  0  0  0  0  0
  190.5160  174.3900  145.6060 C   0  0  0  0  0  2  0  0  0  0  0  0
  191.9480  174.6020  145.7160 N   0  0  0  0  0  2  0  0  0  0  0  0
  192.1330  175.9630  145.9920 N   0  0  0  0  0  2  0  0  0  0  0  0
  194.4850  175.3690  146.1300 C   0  0  0  0  0  3  0  0  0  0  0  0
  194.6610  176.0340  143.4390 N   0  0  0  0  0  0  0  0  0  0  0  0
  193.4670  176.3120  145.5370 C   0  0  1  0  0  3  0  0  0  0  0  0
  195.6440  175.1630  145.4890 C   0  0  0  0  0  3  0  0  0  0  0  0
  193.5310  176.2410  144.0320 C   0  0  0  0  0  3  0  0  0  0  0  0
  195.8970  175.8850  144.1890 C   0  0  0  0  0  2  0  0  0  0  0  0
  1 12  1  0  0  0  0
  3  5  1  1  0  0  0
  3  8  1  0  0  0  0
  4  1  2  0  0  0  0
  6  2  2  0  0  0  0
  6  7  1  0  0  0  0
  7  5  2  0  0  0  0
  8  1  1  0  0  0  0
  8 22  1  1  0  0  0
  9  2  1  6  0  0  0
  9  3  1  0  0  0  0
  9  4  1  0  0  0  0
 10 13  1  0  0  0  0
 12 10  2  0  0  0  0
 12 11  1  0  0  0  0
 15 16  2  0  0  0  0
 15 13  1  0  0  0  0
 15 14  2  0  0  0  0
 17 15  1  0  0  0  0
 18 17  1  0  0  0  0
 19 18  1  0  0  0  0
 20  6  1  0  0  0  0
 21 20  1  0  0  0  0
 22 23  1  0  0  0  0
 23 24  1  0  0  0  0
 26 29  2  0  0  0  0
 26 30  1  0  0  0  0
 27 24  1  1  0  0  0
 27 25  1  0  0  0  0
 28 25  2  0  0  0  0
 29 27  1  0  0  0  0
 30 28  1  0  0  0  0
M  END
>  <MODEL>
9

>  <REMARK>
 VINA RESULT:      -5.9      3.127      6.371
  Name = 
  10 active torsions:
  status: ('A' for Active; 'I' for Inactive)
    1  A    between atoms: C_1  and  C_25
    2  A    between atoms: N_4  and  C_5
    3  A    between atoms: N_4  and  S_22
    4  A    between atoms: O_6  and  C_19
    5  A    between atoms: C_7  and  C_17
    6  A    between atoms: N_8  and  N_10
    7  A    between atoms: N_8  and  C_15
    8  A    between atoms: N_10  and  C_13
    9  A    between atoms: C_15  and  C_27
   10  A    between atoms: C_17  and  S_22
                            x       y       z     vdW  Elec       q    Type
                         _______ _______ _______ _____ _____    ______ ____

>  <TORSDO>
F 10

$$$$
