=
 OpenBabel11042418523D

 26 30  0  0  1  0  0  0  0  0999 V2000
  186.5650  177.3860  144.4420 C   0  0  2  0  0  3  0  0  0  0  0  0
  184.1810  178.4030  141.7620 N   0  0  0  0  0  2  0  0  0  0  0  0
  189.9250  174.6850  144.0540 C   0  0  0  0  0  0  0  0  0  0  0  0
  188.7980  175.5470  144.1990 N   0  0  0  0  0  2  0  0  0  0  0  0
  184.9440  177.3480  146.2540 C   0  0  2  0  0  3  0  0  0  0  0  0
  190.4140  174.3000  142.6830 C   0  0  1  0  0  3  0  0  0  0  0  0
  185.2320  176.8990  144.8840 N   0  0  1  0  0  0  0  0  0  0  0  0
  184.8990  178.8650  146.4170 C   0  0  1  0  0  3  0  0  0  0  0  0
  188.3330  175.2410  141.7740 C   0  0  0  0  0  3  0  0  0  0  0  0
  185.3490  178.0850  144.0250 C   0  0  2  0  0  0  0  0  0  0  0  0
  186.2900  177.9730  148.1690 C   0  0  0  0  0  2  0  0  0  0  0  0
  188.0090  175.8810  143.0570 C   0  0  0  0  0  0  0  0  0  0  0  0
  186.1340  177.0700  142.0800 N   0  0  0  0  0  0  0  0  0  0  0  0
  186.9700  176.7130  143.1700 C   0  0  0  0  0  0  0  0  0  0  0  0
  189.4000  174.5100  141.6410 N   0  0  0  0  0  0  0  0  0  0  0  0
  190.5360  174.2790  145.0770 O   0  0  0  0  0  0  0  0  0  0  0  0
  185.2300  177.8540  142.5580 C   0  0  0  0  0  0  0  0  0  0  0  0
  186.0340  179.2210  147.3520 C   0  0  0  0  0  2  0  0  0  0  0  0
  185.9570  176.8110  147.2560 C   0  0  0  0  0  2  0  0  0  0  0  0
  185.1210  179.6880  144.8210 S   0  0  0  0  0  0  0  0  0  0  0  0
  191.6190  175.0670  142.3520 C   0  0  0  0  0  0  0  0  0  0  0  0
  192.5700  175.6730  142.0910 N   0  0  0  0  0  0  0  0  0  0  0  0
  184.0780  178.1400  140.3360 C   0  0  0  0  0  2  0  0  0  0  0  0
  182.6940  177.6130  140.0180 C   0  0  0  0  0  2  0  0  0  0  0  0
  180.8940  179.0920  141.2170 N   0  0  0  0  0  0  0  0  0  0  0  0
  181.6900  178.4390  140.6880 C   0  0  0  0  0  0  0  0  0  0  0  0
  1 14  1  6  0  0  0
  1  7  1  0  0  0  0
  2 17  1  0  0  0  0
  3  4  1  0  0  0  0
  3 16  2  0  0  0  0
  5  8  1  0  0  0  0
  5 19  1  1  0  0  0
  6 21  1  6  0  0  0
  6  3  1  0  0  0  0
  7  5  1  0  0  0  0
  8 18  1  0  0  0  0
  9 12  1  0  0  0  0
 10  1  1  0  0  0  0
 10 20  1  0  0  0  0
 10  7  1  0  0  0  0
 12 14  2  0  0  0  0
 12  4  1  0  0  0  0
 13 17  2  0  0  0  0
 13 14  1  0  0  0  0
 15  9  2  0  0  0  0
 15  6  1  0  0  0  0
 17 10  1  0  0  0  0
 18 11  1  0  0  0  0
 19 11  1  0  0  0  0
 20  8  1  0  0  0  0
 22 21  3  0  0  0  0
 23  2  1  0  0  0  0
 24 23  1  0  0  0  0
 24 26  1  0  0  0  0
 26 25  3  0  0  0  0
M  END
>  <MODEL>
1

>  <REMARK>
 VINA RESULT:      -6.8      0.000      0.000
  Name = 
  4 active torsions:
  status: ('A' for Active; 'I' for Inactive)
    1  A    between atoms: N_2  and  C_4
    2  A    between atoms: C_4  and  C_15
    3  A    between atoms: C_7  and  C_9
    4  A    between atoms: C_15  and  C_26
                            x       y       z     vdW  Elec       q    Type
                         _______ _______ _______ _____ _____    ______ ____

>  <TORSDO>
F 4

$$$$
=
 OpenBabel11042418523D

 26 30  0  0  1  0  0  0  0  0999 V2000
  188.3510  176.8890  143.9210 C   0  0  2  0  0  3  0  0  0  0  0  0
  188.2160  175.0720  140.6690 N   0  0  0  0  0  2  0  0  0  0  0  0
  191.2930  176.4000  147.0600 C   0  0  0  0  0  0  0  0  0  0  0  0
  190.2980  176.5400  146.0460 N   0  0  0  0  0  2  0  0  0  0  0  0
  185.9470  177.0170  144.2680 C   0  0  2  0  0  3  0  0  0  0  0  0
  192.5690  175.6550  146.7720 C   0  0  1  0  0  3  0  0  0  0  0  0
  187.0730  176.1300  143.9380 N   0  0  1  0  0  0  0  0  0  0  0  0
  185.7360  178.1520  143.2690 C   0  0  1  0  0  3  0  0  0  0  0  0
  191.5240  174.8460  144.6990 C   0  0  0  0  0  3  0  0  0  0  0  0
  187.6610  176.5810  142.6700 C   0  0  2  0  0  0  0  0  0  0  0  0
  185.7070  179.0980  145.4840 C   0  0  0  0  0  2  0  0  0  0  0  0
  190.4180  175.8060  144.8290 C   0  0  0  0  0  0  0  0  0  0  0  0
  189.5630  175.2370  142.6310 N   0  0  0  0  0  0  0  0  0  0  0  0
  189.5130  175.9520  143.8570 C   0  0  0  0  0  0  0  0  0  0  0  0
  192.4590  174.7750  145.6000 N   0  0  0  0  0  0  0  0  0  0  0  0
  191.1180  176.9370  148.1850 O   0  0  0  0  0  0  0  0  0  0  0  0
  188.5280  175.6020  141.9560 C   0  0  0  0  0  0  0  0  0  0  0  0
  185.9800  179.4350  144.0340 C   0  0  0  0  0  2  0  0  0  0  0  0
  186.0990  177.6450  145.6460 C   0  0  0  0  0  2  0  0  0  0  0  0
  186.8960  178.0160  141.8870 S   0  0  0  0  0  0  0  0  0  0  0  0
  193.6640  176.6080  146.5640 C   0  0  0  0  0  0  0  0  0  0  0  0
  194.5290  177.3600  146.4010 N   0  0  0  0  0  0  0  0  0  0  0  0
  189.0700  174.1000  140.0080 C   0  0  0  0  0  2  0  0  0  0  0  0
  188.3070  173.4420  138.8780 C   0  0  0  0  0  2  0  0  0  0  0  0
  187.5550  175.2630  137.1510 N   0  0  0  0  0  0  0  0  0  0  0  0
  187.8870  174.4590  137.9140 C   0  0  0  0  0  0  0  0  0  0  0  0
  1 14  1  6  0  0  0
  1  7  1  0  0  0  0
  2 17  1  0  0  0  0
  3 16  2  0  0  0  0
  4  3  1  0  0  0  0
  5 19  1  1  0  0  0
  6 21  1  6  0  0  0
  6  3  1  0  0  0  0
  7  5  1  0  0  0  0
  8 18  1  0  0  0  0
  8  5  1  0  0  0  0
  9 12  1  0  0  0  0
  9 15  2  0  0  0  0
 10  1  1  0  0  0  0
 10  7  1  0  0  0  0
 11 19  1  0  0  0  0
 12  4  1  0  0  0  0
 13 14  1  0  0  0  0
 14 12  2  0  0  0  0
 15  6  1  0  0  0  0
 17 13  2  0  0  0  0
 17 10  1  0  0  0  0
 18 11  1  0  0  0  0
 20 10  1  0  0  0  0
 20  8  1  0  0  0  0
 22 21  3  0  0  0  0
 23  2  1  0  0  0  0
 24 23  1  0  0  0  0
 25 26  3  0  0  0  0
 26 24  1  0  0  0  0
M  END
>  <MODEL>
2

>  <REMARK>
 VINA RESULT:      -6.8      2.883      4.524
  Name = 
  4 active torsions:
  status: ('A' for Active; 'I' for Inactive)
    1  A    between atoms: N_2  and  C_4
    2  A    between atoms: C_4  and  C_15
    3  A    between atoms: C_7  and  C_9
    4  A    between atoms: C_15  and  C_26
                            x       y       z     vdW  Elec       q    Type
                         _______ _______ _______ _____ _____    ______ ____

>  <TORSDO>
F 4

$$$$
=
 OpenBabel11042418523D

 26 30  0  0  1  0  0  0  0  0999 V2000
  188.2330  177.0120  144.3230 C   0  0  2  0  0  3  0  0  0  0  0  0
  187.9000  175.3850  140.9850 N   0  0  0  0  0  2  0  0  0  0  0  0
  191.3920  176.3980  147.2190 C   0  0  0  0  0  0  0  0  0  0  0  0
  190.3270  176.5780  146.2860 N   0  0  0  0  0  2  0  0  0  0  0  0
  185.8570  177.0740  144.8400 C   0  0  2  0  0  3  0  0  0  0  0  0
  192.6560  175.6960  146.8010 C   0  0  1  0  0  3  0  0  0  0  0  0
  186.9710  176.2300  144.3820 N   0  0  1  0  0  0  0  0  0  0  0  0
  185.5600  178.2610  143.9270 C   0  0  1  0  0  3  0  0  0  0  0  0
  191.4820  174.9890  144.7600 C   0  0  0  0  0  3  0  0  0  0  0  0
  187.4620  176.7640  143.1050 C   0  0  2  0  0  0  0  0  0  0  0  0
  185.6710  179.0760  146.1910 C   0  0  0  0  0  2  0  0  0  0  0  0
  190.3740  175.9180  145.0220 C   0  0  0  0  0  0  0  0  0  0  0  0
  189.3770  175.4610  142.8570 N   0  0  0  0  0  0  0  0  0  0  0  0
  189.4020  176.1030  144.1240 C   0  0  0  0  0  0  0  0  0  0  0  0
  192.4780  174.8840  145.5900 N   0  0  0  0  0  0  0  0  0  0  0  0
  191.2870  176.8650  148.3830 O   0  0  0  0  0  0  0  0  0  0  0  0
  188.2930  175.8450  142.2780 C   0  0  0  0  0  0  0  0  0  0  0  0
  185.8370  179.5020  144.7480 C   0  0  0  0  0  2  0  0  0  0  0  0
  186.0950  177.6230  146.2400 C   0  0  0  0  0  2  0  0  0  0  0  0
  186.6240  178.2280  142.4640 S   0  0  0  0  0  0  0  0  0  0  0  0
  193.7200  176.6800  146.5760 C   0  0  0  0  0  0  0  0  0  0  0  0
  194.5590  177.4560  146.3990 N   0  0  0  0  0  0  0  0  0  0  0  0
  188.7210  174.4690  140.2120 C   0  0  0  0  0  2  0  0  0  0  0  0
  188.3150  173.0440  140.5190 C   0  0  0  0  0  2  0  0  0  0  0  0
  190.3430  171.7600  141.5690 N   0  0  0  0  0  0  0  0  0  0  0  0
  189.4470  172.3270  141.1050 C   0  0  0  0  0  0  0  0  0  0  0  0
  1 14  1  6  0  0  0
  1  7  1  0  0  0  0
  2 17  1  0  0  0  0
  3 16  2  0  0  0  0
  4  3  1  0  0  0  0
  5 19  1  1  0  0  0
  6 21  1  6  0  0  0
  6  3  1  0  0  0  0
  7  5  1  0  0  0  0
  8 18  1  0  0  0  0
  8  5  1  0  0  0  0
  9 12  1  0  0  0  0
  9 15  2  0  0  0  0
 10  1  1  0  0  0  0
 10  7  1  0  0  0  0
 11 19  1  0  0  0  0
 12  4  1  0  0  0  0
 13 14  1  0  0  0  0
 14 12  2  0  0  0  0
 15  6  1  0  0  0  0
 17 13  2  0  0  0  0
 17 10  1  0  0  0  0
 18 11  1  0  0  0  0
 20 10  1  0  0  0  0
 20  8  1  0  0  0  0
 22 21  3  0  0  0  0
 23 24  1  0  0  0  0
 23  2  1  0  0  0  0
 24 26  1  0  0  0  0
 26 25  3  0  0  0  0
M  END
>  <MODEL>
3

>  <REMARK>
 VINA RESULT:      -6.8      2.914      4.817
  Name = 
  4 active torsions:
  status: ('A' for Active; 'I' for Inactive)
    1  A    between atoms: N_2  and  C_4
    2  A    between atoms: C_4  and  C_15
    3  A    between atoms: C_7  and  C_9
    4  A    between atoms: C_15  and  C_26
                            x       y       z     vdW  Elec       q    Type
                         _______ _______ _______ _____ _____    ______ ____

>  <TORSDO>
F 4

$$$$
=
 OpenBabel11042418523D

 26 30  0  0  1  0  0  0  0  0999 V2000
  187.7420  177.4820  144.8930 C   0  0  2  0  0  3  0  0  0  0  0  0
  186.5610  177.8010  141.3710 N   0  0  0  0  0  2  0  0  0  0  0  0
  191.4570  175.7190  146.2470 C   0  0  0  0  0  0  0  0  0  0  0  0
  190.2130  176.2680  145.8120 N   0  0  0  0  0  2  0  0  0  0  0  0
  185.5580  177.0680  145.8810 C   0  0  2  0  0  3  0  0  0  0  0  0
  192.5530  175.4440  145.2530 C   0  0  1  0  0  3  0  0  0  0  0  0
  186.4920  176.6800  144.8140 N   0  0  1  0  0  0  0  0  0  0  0  0
  185.1130  178.5270  145.8180 C   0  0  1  0  0  3  0  0  0  0  0  0
  190.9030  175.8030  143.4670 C   0  0  0  0  0  3  0  0  0  0  0  0
  186.6960  177.8380  143.9340 C   0  0  2  0  0  0  0  0  0  0  0  0
  185.7880  178.0550  148.0820 C   0  0  0  0  0  2  0  0  0  0  0  0
  189.9310  176.3660  144.4160 C   0  0  0  0  0  0  0  0  0  0  0  0
  188.4360  177.0170  142.6200 N   0  0  0  0  0  0  0  0  0  0  0  0
  188.7870  176.9080  143.9920 C   0  0  0  0  0  0  0  0  0  0  0  0
  192.0590  175.3660  143.8710 N   0  0  0  0  0  0  0  0  0  0  0  0
  191.6490  175.5030  147.4720 O   0  0  0  0  0  0  0  0  0  0  0  0
  187.2650  177.5540  142.5870 C   0  0  0  0  0  0  0  0  0  0  0  0
  185.6320  179.1800  147.0810 C   0  0  0  0  0  2  0  0  0  0  0  0
  186.1420  176.8290  147.2670 C   0  0  0  0  0  2  0  0  0  0  0  0
  185.8010  179.3470  144.3600 S   0  0  0  0  0  0  0  0  0  0  0  0
  193.5810  176.4860  145.3450 C   0  0  0  0  0  0  0  0  0  0  0  0
  194.3920  177.3080  145.4170 N   0  0  0  0  0  0  0  0  0  0  0  0
  187.1330  177.4920  140.0720 C   0  0  0  0  0  2  0  0  0  0  0  0
  186.0260  177.1310  139.1050 C   0  0  0  0  0  2  0  0  0  0  0  0
  187.0100  175.7100  137.1360 N   0  0  0  0  0  0  0  0  0  0  0  0
  186.5750  176.3380  138.0060 C   0  0  0  0  0  0  0  0  0  0  0  0
  1 14  1  6  0  0  0
  2 17  1  0  0  0  0
  3 16  2  0  0  0  0
  4  3  1  0  0  0  0
  5 19  1  1  0  0  0
  6 21  1  6  0  0  0
  6  3  1  0  0  0  0
  7  1  1  0  0  0  0
  7  5  1  0  0  0  0
  8  5  1  0  0  0  0
  8 18  1  0  0  0  0
  9 15  2  0  0  0  0
  9 12  1  0  0  0  0
 10 20  1  0  0  0  0
 10  7  1  0  0  0  0
 10  1  1  0  0  0  0
 12  4  1  0  0  0  0
 13 14  1  0  0  0  0
 14 12  2  0  0  0  0
 15  6  1  0  0  0  0
 17 13  2  0  0  0  0
 17 10  1  0  0  0  0
 18 11  1  0  0  0  0
 19 11  1  0  0  0  0
 20  8  1  0  0  0  0
 21 22  3  0  0  0  0
 23  2  1  0  0  0  0
 24 23  1  0  0  0  0
 25 26  3  0  0  0  0
 26 24  1  0  0  0  0
M  END
>  <MODEL>
4

>  <REMARK>
 VINA RESULT:      -6.8      2.361      3.070
  Name = 
  4 active torsions:
  status: ('A' for Active; 'I' for Inactive)
    1  A    between atoms: N_2  and  C_4
    2  A    between atoms: C_4  and  C_15
    3  A    between atoms: C_7  and  C_9
    4  A    between atoms: C_15  and  C_26
                            x       y       z     vdW  Elec       q    Type
                         _______ _______ _______ _____ _____    ______ ____

>  <TORSDO>
F 4

$$$$
=
 OpenBabel11042418523D

 26 30  0  0  1  0  0  0  0  0999 V2000
  189.1300  175.7750  144.1280 C   0  0  2  0  0  3  0  0  0  0  0  0
  191.9480  176.0970  146.5470 N   0  0  0  0  0  2  0  0  0  0  0  0
  189.3150  174.1830  140.1070 C   0  0  0  0  0  0  0  0  0  0  0  0
  189.2530  174.7440  141.4170 N   0  0  0  0  0  2  0  0  0  0  0  0
  187.9800  177.8200  144.7690 C   0  0  2  0  0  3  0  0  0  0  0  0
  190.5290  173.4070  139.6700 C   0  0  1  0  0  3  0  0  0  0  0  0
  189.2720  177.2320  144.3870 N   0  0  1  0  0  0  0  0  0  0  0  0
  187.3820  177.2340  146.0450 C   0  0  1  0  0  3  0  0  0  0  0  0
  191.6780  174.2530  141.6720 C   0  0  0  0  0  3  0  0  0  0  0  0
  189.6520  176.2480  145.4090 C   0  0  2  0  0  0  0  0  0  0  0  0
  185.6580  177.2600  144.3630 C   0  0  0  0  0  2  0  0  0  0  0  0
  190.4170  174.7470  142.2430 C   0  0  0  0  0  0  0  0  0  0  0  0
  191.4910  175.2880  144.3500 N   0  0  0  0  0  0  0  0  0  0  0  0
  190.3660  175.2370  143.4850 C   0  0  0  0  0  0  0  0  0  0  0  0
  191.7080  173.6850  140.5030 N   0  0  0  0  0  0  0  0  0  0  0  0
  188.3330  174.3050  139.3290 O   0  0  0  0  0  0  0  0  0  0  0  0
  191.0860  175.8440  145.4390 C   0  0  0  0  0  0  0  0  0  0  0  0
  186.0900  176.5600  145.6340 C   0  0  0  0  0  2  0  0  0  0  0  0
  186.9380  177.6740  143.6680 C   0  0  0  0  0  2  0  0  0  0  0  0
  188.5080  176.0290  146.7880 S   0  0  0  0  0  0  0  0  0  0  0  0
  190.2380  171.9700  139.7020 C   0  0  0  0  0  0  0  0  0  0  0  0
  190.0080  170.8360  139.7270 N   0  0  0  0  0  0  0  0  0  0  0  0
  193.3490  175.7110  146.5370 C   0  0  0  0  0  2  0  0  0  0  0  0
  194.2020  176.9130  146.1910 C   0  0  0  0  0  2  0  0  0  0  0  0
  195.5940  176.4080  144.0290 N   0  0  0  0  0  0  0  0  0  0  0  0
  194.9790  176.6320  144.9840 C   0  0  0  0  0  0  0  0  0  0  0  0
  1 14  1  6  0  0  0
  1  7  1  0  0  0  0
  1 10  1  0  0  0  0
  3  4  1  0  0  0  0
  4 12  1  0  0  0  0
  5 19  1  6  0  0  0
  5  8  1  0  0  0  0
  6 21  1  1  0  0  0
  6  3  1  0  0  0  0
  6 15  1  0  0  0  0
  7  5  1  0  0  0  0
  7 10  1  0  0  0  0
  8 20  1  0  0  0  0
  9 12  1  0  0  0  0
 10 17  1  0  0  0  0
 10 20  1  0  0  0  0
 11 18  1  0  0  0  0
 12 14  2  0  0  0  0
 13 17  2  0  0  0  0
 14 13  1  0  0  0  0
 15  9  2  0  0  0  0
 16  3  2  0  0  0  0
 17  2  1  0  0  0  0
 18  8  1  0  0  0  0
 19 11  1  0  0  0  0
 21 22  3  0  0  0  0
 23  2  1  0  0  0  0
 24 23  1  0  0  0  0
 25 26  3  0  0  0  0
 26 24  1  0  0  0  0
M  END
>  <MODEL>
5

>  <REMARK>
 VINA RESULT:      -6.1      3.649      6.821
  Name = 
  4 active torsions:
  status: ('A' for Active; 'I' for Inactive)
    1  A    between atoms: N_2  and  C_4
    2  A    between atoms: C_4  and  C_15
    3  A    between atoms: C_7  and  C_9
    4  A    between atoms: C_15  and  C_26
                            x       y       z     vdW  Elec       q    Type
                         _______ _______ _______ _____ _____    ______ ____

>  <TORSDO>
F 4

$$$$
=
 OpenBabel11042418523D

 26 30  0  0  1  0  0  0  0  0999 V2000
  188.7580  175.3240  143.3810 C   0  0  2  0  0  3  0  0  0  0  0  0
  190.0000  172.7510  140.9850 N   0  0  0  0  0  2  0  0  0  0  0  0
  186.1190  178.6420  142.5050 C   0  0  0  0  0  0  0  0  0  0  0  0
  187.0190  177.5740  142.7940 N   0  0  0  0  0  2  0  0  0  0  0  0
  190.7890  175.4680  144.7110 C   0  0  2  0  0  3  0  0  0  0  0  0
  185.3630  178.6670  141.2030 C   0  0  1  0  0  3  0  0  0  0  0  0
  190.2350  175.4850  143.3490 N   0  0  1  0  0  0  0  0  0  0  0  0
  190.5350  174.1680  145.4690 C   0  0  1  0  0  3  0  0  0  0  0  0
  186.8390  176.8650  140.4160 C   0  0  0  0  0  3  0  0  0  0  0  0
  189.6180  174.1790  143.0840 C   0  0  2  0  0  0  0  0  0  0  0  0
  189.9310  175.9980  146.9140 C   0  0  0  0  0  2  0  0  0  0  0  0
  187.3590  176.6370  141.7720 C   0  0  0  0  0  0  0  0  0  0  0  0
  188.5660  174.6570  141.0610 N   0  0  0  0  0  0  0  0  0  0  0  0
  188.1730  175.6110  142.0360 C   0  0  0  0  0  0  0  0  0  0  0  0
  185.9700  177.8030  140.1800 N   0  0  0  0  0  0  0  0  0  0  0  0
  185.9280  179.5460  143.3600 O   0  0  0  0  0  0  0  0  0  0  0  0
  189.3680  173.8420  141.6550 C   0  0  0  0  0  0  0  0  0  0  0  0
  189.6600  174.5330  146.6490 C   0  0  0  0  0  2  0  0  0  0  0  0
  190.2450  176.6070  145.5630 C   0  0  0  0  0  2  0  0  0  0  0  0
  189.6950  172.9620  144.4150 S   0  0  0  0  0  0  0  0  0  0  0  0
  183.9740  178.2550  141.4270 C   0  0  0  0  0  0  0  0  0  0  0  0
  182.8780  177.9300  141.6040 N   0  0  0  0  0  0  0  0  0  0  0  0
  189.7540  172.4610  139.5830 C   0  0  0  0  0  2  0  0  0  0  0  0
  190.7750  173.1860  138.7310 C   0  0  0  0  0  2  0  0  0  0  0  0
  189.5870  174.2440  136.6490 N   0  0  0  0  0  0  0  0  0  0  0  0
  190.1120  173.7770  137.5690 C   0  0  0  0  0  0  0  0  0  0  0  0
  1 14  1  6  0  0  0
  2 17  1  0  0  0  0
  3  4  1  0  0  0  0
  3 16  2  0  0  0  0
  5  8  1  0  0  0  0
  5 19  1  1  0  0  0
  6 21  1  1  0  0  0
  6  3  1  0  0  0  0
  7  1  1  0  0  0  0
  7  5  1  0  0  0  0
  8 18  1  0  0  0  0
  9 12  1  0  0  0  0
 10  7  1  0  0  0  0
 10  1  1  0  0  0  0
 10 20  1  0  0  0  0
 12 14  2  0  0  0  0
 12  4  1  0  0  0  0
 13 17  2  0  0  0  0
 13 14  1  0  0  0  0
 15  9  2  0  0  0  0
 15  6  1  0  0  0  0
 17 10  1  0  0  0  0
 18 11  1  0  0  0  0
 19 11  1  0  0  0  0
 20  8  1  0  0  0  0
 21 22  3  0  0  0  0
 23  2  1  0  0  0  0
 24 23  1  0  0  0  0
 25 26  3  0  0  0  0
 26 24  1  0  0  0  0
M  END
>  <MODEL>
6

>  <REMARK>
 VINA RESULT:      -6.1      3.229      6.637
  Name = 
  4 active torsions:
  status: ('A' for Active; 'I' for Inactive)
    1  A    between atoms: N_2  and  C_4
    2  A    between atoms: C_4  and  C_15
    3  A    between atoms: C_7  and  C_9
    4  A    between atoms: C_15  and  C_26
                            x       y       z     vdW  Elec       q    Type
                         _______ _______ _______ _____ _____    ______ ____

>  <TORSDO>
F 4

$$$$
=
 OpenBabel11042418523D

 26 30  0  0  1  0  0  0  0  0999 V2000
  187.1860  176.7530  144.4610 C   0  0  2  0  0  3  0  0  0  0  0  0
  189.3530  176.0340  147.4080 N   0  0  0  0  0  2  0  0  0  0  0  0
  187.8990  175.5840  140.3540 C   0  0  0  0  0  0  0  0  0  0  0  0
  187.6750  176.0060  141.6990 N   0  0  0  0  0  2  0  0  0  0  0  0
  186.4650  178.9620  145.1800 C   0  0  2  0  0  3  0  0  0  0  0  0
  188.9480  174.5490  140.0480 C   0  0  1  0  0  3  0  0  0  0  0  0
  187.6220  178.0790  144.9710 N   0  0  1  0  0  0  0  0  0  0  0  0
  185.4600  178.4400  146.2030 C   0  0  1  0  0  3  0  0  0  0  0  0
  189.7740  174.8370  142.3460 C   0  0  0  0  0  3  0  0  0  0  0  0
  187.4970  176.9310  145.8790 C   0  0  2  0  0  0  0  0  0  0  0  0
  184.2370  179.1130  144.2400 C   0  0  0  0  0  2  0  0  0  0  0  0
  188.5780  175.6020  142.7280 C   0  0  0  0  0  0  0  0  0  0  0  0
  189.2330  175.6090  145.0640 N   0  0  0  0  0  0  0  0  0  0  0  0
  188.3640  175.9600  143.9970 C   0  0  0  0  0  0  0  0  0  0  0  0
  189.9320  174.4040  141.1300 N   0  0  0  0  0  0  0  0  0  0  0  0
  187.1870  176.0520  139.4270 O   0  0  0  0  0  0  0  0  0  0  0  0
  188.7370  176.1430  146.1260 C   0  0  0  0  0  0  0  0  0  0  0  0
  184.1740  178.1970  145.4430 C   0  0  0  0  0  2  0  0  0  0  0  0
  185.7050  179.2230  143.8860 C   0  0  0  0  0  2  0  0  0  0  0  0
  186.0460  176.9020  146.9520 S   0  0  0  0  0  0  0  0  0  0  0  0
  188.3090  173.2540  139.7930 C   0  0  0  0  0  0  0  0  0  0  0  0
  187.8050  172.2320  139.5920 N   0  0  0  0  0  0  0  0  0  0  0  0
  190.5760  175.2770  147.6130 C   0  0  0  0  0  2  0  0  0  0  0  0
  191.7540  176.2270  147.6730 C   0  0  0  0  0  2  0  0  0  0  0  0
  193.2660  175.8820  145.5610 N   0  0  0  0  0  0  0  0  0  0  0  0
  192.5980  176.0350  146.4940 C   0  0  0  0  0  0  0  0  0  0  0  0
  1 14  1  6  0  0  0
  1  7  1  0  0  0  0
  1 10  1  0  0  0  0
  2 23  1  0  0  0  0
  3  4  1  0  0  0  0
  4 12  1  0  0  0  0
  5 19  1  6  0  0  0
  5  8  1  0  0  0  0
  6 21  1  1  0  0  0
  6  3  1  0  0  0  0
  6 15  1  0  0  0  0
  7  5  1  0  0  0  0
  7 10  1  0  0  0  0
  8 20  1  0  0  0  0
  9 12  1  0  0  0  0
 10 17  1  0  0  0  0
 10 20  1  0  0  0  0
 11 18  1  0  0  0  0
 12 14  2  0  0  0  0
 13 17  2  0  0  0  0
 14 13  1  0  0  0  0
 15  9  2  0  0  0  0
 16  3  2  0  0  0  0
 17  2  1  0  0  0  0
 18  8  1  0  0  0  0
 19 11  1  0  0  0  0
 22 21  3  0  0  0  0
 23 24  1  0  0  0  0
 25 26  3  0  0  0  0
 26 24  1  0  0  0  0
M  END
>  <MODEL>
7

>  <REMARK>
 VINA RESULT:      -6.1      3.056      5.991
  Name = 
  4 active torsions:
  status: ('A' for Active; 'I' for Inactive)
    1  A    between atoms: N_2  and  C_4
    2  A    between atoms: C_4  and  C_15
    3  A    between atoms: C_7  and  C_9
    4  A    between atoms: C_15  and  C_26
                            x       y       z     vdW  Elec       q    Type
                         _______ _______ _______ _____ _____    ______ ____

>  <TORSDO>
F 4

$$$$
=
 OpenBabel11042418523D

 26 30  0  0  1  0  0  0  0  0999 V2000
  187.5130  177.1010  143.6000 C   0  0  2  0  0  3  0  0  0  0  0  0
  186.6640  176.8280  139.9800 N   0  0  0  0  0  2  0  0  0  0  0  0
  190.8630  175.2680  145.6370 C   0  0  0  0  0  0  0  0  0  0  0  0
  189.7360  175.8450  144.9810 N   0  0  0  0  0  2  0  0  0  0  0  0
  185.2230  177.1250  144.4200 C   0  0  2  0  0  3  0  0  0  0  0  0
  191.9940  174.6850  144.8310 C   0  0  1  0  0  3  0  0  0  0  0  0
  186.1850  176.4350  143.5470 N   0  0  1  0  0  0  0  0  0  0  0  0
  184.9660  178.5800  144.0350 C   0  0  1  0  0  3  0  0  0  0  0  0
  190.5470  174.8490  142.8500 C   0  0  0  0  0  3  0  0  0  0  0  0
  186.5990  177.3650  142.4890 C   0  0  2  0  0  0  0  0  0  0  0  0
  185.3960  178.5050  146.4040 C   0  0  0  0  0  2  0  0  0  0  0  0
  189.5800  175.6890  143.5700 C   0  0  0  0  0  0  0  0  0  0  0  0
  188.3240  176.1200  141.5400 N   0  0  0  0  0  0  0  0  0  0  0  0
  188.5480  176.2520  142.9360 C   0  0  0  0  0  0  0  0  0  0  0  0
  191.6050  174.3840  143.4460 N   0  0  0  0  0  0  0  0  0  0  0  0
  190.9300  175.2840  146.8940 O   0  0  0  0  0  0  0  0  0  0  0  0
  187.2340  176.7590  141.2860 C   0  0  0  0  0  0  0  0  0  0  0  0
  185.4600  179.4160  145.1970 C   0  0  0  0  0  2  0  0  0  0  0  0
  185.6610  177.1100  145.8780 C   0  0  0  0  0  2  0  0  0  0  0  0
  185.8650  179.0140  142.5260 S   0  0  0  0  0  0  0  0  0  0  0  0
  193.1300  175.6110  144.8280 C   0  0  0  0  0  0  0  0  0  0  0  0
  194.0280  176.3420  144.8250 N   0  0  0  0  0  0  0  0  0  0  0  0
  187.2960  176.2060  138.8290 C   0  0  0  0  0  2  0  0  0  0  0  0
  186.3280  176.1950  137.6650 C   0  0  0  0  0  2  0  0  0  0  0  0
  187.6390  176.5820  135.4290 N   0  0  0  0  0  0  0  0  0  0  0  0
  187.0600  176.4110  136.4170 C   0  0  0  0  0  0  0  0  0  0  0  0
  1 14  1  6  0  0  0
  2 17  1  0  0  0  0
  3 16  2  0  0  0  0
  4  3  1  0  0  0  0
  5 19  1  1  0  0  0
  6 21  1  6  0  0  0
  6  3  1  0  0  0  0
  7  1  1  0  0  0  0
  7  5  1  0  0  0  0
  8  5  1  0  0  0  0
  8 18  1  0  0  0  0
  9 15  2  0  0  0  0
  9 12  1  0  0  0  0
 10 20  1  0  0  0  0
 10  7  1  0  0  0  0
 10  1  1  0  0  0  0
 12  4  1  0  0  0  0
 13 14  1  0  0  0  0
 14 12  2  0  0  0  0
 15  6  1  0  0  0  0
 17 13  2  0  0  0  0
 17 10  1  0  0  0  0
 18 11  1  0  0  0  0
 19 11  1  0  0  0  0
 20  8  1  0  0  0  0
 22 21  3  0  0  0  0
 23  2  1  0  0  0  0
 24 23  1  0  0  0  0
 25 26  3  0  0  0  0
 26 24  1  0  0  0  0
M  END
>  <MODEL>
8

>  <REMARK>
 VINA RESULT:      -5.9      2.536      3.338
  Name = 
  4 active torsions:
  status: ('A' for Active; 'I' for Inactive)
    1  A    between atoms: N_2  and  C_4
    2  A    between atoms: C_4  and  C_15
    3  A    between atoms: C_7  and  C_9
    4  A    between atoms: C_15  and  C_26
                            x       y       z     vdW  Elec       q    Type
                         _______ _______ _______ _____ _____    ______ ____

>  <TORSDO>
F 4

$$$$
=
 OpenBabel11042418523D

 26 30  0  0  1  0  0  0  0  0999 V2000
  190.0040  175.3760  143.4280 C   0  0  2  0  0  3  0  0  0  0  0  0
  186.7690  177.1100  144.0860 N   0  0  0  0  0  2  0  0  0  0  0  0
  190.9380  172.7770  140.0950 C   0  0  0  0  0  0  0  0  0  0  0  0
  190.6260  173.6020  141.2160 N   0  0  0  0  0  2  0  0  0  0  0  0
  190.5500  174.9160  145.7530 C   0  0  2  0  0  3  0  0  0  0  0  0
  190.0230  172.7450  138.9000 C   0  0  1  0  0  3  0  0  0  0  0  0
  189.5090  174.8270  144.7180 N   0  0  1  0  0  0  0  0  0  0  0  0
  191.0010  176.3420  146.0620 C   0  0  1  0  0  3  0  0  0  0  0  0
  188.3570  173.9420  140.2550 C   0  0  0  0  0  3  0  0  0  0  0  0
  189.1560  176.1900  144.2990 C   0  0  2  0  0  0  0  0  0  0  0  0
  192.9710  174.9930  145.7440 C   0  0  0  0  0  2  0  0  0  0  0  0
  189.3510  174.2390  141.2960 C   0  0  0  0  0  0  0  0  0  0  0  0
  187.8020  175.6890  142.4720 N   0  0  0  0  0  0  0  0  0  0  0  0
  189.0570  175.0420  142.3220 C   0  0  0  0  0  0  0  0  0  0  0  0
  188.6740  173.2420  139.2050 N   0  0  0  0  0  0  0  0  0  0  0  0
  192.0020  172.1060  140.0900 O   0  0  0  0  0  0  0  0  0  0  0  0
  187.8630  176.3470  143.5770 C   0  0  0  0  0  0  0  0  0  0  0  0
  192.4600  176.4150  145.6660 C   0  0  0  0  0  2  0  0  0  0  0  0
  191.7910  174.1140  145.3870 C   0  0  0  0  0  2  0  0  0  0  0  0
  190.0340  177.5410  145.1140 S   0  0  0  0  0  0  0  0  0  0  0  0
  190.5990  173.5390  137.8100 C   0  0  0  0  0  0  0  0  0  0  0  0
  191.0540  174.1660  136.9510 N   0  0  0  0  0  0  0  0  0  0  0  0
  185.5110  177.2250  143.3690 C   0  0  0  0  0  2  0  0  0  0  0  0
  184.8910  178.5780  143.6510 C   0  0  0  0  0  2  0  0  0  0  0  0
  184.0660  178.6660  146.1360 N   0  0  0  0  0  0  0  0  0  0  0  0
  184.4310  178.6270  145.0380 C   0  0  0  0  0  0  0  0  0  0  0  0
  1 14  1  6  0  0  0
  1 10  1  0  0  0  0
  1  7  1  0  0  0  0
  3  4  1  0  0  0  0
  4 12  1  0  0  0  0
  5 19  1  6  0  0  0
  5  8  1  0  0  0  0
  6 21  1  6  0  0  0
  6 15  1  0  0  0  0
  6  3  1  0  0  0  0
  7  5  1  0  0  0  0
  9 12  1  0  0  0  0
 10  7  1  0  0  0  0
 10 20  1  0  0  0  0
 12 14  2  0  0  0  0
 13 17  2  0  0  0  0
 14 13  1  0  0  0  0
 15  9  2  0  0  0  0
 16  3  2  0  0  0  0
 17  2  1  0  0  0  0
 17 10  1  0  0  0  0
 18 11  1  0  0  0  0
 18  8  1  0  0  0  0
 19 11  1  0  0  0  0
 20  8  1  0  0  0  0
 22 21  3  0  0  0  0
 23 24  1  0  0  0  0
 23  2  1  0  0  0  0
 24 26  1  0  0  0  0
 26 25  3  0  0  0  0
M  END
>  <MODEL>
9

>  <REMARK>
 VINA RESULT:      -5.9      2.974      4.853
  Name = 
  4 active torsions:
  status: ('A' for Active; 'I' for Inactive)
    1  A    between atoms: N_2  and  C_4
    2  A    between atoms: C_4  and  C_15
    3  A    between atoms: C_7  and  C_9
    4  A    between atoms: C_15  and  C_26
                            x       y       z     vdW  Elec       q    Type
                         _______ _______ _______ _____ _____    ______ ____

>  <TORSDO>
F 4

$$$$
