=
 OpenBabel11042416263D

 38 40  0  0  1  0  0  0  0  0999 V2000
  190.5250  174.2090  143.3450 C   0  0  0  0  0  2  0  0  0  0  0  0
  188.8470  175.8470  144.0920 C   0  0  0  0  0  3  0  0  0  0  0  0
  189.9540  175.1480  144.3750 C   0  0  0  0  0  0  0  0  0  0  0  0
  188.3020  174.3440  142.2090 C   0  0  0  0  0  0  0  0  0  0  0  0
  188.1530  175.7360  142.7620 C   0  0  1  0  0  3  0  0  0  0  0  0
  189.4560  173.5650  142.5700 N   0  0  0  0  0  0  0  0  0  0  0  0
  187.4500  173.8890  141.3980 O   0  0  0  0  0  0  0  0  0  0  0  0
  189.7850  171.3620  139.4390 O   0  0  0  0  0  0  0  0  0  0  0  0
  191.6190  171.3700  141.4110 N   0  0  0  0  0  0  0  0  0  0  0  0
  190.8560  173.5730  139.9970 O   0  0  0  0  0  0  0  0  0  0  0  0
  192.7690  172.2400  141.6020 C   0  0  0  0  0  1  0  0  0  0  0  0
  190.4260  172.2190  140.4940 S   0  0  0  0  0  0  0  0  0  0  0  0
  189.5980  172.2030  142.0410 C   0  0  1  0  0  3  0  0  0  0  0  0
  190.8040  171.4530  142.6350 C   0  0  0  0  0  2  0  0  0  0  0  0
  190.0390  174.8970  146.7670 N   0  0  0  0  0  2  0  0  0  0  0  0
  191.9370  175.8620  145.7440 N   0  0  0  0  0  2  0  0  0  0  0  0
  190.6240  175.2920  145.6810 C   0  0  0  0  0  0  0  0  0  0  0  0
  192.6490  175.9500  146.9500 N   0  0  0  0  0  2  0  0  0  0  0  0
  193.7850  176.8280  146.7140 C   0  0  0  0  0  2  0  0  0  0  0  0
  195.2370  176.7400  144.6800 C   0  0  0  0  0  3  0  0  0  0  0  0
  195.3040  174.8990  146.2460 C   0  0  0  0  0  3  0  0  0  0  0  0
  196.1880  176.0800  143.8970 C   0  0  0  0  0  0  0  0  0  0  0  0
  194.7870  176.1380  145.8580 C   0  0  0  0  0  0  0  0  0  0  0  0
  196.8190  172.9560  145.8370 C   0  0  0  0  0  1  0  0  0  0  0  0
  196.2590  174.2750  145.4400 C   0  0  0  0  0  0  0  0  0  0  0  0
  196.6790  174.8730  144.2920 N   0  0  0  0  0  0  0  0  0  0  0  0
  196.6890  176.7130  142.6470 C   0  0  0  0  0  2  0  0  0  0  0  0
  195.8080  176.3790  141.5400 N   0  0  0  0  0  1  0  0  0  0  0  0
  186.9520  178.2150  141.9770 O   0  0  0  0  0  0  0  0  0  0  0  0
  186.7450  176.0800  142.9110 N   0  0  0  0  0  2  0  0  0  0  0  0
  186.2150  177.3480  142.5180 C   0  0  0  0  0  0  0  0  0  0  0  0
  184.7690  177.6340  142.7200 C   0  0  0  0  0  2  0  0  0  0  0  0
  184.6160  178.8390  143.5300 N   0  0  0  0  0  2  0  0  0  0  0  0
  184.6880  178.5070  144.9530 C   0  0  2  0  0  3  0  0  0  0  0  0
  183.5390  178.9380  145.6260 O   0  0  0  0  0  1  0  0  0  0  0  0
  185.9470  179.0830  145.5960 C   0  0  0  0  0  2  0  0  0  0  0  0
  185.9630  176.7010  146.3410 C   0  0  0  0  0  1  0  0  0  0  0  0
  186.6150  178.0620  146.5050 C   0  0  0  0  0  2  0  0  0  0  0  0
  1  3  1  0  0  0  0
  2  3  2  0  0  0  0
  3 17  1  0  0  0  0
  4  6  1  0  0  0  0
  4  5  1  0  0  0  0
  5 30  1  1  0  0  0
  5  2  1  0  0  0  0
  6  1  1  0  0  0  0
  7  4  2  0  0  0  0
  8 12  2  0  0  0  0
  9 11  1  0  0  0  0
  9 14  1  0  0  0  0
 10 12  2  0  0  0  0
 12  9  1  0  0  0  0
 12 13  1  0  0  0  0
 13  6  1  1  0  0  0
 13 14  1  0  0  0  0
 16 18  1  0  0  0  0
 17 16  1  0  0  0  0
 17 15  2  0  0  0  0
 19 18  1  0  0  0  0
 20 23  1  0  0  0  0
 22 26  1  0  0  0  0
 22 20  2  0  0  0  0
 23 21  2  0  0  0  0
 23 19  1  0  0  0  0
 25 24  1  0  0  0  0
 25 21  1  0  0  0  0
 26 25  2  0  0  0  0
 27 22  1  0  0  0  0
 28 27  1  0  0  0  0
 29 31  2  0  0  0  0
 31 32  1  0  0  0  0
 31 30  1  0  0  0  0
 32 33  1  0  0  0  0
 33 34  1  0  0  0  0
 34 36  1  0  0  0  0
 34 35  1  1  0  0  0
 36 38  1  0  0  0  0
 37 38  1  0  0  0  0
M  END
>  <MODEL>
1

>  <REMARK>
 VINA RESULT:      -6.9      0.000      0.000
  Name = 
  12 active torsions:
  status: ('A' for Active; 'I' for Inactive)
    1  A    between atoms: C_1  and  C_22
    2  A    between atoms: C_6  and  N_18
    3  A    between atoms: C_6  and  C_37
    4  A    between atoms: C_9  and  C_30
    5  A    between atoms: C_10  and  N_18
    6  A    between atoms: C_10  and  C_19
    7  A    between atoms: N_16  and  N_26
    8  A    between atoms: C_19  and  C_32
    9  A    between atoms: C_21  and  N_35
   10  A    between atoms: C_24  and  C_36
   11  A    between atoms: N_25  and  C_29
   12  A    between atoms: N_26  and  C_36
                            x       y       z     vdW  Elec       q    Type
                         _______ _______ _______ _____ _____    ______ ____

>  <TORSDO>
F 12

$$$$
=
 OpenBabel11042416263D

 38 40  0  0  1  0  0  0  0  0999 V2000
  190.4650  174.2380  143.3340 C   0  0  0  0  0  2  0  0  0  0  0  0
  189.0080  176.0560  144.1230 C   0  0  0  0  0  3  0  0  0  0  0  0
  190.0290  175.2280  144.3810 C   0  0  0  0  0  0  0  0  0  0  0  0
  188.2550  174.6470  142.2400 C   0  0  0  0  0  0  0  0  0  0  0  0
  188.2830  176.0410  142.8060 C   0  0  1  0  0  3  0  0  0  0  0  0
  189.3150  173.7330  142.5740 N   0  0  0  0  0  0  0  0  0  0  0  0
  187.3410  174.3040  141.4410 O   0  0  0  0  0  0  0  0  0  0  0  0
  189.3910  171.5330  139.4240 O   0  0  0  0  0  0  0  0  0  0  0  0
  191.1860  171.2850  141.4160 N   0  0  0  0  0  0  0  0  0  0  0  0
  190.7350  173.5800  140.0160 O   0  0  0  0  0  0  0  0  0  0  0  0
  192.4380  171.9950  141.6280 C   0  0  0  0  0  1  0  0  0  0  0  0
  190.1250  172.2900  140.4950 S   0  0  0  0  0  0  0  0  0  0  0  0
  189.2830  172.3680  142.0320 C   0  0  1  0  0  3  0  0  0  0  0  0
  190.3750  171.4620  142.6310 C   0  0  0  0  0  2  0  0  0  0  0  0
  190.1760  174.8100  146.7470 N   0  0  0  0  0  2  0  0  0  0  0  0
  192.0500  175.8400  145.7430 N   0  0  0  0  0  2  0  0  0  0  0  0
  190.7340  175.2790  145.6750 C   0  0  0  0  0  0  0  0  0  0  0  0
  192.7940  175.8420  146.9320 N   0  0  0  0  0  2  0  0  0  0  0  0
  193.9390  176.7160  146.7210 C   0  0  0  0  0  2  0  0  0  0  0  0
  195.4610  174.8080  146.1750 C   0  0  0  0  0  3  0  0  0  0  0  0
  195.2900  176.6510  144.6190 C   0  0  0  0  0  3  0  0  0  0  0  0
  196.3740  174.1940  145.3140 C   0  0  0  0  0  0  0  0  0  0  0  0
  194.9230  176.0500  145.8260 C   0  0  0  0  0  0  0  0  0  0  0  0
  196.6030  176.6280  142.4960 C   0  0  0  0  0  1  0  0  0  0  0  0
  196.2010  176.0030  143.7820 C   0  0  0  0  0  0  0  0  0  0  0  0
  196.7190  174.7970  144.1420 N   0  0  0  0  0  0  0  0  0  0  0  0
  196.9450  172.8650  145.6620 C   0  0  0  0  0  2  0  0  0  0  0  0
  197.8240  172.4130  144.5970 N   0  0  0  0  0  1  0  0  0  0  0  0
  187.1190  178.2220  141.3590 O   0  0  0  0  0  0  0  0  0  0  0  0
  186.9280  176.5490  142.9830 N   0  0  0  0  0  2  0  0  0  0  0  0
  186.4180  177.6590  142.2420 C   0  0  0  0  0  0  0  0  0  0  0  0
  185.0300  178.1340  142.4920 C   0  0  0  0  0  2  0  0  0  0  0  0
  184.6000  177.7120  143.8220 N   0  0  0  0  0  2  0  0  0  0  0  0
  184.3490  178.8770  144.6700 C   0  0  2  0  0  3  0  0  0  0  0  0
  185.0770  179.9860  144.2240 O   0  0  0  0  0  1  0  0  0  0  0  0
  184.6540  178.5750  146.1350 C   0  0  0  0  0  2  0  0  0  0  0  0
  186.4190  176.9720  146.8710 C   0  0  0  0  0  1  0  0  0  0  0  0
  185.0070  177.1090  146.3310 C   0  0  0  0  0  2  0  0  0  0  0  0
  1  3  1  0  0  0  0
  2  3  2  0  0  0  0
  3 17  1  0  0  0  0
  4  6  1  0  0  0  0
  4  5  1  0  0  0  0
  5 30  1  1  0  0  0
  5  2  1  0  0  0  0
  6  1  1  0  0  0  0
  7  4  2  0  0  0  0
  8 12  2  0  0  0  0
  9 11  1  0  0  0  0
  9 14  1  0  0  0  0
 10 12  2  0  0  0  0
 12  9  1  0  0  0  0
 12 13  1  0  0  0  0
 13  6  1  1  0  0  0
 13 14  1  0  0  0  0
 16 18  1  0  0  0  0
 17 16  1  0  0  0  0
 17 15  2  0  0  0  0
 19 18  1  0  0  0  0
 21 23  2  0  0  0  0
 22 27  1  0  0  0  0
 22 20  2  0  0  0  0
 23 20  1  0  0  0  0
 23 19  1  0  0  0  0
 24 25  1  0  0  0  0
 25 26  2  0  0  0  0
 25 21  1  0  0  0  0
 26 22  1  0  0  0  0
 28 27  1  0  0  0  0
 29 31  2  0  0  0  0
 31 32  1  0  0  0  0
 31 30  1  0  0  0  0
 32 33  1  0  0  0  0
 33 34  1  0  0  0  0
 34 35  1  6  0  0  0
 34 36  1  0  0  0  0
 36 38  1  0  0  0  0
 38 37  1  0  0  0  0
M  END
>  <MODEL>
2

>  <REMARK>
 VINA RESULT:      -6.7      0.803      1.756
  Name = 
  12 active torsions:
  status: ('A' for Active; 'I' for Inactive)
    1  A    between atoms: C_1  and  C_22
    2  A    between atoms: C_6  and  N_18
    3  A    between atoms: C_6  and  C_37
    4  A    between atoms: C_9  and  C_30
    5  A    between atoms: C_10  and  N_18
    6  A    between atoms: C_10  and  C_19
    7  A    between atoms: N_16  and  N_26
    8  A    between atoms: C_19  and  C_32
    9  A    between atoms: C_21  and  N_35
   10  A    between atoms: C_24  and  C_36
   11  A    between atoms: N_25  and  C_29
   12  A    between atoms: N_26  and  C_36
                            x       y       z     vdW  Elec       q    Type
                         _______ _______ _______ _____ _____    ______ ____

>  <TORSDO>
F 12

$$$$
=
 OpenBabel11042416263D

 38 40  0  0  1  0  0  0  0  0999 V2000
  190.4760  175.1930  142.7440 C   0  0  0  0  0  2  0  0  0  0  0  0
  188.1950  175.7900  143.4480 C   0  0  0  0  0  3  0  0  0  0  0  0
  189.0020  175.3470  142.4750 C   0  0  0  0  0  0  0  0  0  0  0  0
  190.1150  176.6650  144.7320 C   0  0  0  0  0  0  0  0  0  0  0  0
  188.7120  176.1290  144.8200 C   0  0  1  0  0  3  0  0  0  0  0  0
  190.9610  176.2460  143.6450 N   0  0  0  0  0  0  0  0  0  0  0  0
  190.5590  177.4320  145.6290 O   0  0  0  0  0  0  0  0  0  0  0  0
  194.3270  176.7640  145.4240 O   0  0  0  0  0  0  0  0  0  0  0  0
  194.1020  175.4310  143.0950 N   0  0  0  0  0  0  0  0  0  0  0  0
  192.7900  174.7670  145.3910 O   0  0  0  0  0  0  0  0  0  0  0  0
  193.8100  174.0260  142.8560 C   0  0  0  0  0  1  0  0  0  0  0  0
  193.4110  175.8940  144.6090 S   0  0  0  0  0  0  0  0  0  0  0  0
  192.3260  176.7770  143.5510 C   0  0  1  0  0  3  0  0  0  0  0  0
  193.1040  176.2150  142.3480 C   0  0  0  0  0  2  0  0  0  0  0  0
  187.7480  175.8590  140.4860 N   0  0  0  0  0  2  0  0  0  0  0  0
  188.7460  173.7200  140.5770 N   0  0  0  0  0  2  0  0  0  0  0  0
  188.4640  175.0040  141.1460 C   0  0  0  0  0  0  0  0  0  0  0  0
  188.3240  173.3720  139.2850 N   0  0  0  0  0  2  0  0  0  0  0  0
  189.4870  172.8590  138.5780 C   0  0  0  0  0  2  0  0  0  0  0  0
  191.2000  174.0720  137.2190 C   0  0  0  0  0  3  0  0  0  0  0  0
  188.8620  174.3470  136.6700 C   0  0  0  0  0  3  0  0  0  0  0  0
  191.5260  174.9350  136.1700 C   0  0  0  0  0  0  0  0  0  0  0  0
  189.8570  173.7850  137.4740 C   0  0  0  0  0  0  0  0  0  0  0  0
  188.1830  175.8090  134.7620 C   0  0  0  0  0  1  0  0  0  0  0  0
  189.2280  175.2000  135.6260 C   0  0  0  0  0  0  0  0  0  0  0  0
  190.5420  175.4740  135.3980 N   0  0  0  0  0  0  0  0  0  0  0  0
  192.9520  175.2400  135.8750 C   0  0  0  0  0  2  0  0  0  0  0  0
  193.6350  175.6270  137.0980 N   0  0  0  0  0  1  0  0  0  0  0  0
  187.5710  175.8890  147.4350 O   0  0  0  0  0  0  0  0  0  0  0  0
  187.8300  177.1020  145.4520 N   0  0  0  0  0  2  0  0  0  0  0  0
  187.2750  176.9080  146.7540 C   0  0  0  0  0  0  0  0  0  0  0  0
  186.3660  177.9370  147.3270 C   0  0  0  0  0  2  0  0  0  0  0  0
  186.0270  178.9170  146.3000 N   0  0  0  0  0  2  0  0  0  0  0  0
  184.5960  178.8640  145.9990 C   0  0  2  0  0  3  0  0  0  0  0  0
  184.0240  177.6860  146.4920 O   0  0  0  0  0  1  0  0  0  0  0  0
  184.3360  179.0150  144.5020 C   0  0  0  0  0  2  0  0  0  0  0  0
  185.9990  178.6880  142.6710 C   0  0  0  0  0  1  0  0  0  0  0  0
  185.5440  179.6050  143.7920 C   0  0  0  0  0  2  0  0  0  0  0  0
  1  6  1  0  0  0  0
  2  5  1  0  0  0  0
  3  1  1  0  0  0  0
  3  2  2  0  0  0  0
  4  5  1  0  0  0  0
  4  7  2  0  0  0  0
  5 30  1  6  0  0  0
  6  4  1  0  0  0  0
  9 12  1  0  0  0  0
 11  9  1  0  0  0  0
 12 10  2  0  0  0  0
 12  8  2  0  0  0  0
 13 14  1  6  0  0  0
 13  6  1  0  0  0  0
 13 12  1  0  0  0  0
 14  9  1  0  0  0  0
 15 17  2  0  0  0  0
 16 17  1  0  0  0  0
 17  3  1  0  0  0  0
 18 16  1  0  0  0  0
 19 18  1  0  0  0  0
 20 23  1  0  0  0  0
 21 23  2  0  0  0  0
 22 20  2  0  0  0  0
 23 19  1  0  0  0  0
 24 25  1  0  0  0  0
 25 21  1  0  0  0  0
 26 25  2  0  0  0  0
 26 22  1  0  0  0  0
 27 22  1  0  0  0  0
 27 28  1  0  0  0  0
 30 31  1  0  0  0  0
 31 32  1  0  0  0  0
 31 29  2  0  0  0  0
 33 32  1  0  0  0  0
 34 33  1  0  0  0  0
 34 35  1  6  0  0  0
 36 34  1  0  0  0  0
 37 38  1  0  0  0  0
 38 36  1  0  0  0  0
M  END
>  <MODEL>
3

>  <REMARK>
 VINA RESULT:      -6.3      4.081      6.704
  Name = 
  12 active torsions:
  status: ('A' for Active; 'I' for Inactive)
    1  A    between atoms: C_1  and  C_22
    2  A    between atoms: C_6  and  N_18
    3  A    between atoms: C_6  and  C_37
    4  A    between atoms: C_9  and  C_30
    5  A    between atoms: C_10  and  N_18
    6  A    between atoms: C_10  and  C_19
    7  A    between atoms: N_16  and  N_26
    8  A    between atoms: C_19  and  C_32
    9  A    between atoms: C_21  and  N_35
   10  A    between atoms: C_24  and  C_36
   11  A    between atoms: N_25  and  C_29
   12  A    between atoms: N_26  and  C_36
                            x       y       z     vdW  Elec       q    Type
                         _______ _______ _______ _____ _____    ______ ____

>  <TORSDO>
F 12

$$$$
=
 OpenBabel11042416263D

 38 40  0  0  1  0  0  0  0  0999 V2000
  190.7140  174.9180  143.8760 C   0  0  0  0  0  2  0  0  0  0  0  0
  188.3790  175.6940  143.8740 C   0  0  0  0  0  3  0  0  0  0  0  0
  189.3530  175.0270  143.2410 C   0  0  0  0  0  0  0  0  0  0  0  0
  190.0140  176.8130  145.3480 C   0  0  0  0  0  0  0  0  0  0  0  0
  188.5940  176.3320  145.2200 C   0  0  1  0  0  3  0  0  0  0  0  0
  191.0530  176.1440  144.6110 N   0  0  0  0  0  0  0  0  0  0  0  0
  190.2950  177.7600  146.1330 O   0  0  0  0  0  0  0  0  0  0  0  0
  193.9650  176.9870  146.9710 O   0  0  0  0  0  0  0  0  0  0  0  0
  194.1770  175.1790  144.9870 N   0  0  0  0  0  0  0  0  0  0  0  0
  192.3470  175.0560  147.0040 O   0  0  0  0  0  0  0  0  0  0  0  0
  193.8530  173.7600  144.9880 C   0  0  0  0  0  1  0  0  0  0  0  0
  193.1990  175.9730  146.1680 S   0  0  0  0  0  0  0  0  0  0  0  0
  192.4370  176.6200  144.7260 C   0  0  1  0  0  3  0  0  0  0  0  0
  193.4250  175.7940  143.8820 C   0  0  0  0  0  2  0  0  0  0  0  0
  188.4220  175.0120  141.0220 N   0  0  0  0  0  2  0  0  0  0  0  0
  189.6420  173.0940  141.6620 N   0  0  0  0  0  2  0  0  0  0  0  0
  189.1070  174.3950  141.9310 C   0  0  0  0  0  0  0  0  0  0  0  0
  189.5030  172.4810  140.4070 N   0  0  0  0  0  2  0  0  0  0  0  0
  190.8390  172.3430  139.8470 C   0  0  0  0  0  2  0  0  0  0  0  0
  189.7670  173.6140  137.9780 C   0  0  0  0  0  3  0  0  0  0  0  0
  192.1540  173.2340  137.9170 C   0  0  0  0  0  3  0  0  0  0  0  0
  189.8670  174.3030  136.7670 C   0  0  0  0  0  0  0  0  0  0  0  0
  190.9190  173.0690  138.5510 C   0  0  0  0  0  0  0  0  0  0  0  0
  193.5180  174.1190  136.0220 C   0  0  0  0  0  1  0  0  0  0  0  0
  192.2140  173.9350  136.7110 C   0  0  0  0  0  0  0  0  0  0  0  0
  191.0800  174.4520  136.1650 N   0  0  0  0  0  0  0  0  0  0  0  0
  188.6520  174.9020  136.1500 C   0  0  0  0  0  2  0  0  0  0  0  0
  187.6340  175.1040  137.1670 N   0  0  0  0  0  1  0  0  0  0  0  0
  186.7660  176.6340  147.4020 O   0  0  0  0  0  0  0  0  0  0  0  0
  187.6600  177.4360  145.3960 N   0  0  0  0  0  2  0  0  0  0  0  0
  186.7560  177.5130  146.5000 C   0  0  0  0  0  0  0  0  0  0  0  0
  185.8170  178.6620  146.6020 C   0  0  0  0  0  2  0  0  0  0  0  0
  185.8130  179.4050  145.3460 N   0  0  0  0  0  2  0  0  0  0  0  0
  184.5160  179.2760  144.6820 C   0  0  2  0  0  3  0  0  0  0  0  0
  183.5340  178.8450  145.5820 O   0  0  0  0  0  1  0  0  0  0  0  0
  184.5980  178.3450  143.4750 C   0  0  0  0  0  2  0  0  0  0  0  0
  185.8650  177.7460  141.4100 C   0  0  0  0  0  1  0  0  0  0  0  0
  185.7910  178.6900  142.5970 C   0  0  0  0  0  2  0  0  0  0  0  0
  1  6  1  0  0  0  0
  2  5  1  0  0  0  0
  3  2  2  0  0  0  0
  3  1  1  0  0  0  0
  4  7  2  0  0  0  0
  5  4  1  0  0  0  0
  5 30  1  6  0  0  0
  6 13  1  0  0  0  0
  6  4  1  0  0  0  0
  9 11  1  0  0  0  0
  9 12  1  0  0  0  0
 12  8  2  0  0  0  0
 12 10  2  0  0  0  0
 13 14  1  6  0  0  0
 13 12  1  0  0  0  0
 14  9  1  0  0  0  0
 15 17  2  0  0  0  0
 16 17  1  0  0  0  0
 17  3  1  0  0  0  0
 18 16  1  0  0  0  0
 19 18  1  0  0  0  0
 20 23  1  0  0  0  0
 21 23  2  0  0  0  0
 22 20  2  0  0  0  0
 23 19  1  0  0  0  0
 24 25  1  0  0  0  0
 25 21  1  0  0  0  0
 26 25  2  0  0  0  0
 26 22  1  0  0  0  0
 27 22  1  0  0  0  0
 27 28  1  0  0  0  0
 30 31  1  0  0  0  0
 31 32  1  0  0  0  0
 31 29  2  0  0  0  0
 33 32  1  0  0  0  0
 34 33  1  0  0  0  0
 34 35  1  1  0  0  0
 36 34  1  0  0  0  0
 37 38  1  0  0  0  0
 38 36  1  0  0  0  0
M  END
>  <MODEL>
4

>  <REMARK>
 VINA RESULT:      -6.2      3.792      6.484
  Name = 
  12 active torsions:
  status: ('A' for Active; 'I' for Inactive)
    1  A    between atoms: C_1  and  C_22
    2  A    between atoms: C_6  and  N_18
    3  A    between atoms: C_6  and  C_37
    4  A    between atoms: C_9  and  C_30
    5  A    between atoms: C_10  and  N_18
    6  A    between atoms: C_10  and  C_19
    7  A    between atoms: N_16  and  N_26
    8  A    between atoms: C_19  and  C_32
    9  A    between atoms: C_21  and  N_35
   10  A    between atoms: C_24  and  C_36
   11  A    between atoms: N_25  and  C_29
   12  A    between atoms: N_26  and  C_36
                            x       y       z     vdW  Elec       q    Type
                         _______ _______ _______ _____ _____    ______ ____

>  <TORSDO>
F 12

$$$$
=
 OpenBabel11042416263D

 38 40  0  0  1  0  0  0  0  0999 V2000
  190.0990  173.3870  139.9650 C   0  0  0  0  0  2  0  0  0  0  0  0
  190.7910  173.8850  142.2730 C   0  0  0  0  0  3  0  0  0  0  0  0
  189.8430  173.9680  141.3300 C   0  0  0  0  0  0  0  0  0  0  0  0
  192.5220  173.3910  140.5820 C   0  0  0  0  0  0  0  0  0  0  0  0
  192.1120  173.2110  142.0180 C   0  0  1  0  0  3  0  0  0  0  0  0
  191.5060  173.5530  139.5760 N   0  0  0  0  0  0  0  0  0  0  0  0
  193.7400  173.3480  140.2590 O   0  0  0  0  0  0  0  0  0  0  0  0
  193.4050  172.1090  136.5640 O   0  0  0  0  0  0  0  0  0  0  0  0
  190.7870  172.7320  136.4710 N   0  0  0  0  0  0  0  0  0  0  0  0
  191.8980  170.9780  138.2370 O   0  0  0  0  0  0  0  0  0  0  0  0
  189.6300  171.9280  136.8360 C   0  0  0  0  0  1  0  0  0  0  0  0
  192.1500  172.1930  137.3860 S   0  0  0  0  0  0  0  0  0  0  0  0
  191.9050  173.7410  138.1750 C   0  0  1  0  0  3  0  0  0  0  0  0
  190.7060  173.9840  137.2400 C   0  0  0  0  0  2  0  0  0  0  0  0
  187.5500  173.9250  142.0590 N   0  0  0  0  0  2  0  0  0  0  0  0
  188.4070  176.0280  141.4100 N   0  0  0  0  0  2  0  0  0  0  0  0
  188.5500  174.6180  141.6150 C   0  0  0  0  0  0  0  0  0  0  0  0
  187.2240  176.7080  141.7390 N   0  0  0  0  0  2  0  0  0  0  0  0
  187.5860  177.7840  142.6490 C   0  0  0  0  0  2  0  0  0  0  0  0
  186.0400  177.7530  144.6140 C   0  0  0  0  0  3  0  0  0  0  0  0
  188.1750  176.6330  144.7870 C   0  0  0  0  0  3  0  0  0  0  0  0
  185.7530  177.3630  145.9250 C   0  0  0  0  0  0  0  0  0  0  0  0
  187.2650  177.3910  144.0470 C   0  0  0  0  0  0  0  0  0  0  0  0
  188.8050  175.4500  146.8950 C   0  0  0  0  0  1  0  0  0  0  0  0
  187.8490  176.2560  146.0920 C   0  0  0  0  0  0  0  0  0  0  0  0
  186.6540  176.6240  146.6300 N   0  0  0  0  0  0  0  0  0  0  0  0
  184.4470  177.7280  146.5390 C   0  0  0  0  0  2  0  0  0  0  0  0
  183.8990  178.8960  145.8720 N   0  0  0  0  0  1  0  0  0  0  0  0
  192.6530  172.2960  144.6770 O   0  0  0  0  0  0  0  0  0  0  0  0
  193.1240  173.7570  142.9130 N   0  0  0  0  0  2  0  0  0  0  0  0
  193.3260  173.2680  144.2400 C   0  0  0  0  0  0  0  0  0  0  0  0
  194.3660  173.8890  145.1020 C   0  0  0  0  0  2  0  0  0  0  0  0
  193.7370  174.8120  146.0430 N   0  0  0  0  0  2  0  0  0  0  0  0
  194.2380  176.1710  145.8340 C   0  0  2  0  0  3  0  0  0  0  0  0
  194.0550  176.9520  146.9810 O   0  0  0  0  0  1  0  0  0  0  0  0
  193.5860  176.8230  144.6170 C   0  0  0  0  0  2  0  0  0  0  0  0
  191.4730  177.8790  143.8110 C   0  0  0  0  0  1  0  0  0  0  0  0
  192.0720  176.8510  144.7550 C   0  0  0  0  0  2  0  0  0  0  0  0
  1  3  1  0  0  0  0
  3 17  1  0  0  0  0
  3  2  2  0  0  0  0
  4  5  1  0  0  0  0
  5  2  1  0  0  0  0
  5 30  1  1  0  0  0
  6  1  1  0  0  0  0
  6  4  1  0  0  0  0
  7  4  2  0  0  0  0
  8 12  2  0  0  0  0
  9 11  1  0  0  0  0
  9 14  1  0  0  0  0
  9 12  1  0  0  0  0
 12 13  1  0  0  0  0
 12 10  2  0  0  0  0
 13 14  1  6  0  0  0
 13  6  1  0  0  0  0
 16 17  1  0  0  0  0
 16 18  1  0  0  0  0
 17 15  2  0  0  0  0
 18 19  1  0  0  0  0
 19 23  1  0  0  0  0
 20 22  1  0  0  0  0
 21 25  2  0  0  0  0
 22 27  1  0  0  0  0
 22 26  2  0  0  0  0
 23 20  2  0  0  0  0
 23 21  1  0  0  0  0
 25 26  1  0  0  0  0
 25 24  1  0  0  0  0
 28 27  1  0  0  0  0
 30 31  1  0  0  0  0
 31 29  2  0  0  0  0
 31 32  1  0  0  0  0
 32 33  1  0  0  0  0
 34 33  1  0  0  0  0
 34 35  1  1  0  0  0
 36 38  1  0  0  0  0
 36 34  1  0  0  0  0
 37 38  1  0  0  0  0
M  END
>  <MODEL>
5

>  <REMARK>
 VINA RESULT:      -6.2      3.267      7.532
  Name = 
  12 active torsions:
  status: ('A' for Active; 'I' for Inactive)
    1  A    between atoms: C_1  and  C_22
    2  A    between atoms: C_6  and  N_18
    3  A    between atoms: C_6  and  C_37
    4  A    between atoms: C_9  and  C_30
    5  A    between atoms: C_10  and  N_18
    6  A    between atoms: C_10  and  C_19
    7  A    between atoms: N_16  and  N_26
    8  A    between atoms: C_19  and  C_32
    9  A    between atoms: C_21  and  N_35
   10  A    between atoms: C_24  and  C_36
   11  A    between atoms: N_25  and  C_29
   12  A    between atoms: N_26  and  C_36
                            x       y       z     vdW  Elec       q    Type
                         _______ _______ _______ _____ _____    ______ ____

>  <TORSDO>
F 12

$$$$
=
 OpenBabel11042416263D

 38 40  0  0  1  0  0  0  0  0999 V2000
  191.7160  174.7350  143.4170 C   0  0  0  0  0  2  0  0  0  0  0  0
  189.6080  175.3740  142.3200 C   0  0  0  0  0  3  0  0  0  0  0  0
  190.7470  174.6710  142.2660 C   0  0  0  0  0  0  0  0  0  0  0  0
  190.4940  176.7940  144.1360 C   0  0  0  0  0  0  0  0  0  0  0  0
  189.2510  176.2220  143.5100 C   0  0  1  0  0  3  0  0  0  0  0  0
  191.7350  176.0760  144.0170 N   0  0  0  0  0  0  0  0  0  0  0  0
  190.4350  177.8630  144.8010 O   0  0  0  0  0  0  0  0  0  0  0  0
  193.5350  177.0920  147.2560 O   0  0  0  0  0  0  0  0  0  0  0  0
  194.5620  175.3090  145.5190 N   0  0  0  0  0  0  0  0  0  0  0  0
  192.1350  175.0630  146.7360 O   0  0  0  0  0  0  0  0  0  0  0  0
  194.3460  173.8730  145.4300 C   0  0  0  0  0  1  0  0  0  0  0  0
  193.1750  176.0350  146.2490 S   0  0  0  0  0  0  0  0  0  0  0  0
  192.9510  176.6380  144.6170 C   0  0  1  0  0  3  0  0  0  0  0  0
  194.2260  175.8800  144.2040 C   0  0  0  0  0  2  0  0  0  0  0  0
  192.0430  174.1430  140.3080 N   0  0  0  0  0  2  0  0  0  0  0  0
  190.2830  172.6590  140.8340 N   0  0  0  0  0  2  0  0  0  0  0  0
  191.0620  173.8320  141.0940 C   0  0  0  0  0  0  0  0  0  0  0  0
  190.5880  171.7850  139.7800 N   0  0  0  0  0  2  0  0  0  0  0  0
  189.3780  171.6300  138.9870 C   0  0  0  0  0  2  0  0  0  0  0  0
  188.1930  173.6510  138.1140 C   0  0  0  0  0  3  0  0  0  0  0  0
  190.2350  172.9350  137.0350 C   0  0  0  0  0  3  0  0  0  0  0  0
  188.1080  174.7080  137.2030 C   0  0  0  0  0  0  0  0  0  0  0  0
  189.2600  172.7550  138.0200 C   0  0  0  0  0  0  0  0  0  0  0  0
  191.1440  174.2150  135.0930 C   0  0  0  0  0  1  0  0  0  0  0  0
  190.1180  174.0080  136.1480 C   0  0  0  0  0  0  0  0  0  0  0  0
  189.0670  174.8660  136.2500 N   0  0  0  0  0  0  0  0  0  0  0  0
  186.9850  175.6800  137.2970 C   0  0  0  0  0  2  0  0  0  0  0  0
  186.8630  176.4130  136.0480 N   0  0  0  0  0  1  0  0  0  0  0  0
  186.4070  175.9910  143.2670 O   0  0  0  0  0  0  0  0  0  0  0  0
  188.3460  177.2880  143.1010 N   0  0  0  0  0  2  0  0  0  0  0  0
  186.9350  177.0980  142.9770 C   0  0  0  0  0  0  0  0  0  0  0  0
  186.0770  178.2290  142.5350 C   0  0  0  0  0  2  0  0  0  0  0  0
  184.7460  178.0920  143.1180 N   0  0  0  0  0  2  0  0  0  0  0  0
  184.4650  179.2140  144.0140 C   0  0  2  0  0  3  0  0  0  0  0  0
  185.5550  180.0890  144.0770 O   0  0  0  0  0  1  0  0  0  0  0  0
  184.0710  178.7290  145.4070 C   0  0  0  0  0  2  0  0  0  0  0  0
  185.2380  178.5030  147.6010 C   0  0  0  0  0  1  0  0  0  0  0  0
  185.2590  178.1190  146.1320 C   0  0  0  0  0  2  0  0  0  0  0  0
  1  6  1  0  0  0  0
  2  5  1  0  0  0  0
  3  2  2  0  0  0  0
  3  1  1  0  0  0  0
  4  7  2  0  0  0  0
  5 30  1  6  0  0  0
  5  4  1  0  0  0  0
  6  4  1  0  0  0  0
  9 12  1  0  0  0  0
 11  9  1  0  0  0  0
 12 10  2  0  0  0  0
 12  8  2  0  0  0  0
 13  6  1  6  0  0  0
 13 12  1  0  0  0  0
 14 13  1  0  0  0  0
 14  9  1  0  0  0  0
 15 17  2  0  0  0  0
 16 17  1  0  0  0  0
 17  3  1  0  0  0  0
 18 16  1  0  0  0  0
 19 18  1  0  0  0  0
 21 23  2  0  0  0  0
 22 27  1  0  0  0  0
 22 20  2  0  0  0  0
 23 20  1  0  0  0  0
 23 19  1  0  0  0  0
 24 25  1  0  0  0  0
 25 26  2  0  0  0  0
 25 21  1  0  0  0  0
 26 22  1  0  0  0  0
 28 27  1  0  0  0  0
 31 30  1  0  0  0  0
 31 29  2  0  0  0  0
 32 31  1  0  0  0  0
 32 33  1  0  0  0  0
 33 34  1  0  0  0  0
 34 35  1  1  0  0  0
 34 36  1  0  0  0  0
 36 38  1  0  0  0  0
 38 37  1  0  0  0  0
M  END
>  <MODEL>
6

>  <REMARK>
 VINA RESULT:      -6.2      3.887      6.892
  Name = 
  12 active torsions:
  status: ('A' for Active; 'I' for Inactive)
    1  A    between atoms: C_1  and  C_22
    2  A    between atoms: C_6  and  N_18
    3  A    between atoms: C_6  and  C_37
    4  A    between atoms: C_9  and  C_30
    5  A    between atoms: C_10  and  N_18
    6  A    between atoms: C_10  and  C_19
    7  A    between atoms: N_16  and  N_26
    8  A    between atoms: C_19  and  C_32
    9  A    between atoms: C_21  and  N_35
   10  A    between atoms: C_24  and  C_36
   11  A    between atoms: N_25  and  C_29
   12  A    between atoms: N_26  and  C_36
                            x       y       z     vdW  Elec       q    Type
                         _______ _______ _______ _____ _____    ______ ____

>  <TORSDO>
F 12

$$$$
=
 OpenBabel11042416263D

 38 40  0  0  1  0  0  0  0  0999 V2000
  191.8990  172.9550  140.8620 C   0  0  0  0  0  2  0  0  0  0  0  0
  190.7600  174.5900  142.3050 C   0  0  0  0  0  3  0  0  0  0  0  0
  191.8730  173.8930  142.0390 C   0  0  0  0  0  0  0  0  0  0  0  0
  189.4030  173.0860  140.8930 C   0  0  0  0  0  0  0  0  0  0  0  0
  189.5260  174.4770  141.4520 C   0  0  1  0  0  3  0  0  0  0  0  0
  190.5940  172.3080  140.6740 N   0  0  0  0  0  0  0  0  0  0  0  0
  188.2720  172.6280  140.5730 O   0  0  0  0  0  0  0  0  0  0  0  0
  189.4000  170.1010  137.7640 O   0  0  0  0  0  0  0  0  0  0  0  0
  191.9540  170.1260  138.6190 N   0  0  0  0  0  0  0  0  0  0  0  0
  190.5920  172.3210  137.7450 O   0  0  0  0  0  0  0  0  0  0  0  0
  193.0490  171.0050  138.2380 C   0  0  0  0  0  1  0  0  0  0  0  0
  190.4620  170.9650  138.3850 S   0  0  0  0  0  0  0  0  0  0  0  0
  190.4740  170.9460  140.1400 C   0  0  1  0  0  3  0  0  0  0  0  0
  191.8230  170.2060  140.0830 C   0  0  0  0  0  2  0  0  0  0  0  0
  193.6300  173.0000  143.4200 N   0  0  0  0  0  2  0  0  0  0  0  0
  193.6360  175.3390  143.0960 N   0  0  0  0  0  2  0  0  0  0  0  0
  193.0740  174.0390  142.8820 C   0  0  0  0  0  0  0  0  0  0  0  0
  194.8210  175.5240  143.8240 N   0  0  0  0  0  2  0  0  0  0  0  0
  194.6120  176.6670  144.7000 C   0  0  0  0  0  2  0  0  0  0  0  0
  192.1780  177.2110  144.5180 C   0  0  0  0  0  3  0  0  0  0  0  0
  192.9680  176.0160  146.4660 C   0  0  0  0  0  3  0  0  0  0  0  0
  190.8830  177.1630  145.0410 C   0  0  0  0  0  0  0  0  0  0  0  0
  193.2270  176.6400  145.2430 C   0  0  0  0  0  0  0  0  0  0  0  0
  191.3640  175.3260  148.2510 C   0  0  0  0  0  1  0  0  0  0  0  0
  191.6580  175.9840  146.9520 C   0  0  0  0  0  0  0  0  0  0  0  0
  190.6510  176.5520  146.2350 N   0  0  0  0  0  0  0  0  0  0  0  0
  189.7510  177.7540  144.2750 C   0  0  0  0  0  2  0  0  0  0  0  0
  190.2010  178.1300  142.9450 N   0  0  0  0  0  1  0  0  0  0  0  0
  187.7240  176.6350  140.9050 O   0  0  0  0  0  0  0  0  0  0  0  0
  188.3490  174.8190  142.2400 N   0  0  0  0  0  2  0  0  0  0  0  0
  187.5040  175.9270  141.9240 C   0  0  0  0  0  0  0  0  0  0  0  0
  186.3310  176.2260  142.7870 C   0  0  0  0  0  2  0  0  0  0  0  0
  185.9460  177.6250  142.6250 N   0  0  0  0  0  2  0  0  0  0  0  0
  184.7380  177.9140  143.3980 C   0  0  2  0  0  3  0  0  0  0  0  0
  183.6530  178.1730  142.5520 O   0  0  0  0  0  1  0  0  0  0  0  0
  184.9620  179.0700  144.3700 C   0  0  0  0  0  2  0  0  0  0  0  0
  184.8010  177.4700  146.2780 C   0  0  0  0  0  1  0  0  0  0  0  0
  184.3080  178.7900  145.7140 C   0  0  0  0  0  2  0  0  0  0  0  0
  1  3  1  0  0  0  0
  3  2  2  0  0  0  0
  3 17  1  0  0  0  0
  4  5  1  0  0  0  0
  5 30  1  1  0  0  0
  5  2  1  0  0  0  0
  6  1  1  0  0  0  0
  6  4  1  0  0  0  0
  7  4  2  0  0  0  0
  8 12  2  0  0  0  0
  9 14  1  0  0  0  0
 10 12  2  0  0  0  0
 11  9  1  0  0  0  0
 12  9  1  0  0  0  0
 12 13  1  0  0  0  0
 13 14  1  6  0  0  0
 13  6  1  0  0  0  0
 16 18  1  0  0  0  0
 17 16  1  0  0  0  0
 17 15  2  0  0  0  0
 18 19  1  0  0  0  0
 19 23  1  0  0  0  0
 20 22  2  0  0  0  0
 20 23  1  0  0  0  0
 21 25  1  0  0  0  0
 22 26  1  0  0  0  0
 23 21  2  0  0  0  0
 25 24  1  0  0  0  0
 26 25  2  0  0  0  0
 27 22  1  0  0  0  0
 28 27  1  0  0  0  0
 29 31  2  0  0  0  0
 31 30  1  0  0  0  0
 31 32  1  0  0  0  0
 33 32  1  0  0  0  0
 33 34  1  0  0  0  0
 34 35  1  6  0  0  0
 34 36  1  0  0  0  0
 36 38  1  0  0  0  0
 38 37  1  0  0  0  0
M  END
>  <MODEL>
7

>  <REMARK>
 VINA RESULT:      -6.1      2.120      3.514
  Name = 
  12 active torsions:
  status: ('A' for Active; 'I' for Inactive)
    1  A    between atoms: C_1  and  C_22
    2  A    between atoms: C_6  and  N_18
    3  A    between atoms: C_6  and  C_37
    4  A    between atoms: C_9  and  C_30
    5  A    between atoms: C_10  and  N_18
    6  A    between atoms: C_10  and  C_19
    7  A    between atoms: N_16  and  N_26
    8  A    between atoms: C_19  and  C_32
    9  A    between atoms: C_21  and  N_35
   10  A    between atoms: C_24  and  C_36
   11  A    between atoms: N_25  and  C_29
   12  A    between atoms: N_26  and  C_36
                            x       y       z     vdW  Elec       q    Type
                         _______ _______ _______ _____ _____    ______ ____

>  <TORSDO>
F 12

$$$$
=
 OpenBabel11042416263D

 38 40  0  0  1  0  0  0  0  0999 V2000
  190.4980  173.0250  140.8380 C   0  0  0  0  0  2  0  0  0  0  0  0
  189.3000  174.6680  142.2230 C   0  0  0  0  0  3  0  0  0  0  0  0
  190.0960  173.5920  142.1740 C   0  0  0  0  0  0  0  0  0  0  0  0
  188.6010  174.3400  139.8780 C   0  0  0  0  0  0  0  0  0  0  0  0
  188.7990  175.3470  140.9780 C   0  0  1  0  0  3  0  0  0  0  0  0
  189.4060  173.1470  139.8640 N   0  0  0  0  0  0  0  0  0  0  0  0
  187.7750  174.5650  138.9520 O   0  0  0  0  0  0  0  0  0  0  0  0
  189.3440  172.4810  136.0800 O   0  0  0  0  0  0  0  0  0  0  0  0
  190.9600  171.1410  137.7670 N   0  0  0  0  0  0  0  0  0  0  0  0
  190.9380  173.8510  137.4690 O   0  0  0  0  0  0  0  0  0  0  0  0
  192.2880  171.4890  138.2480 C   0  0  0  0  0  1  0  0  0  0  0  0
  190.1170  172.5950  137.3640 S   0  0  0  0  0  0  0  0  0  0  0  0
  189.2050  172.1580  138.7980 C   0  0  1  0  0  3  0  0  0  0  0  0
  190.1120  170.9230  138.9500 C   0  0  0  0  0  2  0  0  0  0  0  0
  189.7590  172.5980  144.3400 N   0  0  0  0  0  2  0  0  0  0  0  0
  191.9920  172.7340  143.5820 N   0  0  0  0  0  2  0  0  0  0  0  0
  190.5880  172.9600  143.4120 C   0  0  0  0  0  0  0  0  0  0  0  0
  192.5050  172.0660  144.7050 N   0  0  0  0  0  2  0  0  0  0  0  0
  193.7450  172.7320  145.0710 C   0  0  0  0  0  2  0  0  0  0  0  0
  192.3190  174.2490  146.4570 C   0  0  0  0  0  3  0  0  0  0  0  0
  194.3150  175.1400  145.4230 C   0  0  0  0  0  3  0  0  0  0  0  0
  192.0660  175.5090  147.0040 C   0  0  0  0  0  0  0  0  0  0  0  0
  193.4480  174.0690  145.6530 C   0  0  0  0  0  0  0  0  0  0  0  0
  194.9400  177.5340  145.7600 C   0  0  0  0  0  1  0  0  0  0  0  0
  194.0300  176.3830  145.9940 C   0  0  0  0  0  0  0  0  0  0  0  0
  192.9220  176.5410  146.7680 N   0  0  0  0  0  0  0  0  0  0  0  0
  190.8750  175.7150  147.8740 C   0  0  0  0  0  2  0  0  0  0  0  0
  189.7660  174.9120  147.3870 N   0  0  0  0  0  1  0  0  0  0  0  0
  188.5590  178.1230  141.6390 O   0  0  0  0  0  0  0  0  0  0  0  0
  187.5530  176.0450  141.2650 N   0  0  0  0  0  2  0  0  0  0  0  0
  187.5070  177.4310  141.6120 C   0  0  0  0  0  0  0  0  0  0  0  0
  186.1970  178.0700  141.9110 C   0  0  0  0  0  2  0  0  0  0  0  0
  185.5920  177.4280  143.0740 N   0  0  0  0  0  2  0  0  0  0  0  0
  185.3260  178.4150  144.1200 C   0  0  2  0  0  3  0  0  0  0  0  0
  185.4590  179.7170  143.6250 O   0  0  0  0  0  1  0  0  0  0  0  0
  186.2270  178.1960  145.3330 C   0  0  0  0  0  2  0  0  0  0  0  0
  185.6240  178.1960  147.7550 C   0  0  0  0  0  1  0  0  0  0  0  0
  185.7800  179.0500  146.5090 C   0  0  0  0  0  2  0  0  0  0  0  0
  1  3  1  0  0  0  0
  3  2  2  0  0  0  0
  3 17  1  0  0  0  0
  4  5  1  0  0  0  0
  5 30  1  1  0  0  0
  5  2  1  0  0  0  0
  6  4  1  0  0  0  0
  6  1  1  0  0  0  0
  7  4  2  0  0  0  0
  8 12  2  0  0  0  0
  9 11  1  0  0  0  0
  9 14  1  0  0  0  0
 12 10  2  0  0  0  0
 12  9  1  0  0  0  0
 12 13  1  0  0  0  0
 13 14  1  1  0  0  0
 13  6  1  0  0  0  0
 16 18  1  0  0  0  0
 17 16  1  0  0  0  0
 17 15  2  0  0  0  0
 18 19  1  0  0  0  0
 19 23  1  0  0  0  0
 20 22  1  0  0  0  0
 21 23  1  0  0  0  0
 21 25  2  0  0  0  0
 22 27  1  0  0  0  0
 23 20  2  0  0  0  0
 24 25  1  0  0  0  0
 25 26  1  0  0  0  0
 26 22  2  0  0  0  0
 28 27  1  0  0  0  0
 30 31  1  0  0  0  0
 31 29  2  0  0  0  0
 31 32  1  0  0  0  0
 32 33  1  0  0  0  0
 33 34  1  0  0  0  0
 34 35  1  6  0  0  0
 34 36  1  0  0  0  0
 36 38  1  0  0  0  0
 38 37  1  0  0  0  0
M  END
>  <MODEL>
8

>  <REMARK>
 VINA RESULT:      -6.0      2.309      3.536
  Name = 
  12 active torsions:
  status: ('A' for Active; 'I' for Inactive)
    1  A    between atoms: C_1  and  C_22
    2  A    between atoms: C_6  and  N_18
    3  A    between atoms: C_6  and  C_37
    4  A    between atoms: C_9  and  C_30
    5  A    between atoms: C_10  and  N_18
    6  A    between atoms: C_10  and  C_19
    7  A    between atoms: N_16  and  N_26
    8  A    between atoms: C_19  and  C_32
    9  A    between atoms: C_21  and  N_35
   10  A    between atoms: C_24  and  C_36
   11  A    between atoms: N_25  and  C_29
   12  A    between atoms: N_26  and  C_36
                            x       y       z     vdW  Elec       q    Type
                         _______ _______ _______ _____ _____    ______ ____

>  <TORSDO>
F 12

$$$$
=
 OpenBabel11042416263D

 38 40  0  0  1  0  0  0  0  0999 V2000
  190.0770  173.5640  142.4560 C   0  0  0  0  0  2  0  0  0  0  0  0
  188.5760  175.3580  143.2180 C   0  0  0  0  0  3  0  0  0  0  0  0
  189.3530  174.3150  143.5410 C   0  0  0  0  0  0  0  0  0  0  0  0
  188.4950  174.6480  140.8540 C   0  0  0  0  0  0  0  0  0  0  0  0
  188.4120  175.8190  141.7960 C   0  0  1  0  0  3  0  0  0  0  0  0
  189.2700  173.4960  141.2310 N   0  0  0  0  0  0  0  0  0  0  0  0
  187.9320  174.7000  139.7260 O   0  0  0  0  0  0  0  0  0  0  0  0
  190.2720  172.2330  137.7440 O   0  0  0  0  0  0  0  0  0  0  0  0
  191.2720  171.1840  140.0140 N   0  0  0  0  0  0  0  0  0  0  0  0
  191.4580  173.8120  139.3090 O   0  0  0  0  0  0  0  0  0  0  0  0
  192.4190  171.6080  140.8030 C   0  0  0  0  0  1  0  0  0  0  0  0
  190.6460  172.5520  139.1640 S   0  0  0  0  0  0  0  0  0  0  0  0
  189.3410  172.3480  140.3190 C   0  0  1  0  0  3  0  0  0  0  0  0
  190.1100  171.1560  140.9180 C   0  0  0  0  0  2  0  0  0  0  0  0
  189.7770  172.6650  145.2410 N   0  0  0  0  0  2  0  0  0  0  0  0
  189.3790  174.8680  145.9920 N   0  0  0  0  0  2  0  0  0  0  0  0
  189.5100  173.8980  144.9470 C   0  0  0  0  0  0  0  0  0  0  0  0
  189.5950  174.5410  147.3390 N   0  0  0  0  0  2  0  0  0  0  0  0
  190.7600  175.2910  147.7820 C   0  0  0  0  0  2  0  0  0  0  0  0
  192.7180  174.9980  146.2540 C   0  0  0  0  0  3  0  0  0  0  0  0
  191.1610  176.7970  145.8280 C   0  0  0  0  0  3  0  0  0  0  0  0
  193.4550  175.4000  145.1370 C   0  0  0  0  0  0  0  0  0  0  0  0
  191.5680  175.7090  146.6050 C   0  0  0  0  0  0  0  0  0  0  0  0
  191.5040  178.3200  143.8790 C   0  0  0  0  0  1  0  0  0  0  0  0
  191.9210  177.1640  144.7150 C   0  0  0  0  0  0  0  0  0  0  0  0
  193.0420  176.4630  144.3940 N   0  0  0  0  0  0  0  0  0  0  0  0
  194.6750  174.6450  144.7410 C   0  0  0  0  0  2  0  0  0  0  0  0
  195.7440  174.9040  145.6920 N   0  0  0  0  0  1  0  0  0  0  0  0
  187.7450  178.3540  142.9490 O   0  0  0  0  0  0  0  0  0  0  0  0
  187.1380  176.5090  141.6450 N   0  0  0  0  0  2  0  0  0  0  0  0
  186.8620  177.7650  142.2700 C   0  0  0  0  0  0  0  0  0  0  0  0
  185.5290  178.4000  142.0860 C   0  0  0  0  0  2  0  0  0  0  0  0
  184.6200  177.9430  143.1330 N   0  0  0  0  0  2  0  0  0  0  0  0
  184.2930  179.0440  144.0390 C   0  0  2  0  0  3  0  0  0  0  0  0
  185.1960  180.1020  143.8880 O   0  0  0  0  0  1  0  0  0  0  0  0
  184.2400  178.5730  145.4910 C   0  0  0  0  0  2  0  0  0  0  0  0
  185.8380  178.9650  147.3670 C   0  0  0  0  0  1  0  0  0  0  0  0
  185.6330  178.2840  146.0250 C   0  0  0  0  0  2  0  0  0  0  0  0
  1  3  1  0  0  0  0
  2  3  2  0  0  0  0
  3 17  1  0  0  0  0
  4  6  1  0  0  0  0
  4  5  1  0  0  0  0
  5 30  1  1  0  0  0
  5  2  1  0  0  0  0
  6  1  1  0  0  0  0
  7  4  2  0  0  0  0
  8 12  2  0  0  0  0
  9 11  1  0  0  0  0
  9 14  1  0  0  0  0
 12 10  2  0  0  0  0
 12  9  1  0  0  0  0
 12 13  1  0  0  0  0
 13 14  1  1  0  0  0
 13  6  1  0  0  0  0
 16 18  1  0  0  0  0
 17 15  2  0  0  0  0
 17 16  1  0  0  0  0
 18 19  1  0  0  0  0
 20 23  1  0  0  0  0
 21 23  2  0  0  0  0
 22 20  2  0  0  0  0
 23 19  1  0  0  0  0
 24 25  1  0  0  0  0
 25 21  1  0  0  0  0
 26 25  2  0  0  0  0
 26 22  1  0  0  0  0
 27 22  1  0  0  0  0
 27 28  1  0  0  0  0
 30 31  1  0  0  0  0
 31 29  2  0  0  0  0
 32 31  1  0  0  0  0
 32 33  1  0  0  0  0
 33 34  1  0  0  0  0
 34 35  1  1  0  0  0
 34 36  1  0  0  0  0
 36 38  1  0  0  0  0
 38 37  1  0  0  0  0
M  END
>  <MODEL>
9

>  <REMARK>
 VINA RESULT:      -6.0      1.801      2.751
  Name = 
  12 active torsions:
  status: ('A' for Active; 'I' for Inactive)
    1  A    between atoms: C_1  and  C_22
    2  A    between atoms: C_6  and  N_18
    3  A    between atoms: C_6  and  C_37
    4  A    between atoms: C_9  and  C_30
    5  A    between atoms: C_10  and  N_18
    6  A    between atoms: C_10  and  C_19
    7  A    between atoms: N_16  and  N_26
    8  A    between atoms: C_19  and  C_32
    9  A    between atoms: C_21  and  N_35
   10  A    between atoms: C_24  and  C_36
   11  A    between atoms: N_25  and  C_29
   12  A    between atoms: N_26  and  C_36
                            x       y       z     vdW  Elec       q    Type
                         _______ _______ _______ _____ _____    ______ ____

>  <TORSDO>
F 12

$$$$
