=
 OpenBabel11042416483D

 29 32  0  0  1  0  0  0  0  0999 V2000
  188.6910  175.1250  141.9960 C   0  0  2  0  0  0  0  0  0  0  0  0
  187.8650  176.1190  141.1740 C   0  0  1  0  0  3  0  0  0  0  0  0
  187.2420  175.3970  142.3580 C   0  0  0  0  0  2  0  0  0  0  0  0
  191.9520  176.3210  143.5390 C   0  0  0  0  0  3  0  0  0  0  0  0
  189.7100  175.6170  142.9890 C   0  0  0  0  0  0  0  0  0  0  0  0
  191.5440  176.6210  144.8010 N   0  0  0  0  0  0  0  0  0  0  0  0
  191.0420  175.8190  142.6090 C   0  0  0  0  0  3  0  0  0  0  0  0
  190.2530  176.4490  145.1940 C   0  0  0  0  0  0  0  0  0  0  0  0
  189.3100  175.9520  144.2850 C   0  0  0  0  0  3  0  0  0  0  0  0
  189.8560  176.8060  146.5900 C   0  0  2  0  0  3  0  0  0  0  0  0
  190.9200  176.5810  147.4660 O   0  0  0  0  0  1  0  0  0  0  0  0
  188.6380  176.0040  147.0210 C   0  0  0  0  0  2  0  0  0  0  0  0
  189.0570  174.6230  147.4880 C   0  0  0  0  0  1  0  0  0  0  0  0
  188.5460  172.6720  141.9990 C   0  0  0  0  0  2  0  0  0  0  0  0
  188.9180  173.7840  141.3620 C   0  0  0  0  0  0  0  0  0  0  0  0
  189.4490  173.6990  139.9660 C   0  0  0  0  0  2  0  0  0  0  0  0
  188.4520  173.1110  139.0880 N   0  0  0  0  0  2  0  0  0  0  0  0
  188.2120  174.0710  138.0270 C   0  0  0  0  0  1  0  0  0  0  0  0
  188.1300  177.8680  141.6190 S   0  0  0  0  0  0  0  0  0  0  0  0
  184.1420  178.3560  141.5380 C   0  0  0  0  0  3  0  0  0  0  0  0
  183.5700  178.8310  143.9500 C   0  0  0  0  0  3  0  0  0  0  0  0
  186.0370  178.9800  146.6870 N   0  0  0  0  0  1  0  0  0  0  0  0
  185.3830  178.1000  140.9350 C   0  0  0  0  0  3  0  0  0  0  0  0
  185.5000  178.8280  145.3780 C   0  0  0  0  0  0  0  0  0  0  0  0
  184.3980  178.5500  142.8780 C   0  0  0  0  0  0  0  0  0  0  0  0
  185.7940  178.4140  143.1030 C   0  0  0  0  0  0  0  0  0  0  0  0
  184.1480  178.9640  145.1800 N   0  0  0  0  0  0  0  0  0  0  0  0
  186.3850  178.1360  141.9030 C   0  0  0  0  0  0  0  0  0  0  0  0
  186.3380  178.5500  144.3330 N   0  0  0  0  0  2  0  0  0  0  0  0
  1 15  1  6  0  0  0
  1  3  1  0  0  0  0
  1  5  1  0  0  0  0
  2 19  1  1  0  0  0
  2  1  1  0  0  0  0
  2  3  1  0  0  0  0
  4  6  1  0  0  0  0
  5  9  2  0  0  0  0
  6  8  2  0  0  0  0
  7  5  1  0  0  0  0
  7  4  2  0  0  0  0
  8 10  1  0  0  0  0
  9  8  1  0  0  0  0
 10 12  1  0  0  0  0
 10 11  1  1  0  0  0
 12 13  1  0  0  0  0
 15 14  2  0  0  0  0
 16 15  1  0  0  0  0
 17 16  1  0  0  0  0
 18 17  1  0  0  0  0
 19 28  1  0  0  0  0
 20 25  1  0  0  0  0
 21 27  1  0  0  0  0
 23 20  2  0  0  0  0
 23 28  1  0  0  0  0
 24 22  1  0  0  0  0
 25 26  1  0  0  0  0
 25 21  2  0  0  0  0
 26 29  1  0  0  0  0
 27 24  2  0  0  0  0
 28 26  2  0  0  0  0
 29 24  1  0  0  0  0
M  END
>  <MODEL>
1

>  <REMARK>
 VINA RESULT:      -6.8      0.000      0.000
  Name = 
  8 active torsions:
  status: ('A' for Active; 'I' for Inactive)
    1  A    between atoms: C_1  and  C_17
    2  A    between atoms: C_1  and  C_26
    3  A    between atoms: N_2  and  C_28
    4  A    between atoms: C_4  and  C_9
    5  A    between atoms: C_4  and  C_25
    6  A    between atoms: C_6  and  S_16
    7  A    between atoms: S_16  and  C_20
    8  A    between atoms: C_25  and  C_28
                            x       y       z     vdW  Elec       q    Type
                         _______ _______ _______ _____ _____    ______ ____

>  <TORSDO>
F 8

$$$$
=
 OpenBabel11042416483D

 29 32  0  0  1  0  0  0  0  0999 V2000
  189.1190  175.2490  142.7140 C   0  0  2  0  0  0  0  0  0  0  0  0
  188.5180  176.2470  141.7210 C   0  0  1  0  0  3  0  0  0  0  0  0
  187.6230  175.5030  142.6980 C   0  0  0  0  0  2  0  0  0  0  0  0
  189.9120  176.2070  146.3070 C   0  0  0  0  0  3  0  0  0  0  0  0
  189.8450  175.7370  143.9400 C   0  0  0  0  0  0  0  0  0  0  0  0
  191.2270  176.5370  146.1990 N   0  0  0  0  0  0  0  0  0  0  0  0
  189.1990  175.7950  145.1810 C   0  0  0  0  0  3  0  0  0  0  0  0
  191.8850  176.4760  145.0100 C   0  0  0  0  0  0  0  0  0  0  0  0
  191.2020  176.0620  143.8590 C   0  0  0  0  0  3  0  0  0  0  0  0
  193.3330  176.8390  144.9520 C   0  0  2  0  0  3  0  0  0  0  0  0
  193.9730  176.1080  143.9480 O   0  0  0  0  0  1  0  0  0  0  0  0
  194.0010  176.5870  146.2950 C   0  0  0  0  0  2  0  0  0  0  0  0
  194.9390  175.3990  146.2010 C   0  0  0  0  0  1  0  0  0  0  0  0
  190.4790  173.8500  141.2210 C   0  0  0  0  0  2  0  0  0  0  0  0
  189.5180  173.9200  142.1440 C   0  0  0  0  0  0  0  0  0  0  0  0
  188.9230  172.6630  142.6950 C   0  0  0  0  0  2  0  0  0  0  0  0
  189.9350  171.9050  143.4130 N   0  0  0  0  0  2  0  0  0  0  0  0
  189.7100  172.1430  144.8260 C   0  0  0  0  0  1  0  0  0  0  0  0
  188.6380  177.9920  142.2390 S   0  0  0  0  0  0  0  0  0  0  0  0
  184.6930  178.2950  141.5370 C   0  0  0  0  0  3  0  0  0  0  0  0
  183.7400  178.8170  143.8150 C   0  0  0  0  0  3  0  0  0  0  0  0
  185.7520  179.1610  146.8870 N   0  0  0  0  0  1  0  0  0  0  0  0
  186.0200  178.0770  141.1390 C   0  0  0  0  0  3  0  0  0  0  0  0
  185.4280  178.9460  145.5190 C   0  0  0  0  0  0  0  0  0  0  0  0
  184.7330  178.5420  142.8930 C   0  0  0  0  0  0  0  0  0  0  0  0
  186.0820  178.4760  143.3310 C   0  0  0  0  0  0  0  0  0  0  0  0
  184.1180  179.0140  145.1130 N   0  0  0  0  0  0  0  0  0  0  0  0
  186.8610  178.1890  142.2460 C   0  0  0  0  0  0  0  0  0  0  0  0
  186.4260  178.6740  144.6240 N   0  0  0  0  0  2  0  0  0  0  0  0
  1 15  1  6  0  0  0
  1  5  1  0  0  0  0
  2 19  1  1  0  0  0
  2  3  1  0  0  0  0
  2  1  1  0  0  0  0
  3  1  1  0  0  0  0
  5  7  1  0  0  0  0
  6  4  1  0  0  0  0
  7  4  2  0  0  0  0
  8  6  2  0  0  0  0
  9  5  2  0  0  0  0
  9  8  1  0  0  0  0
 10 11  1  6  0  0  0
 10  8  1  0  0  0  0
 10 12  1  0  0  0  0
 13 12  1  0  0  0  0
 14 15  2  0  0  0  0
 15 16  1  0  0  0  0
 16 17  1  0  0  0  0
 17 18  1  0  0  0  0
 19 28  1  0  0  0  0
 20 25  1  0  0  0  0
 21 27  1  0  0  0  0
 23 20  2  0  0  0  0
 23 28  1  0  0  0  0
 24 22  1  0  0  0  0
 25 26  1  0  0  0  0
 25 21  2  0  0  0  0
 26 29  1  0  0  0  0
 27 24  2  0  0  0  0
 28 26  2  0  0  0  0
 29 24  1  0  0  0  0
M  END
>  <MODEL>
2

>  <REMARK>
 VINA RESULT:      -6.7      1.871      2.808
  Name = 
  8 active torsions:
  status: ('A' for Active; 'I' for Inactive)
    1  A    between atoms: C_1  and  C_17
    2  A    between atoms: C_1  and  C_26
    3  A    between atoms: N_2  and  C_28
    4  A    between atoms: C_4  and  C_9
    5  A    between atoms: C_4  and  C_25
    6  A    between atoms: C_6  and  S_16
    7  A    between atoms: S_16  and  C_20
    8  A    between atoms: C_25  and  C_28
                            x       y       z     vdW  Elec       q    Type
                         _______ _______ _______ _____ _____    ______ ____

>  <TORSDO>
F 8

$$$$
=
 OpenBabel11042416483D

 29 32  0  0  1  0  0  0  0  0999 V2000
  189.6880  174.8540  145.1610 C   0  0  2  0  0  0  0  0  0  0  0  0
  188.4520  175.3720  145.9020 C   0  0  1  0  0  3  0  0  0  0  0  0
  189.4990  174.5490  146.6360 C   0  0  0  0  0  2  0  0  0  0  0  0
  191.7980  177.5400  143.4930 C   0  0  0  0  0  3  0  0  0  0  0  0
  190.8260  175.7840  144.8330 C   0  0  0  0  0  0  0  0  0  0  0  0
  192.8850  177.5570  144.3110 N   0  0  0  0  0  0  0  0  0  0  0  0
  190.7470  176.6580  143.7430 C   0  0  0  0  0  3  0  0  0  0  0  0
  192.9830  176.7290  145.3860 C   0  0  0  0  0  0  0  0  0  0  0  0
  191.9440  175.8330  145.6710 C   0  0  0  0  0  3  0  0  0  0  0  0
  194.1950  176.7980  146.2580 C   0  0  2  0  0  3  0  0  0  0  0  0
  195.0170  177.8530  145.8570 O   0  0  0  0  0  1  0  0  0  0  0  0
  194.9610  175.4850  146.2130 C   0  0  0  0  0  2  0  0  0  0  0  0
  195.6540  175.3270  144.8730 C   0  0  0  0  0  1  0  0  0  0  0  0
  189.7410  172.4430  144.6930 C   0  0  0  0  0  2  0  0  0  0  0  0
  189.4640  173.6740  144.2610 C   0  0  0  0  0  0  0  0  0  0  0  0
  188.8160  173.8660  142.9270 C   0  0  0  0  0  2  0  0  0  0  0  0
  188.6680  172.5860  142.2550 N   0  0  0  0  0  2  0  0  0  0  0  0
  188.5140  172.8730  140.8410 C   0  0  0  0  0  1  0  0  0  0  0  0
  188.5730  177.1080  146.4490 S   0  0  0  0  0  0  0  0  0  0  0  0
  184.6720  177.9040  145.9020 C   0  0  0  0  0  3  0  0  0  0  0  0
  184.4830  178.1730  143.4000 C   0  0  0  0  0  2  0  0  0  0  0  0
  187.3070  177.8530  141.0500 N   0  0  0  0  0  1  0  0  0  0  0  0
  185.7890  177.6160  146.7000 C   0  0  0  0  0  2  0  0  0  0  0  0
  186.5840  177.8760  142.2750 C   0  0  0  0  0  0  0  0  0  0  0  0
  185.1260  177.9370  144.6010 C   0  0  0  0  0  0  0  0  0  0  0  0
  186.5210  177.6690  144.5950 C   0  0  0  0  0  0  0  0  0  0  0  0
  185.2350  178.1370  142.2600 N   0  0  0  0  0  0  0  0  0  0  0  0
  186.9150  177.4760  145.8890 C   0  0  0  0  0  0  0  0  0  0  0  0
  187.2400  177.6400  143.4510 N   0  0  0  0  0  2  0  0  0  0  0  0
  1 15  1  6  0  0  0
  1  2  1  0  0  0  0
  1  3  1  0  0  0  0
  2 19  1  1  0  0  0
  2  3  1  0  0  0  0
  4  7  2  0  0  0  0
  4  6  1  0  0  0  0
  5  1  1  0  0  0  0
  5  9  2  0  0  0  0
  6  8  2  0  0  0  0
  7  5  1  0  0  0  0
  8  9  1  0  0  0  0
  8 10  1  0  0  0  0
 10 11  1  6  0  0  0
 12 10  1  0  0  0  0
 13 12  1  0  0  0  0
 15 14  2  0  0  0  0
 16 15  1  0  0  0  0
 17 16  1  0  0  0  0
 18 17  1  0  0  0  0
 20 23  1  0  0  0  0
 21 25  1  0  0  0  0
 22 24  1  0  0  0  0
 24 29  1  0  0  0  0
 25 20  2  0  0  0  0
 26 25  1  0  0  0  0
 26 28  2  0  0  0  0
 27 24  2  0  0  0  0
 27 21  1  0  0  0  0
 28 19  1  0  0  0  0
 28 23  1  0  0  0  0
 29 26  1  0  0  0  0
M  END
>  <MODEL>
3

>  <REMARK>
 VINA RESULT:      -6.6      2.446      3.833
  Name = 
  8 active torsions:
  status: ('A' for Active; 'I' for Inactive)
    1  A    between atoms: C_1  and  C_17
    2  A    between atoms: C_1  and  C_26
    3  A    between atoms: N_2  and  C_28
    4  A    between atoms: C_4  and  C_9
    5  A    between atoms: C_4  and  C_25
    6  A    between atoms: C_6  and  S_16
    7  A    between atoms: S_16  and  C_20
    8  A    between atoms: C_25  and  C_28
                            x       y       z     vdW  Elec       q    Type
                         _______ _______ _______ _____ _____    ______ ____

>  <TORSDO>
F 8

$$$$
=
 OpenBabel11042416483D

 29 32  0  0  1  0  0  0  0  0999 V2000
  189.2560  176.3390  143.3630 C   0  0  2  0  0  0  0  0  0  0  0  0
  190.7790  176.5010  143.3480 C   0  0  1  0  0  3  0  0  0  0  0  0
  189.8830  177.6140  142.8290 C   0  0  0  0  0  2  0  0  0  0  0  0
  188.0120  175.8020  146.9140 C   0  0  0  0  0  3  0  0  0  0  0  0
  188.4860  176.4850  144.6480 C   0  0  0  0  0  0  0  0  0  0  0  0
  187.1350  176.8340  147.0370 N   0  0  0  0  0  0  0  0  0  0  0  0
  188.7080  175.6120  145.7200 C   0  0  0  0  0  3  0  0  0  0  0  0
  186.9100  177.7060  146.0180 C   0  0  0  0  0  0  0  0  0  0  0  0
  187.5950  177.5500  144.8050 C   0  0  0  0  0  3  0  0  0  0  0  0
  185.9440  178.8290  146.2120 C   0  0  2  0  0  3  0  0  0  0  0  0
  184.8130  178.3790  146.8960 O   0  0  0  0  0  1  0  0  0  0  0  0
  185.5470  179.4300  144.8720 C   0  0  0  0  0  2  0  0  0  0  0  0
  184.1550  178.9710  144.4830 C   0  0  0  0  0  1  0  0  0  0  0  0
  188.7340  174.1240  142.4370 C   0  0  0  0  0  2  0  0  0  0  0  0
  188.6850  175.4490  142.2980 C   0  0  0  0  0  0  0  0  0  0  0  0
  187.9520  176.0490  141.1400 C   0  0  0  0  0  2  0  0  0  0  0  0
  186.6290  176.4830  141.5570 N   0  0  0  0  0  2  0  0  0  0  0  0
  186.4910  177.8640  141.1350 C   0  0  0  0  0  1  0  0  0  0  0  0
  191.4980  177.0150  144.9440 S   0  0  0  0  0  0  0  0  0  0  0  0
  193.2540  173.4260  145.3750 C   0  0  0  0  0  3  0  0  0  0  0  0
  195.6170  173.8420  144.5910 C   0  0  0  0  0  2  0  0  0  0  0  0
  196.8710  177.0940  143.3860 N   0  0  0  0  0  1  0  0  0  0  0  0
  192.1610  174.3010  145.4610 C   0  0  0  0  0  2  0  0  0  0  0  0
  195.9770  176.1130  143.8980 C   0  0  0  0  0  0  0  0  0  0  0  0
  194.3050  174.1700  144.8830 C   0  0  0  0  0  0  0  0  0  0  0  0
  193.8630  175.5010  144.6650 C   0  0  0  0  0  0  0  0  0  0  0  0
  196.4230  174.8300  144.1020 N   0  0  0  0  0  0  0  0  0  0  0  0
  192.5450  175.5680  145.0210 C   0  0  0  0  0  0  0  0  0  0  0  0
  194.6840  176.4590  144.1790 N   0  0  0  0  0  2  0  0  0  0  0  0
  1 15  1  6  0  0  0
  1  5  1  0  0  0  0
  2  1  1  0  0  0  0
  2 19  1  1  0  0  0
  3  2  1  0  0  0  0
  3  1  1  0  0  0  0
  4  6  1  0  0  0  0
  5  9  2  0  0  0  0
  5  7  1  0  0  0  0
  7  4  2  0  0  0  0
  8 10  1  0  0  0  0
  8  6  2  0  0  0  0
  9  8  1  0  0  0  0
 10 11  1  6  0  0  0
 12 10  1  0  0  0  0
 13 12  1  0  0  0  0
 15 14  2  0  0  0  0
 16 17  1  0  0  0  0
 16 15  1  0  0  0  0
 18 17  1  0  0  0  0
 19 28  1  0  0  0  0
 20 23  1  0  0  0  0
 21 25  1  0  0  0  0
 22 24  1  0  0  0  0
 24 27  2  0  0  0  0
 24 29  1  0  0  0  0
 25 20  2  0  0  0  0
 26 25  1  0  0  0  0
 26 28  2  0  0  0  0
 27 21  1  0  0  0  0
 28 23  1  0  0  0  0
 29 26  1  0  0  0  0
M  END
>  <MODEL>
4

>  <REMARK>
 VINA RESULT:      -6.6      2.950      7.104
  Name = 
  8 active torsions:
  status: ('A' for Active; 'I' for Inactive)
    1  A    between atoms: C_1  and  C_17
    2  A    between atoms: C_1  and  C_26
    3  A    between atoms: N_2  and  C_28
    4  A    between atoms: C_4  and  C_9
    5  A    between atoms: C_4  and  C_25
    6  A    between atoms: C_6  and  S_16
    7  A    between atoms: S_16  and  C_20
    8  A    between atoms: C_25  and  C_28
                            x       y       z     vdW  Elec       q    Type
                         _______ _______ _______ _____ _____    ______ ____

>  <TORSDO>
F 8

$$$$
=
 OpenBabel11042416483D

 29 32  0  0  1  0  0  0  0  0999 V2000
  189.9230  174.7600  145.4540 C   0  0  2  0  0  0  0  0  0  0  0  0
  188.7160  175.6730  145.6910 C   0  0  1  0  0  3  0  0  0  0  0  0
  189.1470  174.6770  146.7560 C   0  0  0  0  0  2  0  0  0  0  0  0
  193.2480  175.9160  146.8870 C   0  0  0  0  0  3  0  0  0  0  0  0
  191.3230  175.3020  145.5670 C   0  0  0  0  0  0  0  0  0  0  0  0
  193.9330  176.2030  145.7470 N   0  0  0  0  0  0  0  0  0  0  0  0
  191.9330  175.4550  146.8180 C   0  0  0  0  0  3  0  0  0  0  0  0
  193.3700  176.0500  144.5180 C   0  0  0  0  0  0  0  0  0  0  0  0
  192.0530  175.5840  144.4100 C   0  0  0  0  0  3  0  0  0  0  0  0
  194.1720  176.3690  143.2990 C   0  0  2  0  0  3  0  0  0  0  0  0
  193.5100  175.9170  142.1550 O   0  0  0  0  0  1  0  0  0  0  0  0
  195.5550  175.7420  143.3900 C   0  0  0  0  0  2  0  0  0  0  0  0
  196.6240  176.7900  143.1440 C   0  0  0  0  0  1  0  0  0  0  0  0
  189.6910  172.3540  145.0130 C   0  0  0  0  0  2  0  0  0  0  0  0
  189.6910  173.5980  144.5320 C   0  0  0  0  0  0  0  0  0  0  0  0
  189.3410  173.8420  143.0990 C   0  0  0  0  0  2  0  0  0  0  0  0
  188.8180  172.6260  142.4990 N   0  0  0  0  0  2  0  0  0  0  0  0
  188.1900  173.0140  141.2500 C   0  0  0  0  0  1  0  0  0  0  0  0
  189.1420  177.3570  146.2470 S   0  0  0  0  0  0  0  0  0  0  0  0
  185.3970  178.2750  147.3800 C   0  0  0  0  0  3  0  0  0  0  0  0
  184.2460  178.7980  145.1960 C   0  0  0  0  0  2  0  0  0  0  0  0
  185.8810  178.6650  141.8930 N   0  0  0  0  0  1  0  0  0  0  0  0
  186.7210  177.8870  147.6360 C   0  0  0  0  0  2  0  0  0  0  0  0
  185.7060  178.5780  143.3030 C   0  0  0  0  0  0  0  0  0  0  0  0
  185.2980  178.4300  146.0140 C   0  0  0  0  0  0  0  0  0  0  0  0
  186.5580  178.1390  145.4270 C   0  0  0  0  0  0  0  0  0  0  0  0
  184.4800  178.8630  143.8520 N   0  0  0  0  0  0  0  0  0  0  0  0
  187.4230  177.8100  146.4330 C   0  0  0  0  0  0  0  0  0  0  0  0
  186.7610  178.2130  144.0920 N   0  0  0  0  0  2  0  0  0  0  0  0
  1 15  1  6  0  0  0
  1  5  1  0  0  0  0
  1  2  1  0  0  0  0
  1  3  1  0  0  0  0
  2 19  1  1  0  0  0
  2  3  1  0  0  0  0
  5  7  2  0  0  0  0
  6  4  2  0  0  0  0
  7  4  1  0  0  0  0
  8  6  1  0  0  0  0
  9  8  2  0  0  0  0
  9  5  1  0  0  0  0
 10 11  1  6  0  0  0
 10 12  1  0  0  0  0
 10  8  1  0  0  0  0
 13 12  1  0  0  0  0
 15 14  2  0  0  0  0
 16 15  1  0  0  0  0
 17 16  1  0  0  0  0
 18 17  1  0  0  0  0
 19 28  1  0  0  0  0
 20 23  1  0  0  0  0
 21 25  1  0  0  0  0
 22 24  1  0  0  0  0
 24 27  2  0  0  0  0
 24 29  1  0  0  0  0
 25 20  2  0  0  0  0
 26 25  1  0  0  0  0
 26 28  2  0  0  0  0
 27 21  1  0  0  0  0
 28 23  1  0  0  0  0
 29 26  1  0  0  0  0
M  END
>  <MODEL>
5

>  <REMARK>
 VINA RESULT:      -6.6      2.610      4.398
  Name = 
  8 active torsions:
  status: ('A' for Active; 'I' for Inactive)
    1  A    between atoms: C_1  and  C_17
    2  A    between atoms: C_1  and  C_26
    3  A    between atoms: N_2  and  C_28
    4  A    between atoms: C_4  and  C_9
    5  A    between atoms: C_4  and  C_25
    6  A    between atoms: C_6  and  S_16
    7  A    between atoms: S_16  and  C_20
    8  A    between atoms: C_25  and  C_28
                            x       y       z     vdW  Elec       q    Type
                         _______ _______ _______ _____ _____    ______ ____

>  <TORSDO>
F 8

$$$$
=
 OpenBabel11042416483D

 29 32  0  0  1  0  0  0  0  0999 V2000
  189.9810  174.8720  144.7780 C   0  0  2  0  0  0  0  0  0  0  0  0
  188.8570  175.7920  144.2920 C   0  0  1  0  0  3  0  0  0  0  0  0
  188.8660  175.2800  145.7240 C   0  0  0  0  0  2  0  0  0  0  0  0
  192.9520  176.2860  146.6810 C   0  0  0  0  0  3  0  0  0  0  0  0
  191.3410  175.4330  145.0990 C   0  0  0  0  0  0  0  0  0  0  0  0
  193.8790  176.3640  145.6880 N   0  0  0  0  0  0  0  0  0  0  0  0
  191.6690  175.8140  146.4060 C   0  0  0  0  0  3  0  0  0  0  0  0
  193.5930  175.9870  144.4120 C   0  0  0  0  0  0  0  0  0  0  0  0
  192.3160  175.5030  144.1000 C   0  0  0  0  0  3  0  0  0  0  0  0
  194.6530  176.0820  143.3630 C   0  0  2  0  0  3  0  0  0  0  0  0
  194.8050  174.8520  142.7190 O   0  0  0  0  0  1  0  0  0  0  0  0
  195.9730  176.5240  143.9760 C   0  0  0  0  0  2  0  0  0  0  0  0
  197.0220  176.6970  142.8950 C   0  0  0  0  0  1  0  0  0  0  0  0
  189.7440  172.4650  145.2130 C   0  0  0  0  0  2  0  0  0  0  0  0
  189.8990  173.4450  144.3200 C   0  0  0  0  0  0  0  0  0  0  0  0
  189.8700  173.1310  142.8580 C   0  0  0  0  0  2  0  0  0  0  0  0
  188.7250  172.2890  142.5510 N   0  0  0  0  0  2  0  0  0  0  0  0
  187.8260  173.0870  141.7390 C   0  0  0  0  0  1  0  0  0  0  0  0
  189.2820  177.5670  144.2960 S   0  0  0  0  0  0  0  0  0  0  0  0
  185.9890  178.5540  142.2150 C   0  0  0  0  0  3  0  0  0  0  0  0
  184.2530  178.9060  144.0140 C   0  0  0  0  0  3  0  0  0  0  0  0
  184.8910  178.5280  147.6270 N   0  0  0  0  0  1  0  0  0  0  0  0
  187.3400  178.1930  142.3190 C   0  0  0  0  0  3  0  0  0  0  0  0
  185.1240  178.5490  146.2230 C   0  0  0  0  0  0  0  0  0  0  0  0
  185.5040  178.6090  143.5050 C   0  0  0  0  0  0  0  0  0  0  0  0
  186.5540  178.2820  144.4030 C   0  0  0  0  0  0  0  0  0  0  0  0
  184.0960  178.8680  145.3700 N   0  0  0  0  0  0  0  0  0  0  0  0
  187.6740  178.0270  143.6620 C   0  0  0  0  0  0  0  0  0  0  0  0
  186.3680  178.2510  145.7420 N   0  0  0  0  0  2  0  0  0  0  0  0
  1 15  1  6  0  0  0
  1  5  1  0  0  0  0
  1  3  1  0  0  0  0
  2 19  1  1  0  0  0
  2  1  1  0  0  0  0
  2  3  1  0  0  0  0
  5  7  2  0  0  0  0
  6  4  2  0  0  0  0
  7  4  1  0  0  0  0
  8  6  1  0  0  0  0
  9  8  2  0  0  0  0
  9  5  1  0  0  0  0
 10 11  1  1  0  0  0
 10 12  1  0  0  0  0
 10  8  1  0  0  0  0
 13 12  1  0  0  0  0
 15 14  2  0  0  0  0
 16 15  1  0  0  0  0
 17 16  1  0  0  0  0
 18 17  1  0  0  0  0
 20 23  2  0  0  0  0
 20 25  1  0  0  0  0
 21 27  1  0  0  0  0
 23 28  1  0  0  0  0
 24 22  1  0  0  0  0
 25 21  2  0  0  0  0
 25 26  1  0  0  0  0
 26 29  1  0  0  0  0
 27 24  2  0  0  0  0
 28 19  1  0  0  0  0
 28 26  2  0  0  0  0
 29 24  1  0  0  0  0
M  END
>  <MODEL>
6

>  <REMARK>
 VINA RESULT:      -6.6      2.468      3.771
  Name = 
  8 active torsions:
  status: ('A' for Active; 'I' for Inactive)
    1  A    between atoms: C_1  and  C_17
    2  A    between atoms: C_1  and  C_26
    3  A    between atoms: N_2  and  C_28
    4  A    between atoms: C_4  and  C_9
    5  A    between atoms: C_4  and  C_25
    6  A    between atoms: C_6  and  S_16
    7  A    between atoms: S_16  and  C_20
    8  A    between atoms: C_25  and  C_28
                            x       y       z     vdW  Elec       q    Type
                         _______ _______ _______ _____ _____    ______ ____

>  <TORSDO>
F 8

$$$$
=
 OpenBabel11042416483D

 29 32  0  0  1  0  0  0  0  0999 V2000
  189.7180  174.9180  143.5400 C   0  0  2  0  0  0  0  0  0  0  0  0
  191.1550  175.3440  143.2240 C   0  0  1  0  0  3  0  0  0  0  0  0
  189.9800  176.1120  142.6400 C   0  0  0  0  0  2  0  0  0  0  0  0
  188.9460  174.9030  147.2620 C   0  0  0  0  0  3  0  0  0  0  0  0
  189.1050  175.2390  144.8770 C   0  0  0  0  0  0  0  0  0  0  0  0
  188.0390  175.9140  147.3400 N   0  0  0  0  0  0  0  0  0  0  0  0
  189.4990  174.5500  146.0310 C   0  0  0  0  0  3  0  0  0  0  0  0
  187.6480  176.6090  146.2380 C   0  0  0  0  0  0  0  0  0  0  0  0
  188.1860  176.2870  144.9850 C   0  0  0  0  0  3  0  0  0  0  0  0
  186.6580  177.7190  146.3830 C   0  0  2  0  0  3  0  0  0  0  0  0
  186.7700  178.3020  147.6470 O   0  0  0  0  0  1  0  0  0  0  0  0
  185.2440  177.2050  146.1620 C   0  0  0  0  0  2  0  0  0  0  0  0
  184.2340  178.2880  146.4910 C   0  0  0  0  0  1  0  0  0  0  0  0
  189.6410  172.4900  143.1750 C   0  0  0  0  0  2  0  0  0  0  0  0
  189.2220  173.7030  142.8120 C   0  0  0  0  0  0  0  0  0  0  0  0
  188.1670  173.8430  141.7610 C   0  0  0  0  0  2  0  0  0  0  0  0
  188.4530  172.9550  140.6460 N   0  0  0  0  0  2  0  0  0  0  0  0
  188.8950  173.7950  139.5480 C   0  0  0  0  0  1  0  0  0  0  0  0
  191.9420  176.3600  144.5190 S   0  0  0  0  0  0  0  0  0  0  0  0
  194.2160  173.1920  145.4910 C   0  0  0  0  0  3  0  0  0  0  0  0
  196.5220  173.8830  144.7340 C   0  0  0  0  0  2  0  0  0  0  0  0
  197.3110  177.1130  143.1380 N   0  0  0  0  0  1  0  0  0  0  0  0
  192.9950  173.8810  145.4210 C   0  0  0  0  0  2  0  0  0  0  0  0
  196.5570  176.0730  143.7490 C   0  0  0  0  0  0  0  0  0  0  0  0
  195.1620  174.0270  144.9360 C   0  0  0  0  0  0  0  0  0  0  0  0
  194.5270  175.2290  144.5250 C   0  0  0  0  0  0  0  0  0  0  0  0
  197.1880  174.9180  144.1410 N   0  0  0  0  0  0  0  0  0  0  0  0
  193.1990  175.1260  144.8260 C   0  0  0  0  0  0  0  0  0  0  0  0
  195.2130  176.2370  143.9390 N   0  0  0  0  0  2  0  0  0  0  0  0
  1 15  1  6  0  0  0
  1  5  1  0  0  0  0
  2  1  1  0  0  0  0
  2 19  1  1  0  0  0
  3  2  1  0  0  0  0
  3  1  1  0  0  0  0
  4  6  1  0  0  0  0
  5  9  2  0  0  0  0
  5  7  1  0  0  0  0
  7  4  2  0  0  0  0
  8 10  1  0  0  0  0
  8  6  2  0  0  0  0
  9  8  1  0  0  0  0
 10 11  1  1  0  0  0
 12 10  1  0  0  0  0
 12 13  1  0  0  0  0
 15 14  2  0  0  0  0
 16 15  1  0  0  0  0
 17 16  1  0  0  0  0
 18 17  1  0  0  0  0
 19 28  1  0  0  0  0
 21 25  1  0  0  0  0
 22 24  1  0  0  0  0
 23 20  1  0  0  0  0
 24 29  1  0  0  0  0
 24 27  2  0  0  0  0
 25 20  2  0  0  0  0
 26 28  2  0  0  0  0
 26 25  1  0  0  0  0
 27 21  1  0  0  0  0
 28 23  1  0  0  0  0
 29 26  1  0  0  0  0
M  END
>  <MODEL>
7

>  <REMARK>
 VINA RESULT:      -6.5      3.121      7.184
  Name = 
  8 active torsions:
  status: ('A' for Active; 'I' for Inactive)
    1  A    between atoms: C_1  and  C_17
    2  A    between atoms: C_1  and  C_26
    3  A    between atoms: N_2  and  C_28
    4  A    between atoms: C_4  and  C_9
    5  A    between atoms: C_4  and  C_25
    6  A    between atoms: C_6  and  S_16
    7  A    between atoms: S_16  and  C_20
    8  A    between atoms: C_25  and  C_28
                            x       y       z     vdW  Elec       q    Type
                         _______ _______ _______ _____ _____    ______ ____

>  <TORSDO>
F 8

$$$$
=
 OpenBabel11042416483D

 29 32  0  0  1  0  0  0  0  0999 V2000
  191.0990  176.2330  145.3850 C   0  0  2  0  0  0  0  0  0  0  0  0
  190.1550  177.4270  145.2150 C   0  0  1  0  0  3  0  0  0  0  0  0
  191.4210  177.3220  144.3790 C   0  0  0  0  0  2  0  0  0  0  0  0
  189.6910  172.7280  144.9570 C   0  0  0  0  0  3  0  0  0  0  0  0
  190.7470  174.8920  144.7970 C   0  0  0  0  0  0  0  0  0  0  0  0
  190.0200  172.4760  143.6620 N   0  0  0  0  0  0  0  0  0  0  0  0
  190.0430  173.9420  145.5470 C   0  0  0  0  0  3  0  0  0  0  0  0
  190.6900  173.3860  142.9050 C   0  0  0  0  0  0  0  0  0  0  0  0
  191.0560  174.6180  143.4610 C   0  0  0  0  0  3  0  0  0  0  0  0
  191.0150  173.0610  141.4830 C   0  0  2  0  0  3  0  0  0  0  0  0
  191.7510  174.1000  140.9080 O   0  0  0  0  0  1  0  0  0  0  0  0
  189.7430  172.8120  140.6880 C   0  0  0  0  0  2  0  0  0  0  0  0
  189.9970  171.7890  139.5970 C   0  0  0  0  0  1  0  0  0  0  0  0
  191.4190  176.4170  147.8140 C   0  0  0  0  0  2  0  0  0  0  0  0
  191.9680  176.2570  146.6090 C   0  0  0  0  0  0  0  0  0  0  0  0
  193.4330  175.9810  146.4880 C   0  0  0  0  0  2  0  0  0  0  0  0
  194.1960  177.1510  146.8880 N   0  0  0  0  0  2  0  0  0  0  0  0
  194.9380  177.5850  145.7190 C   0  0  0  0  0  1  0  0  0  0  0  0
  188.7130  177.1010  144.1470 S   0  0  0  0  0  0  0  0  0  0  0  0
  186.6840  177.3980  147.6040 C   0  0  0  0  0  3  0  0  0  0  0  0
  184.4360  178.2880  146.8790 C   0  0  0  0  0  2  0  0  0  0  0  0
  183.5210  179.0420  143.3870 N   0  0  0  0  0  1  0  0  0  0  0  0
  187.8220  177.0860  146.8450 C   0  0  0  0  0  2  0  0  0  0  0  0
  184.2960  178.6290  144.5060 C   0  0  0  0  0  0  0  0  0  0  0  0
  185.7350  177.8440  146.7090 C   0  0  0  0  0  0  0  0  0  0  0  0
  186.2850  177.8070  145.4000 C   0  0  0  0  0  0  0  0  0  0  0  0
  183.7470  178.6710  145.7640 N   0  0  0  0  0  0  0  0  0  0  0  0
  187.5660  177.3420  145.4980 C   0  0  0  0  0  0  0  0  0  0  0  0
  185.5780  178.1940  144.3150 N   0  0  0  0  0  2  0  0  0  0  0  0
  1 15  1  1  0  0  0
  2 19  1  6  0  0  0
  2  1  1  0  0  0  0
  3  2  1  0  0  0  0
  3  1  1  0  0  0  0
  4  7  1  0  0  0  0
  5  1  1  0  0  0  0
  5  7  2  0  0  0  0
  6  4  2  0  0  0  0
  8  9  2  0  0  0  0
  8  6  1  0  0  0  0
  9  5  1  0  0  0  0
 10 11  1  6  0  0  0
 10  8  1  0  0  0  0
 12 10  1  0  0  0  0
 13 12  1  0  0  0  0
 15 14  2  0  0  0  0
 16 15  1  0  0  0  0
 16 17  1  0  0  0  0
 18 17  1  0  0  0  0
 19 28  1  0  0  0  0
 22 24  1  0  0  0  0
 23 20  1  0  0  0  0
 24 27  2  0  0  0  0
 25 21  1  0  0  0  0
 25 20  2  0  0  0  0
 26 28  2  0  0  0  0
 26 25  1  0  0  0  0
 27 21  1  0  0  0  0
 28 23  1  0  0  0  0
 29 24  1  0  0  0  0
 29 26  1  0  0  0  0
M  END
>  <MODEL>
8

>  <REMARK>
 VINA RESULT:      -6.5      2.746      5.606
  Name = 
  8 active torsions:
  status: ('A' for Active; 'I' for Inactive)
    1  A    between atoms: C_1  and  C_17
    2  A    between atoms: C_1  and  C_26
    3  A    between atoms: N_2  and  C_28
    4  A    between atoms: C_4  and  C_9
    5  A    between atoms: C_4  and  C_25
    6  A    between atoms: C_6  and  S_16
    7  A    between atoms: S_16  and  C_20
    8  A    between atoms: C_25  and  C_28
                            x       y       z     vdW  Elec       q    Type
                         _______ _______ _______ _____ _____    ______ ____

>  <TORSDO>
F 8

$$$$
=
 OpenBabel11042416483D

 29 32  0  0  1  0  0  0  0  0999 V2000
  189.8940  174.7150  143.9220 C   0  0  2  0  0  0  0  0  0  0  0  0
  188.7140  175.6880  143.8330 C   0  0  1  0  0  3  0  0  0  0  0  0
  189.2760  175.2820  145.1870 C   0  0  0  0  0  2  0  0  0  0  0  0
  193.0690  175.6520  142.0530 C   0  0  0  0  0  3  0  0  0  0  0  0
  191.2920  175.1830  143.6190 C   0  0  0  0  0  0  0  0  0  0  0  0
  193.8280  176.1430  143.0690 N   0  0  0  0  0  0  0  0  0  0  0  0
  191.7860  175.1680  142.3080 C   0  0  0  0  0  3  0  0  0  0  0  0
  193.3700  176.1840  144.3490 C   0  0  0  0  0  0  0  0  0  0  0  0
  192.0840  175.7120  144.6420 C   0  0  0  0  0  3  0  0  0  0  0  0
  194.2420  176.7460  145.4240 C   0  0  2  0  0  3  0  0  0  0  0  0
  195.4250  177.2450  144.8730 O   0  0  0  0  0  1  0  0  0  0  0  0
  194.5530  175.6860  146.4690 C   0  0  0  0  0  2  0  0  0  0  0  0
  195.5080  174.6530  145.9020 C   0  0  0  0  0  1  0  0  0  0  0  0
  189.7900  172.3660  144.6350 C   0  0  0  0  0  2  0  0  0  0  0  0
  189.5680  173.2700  143.6800 C   0  0  0  0  0  0  0  0  0  0  0  0
  188.8830  172.8620  142.4150 C   0  0  0  0  0  2  0  0  0  0  0  0
  189.6520  171.8300  141.7400 N   0  0  0  0  0  2  0  0  0  0  0  0
  190.1470  172.4170  140.5090 C   0  0  0  0  0  1  0  0  0  0  0  0
  189.1870  177.4160  143.4900 S   0  0  0  0  0  0  0  0  0  0  0  0
  185.4740  178.6270  142.5410 C   0  0  0  0  0  3  0  0  0  0  0  0
  184.3160  178.7470  144.7810 C   0  0  0  0  0  3  0  0  0  0  0  0
  185.9200  177.9390  148.0020 N   0  0  0  0  0  1  0  0  0  0  0  0
  186.7910  178.2640  142.2210 C   0  0  0  0  0  3  0  0  0  0  0  0
  185.7550  178.1310  146.6020 C   0  0  0  0  0  0  0  0  0  0  0  0
  185.3680  178.5210  143.9120 C   0  0  0  0  0  0  0  0  0  0  0  0
  186.6170  178.0950  144.4370 C   0  0  0  0  0  0  0  0  0  0  0  0
  184.5400  178.5430  146.1130 N   0  0  0  0  0  0  0  0  0  0  0  0
  187.4800  177.9390  143.3890 C   0  0  0  0  0  0  0  0  0  0  0  0
  186.8090  177.9010  145.7610 N   0  0  0  0  0  2  0  0  0  0  0  0
  1 15  1  6  0  0  0
  1  3  1  0  0  0  0
  2 19  1  6  0  0  0
  2  1  1  0  0  0  0
  2  3  1  0  0  0  0
  4  7  2  0  0  0  0
  4  6  1  0  0  0  0
  5  1  1  0  0  0  0
  5  9  2  0  0  0  0
  6  8  2  0  0  0  0
  7  5  1  0  0  0  0
  8  9  1  0  0  0  0
  8 10  1  0  0  0  0
 10 11  1  6  0  0  0
 10 12  1  0  0  0  0
 13 12  1  0  0  0  0
 15 14  2  0  0  0  0
 16 15  1  0  0  0  0
 17 16  1  0  0  0  0
 18 17  1  0  0  0  0
 20 25  1  0  0  0  0
 21 27  1  0  0  0  0
 23 20  2  0  0  0  0
 23 28  1  0  0  0  0
 24 22  1  0  0  0  0
 25 26  1  0  0  0  0
 25 21  2  0  0  0  0
 26 29  1  0  0  0  0
 27 24  2  0  0  0  0
 28 19  1  0  0  0  0
 28 26  2  0  0  0  0
 29 24  1  0  0  0  0
M  END
>  <MODEL>
9

>  <REMARK>
 VINA RESULT:      -6.4      2.226      3.004
  Name = 
  8 active torsions:
  status: ('A' for Active; 'I' for Inactive)
    1  A    between atoms: C_1  and  C_17
    2  A    between atoms: C_1  and  C_26
    3  A    between atoms: N_2  and  C_28
    4  A    between atoms: C_4  and  C_9
    5  A    between atoms: C_4  and  C_25
    6  A    between atoms: C_6  and  S_16
    7  A    between atoms: S_16  and  C_20
    8  A    between atoms: C_25  and  C_28
                            x       y       z     vdW  Elec       q    Type
                         _______ _______ _______ _____ _____    ______ ____

>  <TORSDO>
F 8

$$$$
