=
 OpenBabel11042415543D

 50 56  0  0  1  0  0  0  0  0999 V2000
  196.6960  176.0420  140.8420 N   0  0  0  0  0  0  0  0  0  0  0  0
  195.4530  175.5580  145.0730 N   0  0  0  0  0  0  0  0  0  0  0  0
  193.2600  175.9850  144.1140 C   0  0  0  0  0  0  0  0  0  0  0  0
  194.6000  175.7970  143.9280 C   0  0  0  0  0  0  0  0  0  0  0  0
  192.7060  176.1190  145.5120 C   0  0  0  0  0  2  0  0  0  0  0  0
  193.5360  175.3760  146.5480 C   0  0  0  0  0  2  0  0  0  0  0  0
  197.1250  174.9130  139.0290 C   0  0  0  0  0  3  0  0  0  0  0  0
  196.6110  176.3130  142.2620 C   0  0  0  0  0  2  0  0  0  0  0  0
  192.2810  176.2500  143.0180 C   0  0  0  0  0  0  0  0  0  0  0  0
  193.2980  174.6420  141.4740 C   0  0  1  0  0  3  0  0  0  0  0  0
  195.6160  175.4270  140.4170 C   0  0  0  0  0  0  0  0  0  0  0  0
  195.8120  174.6980  139.3070 N   0  0  0  0  0  0  0  0  0  0  0  0
  195.2150  175.8030  142.5750 C   0  0  0  0  0  0  0  0  0  0  0  0
  192.9260  174.0700  140.1180 C   0  0  0  0  0  1  0  0  0  0  0  0
  194.6550  175.2670  141.4870 C   0  0  0  0  0  0  0  0  0  0  0  0
  194.9710  175.8430  146.4210 C   0  0  0  0  0  2  0  0  0  0  0  0
  191.2100  177.1640  143.2800 N   0  0  0  0  0  2  0  0  0  0  0  0
  192.3160  175.6390  141.8640 N   0  0  0  0  0  0  0  0  0  0  0  0
  197.7010  175.7060  140.0230 C   0  0  0  0  0  3  0  0  0  0  0  0
  190.2390  177.4730  142.3140 N   0  0  0  0  0  2  0  0  0  0  0  0
  189.2060  178.2650  142.9620 C   0  0  0  0  0  2  0  0  0  0  0  0
  187.8410  177.6220  142.7290 C   0  0  0  0  0  2  0  0  0  0  0  0
  188.3280  175.8140  146.6540 C   0  0  0  0  0  0  0  0  0  0  0  0
  188.6290  176.2400  145.4770 N   0  0  0  0  0  0  0  0  0  0  0  0
  185.9780  178.6110  144.0790 C   0  0  0  0  0  2  0  0  0  0  0  0
  187.1720  177.7750  146.5790 C   0  0  2  0  0  3  0  0  0  0  0  0
  188.8320  174.5890  147.1740 N   0  0  0  0  0  1  0  0  0  0  0  0
  185.5780  178.9620  145.5190 C   0  0  0  0  0  2  0  0  0  0  0  0
  185.7790  177.8610  146.3700 O   0  0  0  0  0  0  0  0  0  0  0  0
  187.0220  177.4800  144.0140 C   0  0  2  0  0  0  0  0  0  0  0  0
  187.9470  177.5100  145.2600 C   0  0  2  0  0  3  0  0  0  0  0  0
  187.4710  176.6330  147.3630 O   0  0  0  0  0  0  0  0  0  0  0  0
  186.2600  176.1620  143.9250 C   0  0  0  0  0  1  0  0  0  0  0  0
  196.6420  174.7190  144.9360 C   0  0  0  0  0  2  0  0  0  0  0  0
  196.3850  173.3320  145.4360 C   0  0  0  0  0  0  0  0  0  0  0  0
  196.9060  172.9500  146.4690 O   0  0  0  0  0  0  0  0  0  0  0  0
  195.4850  172.4290  144.6620 C   0  0  0  0  0  2  0  0  0  0  0  0
  194.3030  171.9990  145.5130 C   0  0  0  0  0  2  0  0  0  0  0  0
  193.0570  172.3260  144.8350 N   0  0  0  0  0  2  0  0  0  0  0  0
  192.2560  171.3560  144.1460 C   0  0  0  0  0  0  0  0  0  0  0  0
  192.5780  170.1360  144.1780 O   0  0  0  0  0  0  0  0  0  0  0  0
  189.6410  174.4010  143.1030 F   0  0  0  0  0  0  0  0  0  0  0  0
  191.0600  171.7830  143.3940 C   0  0  0  0  0  0  0  0  0  0  0  0
  191.0270  171.6490  142.0600 C   0  0  0  0  0  3  0  0  0  0  0  0
  188.9740  173.2030  143.3060 C   0  0  2  0  0  3  0  0  0  0  0  0
  187.9390  173.4650  141.1540 O   0  0  0  0  0  1  0  0  0  0  0  0
  189.8390  172.0230  141.2730 C   0  0  0  0  0  0  0  0  0  0  0  0
  189.8330  171.8300  140.0280 O   0  0  0  0  0  0  0  0  0  0  0  0
  189.8420  172.2620  144.1460 C   0  0  0  0  0  2  0  0  0  0  0  0
  188.6120  172.5500  141.9670 C   0  0  1  0  0  3  0  0  0  0  0  0
  1  8  1  0  0  0  0
  2 16  1  0  0  0  0
  3  5  1  0  0  0  0
  4  3  2  0  0  0  0
  4  2  1  0  0  0  0
  5  6  1  0  0  0  0
  7 12  1  0  0  0  0
  7 19  2  0  0  0  0
  8 13  1  0  0  0  0
  9 17  1  0  0  0  0
  9  3  1  0  0  0  0
 10 14  1  6  0  0  0
 10 15  1  0  0  0  0
 10 18  1  0  0  0  0
 11  1  1  0  0  0  0
 11 15  1  0  0  0  0
 12 11  2  0  0  0  0
 13  4  1  0  0  0  0
 15 13  2  0  0  0  0
 16  6  1  0  0  0  0
 18  9  2  0  0  0  0
 19  1  1  0  0  0  0
 20 21  1  0  0  0  0
 20 17  1  0  0  0  0
 22 21  1  0  0  0  0
 22 30  1  0  0  0  0
 23 27  1  0  0  0  0
 23 32  1  0  0  0  0
 24 23  2  0  0  0  0
 25 28  1  0  0  0  0
 26 29  1  6  0  0  0
 26 32  1  0  0  0  0
 28 29  1  0  0  0  0
 30 33  1  6  0  0  0
 30 25  1  0  0  0  0
 30 31  1  0  0  0  0
 31 24  1  1  0  0  0
 31 26  1  0  0  0  0
 34  2  1  0  0  0  0
 34 35  1  0  0  0  0
 35 36  2  0  0  0  0
 37 35  1  0  0  0  0
 37 38  1  0  0  0  0
 39 38  1  0  0  0  0
 40 41  2  0  0  0  0
 40 39  1  0  0  0  0
 43 49  1  0  0  0  0
 43 40  1  0  0  0  0
 44 43  2  0  0  0  0
 45 42  1  6  0  0  0
 45 49  1  0  0  0  0
 47 50  1  0  0  0  0
 47 44  1  0  0  0  0
 48 47  2  0  0  0  0
 50 46  1  6  0  0  0
 50 45  1  0  0  0  0
M  END
>  <MODEL>
1

>  <REMARK>
 VINA RESULT:      -7.9      0.000      0.000
  Name = 
  10 active torsions:
  status: ('A' for Active; 'I' for Inactive)
    1  A    between atoms: N_2  and  C_43
    2  A    between atoms: C_7  and  C_18
    3  A    between atoms: C_7  and  N_32
    4  A    between atoms: C_13  and  C_39
    5  A    between atoms: C_15  and  C_31
    6  A    between atoms: C_15  and  N_33
    7  A    between atoms: C_18  and  C_23
    8  A    between atoms: C_23  and  C_43
    9  A    between atoms: C_31  and  C_38
   10  A    between atoms: N_33  and  N_46
                            x       y       z     vdW  Elec       q    Type
                         _______ _______ _______ _____ _____    ______ ____

>  <TORSDO>
F 10

$$$$
=
 OpenBabel11042415543D

 50 56  0  0  1  0  0  0  0  0999 V2000
  191.0970  174.1560  141.2910 N   0  0  0  0  0  0  0  0  0  0  0  0
  193.7990  175.8860  144.3550 N   0  0  0  0  0  0  0  0  0  0  0  0
  191.8260  175.6080  145.7490 C   0  0  0  0  0  0  0  0  0  0  0  0
  192.4360  175.4350  144.5390 C   0  0  0  0  0  0  0  0  0  0  0  0
  192.5070  176.4200  146.8250 C   0  0  0  0  0  2  0  0  0  0  0  0
  194.0230  176.3850  146.7180 C   0  0  0  0  0  2  0  0  0  0  0  0
  190.5370  172.2740  140.3480 C   0  0  0  0  0  3  0  0  0  0  0  0
  191.9550  175.1260  141.9390 C   0  0  0  0  0  2  0  0  0  0  0  0
  190.4240  175.1960  146.0590 C   0  0  0  0  0  0  0  0  0  0  0  0
  190.5780  173.0840  144.8250 C   0  0  1  0  0  3  0  0  0  0  0  0
  190.5600  173.3430  142.1710 C   0  0  0  0  0  0  0  0  0  0  0  0
  190.2030  172.1540  141.6610 N   0  0  0  0  0  0  0  0  0  0  0  0
  191.7500  174.7690  143.4010 C   0  0  0  0  0  0  0  0  0  0  0  0
  189.6900  171.8640  144.6660 C   0  0  0  0  0  1  0  0  0  0  0  0
  190.9470  173.7080  143.5170 C   0  0  0  0  0  0  0  0  0  0  0  0
  194.4040  176.8050  145.3140 C   0  0  0  0  0  2  0  0  0  0  0  0
  189.6500  176.0410  146.9160 N   0  0  0  0  0  2  0  0  0  0  0  0
  189.9000  174.0740  145.6440 N   0  0  0  0  0  0  0  0  0  0  0  0
  191.1550  173.5040  140.1220 C   0  0  0  0  0  3  0  0  0  0  0  0
  188.3250  175.7360  147.2680 N   0  0  0  0  0  2  0  0  0  0  0  0
  187.5060  176.8970  146.9590 C   0  0  0  0  0  2  0  0  0  0  0  0
  186.5360  176.5570  145.8300 C   0  0  0  0  0  2  0  0  0  0  0  0
  187.1360  176.2520  141.5340 C   0  0  0  0  0  0  0  0  0  0  0  0
  186.9110  175.8890  142.7480 N   0  0  0  0  0  0  0  0  0  0  0  0
  185.9560  178.8410  144.9810 C   0  0  0  0  0  2  0  0  0  0  0  0
  185.7520  177.9140  142.2460 C   0  0  2  0  0  3  0  0  0  0  0  0
  187.9670  175.5010  140.6560 N   0  0  0  0  0  1  0  0  0  0  0  0
  185.4450  179.5780  143.7340 C   0  0  0  0  0  2  0  0  0  0  0  0
  186.1910  179.2070  142.6010 O   0  0  0  0  0  0  0  0  0  0  0  0
  186.6510  177.5100  144.6380 C   0  0  2  0  0  0  0  0  0  0  0  0
  186.0300  176.8740  143.3650 C   0  0  2  0  0  3  0  0  0  0  0  0
  186.5170  177.4280  141.1580 O   0  0  0  0  0  0  0  0  0  0  0  0
  188.1330  177.8090  144.4360 C   0  0  0  0  0  1  0  0  0  0  0  0
  194.6850  175.1770  143.4350 C   0  0  0  0  0  2  0  0  0  0  0  0
  195.4820  176.1350  142.6060 C   0  0  0  0  0  0  0  0  0  0  0  0
  194.9530  176.7310  141.6840 O   0  0  0  0  0  0  0  0  0  0  0  0
  196.9230  176.3540  142.9220 C   0  0  0  0  0  2  0  0  0  0  0  0
  197.7610  175.1910  142.4190 C   0  0  0  0  0  2  0  0  0  0  0  0
  197.7790  175.1830  140.9630 N   0  0  0  0  0  2  0  0  0  0  0  0
  197.2800  174.0950  140.1740 C   0  0  0  0  0  0  0  0  0  0  0  0
  196.7180  173.1150  140.7370 O   0  0  0  0  0  0  0  0  0  0  0  0
  196.1120  172.6020  136.4860 F   0  0  0  0  0  0  0  0  0  0  0  0
  197.4280  174.1160  138.7060 C   0  0  0  0  0  0  0  0  0  0  0  0
  197.2020  175.2510  138.0280 C   0  0  0  0  0  3  0  0  0  0  0  0
  197.4790  172.8270  136.5350 C   0  0  2  0  0  3  0  0  0  0  0  0
  197.2980  174.1120  134.5140 O   0  0  0  0  0  1  0  0  0  0  0  0
  197.3780  175.3290  136.5680 C   0  0  0  0  0  0  0  0  0  0  0  0
  197.2060  176.4300  135.9800 O   0  0  0  0  0  0  0  0  0  0  0  0
  197.9410  172.8880  137.9940 C   0  0  0  0  0  2  0  0  0  0  0  0
  197.8440  174.1220  135.8010 C   0  0  1  0  0  3  0  0  0  0  0  0
  1  8  1  0  0  0  0
  1 11  1  0  0  0  0
  2  4  1  0  0  0  0
  2 16  1  0  0  0  0
  3  9  1  0  0  0  0
  3  5  1  0  0  0  0
  4  3  2  0  0  0  0
  6  5  1  0  0  0  0
  7 12  1  0  0  0  0
  8 13  1  0  0  0  0
  9 17  1  0  0  0  0
 10 14  1  6  0  0  0
 10 18  1  0  0  0  0
 11 15  1  0  0  0  0
 12 11  2  0  0  0  0
 13 15  2  0  0  0  0
 13  4  1  0  0  0  0
 15 10  1  0  0  0  0
 16  6  1  0  0  0  0
 17 20  1  0  0  0  0
 18  9  2  0  0  0  0
 19  7  2  0  0  0  0
 19  1  1  0  0  0  0
 21 20  1  0  0  0  0
 22 21  1  0  0  0  0
 23 24  2  0  0  0  0
 26 32  1  6  0  0  0
 26 29  1  0  0  0  0
 26 31  1  0  0  0  0
 27 23  1  0  0  0  0
 28 25  1  0  0  0  0
 29 28  1  0  0  0  0
 30 33  1  6  0  0  0
 30 25  1  0  0  0  0
 30 22  1  0  0  0  0
 31 24  1  6  0  0  0
 31 30  1  0  0  0  0
 32 23  1  0  0  0  0
 34  2  1  0  0  0  0
 35 37  1  0  0  0  0
 35 34  1  0  0  0  0
 36 35  2  0  0  0  0
 38 37  1  0  0  0  0
 39 38  1  0  0  0  0
 40 41  2  0  0  0  0
 40 39  1  0  0  0  0
 43 40  1  0  0  0  0
 44 43  2  0  0  0  0
 45 42  1  1  0  0  0
 45 49  1  0  0  0  0
 47 44  1  0  0  0  0
 48 47  2  0  0  0  0
 49 43  1  0  0  0  0
 50 46  1  6  0  0  0
 50 45  1  0  0  0  0
 50 47  1  0  0  0  0
M  END
>  <MODEL>
2

>  <REMARK>
 VINA RESULT:      -7.7      3.242      5.958
  Name = 
  10 active torsions:
  status: ('A' for Active; 'I' for Inactive)
    1  A    between atoms: N_2  and  C_43
    2  A    between atoms: C_7  and  C_18
    3  A    between atoms: C_7  and  N_32
    4  A    between atoms: C_13  and  C_39
    5  A    between atoms: C_15  and  C_31
    6  A    between atoms: C_15  and  N_33
    7  A    between atoms: C_18  and  C_23
    8  A    between atoms: C_23  and  C_43
    9  A    between atoms: C_31  and  C_38
   10  A    between atoms: N_33  and  N_46
                            x       y       z     vdW  Elec       q    Type
                         _______ _______ _______ _____ _____    ______ ____

>  <TORSDO>
F 10

$$$$
=
 OpenBabel11042415543D

 50 56  0  0  1  0  0  0  0  0999 V2000
  191.9690  170.8620  139.4230 N   0  0  0  0  0  0  0  0  0  0  0  0
  194.4850  173.9900  141.3140 N   0  0  0  0  0  0  0  0  0  0  0  0
  192.3070  174.8530  141.9670 C   0  0  0  0  0  0  0  0  0  0  0  0
  193.0420  173.8760  141.3590 C   0  0  0  0  0  0  0  0  0  0  0  0
  192.9820  176.1230  142.4300 C   0  0  0  0  0  2  0  0  0  0  0  0
  194.4450  175.9160  142.7880 C   0  0  0  0  0  2  0  0  0  0  0  0
  191.1380  168.8770  139.7620 C   0  0  0  0  0  3  0  0  0  0  0  0
  192.9190  171.9520  139.5240 C   0  0  0  0  0  2  0  0  0  0  0  0
  190.8170  174.8560  142.0680 C   0  0  0  0  0  0  0  0  0  0  0  0
  190.6630  172.4540  142.5320 C   0  0  1  0  0  3  0  0  0  0  0  0
  191.1250  170.8830  140.4290 C   0  0  0  0  0  0  0  0  0  0  0  0
  190.5830  169.6850  140.7030 N   0  0  0  0  0  0  0  0  0  0  0  0
  192.4070  172.6740  140.7580 C   0  0  0  0  0  0  0  0  0  0  0  0
  189.5490  171.5070  142.9380 C   0  0  0  0  0  1  0  0  0  0  0  0
  191.3690  172.0210  141.2880 C   0  0  0  0  0  0  0  0  0  0  0  0
  195.1300  175.2660  141.6040 C   0  0  0  0  0  2  0  0  0  0  0  0
  190.1380  176.1110  141.9520 N   0  0  0  0  0  2  0  0  0  0  0  0
  190.1160  173.7840  142.3240 N   0  0  0  0  0  0  0  0  0  0  0  0
  192.0560  169.5960  138.9940 C   0  0  0  0  0  3  0  0  0  0  0  0
  188.7400  176.2140  142.0380 N   0  0  0  0  0  2  0  0  0  0  0  0
  188.3860  177.6090  141.8330 C   0  0  0  0  0  2  0  0  0  0  0  0
  187.7910  178.1830  143.1160 C   0  0  0  0  0  2  0  0  0  0  0  0
  184.6640  178.7820  146.0800 C   0  0  0  0  0  0  0  0  0  0  0  0
  185.8220  178.8410  145.5200 N   0  0  0  0  0  0  0  0  0  0  0  0
  185.6700  177.9830  141.7980 C   0  0  0  0  0  2  0  0  0  0  0  0
  184.0920  179.1770  143.9100 C   0  0  2  0  0  3  0  0  0  0  0  0
  184.5030  178.5510  147.4740 N   0  0  0  0  0  1  0  0  0  0  0  0
  184.2020  178.4340  141.7870 C   0  0  0  0  0  2  0  0  0  0  0  0
  183.6000  178.1880  143.0330 O   0  0  0  0  0  0  0  0  0  0  0  0
  186.2770  177.9800  143.2140 C   0  0  2  0  0  0  0  0  0  0  0  0
  185.6310  179.0830  144.0950 C   0  0  2  0  0  3  0  0  0  0  0  0
  183.5970  178.9480  145.2190 O   0  0  0  0  0  0  0  0  0  0  0  0
  186.0410  176.5950  143.8070 C   0  0  0  0  0  1  0  0  0  0  0  0
  195.3130  172.7860  141.3300 C   0  0  0  0  0  2  0  0  0  0  0  0
  195.6120  172.3530  142.7310 C   0  0  0  0  0  0  0  0  0  0  0  0
  196.6560  172.6860  143.2630 O   0  0  0  0  0  0  0  0  0  0  0  0
  194.6200  171.5170  143.4660 C   0  0  0  0  0  2  0  0  0  0  0  0
  194.4200  172.0450  144.8770 C   0  0  0  0  0  2  0  0  0  0  0  0
  193.1500  172.7510  144.9680 N   0  0  0  0  0  2  0  0  0  0  0  0
  193.0070  174.0440  145.5730 C   0  0  0  0  0  0  0  0  0  0  0  0
  194.0280  174.6620  145.9860 O   0  0  0  0  0  0  0  0  0  0  0  0
  189.6470  174.6510  147.9260 F   0  0  0  0  0  0  0  0  0  0  0  0
  191.6690  174.6490  145.7210 C   0  0  0  0  0  0  0  0  0  0  0  0
  191.5230  175.9780  145.6230 C   0  0  0  0  0  3  0  0  0  0  0  0
  189.3090  174.4500  146.5970 C   0  0  2  0  0  3  0  0  0  0  0  0
  188.0120  176.4710  146.6660 O   0  0  0  0  0  1  0  0  0  0  0  0
  190.2020  176.6210  145.7220 C   0  0  0  0  0  0  0  0  0  0  0  0
  190.1050  177.8680  145.5700 O   0  0  0  0  0  0  0  0  0  0  0  0
  190.4620  173.7540  145.8690 C   0  0  0  0  0  2  0  0  0  0  0  0
  188.9680  175.7810  145.9160 C   0  0  1  0  0  3  0  0  0  0  0  0
  1  8  1  0  0  0  0
  1 11  1  0  0  0  0
  2 34  1  0  0  0  0
  2  4  1  0  0  0  0
  2 16  1  0  0  0  0
  3  9  1  0  0  0  0
  3  5  1  0  0  0  0
  4  3  2  0  0  0  0
  5  6  1  0  0  0  0
  7 12  1  0  0  0  0
  8 13  1  0  0  0  0
  9 18  2  0  0  0  0
 10 14  1  6  0  0  0
 11 12  2  0  0  0  0
 11 15  1  0  0  0  0
 13 15  2  0  0  0  0
 13  4  1  0  0  0  0
 15 10  1  0  0  0  0
 16  6  1  0  0  0  0
 17 20  1  0  0  0  0
 17  9  1  0  0  0  0
 18 10  1  0  0  0  0
 19  1  1  0  0  0  0
 19  7  2  0  0  0  0
 21 20  1  0  0  0  0
 21 22  1  0  0  0  0
 22 30  1  0  0  0  0
 23 27  1  0  0  0  0
 24 23  2  0  0  0  0
 25 30  1  0  0  0  0
 26 29  1  6  0  0  0
 26 31  1  0  0  0  0
 26 32  1  0  0  0  0
 28 25  1  0  0  0  0
 28 29  1  0  0  0  0
 30 33  1  1  0  0  0
 30 31  1  0  0  0  0
 31 24  1  1  0  0  0
 32 23  1  0  0  0  0
 34 35  1  0  0  0  0
 35 36  2  0  0  0  0
 35 37  1  0  0  0  0
 37 38  1  0  0  0  0
 38 39  1  0  0  0  0
 39 40  1  0  0  0  0
 40 43  1  0  0  0  0
 40 41  2  0  0  0  0
 43 49  1  0  0  0  0
 44 43  2  0  0  0  0
 44 47  1  0  0  0  0
 45 42  1  1  0  0  0
 47 50  1  0  0  0  0
 48 47  2  0  0  0  0
 49 45  1  0  0  0  0
 50 45  1  0  0  0  0
 50 46  1  1  0  0  0
M  END
>  <MODEL>
3

>  <REMARK>
 VINA RESULT:      -7.6      2.616      4.522
  Name = 
  10 active torsions:
  status: ('A' for Active; 'I' for Inactive)
    1  A    between atoms: N_2  and  C_43
    2  A    between atoms: C_7  and  C_18
    3  A    between atoms: C_7  and  N_32
    4  A    between atoms: C_13  and  C_39
    5  A    between atoms: C_15  and  C_31
    6  A    between atoms: C_15  and  N_33
    7  A    between atoms: C_18  and  C_23
    8  A    between atoms: C_23  and  C_43
    9  A    between atoms: C_31  and  C_38
   10  A    between atoms: N_33  and  N_46
                            x       y       z     vdW  Elec       q    Type
                         _______ _______ _______ _____ _____    ______ ____

>  <TORSDO>
F 10

$$$$
=
 OpenBabel11042415543D

 50 56  0  0  1  0  0  0  0  0999 V2000
  196.3960  170.6890  145.7660 N   0  0  0  0  0  0  0  0  0  0  0  0
  195.3460  174.7700  144.3790 N   0  0  0  0  0  0  0  0  0  0  0  0
  194.4500  173.5210  142.4950 C   0  0  0  0  0  0  0  0  0  0  0  0
  195.0480  173.5150  143.7220 C   0  0  0  0  0  0  0  0  0  0  0  0
  194.2640  174.8250  141.7560 C   0  0  0  0  0  2  0  0  0  0  0  0
  194.1320  176.0180  142.6900 C   0  0  0  0  0  2  0  0  0  0  0  0
  195.6850  169.0560  147.0200 C   0  0  0  0  0  3  0  0  0  0  0  0
  196.5890  172.0570  145.3310 C   0  0  0  0  0  2  0  0  0  0  0  0
  194.1030  172.2960  141.7140 C   0  0  0  0  0  0  0  0  0  0  0  0
  193.3300  171.0440  143.6740 C   0  0  1  0  0  3  0  0  0  0  0  0
  195.2740  170.2000  145.2910 C   0  0  0  0  0  0  0  0  0  0  0  0
  194.7700  169.1950  146.0250 N   0  0  0  0  0  0  0  0  0  0  0  0
  195.3840  172.2490  144.4270 C   0  0  0  0  0  0  0  0  0  0  0  0
  192.6320  169.7150  143.8930 C   0  0  0  0  0  1  0  0  0  0  0  0
  194.6130  171.1590  144.4330 C   0  0  0  0  0  0  0  0  0  0  0  0
  195.3260  176.0180  143.6220 C   0  0  0  0  0  2  0  0  0  0  0  0
  194.2550  172.3410  140.2910 N   0  0  0  0  0  2  0  0  0  0  0  0
  193.6040  171.2180  142.2570 N   0  0  0  0  0  0  0  0  0  0  0  0
  196.6760  170.0310  146.8990 C   0  0  0  0  0  3  0  0  0  0  0  0
  193.9510  171.2420  139.4720 N   0  0  0  0  0  2  0  0  0  0  0  0
  192.7200  171.5480  138.7600 C   0  0  0  0  0  2  0  0  0  0  0  0
  192.1060  172.8280  139.3190 C   0  0  0  0  0  2  0  0  0  0  0  0
  189.8170  173.4160  142.9700 C   0  0  0  0  0  0  0  0  0  0  0  0
  190.8020  173.4710  142.1430 N   0  0  0  0  0  0  0  0  0  0  0  0
  189.7230  172.6740  138.5640 C   0  0  0  0  0  2  0  0  0  0  0  0
  188.7330  173.8520  141.0150 C   0  0  2  0  0  3  0  0  0  0  0  0
  190.0010  173.1660  144.3590 N   0  0  0  0  0  1  0  0  0  0  0  0
  188.3050  173.1430  138.9210 C   0  0  0  0  0  2  0  0  0  0  0  0
  188.0250  172.8830  140.2740 O   0  0  0  0  0  0  0  0  0  0  0  0
  190.6600  172.6410  139.7850 C   0  0  2  0  0  0  0  0  0  0  0  0
  190.2680  173.7380  140.8120 C   0  0  2  0  0  3  0  0  0  0  0  0
  188.5740  173.6090  142.4020 O   0  0  0  0  0  0  0  0  0  0  0  0
  190.5570  171.2500  140.4010 C   0  0  0  0  0  1  0  0  0  0  0  0
  195.3230  174.8550  145.8380 C   0  0  0  0  0  2  0  0  0  0  0  0
  194.1000  175.5710  146.3180 C   0  0  0  0  0  0  0  0  0  0  0  0
  194.1940  176.6850  146.8010 O   0  0  0  0  0  0  0  0  0  0  0  0
  192.7680  174.9090  146.1950 C   0  0  0  0  0  2  0  0  0  0  0  0
  191.8370  175.3780  147.2990 C   0  0  0  0  0  2  0  0  0  0  0  0
  190.7060  176.0930  146.7260 N   0  0  0  0  0  2  0  0  0  0  0  0
  189.3450  175.6670  146.8750 C   0  0  0  0  0  0  0  0  0  0  0  0
  189.0730  174.6690  147.6000 O   0  0  0  0  0  0  0  0  0  0  0  0
  187.0930  176.1760  143.4300 F   0  0  0  0  0  0  0  0  0  0  0  0
  188.2620  176.3870  146.1760 C   0  0  0  0  0  0  0  0  0  0  0  0
  187.0180  176.3700  146.6760 C   0  0  0  0  0  3  0  0  0  0  0  0
  187.3890  177.3900  144.0300 C   0  0  2  0  0  3  0  0  0  0  0  0
  185.0510  177.9410  143.9710 O   0  0  0  0  0  1  0  0  0  0  0  0
  185.9160  177.1090  146.0360 C   0  0  0  0  0  0  0  0  0  0  0  0
  184.7760  177.1090  146.5710 O   0  0  0  0  0  0  0  0  0  0  0  0
  188.5900  177.2270  144.9650 C   0  0  0  0  0  2  0  0  0  0  0  0
  186.1770  177.9260  144.8000 C   0  0  1  0  0  3  0  0  0  0  0  0
  1 19  1  0  0  0  0
  2 34  1  0  0  0  0
  3  4  2  0  0  0  0
  4  2  1  0  0  0  0
  4 13  1  0  0  0  0
  5  3  1  0  0  0  0
  5  6  1  0  0  0  0
  6 16  1  0  0  0  0
  8  1  1  0  0  0  0
  9 18  2  0  0  0  0
  9  3  1  0  0  0  0
 10 14  1  6  0  0  0
 10 15  1  0  0  0  0
 11  1  1  0  0  0  0
 11 12  2  0  0  0  0
 12  7  1  0  0  0  0
 13 15  2  0  0  0  0
 13  8  1  0  0  0  0
 15 11  1  0  0  0  0
 16  2  1  0  0  0  0
 17  9  1  0  0  0  0
 18 10  1  0  0  0  0
 19  7  2  0  0  0  0
 20 17  1  0  0  0  0
 21 22  1  0  0  0  0
 21 20  1  0  0  0  0
 22 30  1  0  0  0  0
 23 27  1  0  0  0  0
 24 23  2  0  0  0  0
 25 28  1  0  0  0  0
 25 30  1  0  0  0  0
 26 29  1  6  0  0  0
 26 32  1  0  0  0  0
 28 29  1  0  0  0  0
 30 33  1  1  0  0  0
 30 31  1  0  0  0  0
 31 26  1  0  0  0  0
 31 24  1  1  0  0  0
 32 23  1  0  0  0  0
 34 35  1  0  0  0  0
 35 36  2  0  0  0  0
 37 35  1  0  0  0  0
 37 38  1  0  0  0  0
 39 40  1  0  0  0  0
 39 38  1  0  0  0  0
 40 41  2  0  0  0  0
 43 44  2  0  0  0  0
 43 40  1  0  0  0  0
 45 42  1  1  0  0  0
 45 50  1  0  0  0  0
 45 49  1  0  0  0  0
 47 48  2  0  0  0  0
 47 44  1  0  0  0  0
 49 43  1  0  0  0  0
 50 46  1  6  0  0  0
 50 47  1  0  0  0  0
M  END
>  <MODEL>
4

>  <REMARK>
 VINA RESULT:      -7.5      2.249      6.164
  Name = 
  10 active torsions:
  status: ('A' for Active; 'I' for Inactive)
    1  A    between atoms: N_2  and  C_43
    2  A    between atoms: C_7  and  C_18
    3  A    between atoms: C_7  and  N_32
    4  A    between atoms: C_13  and  C_39
    5  A    between atoms: C_15  and  C_31
    6  A    between atoms: C_15  and  N_33
    7  A    between atoms: C_18  and  C_23
    8  A    between atoms: C_23  and  C_43
    9  A    between atoms: C_31  and  C_38
   10  A    between atoms: N_33  and  N_46
                            x       y       z     vdW  Elec       q    Type
                         _______ _______ _______ _____ _____    ______ ____

>  <TORSDO>
F 10

$$$$
=
 OpenBabel11042415543D

 50 56  0  0  1  0  0  0  0  0999 V2000
  192.0420  171.4280  138.3750 N   0  0  0  0  0  0  0  0  0  0  0  0
  194.5480  174.4830  140.3940 N   0  0  0  0  0  0  0  0  0  0  0  0
  192.5000  174.8210  141.6600 C   0  0  0  0  0  0  0  0  0  0  0  0
  193.1800  174.1240  140.7030 C   0  0  0  0  0  0  0  0  0  0  0  0
  193.1100  176.0660  142.2610 C   0  0  0  0  0  2  0  0  0  0  0  0
  194.6310  176.0370  142.2540 C   0  0  0  0  0  2  0  0  0  0  0  0
  191.5530  169.3060  138.4010 C   0  0  0  0  0  3  0  0  0  0  0  0
  192.8540  172.6180  138.5330 C   0  0  0  0  0  2  0  0  0  0  0  0
  191.0860  174.5540  142.0600 C   0  0  0  0  0  0  0  0  0  0  0  0
  191.3290  172.1180  141.9700 C   0  0  1  0  0  3  0  0  0  0  0  0
  191.4620  171.1040  139.5080 C   0  0  0  0  0  0  0  0  0  0  0  0
  191.1450  169.8020  139.5980 N   0  0  0  0  0  0  0  0  0  0  0  0
  192.5670  172.9800  139.9800 C   0  0  0  0  0  0  0  0  0  0  0  0
  190.4610  170.9350  142.3610 C   0  0  0  0  0  1  0  0  0  0  0  0
  191.7670  172.0690  140.5420 C   0  0  0  0  0  0  0  0  0  0  0  0
  195.0890  175.7640  140.8370 C   0  0  0  0  0  2  0  0  0  0  0  0
  190.2560  175.6760  142.3830 N   0  0  0  0  0  2  0  0  0  0  0  0
  190.5950  173.3510  142.1960 N   0  0  0  0  0  0  0  0  0  0  0  0
  192.1740  170.3080  137.6530 C   0  0  0  0  0  3  0  0  0  0  0  0
  188.9160  175.5250  142.7740 N   0  0  0  0  0  2  0  0  0  0  0  0
  188.6300  176.5390  143.7760 C   0  0  0  0  0  2  0  0  0  0  0  0
  187.9440  177.7340  143.1180 C   0  0  0  0  0  2  0  0  0  0  0  0
  185.0280  178.8080  146.1610 C   0  0  0  0  0  0  0  0  0  0  0  0
  186.1620  178.7110  145.5580 N   0  0  0  0  0  0  0  0  0  0  0  0
  185.7630  177.7250  141.8870 C   0  0  0  0  0  2  0  0  0  0  0  0
  184.4170  179.1780  143.9980 C   0  0  2  0  0  3  0  0  0  0  0  0
  184.8980  178.6550  147.5700 N   0  0  0  0  0  1  0  0  0  0  0  0
  184.3560  178.3420  141.9070 C   0  0  0  0  0  2  0  0  0  0  0  0
  183.7810  178.2170  143.1840 O   0  0  0  0  0  0  0  0  0  0  0  0
  186.4220  177.7100  143.2790 C   0  0  2  0  0  0  0  0  0  0  0  0
  185.9410  178.9150  144.1310 C   0  0  2  0  0  3  0  0  0  0  0  0
  183.9530  179.0610  145.3320 O   0  0  0  0  0  0  0  0  0  0  0  0
  186.0550  176.3870  143.9420 C   0  0  0  0  0  1  0  0  0  0  0  0
  195.4920  173.4570  139.9570 C   0  0  0  0  0  2  0  0  0  0  0  0
  196.1350  172.7810  141.1270 C   0  0  0  0  0  0  0  0  0  0  0  0
  197.1730  173.2200  141.5910 O   0  0  0  0  0  0  0  0  0  0  0  0
  195.4930  171.5730  141.7190 C   0  0  0  0  0  2  0  0  0  0  0  0
  195.6390  171.5790  143.2310 C   0  0  0  0  0  2  0  0  0  0  0  0
  194.6570  172.4760  143.8220 N   0  0  0  0  0  2  0  0  0  0  0  0
  194.9830  173.4610  144.8130 C   0  0  0  0  0  0  0  0  0  0  0  0
  196.1860  173.6370  145.1540 O   0  0  0  0  0  0  0  0  0  0  0  0
  193.0970  177.1320  145.2140 F   0  0  0  0  0  0  0  0  0  0  0  0
  193.9140  174.2630  145.4400 C   0  0  0  0  0  0  0  0  0  0  0  0
  192.6310  173.9130  145.2710 C   0  0  0  0  0  3  0  0  0  0  0  0
  193.1870  176.4700  146.4280 C   0  0  2  0  0  3  0  0  0  0  0  0
  190.8250  176.7890  146.7280 O   0  0  0  0  0  1  0  0  0  0  0  0
  191.5340  174.6590  145.9120 C   0  0  0  0  0  0  0  0  0  0  0  0
  190.3470  174.2630  145.7690 O   0  0  0  0  0  0  0  0  0  0  0  0
  194.2840  175.4040  146.3580 C   0  0  0  0  0  2  0  0  0  0  0  0
  191.8420  175.8340  146.8010 C   0  0  1  0  0  3  0  0  0  0  0  0
  1  8  1  0  0  0  0
  1 11  1  0  0  0  0
  2  4  1  0  0  0  0
  2 16  1  0  0  0  0
  3  9  1  0  0  0  0
  3  5  1  0  0  0  0
  4  3  2  0  0  0  0
  6  5  1  0  0  0  0
  7 12  1  0  0  0  0
  8 13  1  0  0  0  0
  9 18  2  0  0  0  0
  9 17  1  0  0  0  0
 10 18  1  0  0  0  0
 10 14  1  6  0  0  0
 11 12  2  0  0  0  0
 11 15  1  0  0  0  0
 13 15  2  0  0  0  0
 13  4  1  0  0  0  0
 15 10  1  0  0  0  0
 16  6  1  0  0  0  0
 17 20  1  0  0  0  0
 19  1  1  0  0  0  0
 19  7  2  0  0  0  0
 20 21  1  0  0  0  0
 22 30  1  0  0  0  0
 22 21  1  0  0  0  0
 23 27  1  0  0  0  0
 24 23  2  0  0  0  0
 25 28  1  0  0  0  0
 25 30  1  0  0  0  0
 26 29  1  6  0  0  0
 26 31  1  0  0  0  0
 26 32  1  0  0  0  0
 28 29  1  0  0  0  0
 30 33  1  1  0  0  0
 30 31  1  0  0  0  0
 31 24  1  1  0  0  0
 32 23  1  0  0  0  0
 34  2  1  0  0  0  0
 34 35  1  0  0  0  0
 35 36  2  0  0  0  0
 35 37  1  0  0  0  0
 37 38  1  0  0  0  0
 38 39  1  0  0  0  0
 39 40  1  0  0  0  0
 40 41  2  0  0  0  0
 40 43  1  0  0  0  0
 43 49  1  0  0  0  0
 44 43  2  0  0  0  0
 44 47  1  0  0  0  0
 45 42  1  6  0  0  0
 45 50  1  0  0  0  0
 47 50  1  0  0  0  0
 48 47  2  0  0  0  0
 49 45  1  0  0  0  0
 50 46  1  6  0  0  0
M  END
>  <MODEL>
5

>  <REMARK>
 VINA RESULT:      -7.5      2.637      4.657
  Name = 
  10 active torsions:
  status: ('A' for Active; 'I' for Inactive)
    1  A    between atoms: N_2  and  C_43
    2  A    between atoms: C_7  and  C_18
    3  A    between atoms: C_7  and  N_32
    4  A    between atoms: C_13  and  C_39
    5  A    between atoms: C_15  and  C_31
    6  A    between atoms: C_15  and  N_33
    7  A    between atoms: C_18  and  C_23
    8  A    between atoms: C_23  and  C_43
    9  A    between atoms: C_31  and  C_38
   10  A    between atoms: N_33  and  N_46
                            x       y       z     vdW  Elec       q    Type
                         _______ _______ _______ _____ _____    ______ ____

>  <TORSDO>
F 10

$$$$
=
 OpenBabel11042415543D

 50 56  0  0  1  0  0  0  0  0999 V2000
  195.3580  175.4500  142.5290 N   0  0  0  0  0  0  0  0  0  0  0  0
  191.2130  174.8270  143.9840 N   0  0  0  0  0  0  0  0  0  0  0  0
  192.0200  172.5470  144.2450 C   0  0  0  0  0  0  0  0  0  0  0  0
  192.2770  173.8470  143.9150 C   0  0  0  0  0  0  0  0  0  0  0  0
  190.5990  172.1050  144.5060 C   0  0  0  0  0  2  0  0  0  0  0  0
  189.7210  173.2290  145.0330 C   0  0  0  0  0  2  0  0  0  0  0  0
  197.3380  176.0860  143.1780 C   0  0  0  0  0  3  0  0  0  0  0  0
  193.9100  175.3990  142.4980 C   0  0  0  0  0  2  0  0  0  0  0  0
  193.0270  171.4460  144.2040 C   0  0  0  0  0  0  0  0  0  0  0  0
  194.8360  172.8210  145.1220 C   0  0  1  0  0  3  0  0  0  0  0  0
  195.8360  174.6190  143.4270 C   0  0  0  0  0  0  0  0  0  0  0  0
  197.0520  174.9590  143.8830 N   0  0  0  0  0  0  0  0  0  0  0  0
  193.6330  174.3010  143.5100 C   0  0  0  0  0  0  0  0  0  0  0  0
  196.2510  172.5550  145.6030 C   0  0  0  0  0  1  0  0  0  0  0  0
  194.7720  173.8710  144.0610 C   0  0  0  0  0  0  0  0  0  0  0  0
  189.8220  174.3950  144.0720 C   0  0  0  0  0  2  0  0  0  0  0  0
  192.5900  170.1510  143.7770 N   0  0  0  0  0  2  0  0  0  0  0  0
  194.2630  171.5910  144.6020 N   0  0  0  0  0  0  0  0  0  0  0  0
  196.2530  176.4340  142.3710 C   0  0  0  0  0  3  0  0  0  0  0  0
  193.4630  169.0530  143.7090 N   0  0  0  0  0  2  0  0  0  0  0  0
  193.8420  168.8730  142.3170 C   0  0  0  0  0  2  0  0  0  0  0  0
  192.6510  169.1850  141.4150 C   0  0  0  0  0  2  0  0  0  0  0  0
  190.2820  172.1250  139.2560 C   0  0  0  0  0  0  0  0  0  0  0  0
  190.5690  171.1740  140.0760 N   0  0  0  0  0  0  0  0  0  0  0  0
  194.3270  170.9120  140.7210 C   0  0  0  0  0  2  0  0  0  0  0  0
  192.2680  172.8500  140.1030 C   0  0  2  0  0  3  0  0  0  0  0  0
  189.0940  172.1230  138.4730 N   0  0  0  0  0  1  0  0  0  0  0  0
  194.4590  172.4010  140.3670 C   0  0  0  0  0  2  0  0  0  0  0  0
  193.4950  172.7700  139.4130 O   0  0  0  0  0  0  0  0  0  0  0  0
  192.9050  170.3710  140.4820 C   0  0  2  0  0  0  0  0  0  0  0  0
  191.8460  171.4840  140.7080 C   0  0  2  0  0  3  0  0  0  0  0  0
  191.2210  173.1350  139.1920 O   0  0  0  0  0  0  0  0  0  0  0  0
  192.8520  169.8450  139.0520 C   0  0  0  0  0  1  0  0  0  0  0  0
  191.5200  176.2160  144.3170 C   0  0  0  0  0  2  0  0  0  0  0  0
  192.1320  176.3240  145.6780 C   0  0  0  0  0  0  0  0  0  0  0  0
  193.2070  176.8780  145.8220 O   0  0  0  0  0  0  0  0  0  0  0  0
  191.4110  175.7520  146.8520 C   0  0  0  0  0  2  0  0  0  0  0  0
  190.6760  176.8440  147.6100 C   0  0  0  0  0  2  0  0  0  0  0  0
  189.5560  177.3310  146.8180 N   0  0  0  0  0  2  0  0  0  0  0  0
  188.3290  176.6060  146.6560 C   0  0  0  0  0  0  0  0  0  0  0  0
  188.1500  175.5250  147.2830 O   0  0  0  0  0  0  0  0  0  0  0  0
  185.8950  175.9780  143.3590 F   0  0  0  0  0  0  0  0  0  0  0  0
  187.2800  177.1180  145.7530 C   0  0  0  0  0  0  0  0  0  0  0  0
  186.0820  177.4600  146.2480 C   0  0  0  0  0  3  0  0  0  0  0  0
  186.3610  177.2820  143.4070 C   0  0  2  0  0  3  0  0  0  0  0  0
  184.0970  178.0540  143.1880 O   0  0  0  0  0  1  0  0  0  0  0  0
  185.0190  178.0140  145.3920 C   0  0  0  0  0  0  0  0  0  0  0  0
  183.9280  178.3720  145.9090 O   0  0  0  0  0  0  0  0  0  0  0  0
  187.6040  177.3550  144.2980 C   0  0  0  0  0  2  0  0  0  0  0  0
  185.2730  178.2300  143.9240 C   0  0  1  0  0  3  0  0  0  0  0  0
  1 11  1  0  0  0  0
  2 16  1  0  0  0  0
  2 34  1  0  0  0  0
  3  5  1  0  0  0  0
  4  2  1  0  0  0  0
  4  3  2  0  0  0  0
  5  6  1  0  0  0  0
  7 12  1  0  0  0  0
  8  1  1  0  0  0  0
  8 13  1  0  0  0  0
  9  3  1  0  0  0  0
  9 18  2  0  0  0  0
 10 14  1  6  0  0  0
 11 12  2  0  0  0  0
 11 15  1  0  0  0  0
 13  4  1  0  0  0  0
 13 15  2  0  0  0  0
 15 10  1  0  0  0  0
 16  6  1  0  0  0  0
 17  9  1  0  0  0  0
 18 10  1  0  0  0  0
 19  1  1  0  0  0  0
 19  7  2  0  0  0  0
 20 17  1  0  0  0  0
 21 20  1  0  0  0  0
 22 21  1  0  0  0  0
 23 24  2  0  0  0  0
 26 32  1  6  0  0  0
 26 31  1  0  0  0  0
 27 23  1  0  0  0  0
 28 25  1  0  0  0  0
 29 26  1  0  0  0  0
 29 28  1  0  0  0  0
 30 33  1  6  0  0  0
 30 31  1  0  0  0  0
 30 25  1  0  0  0  0
 30 22  1  0  0  0  0
 31 24  1  6  0  0  0
 32 23  1  0  0  0  0
 34 35  1  0  0  0  0
 35 36  2  0  0  0  0
 35 37  1  0  0  0  0
 37 38  1  0  0  0  0
 39 38  1  0  0  0  0
 40 39  1  0  0  0  0
 40 41  2  0  0  0  0
 43 44  2  0  0  0  0
 43 40  1  0  0  0  0
 45 42  1  1  0  0  0
 45 50  1  0  0  0  0
 45 49  1  0  0  0  0
 47 48  2  0  0  0  0
 47 44  1  0  0  0  0
 49 43  1  0  0  0  0
 50 46  1  6  0  0  0
 50 47  1  0  0  0  0
M  END
>  <MODEL>
6

>  <REMARK>
 VINA RESULT:      -7.4      2.450      7.124
  Name = 
  10 active torsions:
  status: ('A' for Active; 'I' for Inactive)
    1  A    between atoms: N_2  and  C_43
    2  A    between atoms: C_7  and  C_18
    3  A    between atoms: C_7  and  N_32
    4  A    between atoms: C_13  and  C_39
    5  A    between atoms: C_15  and  C_31
    6  A    between atoms: C_15  and  N_33
    7  A    between atoms: C_18  and  C_23
    8  A    between atoms: C_23  and  C_43
    9  A    between atoms: C_31  and  C_38
   10  A    between atoms: N_33  and  N_46
                            x       y       z     vdW  Elec       q    Type
                         _______ _______ _______ _____ _____    ______ ____

>  <TORSDO>
F 10

$$$$
=
 OpenBabel11042415543D

 50 56  0  0  1  0  0  0  0  0999 V2000
  191.4430  174.6670  145.2700 N   0  0  0  0  0  0  0  0  0  0  0  0
  189.7160  173.4100  141.3810 N   0  0  0  0  0  0  0  0  0  0  0  0
  188.6900  175.6100  141.5230 C   0  0  0  0  0  0  0  0  0  0  0  0
  189.5380  174.6800  142.0530 C   0  0  0  0  0  0  0  0  0  0  0  0
  187.8160  175.2460  140.3460 C   0  0  0  0  0  2  0  0  0  0  0  0
  188.4280  174.1640  139.4700 C   0  0  0  0  0  2  0  0  0  0  0  0
  193.2110  175.5770  146.1600 C   0  0  0  0  0  3  0  0  0  0  0  0
  190.6700  173.8840  144.3270 C   0  0  0  0  0  2  0  0  0  0  0  0
  188.4140  176.9480  142.1260 C   0  0  0  0  0  0  0  0  0  0  0  0
  190.7460  177.3420  142.7670 C   0  0  1  0  0  3  0  0  0  0  0  0
  191.5860  175.9020  144.8480 C   0  0  0  0  0  0  0  0  0  0  0  0
  192.6670  176.5210  145.3480 N   0  0  0  0  0  0  0  0  0  0  0  0
  190.3120  174.9400  143.2950 C   0  0  0  0  0  0  0  0  0  0  0  0
  191.5230  178.5190  143.3270 C   0  0  0  0  0  1  0  0  0  0  0  0
  190.8760  176.1110  143.6050 C   0  0  0  0  0  0  0  0  0  0  0  0
  188.7720  172.9830  140.3530 C   0  0  0  0  0  2  0  0  0  0  0  0
  187.0810  177.4620  142.0380 N   0  0  0  0  0  2  0  0  0  0  0  0
  189.3410  177.6950  142.6630 N   0  0  0  0  0  0  0  0  0  0  0  0
  192.4830  174.3900  146.0680 C   0  0  0  0  0  3  0  0  0  0  0  0
  186.7260  178.7120  142.5710 N   0  0  0  0  0  2  0  0  0  0  0  0
  185.4320  178.5660  143.2170 C   0  0  0  0  0  2  0  0  0  0  0  0
  185.4050  177.2750  144.0310 C   0  0  0  0  0  2  0  0  0  0  0  0
  188.3440  175.8610  146.9080 C   0  0  0  0  0  0  0  0  0  0  0  0
  187.7630  176.0590  145.7760 N   0  0  0  0  0  0  0  0  0  0  0  0
  185.1630  178.8550  145.9590 C   0  0  0  0  0  2  0  0  0  0  0  0
  187.6840  178.0310  147.1180 C   0  0  2  0  0  3  0  0  0  0  0  0
  188.9400  174.6160  147.2510 N   0  0  0  0  0  1  0  0  0  0  0  0
  185.9420  179.4580  147.1370 C   0  0  0  0  0  2  0  0  0  0  0  0
  186.5730  178.4470  147.8820 O   0  0  0  0  0  0  0  0  0  0  0  0
  185.7300  177.4950  145.5100 C   0  0  2  0  0  0  0  0  0  0  0  0
  187.2620  177.4290  145.7510 C   0  0  2  0  0  3  0  0  0  0  0  0
  188.3320  176.9470  147.7610 O   0  0  0  0  0  0  0  0  0  0  0  0
  185.0020  176.4150  146.3020 C   0  0  0  0  0  1  0  0  0  0  0  0
  191.0000  172.7150  141.4610 C   0  0  0  0  0  2  0  0  0  0  0  0
  191.6250  172.5780  140.1080 C   0  0  0  0  0  0  0  0  0  0  0  0
  191.6670  171.4890  139.5620 O   0  0  0  0  0  0  0  0  0  0  0  0
  192.1880  173.7840  139.4350 C   0  0  0  0  0  2  0  0  0  0  0  0
  193.6960  173.6620  139.2980 C   0  0  0  0  0  2  0  0  0  0  0  0
  194.2940  173.3990  140.5990 N   0  0  0  0  0  2  0  0  0  0  0  0
  194.8570  174.4230  141.4300 C   0  0  0  0  0  0  0  0  0  0  0  0
  194.7740  175.6340  141.0800 O   0  0  0  0  0  0  0  0  0  0  0  0
  196.4290  175.6480  145.0660 F   0  0  0  0  0  0  0  0  0  0  0  0
  195.5390  174.0650  142.6890 C   0  0  0  0  0  0  0  0  0  0  0  0
  194.9750  173.1800  143.5240 C   0  0  0  0  0  3  0  0  0  0  0  0
  197.2210  174.6800  144.4690 C   0  0  2  0  0  3  0  0  0  0  0  0
  197.1410  173.4150  146.5100 O   0  0  0  0  0  1  0  0  0  0  0  0
  195.6390  172.7610  144.7710 C   0  0  0  0  0  0  0  0  0  0  0  0
  195.0980  171.8870  145.4980 O   0  0  0  0  0  0  0  0  0  0  0  0
  196.9160  174.6150  142.9700 C   0  0  0  0  0  2  0  0  0  0  0  0
  196.9940  173.3120  145.1230 C   0  0  1  0  0  3  0  0  0  0  0  0
  1 19  1  0  0  0  0
  2 34  1  0  0  0  0
  2  4  1  0  0  0  0
  3  4  2  0  0  0  0
  3  9  1  0  0  0  0
  4 13  1  0  0  0  0
  5  3  1  0  0  0  0
  6  5  1  0  0  0  0
  6 16  1  0  0  0  0
  8  1  1  0  0  0  0
  9 18  2  0  0  0  0
 10 14  1  1  0  0  0
 10 15  1  0  0  0  0
 11  1  1  0  0  0  0
 11 12  2  0  0  0  0
 12  7  1  0  0  0  0
 13 15  2  0  0  0  0
 13  8  1  0  0  0  0
 15 11  1  0  0  0  0
 16  2  1  0  0  0  0
 17  9  1  0  0  0  0
 17 20  1  0  0  0  0
 18 10  1  0  0  0  0
 19  7  2  0  0  0  0
 20 21  1  0  0  0  0
 21 22  1  0  0  0  0
 22 30  1  0  0  0  0
 23 27  1  0  0  0  0
 23 32  1  0  0  0  0
 24 23  2  0  0  0  0
 25 28  1  0  0  0  0
 26 32  1  1  0  0  0
 26 29  1  0  0  0  0
 28 29  1  0  0  0  0
 30 31  1  0  0  0  0
 30 25  1  0  0  0  0
 30 33  1  1  0  0  0
 31 24  1  1  0  0  0
 31 26  1  0  0  0  0
 35 34  1  0  0  0  0
 36 35  2  0  0  0  0
 37 35  1  0  0  0  0
 38 37  1  0  0  0  0
 38 39  1  0  0  0  0
 39 40  1  0  0  0  0
 40 43  1  0  0  0  0
 41 40  2  0  0  0  0
 43 49  1  0  0  0  0
 43 44  2  0  0  0  0
 44 47  1  0  0  0  0
 45 42  1  1  0  0  0
 45 50  1  0  0  0  0
 47 50  1  0  0  0  0
 47 48  2  0  0  0  0
 49 45  1  0  0  0  0
 50 46  1  1  0  0  0
M  END
>  <MODEL>
7

>  <REMARK>
 VINA RESULT:      -7.3      2.263      5.844
  Name = 
  10 active torsions:
  status: ('A' for Active; 'I' for Inactive)
    1  A    between atoms: N_2  and  C_43
    2  A    between atoms: C_7  and  C_18
    3  A    between atoms: C_7  and  N_32
    4  A    between atoms: C_13  and  C_39
    5  A    between atoms: C_15  and  C_31
    6  A    between atoms: C_15  and  N_33
    7  A    between atoms: C_18  and  C_23
    8  A    between atoms: C_23  and  C_43
    9  A    between atoms: C_31  and  C_38
   10  A    between atoms: N_33  and  N_46
                            x       y       z     vdW  Elec       q    Type
                         _______ _______ _______ _____ _____    ______ ____

>  <TORSDO>
F 10

$$$$
=
 OpenBabel11042415543D

 50 56  0  0  1  0  0  0  0  0999 V2000
  191.3960  174.8630  145.3960 N   0  0  0  0  0  0  0  0  0  0  0  0
  189.7600  173.5310  141.4930 N   0  0  0  0  0  0  0  0  0  0  0  0
  188.6630  175.6980  141.6080 C   0  0  0  0  0  0  0  0  0  0  0  0
  189.5330  174.7980  142.1550 C   0  0  0  0  0  0  0  0  0  0  0  0
  187.8160  175.3000  140.4230 C   0  0  0  0  0  2  0  0  0  0  0  0
  188.4740  174.2340  139.5610 C   0  0  0  0  0  2  0  0  0  0  0  0
  193.1210  175.8340  146.3030 C   0  0  0  0  0  3  0  0  0  0  0  0
  190.6600  174.0520  144.4470 C   0  0  0  0  0  2  0  0  0  0  0  0
  188.3370  177.0300  142.2000 C   0  0  0  0  0  0  0  0  0  0  0  0
  190.6470  177.5010  142.8690 C   0  0  1  0  0  3  0  0  0  0  0  0
  191.5040  176.1000  144.9690 C   0  0  0  0  0  0  0  0  0  0  0  0
  192.5590  176.7560  145.4790 N   0  0  0  0  0  0  0  0  0  0  0  0
  190.2820  175.0890  143.4050 C   0  0  0  0  0  0  0  0  0  0  0  0
  191.3790  178.7060  143.4320 C   0  0  0  0  0  1  0  0  0  0  0  0
  190.8040  176.2790  143.7150 C   0  0  0  0  0  0  0  0  0  0  0  0
  188.8430  173.0690  140.4550 C   0  0  0  0  0  2  0  0  0  0  0  0
  186.9900  177.5010  142.0920 N   0  0  0  0  0  2  0  0  0  0  0  0
  189.2320  177.8090  142.7450 N   0  0  0  0  0  0  0  0  0  0  0  0
  192.4330  174.6230  146.2090 C   0  0  0  0  0  3  0  0  0  0  0  0
  186.5880  178.7420  142.6130 N   0  0  0  0  0  2  0  0  0  0  0  0
  185.3290  178.5420  143.3120 C   0  0  0  0  0  2  0  0  0  0  0  0
  185.3880  177.2480  144.1190 C   0  0  0  0  0  2  0  0  0  0  0  0
  188.3410  175.8550  146.9920 C   0  0  0  0  0  0  0  0  0  0  0  0
  187.7540  176.0440  145.8620 N   0  0  0  0  0  0  0  0  0  0  0  0
  185.1590  178.8450  146.0350 C   0  0  0  0  0  2  0  0  0  0  0  0
  187.6850  178.0280  147.1870 C   0  0  2  0  0  3  0  0  0  0  0  0
  188.9370  174.6120  147.3430 N   0  0  0  0  0  1  0  0  0  0  0  0
  185.9440  179.4570  147.2050 C   0  0  0  0  0  2  0  0  0  0  0  0
  186.5790  178.4510  147.9540 O   0  0  0  0  0  0  0  0  0  0  0  0
  185.7210  177.4800  145.5950 C   0  0  2  0  0  0  0  0  0  0  0  0
  187.2550  177.4140  145.8280 C   0  0  2  0  0  3  0  0  0  0  0  0
  188.3350  176.9480  147.8360 O   0  0  0  0  0  0  0  0  0  0  0  0
  184.9960  176.4080  146.4000 C   0  0  0  0  0  1  0  0  0  0  0  0
  191.0640  172.8780  141.5930 C   0  0  0  0  0  2  0  0  0  0  0  0
  190.9170  171.4270  141.9270 C   0  0  0  0  0  0  0  0  0  0  0  0
  190.0520  171.0640  142.7050 O   0  0  0  0  0  0  0  0  0  0  0  0
  191.8340  170.4330  141.2980 C   0  0  0  0  0  2  0  0  0  0  0  0
  193.2720  170.9180  141.3670 C   0  0  0  0  0  2  0  0  0  0  0  0
  193.9670  170.2570  142.4630 N   0  0  0  0  0  2  0  0  0  0  0  0
  194.0860  170.8210  143.7760 C   0  0  0  0  0  0  0  0  0  0  0  0
  193.5020  171.9070  144.0500 O   0  0  0  0  0  0  0  0  0  0  0  0
  197.1930  170.9980  146.5160 F   0  0  0  0  0  0  0  0  0  0  0  0
  194.8940  170.1390  144.8050 C   0  0  0  0  0  0  0  0  0  0  0  0
  194.3010  169.6430  145.9010 C   0  0  0  0  0  3  0  0  0  0  0  0
  197.1580  169.7760  145.8640 C   0  0  2  0  0  3  0  0  0  0  0  0
  197.1840  168.6820  148.0020 O   0  0  0  0  0  1  0  0  0  0  0  0
  195.0610  168.9180  146.9330 C   0  0  0  0  0  0  0  0  0  0  0  0
  194.4540  168.4240  147.9190 O   0  0  0  0  0  0  0  0  0  0  0  0
  196.3660  169.9070  144.5600 C   0  0  0  0  0  2  0  0  0  0  0  0
  196.5400  168.6980  146.7620 C   0  0  1  0  0  3  0  0  0  0  0  0
  1 19  1  0  0  0  0
  2 34  1  0  0  0  0
  2  4  1  0  0  0  0
  3  4  2  0  0  0  0
  3  9  1  0  0  0  0
  4 13  1  0  0  0  0
  5  3  1  0  0  0  0
  6  5  1  0  0  0  0
  6 16  1  0  0  0  0
  8  1  1  0  0  0  0
  9 18  2  0  0  0  0
 10 14  1  1  0  0  0
 10 15  1  0  0  0  0
 11  1  1  0  0  0  0
 11 12  2  0  0  0  0
 12  7  1  0  0  0  0
 13 15  2  0  0  0  0
 13  8  1  0  0  0  0
 15 11  1  0  0  0  0
 16  2  1  0  0  0  0
 17  9  1  0  0  0  0
 17 20  1  0  0  0  0
 18 10  1  0  0  0  0
 19  7  2  0  0  0  0
 20 21  1  0  0  0  0
 21 22  1  0  0  0  0
 22 30  1  0  0  0  0
 23 27  1  0  0  0  0
 23 32  1  0  0  0  0
 24 23  2  0  0  0  0
 25 28  1  0  0  0  0
 26 32  1  1  0  0  0
 26 29  1  0  0  0  0
 28 29  1  0  0  0  0
 30 31  1  0  0  0  0
 30 25  1  0  0  0  0
 30 33  1  1  0  0  0
 31 24  1  1  0  0  0
 31 26  1  0  0  0  0
 34 35  1  0  0  0  0
 35 36  2  0  0  0  0
 37 38  1  0  0  0  0
 37 35  1  0  0  0  0
 38 39  1  0  0  0  0
 39 40  1  0  0  0  0
 40 41  2  0  0  0  0
 40 43  1  0  0  0  0
 43 44  2  0  0  0  0
 44 47  1  0  0  0  0
 45 42  1  1  0  0  0
 45 50  1  0  0  0  0
 47 48  2  0  0  0  0
 49 43  1  0  0  0  0
 49 45  1  0  0  0  0
 50 47  1  0  0  0  0
 50 46  1  1  0  0  0
M  END
>  <MODEL>
8

>  <REMARK>
 VINA RESULT:      -7.3      3.202      5.929
  Name = 
  10 active torsions:
  status: ('A' for Active; 'I' for Inactive)
    1  A    between atoms: N_2  and  C_43
    2  A    between atoms: C_7  and  C_18
    3  A    between atoms: C_7  and  N_32
    4  A    between atoms: C_13  and  C_39
    5  A    between atoms: C_15  and  C_31
    6  A    between atoms: C_15  and  N_33
    7  A    between atoms: C_18  and  C_23
    8  A    between atoms: C_23  and  C_43
    9  A    between atoms: C_31  and  C_38
   10  A    between atoms: N_33  and  N_46
                            x       y       z     vdW  Elec       q    Type
                         _______ _______ _______ _____ _____    ______ ____

>  <TORSDO>
F 10

$$$$
=
 OpenBabel11042415543D

 50 56  0  0  1  0  0  0  0  0999 V2000
  191.1580  171.8150  142.9110 N   0  0  0  0  0  0  0  0  0  0  0  0
  191.5180  174.8470  146.1300 N   0  0  0  0  0  0  0  0  0  0  0  0
  193.8030  174.9430  145.3050 C   0  0  0  0  0  0  0  0  0  0  0  0
  192.5400  174.4370  145.1910 C   0  0  0  0  0  0  0  0  0  0  0  0
  194.1710  175.7830  146.5060 C   0  0  0  0  0  2  0  0  0  0  0  0
  192.9800  176.5260  147.0910 C   0  0  0  0  0  2  0  0  0  0  0  0
  190.5560  171.5690  140.8320 C   0  0  0  0  0  3  0  0  0  0  0  0
  191.1540  172.3680  144.2500 C   0  0  0  0  0  2  0  0  0  0  0  0
  194.9430  174.5900  144.4080 C   0  0  0  0  0  0  0  0  0  0  0  0
  193.5800  174.6000  142.3710 C   0  0  1  0  0  3  0  0  0  0  0  0
  191.9430  172.5100  142.1200 C   0  0  0  0  0  0  0  0  0  0  0  0
  191.6190  172.4160  140.8200 N   0  0  0  0  0  0  0  0  0  0  0  0
  192.1680  173.4900  144.1070 C   0  0  0  0  0  0  0  0  0  0  0  0
  193.8670  174.4960  140.8850 C   0  0  0  0  0  1  0  0  0  0  0  0
  192.6030  173.5730  142.8470 C   0  0  0  0  0  0  0  0  0  0  0  0
  191.8880  175.5160  147.3730 C   0  0  0  0  0  2  0  0  0  0  0  0
  196.2460  174.4770  144.9890 N   0  0  0  0  0  2  0  0  0  0  0  0
  194.8190  174.4500  143.1150 N   0  0  0  0  0  0  0  0  0  0  0  0
  190.2230  171.2370  142.1460 C   0  0  0  0  0  3  0  0  0  0  0  0
  197.3800  174.1530  144.2260 N   0  0  0  0  0  2  0  0  0  0  0  0
  197.8150  172.8230  144.6200 C   0  0  0  0  0  2  0  0  0  0  0  0
  196.9440  172.3150  145.7660 C   0  0  0  0  0  2  0  0  0  0  0  0
  195.3850  170.1910  142.3060 C   0  0  0  0  0  0  0  0  0  0  0  0
  195.9860  171.0980  142.9940 N   0  0  0  0  0  0  0  0  0  0  0  0
  196.7210  169.9520  146.5650 C   0  0  0  0  0  2  0  0  0  0  0  0
  196.4560  168.9280  143.8700 C   0  0  2  0  0  3  0  0  0  0  0  0
  194.5690  170.5010  141.1820 N   0  0  0  0  0  1  0  0  0  0  0  0
  196.7100  168.4990  146.0670 C   0  0  0  0  0  2  0  0  0  0  0  0
  195.8190  168.3520  144.9890 O   0  0  0  0  0  0  0  0  0  0  0  0
  196.3070  170.9550  145.4720 C   0  0  2  0  0  0  0  0  0  0  0  0
  196.7270  170.4450  144.0670 C   0  0  2  0  0  3  0  0  0  0  0  0
  195.5850  168.9000  142.7530 O   0  0  0  0  0  0  0  0  0  0  0  0
  194.7950  171.1300  145.5640 C   0  0  0  0  0  1  0  0  0  0  0  0
  190.1210  174.9190  145.7050 C   0  0  0  0  0  2  0  0  0  0  0  0
  189.2640  175.5300  146.7690 C   0  0  0  0  0  0  0  0  0  0  0  0
  188.6610  174.8170  147.5520 O   0  0  0  0  0  0  0  0  0  0  0  0
  189.1590  177.0150  146.8610 C   0  0  0  0  0  2  0  0  0  0  0  0
  187.7040  177.4490  146.8250 C   0  0  0  0  0  2  0  0  0  0  0  0
  187.2470  177.5430  145.4460 N   0  0  0  0  0  2  0  0  0  0  0  0
  186.1820  178.4060  145.0250 C   0  0  0  0  0  0  0  0  0  0  0  0
  185.6460  179.1950  145.8520 O   0  0  0  0  0  0  0  0  0  0  0  0
  186.3230  176.6000  141.2950 F   0  0  0  0  0  0  0  0  0  0  0  0
  185.7070  178.3690  143.6280 C   0  0  0  0  0  0  0  0  0  0  0  0
  184.4000  178.2040  143.3710 C   0  0  0  0  0  3  0  0  0  0  0  0
  186.2380  177.9790  141.1900 C   0  0  2  0  0  3  0  0  0  0  0  0
  184.3650  177.7080  139.7100 O   0  0  0  0  0  1  0  0  0  0  0  0
  183.8760  178.2020  141.9950 C   0  0  0  0  0  0  0  0  0  0  0  0
  182.6360  178.0990  141.8040 O   0  0  0  0  0  0  0  0  0  0  0  0
  186.6820  178.6270  142.5050 C   0  0  0  0  0  2  0  0  0  0  0  0
  184.8100  178.4100  140.8340 C   0  0  1  0  0  3  0  0  0  0  0  0
  1  8  1  0  0  0  0
  2 16  1  0  0  0  0
  3  5  1  0  0  0  0
  4  3  2  0  0  0  0
  4  2  1  0  0  0  0
  5  6  1  0  0  0  0
  6 16  1  0  0  0  0
  7 19  2  0  0  0  0
  9 17  1  0  0  0  0
  9  3  1  0  0  0  0
 10 14  1  6  0  0  0
 10 15  1  0  0  0  0
 10 18  1  0  0  0  0
 11 15  1  0  0  0  0
 11  1  1  0  0  0  0
 12  7  1  0  0  0  0
 12 11  2  0  0  0  0
 13  8  1  0  0  0  0
 13  4  1  0  0  0  0
 15 13  2  0  0  0  0
 18  9  2  0  0  0  0
 19  1  1  0  0  0  0
 20 21  1  0  0  0  0
 20 17  1  0  0  0  0
 21 22  1  0  0  0  0
 23 32  1  0  0  0  0
 23 24  2  0  0  0  0
 26 32  1  6  0  0  0
 26 31  1  0  0  0  0
 26 29  1  0  0  0  0
 27 23  1  0  0  0  0
 28 25  1  0  0  0  0
 29 28  1  0  0  0  0
 30 33  1  1  0  0  0
 30 22  1  0  0  0  0
 30 25  1  0  0  0  0
 31 24  1  6  0  0  0
 31 30  1  0  0  0  0
 34  2  1  0  0  0  0
 34 35  1  0  0  0  0
 35 37  1  0  0  0  0
 35 36  2  0  0  0  0
 38 37  1  0  0  0  0
 39 38  1  0  0  0  0
 40 39  1  0  0  0  0
 40 41  2  0  0  0  0
 43 40  1  0  0  0  0
 44 43  2  0  0  0  0
 45 42  1  1  0  0  0
 45 49  1  0  0  0  0
 47 44  1  0  0  0  0
 48 47  2  0  0  0  0
 49 43  1  0  0  0  0
 50 46  1  6  0  0  0
 50 45  1  0  0  0  0
 50 47  1  0  0  0  0
M  END
>  <MODEL>
9

>  <REMARK>
 VINA RESULT:      -7.2      2.646      8.247
  Name = 
  10 active torsions:
  status: ('A' for Active; 'I' for Inactive)
    1  A    between atoms: N_2  and  C_43
    2  A    between atoms: C_7  and  C_18
    3  A    between atoms: C_7  and  N_32
    4  A    between atoms: C_13  and  C_39
    5  A    between atoms: C_15  and  C_31
    6  A    between atoms: C_15  and  N_33
    7  A    between atoms: C_18  and  C_23
    8  A    between atoms: C_23  and  C_43
    9  A    between atoms: C_31  and  C_38
   10  A    between atoms: N_33  and  N_46
                            x       y       z     vdW  Elec       q    Type
                         _______ _______ _______ _____ _____    ______ ____

>  <TORSDO>
F 10

$$$$
