=
 OpenBabel11042418553D

 31 34  0  0  1  0  0  0  0  0999 V2000
  184.0780  178.2820  147.1900 O   0  0  0  0  0  0  0  0  0  0  0  0
  189.4650  177.2350  146.5010 C   0  0  0  0  0  2  0  0  0  0  0  0
  188.3710  177.1730  147.4000 O   0  0  0  0  0  0  0  0  0  0  0  0
  188.9040  177.4540  145.1570 C   0  0  0  0  0  0  0  0  0  0  0  0
  189.6600  177.6760  143.8810 C   0  0  2  0  0  3  0  0  0  0  0  0
  186.4290  178.6000  147.1450 C   0  0  1  0  0  3  0  0  0  0  0  0
  187.6150  177.5550  145.2320 C   0  0  0  0  0  0  0  0  0  0  0  0
  187.3850  178.0250  142.8670 C   0  0  0  0  0  0  0  0  0  0  0  0
  187.1900  177.3710  146.6410 C   0  0  1  0  0  3  0  0  0  0  0  0
  185.0490  178.6480  146.5460 C   0  0  0  0  0  0  0  0  0  0  0  0
  184.8730  179.0580  145.1210 C   0  0  0  0  0  2  0  0  0  0  0  0
  185.2820  177.9240  144.1930 C   0  0  0  0  0  2  0  0  0  0  0  0
  186.3550  178.5890  148.5420 O   0  0  0  0  0  1  0  0  0  0  0  0
  186.7760  177.8460  144.0550 C   0  0  0  0  0  0  0  0  0  0  0  0
  188.7860  177.9310  142.7630 O   0  0  0  0  0  0  0  0  0  0  0  0
  190.6120  176.5870  143.6130 N   0  0  0  0  0  0  0  0  0  0  0  0
  191.7410  177.2260  142.9470 C   0  0  0  0  0  1  0  0  0  0  0  0
  189.7410  173.8850  144.6180 C   0  0  0  0  0  2  0  0  0  0  0  0
  189.0850  174.5930  143.4340 C   0  0  0  0  0  2  0  0  0  0  0  0
  191.1500  174.7660  141.9700 C   0  0  0  0  0  2  0  0  0  0  0  0
  190.4350  172.5790  144.2260 C   0  0  0  0  0  2  0  0  0  0  0  0
  191.9710  173.9860  142.8890 N   0  0  0  0  0  2  0  0  0  0  0  0
  190.0550  175.5490  142.7150 C   0  0  2  0  0  3  0  0  0  0  0  0
  191.3420  172.6760  142.9960 C   0  0  0  0  0  2  0  0  0  0  0  0
  186.5990  178.2850  141.6240 C   0  0  0  0  0  2  0  0  0  0  0  0
  187.1580  177.5080  140.5290 N   0  0  0  0  0  2  0  0  0  0  0  0
  186.3890  177.1480  139.3820 C   0  0  0  0  0  0  0  0  0  0  0  0
  187.0170  176.4310  138.3180 N   0  0  0  0  0  2  0  0  0  0  0  0
  185.1660  177.4480  139.3150 O   0  0  0  0  0  0  0  0  0  0  0  0
  186.2890  175.9590  137.1490 C   0  0  0  0  0  2  0  0  0  0  0  0
  187.0330  176.3490  135.8870 C   0  0  0  0  0  1  0  0  0  0  0  0
  2  3  1  0  0  0  0
  4  7  2  0  0  0  0
  4  2  1  0  0  0  0
  5 16  1  6  0  0  0
  5  4  1  0  0  0  0
  6 13  1  1  0  0  0
  8 14  2  0  0  0  0
  9  7  1  6  0  0  0
  9  6  1  0  0  0  0
  9  3  1  0  0  0  0
 10  6  1  0  0  0  0
 10  1  2  0  0  0  0
 11 10  1  0  0  0  0
 12 11  1  0  0  0  0
 14 12  1  0  0  0  0
 14  7  1  0  0  0  0
 15  8  1  0  0  0  0
 15  5  1  0  0  0  0
 17 16  1  0  0  0  0
 19 18  1  0  0  0  0
 20 23  1  0  0  0  0
 20 22  1  0  0  0  0
 21 18  1  0  0  0  0
 22 24  1  0  0  0  0
 23 19  1  0  0  0  0
 23 16  1  1  0  0  0
 24 21  1  0  0  0  0
 25  8  1  0  0  0  0
 26 25  1  0  0  0  0
 27 26  1  0  0  0  0
 28 27  1  0  0  0  0
 29 27  2  0  0  0  0
 30 28  1  0  0  0  0
 31 30  1  0  0  0  0
M  END
>  <MODEL>
1

>  <REMARK>
 VINA RESULT:      -7.4      0.000      0.000
  Name = 
  5 active torsions:
  status: ('A' for Active; 'I' for Inactive)
    1  A    between atoms: C_1  and  N_19
    2  A    between atoms: N_2  and  C_7
    3  A    between atoms: C_7  and  C_18
    4  A    between atoms: C_14  and  N_22
    5  A    between atoms: N_22  and  C_24
                            x       y       z     vdW  Elec       q    Type
                         _______ _______ _______ _____ _____    ______ ____

>  <TORSDO>
F 5

$$$$
=
 OpenBabel11042418553D

 31 34  0  0  1  0  0  0  0  0999 V2000
  185.1930  179.1770  146.0650 O   0  0  0  0  0  0  0  0  0  0  0  0
  187.2870  176.4300  141.7460 C   0  0  0  0  0  2  0  0  0  0  0  0
  186.5280  177.5540  142.1550 O   0  0  0  0  0  0  0  0  0  0  0  0
  187.9740  175.9160  142.9430 C   0  0  0  0  0  0  0  0  0  0  0  0
  188.8270  174.6870  143.0460 C   0  0  2  0  0  3  0  0  0  0  0  0
  185.3860  177.6120  144.2920 C   0  0  1  0  0  3  0  0  0  0  0  0
  187.6400  176.6230  143.9760 C   0  0  0  0  0  0  0  0  0  0  0  0
  188.9130  175.2360  145.4990 C   0  0  0  0  0  0  0  0  0  0  0  0
  186.7220  177.7090  143.5510 C   0  0  1  0  0  3  0  0  0  0  0  0
  185.5420  178.0580  145.7200 C   0  0  0  0  0  0  0  0  0  0  0  0
  186.2140  177.1620  146.7090 C   0  0  0  0  0  2  0  0  0  0  0  0
  187.7200  177.1780  146.4950 C   0  0  0  0  0  2  0  0  0  0  0  0
  184.4130  178.3810  143.6440 O   0  0  0  0  0  1  0  0  0  0  0  0
  188.1150  176.3080  145.3360 C   0  0  0  0  0  0  0  0  0  0  0  0
  189.2810  174.4450  144.3930 O   0  0  0  0  0  0  0  0  0  0  0  0
  189.9330  174.7060  142.0760 N   0  0  0  0  0  0  0  0  0  0  0  0
  189.4490  173.9370  140.9350 C   0  0  0  0  0  1  0  0  0  0  0  0
  192.4650  176.2520  142.5930 C   0  0  0  0  0  2  0  0  0  0  0  0
  192.0450  175.0300  143.4080 C   0  0  0  0  0  2  0  0  0  0  0  0
  191.9750  173.3670  141.4920 C   0  0  0  0  0  2  0  0  0  0  0  0
  193.7590  176.0320  141.8060 C   0  0  0  0  0  2  0  0  0  0  0  0
  192.5010  174.3260  140.5280 N   0  0  0  0  0  2  0  0  0  0  0  0
  191.1610  174.0630  142.5970 C   0  0  2  0  0  3  0  0  0  0  0  0
  193.8150  174.7220  141.0130 C   0  0  0  0  0  2  0  0  0  0  0  0
  189.4640  174.8760  146.8400 C   0  0  0  0  0  2  0  0  0  0  0  0
  190.9130  174.7830  146.7560 N   0  0  0  0  0  2  0  0  0  0  0  0
  191.7550  175.9300  146.8520 C   0  0  0  0  0  0  0  0  0  0  0  0
  193.1730  175.7600  146.8180 N   0  0  0  0  0  2  0  0  0  0  0  0
  191.2530  177.0830  146.9520 O   0  0  0  0  0  0  0  0  0  0  0  0
  194.1020  176.8810  146.8330 C   0  0  0  0  0  2  0  0  0  0  0  0
  194.7210  177.0550  145.4600 C   0  0  0  0  0  1  0  0  0  0  0  0
  2  3  1  0  0  0  0
  2  4  1  0  0  0  0
  4  5  1  0  0  0  0
  4  7  2  0  0  0  0
  5 16  1  6  0  0  0
  5 15  1  0  0  0  0
  6 13  1  6  0  0  0
  6 10  1  0  0  0  0
  7 14  1  0  0  0  0
  8 25  1  0  0  0  0
  9  3  1  6  0  0  0
  9  7  1  0  0  0  0
  9  6  1  0  0  0  0
 10  1  2  0  0  0  0
 10 11  1  0  0  0  0
 12 11  1  0  0  0  0
 14  8  2  0  0  0  0
 14 12  1  0  0  0  0
 15  8  1  0  0  0  0
 17 16  1  0  0  0  0
 18 19  1  0  0  0  0
 20 23  1  0  0  0  0
 21 18  1  0  0  0  0
 22 24  1  0  0  0  0
 22 20  1  0  0  0  0
 23 16  1  6  0  0  0
 23 19  1  0  0  0  0
 24 21  1  0  0  0  0
 26 25  1  0  0  0  0
 26 27  1  0  0  0  0
 27 29  2  0  0  0  0
 28 30  1  0  0  0  0
 28 27  1  0  0  0  0
 31 30  1  0  0  0  0
M  END
>  <MODEL>
2

>  <REMARK>
 VINA RESULT:      -6.9      2.495      5.692
  Name = 
  5 active torsions:
  status: ('A' for Active; 'I' for Inactive)
    1  A    between atoms: C_1  and  N_19
    2  A    between atoms: N_2  and  C_7
    3  A    between atoms: C_7  and  C_18
    4  A    between atoms: C_14  and  N_22
    5  A    between atoms: N_22  and  C_24
                            x       y       z     vdW  Elec       q    Type
                         _______ _______ _______ _____ _____    ______ ____

>  <TORSDO>
F 5

$$$$
=
 OpenBabel11042418553D

 31 34  0  0  1  0  0  0  0  0999 V2000
  184.0600  177.8500  146.6190 O   0  0  0  0  0  0  0  0  0  0  0  0
  189.5830  177.5940  146.4830 C   0  0  0  0  0  2  0  0  0  0  0  0
  188.4340  177.5270  147.3090 O   0  0  0  0  0  0  0  0  0  0  0  0
  189.1230  177.4550  145.0920 C   0  0  0  0  0  0  0  0  0  0  0  0
  189.9500  177.5500  143.8440 C   0  0  2  0  0  3  0  0  0  0  0  0
  186.3310  178.5380  146.6510 C   0  0  1  0  0  3  0  0  0  0  0  0
  187.8310  177.3550  145.0660 C   0  0  0  0  0  0  0  0  0  0  0  0
  187.7510  177.3170  142.6450 C   0  0  0  0  0  0  0  0  0  0  0  0
  187.3110  177.3770  146.4550 C   0  0  1  0  0  3  0  0  0  0  0  0
  185.0210  178.2410  145.9730 C   0  0  0  0  0  0  0  0  0  0  0  0
  184.9170  178.3350  144.4860 C   0  0  0  0  0  2  0  0  0  0  0  0
  185.5750  177.1280  143.8350 C   0  0  0  0  0  2  0  0  0  0  0  0
  186.1310  178.7830  148.0140 O   0  0  0  0  0  1  0  0  0  0  0  0
  187.0700  177.2720  143.8060 C   0  0  0  0  0  0  0  0  0  0  0  0
  189.1540  177.4370  142.6470 O   0  0  0  0  0  0  0  0  0  0  0  0
  191.0750  176.6020  143.8620 N   0  0  0  0  0  0  0  0  0  0  0  0
  192.2180  177.3600  143.3660 C   0  0  0  0  0  1  0  0  0  0  0  0
  190.7790  173.8000  144.9240 C   0  0  0  0  0  2  0  0  0  0  0  0
  190.0780  174.2980  143.6610 C   0  0  0  0  0  2  0  0  0  0  0  0
  192.1630  174.9160  142.3520 C   0  0  0  0  0  2  0  0  0  0  0  0
  191.7900  172.6850  144.6460 C   0  0  0  0  0  2  0  0  0  0  0  0
  193.0610  174.3790  143.3660 N   0  0  0  0  0  2  0  0  0  0  0  0
  190.8550  175.4380  142.9740 C   0  0  2  0  0  3  0  0  0  0  0  0
  192.7500  172.9610  143.4860 C   0  0  0  0  0  2  0  0  0  0  0  0
  187.0530  177.2010  141.3310 C   0  0  0  0  0  2  0  0  0  0  0  0
  187.8090  176.3140  140.4610 N   0  0  0  0  0  2  0  0  0  0  0  0
  187.9000  174.9100  140.6990 C   0  0  0  0  0  0  0  0  0  0  0  0
  188.6130  174.0900  139.7720 N   0  0  0  0  0  2  0  0  0  0  0  0
  187.3670  174.4030  141.7230 O   0  0  0  0  0  0  0  0  0  0  0  0
  188.8180  172.6630  139.9790 C   0  0  0  0  0  2  0  0  0  0  0  0
  190.2410  172.4090  140.4380 C   0  0  0  0  0  1  0  0  0  0  0  0
  2  3  1  0  0  0  0
  4  2  1  0  0  0  0
  5 16  1  1  0  0  0
  5  4  1  0  0  0  0
  6 13  1  1  0  0  0
  7  4  2  0  0  0  0
  8 15  1  0  0  0  0
  8 14  2  0  0  0  0
  9  7  1  6  0  0  0
  9  6  1  0  0  0  0
  9  3  1  0  0  0  0
 10  1  2  0  0  0  0
 10  6  1  0  0  0  0
 11 10  1  0  0  0  0
 12 11  1  0  0  0  0
 14 12  1  0  0  0  0
 14  7  1  0  0  0  0
 15  5  1  0  0  0  0
 17 16  1  0  0  0  0
 19 18  1  0  0  0  0
 20 23  1  0  0  0  0
 20 22  1  0  0  0  0
 21 18  1  0  0  0  0
 22 24  1  0  0  0  0
 23 19  1  0  0  0  0
 23 16  1  1  0  0  0
 24 21  1  0  0  0  0
 25  8  1  0  0  0  0
 26 27  1  0  0  0  0
 26 25  1  0  0  0  0
 27 29  2  0  0  0  0
 28 30  1  0  0  0  0
 28 27  1  0  0  0  0
 30 31  1  0  0  0  0
M  END
>  <MODEL>
3

>  <REMARK>
 VINA RESULT:      -6.9      1.712      2.052
  Name = 
  5 active torsions:
  status: ('A' for Active; 'I' for Inactive)
    1  A    between atoms: C_1  and  N_19
    2  A    between atoms: N_2  and  C_7
    3  A    between atoms: C_7  and  C_18
    4  A    between atoms: C_14  and  N_22
    5  A    between atoms: N_22  and  C_24
                            x       y       z     vdW  Elec       q    Type
                         _______ _______ _______ _____ _____    ______ ____

>  <TORSDO>
F 5

$$$$
=
 OpenBabel11042418553D

 31 34  0  0  1  0  0  0  0  0999 V2000
  183.7560  178.4680  145.8110 O   0  0  0  0  0  0  0  0  0  0  0  0
  189.0670  177.3820  146.9070 C   0  0  0  0  0  2  0  0  0  0  0  0
  187.8050  177.7070  147.4640 O   0  0  0  0  0  0  0  0  0  0  0  0
  188.8260  176.9460  145.5220 C   0  0  0  0  0  0  0  0  0  0  0  0
  189.8530  176.5820  144.4900 C   0  0  2  0  0  3  0  0  0  0  0  0
  186.0790  178.8000  146.1600 C   0  0  1  0  0  3  0  0  0  0  0  0
  187.5630  177.0320  145.2490 C   0  0  0  0  0  0  0  0  0  0  0  0
  187.8820  176.3600  142.9430 C   0  0  0  0  0  0  0  0  0  0  0  0
  186.8320  177.5000  146.4520 C   0  0  1  0  0  3  0  0  0  0  0  0
  184.8680  178.5280  145.3090 C   0  0  0  0  0  0  0  0  0  0  0  0
  185.0340  178.2360  143.8540 C   0  0  0  0  0  2  0  0  0  0  0  0
  185.5430  176.8150  143.6580 C   0  0  0  0  0  2  0  0  0  0  0  0
  185.7070  179.4270  147.3540 O   0  0  0  0  0  1  0  0  0  0  0  0
  187.0210  176.7270  143.9120 C   0  0  0  0  0  0  0  0  0  0  0  0
  189.2610  176.2700  143.2130 O   0  0  0  0  0  0  0  0  0  0  0  0
  190.7520  175.5190  144.9660 N   0  0  0  0  0  0  0  0  0  0  0  0
  189.9150  174.6540  145.7880 C   0  0  0  0  0  1  0  0  0  0  0  0
  193.4290  176.2630  143.8030 C   0  0  0  0  0  2  0  0  0  0  0  0
  192.8170  176.9610  145.0170 C   0  0  0  0  0  2  0  0  0  0  0  0
  192.6370  174.9180  146.5120 C   0  0  0  0  0  2  0  0  0  0  0  0
  194.7240  175.5180  144.1310 C   0  0  0  0  0  2  0  0  0  0  0  0
  193.3290  174.0570  145.5610 N   0  0  0  0  0  2  0  0  0  0  0  0
  191.8610  176.0400  145.7990 C   0  0  2  0  0  3  0  0  0  0  0  0
  194.6570  174.6270  145.3750 C   0  0  0  0  0  2  0  0  0  0  0  0
  187.4040  176.0000  141.5760 C   0  0  0  0  0  2  0  0  0  0  0  0
  188.4720  175.3280  140.8530 N   0  0  0  0  0  2  0  0  0  0  0  0
  188.6030  173.9070  140.8380 C   0  0  0  0  0  0  0  0  0  0  0  0
  189.6430  173.3100  140.0610 N   0  0  0  0  0  2  0  0  0  0  0  0
  187.8170  173.1880  141.5120 O   0  0  0  0  0  0  0  0  0  0  0  0
  189.8940  171.8760  140.0500 C   0  0  0  0  0  2  0  0  0  0  0  0
  190.9010  171.5210  141.1270 C   0  0  0  0  0  1  0  0  0  0  0  0
  2  3  1  0  0  0  0
  4  2  1  0  0  0  0
  5 16  1  1  0  0  0
  5  4  1  0  0  0  0
  6  9  1  0  0  0  0
  6 13  1  1  0  0  0
  7  4  2  0  0  0  0
  8 15  1  0  0  0  0
  8 14  2  0  0  0  0
  9  7  1  6  0  0  0
  9  3  1  0  0  0  0
 10  1  2  0  0  0  0
 10  6  1  0  0  0  0
 11 10  1  0  0  0  0
 12 11  1  0  0  0  0
 12 14  1  0  0  0  0
 14  7  1  0  0  0  0
 15  5  1  0  0  0  0
 16 17  1  0  0  0  0
 18 21  1  0  0  0  0
 18 19  1  0  0  0  0
 19 23  1  0  0  0  0
 21 24  1  0  0  0  0
 22 20  1  0  0  0  0
 23 16  1  6  0  0  0
 23 20  1  0  0  0  0
 24 22  1  0  0  0  0
 25  8  1  0  0  0  0
 26 25  1  0  0  0  0
 27 26  1  0  0  0  0
 27 29  2  0  0  0  0
 28 27  1  0  0  0  0
 30 28  1  0  0  0  0
 30 31  1  0  0  0  0
M  END
>  <MODEL>
4

>  <REMARK>
 VINA RESULT:      -6.8      2.399      3.412
  Name = 
  5 active torsions:
  status: ('A' for Active; 'I' for Inactive)
    1  A    between atoms: C_1  and  N_19
    2  A    between atoms: N_2  and  C_7
    3  A    between atoms: C_7  and  C_18
    4  A    between atoms: C_14  and  N_22
    5  A    between atoms: N_22  and  C_24
                            x       y       z     vdW  Elec       q    Type
                         _______ _______ _______ _____ _____    ______ ____

>  <TORSDO>
F 5

$$$$
=
 OpenBabel11042418553D

 31 34  0  0  1  0  0  0  0  0999 V2000
  196.0680  174.5870  146.1640 O   0  0  0  0  0  0  0  0  0  0  0  0
  192.7360  176.0000  141.9820 C   0  0  0  0  0  2  0  0  0  0  0  0
  193.9180  175.3100  142.3480 O   0  0  0  0  0  0  0  0  0  0  0  0
  191.9820  176.2490  143.2220 C   0  0  0  0  0  0  0  0  0  0  0  0
  190.7070  177.0240  143.3730 C   0  0  2  0  0  3  0  0  0  0  0  0
  195.1250  175.8390  144.3820 C   0  0  1  0  0  3  0  0  0  0  0  0
  192.6480  175.7980  144.2380 C   0  0  0  0  0  0  0  0  0  0  0  0
  191.0230  176.6200  145.8350 C   0  0  0  0  0  0  0  0  0  0  0  0
  193.9010  175.1630  143.7590 C   0  0  1  0  0  3  0  0  0  0  0  0
  195.2660  175.4450  145.8270 C   0  0  0  0  0  0  0  0  0  0  0  0
  194.3530  176.0380  146.8500 C   0  0  0  0  0  2  0  0  0  0  0  0
  192.9780  175.3930  146.7650 C   0  0  0  0  0  2  0  0  0  0  0  0
  196.2820  175.5040  143.6700 O   0  0  0  0  0  1  0  0  0  0  0  0
  192.1800  175.9620  145.6260 C   0  0  0  0  0  0  0  0  0  0  0  0
  190.2870  177.1290  144.7480 O   0  0  0  0  0  0  0  0  0  0  0  0
  189.6440  176.5020  142.5000 N   0  0  0  0  0  0  0  0  0  0  0  0
  188.9390  177.6820  142.0120 C   0  0  0  0  0  1  0  0  0  0  0  0
  189.9890  173.5160  142.6960 C   0  0  0  0  0  2  0  0  0  0  0  0
  189.3310  174.3600  143.7870 C   0  0  0  0  0  2  0  0  0  0  0  0
  187.4420  175.3010  142.3780 C   0  0  0  0  0  2  0  0  0  0  0  0
  189.0280  172.5150  142.0510 C   0  0  0  0  0  2  0  0  0  0  0  0
  187.7880  174.4890  141.2180 N   0  0  0  0  0  2  0  0  0  0  0  0
  188.6830  175.6390  143.2240 C   0  0  2  0  0  3  0  0  0  0  0  0
  187.6740  173.0990  141.6360 C   0  0  0  0  0  2  0  0  0  0  0  0
  190.4660  176.7930  147.2090 C   0  0  0  0  0  2  0  0  0  0  0  0
  189.2280  177.5510  147.1360 N   0  0  0  0  0  2  0  0  0  0  0  0
  187.9560  176.9190  147.0050 C   0  0  0  0  0  0  0  0  0  0  0  0
  186.7740  177.7240  146.9950 N   0  0  0  0  0  2  0  0  0  0  0  0
  187.8760  175.6660  146.8880 O   0  0  0  0  0  0  0  0  0  0  0  0
  185.4450  177.1670  146.7900 C   0  0  0  0  0  2  0  0  0  0  0  0
  184.4650  178.2790  146.4700 C   0  0  0  0  0  1  0  0  0  0  0  0
  2  3  1  0  0  0  0
  2  4  1  0  0  0  0
  4  5  1  0  0  0  0
  4  7  2  0  0  0  0
  5 16  1  6  0  0  0
  5 15  1  0  0  0  0
  6 13  1  6  0  0  0
  6 10  1  0  0  0  0
  7 14  1  0  0  0  0
  8 25  1  0  0  0  0
  9  3  1  6  0  0  0
  9  7  1  0  0  0  0
  9  6  1  0  0  0  0
 10  1  2  0  0  0  0
 10 11  1  0  0  0  0
 12 11  1  0  0  0  0
 14  8  2  0  0  0  0
 14 12  1  0  0  0  0
 15  8  1  0  0  0  0
 17 16  1  0  0  0  0
 18 19  1  0  0  0  0
 20 23  1  0  0  0  0
 21 18  1  0  0  0  0
 22 24  1  0  0  0  0
 22 20  1  0  0  0  0
 23 16  1  6  0  0  0
 23 19  1  0  0  0  0
 24 21  1  0  0  0  0
 26 25  1  0  0  0  0
 27 26  1  0  0  0  0
 28 27  1  0  0  0  0
 29 27  2  0  0  0  0
 30 28  1  0  0  0  0
 31 30  1  0  0  0  0
M  END
>  <MODEL>
5

>  <REMARK>
 VINA RESULT:      -6.8      3.454      7.018
  Name = 
  5 active torsions:
  status: ('A' for Active; 'I' for Inactive)
    1  A    between atoms: C_1  and  N_19
    2  A    between atoms: N_2  and  C_7
    3  A    between atoms: C_7  and  C_18
    4  A    between atoms: C_14  and  N_22
    5  A    between atoms: N_22  and  C_24
                            x       y       z     vdW  Elec       q    Type
                         _______ _______ _______ _____ _____    ______ ____

>  <TORSDO>
F 5

$$$$
=
 OpenBabel11042418553D

 31 34  0  0  1  0  0  0  0  0999 V2000
  188.1320  172.2910  139.3880 O   0  0  0  0  0  0  0  0  0  0  0  0
  187.7560  177.1980  141.9110 C   0  0  0  0  0  2  0  0  0  0  0  0
  187.2690  176.3910  140.8520 O   0  0  0  0  0  0  0  0  0  0  0  0
  188.4820  176.3070  142.8310 C   0  0  0  0  0  0  0  0  0  0  0  0
  189.2530  176.6970  144.0570 C   0  0  2  0  0  3  0  0  0  0  0  0
  188.5660  174.5550  139.9470 C   0  0  1  0  0  3  0  0  0  0  0  0
  188.4740  175.0980  142.3670 C   0  0  0  0  0  0  0  0  0  0  0  0
  189.8680  174.2610  144.1620 C   0  0  0  0  0  0  0  0  0  0  0  0
  187.6990  175.0630  141.1030 C   0  0  1  0  0  3  0  0  0  0  0  0
  188.7840  173.0710  140.0650 C   0  0  0  0  0  0  0  0  0  0  0  0
  189.7380  172.5390  141.0830 C   0  0  0  0  0  2  0  0  0  0  0  0
  189.1150  172.6000  142.4700 C   0  0  0  0  0  2  0  0  0  0  0  0
  187.9730  174.8660  138.7190 O   0  0  0  0  0  1  0  0  0  0  0  0
  189.1810  173.9900  143.0360 C   0  0  0  0  0  0  0  0  0  0  0  0
  189.9010  175.5700  144.6800 O   0  0  0  0  0  0  0  0  0  0  0  0
  188.4260  177.4630  145.0030 N   0  0  0  0  0  0  0  0  0  0  0  0
  189.3400  177.8650  146.0660 C   0  0  0  0  0  1  0  0  0  0  0  0
  185.5270  178.2400  144.7550 C   0  0  0  0  0  2  0  0  0  0  0  0
  186.0060  176.7910  144.8280 C   0  0  0  0  0  2  0  0  0  0  0  0
  187.1410  176.9340  147.0930 C   0  0  0  0  0  2  0  0  0  0  0  0
  184.6610  178.6450  145.9500 C   0  0  0  0  0  2  0  0  0  0  0  0
  186.6870  178.2990  147.3290 N   0  0  0  0  0  2  0  0  0  0  0  0
  187.3360  176.6530  145.5930 C   0  0  2  0  0  3  0  0  0  0  0  0
  185.2310  178.2610  147.3190 C   0  0  0  0  0  2  0  0  0  0  0  0
  190.5780  173.1850  144.9160 C   0  0  0  0  0  2  0  0  0  0  0  0
  191.9950  173.2240  144.5930 N   0  0  0  0  0  2  0  0  0  0  0  0
  192.9370  173.9390  145.3920 C   0  0  0  0  0  0  0  0  0  0  0  0
  194.3230  173.8890  145.0480 N   0  0  0  0  0  2  0  0  0  0  0  0
  192.5490  174.6160  146.3820 O   0  0  0  0  0  0  0  0  0  0  0  0
  195.3390  174.6490  145.7620 C   0  0  0  0  0  2  0  0  0  0  0  0
  196.5260  173.7580  146.0720 C   0  0  0  0  0  1  0  0  0  0  0  0
  1 10  2  0  0  0  0
  2  4  1  0  0  0  0
  3  2  1  0  0  0  0
  4  5  1  0  0  0  0
  5 15  1  0  0  0  0
  5 16  1  1  0  0  0
  6 13  1  6  0  0  0
  6 10  1  0  0  0  0
  6  9  1  0  0  0  0
  7  4  2  0  0  0  0
  7 14  1  0  0  0  0
  8 15  1  0  0  0  0
  8 25  1  0  0  0  0
  9  3  1  6  0  0  0
  9  7  1  0  0  0  0
 10 11  1  0  0  0  0
 11 12  1  0  0  0  0
 12 14  1  0  0  0  0
 14  8  2  0  0  0  0
 16 17  1  0  0  0  0
 18 19  1  0  0  0  0
 18 21  1  0  0  0  0
 19 23  1  0  0  0  0
 20 22  1  0  0  0  0
 21 24  1  0  0  0  0
 23 16  1  6  0  0  0
 23 20  1  0  0  0  0
 24 22  1  0  0  0  0
 26 25  1  0  0  0  0
 26 27  1  0  0  0  0
 27 29  2  0  0  0  0
 28 27  1  0  0  0  0
 28 30  1  0  0  0  0
 30 31  1  0  0  0  0
M  END
>  <MODEL>
6

>  <REMARK>
 VINA RESULT:      -6.8      2.998      7.704
  Name = 
  5 active torsions:
  status: ('A' for Active; 'I' for Inactive)
    1  A    between atoms: C_1  and  N_19
    2  A    between atoms: N_2  and  C_7
    3  A    between atoms: C_7  and  C_18
    4  A    between atoms: C_14  and  N_22
    5  A    between atoms: N_22  and  C_24
                            x       y       z     vdW  Elec       q    Type
                         _______ _______ _______ _____ _____    ______ ____

>  <TORSDO>
F 5

$$$$
=
 OpenBabel11042418553D

 31 34  0  0  1  0  0  0  0  0999 V2000
  195.6950  173.3020  144.2100 O   0  0  0  0  0  0  0  0  0  0  0  0
  191.8290  176.7480  146.1510 C   0  0  0  0  0  2  0  0  0  0  0  0
  193.1950  176.6070  145.8000 O   0  0  0  0  0  0  0  0  0  0  0  0
  191.1140  175.6030  145.5630 C   0  0  0  0  0  0  0  0  0  0  0  0
  189.6650  175.2540  145.7250 C   0  0  2  0  0  3  0  0  0  0  0  0
  194.2780  174.4400  145.7350 C   0  0  1  0  0  3  0  0  0  0  0  0
  191.9550  174.8280  144.9540 C   0  0  0  0  0  0  0  0  0  0  0  0
  190.2510  173.1980  144.4000 C   0  0  0  0  0  0  0  0  0  0  0  0
  193.3150  175.4120  145.0460 C   0  0  1  0  0  3  0  0  0  0  0  0
  194.6320  173.3060  144.8120 C   0  0  0  0  0  0  0  0  0  0  0  0
  193.6390  172.2210  144.5540 C   0  0  0  0  0  2  0  0  0  0  0  0
  192.5570  172.7130  143.6040 C   0  0  0  0  0  2  0  0  0  0  0  0
  195.4340  175.1110  146.1500 O   0  0  0  0  0  1  0  0  0  0  0  0
  191.5460  173.5600  144.3220 C   0  0  0  0  0  0  0  0  0  0  0  0
  189.3200  174.0190  145.0660 O   0  0  0  0  0  0  0  0  0  0  0  0
  188.7870  176.3660  145.3280 N   0  0  0  0  0  0  0  0  0  0  0  0
  187.9750  176.6480  146.5060 C   0  0  0  0  0  1  0  0  0  0  0  0
  189.2690  177.3280  142.5150 C   0  0  0  0  0  2  0  0  0  0  0  0
  188.6120  175.9880  142.8440 C   0  0  0  0  0  2  0  0  0  0  0  0
  186.6370  176.9050  144.1480 C   0  0  0  0  0  2  0  0  0  0  0  0
  188.3310  178.2910  141.7840 C   0  0  0  0  0  2  0  0  0  0  0  0
  186.9800  178.2910  143.8570 N   0  0  0  0  0  2  0  0  0  0  0  0
  187.8890  176.0110  144.2040 C   0  0  2  0  0  3  0  0  0  0  0  0
  186.9400  178.4330  142.4080 C   0  0  0  0  0  2  0  0  0  0  0  0
  189.7540  171.9470  143.7530 C   0  0  0  0  0  2  0  0  0  0  0  0
  188.8130  172.2900  142.6990 N   0  0  0  0  0  2  0  0  0  0  0  0
  189.1910  172.3310  141.3240 C   0  0  0  0  0  0  0  0  0  0  0  0
  188.2010  172.6220  140.3360 N   0  0  0  0  0  2  0  0  0  0  0  0
  190.3890  172.1260  140.9870 O   0  0  0  0  0  0  0  0  0  0  0  0
  188.5170  172.7580  138.9220 C   0  0  0  0  0  2  0  0  0  0  0  0
  188.1910  174.1630  138.4540 C   0  0  0  0  0  1  0  0  0  0  0  0
  1 10  2  0  0  0  0
  3  2  1  0  0  0  0
  4  5  1  0  0  0  0
  4  2  1  0  0  0  0
  5 16  1  6  0  0  0
  6 13  1  6  0  0  0
  7  4  2  0  0  0  0
  8 15  1  0  0  0  0
  9  7  1  1  0  0  0
  9  6  1  0  0  0  0
  9  3  1  0  0  0  0
 10  6  1  0  0  0  0
 11 10  1  0  0  0  0
 12 14  1  0  0  0  0
 12 11  1  0  0  0  0
 14  8  2  0  0  0  0
 14  7  1  0  0  0  0
 15  5  1  0  0  0  0
 16 17  1  0  0  0  0
 18 19  1  0  0  0  0
 19 23  1  0  0  0  0
 20 23  1  0  0  0  0
 21 24  1  0  0  0  0
 21 18  1  0  0  0  0
 22 20  1  0  0  0  0
 23 16  1  1  0  0  0
 24 22  1  0  0  0  0
 25  8  1  0  0  0  0
 26 25  1  0  0  0  0
 27 26  1  0  0  0  0
 28 27  1  0  0  0  0
 29 27  2  0  0  0  0
 30 28  1  0  0  0  0
 31 30  1  0  0  0  0
M  END
>  <MODEL>
7

>  <REMARK>
 VINA RESULT:      -6.4      3.524      6.616
  Name = 
  5 active torsions:
  status: ('A' for Active; 'I' for Inactive)
    1  A    between atoms: C_1  and  N_19
    2  A    between atoms: N_2  and  C_7
    3  A    between atoms: C_7  and  C_18
    4  A    between atoms: C_14  and  N_22
    5  A    between atoms: N_22  and  C_24
                            x       y       z     vdW  Elec       q    Type
                         _______ _______ _______ _____ _____    ______ ____

>  <TORSDO>
F 5

$$$$
=
 OpenBabel11042418553D

 31 34  0  0  1  0  0  0  0  0999 V2000
  187.8060  175.2960  139.6690 O   0  0  0  0  0  0  0  0  0  0  0  0
  191.9740  172.6110  142.1200 C   0  0  0  0  0  2  0  0  0  0  0  0
  191.2410  172.7770  140.9190 O   0  0  0  0  0  0  0  0  0  0  0  0
  191.6440  173.7540  142.9870 C   0  0  0  0  0  0  0  0  0  0  0  0
  192.0970  173.9890  144.3970 C   0  0  2  0  0  3  0  0  0  0  0  0
  188.9810  173.6530  140.9150 C   0  0  1  0  0  3  0  0  0  0  0  0
  190.7750  174.5140  142.3970 C   0  0  0  0  0  0  0  0  0  0  0  0
  190.5860  175.9970  144.3030 C   0  0  0  0  0  0  0  0  0  0  0  0
  190.4740  173.9630  141.0540 C   0  0  1  0  0  3  0  0  0  0  0  0
  188.1910  174.9250  140.7680 C   0  0  0  0  0  0  0  0  0  0  0  0
  187.9540  175.7940  141.9600 C   0  0  0  0  0  2  0  0  0  0  0  0
  189.2170  176.5680  142.3060 C   0  0  0  0  0  2  0  0  0  0  0  0
  188.7580  172.8100  139.8210 O   0  0  0  0  0  1  0  0  0  0  0  0
  190.1990  175.7060  143.0470 C   0  0  0  0  0  0  0  0  0  0  0  0
  191.5200  175.1800  144.9690 O   0  0  0  0  0  0  0  0  0  0  0  0
  193.5640  173.9660  144.5110 N   0  0  0  0  0  0  0  0  0  0  0  0
  193.8360  173.2690  145.7630 C   0  0  0  0  0  1  0  0  0  0  0  0
  194.9410  175.2520  142.1620 C   0  0  0  0  0  2  0  0  0  0  0  0
  194.1730  176.0410  143.2200 C   0  0  0  0  0  2  0  0  0  0  0  0
  195.5500  175.3240  145.2280 C   0  0  0  0  0  2  0  0  0  0  0  0
  196.4360  175.5780  142.1400 C   0  0  0  0  0  2  0  0  0  0  0  0
  196.5170  174.6000  144.4120 N   0  0  0  0  0  2  0  0  0  0  0  0
  194.1520  175.3230  144.5830 C   0  0  2  0  0  3  0  0  0  0  0  0
  197.1160  175.5770  143.5130 C   0  0  0  0  0  2  0  0  0  0  0  0
  190.0740  177.2080  145.0120 C   0  0  0  0  0  2  0  0  0  0  0  0
  188.9860  176.8240  145.8960 N   0  0  0  0  0  2  0  0  0  0  0  0
  187.6420  177.2510  145.6780 C   0  0  0  0  0  0  0  0  0  0  0  0
  186.6120  176.7900  146.5550 N   0  0  0  0  0  2  0  0  0  0  0  0
  187.3680  178.0340  144.7280 O   0  0  0  0  0  0  0  0  0  0  0  0
  185.2300  177.2360  146.4500 C   0  0  0  0  0  2  0  0  0  0  0  0
  185.0330  178.5010  147.2630 C   0  0  0  0  0  1  0  0  0  0  0  0
  1 10  2  0  0  0  0
  2  4  1  0  0  0  0
  3  2  1  0  0  0  0
  4  5  1  0  0  0  0
  5 16  1  6  0  0  0
  5 15  1  0  0  0  0
  6 13  1  6  0  0  0
  6  9  1  0  0  0  0
  7  4  2  0  0  0  0
  7 14  1  0  0  0  0
  8 15  1  0  0  0  0
  8 25  1  0  0  0  0
  9  3  1  1  0  0  0
  9  7  1  0  0  0  0
 10  6  1  0  0  0  0
 10 11  1  0  0  0  0
 11 12  1  0  0  0  0
 12 14  1  0  0  0  0
 14  8  2  0  0  0  0
 16 17  1  0  0  0  0
 18 19  1  0  0  0  0
 19 23  1  0  0  0  0
 21 18  1  0  0  0  0
 21 24  1  0  0  0  0
 22 20  1  0  0  0  0
 23 16  1  6  0  0  0
 23 20  1  0  0  0  0
 24 22  1  0  0  0  0
 25 26  1  0  0  0  0
 27 26  1  0  0  0  0
 27 28  1  0  0  0  0
 29 27  2  0  0  0  0
 30 28  1  0  0  0  0
 30 31  1  0  0  0  0
M  END
>  <MODEL>
8

>  <REMARK>
 VINA RESULT:      -6.4      3.293      6.649
  Name = 
  5 active torsions:
  status: ('A' for Active; 'I' for Inactive)
    1  A    between atoms: C_1  and  N_19
    2  A    between atoms: N_2  and  C_7
    3  A    between atoms: C_7  and  C_18
    4  A    between atoms: C_14  and  N_22
    5  A    between atoms: N_22  and  C_24
                            x       y       z     vdW  Elec       q    Type
                         _______ _______ _______ _____ _____    ______ ____

>  <TORSDO>
F 5

$$$$
=
 OpenBabel11042418553D

 31 34  0  0  1  0  0  0  0  0999 V2000
  190.3480  171.5550  138.7730 O   0  0  0  0  0  0  0  0  0  0  0  0
  191.2500  171.9190  144.2170 C   0  0  0  0  0  2  0  0  0  0  0  0
  191.6600  171.3070  143.0060 O   0  0  0  0  0  0  0  0  0  0  0  0
  190.4060  173.0680  143.8540 C   0  0  0  0  0  0  0  0  0  0  0  0
  189.6610  173.9810  144.7830 C   0  0  2  0  0  3  0  0  0  0  0  0
  190.1730  171.1300  141.1000 C   0  0  1  0  0  3  0  0  0  0  0  0
  190.2800  173.1300  142.5660 C   0  0  0  0  0  0  0  0  0  0  0  0
  188.7600  175.0130  142.6730 C   0  0  0  0  0  0  0  0  0  0  0  0
  191.0700  172.0400  141.9440 C   0  0  1  0  0  3  0  0  0  0  0  0
  189.7790  171.8180  139.8220 C   0  0  0  0  0  0  0  0  0  0  0  0
  188.7490  172.8990  139.8470 C   0  0  0  0  0  2  0  0  0  0  0  0
  189.3460  174.1820  140.4030 C   0  0  0  0  0  2  0  0  0  0  0  0
  190.8240  169.9220  140.8250 O   0  0  0  0  0  1  0  0  0  0  0  0
  189.4330  174.1380  141.9020 C   0  0  0  0  0  0  0  0  0  0  0  0
  188.8720  174.9590  144.0760 O   0  0  0  0  0  0  0  0  0  0  0  0
  190.5530  174.5930  145.7790 N   0  0  0  0  0  0  0  0  0  0  0  0
  189.7270  174.7760  146.9670 C   0  0  0  0  0  1  0  0  0  0  0  0
  193.3900  174.9910  144.8520 C   0  0  0  0  0  2  0  0  0  0  0  0
  192.2110  175.8060  144.3230 C   0  0  0  0  0  2  0  0  0  0  0  0
  191.4780  176.8000  146.5400 C   0  0  0  0  0  2  0  0  0  0  0  0
  194.4120  175.8410  145.6120 C   0  0  0  0  0  2  0  0  0  0  0  0
  192.6110  176.2350  147.2630 N   0  0  0  0  0  2  0  0  0  0  0  0
  191.0680  175.9130  145.3500 C   0  0  2  0  0  3  0  0  0  0  0  0
  193.8110  176.7900  146.6530 C   0  0  0  0  0  2  0  0  0  0  0  0
  187.9130  176.0860  142.0720 C   0  0  0  0  0  2  0  0  0  0  0  0
  187.7240  177.1510  143.0430 N   0  0  0  0  0  2  0  0  0  0  0  0
  186.4360  177.6870  143.3430 C   0  0  0  0  0  0  0  0  0  0  0  0
  186.3160  178.6950  144.3490 N   0  0  0  0  0  2  0  0  0  0  0  0
  185.4170  177.2840  142.7190 O   0  0  0  0  0  0  0  0  0  0  0  0
  185.0540  179.3480  144.6630 C   0  0  0  0  0  2  0  0  0  0  0  0
  184.3830  178.6420  145.8250 C   0  0  0  0  0  1  0  0  0  0  0  0
  1 10  2  0  0  0  0
  3  2  1  0  0  0  0
  4  2  1  0  0  0  0
  4  5  1  0  0  0  0
  5 16  1  1  0  0  0
  6 13  1  6  0  0  0
  6  9  1  0  0  0  0
  7  4  2  0  0  0  0
  8 15  1  0  0  0  0
  9  7  1  1  0  0  0
  9  3  1  0  0  0  0
 10 11  1  0  0  0  0
 10  6  1  0  0  0  0
 11 12  1  0  0  0  0
 12 14  1  0  0  0  0
 14  7  1  0  0  0  0
 14  8  2  0  0  0  0
 15  5  1  0  0  0  0
 16 17  1  0  0  0  0
 18 21  1  0  0  0  0
 19 18  1  0  0  0  0
 19 23  1  0  0  0  0
 20 22  1  0  0  0  0
 21 24  1  0  0  0  0
 23 16  1  1  0  0  0
 23 20  1  0  0  0  0
 24 22  1  0  0  0  0
 25  8  1  0  0  0  0
 25 26  1  0  0  0  0
 26 27  1  0  0  0  0
 27 28  1  0  0  0  0
 28 30  1  0  0  0  0
 29 27  2  0  0  0  0
 30 31  1  0  0  0  0
M  END
>  <MODEL>
9

>  <REMARK>
 VINA RESULT:      -6.4      3.484      6.695
  Name = 
  5 active torsions:
  status: ('A' for Active; 'I' for Inactive)
    1  A    between atoms: C_1  and  N_19
    2  A    between atoms: N_2  and  C_7
    3  A    between atoms: C_7  and  C_18
    4  A    between atoms: C_14  and  N_22
    5  A    between atoms: N_22  and  C_24
                            x       y       z     vdW  Elec       q    Type
                         _______ _______ _______ _____ _____    ______ ____

>  <TORSDO>
F 5

$$$$
