=
 OpenBabel11042417253D

 29 33  0  0  1  0  0  0  0  0999 V2000
  189.6350  176.0330  145.1800 C   0  0  1  0  0  0  0  0  0  0  0  0
  188.5020  176.1540  145.9960 C   0  0  0  0  0  0  0  0  0  0  0  0
  191.5040  174.7020  145.4690 C   0  0  0  0  0  0  0  0  0  0  0  0
  186.2620  177.1400  144.7870 C   0  0  0  0  0  0  0  0  0  0  0  0
  188.4700  176.5370  144.5830 C   0  0  0  0  0  0  0  0  0  0  0  0
  190.7680  176.9500  145.6140 C   0  0  0  0  0  2  0  0  0  0  0  0
  187.4670  176.2270  146.8750 C   0  0  0  0  0  3  0  0  0  0  0  0
  192.2920  173.7210  145.5690 O   0  0  0  0  0  0  0  0  0  0  0  0
  191.8740  176.0310  145.8170 N   0  0  0  0  0  0  0  0  0  0  0  0
  187.4030  177.0330  143.9030 C   0  0  0  0  0  3  0  0  0  0  0  0
  186.3110  176.7540  146.2000 C   0  0  0  0  0  3  0  0  0  0  0  0
  190.0980  174.5880  144.9930 C   0  0  2  0  0  3  0  0  0  0  0  0
  190.0420  174.1560  143.5520 C   0  0  0  0  0  0  0  0  0  0  0  0
  190.8300  174.2790  141.2590 C   0  0  0  0  0  3  0  0  0  0  0  0
  188.9600  172.8480  141.8200 C   0  0  0  0  0  3  0  0  0  0  0  0
  189.0540  173.2500  143.1560 C   0  0  0  0  0  3  0  0  0  0  0  0
  189.8590  173.3480  140.8680 C   0  0  0  0  0  0  0  0  0  0  0  0
  190.9240  174.6780  142.5930 C   0  0  0  0  0  3  0  0  0  0  0  0
  188.8220  173.8930  138.7320 N   0  0  0  0  0  2  0  0  0  0  0  0
  188.3530  172.5570  139.1260 C   0  0  0  0  0  2  0  0  0  0  0  0
  189.7280  172.9590  139.4280 C   0  0  2  0  0  3  0  0  0  0  0  0
  193.2120  176.4430  146.2050 C   0  0  0  0  0  2  0  0  0  0  0  0
  193.7830  177.2030  145.1840 O   0  0  0  0  0  0  0  0  0  0  0  0
  194.7720  176.3780  144.6430 C   0  0  0  0  0  2  0  0  0  0  0  0
  194.6320  174.4800  143.0300 C   0  0  0  0  0  1  0  0  0  0  0  0
  194.3870  175.9640  143.2330 C   0  0  0  0  0  2  0  0  0  0  0  0
  185.0460  177.6310  144.3010 O   0  0  0  0  0  0  0  0  0  0  0  0
  185.3010  180.0090  144.1990 C   0  0  0  0  0  1  0  0  0  0  0  0
  184.4760  178.8590  144.7400 C   0  0  0  0  0  2  0  0  0  0  0  0
  1  6  1  1  0  0  0
  1  2  1  0  0  0  0
  2  7  1  0  0  0  0
  3  8  2  0  0  0  0
  3  9  1  0  0  0  0
  4 11  1  0  0  0  0
  5  1  1  0  0  0  0
  5  2  2  0  0  0  0
  6  9  1  0  0  0  0
  9 22  1  0  0  0  0
 10  5  1  0  0  0  0
 10  4  2  0  0  0  0
 11  7  2  0  0  0  0
 12 13  1  6  0  0  0
 12  1  1  0  0  0  0
 12  3  1  0  0  0  0
 14 18  1  0  0  0  0
 15 16  2  0  0  0  0
 16 13  1  0  0  0  0
 17 14  2  0  0  0  0
 17 15  1  0  0  0  0
 18 13  2  0  0  0  0
 19 20  1  0  0  0  0
 19 21  1  0  0  0  0
 20 21  1  0  0  0  0
 21 17  1  1  0  0  0
 23 22  1  0  0  0  0
 24 23  1  0  0  0  0
 25 26  1  0  0  0  0
 26 24  1  0  0  0  0
 27 29  1  0  0  0  0
 27  4  1  0  0  0  0
 28 29  1  0  0  0  0
M  END
>  <MODEL>
1

>  <REMARK>
 VINA RESULT:      -6.2      0.000      0.000
  Name = 
  8 active torsions:
  status: ('A' for Active; 'I' for Inactive)
    1  A    between atoms: C_3  and  C_28
    2  A    between atoms: O_7  and  C_15
    3  A    between atoms: O_7  and  C_26
    4  A    between atoms: C_9  and  O_24
    5  A    between atoms: C_15  and  N_19
    6  A    between atoms: C_18  and  O_24
    7  A    between atoms: C_21  and  C_23
    8  A    between atoms: C_26  and  C_29
                            x       y       z     vdW  Elec       q    Type
                         _______ _______ _______ _____ _____    ______ ____

>  <TORSDO>
F 8

$$$$
=
 OpenBabel11042417253D

 29 33  0  0  1  0  0  0  0  0999 V2000
  188.0230  175.3660  141.8480 C   0  0  1  0  0  0  0  0  0  0  0  0
  187.3180  176.2960  141.0720 C   0  0  0  0  0  0  0  0  0  0  0  0
  190.1560  174.5300  141.5390 C   0  0  0  0  0  0  0  0  0  0  0  0
  185.2630  177.5830  142.3260 C   0  0  0  0  0  0  0  0  0  0  0  0
  186.9620  176.0420  142.4690 C   0  0  0  0  0  0  0  0  0  0  0  0
  187.8690  173.9430  141.3370 C   0  0  0  0  0  2  0  0  0  0  0  0
  186.7060  177.1720  140.2300 C   0  0  0  0  0  3  0  0  0  0  0  0
  191.4090  174.4020  141.4460 O   0  0  0  0  0  0  0  0  0  0  0  0
  189.2440  173.5190  141.1270 N   0  0  0  0  0  0  0  0  0  0  0  0
  185.9600  176.6350  143.1700 C   0  0  0  0  0  3  0  0  0  0  0  0
  185.6310  177.8240  140.9280 C   0  0  0  0  0  3  0  0  0  0  0  0
  189.4870  175.7480  142.0720 C   0  0  2  0  0  3  0  0  0  0  0  0
  189.8030  175.9520  143.5290 C   0  0  0  0  0  0  0  0  0  0  0  0
  190.0970  175.1040  145.7850 C   0  0  0  0  0  3  0  0  0  0  0  0
  190.3010  177.4760  145.3490 C   0  0  0  0  0  3  0  0  0  0  0  0
  190.0290  177.2500  143.9960 C   0  0  0  0  0  3  0  0  0  0  0  0
  190.3530  176.4020  146.2480 C   0  0  0  0  0  0  0  0  0  0  0  0
  189.8270  174.8800  144.4350 C   0  0  0  0  0  3  0  0  0  0  0  0
  192.0400  176.7550  147.9690 N   0  0  0  0  0  2  0  0  0  0  0  0
  191.3140  175.5220  148.3040 C   0  0  0  0  0  2  0  0  0  0  0  0
  190.5930  176.6460  147.7050 C   0  0  2  0  0  3  0  0  0  0  0  0
  189.6250  172.1930  140.6740 C   0  0  0  0  0  2  0  0  0  0  0  0
  189.9210  171.3890  141.7740 O   0  0  0  0  0  0  0  0  0  0  0  0
  191.1660  170.8310  141.4760 C   0  0  0  0  0  2  0  0  0  0  0  0
  191.3680  171.5880  143.8450 C   0  0  0  0  0  1  0  0  0  0  0  0
  192.0470  170.8360  142.7140 C   0  0  0  0  0  2  0  0  0  0  0  0
  184.1870  178.3140  142.8390 O   0  0  0  0  0  0  0  0  0  0  0  0
  185.3030  179.9470  144.1860 C   0  0  0  0  0  1  0  0  0  0  0  0
  184.2010  178.9090  144.1310 C   0  0  0  0  0  2  0  0  0  0  0  0
  1  6  1  6  0  0  0
  1 12  1  0  0  0  0
  1  5  1  0  0  0  0
  2  1  1  0  0  0  0
  2  5  1  0  0  0  0
  3 12  1  0  0  0  0
  4 27  1  0  0  0  0
  4 10  1  0  0  0  0
  5 10  2  0  0  0  0
  7 11  1  0  0  0  0
  7  2  2  0  0  0  0
  8  3  2  0  0  0  0
  9  6  1  0  0  0  0
  9  3  1  0  0  0  0
 11  4  2  0  0  0  0
 12 13  1  1  0  0  0
 13 16  2  0  0  0  0
 13 18  1  0  0  0  0
 14 17  1  0  0  0  0
 15 17  2  0  0  0  0
 16 15  1  0  0  0  0
 18 14  2  0  0  0  0
 19 20  1  0  0  0  0
 21 17  1  6  0  0  0
 21 19  1  0  0  0  0
 21 20  1  0  0  0  0
 22  9  1  0  0  0  0
 22 23  1  0  0  0  0
 24 23  1  0  0  0  0
 24 26  1  0  0  0  0
 26 25  1  0  0  0  0
 27 29  1  0  0  0  0
 29 28  1  0  0  0  0
M  END
>  <MODEL>
2

>  <REMARK>
 VINA RESULT:      -6.0      2.527      5.539
  Name = 
  8 active torsions:
  status: ('A' for Active; 'I' for Inactive)
    1  A    between atoms: C_3  and  C_28
    2  A    between atoms: O_7  and  C_15
    3  A    between atoms: O_7  and  C_26
    4  A    between atoms: C_9  and  O_24
    5  A    between atoms: C_15  and  N_19
    6  A    between atoms: C_18  and  O_24
    7  A    between atoms: C_21  and  C_23
    8  A    between atoms: C_26  and  C_29
                            x       y       z     vdW  Elec       q    Type
                         _______ _______ _______ _____ _____    ______ ____

>  <TORSDO>
F 8

$$$$
=
 OpenBabel11042417253D

 29 33  0  0  1  0  0  0  0  0999 V2000
  188.1190  175.3850  141.8820 C   0  0  1  0  0  0  0  0  0  0  0  0
  187.4060  176.3230  141.1220 C   0  0  0  0  0  0  0  0  0  0  0  0
  190.2700  174.5930  141.5770 C   0  0  0  0  0  0  0  0  0  0  0  0
  185.3160  177.5410  142.3860 C   0  0  0  0  0  0  0  0  0  0  0  0
  187.0400  176.0260  142.5080 C   0  0  0  0  0  0  0  0  0  0  0  0
  187.9950  173.9730  141.3330 C   0  0  0  0  0  2  0  0  0  0  0  0
  186.7900  177.2100  140.2970 C   0  0  0  0  0  3  0  0  0  0  0  0
  191.5250  174.4890  141.4950 O   0  0  0  0  0  0  0  0  0  0  0  0
  189.3790  173.5780  141.1280 N   0  0  0  0  0  0  0  0  0  0  0  0
  186.0190  176.5840  143.2120 C   0  0  0  0  0  3  0  0  0  0  0  0
  185.6950  177.8250  140.9990 C   0  0  0  0  0  3  0  0  0  0  0  0
  189.5730  175.7850  142.1330 C   0  0  2  0  0  3  0  0  0  0  0  0
  189.8690  175.9560  143.5990 C   0  0  0  0  0  0  0  0  0  0  0  0
  190.2270  175.0460  145.8220 C   0  0  0  0  0  3  0  0  0  0  0  0
  190.2400  177.4420  145.4790 C   0  0  0  0  0  3  0  0  0  0  0  0
  189.9890  177.2490  144.1170 C   0  0  0  0  0  3  0  0  0  0  0  0
  190.3770  176.3410  146.3360 C   0  0  0  0  0  0  0  0  0  0  0  0
  189.9780  174.8550  144.4620 C   0  0  0  0  0  3  0  0  0  0  0  0
  191.9990  176.9130  148.0610 N   0  0  0  0  0  2  0  0  0  0  0  0
  191.5260  175.5490  148.3300 C   0  0  0  0  0  2  0  0  0  0  0  0
  190.5940  176.5460  147.8030 C   0  0  2  0  0  3  0  0  0  0  0  0
  189.7880  172.2710  140.6450 C   0  0  0  0  0  2  0  0  0  0  0  0
  189.2530  172.0520  139.3760 O   0  0  0  0  0  0  0  0  0  0  0  0
  190.2610  172.4540  138.4960 C   0  0  0  0  0  2  0  0  0  0  0  0
  188.4730  173.9930  137.6820 C   0  0  0  0  0  1  0  0  0  0  0  0
  189.6480  173.1220  137.2770 C   0  0  0  0  0  2  0  0  0  0  0  0
  184.2220  178.2410  142.9050 O   0  0  0  0  0  0  0  0  0  0  0  0
  185.4190  179.8090  144.2600 C   0  0  0  0  0  1  0  0  0  0  0  0
  184.2370  178.8640  144.1840 C   0  0  0  0  0  2  0  0  0  0  0  0
  1  6  1  6  0  0  0
  1 12  1  0  0  0  0
  1  5  1  0  0  0  0
  2  1  1  0  0  0  0
  2  5  1  0  0  0  0
  3 12  1  0  0  0  0
  4 27  1  0  0  0  0
  4 10  1  0  0  0  0
  5 10  2  0  0  0  0
  7 11  1  0  0  0  0
  7  2  2  0  0  0  0
  8  3  2  0  0  0  0
  9  6  1  0  0  0  0
  9  3  1  0  0  0  0
 11  4  2  0  0  0  0
 12 13  1  1  0  0  0
 13 16  2  0  0  0  0
 13 18  1  0  0  0  0
 14 17  1  0  0  0  0
 15 17  2  0  0  0  0
 16 15  1  0  0  0  0
 18 14  2  0  0  0  0
 19 20  1  0  0  0  0
 21 17  1  6  0  0  0
 21 19  1  0  0  0  0
 21 20  1  0  0  0  0
 22  9  1  0  0  0  0
 23 22  1  0  0  0  0
 24 23  1  0  0  0  0
 26 25  1  0  0  0  0
 26 24  1  0  0  0  0
 27 29  1  0  0  0  0
 29 28  1  0  0  0  0
M  END
>  <MODEL>
3

>  <REMARK>
 VINA RESULT:      -5.9      2.512      5.896
  Name = 
  8 active torsions:
  status: ('A' for Active; 'I' for Inactive)
    1  A    between atoms: C_3  and  C_28
    2  A    between atoms: O_7  and  C_15
    3  A    between atoms: O_7  and  C_26
    4  A    between atoms: C_9  and  O_24
    5  A    between atoms: C_15  and  N_19
    6  A    between atoms: C_18  and  O_24
    7  A    between atoms: C_21  and  C_23
    8  A    between atoms: C_26  and  C_29
                            x       y       z     vdW  Elec       q    Type
                         _______ _______ _______ _____ _____    ______ ____

>  <TORSDO>
F 8

$$$$
=
 OpenBabel11042417253D

 29 33  0  0  1  0  0  0  0  0999 V2000
  191.4320  175.8640  145.6520 C   0  0  1  0  0  0  0  0  0  0  0  0
  192.7510  176.2740  145.8890 C   0  0  0  0  0  0  0  0  0  0  0  0
  189.6270  177.1100  144.9190 C   0  0  0  0  0  0  0  0  0  0  0  0
  194.6360  174.2990  145.8700 C   0  0  0  0  0  0  0  0  0  0  0  0
  192.4200  174.8690  145.6470 C   0  0  0  0  0  0  0  0  0  0  0  0
  190.5270  176.0810  146.8550 C   0  0  0  0  0  2  0  0  0  0  0  0
  193.9900  176.7820  146.1270 C   0  0  0  0  0  3  0  0  0  0  0  0
  188.8310  177.8020  144.2260 O   0  0  0  0  0  0  0  0  0  0  0  0
  189.4580  176.9050  146.3160 N   0  0  0  0  0  0  0  0  0  0  0  0
  193.2920  173.8250  145.6190 C   0  0  0  0  0  3  0  0  0  0  0  0
  194.9500  175.7110  146.1120 C   0  0  0  0  0  3  0  0  0  0  0  0
  190.8380  176.4410  144.3670 C   0  0  2  0  0  3  0  0  0  0  0  0
  190.4660  175.3660  143.3810 C   0  0  0  0  0  0  0  0  0  0  0  0
  189.0680  173.5100  142.6770 C   0  0  0  0  0  3  0  0  0  0  0  0
  190.9620  174.1780  141.3260 C   0  0  0  0  0  3  0  0  0  0  0  0
  191.2650  175.1840  142.2480 C   0  0  0  0  0  3  0  0  0  0  0  0
  189.8510  173.3470  141.5270 C   0  0  0  0  0  0  0  0  0  0  0  0
  189.3710  174.5150  143.5960 C   0  0  0  0  0  3  0  0  0  0  0  0
  190.4470  171.0910  140.8270 N   0  0  0  0  0  2  0  0  0  0  0  0
  190.7010  171.9900  139.6930 C   0  0  0  0  0  2  0  0  0  0  0  0
  189.5540  172.2360  140.5680 C   0  0  2  0  0  3  0  0  0  0  0  0
  188.3090  177.3500  147.0850 C   0  0  0  0  0  2  0  0  0  0  0  0
  187.2800  176.4160  146.9740 O   0  0  0  0  0  0  0  0  0  0  0  0
  186.1380  177.1010  147.3950 C   0  0  0  0  0  2  0  0  0  0  0  0
  184.2010  178.3140  146.3930 C   0  0  0  0  0  1  0  0  0  0  0  0
  185.0910  177.0890  146.2940 C   0  0  0  0  0  2  0  0  0  0  0  0
  195.7030  173.3960  145.8900 O   0  0  0  0  0  0  0  0  0  0  0  0
  196.7850  171.2620  145.9550 C   0  0  0  0  0  1  0  0  0  0  0  0
  195.5770  172.0400  145.4760 C   0  0  0  0  0  2  0  0  0  0  0  0
  1  2  1  0  0  0  0
  1  6  1  1  0  0  0
  2  7  1  0  0  0  0
  3  9  1  0  0  0  0
  4 27  1  0  0  0  0
  4 11  1  0  0  0  0
  5  1  1  0  0  0  0
  5  2  2  0  0  0  0
  8  3  2  0  0  0  0
  9  6  1  0  0  0  0
  9 22  1  0  0  0  0
 10  5  1  0  0  0  0
 10  4  2  0  0  0  0
 11  7  2  0  0  0  0
 12 13  1  6  0  0  0
 12  3  1  0  0  0  0
 12  1  1  0  0  0  0
 13 18  1  0  0  0  0
 14 18  2  0  0  0  0
 15 17  2  0  0  0  0
 15 16  1  0  0  0  0
 16 13  2  0  0  0  0
 17 14  1  0  0  0  0
 20 21  1  0  0  0  0
 20 19  1  0  0  0  0
 21 19  1  0  0  0  0
 21 17  1  1  0  0  0
 23 22  1  0  0  0  0
 23 24  1  0  0  0  0
 26 25  1  0  0  0  0
 26 24  1  0  0  0  0
 29 27  1  0  0  0  0
 29 28  1  0  0  0  0
M  END
>  <MODEL>
4

>  <REMARK>
 VINA RESULT:      -5.9      2.149      6.677
  Name = 
  8 active torsions:
  status: ('A' for Active; 'I' for Inactive)
    1  A    between atoms: C_3  and  C_28
    2  A    between atoms: O_7  and  C_15
    3  A    between atoms: O_7  and  C_26
    4  A    between atoms: C_9  and  O_24
    5  A    between atoms: C_15  and  N_19
    6  A    between atoms: C_18  and  O_24
    7  A    between atoms: C_21  and  C_23
    8  A    between atoms: C_26  and  C_29
                            x       y       z     vdW  Elec       q    Type
                         _______ _______ _______ _____ _____    ______ ____

>  <TORSDO>
F 8

$$$$
=
 OpenBabel11042417253D

 29 33  0  0  1  0  0  0  0  0999 V2000
  188.7370  175.5650  142.6740 C   0  0  1  0  0  0  0  0  0  0  0  0
  188.3210  174.2970  142.2450 C   0  0  0  0  0  0  0  0  0  0  0  0
  187.8770  176.8850  144.3670 C   0  0  0  0  0  0  0  0  0  0  0  0
  190.1720  172.8370  140.8690 C   0  0  0  0  0  0  0  0  0  0  0  0
  189.6690  174.7940  141.9650 C   0  0  0  0  0  0  0  0  0  0  0  0
  187.9630  176.6910  142.0070 C   0  0  0  0  0  2  0  0  0  0  0  0
  187.8130  173.0890  141.8790 C   0  0  0  0  0  3  0  0  0  0  0  0
  187.5370  177.3500  145.4900 O   0  0  0  0  0  0  0  0  0  0  0  0
  187.4250  177.4320  143.1350 N   0  0  0  0  0  0  0  0  0  0  0  0
  190.6500  174.1360  141.2910 C   0  0  0  0  0  3  0  0  0  0  0  0
  188.8170  172.3560  141.1560 C   0  0  0  0  0  3  0  0  0  0  0  0
  188.7740  175.7090  144.1960 C   0  0  2  0  0  3  0  0  0  0  0  0
  190.1610  176.0000  144.7040 C   0  0  0  0  0  0  0  0  0  0  0  0
  192.1750  177.3550  144.7430 C   0  0  0  0  0  3  0  0  0  0  0  0
  192.0550  175.3280  146.0600 C   0  0  0  0  0  3  0  0  0  0  0  0
  190.7590  175.0990  145.5890 C   0  0  0  0  0  3  0  0  0  0  0  0
  192.7640  176.4670  145.6530 C   0  0  0  0  0  0  0  0  0  0  0  0
  190.8810  177.1250  144.2740 C   0  0  0  0  0  3  0  0  0  0  0  0
  195.1190  176.3060  145.0510 N   0  0  0  0  0  2  0  0  0  0  0  0
  194.8910  175.4160  146.1980 C   0  0  0  0  0  2  0  0  0  0  0  0
  194.1700  176.6870  146.1150 C   0  0  2  0  0  3  0  0  0  0  0  0
  186.6320  178.6420  143.0070 C   0  0  0  0  0  2  0  0  0  0  0  0
  185.4430  178.3560  142.3360 O   0  0  0  0  0  0  0  0  0  0  0  0
  184.5100  178.1370  143.3520 C   0  0  0  0  0  2  0  0  0  0  0  0
  184.0720  178.7870  145.7210 C   0  0  0  0  0  1  0  0  0  0  0  0
  184.5820  179.2600  144.3720 C   0  0  0  0  0  2  0  0  0  0  0  0
  191.0150  171.9820  140.1530 O   0  0  0  0  0  0  0  0  0  0  0  0
  190.9360  172.5970  137.8410 C   0  0  0  0  0  1  0  0  0  0  0  0
  191.8160  172.4190  139.0620 C   0  0  0  0  0  2  0  0  0  0  0  0
  1  6  1  6  0  0  0
  1 12  1  0  0  0  0
  2  1  1  0  0  0  0
  3  8  2  0  0  0  0
  4 11  2  0  0  0  0
  4 10  1  0  0  0  0
  5  2  1  0  0  0  0
  5  1  1  0  0  0  0
  6  9  1  0  0  0  0
  7  2  2  0  0  0  0
  9  3  1  0  0  0  0
 10  5  2  0  0  0  0
 11  7  1  0  0  0  0
 12  3  1  0  0  0  0
 12 13  1  6  0  0  0
 13 16  1  0  0  0  0
 14 17  2  0  0  0  0
 16 15  2  0  0  0  0
 17 15  1  0  0  0  0
 18 13  2  0  0  0  0
 18 14  1  0  0  0  0
 19 21  1  0  0  0  0
 19 20  1  0  0  0  0
 21 17  1  6  0  0  0
 21 20  1  0  0  0  0
 22  9  1  0  0  0  0
 23 22  1  0  0  0  0
 23 24  1  0  0  0  0
 24 26  1  0  0  0  0
 26 25  1  0  0  0  0
 27  4  1  0  0  0  0
 28 29  1  0  0  0  0
 29 27  1  0  0  0  0
M  END
>  <MODEL>
5

>  <REMARK>
 VINA RESULT:      -5.8      2.536      7.256
  Name = 
  8 active torsions:
  status: ('A' for Active; 'I' for Inactive)
    1  A    between atoms: C_3  and  C_28
    2  A    between atoms: O_7  and  C_15
    3  A    between atoms: O_7  and  C_26
    4  A    between atoms: C_9  and  O_24
    5  A    between atoms: C_15  and  N_19
    6  A    between atoms: C_18  and  O_24
    7  A    between atoms: C_21  and  C_23
    8  A    between atoms: C_26  and  C_29
                            x       y       z     vdW  Elec       q    Type
                         _______ _______ _______ _____ _____    ______ ____

>  <TORSDO>
F 8

$$$$
=
 OpenBabel11042417253D

 29 33  0  0  1  0  0  0  0  0999 V2000
  189.5390  174.7890  143.8380 C   0  0  1  0  0  0  0  0  0  0  0  0
  188.9240  173.9250  142.9220 C   0  0  0  0  0  0  0  0  0  0  0  0
  189.3020  174.8840  146.1360 C   0  0  0  0  0  0  0  0  0  0  0  0
  190.1890  173.6390  140.5190 C   0  0  0  0  0  0  0  0  0  0  0  0
  190.1690  174.6230  142.5960 C   0  0  0  0  0  0  0  0  0  0  0  0
  188.6930  176.0150  144.1440 C   0  0  0  0  0  2  0  0  0  0  0  0
  188.2450  173.0680  142.1140 C   0  0  0  0  0  3  0  0  0  0  0  0
  189.3340  174.6280  147.3720 O   0  0  0  0  0  0  0  0  0  0  0  0
  188.5570  175.9660  145.5900 N   0  0  0  0  0  0  0  0  0  0  0  0
  190.8630  174.5390  141.4300 C   0  0  0  0  0  3  0  0  0  0  0  0
  188.9410  172.9480  140.8610 C   0  0  0  0  0  3  0  0  0  0  0  0
  190.0220  174.0850  145.1070 C   0  0  2  0  0  3  0  0  0  0  0  0
  191.5140  174.1880  145.2800 C   0  0  0  0  0  0  0  0  0  0  0  0
  193.7330  173.2040  145.2710 C   0  0  0  0  0  3  0  0  0  0  0  0
  193.4420  175.5240  145.8940 C   0  0  0  0  0  3  0  0  0  0  0  0
  192.0620  175.4030  145.7000 C   0  0  0  0  0  3  0  0  0  0  0  0
  194.2860  174.4300  145.6640 C   0  0  0  0  0  0  0  0  0  0  0  0
  192.3570  173.0840  145.0770 C   0  0  0  0  0  3  0  0  0  0  0  0
  196.4600  174.9220  144.6800 N   0  0  0  0  0  2  0  0  0  0  0  0
  196.4920  173.5320  145.1570 C   0  0  0  0  0  2  0  0  0  0  0  0
  195.7570  174.5420  145.9200 C   0  0  2  0  0  3  0  0  0  0  0  0
  187.8540  176.9660  146.3740 C   0  0  0  0  0  2  0  0  0  0  0  0
  186.4780  176.7650  146.2650 O   0  0  0  0  0  0  0  0  0  0  0  0
  185.9540  177.2630  147.4610 C   0  0  0  0  0  2  0  0  0  0  0  0
  184.3210  178.5940  146.1220 C   0  0  0  0  0  1  0  0  0  0  0  0
  185.3580  178.6420  147.2300 C   0  0  0  0  0  2  0  0  0  0  0  0
  190.7250  173.3980  139.2510 O   0  0  0  0  0  0  0  0  0  0  0  0
  192.1360  171.4920  139.5780 C   0  0  0  0  0  1  0  0  0  0  0  0
  191.0060  172.0910  138.7650 C   0  0  0  0  0  2  0  0  0  0  0  0
  1  6  1  1  0  0  0
  1 12  1  0  0  0  0
  2  1  1  0  0  0  0
  3  8  2  0  0  0  0
  4 11  2  0  0  0  0
  4 10  1  0  0  0  0
  5  2  1  0  0  0  0
  5  1  1  0  0  0  0
  6  9  1  0  0  0  0
  7  2  2  0  0  0  0
  9  3  1  0  0  0  0
  9 22  1  0  0  0  0
 10  5  2  0  0  0  0
 11  7  1  0  0  0  0
 12 13  1  1  0  0  0
 12  3  1  0  0  0  0
 13 16  1  0  0  0  0
 14 17  2  0  0  0  0
 16 15  2  0  0  0  0
 17 15  1  0  0  0  0
 18 14  1  0  0  0  0
 18 13  2  0  0  0  0
 19 20  1  0  0  0  0
 19 21  1  0  0  0  0
 20 21  1  0  0  0  0
 21 17  1  6  0  0  0
 23 22  1  0  0  0  0
 23 24  1  0  0  0  0
 25 26  1  0  0  0  0
 26 24  1  0  0  0  0
 27  4  1  0  0  0  0
 29 27  1  0  0  0  0
 29 28  1  0  0  0  0
M  END
>  <MODEL>
6

>  <REMARK>
 VINA RESULT:      -5.8      2.417      6.937
  Name = 
  8 active torsions:
  status: ('A' for Active; 'I' for Inactive)
    1  A    between atoms: C_3  and  C_28
    2  A    between atoms: O_7  and  C_15
    3  A    between atoms: O_7  and  C_26
    4  A    between atoms: C_9  and  O_24
    5  A    between atoms: C_15  and  N_19
    6  A    between atoms: C_18  and  O_24
    7  A    between atoms: C_21  and  C_23
    8  A    between atoms: C_26  and  C_29
                            x       y       z     vdW  Elec       q    Type
                         _______ _______ _______ _____ _____    ______ ____

>  <TORSDO>
F 8

$$$$
=
 OpenBabel11042417253D

 29 33  0  0  1  0  0  0  0  0999 V2000
  190.0360  175.0070  144.9320 C   0  0  1  0  0  0  0  0  0  0  0  0
  189.1110  175.3560  145.9260 C   0  0  0  0  0  0  0  0  0  0  0  0
  191.1910  173.0230  144.6490 C   0  0  0  0  0  0  0  0  0  0  0  0
  187.4180  177.4060  145.3100 C   0  0  0  0  0  0  0  0  0  0  0  0
  189.1540  176.0570  144.6410 C   0  0  0  0  0  0  0  0  0  0  0  0
  191.4730  175.2680  145.3540 C   0  0  0  0  0  2  0  0  0  0  0  0
  188.2600  175.6090  146.9550 C   0  0  0  0  0  3  0  0  0  0  0  0
  191.5020  171.8210  144.4250 O   0  0  0  0  0  0  0  0  0  0  0  0
  192.1050  173.9700  145.1910 N   0  0  0  0  0  0  0  0  0  0  0  0
  188.3510  177.0830  144.2530 C   0  0  0  0  0  3  0  0  0  0  0  0
  187.3900  176.6950  146.5920 C   0  0  0  0  0  3  0  0  0  0  0  0
  189.8390  173.5900  144.3900 C   0  0  2  0  0  3  0  0  0  0  0  0
  189.5180  173.5860  142.9190 C   0  0  0  0  0  0  0  0  0  0  0  0
  188.0330  173.0900  141.0640 C   0  0  0  0  0  3  0  0  0  0  0  0
  190.2300  174.0130  140.6410 C   0  0  0  0  0  3  0  0  0  0  0  0
  190.4880  174.0270  142.0150 C   0  0  0  0  0  3  0  0  0  0  0  0
  188.9930  173.5600  140.1590 C   0  0  0  0  0  0  0  0  0  0  0  0
  188.2910  173.1060  142.4350 C   0  0  0  0  0  3  0  0  0  0  0  0
  189.2210  172.2130  138.1430 N   0  0  0  0  0  2  0  0  0  0  0  0
  189.9940  173.4470  137.9430 C   0  0  0  0  0  2  0  0  0  0  0  0
  188.7340  173.4950  138.6870 C   0  0  2  0  0  3  0  0  0  0  0  0
  193.5140  173.7150  145.4350 C   0  0  0  0  0  2  0  0  0  0  0  0
  194.1380  173.3530  144.2410 O   0  0  0  0  0  0  0  0  0  0  0  0
  194.7090  174.5380  143.7700 C   0  0  0  0  0  2  0  0  0  0  0  0
  193.4740  176.1590  142.3300 C   0  0  0  0  0  1  0  0  0  0  0  0
  194.2090  174.8310  142.3660 C   0  0  0  0  0  2  0  0  0  0  0  0
  186.4900  178.4370  145.1320 O   0  0  0  0  0  0  0  0  0  0  0  0
  184.2200  178.6190  145.8680 C   0  0  0  0  0  1  0  0  0  0  0  0
  185.6690  178.9300  146.1840 C   0  0  0  0  0  2  0  0  0  0  0  0
  1  6  1  1  0  0  0
  1  2  1  0  0  0  0
  2  7  1  0  0  0  0
  3  9  1  0  0  0  0
  4 11  1  0  0  0  0
  5  1  1  0  0  0  0
  5  2  2  0  0  0  0
  8  3  2  0  0  0  0
  9  6  1  0  0  0  0
  9 22  1  0  0  0  0
 10  5  1  0  0  0  0
 10  4  2  0  0  0  0
 11  7  2  0  0  0  0
 12 13  1  6  0  0  0
 12  3  1  0  0  0  0
 12  1  1  0  0  0  0
 14 18  2  0  0  0  0
 15 16  1  0  0  0  0
 16 13  2  0  0  0  0
 17 15  2  0  0  0  0
 17 14  1  0  0  0  0
 18 13  1  0  0  0  0
 19 21  1  0  0  0  0
 20 19  1  0  0  0  0
 20 21  1  0  0  0  0
 21 17  1  1  0  0  0
 23 22  1  0  0  0  0
 24 23  1  0  0  0  0
 25 26  1  0  0  0  0
 26 24  1  0  0  0  0
 27  4  1  0  0  0  0
 27 29  1  0  0  0  0
 28 29  1  0  0  0  0
M  END
>  <MODEL>
7

>  <REMARK>
 VINA RESULT:      -5.7      1.534      1.980
  Name = 
  8 active torsions:
  status: ('A' for Active; 'I' for Inactive)
    1  A    between atoms: C_3  and  C_28
    2  A    between atoms: O_7  and  C_15
    3  A    between atoms: O_7  and  C_26
    4  A    between atoms: C_9  and  O_24
    5  A    between atoms: C_15  and  N_19
    6  A    between atoms: C_18  and  O_24
    7  A    between atoms: C_21  and  C_23
    8  A    between atoms: C_26  and  C_29
                            x       y       z     vdW  Elec       q    Type
                         _______ _______ _______ _____ _____    ______ ____

>  <TORSDO>
F 8

$$$$
=
 OpenBabel11042417253D

 29 33  0  0  1  0  0  0  0  0999 V2000
  190.8250  175.1320  142.8460 C   0  0  1  0  0  0  0  0  0  0  0  0
  191.3160  174.6080  141.6420 C   0  0  0  0  0  0  0  0  0  0  0  0
  191.5790  176.9510  144.0590 C   0  0  0  0  0  0  0  0  0  0  0  0
  189.5740  173.0680  140.2130 C   0  0  0  0  0  0  0  0  0  0  0  0
  189.9500  174.3370  142.0920 C   0  0  0  0  0  0  0  0  0  0  0  0
  191.5520  174.5810  144.0630 C   0  0  0  0  0  2  0  0  0  0  0  0
  191.8940  174.1550  140.4980 C   0  0  0  0  0  3  0  0  0  0  0  0
  191.8700  178.1170  144.4430 O   0  0  0  0  0  0  0  0  0  0  0  0
  192.0270  175.7810  144.7320 N   0  0  0  0  0  0  0  0  0  0  0  0
  189.0190  173.5860  141.4450 C   0  0  0  0  0  3  0  0  0  0  0  0
  190.9450  173.3470  139.7790 C   0  0  0  0  0  3  0  0  0  0  0  0
  190.7490  176.6590  142.8570 C   0  0  2  0  0  3  0  0  0  0  0  0
  189.3390  177.1550  143.0340 C   0  0  0  0  0  0  0  0  0  0  0  0
  187.2990  177.3610  144.3340 C   0  0  0  0  0  3  0  0  0  0  0  0
  187.4070  178.2850  142.1000 C   0  0  0  0  0  3  0  0  0  0  0  0
  188.7250  177.8330  141.9770 C   0  0  0  0  0  3  0  0  0  0  0  0
  186.6930  178.0660  143.2860 C   0  0  0  0  0  0  0  0  0  0  0  0
  188.6140  176.9110  144.2100 C   0  0  0  0  0  3  0  0  0  0  0  0
  185.1850  179.7830  144.1310 N   0  0  0  0  0  2  0  0  0  0  0  0
  184.8440  178.5210  144.8020 C   0  0  0  0  0  2  0  0  0  0  0  0
  185.2660  178.5030  143.4010 C   0  0  2  0  0  3  0  0  0  0  0  0
  192.7570  175.7760  145.9870 C   0  0  0  0  0  2  0  0  0  0  0  0
  192.1320  174.9160  146.8900 O   0  0  0  0  0  0  0  0  0  0  0  0
  191.5120  175.7640  147.8110 C   0  0  0  0  0  2  0  0  0  0  0  0
  189.2810  174.8010  147.2420 C   0  0  0  0  0  1  0  0  0  0  0  0
  190.0970  176.0760  147.3560 C   0  0  0  0  0  2  0  0  0  0  0  0
  188.7920  172.2610  139.3800 O   0  0  0  0  0  0  0  0  0  0  0  0
  189.6840  170.3100  138.3200 C   0  0  0  0  0  1  0  0  0  0  0  0
  189.2580  171.7530  138.1360 C   0  0  0  0  0  2  0  0  0  0  0  0
  1 12  1  0  0  0  0
  1  6  1  1  0  0  0
  2  5  1  0  0  0  0
  2  1  1  0  0  0  0
  3  8  2  0  0  0  0
  3  9  1  0  0  0  0
  4 10  1  0  0  0  0
  5  1  1  0  0  0  0
  6  9  1  0  0  0  0
  7  2  2  0  0  0  0
  9 22  1  0  0  0  0
 10  5  2  0  0  0  0
 11  4  2  0  0  0  0
 11  7  1  0  0  0  0
 12 13  1  1  0  0  0
 12  3  1  0  0  0  0
 13 18  1  0  0  0  0
 15 17  2  0  0  0  0
 16 15  1  0  0  0  0
 16 13  2  0  0  0  0
 17 14  1  0  0  0  0
 18 14  2  0  0  0  0
 19 20  1  0  0  0  0
 21 17  1  1  0  0  0
 21 19  1  0  0  0  0
 21 20  1  0  0  0  0
 22 23  1  0  0  0  0
 23 24  1  0  0  0  0
 25 26  1  0  0  0  0
 26 24  1  0  0  0  0
 27  4  1  0  0  0  0
 29 28  1  0  0  0  0
 29 27  1  0  0  0  0
M  END
>  <MODEL>
8

>  <REMARK>
 VINA RESULT:      -5.7      2.522      6.220
  Name = 
  8 active torsions:
  status: ('A' for Active; 'I' for Inactive)
    1  A    between atoms: C_3  and  C_28
    2  A    between atoms: O_7  and  C_15
    3  A    between atoms: O_7  and  C_26
    4  A    between atoms: C_9  and  O_24
    5  A    between atoms: C_15  and  N_19
    6  A    between atoms: C_18  and  O_24
    7  A    between atoms: C_21  and  C_23
    8  A    between atoms: C_26  and  C_29
                            x       y       z     vdW  Elec       q    Type
                         _______ _______ _______ _____ _____    ______ ____

>  <TORSDO>
F 8

$$$$
=
 OpenBabel11042417253D

 29 33  0  0  1  0  0  0  0  0999 V2000
  190.0550  175.0010  143.5630 C   0  0  1  0  0  0  0  0  0  0  0  0
  190.7440  174.6090  142.4070 C   0  0  0  0  0  0  0  0  0  0  0  0
  190.5620  176.6890  145.0590 C   0  0  0  0  0  0  0  0  0  0  0  0
  189.2890  173.2140  140.5660 C   0  0  0  0  0  0  0  0  0  0  0  0
  189.3300  174.2830  142.6000 C   0  0  0  0  0  0  0  0  0  0  0  0
  190.5910  174.3320  144.8180 C   0  0  0  0  0  2  0  0  0  0  0  0
  191.5080  174.2820  141.3300 C   0  0  0  0  0  3  0  0  0  0  0  0
  190.7610  177.8110  145.6020 O   0  0  0  0  0  0  0  0  0  0  0  0
  190.9250  175.4580  145.6730 N   0  0  0  0  0  0  0  0  0  0  0  0
  188.5330  173.5970  141.7390 C   0  0  0  0  0  3  0  0  0  0  0  0
  190.7060  173.5470  140.3890 C   0  0  0  0  0  3  0  0  0  0  0  0
  189.9420  176.5180  143.7170 C   0  0  2  0  0  3  0  0  0  0  0  0
  188.5100  176.9830  143.7130 C   0  0  0  0  0  0  0  0  0  0  0  0
  186.6760  178.2280  142.7230 C   0  0  0  0  0  3  0  0  0  0  0  0
  186.3590  177.0760  144.8280 C   0  0  0  0  0  3  0  0  0  0  0  0
  187.6860  176.6390  144.7890 C   0  0  0  0  0  3  0  0  0  0  0  0
  185.8420  177.8590  143.7860 C   0  0  0  0  0  0  0  0  0  0  0  0
  188.0010  177.7900  142.6850 C   0  0  0  0  0  3  0  0  0  0  0  0
  184.4280  179.7700  144.3170 N   0  0  0  0  0  2  0  0  0  0  0  0
  184.0640  178.6800  145.2320 C   0  0  0  0  0  2  0  0  0  0  0  0
  184.4370  178.3710  143.8500 C   0  0  2  0  0  3  0  0  0  0  0  0
  191.4460  175.3270  147.0230 C   0  0  0  0  0  2  0  0  0  0  0  0
  192.5510  176.1630  147.1820 O   0  0  0  0  0  0  0  0  0  0  0  0
  193.5890  175.5020  146.5200 C   0  0  0  0  0  2  0  0  0  0  0  0
  194.1620  176.0910  144.1630 C   0  0  0  0  0  1  0  0  0  0  0  0
  194.3330  176.4750  145.6220 C   0  0  0  0  0  2  0  0  0  0  0  0
  188.6700  172.4940  139.5400 O   0  0  0  0  0  0  0  0  0  0  0  0
  189.3060  172.2670  137.2440 C   0  0  0  0  0  1  0  0  0  0  0  0
  188.4550  173.0280  138.2400 C   0  0  0  0  0  2  0  0  0  0  0  0
  1 12  1  0  0  0  0
  1  6  1  1  0  0  0
  2  5  1  0  0  0  0
  2  1  1  0  0  0  0
  3  8  2  0  0  0  0
  3  9  1  0  0  0  0
  4 10  1  0  0  0  0
  5  1  1  0  0  0  0
  6  9  1  0  0  0  0
  7  2  2  0  0  0  0
  9 22  1  0  0  0  0
 10  5  2  0  0  0  0
 11  4  2  0  0  0  0
 11  7  1  0  0  0  0
 12 13  1  1  0  0  0
 12  3  1  0  0  0  0
 13 16  1  0  0  0  0
 14 17  2  0  0  0  0
 16 15  2  0  0  0  0
 17 15  1  0  0  0  0
 18 14  1  0  0  0  0
 18 13  2  0  0  0  0
 19 20  1  0  0  0  0
 21 17  1  1  0  0  0
 21 19  1  0  0  0  0
 21 20  1  0  0  0  0
 22 23  1  0  0  0  0
 24 23  1  0  0  0  0
 25 26  1  0  0  0  0
 26 24  1  0  0  0  0
 27  4  1  0  0  0  0
 28 29  1  0  0  0  0
 29 27  1  0  0  0  0
M  END
>  <MODEL>
9

>  <REMARK>
 VINA RESULT:      -5.5      2.422      5.771
  Name = 
  8 active torsions:
  status: ('A' for Active; 'I' for Inactive)
    1  A    between atoms: C_3  and  C_28
    2  A    between atoms: O_7  and  C_15
    3  A    between atoms: O_7  and  C_26
    4  A    between atoms: C_9  and  O_24
    5  A    between atoms: C_15  and  N_19
    6  A    between atoms: C_18  and  O_24
    7  A    between atoms: C_21  and  C_23
    8  A    between atoms: C_26  and  C_29
                            x       y       z     vdW  Elec       q    Type
                         _______ _______ _______ _____ _____    ______ ____

>  <TORSDO>
F 8

$$$$
