=
 OpenBabel11042415473D

 54 59  0  0  1  0  0  0  0  0999 V2000
  192.3170  177.0230  142.7390 C   0  0  0  0  0  1  0  0  0  0  0  0
  191.0000  175.2640  143.7630 N   0  0  0  0  0  0  0  0  0  0  0  0
  191.1960  175.1720  145.2110 C   0  0  1  0  0  3  0  0  0  0  0  0
  192.6640  175.4050  145.5360 C   0  0  1  0  0  3  0  0  0  0  0  0
  193.1370  174.3510  146.5190 C   0  0  0  0  0  1  0  0  0  0  0  0
  193.3640  175.2280  144.2140 C   0  0  1  0  0  3  0  0  0  0  0  0
  192.3020  175.5620  143.1720 C   0  0  2  0  0  3  0  0  0  0  0  0
  185.9420  177.0800  146.6610 C   0  0  0  0  0  0  0  0  0  0  0  0
  186.6420  176.0780  147.0480 N   0  0  0  0  0  0  0  0  0  0  0  0
  190.2590  176.1270  145.9550 C   0  0  2  0  0  3  0  0  0  0  0  0
  186.7100  178.2050  146.3200 N   0  0  0  0  0  2  0  0  0  0  0  0
  184.5260  177.0340  146.5450 N   0  0  0  0  0  1  0  0  0  0  0  0
  188.6760  177.9550  145.1540 C   0  0  0  0  0  2  0  0  0  0  0  0
  188.9000  175.4950  146.2790 C   0  0  0  0  0  2  0  0  0  0  0  0
  188.0320  176.5070  147.0360 C   0  0  1  0  0  3  0  0  0  0  0  0
  188.0660  177.8950  146.4860 N   0  0  2  0  0  0  0  0  0  0  0  0
  190.1200  177.4560  145.1970 C   0  0  0  0  0  2  0  0  0  0  0  0
  194.7550  177.0200  145.0930 O   0  0  0  0  0  1  0  0  0  0  0  0
  194.6790  176.0280  144.1090 C   0  0  1  0  0  3  0  0  0  0  0  0
  195.8350  175.2080  144.1240 O   0  0  0  0  0  0  0  0  0  0  0  0
  196.7180  175.6410  143.1250 C   0  0  0  0  0  2  0  0  0  0  0  0
  197.0480  174.5000  142.1830 C   0  0  0  0  0  2  0  0  0  0  0  0
  196.1780  174.5330  141.0150 N   0  0  0  0  0  0  0  0  0  0  0  0
  195.8920  175.0960  138.7620 O   0  0  0  0  0  0  0  0  0  0  0  0
  196.6240  175.1440  139.7860 C   0  0  0  0  0  0  0  0  0  0  0  0
  197.8580  175.7820  139.7090 O   0  0  0  0  0  1  0  0  0  0  0  0
  194.8600  173.9250  141.0820 C   0  0  0  0  0  2  0  0  0  0  0  0
  194.3680  171.5350  141.9230 C   0  0  2  0  0  3  0  0  0  0  0  0
  194.9020  172.4160  140.8000 C   0  0  1  0  0  3  0  0  0  0  0  0
  193.9830  172.1190  139.6390 C   0  0  0  0  0  2  0  0  0  0  0  0
  192.6030  172.1440  140.1180 N   0  0  0  0  0  0  0  0  0  0  0  0
  192.5620  171.4340  141.7510 S   0  0  0  0  0  0  0  0  0  0  0  0
  194.9120  171.1060  144.3210 C   0  0  0  0  0  0  0  0  0  0  0  0
  194.7710  171.9530  143.3030 C   0  0  0  0  0  3  0  0  0  0  0  0
  196.5010  172.3090  145.7910 C   0  0  0  0  0  1  0  0  0  0  0  0
  195.2670  171.6280  145.5640 O   0  0  0  0  0  0  0  0  0  0  0  0
  193.6180  169.2230  144.9440 O   0  0  0  0  0  1  0  0  0  0  0  0
  194.6800  169.6360  144.1390 C   0  0  0  0  0  2  0  0  0  0  0  0
  191.8330  171.2670  139.2460 C   0  0  0  0  0  2  0  0  0  0  0  0
  189.4740  171.2320  138.4660 C   0  0  0  0  0  1  0  0  0  0  0  0
  191.2000  172.4140  137.1420 C   0  0  0  0  0  1  0  0  0  0  0  0
  190.7430  172.0570  138.5460 C   0  0  0  0  0  3  0  0  0  0  0  0
  190.6540  174.0230  143.3430 O   0  0  0  0  0  0  0  0  0  0  0  0
  189.2400  174.7070  141.5650 C   0  0  1  0  0  3  0  0  0  0  0  0
  189.3150  174.1270  142.9640 C   0  0  1  0  0  3  0  0  0  0  0  0
  189.0660  173.2060  141.7850 C   0  0  1  0  0  3  0  0  0  0  0  0
  187.7200  172.8320  141.7580 O   0  0  0  0  0  1  0  0  0  0  0  0
  187.9870  175.3570  141.3850 O   0  0  0  0  0  0  0  0  0  0  0  0
  187.6890  176.6640  141.8050 C   0  0  0  0  0  0  0  0  0  0  0  0
  188.6150  177.5540  141.6910 N   0  0  0  0  0  2  0  0  0  0  0  0
  185.4230  177.8540  141.4640 C   0  0  0  0  0  2  0  0  0  0  0  0
  185.7190  176.2770  143.2860 F   0  0  0  0  0  0  0  0  0  0  0  0
  186.1260  178.5760  142.6100 C   0  0  0  0  0  2  0  0  0  0  0  0
  186.3580  177.1020  142.3770 C   0  0  0  0  0  0  0  0  0  0  0  0
  3  2  1  6  0  0  0
  3  4  1  0  0  0  0
  3 10  1  0  0  0  0
  4  5  1  1  0  0  0
  6 19  1  1  0  0  0
  6  4  1  0  0  0  0
  7  1  1  1  0  0  0
  7  2  1  0  0  0  0
  7  6  1  0  0  0  0
  8  9  2  0  0  0  0
 10 17  1  6  0  0  0
 10 14  1  0  0  0  0
 11 16  1  0  0  0  0
 11  8  1  0  0  0  0
 12  8  1  0  0  0  0
 13 17  1  0  0  0  0
 15 14  1  6  0  0  0
 15  9  1  0  0  0  0
 16 13  1  6  0  0  0
 16 15  1  0  0  0  0
 19 20  1  0  0  0  0
 19 18  1  1  0  0  0
 21 20  1  0  0  0  0
 22 21  1  0  0  0  0
 23 27  1  0  0  0  0
 23 22  1  0  0  0  0
 24 25  2  0  0  0  0
 25 23  1  0  0  0  0
 26 25  1  0  0  0  0
 28 34  1  1  0  0  0
 29 27  1  1  0  0  0
 29 28  1  0  0  0  0
 30 31  1  0  0  0  0
 30 29  1  0  0  0  0
 31 32  1  0  0  0  0
 32 28  1  0  0  0  0
 33 36  1  0  0  0  0
 34 33  2  0  0  0  0
 36 35  1  0  0  0  0
 38 33  1  0  0  0  0
 38 37  1  0  0  0  0
 39 31  1  0  0  0  0
 40 42  1  0  0  0  0
 41 42  1  0  0  0  0
 42 39  1  0  0  0  0
 43  2  1  0  0  0  0
 44 48  1  1  0  0  0
 44 46  1  0  0  0  0
 44 45  1  0  0  0  0
 45 43  1  6  0  0  0
 46 47  1  1  0  0  0
 46 45  1  0  0  0  0
 48 49  1  0  0  0  0
 49 54  1  0  0  0  0
 50 49  2  0  0  0  0
 51 54  1  0  0  0  0
 51 53  1  0  0  0  0
 54 53  1  0  0  0  0
 54 52  1  0  0  0  0
M  END
>  <MODEL>
1

>  <REMARK>
 VINA RESULT:      -6.1      0.000      0.000
  Name = 
  18 active torsions:
  status: ('A' for Active; 'I' for Inactive)
    1  A    between atoms: C_1  and  O_47
    2  A    between atoms: C_1  and  C_51
    3  A    between atoms: C_2  and  O_5
    4  A    between atoms: C_2  and  C_40
    5  A    between atoms: N_4  and  O_28
    6  A    between atoms: O_5  and  C_31
    7  A    between atoms: C_8  and  N_15
    8  A    between atoms: C_8  and  C_18
    9  A    between atoms: C_9  and  O_32
   10  A    between atoms: C_10  and  N_33
   11  A    between atoms: C_10  and  C_50
   12  A    between atoms: C_13  and  C_20
   13  A    between atoms: C_14  and  C_17
   14  A    between atoms: N_15  and  C_40
   15  A    between atoms: C_19  and  O_28
   16  A    between atoms: C_27  and  C_31
   17  A    between atoms: O_32  and  C_34
   18  A    between atoms: C_34  and  C_54
                            x       y       z     vdW  Elec       q    Type
                         _______ _______ _______ _____ _____    ______ ____

>  <TORSDO>
F 18

$$$$
=
 OpenBabel11042415473D

 54 59  0  0  1  0  0  0  0  0999 V2000
  191.5980  177.4760  143.2640 C   0  0  0  0  0  1  0  0  0  0  0  0
  190.6370  175.3280  143.8470 N   0  0  0  0  0  0  0  0  0  0  0  0
  190.9900  174.8920  145.2000 C   0  0  1  0  0  3  0  0  0  0  0  0
  192.4400  175.2570  145.4840 C   0  0  1  0  0  3  0  0  0  0  0  0
  193.1470  174.0700  146.1110 C   0  0  0  0  0  1  0  0  0  0  0  0
  193.0190  175.5430  144.1240 C   0  0  1  0  0  3  0  0  0  0  0  0
  191.8220  175.9690  143.2810 C   0  0  2  0  0  3  0  0  0  0  0  0
  186.1910  177.7470  146.6660 C   0  0  0  0  0  0  0  0  0  0  0  0
  186.3990  176.5580  146.2370 N   0  0  0  0  0  0  0  0  0  0  0  0
  190.0150  175.4610  146.2330 C   0  0  2  0  0  3  0  0  0  0  0  0
  187.2290  178.2450  147.4710 N   0  0  0  0  0  2  0  0  0  0  0  0
  185.0380  178.5040  146.3200 N   0  0  0  0  0  1  0  0  0  0  0  0
  189.4220  177.8440  146.9090 C   0  0  0  0  0  2  0  0  0  0  0  0
  188.5800  175.5630  145.7030 C   0  0  0  0  0  2  0  0  0  0  0  0
  187.6680  176.1230  146.8010 C   0  0  1  0  0  3  0  0  0  0  0  0
  188.2370  177.2760  147.5590 N   0  0  2  0  0  0  0  0  0  0  0  0
  190.5290  176.7970  146.7920 C   0  0  0  0  0  2  0  0  0  0  0  0
  194.2260  177.2550  145.3620 O   0  0  0  0  0  1  0  0  0  0  0  0
  194.1980  176.5380  144.1600 C   0  0  1  0  0  3  0  0  0  0  0  0
  195.4520  175.9290  143.9030 O   0  0  0  0  0  0  0  0  0  0  0  0
  195.4930  175.5130  142.5650 C   0  0  0  0  0  2  0  0  0  0  0  0
  196.4560  174.3530  142.4050 C   0  0  0  0  0  2  0  0  0  0  0  0
  195.7590  173.0840  142.5700 N   0  0  0  0  0  0  0  0  0  0  0  0
  194.9940  171.4060  144.0100 O   0  0  0  0  0  0  0  0  0  0  0  0
  195.6660  172.4610  143.8680 C   0  0  0  0  0  0  0  0  0  0  0  0
  196.3040  173.0140  144.9750 O   0  0  0  0  0  1  0  0  0  0  0  0
  195.1310  172.4540  141.4210 C   0  0  0  0  0  2  0  0  0  0  0  0
  193.6700  173.4070  139.5190 C   0  0  2  0  0  3  0  0  0  0  0  0
  193.8270  173.1560  141.0140 C   0  0  1  0  0  3  0  0  0  0  0  0
  192.6680  172.2490  141.3530 C   0  0  0  0  0  2  0  0  0  0  0  0
  192.5910  171.1930  140.3460 N   0  0  0  0  0  0  0  0  0  0  0  0
  192.9980  171.8980  138.7610 S   0  0  0  0  0  0  0  0  0  0  0  0
  194.9110  174.7830  137.8470 C   0  0  0  0  0  0  0  0  0  0  0  0
  194.9080  173.8730  138.8200 C   0  0  0  0  0  3  0  0  0  0  0  0
  197.3200  175.3290  138.0210 C   0  0  0  0  0  1  0  0  0  0  0  0
  196.1320  175.1110  137.2590 O   0  0  0  0  0  0  0  0  0  0  0  0
  193.1360  174.7320  136.2800 O   0  0  0  0  0  1  0  0  0  0  0  0
  193.6350  175.4210  137.3850 C   0  0  0  0  0  2  0  0  0  0  0  0
  191.2010  170.7640  140.2840 C   0  0  0  0  0  2  0  0  0  0  0  0
  189.5200  171.1190  138.4880 C   0  0  0  0  0  1  0  0  0  0  0  0
  190.6570  168.9310  138.7060 C   0  0  0  0  0  1  0  0  0  0  0  0
  190.8230  170.4340  138.8510 C   0  0  0  0  0  3  0  0  0  0  0  0
  190.4200  174.2020  143.1260 O   0  0  0  0  0  0  0  0  0  0  0  0
  188.9330  174.7420  141.3580 C   0  0  1  0  0  3  0  0  0  0  0  0
  189.0670  174.2450  142.7840 C   0  0  1  0  0  3  0  0  0  0  0  0
  188.8120  173.2520  141.6660 C   0  0  1  0  0  3  0  0  0  0  0  0
  187.4780  172.8380  141.7010 O   0  0  0  0  0  1  0  0  0  0  0  0
  187.6560  175.3440  141.1800 O   0  0  0  0  0  0  0  0  0  0  0  0
  187.4390  176.6990  140.8770 C   0  0  0  0  0  0  0  0  0  0  0  0
  186.8160  176.9750  139.7830 N   0  0  0  0  0  2  0  0  0  0  0  0
  187.6610  177.7310  143.2330 C   0  0  0  0  0  2  0  0  0  0  0  0
  189.0270  178.5510  141.4010 F   0  0  0  0  0  0  0  0  0  0  0  0
  186.8210  178.7030  142.4090 C   0  0  0  0  0  2  0  0  0  0  0  0
  187.8810  177.8560  141.7470 C   0  0  0  0  0  0  0  0  0  0  0  0
  3  2  1  6  0  0  0
  3  4  1  0  0  0  0
  3 10  1  0  0  0  0
  4  5  1  6  0  0  0
  6 19  1  1  0  0  0
  6  4  1  0  0  0  0
  7  1  1  1  0  0  0
  7  2  1  0  0  0  0
  7  6  1  0  0  0  0
  8 11  1  0  0  0  0
  9  8  2  0  0  0  0
  9 15  1  0  0  0  0
 10 14  1  6  0  0  0
 10 17  1  0  0  0  0
 11 16  1  0  0  0  0
 12  8  1  0  0  0  0
 15 14  1  6  0  0  0
 15 16  1  0  0  0  0
 16 13  1  6  0  0  0
 17 13  1  0  0  0  0
 19 18  1  1  0  0  0
 20 19  1  0  0  0  0
 21 20  1  0  0  0  0
 22 21  1  0  0  0  0
 22 23  1  0  0  0  0
 23 25  1  0  0  0  0
 25 24  2  0  0  0  0
 25 26  1  0  0  0  0
 27 23  1  0  0  0  0
 28 34  1  6  0  0  0
 28 29  1  0  0  0  0
 29 30  1  0  0  0  0
 29 27  1  6  0  0  0
 31 30  1  0  0  0  0
 32 28  1  0  0  0  0
 32 31  1  0  0  0  0
 33 34  2  0  0  0  0
 36 33  1  0  0  0  0
 36 35  1  0  0  0  0
 37 38  1  0  0  0  0
 38 33  1  0  0  0  0
 39 31  1  0  0  0  0
 40 42  1  0  0  0  0
 41 42  1  0  0  0  0
 42 39  1  0  0  0  0
 43  2  1  0  0  0  0
 44 48  1  1  0  0  0
 44 46  1  0  0  0  0
 44 45  1  0  0  0  0
 45 43  1  6  0  0  0
 46 47  1  1  0  0  0
 46 45  1  0  0  0  0
 49 48  1  0  0  0  0
 49 54  1  0  0  0  0
 50 49  2  0  0  0  0
 52 54  1  0  0  0  0
 53 51  1  0  0  0  0
 54 53  1  0  0  0  0
 54 51  1  0  0  0  0
M  END
>  <MODEL>
2

>  <REMARK>
 VINA RESULT:      -6.1      1.604      3.433
  Name = 
  18 active torsions:
  status: ('A' for Active; 'I' for Inactive)
    1  A    between atoms: C_1  and  O_47
    2  A    between atoms: C_1  and  C_51
    3  A    between atoms: C_2  and  O_5
    4  A    between atoms: C_2  and  C_40
    5  A    between atoms: N_4  and  O_28
    6  A    between atoms: O_5  and  C_31
    7  A    between atoms: C_8  and  N_15
    8  A    between atoms: C_8  and  C_18
    9  A    between atoms: C_9  and  O_32
   10  A    between atoms: C_10  and  N_33
   11  A    between atoms: C_10  and  C_50
   12  A    between atoms: C_13  and  C_20
   13  A    between atoms: C_14  and  C_17
   14  A    between atoms: N_15  and  C_40
   15  A    between atoms: C_19  and  O_28
   16  A    between atoms: C_27  and  C_31
   17  A    between atoms: O_32  and  C_34
   18  A    between atoms: C_34  and  C_54
                            x       y       z     vdW  Elec       q    Type
                         _______ _______ _______ _____ _____    ______ ____

>  <TORSDO>
F 18

$$$$
=
 OpenBabel11042415473D

 54 59  0  0  1  0  0  0  0  0999 V2000
  191.3820  177.7860  143.6330 C   0  0  0  0  0  1  0  0  0  0  0  0
  190.4220  175.5900  144.0010 N   0  0  0  0  0  0  0  0  0  0  0  0
  190.6540  175.0850  145.3560 C   0  0  1  0  0  3  0  0  0  0  0  0
  192.0600  175.4600  145.7990 C   0  0  1  0  0  3  0  0  0  0  0  0
  192.7320  174.2530  146.4260 C   0  0  0  0  0  1  0  0  0  0  0  0
  192.7610  175.8350  144.5200 C   0  0  1  0  0  3  0  0  0  0  0  0
  191.6400  176.2850  143.5890 C   0  0  2  0  0  3  0  0  0  0  0  0
  185.8740  178.0890  146.5670 C   0  0  0  0  0  0  0  0  0  0  0  0
  186.0700  176.9630  145.9880 N   0  0  0  0  0  0  0  0  0  0  0  0
  189.5700  175.5760  146.3190 C   0  0  2  0  0  3  0  0  0  0  0  0
  186.8060  178.3730  147.5780 N   0  0  0  0  0  2  0  0  0  0  0  0
  184.8360  178.9820  146.1870 N   0  0  0  0  0  1  0  0  0  0  0  0
  189.0310  177.8750  147.2730 C   0  0  0  0  0  2  0  0  0  0  0  0
  188.2410  175.8760  145.6150 C   0  0  0  0  0  2  0  0  0  0  0  0
  187.2090  176.3430  146.6490 C   0  0  1  0  0  3  0  0  0  0  0  0
  187.7270  177.3200  147.6530 N   0  0  2  0  0  0  0  0  0  0  0  0
  190.0750  176.7660  147.1490 C   0  0  0  0  0  2  0  0  0  0  0  0
  193.8730  177.4040  146.0090 O   0  0  0  0  0  1  0  0  0  0  0  0
  193.9060  176.8480  144.7250 C   0  0  1  0  0  3  0  0  0  0  0  0
  195.1860  176.3110  144.4370 O   0  0  0  0  0  0  0  0  0  0  0  0
  195.2460  175.9730  143.0780 C   0  0  0  0  0  2  0  0  0  0  0  0
  196.4900  175.1550  142.7940 C   0  0  0  0  0  2  0  0  0  0  0  0
  196.1750  174.0330  141.9180 N   0  0  0  0  0  0  0  0  0  0  0  0
  195.8340  173.2400  139.7440 O   0  0  0  0  0  0  0  0  0  0  0  0
  196.0290  174.2310  140.4970 C   0  0  0  0  0  0  0  0  0  0  0  0
  196.1060  175.5030  139.9390 O   0  0  0  0  0  1  0  0  0  0  0  0
  196.0330  172.7010  142.4810 C   0  0  0  0  0  2  0  0  0  0  0  0
  193.8130  171.4670  142.9420 C   0  0  2  0  0  3  0  0  0  0  0  0
  194.7780  172.5710  143.3570 C   0  0  1  0  0  3  0  0  0  0  0  0
  195.2050  172.1750  144.7500 C   0  0  0  0  0  2  0  0  0  0  0  0
  195.5360  170.7510  144.7500 N   0  0  0  0  0  0  0  0  0  0  0  0
  194.3890  169.9090  143.6780 S   0  0  0  0  0  0  0  0  0  0  0  0
  192.3920  171.2630  140.9000 C   0  0  0  0  0  0  0  0  0  0  0  0
  193.5950  171.3360  141.4670 C   0  0  0  0  0  3  0  0  0  0  0  0
  191.3640  171.7960  138.7110 C   0  0  0  0  0  1  0  0  0  0  0  0
  192.3280  171.1160  139.5150 O   0  0  0  0  0  0  0  0  0  0  0  0
  190.6170  170.0380  141.8780 O   0  0  0  0  0  1  0  0  0  0  0  0
  191.1440  171.3200  141.7290 C   0  0  0  0  0  2  0  0  0  0  0  0
  195.3060  170.2600  146.1010 C   0  0  0  0  0  2  0  0  0  0  0  0
  197.6820  169.7150  145.6160 C   0  0  0  0  0  1  0  0  0  0  0  0
  196.3080  168.1670  146.9740 C   0  0  0  0  0  1  0  0  0  0  0  0
  196.5730  169.6270  146.6460 C   0  0  0  0  0  3  0  0  0  0  0  0
  190.3020  174.5030  143.2010 O   0  0  0  0  0  0  0  0  0  0  0  0
  188.7130  175.6010  141.8240 C   0  0  1  0  0  3  0  0  0  0  0  0
  188.9610  174.4820  142.8160 C   0  0  1  0  0  3  0  0  0  0  0  0
  188.8810  174.1650  141.3350 C   0  0  1  0  0  3  0  0  0  0  0  0
  187.6510  173.5680  141.0480 O   0  0  0  0  0  1  0  0  0  0  0  0
  187.3430  175.9820  141.8660 O   0  0  0  0  0  0  0  0  0  0  0  0
  186.7530  176.9610  141.0490 C   0  0  0  0  0  0  0  0  0  0  0  0
  187.1040  176.9970  139.8090 N   0  0  0  0  0  2  0  0  0  0  0  0
  186.0800  178.7930  142.7390 C   0  0  0  0  0  2  0  0  0  0  0  0
  184.9810  178.6540  140.5790 F   0  0  0  0  0  0  0  0  0  0  0  0
  185.0060  177.7110  142.8180 C   0  0  0  0  0  2  0  0  0  0  0  0
  185.7320  177.9740  141.5210 C   0  0  0  0  0  0  0  0  0  0  0  0
  3  2  1  6  0  0  0
  3  4  1  0  0  0  0
  3 10  1  0  0  0  0
  4  5  1  6  0  0  0
  6 19  1  1  0  0  0
  6  4  1  0  0  0  0
  7  1  1  1  0  0  0
  7  2  1  0  0  0  0
  7  6  1  0  0  0  0
  8 11  1  0  0  0  0
  9  8  2  0  0  0  0
  9 15  1  0  0  0  0
 10 14  1  6  0  0  0
 10 17  1  0  0  0  0
 11 16  1  0  0  0  0
 12  8  1  0  0  0  0
 15 14  1  6  0  0  0
 15 16  1  0  0  0  0
 16 13  1  6  0  0  0
 17 13  1  0  0  0  0
 19 18  1  1  0  0  0
 20 19  1  0  0  0  0
 21 20  1  0  0  0  0
 22 21  1  0  0  0  0
 23 27  1  0  0  0  0
 23 22  1  0  0  0  0
 24 25  2  0  0  0  0
 25 23  1  0  0  0  0
 26 25  1  0  0  0  0
 28 34  1  6  0  0  0
 28 29  1  0  0  0  0
 28 32  1  0  0  0  0
 29 27  1  6  0  0  0
 29 30  1  0  0  0  0
 30 31  1  0  0  0  0
 31 39  1  0  0  0  0
 32 31  1  0  0  0  0
 33 34  2  0  0  0  0
 33 38  1  0  0  0  0
 35 36  1  0  0  0  0
 36 33  1  0  0  0  0
 38 37  1  0  0  0  0
 39 42  1  0  0  0  0
 40 42  1  0  0  0  0
 42 41  1  0  0  0  0
 43  2  1  0  0  0  0
 44 48  1  1  0  0  0
 44 45  1  0  0  0  0
 45 43  1  6  0  0  0
 46 47  1  1  0  0  0
 46 44  1  0  0  0  0
 46 45  1  0  0  0  0
 49 54  1  0  0  0  0
 49 48  1  0  0  0  0
 50 49  2  0  0  0  0
 51 53  1  0  0  0  0
 52 54  1  0  0  0  0
 54 51  1  0  0  0  0
 54 53  1  0  0  0  0
M  END
>  <MODEL>
3

>  <REMARK>
 VINA RESULT:      -6.1      1.906      3.788
  Name = 
  18 active torsions:
  status: ('A' for Active; 'I' for Inactive)
    1  A    between atoms: C_1  and  O_47
    2  A    between atoms: C_1  and  C_51
    3  A    between atoms: C_2  and  O_5
    4  A    between atoms: C_2  and  C_40
    5  A    between atoms: N_4  and  O_28
    6  A    between atoms: O_5  and  C_31
    7  A    between atoms: C_8  and  N_15
    8  A    between atoms: C_8  and  C_18
    9  A    between atoms: C_9  and  O_32
   10  A    between atoms: C_10  and  N_33
   11  A    between atoms: C_10  and  C_50
   12  A    between atoms: C_13  and  C_20
   13  A    between atoms: C_14  and  C_17
   14  A    between atoms: N_15  and  C_40
   15  A    between atoms: C_19  and  O_28
   16  A    between atoms: C_27  and  C_31
   17  A    between atoms: O_32  and  C_34
   18  A    between atoms: C_34  and  C_54
                            x       y       z     vdW  Elec       q    Type
                         _______ _______ _______ _____ _____    ______ ____

>  <TORSDO>
F 18

$$$$
=
 OpenBabel11042415473D

 54 59  0  0  1  0  0  0  0  0999 V2000
  191.6850  175.2260  142.0040 C   0  0  0  0  0  1  0  0  0  0  0  0
  192.7810  173.0770  142.2390 N   0  0  0  0  0  0  0  0  0  0  0  0
  192.8900  172.3490  140.9730 C   0  0  1  0  0  3  0  0  0  0  0  0
  191.6140  172.5450  140.1690 C   0  0  1  0  0  3  0  0  0  0  0  0
  191.1490  171.2090  139.6220 C   0  0  0  0  0  1  0  0  0  0  0  0
  190.6210  173.0630  141.1760 C   0  0  1  0  0  3  0  0  0  0  0  0
  191.4780  173.7360  142.2440 C   0  0  2  0  0  3  0  0  0  0  0  0
  195.5750  174.6110  136.3890 C   0  0  0  0  0  0  0  0  0  0  0  0
  194.9540  175.1350  137.3800 N   0  0  0  0  0  0  0  0  0  0  0  0
  194.1500  172.7610  140.2080 C   0  0  2  0  0  3  0  0  0  0  0  0
  196.2410  173.4170  136.7090 N   0  0  0  0  0  2  0  0  0  0  0  0
  195.5490  175.1660  135.0810 N   0  0  0  0  0  1  0  0  0  0  0  0
  195.2440  171.8700  138.0880 C   0  0  0  0  0  2  0  0  0  0  0  0
  193.9060  173.9290  139.2450 C   0  0  0  0  0  2  0  0  0  0  0  0
  195.2160  174.2890  138.5350 C   0  0  1  0  0  3  0  0  0  0  0  0
  196.0120  173.1190  138.0590 N   0  0  2  0  0  0  0  0  0  0  0  0
  194.7870  171.5500  139.5110 C   0  0  0  0  0  2  0  0  0  0  0  0
  189.5610  173.8980  139.1520 O   0  0  0  0  0  1  0  0  0  0  0  0
  189.5210  173.9450  140.5500 C   0  0  1  0  0  3  0  0  0  0  0  0
  188.2220  173.6420  141.0310 O   0  0  0  0  0  0  0  0  0  0  0  0
  187.8120  174.6510  141.9130 C   0  0  0  0  0  2  0  0  0  0  0  0
  188.1050  176.0170  141.3230 C   0  0  0  0  0  2  0  0  0  0  0  0
  187.6850  177.0700  142.2380 N   0  0  0  0  0  0  0  0  0  0  0  0
  186.0750  178.6550  142.8450 O   0  0  0  0  0  1  0  0  0  0  0  0
  186.4640  177.8030  142.0040 C   0  0  0  0  0  0  0  0  0  0  0  0
  185.7020  177.5770  140.8610 O   0  0  0  0  0  0  0  0  0  0  0  0
  188.4900  177.3660  143.4110 C   0  0  0  0  0  2  0  0  0  0  0  0
  189.4630  176.3460  145.5730 C   0  0  2  0  0  3  0  0  0  0  0  0
  188.4340  176.2410  144.4540 C   0  0  1  0  0  3  0  0  0  0  0  0
  187.1080  176.3200  145.1730 C   0  0  0  0  0  2  0  0  0  0  0  0
  187.1650  177.4170  146.1380 N   0  0  0  0  0  0  0  0  0  0  0  0
  188.7970  177.4530  146.8510 S   0  0  0  0  0  0  0  0  0  0  0  0
  191.9560  176.2200  145.6030 C   0  0  0  0  0  0  0  0  0  0  0  0
  190.8330  176.7640  145.1370 C   0  0  0  0  0  3  0  0  0  0  0  0
  194.3230  176.8490  145.9650 C   0  0  0  0  0  1  0  0  0  0  0  0
  193.1700  176.7180  145.1340 O   0  0  0  0  0  0  0  0  0  0  0  0
  191.7590  175.6520  147.8940 O   0  0  0  0  0  1  0  0  0  0  0  0
  191.9150  175.1150  146.6160 C   0  0  0  0  0  2  0  0  0  0  0  0
  186.2330  177.0920  147.2090 C   0  0  0  0  0  2  0  0  0  0  0  0
  184.3410  178.3000  146.1420 C   0  0  0  0  0  1  0  0  0  0  0  0
  185.9510  179.5280  147.5670 C   0  0  0  0  0  1  0  0  0  0  0  0
  185.2210  178.2100  147.3740 C   0  0  0  0  0  3  0  0  0  0  0  0
  192.7500  172.1410  143.2180 O   0  0  0  0  0  0  0  0  0  0  0  0
  194.3730  173.4390  144.3630 C   0  0  1  0  0  3  0  0  0  0  0  0
  194.0500  172.1010  143.7260 C   0  0  1  0  0  3  0  0  0  0  0  0
  193.9920  172.2450  145.2340 C   0  0  1  0  0  3  0  0  0  0  0  0
  195.1150  171.6420  145.8070 O   0  0  0  0  0  1  0  0  0  0  0  0
  195.7810  173.6470  144.3480 O   0  0  0  0  0  0  0  0  0  0  0  0
  196.5000  174.2180  143.2850 C   0  0  0  0  0  0  0  0  0  0  0  0
  197.2620  173.4410  142.5940 N   0  0  0  0  0  2  0  0  0  0  0  0
  195.2980  176.1150  142.0120 C   0  0  0  0  0  2  0  0  0  0  0  0
  196.8460  176.6320  143.8100 F   0  0  0  0  0  0  0  0  0  0  0  0
  196.7180  176.0470  141.4550 C   0  0  0  0  0  2  0  0  0  0  0  0
  196.4420  175.6780  142.8930 C   0  0  0  0  0  0  0  0  0  0  0  0
  2  7  1  0  0  0  0
  2 43  1  0  0  0  0
  3  2  1  1  0  0  0
  4  5  1  1  0  0  0
  4  3  1  0  0  0  0
  4  6  1  0  0  0  0
  6 19  1  6  0  0  0
  6  7  1  0  0  0  0
  7  1  1  6  0  0  0
  8 11  1  0  0  0  0
  8  9  2  0  0  0  0
  9 15  1  0  0  0  0
 10 14  1  6  0  0  0
 10  3  1  0  0  0  0
 11 16  1  0  0  0  0
 12  8  1  0  0  0  0
 13 17  1  0  0  0  0
 15 14  1  6  0  0  0
 16 13  1  6  0  0  0
 16 15  1  0  0  0  0
 17 10  1  0  0  0  0
 19 18  1  6  0  0  0
 19 20  1  0  0  0  0
 20 21  1  0  0  0  0
 22 21  1  0  0  0  0
 22 23  1  0  0  0  0
 23 27  1  0  0  0  0
 25 23  1  0  0  0  0
 25 24  1  0  0  0  0
 26 25  2  0  0  0  0
 28 34  1  6  0  0  0
 28 32  1  0  0  0  0
 29 27  1  6  0  0  0
 29 30  1  0  0  0  0
 29 28  1  0  0  0  0
 30 31  1  0  0  0  0
 31 32  1  0  0  0  0
 31 39  1  0  0  0  0
 33 38  1  0  0  0  0
 34 33  2  0  0  0  0
 36 33  1  0  0  0  0
 36 35  1  0  0  0  0
 38 37  1  0  0  0  0
 39 42  1  0  0  0  0
 40 42  1  0  0  0  0
 42 41  1  0  0  0  0
 44 48  1  1  0  0  0
 44 46  1  0  0  0  0
 45 43  1  6  0  0  0
 45 44  1  0  0  0  0
 45 46  1  0  0  0  0
 46 47  1  1  0  0  0
 49 48  1  0  0  0  0
 50 49  2  0  0  0  0
 51 54  1  0  0  0  0
 53 51  1  0  0  0  0
 53 54  1  0  0  0  0
 54 49  1  0  0  0  0
 54 52  1  0  0  0  0
M  END
>  <MODEL>
4

>  <REMARK>
 VINA RESULT:      -6.0      2.923      9.257
  Name = 
  18 active torsions:
  status: ('A' for Active; 'I' for Inactive)
    1  A    between atoms: C_1  and  O_47
    2  A    between atoms: C_1  and  C_51
    3  A    between atoms: C_2  and  O_5
    4  A    between atoms: C_2  and  C_40
    5  A    between atoms: N_4  and  O_28
    6  A    between atoms: O_5  and  C_31
    7  A    between atoms: C_8  and  N_15
    8  A    between atoms: C_8  and  C_18
    9  A    between atoms: C_9  and  O_32
   10  A    between atoms: C_10  and  N_33
   11  A    between atoms: C_10  and  C_50
   12  A    between atoms: C_13  and  C_20
   13  A    between atoms: C_14  and  C_17
   14  A    between atoms: N_15  and  C_40
   15  A    between atoms: C_19  and  O_28
   16  A    between atoms: C_27  and  C_31
   17  A    between atoms: O_32  and  C_34
   18  A    between atoms: C_34  and  C_54
                            x       y       z     vdW  Elec       q    Type
                         _______ _______ _______ _____ _____    ______ ____

>  <TORSDO>
F 18

$$$$
=
 OpenBabel11042415473D

 54 59  0  0  1  0  0  0  0  0999 V2000
  189.1770  171.9940  143.0920 C   0  0  0  0  0  1  0  0  0  0  0  0
  189.2890  173.8420  141.5260 N   0  0  0  0  0  0  0  0  0  0  0  0
  190.3480  173.6820  140.5280 C   0  0  1  0  0  3  0  0  0  0  0  0
  191.5790  173.0830  141.1920 C   0  0  1  0  0  3  0  0  0  0  0  0
  192.8120  173.8530  140.7620 C   0  0  0  0  0  1  0  0  0  0  0  0
  191.3350  173.2810  142.6650 C   0  0  1  0  0  3  0  0  0  0  0  0
  189.8170  173.3450  142.7950 C   0  0  2  0  0  3  0  0  0  0  0  0
  190.7940  169.2900  136.8070 C   0  0  0  0  0  0  0  0  0  0  0  0
  190.3990  169.3630  138.0240 N   0  0  0  0  0  0  0  0  0  0  0  0
  189.8570  172.8670  139.3290 C   0  0  2  0  0  3  0  0  0  0  0  0
  190.5130  170.4420  136.0530 N   0  0  0  0  0  2  0  0  0  0  0  0
  191.4910  168.1660  136.2870 N   0  0  0  0  0  1  0  0  0  0  0  0
  190.7870  172.5270  136.9830 C   0  0  0  0  0  2  0  0  0  0  0  0
  190.2800  171.3950  139.3980 C   0  0  0  0  0  2  0  0  0  0  0  0
  189.7350  170.6490  138.1750 C   0  0  1  0  0  3  0  0  0  0  0  0
  189.8800  171.3790  136.8800 N   0  0  2  0  0  0  0  0  0  0  0  0
  190.2690  173.5350  138.0090 C   0  0  0  0  0  2  0  0  0  0  0  0
  192.6600  171.2440  142.7720 O   0  0  0  0  0  1  0  0  0  0  0  0
  192.0370  172.2290  143.5470 C   0  0  1  0  0  3  0  0  0  0  0  0
  192.9470  172.7950  144.4760 O   0  0  0  0  0  0  0  0  0  0  0  0
  193.7810  171.7850  144.9750 C   0  0  0  0  0  2  0  0  0  0  0  0
  195.0430  172.3870  145.5600 C   0  0  0  0  0  2  0  0  0  0  0  0
  196.1790  172.1500  144.6780 N   0  0  0  0  0  0  0  0  0  0  0  0
  197.6500  170.6200  143.6950 O   0  0  0  0  0  0  0  0  0  0  0  0
  196.7200  170.8220  144.5200 C   0  0  0  0  0  0  0  0  0  0  0  0
  196.2250  169.7540  145.2610 O   0  0  0  0  0  1  0  0  0  0  0  0
  196.7540  173.2570  143.9340 C   0  0  0  0  0  2  0  0  0  0  0  0
  195.7110  175.2510  142.6700 C   0  0  2  0  0  3  0  0  0  0  0  0
  195.8310  173.7390  142.8040 C   0  0  1  0  0  3  0  0  0  0  0  0
  196.4240  173.3040  141.4840 C   0  0  0  0  0  2  0  0  0  0  0  0
  197.5380  174.1920  141.1570 N   0  0  0  0  0  0  0  0  0  0  0  0
  197.1090  175.8430  141.6700 S   0  0  0  0  0  0  0  0  0  0  0  0
  194.4470  176.4160  144.4800 C   0  0  0  0  0  0  0  0  0  0  0  0
  195.6010  175.9960  143.9640 C   0  0  0  0  0  3  0  0  0  0  0  0
  193.8200  176.6730  146.8610 C   0  0  0  0  0  1  0  0  0  0  0  0
  194.4850  177.1230  145.6810 O   0  0  0  0  0  0  0  0  0  0  0  0
  192.3720  177.3100  143.7710 O   0  0  0  0  0  1  0  0  0  0  0  0
  193.1480  176.1510  143.7810 C   0  0  0  0  0  2  0  0  0  0  0  0
  197.6590  174.2080  139.7060 C   0  0  0  0  0  2  0  0  0  0  0  0
  196.6040  172.6630  138.0700 C   0  0  0  0  0  1  0  0  0  0  0  0
  195.7180  174.9570  138.3590 C   0  0  0  0  0  1  0  0  0  0  0  0
  196.3510  173.7740  139.0710 C   0  0  0  0  0  3  0  0  0  0  0  0
  189.1000  175.1750  141.6770 O   0  0  0  0  0  0  0  0  0  0  0  0
  188.2090  176.4840  143.4420 C   0  0  1  0  0  3  0  0  0  0  0  0
  188.0010  175.2930  142.5280 C   0  0  1  0  0  3  0  0  0  0  0  0
  187.2890  176.5990  142.2310 C   0  0  1  0  0  3  0  0  0  0  0  0
  185.9430  176.4920  142.5910 O   0  0  0  0  0  1  0  0  0  0  0  0
  187.4700  176.2980  144.6450 O   0  0  0  0  0  0  0  0  0  0  0  0
  188.0070  176.3690  145.9410 C   0  0  0  0  0  0  0  0  0  0  0  0
  187.3000  176.9480  146.8500 N   0  0  0  0  0  2  0  0  0  0  0  0
  189.6160  174.3540  146.0610 C   0  0  0  0  0  2  0  0  0  0  0  0
  190.4730  176.6190  146.2310 F   0  0  0  0  0  0  0  0  0  0  0  0
  189.4130  174.8350  147.4960 C   0  0  0  0  0  2  0  0  0  0  0  0
  189.3550  175.8120  146.3450 C   0  0  0  0  0  0  0  0  0  0  0  0
  2 43  1  0  0  0  0
  2  7  1  0  0  0  0
  3  4  1  0  0  0  0
  3  2  1  1  0  0  0
  4  5  1  6  0  0  0
  4  6  1  0  0  0  0
  6  7  1  0  0  0  0
  6 19  1  1  0  0  0
  7  1  1  6  0  0  0
  8  9  2  0  0  0  0
  9 15  1  0  0  0  0
 10 17  1  6  0  0  0
 10 14  1  0  0  0  0
 10  3  1  0  0  0  0
 11  8  1  0  0  0  0
 11 16  1  0  0  0  0
 12  8  1  0  0  0  0
 13 17  1  0  0  0  0
 15 14  1  1  0  0  0
 16 13  1  1  0  0  0
 16 15  1  0  0  0  0
 19 18  1  6  0  0  0
 19 20  1  0  0  0  0
 20 21  1  0  0  0  0
 21 22  1  0  0  0  0
 23 22  1  0  0  0  0
 24 25  2  0  0  0  0
 25 23  1  0  0  0  0
 25 26  1  0  0  0  0
 27 23  1  0  0  0  0
 28 29  1  0  0  0  0
 28 34  1  1  0  0  0
 29 27  1  1  0  0  0
 30 29  1  0  0  0  0
 31 30  1  0  0  0  0
 31 32  1  0  0  0  0
 32 28  1  0  0  0  0
 33 36  1  0  0  0  0
 34 33  2  0  0  0  0
 36 35  1  0  0  0  0
 37 38  1  0  0  0  0
 38 33  1  0  0  0  0
 39 31  1  0  0  0  0
 40 42  1  0  0  0  0
 41 42  1  0  0  0  0
 42 39  1  0  0  0  0
 44 48  1  1  0  0  0
 45 43  1  6  0  0  0
 45 44  1  0  0  0  0
 46 45  1  0  0  0  0
 46 47  1  1  0  0  0
 46 44  1  0  0  0  0
 48 49  1  0  0  0  0
 49 54  1  0  0  0  0
 49 50  2  0  0  0  0
 51 54  1  0  0  0  0
 51 53  1  0  0  0  0
 52 54  1  0  0  0  0
 54 53  1  0  0  0  0
M  END
>  <MODEL>
5

>  <REMARK>
 VINA RESULT:      -5.9      2.561      6.787
  Name = 
  18 active torsions:
  status: ('A' for Active; 'I' for Inactive)
    1  A    between atoms: C_1  and  O_47
    2  A    between atoms: C_1  and  C_51
    3  A    between atoms: C_2  and  O_5
    4  A    between atoms: C_2  and  C_40
    5  A    between atoms: N_4  and  O_28
    6  A    between atoms: O_5  and  C_31
    7  A    between atoms: C_8  and  N_15
    8  A    between atoms: C_8  and  C_18
    9  A    between atoms: C_9  and  O_32
   10  A    between atoms: C_10  and  N_33
   11  A    between atoms: C_10  and  C_50
   12  A    between atoms: C_13  and  C_20
   13  A    between atoms: C_14  and  C_17
   14  A    between atoms: N_15  and  C_40
   15  A    between atoms: C_19  and  O_28
   16  A    between atoms: C_27  and  C_31
   17  A    between atoms: O_32  and  C_34
   18  A    between atoms: C_34  and  C_54
                            x       y       z     vdW  Elec       q    Type
                         _______ _______ _______ _____ _____    ______ ____

>  <TORSDO>
F 18

$$$$
=
 OpenBabel11042415473D

 54 59  0  0  1  0  0  0  0  0999 V2000
  189.7710  173.7330  145.2030 C   0  0  0  0  0  1  0  0  0  0  0  0
  190.6670  175.4300  143.7220 N   0  0  0  0  0  0  0  0  0  0  0  0
  189.8760  175.6000  142.5010 C   0  0  1  0  0  3  0  0  0  0  0  0
  189.4050  174.2380  142.0130 C   0  0  1  0  0  3  0  0  0  0  0  0
  189.6450  174.1250  140.5200 C   0  0  0  0  0  1  0  0  0  0  0  0
  190.2820  173.2600  142.7510 C   0  0  1  0  0  3  0  0  0  0  0  0
  190.6930  174.0000  144.0200 C   0  0  2  0  0  3  0  0  0  0  0  0
  185.7760  178.0170  145.7690 C   0  0  0  0  0  0  0  0  0  0  0  0
  187.0470  178.1670  145.7170 N   0  0  0  0  0  0  0  0  0  0  0  0
  188.7280  176.5870  142.7230 C   0  0  2  0  0  3  0  0  0  0  0  0
  185.1910  177.7200  144.5270 N   0  0  0  0  0  2  0  0  0  0  0  0
  185.0380  178.0980  146.9810 N   0  0  0  0  0  1  0  0  0  0  0  0
  186.2270  176.2640  143.0800 C   0  0  0  0  0  2  0  0  0  0  0  0
  188.5880  177.0160  144.1890 C   0  0  0  0  0  2  0  0  0  0  0  0
  187.4310  178.0140  144.3210 C   0  0  1  0  0  3  0  0  0  0  0  0
  186.2000  177.6500  143.5580 N   0  0  2  0  0  0  0  0  0  0  0  0
  187.4150  176.0370  142.1460 C   0  0  0  0  0  2  0  0  0  0  0  0
  188.2410  171.9370  142.7130 O   0  0  0  0  0  1  0  0  0  0  0  0
  189.6160  171.8850  142.9660 C   0  0  1  0  0  3  0  0  0  0  0  0
  190.2300  170.8450  142.2240 O   0  0  0  0  0  0  0  0  0  0  0  0
  191.6200  170.9190  142.3930 C   0  0  0  0  0  2  0  0  0  0  0  0
  192.3110  169.8810  141.5300 C   0  0  0  0  0  2  0  0  0  0  0  0
  193.6790  170.2880  141.2390 N   0  0  0  0  0  0  0  0  0  0  0  0
  195.9130  170.3980  141.9270 O   0  0  0  0  0  0  0  0  0  0  0  0
  194.7210  170.1150  142.2220 C   0  0  0  0  0  0  0  0  0  0  0  0
  194.4320  169.6310  143.4940 O   0  0  0  0  0  1  0  0  0  0  0  0
  194.0010  170.8490  139.9380 C   0  0  0  0  0  2  0  0  0  0  0  0
  194.2420  173.2930  139.1440 C   0  0  2  0  0  3  0  0  0  0  0  0
  193.3300  172.2120  139.7120 C   0  0  1  0  0  3  0  0  0  0  0  0
  192.2600  172.0510  138.6580 C   0  0  0  0  0  2  0  0  0  0  0  0
  192.9020  171.9790  137.3470 N   0  0  0  0  0  0  0  0  0  0  0  0
  194.2830  173.1050  137.3370 S   0  0  0  0  0  0  0  0  0  0  0  0
  196.1680  174.4250  140.2560 C   0  0  0  0  0  0  0  0  0  0  0  0
  195.6200  173.3330  139.7280 C   0  0  0  0  0  3  0  0  0  0  0  0
  197.9380  173.2110  141.4910 C   0  0  0  0  0  1  0  0  0  0  0  0
  197.4710  174.3340  140.7440 O   0  0  0  0  0  0  0  0  0  0  0  0
  196.1810  176.6880  140.9550 O   0  0  0  0  0  1  0  0  0  0  0  0
  195.4130  175.7190  140.3090 C   0  0  0  0  0  2  0  0  0  0  0  0
  191.9380  172.4700  136.3730 C   0  0  0  0  0  2  0  0  0  0  0  0
  189.6020  171.6500  136.5970 C   0  0  0  0  0  1  0  0  0  0  0  0
  190.0740  174.0800  136.6600 C   0  0  0  0  0  1  0  0  0  0  0  0
  190.5960  172.7050  137.0420 C   0  0  0  0  0  3  0  0  0  0  0  0
  191.9360  175.7870  143.4090 O   0  0  0  0  0  0  0  0  0  0  0  0
  193.8020  176.5580  144.6550 C   0  0  1  0  0  3  0  0  0  0  0  0
  192.6780  175.5440  144.5660 C   0  0  1  0  0  3  0  0  0  0  0  0
  192.5410  176.7340  145.4960 C   0  0  1  0  0  3  0  0  0  0  0  0
  192.7370  176.3230  146.8170 O   0  0  0  0  0  1  0  0  0  0  0  0
  194.8720  176.0190  145.4240 O   0  0  0  0  0  0  0  0  0  0  0  0
  195.7920  175.0610  144.9650 C   0  0  0  0  0  0  0  0  0  0  0  0
  196.5700  175.3970  143.9940 N   0  0  0  0  0  2  0  0  0  0  0  0
  197.0580  173.4270  146.5120 C   0  0  0  0  0  2  0  0  0  0  0  0
  194.7930  172.9290  145.7900 F   0  0  0  0  0  0  0  0  0  0  0  0
  197.1230  172.8360  145.1060 C   0  0  0  0  0  2  0  0  0  0  0  0
  195.9360  173.6660  145.5320 C   0  0  0  0  0  0  0  0  0  0  0  0
  2  7  1  0  0  0  0
  3 10  1  0  0  0  0
  3  2  1  1  0  0  0
  4  5  1  6  0  0  0
  4  3  1  0  0  0  0
  4  6  1  0  0  0  0
  6 19  1  1  0  0  0
  6  7  1  0  0  0  0
  7  1  1  1  0  0  0
  8 12  1  0  0  0  0
  9  8  2  0  0  0  0
 10 17  1  1  0  0  0
 10 14  1  0  0  0  0
 11  8  1  0  0  0  0
 15 14  1  1  0  0  0
 15  9  1  0  0  0  0
 16 13  1  1  0  0  0
 16 15  1  0  0  0  0
 16 11  1  0  0  0  0
 17 13  1  0  0  0  0
 19 18  1  6  0  0  0
 20 21  1  0  0  0  0
 20 19  1  0  0  0  0
 22 21  1  0  0  0  0
 23 22  1  0  0  0  0
 23 25  1  0  0  0  0
 24 25  2  0  0  0  0
 25 26  1  0  0  0  0
 27 23  1  0  0  0  0
 28 29  1  0  0  0  0
 28 34  1  1  0  0  0
 29 27  1  6  0  0  0
 30 29  1  0  0  0  0
 31 30  1  0  0  0  0
 32 31  1  0  0  0  0
 32 28  1  0  0  0  0
 33 38  1  0  0  0  0
 33 36  1  0  0  0  0
 34 33  2  0  0  0  0
 36 35  1  0  0  0  0
 38 37  1  0  0  0  0
 39 42  1  0  0  0  0
 39 31  1  0  0  0  0
 40 42  1  0  0  0  0
 41 42  1  0  0  0  0
 43  2  1  0  0  0  0
 44 48  1  1  0  0  0
 44 46  1  0  0  0  0
 45 43  1  6  0  0  0
 45 44  1  0  0  0  0
 45 46  1  0  0  0  0
 46 47  1  1  0  0  0
 49 48  1  0  0  0  0
 49 54  1  0  0  0  0
 50 49  2  0  0  0  0
 53 54  1  0  0  0  0
 53 51  1  0  0  0  0
 54 52  1  0  0  0  0
 54 51  1  0  0  0  0
M  END
>  <MODEL>
6

>  <REMARK>
 VINA RESULT:      -5.7      2.383      5.895
  Name = 
  18 active torsions:
  status: ('A' for Active; 'I' for Inactive)
    1  A    between atoms: C_1  and  O_47
    2  A    between atoms: C_1  and  C_51
    3  A    between atoms: C_2  and  O_5
    4  A    between atoms: C_2  and  C_40
    5  A    between atoms: N_4  and  O_28
    6  A    between atoms: O_5  and  C_31
    7  A    between atoms: C_8  and  N_15
    8  A    between atoms: C_8  and  C_18
    9  A    between atoms: C_9  and  O_32
   10  A    between atoms: C_10  and  N_33
   11  A    between atoms: C_10  and  C_50
   12  A    between atoms: C_13  and  C_20
   13  A    between atoms: C_14  and  C_17
   14  A    between atoms: N_15  and  C_40
   15  A    between atoms: C_19  and  O_28
   16  A    between atoms: C_27  and  C_31
   17  A    between atoms: O_32  and  C_34
   18  A    between atoms: C_34  and  C_54
                            x       y       z     vdW  Elec       q    Type
                         _______ _______ _______ _____ _____    ______ ____

>  <TORSDO>
F 18

$$$$
=
 OpenBabel11042415473D

 54 59  0  0  1  0  0  0  0  0999 V2000
  189.8600  173.8990  145.3190 C   0  0  0  0  0  1  0  0  0  0  0  0
  190.9340  175.5250  143.8760 N   0  0  0  0  0  0  0  0  0  0  0  0
  190.1350  175.8580  142.6950 C   0  0  1  0  0  3  0  0  0  0  0  0
  189.4650  174.5980  142.1690 C   0  0  1  0  0  3  0  0  0  0  0  0
  189.6390  174.5230  140.6640 C   0  0  0  0  0  1  0  0  0  0  0  0
  190.2220  173.4760  142.8320 C   0  0  1  0  0  3  0  0  0  0  0  0
  190.7720  174.0920  144.1130 C   0  0  2  0  0  3  0  0  0  0  0  0
  185.4820  177.9720  145.3810 C   0  0  0  0  0  0  0  0  0  0  0  0
  186.6830  177.7500  145.7670 N   0  0  0  0  0  0  0  0  0  0  0  0
  189.1420  176.9810  143.0020 C   0  0  2  0  0  3  0  0  0  0  0  0
  185.3840  178.3450  144.0310 N   0  0  0  0  0  2  0  0  0  0  0  0
  184.3550  177.8080  146.2320 N   0  0  0  0  0  1  0  0  0  0  0  0
  186.6780  177.2990  142.4440 C   0  0  0  0  0  2  0  0  0  0  0  0
  188.5120  176.8540  144.3950 C   0  0  0  0  0  2  0  0  0  0  0  0
  187.5480  178.0220  144.6290 C   0  0  1  0  0  3  0  0  0  0  0  0
  186.6670  178.3490  143.4690 N   0  0  2  0  0  0  0  0  0  0  0  0
  188.0880  177.0980  141.8910 C   0  0  0  0  0  2  0  0  0  0  0  0
  188.1430  172.3000  142.3660 O   0  0  0  0  0  1  0  0  0  0  0  0
  189.3800  172.1960  143.0140 C   0  0  1  0  0  3  0  0  0  0  0  0
  190.0620  171.0180  142.6200 O   0  0  0  0  0  0  0  0  0  0  0  0
  190.3260  171.0780  141.2450 C   0  0  0  0  0  2  0  0  0  0  0  0
  191.4270  170.1030  140.8780 C   0  0  0  0  0  2  0  0  0  0  0  0
  192.7230  170.6060  141.3150 N   0  0  0  0  0  0  0  0  0  0  0  0
  194.5650  170.3890  142.7400 O   0  0  0  0  0  0  0  0  0  0  0  0
  193.4120  169.9940  142.4250 C   0  0  0  0  0  0  0  0  0  0  0  0
  192.8240  168.9620  143.1510 O   0  0  0  0  0  1  0  0  0  0  0  0
  193.3360  171.7190  140.6100 C   0  0  0  0  0  2  0  0  0  0  0  0
  193.4260  172.1650  138.0700 C   0  0  2  0  0  3  0  0  0  0  0  0
  193.8900  171.3050  139.2390 C   0  0  1  0  0  3  0  0  0  0  0  0
  195.3880  171.4880  139.2520 C   0  0  0  0  0  2  0  0  0  0  0  0
  195.6860  172.9120  139.1100 N   0  0  0  0  0  0  0  0  0  0  0  0
  194.5090  173.6210  137.9760 S   0  0  0  0  0  0  0  0  0  0  0  0
  191.0530  172.0110  137.3110 C   0  0  0  0  0  0  0  0  0  0  0  0
  191.9800  172.5510  138.1000 C   0  0  0  0  0  3  0  0  0  0  0  0
  189.2920  173.6650  136.7680 C   0  0  0  0  0  1  0  0  0  0  0  0
  189.7440  172.4800  137.4220 O   0  0  0  0  0  0  0  0  0  0  0  0
  190.2480  170.3630  135.8140 O   0  0  0  0  0  1  0  0  0  0  0  0
  191.4100  170.9440  136.3210 C   0  0  0  0  0  2  0  0  0  0  0  0
  196.9990  173.0140  138.4890 C   0  0  0  0  0  2  0  0  0  0  0  0
  197.1190  174.5550  140.4350 C   0  0  0  0  0  1  0  0  0  0  0  0
  197.9400  175.2910  138.2190 C   0  0  0  0  0  1  0  0  0  0  0  0
  197.8090  174.1070  139.1620 C   0  0  0  0  0  3  0  0  0  0  0  0
  192.2300  175.7200  143.5310 O   0  0  0  0  0  0  0  0  0  0  0  0
  194.2350  176.2830  144.6670 C   0  0  1  0  0  3  0  0  0  0  0  0
  192.9590  175.4640  144.6930 C   0  0  1  0  0  3  0  0  0  0  0  0
  193.0460  176.7390  145.5080 C   0  0  1  0  0  3  0  0  0  0  0  0
  193.2150  176.4230  146.8590 O   0  0  0  0  0  1  0  0  0  0  0  0
  195.2270  175.6470  145.4660 O   0  0  0  0  0  0  0  0  0  0  0  0
  196.3170  174.9150  144.9660 C   0  0  0  0  0  0  0  0  0  0  0  0
  196.9400  175.3940  143.9440 N   0  0  0  0  0  2  0  0  0  0  0  0
  197.6830  172.7450  144.6630 C   0  0  0  0  0  2  0  0  0  0  0  0
  197.1370  173.5510  146.8870 F   0  0  0  0  0  0  0  0  0  0  0  0
  196.2530  172.3190  144.9880 C   0  0  0  0  0  2  0  0  0  0  0  0
  196.8130  173.6070  145.5430 C   0  0  0  0  0  0  0  0  0  0  0  0
  2  7  1  0  0  0  0
  3 10  1  0  0  0  0
  3  2  1  1  0  0  0
  4  5  1  6  0  0  0
  4  3  1  0  0  0  0
  4  6  1  0  0  0  0
  6 19  1  1  0  0  0
  6  7  1  0  0  0  0
  7  1  1  1  0  0  0
  8  9  2  0  0  0  0
  8 12  1  0  0  0  0
 10 17  1  6  0  0  0
 10 14  1  0  0  0  0
 11  8  1  0  0  0  0
 15 14  1  6  0  0  0
 15  9  1  0  0  0  0
 16 13  1  6  0  0  0
 16 11  1  0  0  0  0
 16 15  1  0  0  0  0
 17 13  1  0  0  0  0
 19 18  1  6  0  0  0
 20 19  1  0  0  0  0
 21 20  1  0  0  0  0
 22 21  1  0  0  0  0
 22 23  1  0  0  0  0
 23 25  1  0  0  0  0
 25 24  2  0  0  0  0
 25 26  1  0  0  0  0
 27 23  1  0  0  0  0
 28 34  1  1  0  0  0
 28 29  1  0  0  0  0
 29 30  1  0  0  0  0
 29 27  1  1  0  0  0
 31 30  1  0  0  0  0
 32 28  1  0  0  0  0
 32 31  1  0  0  0  0
 33 36  1  0  0  0  0
 33 34  2  0  0  0  0
 35 36  1  0  0  0  0
 37 38  1  0  0  0  0
 38 33  1  0  0  0  0
 39 31  1  0  0  0  0
 39 42  1  0  0  0  0
 41 42  1  0  0  0  0
 42 40  1  0  0  0  0
 43  2  1  0  0  0  0
 44 45  1  0  0  0  0
 44 48  1  1  0  0  0
 44 46  1  0  0  0  0
 45 43  1  6  0  0  0
 45 46  1  0  0  0  0
 46 47  1  1  0  0  0
 49 48  1  0  0  0  0
 49 54  1  0  0  0  0
 50 49  2  0  0  0  0
 51 53  1  0  0  0  0
 51 54  1  0  0  0  0
 53 54  1  0  0  0  0
 54 52  1  0  0  0  0
M  END
>  <MODEL>
7

>  <REMARK>
 VINA RESULT:      -5.5      2.747      6.782
  Name = 
  18 active torsions:
  status: ('A' for Active; 'I' for Inactive)
    1  A    between atoms: C_1  and  O_47
    2  A    between atoms: C_1  and  C_51
    3  A    between atoms: C_2  and  O_5
    4  A    between atoms: C_2  and  C_40
    5  A    between atoms: N_4  and  O_28
    6  A    between atoms: O_5  and  C_31
    7  A    between atoms: C_8  and  N_15
    8  A    between atoms: C_8  and  C_18
    9  A    between atoms: C_9  and  O_32
   10  A    between atoms: C_10  and  N_33
   11  A    between atoms: C_10  and  C_50
   12  A    between atoms: C_13  and  C_20
   13  A    between atoms: C_14  and  C_17
   14  A    between atoms: N_15  and  C_40
   15  A    between atoms: C_19  and  O_28
   16  A    between atoms: C_27  and  C_31
   17  A    between atoms: O_32  and  C_34
   18  A    between atoms: C_34  and  C_54
                            x       y       z     vdW  Elec       q    Type
                         _______ _______ _______ _____ _____    ______ ____

>  <TORSDO>
F 18

$$$$
=
 OpenBabel11042415473D

 54 59  0  0  1  0  0  0  0  0999 V2000
  189.6300  172.0780  143.0120 C   0  0  0  0  0  1  0  0  0  0  0  0
  190.0590  174.3730  142.3580 N   0  0  0  0  0  0  0  0  0  0  0  0
  189.2360  174.8100  141.2280 C   0  0  1  0  0  3  0  0  0  0  0  0
  189.1120  173.6710  140.2260 C   0  0  1  0  0  3  0  0  0  0  0  0
  189.3540  174.2010  138.8260 C   0  0  0  0  0  1  0  0  0  0  0  0
  190.2130  172.7200  140.6150 C   0  0  1  0  0  3  0  0  0  0  0  0
  190.4430  172.9880  142.0980 C   0  0  2  0  0  3  0  0  0  0  0  0
  185.8330  178.9510  143.3760 C   0  0  0  0  0  0  0  0  0  0  0  0
  186.3160  178.7400  142.2080 N   0  0  0  0  0  0  0  0  0  0  0  0
  187.8810  175.3370  141.7060 C   0  0  2  0  0  3  0  0  0  0  0  0
  185.5520  177.7750  144.0900 N   0  0  0  0  0  2  0  0  0  0  0  0
  185.6460  180.2540  143.9110 N   0  0  0  0  0  1  0  0  0  0  0  0
  187.0060  175.9950  144.0060 C   0  0  0  0  0  2  0  0  0  0  0  0
  187.7410  176.8550  141.5380 C   0  0  0  0  0  2  0  0  0  0  0  0
  186.3550  177.2970  142.0220 C   0  0  1  0  0  3  0  0  0  0  0  0
  185.9100  176.6720  143.3030 N   0  0  2  0  0  0  0  0  0  0  0  0
  187.5920  174.8770  143.1430 C   0  0  0  0  0  2  0  0  0  0  0  0
  189.0060  171.1720  139.1760 O   0  0  0  0  0  1  0  0  0  0  0  0
  189.9120  171.2530  140.2400 C   0  0  1  0  0  3  0  0  0  0  0  0
  191.0790  170.4950  139.9720 O   0  0  0  0  0  0  0  0  0  0  0  0
  191.3000  169.6030  141.0300 C   0  0  0  0  0  2  0  0  0  0  0  0
  192.7820  169.5000  141.3310 C   0  0  0  0  0  2  0  0  0  0  0  0
  193.1520  170.4180  142.4000 N   0  0  0  0  0  0  0  0  0  0  0  0
  193.5780  170.7570  144.6750 O   0  0  0  0  0  1  0  0  0  0  0  0
  193.1810  169.9740  143.7720 C   0  0  0  0  0  0  0  0  0  0  0  0
  192.7830  168.6860  144.1160 O   0  0  0  0  0  0  0  0  0  0  0  0
  193.5190  171.7870  142.0770 C   0  0  0  0  0  2  0  0  0  0  0  0
  194.8860  172.8590  140.1690 C   0  0  2  0  0  3  0  0  0  0  0  0
  194.8560  171.8680  141.3260 C   0  0  1  0  0  3  0  0  0  0  0  0
  195.9080  172.3880  142.2760 C   0  0  0  0  0  2  0  0  0  0  0  0
  195.7310  173.8310  142.4250 N   0  0  0  0  0  0  0  0  0  0  0  0
  195.2590  174.5050  140.8440 S   0  0  0  0  0  0  0  0  0  0  0  0
  193.6700  173.1000  138.0030 C   0  0  0  0  0  0  0  0  0  0  0  0
  193.6560  172.8770  139.3160 C   0  0  0  0  0  3  0  0  0  0  0  0
  191.8400  171.9330  136.8110 C   0  0  0  0  0  1  0  0  0  0  0  0
  192.4500  173.1150  137.3280 O   0  0  0  0  0  0  0  0  0  0  0  0
  194.6910  173.7810  135.9770 O   0  0  0  0  0  1  0  0  0  0  0  0
  194.9570  173.3460  137.2750 C   0  0  0  0  0  2  0  0  0  0  0  0
  197.0340  174.3890  142.7600 C   0  0  0  0  0  2  0  0  0  0  0  0
  195.6620  175.0840  144.7120 C   0  0  0  0  0  1  0  0  0  0  0  0
  196.7670  176.7930  143.3020 C   0  0  0  0  0  1  0  0  0  0  0  0
  196.8940  175.3960  143.8860 C   0  0  0  0  0  3  0  0  0  0  0  0
  191.1960  175.1090  142.3110 O   0  0  0  0  0  0  0  0  0  0  0  0
  192.1540  176.2580  144.1520 C   0  0  1  0  0  3  0  0  0  0  0  0
  190.9810  176.1670  143.1960 C   0  0  1  0  0  3  0  0  0  0  0  0
  192.0490  177.2190  142.9710 C   0  0  1  0  0  3  0  0  0  0  0  0
  191.5660  178.4700  143.3640 O   0  0  0  0  0  1  0  0  0  0  0  0
  191.7350  176.8720  145.3650 O   0  0  0  0  0  0  0  0  0  0  0  0
  190.5540  176.5630  146.0600 C   0  0  0  0  0  0  0  0  0  0  0  0
  189.6020  177.4320  146.0380 N   0  0  0  0  0  2  0  0  0  0  0  0
  189.7490  174.1100  146.0700 C   0  0  0  0  0  2  0  0  0  0  0  0
  191.2120  174.9280  147.8260 F   0  0  0  0  0  0  0  0  0  0  0  0
  188.8960  174.8520  147.0950 C   0  0  0  0  0  2  0  0  0  0  0  0
  190.3200  175.2810  146.8300 C   0  0  0  0  0  0  0  0  0  0  0  0
  3 10  1  0  0  0  0
  3  2  1  1  0  0  0
  4  5  1  6  0  0  0
  4  6  1  0  0  0  0
  4  3  1  0  0  0  0
  6 19  1  1  0  0  0
  6  7  1  0  0  0  0
  7  2  1  0  0  0  0
  7  1  1  1  0  0  0
  8 12  1  0  0  0  0
  8 11  1  0  0  0  0
  9  8  2  0  0  0  0
 10 14  1  1  0  0  0
 10 17  1  0  0  0  0
 15 14  1  1  0  0  0
 15  9  1  0  0  0  0
 15 16  1  0  0  0  0
 16 13  1  1  0  0  0
 16 11  1  0  0  0  0
 17 13  1  0  0  0  0
 19 18  1  6  0  0  0
 20 19  1  0  0  0  0
 20 21  1  0  0  0  0
 21 22  1  0  0  0  0
 22 23  1  0  0  0  0
 23 25  1  0  0  0  0
 25 26  2  0  0  0  0
 25 24  1  0  0  0  0
 27 23  1  0  0  0  0
 28 34  1  1  0  0  0
 28 32  1  0  0  0  0
 28 29  1  0  0  0  0
 29 27  1  1  0  0  0
 29 30  1  0  0  0  0
 30 31  1  0  0  0  0
 31 39  1  0  0  0  0
 32 31  1  0  0  0  0
 33 34  2  0  0  0  0
 35 36  1  0  0  0  0
 36 33  1  0  0  0  0
 37 38  1  0  0  0  0
 38 33  1  0  0  0  0
 39 42  1  0  0  0  0
 41 42  1  0  0  0  0
 42 40  1  0  0  0  0
 43  2  1  0  0  0  0
 44 48  1  1  0  0  0
 45 43  1  6  0  0  0
 45 44  1  0  0  0  0
 46 45  1  0  0  0  0
 46 47  1  1  0  0  0
 46 44  1  0  0  0  0
 48 49  1  0  0  0  0
 49 54  1  0  0  0  0
 50 49  2  0  0  0  0
 51 54  1  0  0  0  0
 51 53  1  0  0  0  0
 54 53  1  0  0  0  0
 54 52  1  0  0  0  0
M  END
>  <MODEL>
8

>  <REMARK>
 VINA RESULT:      -5.5      2.426      6.267
  Name = 
  18 active torsions:
  status: ('A' for Active; 'I' for Inactive)
    1  A    between atoms: C_1  and  O_47
    2  A    between atoms: C_1  and  C_51
    3  A    between atoms: C_2  and  O_5
    4  A    between atoms: C_2  and  C_40
    5  A    between atoms: N_4  and  O_28
    6  A    between atoms: O_5  and  C_31
    7  A    between atoms: C_8  and  N_15
    8  A    between atoms: C_8  and  C_18
    9  A    between atoms: C_9  and  O_32
   10  A    between atoms: C_10  and  N_33
   11  A    between atoms: C_10  and  C_50
   12  A    between atoms: C_13  and  C_20
   13  A    between atoms: C_14  and  C_17
   14  A    between atoms: N_15  and  C_40
   15  A    between atoms: C_19  and  O_28
   16  A    between atoms: C_27  and  C_31
   17  A    between atoms: O_32  and  C_34
   18  A    between atoms: C_34  and  C_54
                            x       y       z     vdW  Elec       q    Type
                         _______ _______ _______ _____ _____    ______ ____

>  <TORSDO>
F 18

$$$$
=
 OpenBabel11042415473D

 54 59  0  0  1  0  0  0  0  0999 V2000
  191.6020  173.4890  143.3320 C   0  0  0  0  0  1  0  0  0  0  0  0
  193.0180  171.5250  143.4400 N   0  0  0  0  0  0  0  0  0  0  0  0
  192.9850  170.7270  142.2120 C   0  0  1  0  0  3  0  0  0  0  0  0
  191.5630  170.6960  141.6720 C   0  0  1  0  0  3  0  0  0  0  0  0
  191.1980  169.2730  141.2910 C   0  0  0  0  0  1  0  0  0  0  0  0
  190.7190  171.1510  142.8330 C   0  0  1  0  0  3  0  0  0  0  0  0
  191.6590  172.0060  143.6760 C   0  0  2  0  0  3  0  0  0  0  0  0
  196.6660  174.7130  140.2370 C   0  0  0  0  0  0  0  0  0  0  0  0
  196.7460  173.8430  141.1740 N   0  0  0  0  0  0  0  0  0  0  0  0
  194.0030  171.2440  141.1930 C   0  0  2  0  0  3  0  0  0  0  0  0
  195.8860  174.2950  139.1460 N   0  0  0  0  0  2  0  0  0  0  0  0
  197.2730  175.9960  140.3190 N   0  0  0  0  0  1  0  0  0  0  0  0
  193.9270  173.1430  139.4980 C   0  0  0  0  0  2  0  0  0  0  0  0
  195.0160  172.2180  141.8060 C   0  0  0  0  0  2  0  0  0  0  0  0
  196.0060  172.6730  140.7270 C   0  0  1  0  0  3  0  0  0  0  0  0
  195.3860  173.0140  139.4120 N   0  0  2  0  0  0  0  0  0  0  0  0
  193.2940  171.8320  139.9640 C   0  0  0  0  0  2  0  0  0  0  0  0
  188.6650  172.2670  143.5060 O   0  0  0  0  0  1  0  0  0  0  0  0
  189.4040  171.8330  142.4000 C   0  0  1  0  0  3  0  0  0  0  0  0
  189.6000  172.8880  141.4740 O   0  0  0  0  0  0  0  0  0  0  0  0
  188.4460  173.6820  141.4320 C   0  0  0  0  0  2  0  0  0  0  0  0
  188.8180  175.1450  141.2920 C   0  0  0  0  0  2  0  0  0  0  0  0
  187.8750  175.9850  142.0190 N   0  0  0  0  0  0  0  0  0  0  0  0
  186.2830  177.6990  141.9650 O   0  0  0  0  0  1  0  0  0  0  0  0
  187.1520  177.0330  141.3410 C   0  0  0  0  0  0  0  0  0  0  0  0
  187.3950  177.3190  140.0010 O   0  0  0  0  0  0  0  0  0  0  0  0
  187.6420  175.7460  143.4330 C   0  0  0  0  0  2  0  0  0  0  0  0
  187.5540  177.3950  145.4170 C   0  0  2  0  0  3  0  0  0  0  0  0
  188.3940  176.7470  144.3230 C   0  0  1  0  0  3  0  0  0  0  0  0
  189.4660  176.0030  145.0820 C   0  0  0  0  0  2  0  0  0  0  0  0
  188.8380  175.2690  146.1790 N   0  0  0  0  0  0  0  0  0  0  0  0
  187.5250  176.2730  146.8450 S   0  0  0  0  0  0  0  0  0  0  0  0
  185.3590  178.5340  145.7570 C   0  0  0  0  0  0  0  0  0  0  0  0
  186.1740  177.7990  145.0010 C   0  0  0  0  0  3  0  0  0  0  0  0
  183.8340  179.0670  143.8800 C   0  0  0  0  0  1  0  0  0  0  0  0
  184.0870  178.8200  145.2630 O   0  0  0  0  0  0  0  0  0  0  0  0
  184.8100  178.7320  148.0520 O   0  0  0  0  0  1  0  0  0  0  0  0
  185.7920  179.0250  147.1050 C   0  0  0  0  0  2  0  0  0  0  0  0
  189.8410  175.1220  147.2240 C   0  0  0  0  0  2  0  0  0  0  0  0
  192.2300  174.8640  146.5870 C   0  0  0  0  0  1  0  0  0  0  0  0
  191.5140  176.8010  147.9520 C   0  0  0  0  0  1  0  0  0  0  0  0
  191.1110  175.8570  146.8320 C   0  0  0  0  0  3  0  0  0  0  0  0
  193.3100  170.6670  144.4470 O   0  0  0  0  0  0  0  0  0  0  0  0
  195.0250  171.9920  145.4100 C   0  0  1  0  0  3  0  0  0  0  0  0
  194.6940  170.7490  144.6070 C   0  0  1  0  0  3  0  0  0  0  0  0
  195.0260  170.6210  146.0810 C   0  0  1  0  0  3  0  0  0  0  0  0
  196.3210  170.1170  146.2290 O   0  0  0  0  0  1  0  0  0  0  0  0
  196.3460  172.4220  145.1000 O   0  0  0  0  0  0  0  0  0  0  0  0
  196.7190  173.7500  144.8300 C   0  0  0  0  0  0  0  0  0  0  0  0
  197.9180  173.9590  144.4050 N   0  0  0  0  0  2  0  0  0  0  0  0
  194.8120  175.2230  143.9020 C   0  0  0  0  0  2  0  0  0  0  0  0
  195.3640  175.2750  146.2660 F   0  0  0  0  0  0  0  0  0  0  0  0
  196.0190  176.1390  144.0910 C   0  0  0  0  0  2  0  0  0  0  0  0
  195.8120  174.9490  144.9980 C   0  0  0  0  0  0  0  0  0  0  0  0
  2  7  1  0  0  0  0
  2 43  1  0  0  0  0
  3  2  1  1  0  0  0
  4  5  1  1  0  0  0
  4  3  1  0  0  0  0
  4  6  1  0  0  0  0
  6 19  1  6  0  0  0
  6  7  1  0  0  0  0
  7  1  1  6  0  0  0
  8 12  1  0  0  0  0
  8  9  2  0  0  0  0
 10 17  1  6  0  0  0
 10 14  1  0  0  0  0
 10  3  1  0  0  0  0
 11 16  1  0  0  0  0
 11  8  1  0  0  0  0
 13 17  1  0  0  0  0
 15  9  1  0  0  0  0
 15 14  1  1  0  0  0
 16 13  1  1  0  0  0
 16 15  1  0  0  0  0
 19 18  1  1  0  0  0
 20 19  1  0  0  0  0
 21 20  1  0  0  0  0
 22 21  1  0  0  0  0
 22 23  1  0  0  0  0
 23 27  1  0  0  0  0
 25 24  1  0  0  0  0
 25 23  1  0  0  0  0
 26 25  2  0  0  0  0
 28 34  1  6  0  0  0
 28 32  1  0  0  0  0
 29 27  1  1  0  0  0
 29 30  1  0  0  0  0
 29 28  1  0  0  0  0
 30 31  1  0  0  0  0
 31 32  1  0  0  0  0
 31 39  1  0  0  0  0
 33 38  1  0  0  0  0
 34 33  2  0  0  0  0
 35 36  1  0  0  0  0
 36 33  1  0  0  0  0
 38 37  1  0  0  0  0
 40 42  1  0  0  0  0
 42 39  1  0  0  0  0
 42 41  1  0  0  0  0
 44 48  1  6  0  0  0
 44 46  1  0  0  0  0
 45 43  1  1  0  0  0
 45 44  1  0  0  0  0
 45 46  1  0  0  0  0
 46 47  1  6  0  0  0
 49 54  1  0  0  0  0
 49 48  1  0  0  0  0
 50 49  2  0  0  0  0
 51 53  1  0  0  0  0
 51 54  1  0  0  0  0
 53 54  1  0  0  0  0
 54 52  1  0  0  0  0
M  END
>  <MODEL>
9

>  <REMARK>
 VINA RESULT:      -5.4      3.055      9.507
  Name = 
  18 active torsions:
  status: ('A' for Active; 'I' for Inactive)
    1  A    between atoms: C_1  and  O_47
    2  A    between atoms: C_1  and  C_51
    3  A    between atoms: C_2  and  O_5
    4  A    between atoms: C_2  and  C_40
    5  A    between atoms: N_4  and  O_28
    6  A    between atoms: O_5  and  C_31
    7  A    between atoms: C_8  and  N_15
    8  A    between atoms: C_8  and  C_18
    9  A    between atoms: C_9  and  O_32
   10  A    between atoms: C_10  and  N_33
   11  A    between atoms: C_10  and  C_50
   12  A    between atoms: C_13  and  C_20
   13  A    between atoms: C_14  and  C_17
   14  A    between atoms: N_15  and  C_40
   15  A    between atoms: C_19  and  O_28
   16  A    between atoms: C_27  and  C_31
   17  A    between atoms: O_32  and  C_34
   18  A    between atoms: C_34  and  C_54
                            x       y       z     vdW  Elec       q    Type
                         _______ _______ _______ _____ _____    ______ ____

>  <TORSDO>
F 18

$$$$
