=
 OpenBabel11042417433D

 48 50  0  0  1  0  0  0  0  0999 V2000
  186.7590  177.4290  144.1560 N   0  0  0  0  0  2  0  0  0  0  0  0
  187.8590  176.5080  144.1270 C   0  0  0  0  0  2  0  0  0  0  0  0
  187.6130  176.1310  141.6680 C   0  0  2  0  0  3  0  0  0  0  0  0
  187.6270  177.5460  141.2750 C   0  0  0  0  0  3  0  0  0  0  0  0
  188.8750  174.5070  143.1530 C   0  0  0  0  0  3  0  0  0  0  0  0
  188.2330  175.8410  143.0130 C   0  0  0  0  0  0  0  0  0  0  0  0
  186.9130  178.4310  141.9380 C   0  0  0  0  0  3  0  0  0  0  0  0
  188.0690  175.2480  140.5630 C   0  0  0  0  0  2  0  0  0  0  0  0
  188.4920  174.0180  140.7480 C   0  0  0  0  0  0  0  0  0  0  0  0
  189.0430  173.6330  142.1150 C   0  0  0  0  0  0  0  0  0  0  0  0
  186.1900  178.1200  143.1740 C   0  0  2  0  0  3  0  0  0  0  0  0
  184.8400  178.6780  143.3270 C   0  0  0  0  0  0  0  0  0  0  0  0
  184.6740  179.8050  143.8740 O   0  0  0  0  0  0  0  0  0  0  0  0
  183.7020  177.9910  142.8510 O   0  0  0  0  0  0  0  0  0  0  0  0
  183.6140  178.2210  140.4510 C   0  0  0  0  0  1  0  0  0  0  0  0
  182.9260  178.5000  141.7690 C   0  0  0  0  0  2  0  0  0  0  0  0
  188.6550  173.2740  139.4850 N   0  0  0  0  0  2  0  0  0  0  0  0
  189.7960  172.7040  138.7290 C   0  0  1  0  0  3  0  0  0  0  0  0
  189.7350  171.1680  138.5710 C   0  0  0  0  0  1  0  0  0  0  0  0
  188.8810  174.3220  137.1690 O   0  0  0  0  0  1  0  0  0  0  0  0
  189.8970  173.3730  137.3350 C   0  0  1  0  0  3  0  0  0  0  0  0
  191.4530  174.9710  136.4280 O   0  0  0  0  0  0  0  0  0  0  0  0
  191.2480  174.0200  137.1890 C   0  0  0  0  0  0  0  0  0  0  0  0
  192.4130  173.4590  137.9560 C   0  0  0  0  0  2  0  0  0  0  0  0
  193.3660  174.4670  138.1790 O   0  0  0  0  0  0  0  0  0  0  0  0
  192.2420  174.3960  140.7870 O   0  0  0  0  0  1  0  0  0  0  0  0
  193.6830  174.4070  139.8600 P   0  0  0  0  0  0  0  0  0  0  0  0
  194.4720  175.6560  140.2250 O   0  0  0  0  0  0  0  0  0  0  0  0
  194.6180  173.0340  140.2510 O   0  0  0  0  0  1  0  0  0  0  0  0
  189.5550  172.2430  142.3720 C   0  0  0  0  0  2  0  0  0  0  0  0
  189.7940  171.9730  144.1590 S   0  0  0  0  0  0  0  0  0  0  0  0
  191.6320  171.9520  144.2940 C   0  0  2  0  0  3  0  0  0  0  0  0
  192.1540  173.2380  143.8620 N   0  0  0  0  0  2  0  0  0  0  0  0
  193.7520  173.2740  145.5570 O   0  0  0  0  0  0  0  0  0  0  0  0
  193.4240  173.6560  144.3870 C   0  0  0  0  0  0  0  0  0  0  0  0
  194.1570  174.7860  143.7420 C   0  0  0  0  0  2  0  0  0  0  0  0
  194.1030  176.0160  144.6620 C   0  0  0  0  0  2  0  0  0  0  0  0
  191.5520  175.2360  147.8530 C   0  0  0  0  0  2  0  0  0  0  0  0
  189.1950  174.4950  146.9740 C   0  0  0  0  0  1  0  0  0  0  0  0
  189.8700  177.5890  146.8740 C   0  0  0  0  0  1  0  0  0  0  0  0
  192.0250  176.6910  143.7080 O   0  0  0  0  0  0  0  0  0  0  0  0
  190.5750  175.1190  146.6890 C   0  0  1  0  0  3  0  0  0  0  0  0
  192.0690  176.7460  146.0430 N   0  0  0  0  0  0  0  0  0  0  0  0
  192.7030  176.5380  144.7730 C   0  0  0  0  0  0  0  0  0  0  0  0
  192.6440  176.1420  147.2750 C   0  0  0  0  0  2  0  0  0  0  0  0
  190.6310  176.5040  146.0750 C   0  0  2  0  0  3  0  0  0  0  0  0
  192.8500  169.8310  144.3350 N   0  0  0  0  0  1  0  0  0  0  0  0
  192.2520  170.8320  143.4440 C   0  0  0  0  0  2  0  0  0  0  0  0
  2  1  1  0  0  0  0
  3  8  1  6  0  0  0
  3  6  1  0  0  0  0
  4  3  1  0  0  0  0
  4  7  2  0  0  0  0
  6  5  2  0  0  0  0
  6  2  1  0  0  0  0
  7 11  1  0  0  0  0
  8  9  1  0  0  0  0
  9 10  2  0  0  0  0
 10 30  1  0  0  0  0
 10  5  1  0  0  0  0
 11 12  1  1  0  0  0
 11  1  1  0  0  0  0
 12 13  2  0  0  0  0
 14 12  1  0  0  0  0
 15 16  1  0  0  0  0
 16 14  1  0  0  0  0
 17  9  1  0  0  0  0
 18 19  1  6  0  0  0
 18 17  1  0  0  0  0
 21 20  1  1  0  0  0
 21 18  1  0  0  0  0
 22 23  2  0  0  0  0
 23 21  1  0  0  0  0
 23 24  1  0  0  0  0
 24 25  1  0  0  0  0
 25 27  1  0  0  0  0
 27 28  2  0  0  0  0
 27 29  1  0  0  0  0
 27 26  1  0  0  0  0
 30 31  1  0  0  0  0
 31 32  1  0  0  0  0
 32 48  1  6  0  0  0
 33 32  1  0  0  0  0
 33 35  1  0  0  0  0
 35 34  2  0  0  0  0
 36 35  1  0  0  0  0
 36 37  1  0  0  0  0
 37 44  1  0  0  0  0
 41 44  2  0  0  0  0
 42 39  1  1  0  0  0
 42 38  1  0  0  0  0
 43 46  1  0  0  0  0
 43 45  1  0  0  0  0
 44 43  1  0  0  0  0
 45 38  1  0  0  0  0
 46 42  1  0  0  0  0
 46 40  1  1  0  0  0
 48 47  1  0  0  0  0
M  END
>  <MODEL>
1

>  <REMARK>
 VINA RESULT:      -6.1      0.000      0.000
  Name = 
  18 active torsions:
  status: ('A' for Active; 'I' for Inactive)
    1  A    between atoms: C_4  and  C_27
    2  A    between atoms: C_4  and  C_45
    3  A    between atoms: S_9  and  C_44
    4  A    between atoms: S_9  and  C_47
    5  A    between atoms: N_10  and  C_47
    6  A    between atoms: C_11  and  O_23
    7  A    between atoms: C_11  and  C_46
    8  A    between atoms: C_12  and  N_22
    9  A    between atoms: C_12  and  C_27
   10  A    between atoms: C_17  and  O_23
   11  A    between atoms: N_22  and  C_39
   12  A    between atoms: C_28  and  C_29
   13  A    between atoms: C_28  and  C_41
   14  A    between atoms: O_30  and  P_34
   15  A    between atoms: O_30  and  C_45
   16  A    between atoms: C_33  and  C_41
   17  A    between atoms: C_43  and  C_44
   18  A    between atoms: C_47  and  C_48
                            x       y       z     vdW  Elec       q    Type
                         _______ _______ _______ _____ _____    ______ ____

>  <TORSDO>
F 18

$$$$
=
 OpenBabel11042417433D

 48 50  0  0  1  0  0  0  0  0999 V2000
  188.5220  175.7300  146.7990 N   0  0  0  0  0  2  0  0  0  0  0  0
  189.6020  174.7980  146.6380 C   0  0  0  0  0  2  0  0  0  0  0  0
  189.7270  175.2080  144.1750 C   0  0  2  0  0  3  0  0  0  0  0  0
  189.8180  176.6710  144.2480 C   0  0  0  0  0  3  0  0  0  0  0  0
  190.7280  173.1340  145.2420 C   0  0  0  0  0  3  0  0  0  0  0  0
  190.1320  174.4840  145.4360 C   0  0  0  0  0  0  0  0  0  0  0  0
  189.0230  177.3520  145.0470 C   0  0  0  0  0  3  0  0  0  0  0  0
  190.3330  174.6790  142.9250 C   0  0  0  0  0  2  0  0  0  0  0  0
  190.7080  173.4290  142.7750 C   0  0  0  0  0  0  0  0  0  0  0  0
  191.0390  172.6120  144.0180 C   0  0  2  0  0  3  0  0  0  0  0  0
  188.1170  176.7210  146.0110 C   0  0  2  0  0  3  0  0  0  0  0  0
  186.7670  177.2840  146.1400 C   0  0  0  0  0  0  0  0  0  0  0  0
  185.8980  176.7000  146.8470 O   0  0  0  0  0  0  0  0  0  0  0  0
  186.4110  178.4940  145.5060 O   0  0  0  0  0  0  0  0  0  0  0  0
  184.2410  178.7400  144.4800 C   0  0  0  0  0  1  0  0  0  0  0  0
  185.1160  179.0660  145.6700 C   0  0  0  0  0  2  0  0  0  0  0  0
  191.0500  173.0980  141.3800 N   0  0  0  0  0  0  0  0  0  0  0  0
  191.0250  173.8150  140.0830 C   0  0  1  0  0  3  0  0  0  0  0  0
  192.3710  173.7830  139.3250 C   0  0  0  0  0  1  0  0  0  0  0  0
  190.0760  171.8700  138.9850 O   0  0  0  0  0  1  0  0  0  0  0  0
  189.9010  173.2450  139.1820 C   0  0  1  0  0  3  0  0  0  0  0  0
  187.8630  172.6250  140.3040 O   0  0  0  0  0  0  0  0  0  0  0  0
  188.5640  173.5180  139.8180 C   0  0  0  0  0  0  0  0  0  0  0  0
  188.0290  174.9220  139.8190 C   0  0  0  0  0  2  0  0  0  0  0  0
  187.9730  175.4100  141.1350 O   0  0  0  0  0  0  0  0  0  0  0  0
  188.3640  178.2050  141.4590 O   0  0  0  0  0  1  0  0  0  0  0  0
  187.2740  176.9660  140.9980 P   0  0  0  0  0  0  0  0  0  0  0  0
  186.0750  177.0170  141.9330 O   0  0  0  0  0  1  0  0  0  0  0  0
  186.7380  177.2500  139.4030 O   0  0  0  0  0  0  0  0  0  0  0  0
  191.4890  171.1820  143.8970 C   0  0  0  0  0  2  0  0  0  0  0  0
  193.2990  171.1010  143.6970 S   0  0  0  0  0  0  0  0  0  0  0  0
  193.7250  169.6290  144.7200 C   0  0  2  0  0  3  0  0  0  0  0  0
  194.9220  169.9180  145.4930 N   0  0  0  0  0  2  0  0  0  0  0  0
  196.2370  170.1110  143.5800 O   0  0  0  0  0  0  0  0  0  0  0  0
  196.0590  170.4490  144.7960 C   0  0  0  0  0  0  0  0  0  0  0  0
  197.1790  171.0680  145.5660 C   0  0  0  0  0  2  0  0  0  0  0  0
  196.7430  172.4520  146.0720 C   0  0  0  0  0  2  0  0  0  0  0  0
  193.9580  175.2920  144.8580 C   0  0  0  0  0  2  0  0  0  0  0  0
  193.8670  175.4180  142.2400 C   0  0  0  0  0  1  0  0  0  0  0  0
  196.3020  176.8500  143.6750 C   0  0  0  0  0  1  0  0  0  0  0  0
  197.7840  173.2280  144.0730 O   0  0  0  0  0  0  0  0  0  0  0  0
  194.5850  174.9370  143.5160 C   0  0  1  0  0  3  0  0  0  0  0  0
  196.3030  174.7570  145.0360 N   0  0  0  0  0  0  0  0  0  0  0  0
  197.0030  173.5040  145.0380 C   0  0  0  0  0  0  0  0  0  0  0  0
  195.0680  174.9260  145.8480 C   0  0  0  0  0  2  0  0  0  0  0  0
  196.0360  175.3260  143.7210 C   0  0  2  0  0  3  0  0  0  0  0  0
  193.4220  168.6230  142.5100 N   0  0  0  0  0  1  0  0  0  0  0  0
  193.9610  168.3820  143.8530 C   0  0  0  0  0  2  0  0  0  0  0  0
  2  1  1  0  0  0  0
  3  8  1  6  0  0  0
  3  4  1  0  0  0  0
  3  6  1  0  0  0  0
  4  7  2  0  0  0  0
  5  6  2  0  0  0  0
  6  2  1  0  0  0  0
  7 11  1  0  0  0  0
  9  8  1  0  0  0  0
  9 10  1  0  0  0  0
 10 30  1  6  0  0  0
 10  5  1  0  0  0  0
 11 12  1  1  0  0  0
 11  1  1  0  0  0  0
 12 13  2  0  0  0  0
 14 16  1  0  0  0  0
 14 12  1  0  0  0  0
 15 16  1  0  0  0  0
 17  9  2  0  0  0  0
 18 19  1  6  0  0  0
 18 17  1  0  0  0  0
 21 20  1  1  0  0  0
 21 23  1  0  0  0  0
 21 18  1  0  0  0  0
 23 24  1  0  0  0  0
 23 22  2  0  0  0  0
 24 25  1  0  0  0  0
 27 25  1  0  0  0  0
 27 26  1  0  0  0  0
 27 28  1  0  0  0  0
 29 27  2  0  0  0  0
 31 30  1  0  0  0  0
 31 32  1  0  0  0  0
 32 48  1  6  0  0  0
 32 33  1  0  0  0  0
 34 35  2  0  0  0  0
 35 33  1  0  0  0  0
 35 36  1  0  0  0  0
 36 37  1  0  0  0  0
 38 45  1  0  0  0  0
 41 44  2  0  0  0  0
 42 39  1  6  0  0  0
 42 46  1  0  0  0  0
 42 38  1  0  0  0  0
 43 44  1  0  0  0  0
 43 45  1  0  0  0  0
 44 37  1  0  0  0  0
 46 40  1  1  0  0  0
 46 43  1  0  0  0  0
 47 48  1  0  0  0  0
M  END
>  <MODEL>
2

>  <REMARK>
 VINA RESULT:      -5.6      2.934      4.644
  Name = 
  18 active torsions:
  status: ('A' for Active; 'I' for Inactive)
    1  A    between atoms: C_4  and  C_27
    2  A    between atoms: C_4  and  C_45
    3  A    between atoms: S_9  and  C_44
    4  A    between atoms: S_9  and  C_47
    5  A    between atoms: N_10  and  C_47
    6  A    between atoms: C_11  and  O_23
    7  A    between atoms: C_11  and  C_46
    8  A    between atoms: C_12  and  N_22
    9  A    between atoms: C_12  and  C_27
   10  A    between atoms: C_17  and  O_23
   11  A    between atoms: N_22  and  C_39
   12  A    between atoms: C_28  and  C_29
   13  A    between atoms: C_28  and  C_41
   14  A    between atoms: O_30  and  P_34
   15  A    between atoms: O_30  and  C_45
   16  A    between atoms: C_33  and  C_41
   17  A    between atoms: C_43  and  C_44
   18  A    between atoms: C_47  and  C_48
                            x       y       z     vdW  Elec       q    Type
                         _______ _______ _______ _____ _____    ______ ____

>  <TORSDO>
F 18

$$$$
=
 OpenBabel11042417433D

 48 50  0  0  1  0  0  0  0  0999 V2000
  190.1530  172.1840  139.0140 N   0  0  0  0  0  2  0  0  0  0  0  0
  190.6540  171.5410  140.1960 C   0  0  0  0  0  2  0  0  0  0  0  0
  189.6000  173.2420  141.6940 C   0  0  2  0  0  3  0  0  0  0  0  0
  188.2450  173.1470  141.1360 C   0  0  0  0  0  3  0  0  0  0  0  0
  191.4940  171.7510  142.4840 C   0  0  0  0  0  3  0  0  0  0  0  0
  190.4760  172.0410  141.4390 C   0  0  0  0  0  0  0  0  0  0  0  0
  188.0580  173.1280  139.8330 C   0  0  0  0  0  3  0  0  0  0  0  0
  189.5840  173.7210  143.1010 C   0  0  0  0  0  2  0  0  0  0  0  0
  190.5870  173.5530  143.9330 C   0  0  0  0  0  0  0  0  0  0  0  0
  191.5660  172.4130  143.6770 C   0  0  0  0  0  0  0  0  0  0  0  0
  189.1540  173.0470  138.8630 C   0  0  2  0  0  3  0  0  0  0  0  0
  189.0630  173.8930  137.6670 C   0  0  0  0  0  0  0  0  0  0  0  0
  188.0330  174.5960  137.4600 O   0  0  0  0  0  0  0  0  0  0  0  0
  190.1210  173.9670  136.7350 O   0  0  0  0  0  0  0  0  0  0  0  0
  189.5540  172.0990  135.3160 C   0  0  0  0  0  1  0  0  0  0  0  0
  189.9480  173.5580  135.3800 C   0  0  0  0  0  2  0  0  0  0  0  0
  190.4290  174.3210  145.1820 N   0  0  0  0  0  2  0  0  0  0  0  0
  189.2960  174.9430  145.9080 C   0  0  1  0  0  3  0  0  0  0  0  0
  189.1520  174.4630  147.3700 C   0  0  0  0  0  1  0  0  0  0  0  0
  190.0140  176.9050  144.6720 O   0  0  0  0  0  1  0  0  0  0  0  0
  189.4250  176.4870  145.8720 C   0  0  1  0  0  3  0  0  0  0  0  0
  187.7500  177.7920  147.0080 O   0  0  0  0  0  0  0  0  0  0  0  0
  188.0610  177.1060  146.0290 C   0  0  0  0  0  0  0  0  0  0  0  0
  187.0150  176.8390  144.9850 C   0  0  0  0  0  2  0  0  0  0  0  0
  186.8910  177.9540  144.1380 O   0  0  0  0  0  0  0  0  0  0  0  0
  184.5960  177.6400  142.4960 O   0  0  0  0  0  1  0  0  0  0  0  0
  186.2710  177.3260  142.6720 P   0  0  0  0  0  0  0  0  0  0  0  0
  186.4710  175.8180  142.6950 O   0  0  0  0  0  1  0  0  0  0  0  0
  187.1110  177.9710  141.3340 O   0  0  0  0  0  0  0  0  0  0  0  0
  192.7200  172.1700  144.6110 C   0  0  0  0  0  2  0  0  0  0  0  0
  193.2330  170.4220  144.5430 S   0  0  0  0  0  0  0  0  0  0  0  0
  195.0220  170.5710  144.1300 C   0  0  2  0  0  3  0  0  0  0  0  0
  195.4910  171.8900  144.5200 N   0  0  0  0  0  2  0  0  0  0  0  0
  196.5670  171.0610  146.4130 O   0  0  0  0  0  0  0  0  0  0  0  0
  196.5210  171.9680  145.5180 C   0  0  0  0  0  0  0  0  0  0  0  0
  197.2660  173.2470  145.7180 C   0  0  0  0  0  2  0  0  0  0  0  0
  196.3350  174.4290  145.4060 C   0  0  0  0  0  2  0  0  0  0  0  0
  193.2050  175.6180  142.9390 C   0  0  0  0  0  2  0  0  0  0  0  0
  193.3880  174.4390  140.6040 C   0  0  0  0  0  1  0  0  0  0  0  0
  195.3200  176.8930  141.1420 C   0  0  0  0  0  1  0  0  0  0  0  0
  197.4240  174.3540  143.2870 O   0  0  0  0  0  0  0  0  0  0  0  0
  194.0380  174.8110  141.9520 C   0  0  1  0  0  3  0  0  0  0  0  0
  195.5750  175.7800  143.3630 N   0  0  0  0  0  0  0  0  0  0  0  0
  196.5010  174.8790  143.9870 C   0  0  0  0  0  0  0  0  0  0  0  0
  194.2470  176.0360  143.9820 C   0  0  0  0  0  2  0  0  0  0  0  0
  195.3530  175.5650  141.9380 C   0  0  2  0  0  3  0  0  0  0  0  0
  195.7030  171.6240  142.0280 N   0  0  0  0  0  1  0  0  0  0  0  0
  195.2800  170.3540  142.6300 C   0  0  0  0  0  2  0  0  0  0  0  0
  1  2  1  0  0  0  0
  2  6  1  0  0  0  0
  3  4  1  1  0  0  0
  3  8  1  0  0  0  0
  5 10  1  0  0  0  0
  6  3  1  0  0  0  0
  6  5  2  0  0  0  0
  7  4  2  0  0  0  0
  8  9  1  0  0  0  0
  9 17  1  0  0  0  0
 10  9  2  0  0  0  0
 10 30  1  0  0  0  0
 11 12  1  6  0  0  0
 11  1  1  0  0  0  0
 11  7  1  0  0  0  0
 13 12  2  0  0  0  0
 14 12  1  0  0  0  0
 15 16  1  0  0  0  0
 16 14  1  0  0  0  0
 17 18  1  0  0  0  0
 18 19  1  1  0  0  0
 21 20  1  6  0  0  0
 21 18  1  0  0  0  0
 21 23  1  0  0  0  0
 23 22  2  0  0  0  0
 24 23  1  0  0  0  0
 25 24  1  0  0  0  0
 26 27  1  0  0  0  0
 27 28  1  0  0  0  0
 27 25  1  0  0  0  0
 29 27  2  0  0  0  0
 31 30  1  0  0  0  0
 32 48  1  6  0  0  0
 32 33  1  0  0  0  0
 32 31  1  0  0  0  0
 33 35  1  0  0  0  0
 35 36  1  0  0  0  0
 35 34  2  0  0  0  0
 37 36  1  0  0  0  0
 38 45  1  0  0  0  0
 41 44  2  0  0  0  0
 42 39  1  6  0  0  0
 42 38  1  0  0  0  0
 43 45  1  0  0  0  0
 43 44  1  0  0  0  0
 44 37  1  0  0  0  0
 46 40  1  6  0  0  0
 46 42  1  0  0  0  0
 46 43  1  0  0  0  0
 47 48  1  0  0  0  0
M  END
>  <MODEL>
3

>  <REMARK>
 VINA RESULT:      -5.6      2.998      6.840
  Name = 
  18 active torsions:
  status: ('A' for Active; 'I' for Inactive)
    1  A    between atoms: C_4  and  C_27
    2  A    between atoms: C_4  and  C_45
    3  A    between atoms: S_9  and  C_44
    4  A    between atoms: S_9  and  C_47
    5  A    between atoms: N_10  and  C_47
    6  A    between atoms: C_11  and  O_23
    7  A    between atoms: C_11  and  C_46
    8  A    between atoms: C_12  and  N_22
    9  A    between atoms: C_12  and  C_27
   10  A    between atoms: C_17  and  O_23
   11  A    between atoms: N_22  and  C_39
   12  A    between atoms: C_28  and  C_29
   13  A    between atoms: C_28  and  C_41
   14  A    between atoms: O_30  and  P_34
   15  A    between atoms: O_30  and  C_45
   16  A    between atoms: C_33  and  C_41
   17  A    between atoms: C_43  and  C_44
   18  A    between atoms: C_47  and  C_48
                            x       y       z     vdW  Elec       q    Type
                         _______ _______ _______ _____ _____    ______ ____

>  <TORSDO>
F 18

$$$$
=
 OpenBabel11042417433D

 48 50  0  0  1  0  0  0  0  0999 V2000
  189.7780  176.6080  146.2670 N   0  0  0  0  0  2  0  0  0  0  0  0
  191.1260  176.3130  146.6610 C   0  0  0  0  0  2  0  0  0  0  0  0
  191.9750  176.5630  144.3230 C   0  0  2  0  0  3  0  0  0  0  0  0
  191.3920  177.8860  144.0690 C   0  0  0  0  0  3  0  0  0  0  0  0
  193.2910  175.3200  146.1010 C   0  0  0  0  0  3  0  0  0  0  0  0
  192.1470  176.2170  145.7820 C   0  0  0  0  0  0  0  0  0  0  0  0
  190.1470  178.1450  144.4090 C   0  0  0  0  0  3  0  0  0  0  0  0
  193.1690  176.3150  143.4730 C   0  0  0  0  0  2  0  0  0  0  0  0
  194.0710  175.3990  143.7440 C   0  0  0  0  0  0  0  0  0  0  0  0
  194.2300  174.9340  145.1860 C   0  0  0  0  0  0  0  0  0  0  0  0
  189.3130  177.2200  145.1820 C   0  0  2  0  0  3  0  0  0  0  0  0
  187.9150  177.0600  144.7670 C   0  0  0  0  0  0  0  0  0  0  0  0
  186.9870  177.6070  145.4270 O   0  0  0  0  0  0  0  0  0  0  0  0
  187.5690  176.3200  143.6150 O   0  0  0  0  0  0  0  0  0  0  0  0
  187.7820  176.2210  141.2130 C   0  0  0  0  0  1  0  0  0  0  0  0
  187.2060  176.9660  142.3970 C   0  0  0  0  0  2  0  0  0  0  0  0
  195.0180  175.1840  142.6340 N   0  0  0  0  0  2  0  0  0  0  0  0
  196.1740  175.9180  142.0680 C   0  0  1  0  0  3  0  0  0  0  0  0
  196.9820  176.7150  143.1170 C   0  0  0  0  0  1  0  0  0  0  0  0
  196.9100  173.6260  141.7600 O   0  0  0  0  0  1  0  0  0  0  0  0
  197.1100  174.9400  141.3150 C   0  0  1  0  0  3  0  0  0  0  0  0
  197.5580  175.7070  139.0770 O   0  0  0  0  0  0  0  0  0  0  0  0
  196.8500  175.0370  139.8360 C   0  0  0  0  0  0  0  0  0  0  0  0
  195.6520  174.3370  139.2580 C   0  0  0  0  0  2  0  0  0  0  0  0
  194.6670  175.2790  138.9180 O   0  0  0  0  0  0  0  0  0  0  0  0
  195.7140  174.9900  136.2940 O   0  0  0  0  0  0  0  0  0  0  0  0
  194.3090  174.9680  137.2740 P   0  0  0  0  0  0  0  0  0  0  0  0
  193.3750  176.0670  136.7890 O   0  0  0  0  0  1  0  0  0  0  0  0
  193.5230  173.4640  137.1010 O   0  0  0  0  0  1  0  0  0  0  0  0
  195.2610  173.9010  145.5490 C   0  0  0  0  0  2  0  0  0  0  0  0
  194.5220  172.2350  145.5330 S   0  0  0  0  0  0  0  0  0  0  0  0
  195.3470  171.4720  144.0720 C   0  0  2  0  0  3  0  0  0  0  0  0
  194.4100  170.5810  143.4090 N   0  0  0  0  0  2  0  0  0  0  0  0
  194.0450  172.0910  141.6720 O   0  0  0  0  0  0  0  0  0  0  0  0
  194.0560  170.8730  142.0480 C   0  0  0  0  0  0  0  0  0  0  0  0
  193.3740  169.8340  141.2200 C   0  0  0  0  0  2  0  0  0  0  0  0
  192.2990  170.5050  140.3500 C   0  0  0  0  0  2  0  0  0  0  0  0
  190.7840  173.9720  142.0770 C   0  0  0  0  0  2  0  0  0  0  0  0
  189.9690  173.4900  144.5230 C   0  0  0  0  0  1  0  0  0  0  0  0
  188.0790  172.5580  142.1560 C   0  0  0  0  0  1  0  0  0  0  0  0
  190.6040  169.5710  141.7420 O   0  0  0  0  0  0  0  0  0  0  0  0
  190.4220  172.9540  143.1500 C   0  0  1  0  0  3  0  0  0  0  0  0
  190.2430  171.8050  141.1640 N   0  0  0  0  0  0  0  0  0  0  0  0
  190.9940  170.5850  141.0820 C   0  0  0  0  0  0  0  0  0  0  0  0
  190.8830  173.1030  140.8190 C   0  0  0  0  0  2  0  0  0  0  0  0
  189.5030  172.0050  142.4040 C   0  0  2  0  0  3  0  0  0  0  0  0
  197.7320  171.6230  144.6020 N   0  0  0  0  0  1  0  0  0  0  0  0
  196.6070  170.6890  144.4740 C   0  0  0  0  0  2  0  0  0  0  0  0
  1  2  1  0  0  0  0
  3  8  1  6  0  0  0
  3  6  1  0  0  0  0
  4  3  1  0  0  0  0
  4  7  2  0  0  0  0
  6  5  2  0  0  0  0
  6  2  1  0  0  0  0
  7 11  1  0  0  0  0
  8  9  1  0  0  0  0
  9 10  2  0  0  0  0
 10 30  1  0  0  0  0
 10  5  1  0  0  0  0
 11 12  1  1  0  0  0
 11  1  1  0  0  0  0
 12 13  2  0  0  0  0
 14 12  1  0  0  0  0
 15 16  1  0  0  0  0
 16 14  1  0  0  0  0
 17  9  1  0  0  0  0
 18 17  1  0  0  0  0
 18 19  1  1  0  0  0
 21 20  1  1  0  0  0
 21 18  1  0  0  0  0
 22 23  2  0  0  0  0
 23 21  1  0  0  0  0
 24 23  1  0  0  0  0
 25 24  1  0  0  0  0
 26 27  2  0  0  0  0
 27 25  1  0  0  0  0
 28 27  1  0  0  0  0
 29 27  1  0  0  0  0
 31 30  1  0  0  0  0
 32 48  1  1  0  0  0
 32 31  1  0  0  0  0
 33 32  1  0  0  0  0
 34 35  2  0  0  0  0
 35 33  1  0  0  0  0
 36 35  1  0  0  0  0
 37 44  1  0  0  0  0
 37 36  1  0  0  0  0
 38 42  1  0  0  0  0
 42 39  1  1  0  0  0
 43 46  1  0  0  0  0
 44 43  1  0  0  0  0
 44 41  2  0  0  0  0
 45 43  1  0  0  0  0
 45 38  1  0  0  0  0
 46 40  1  6  0  0  0
 46 42  1  0  0  0  0
 48 47  1  0  0  0  0
M  END
>  <MODEL>
4

>  <REMARK>
 VINA RESULT:      -5.6      2.729      5.637
  Name = 
  18 active torsions:
  status: ('A' for Active; 'I' for Inactive)
    1  A    between atoms: C_4  and  C_27
    2  A    between atoms: C_4  and  C_45
    3  A    between atoms: S_9  and  C_44
    4  A    between atoms: S_9  and  C_47
    5  A    between atoms: N_10  and  C_47
    6  A    between atoms: C_11  and  O_23
    7  A    between atoms: C_11  and  C_46
    8  A    between atoms: C_12  and  N_22
    9  A    between atoms: C_12  and  C_27
   10  A    between atoms: C_17  and  O_23
   11  A    between atoms: N_22  and  C_39
   12  A    between atoms: C_28  and  C_29
   13  A    between atoms: C_28  and  C_41
   14  A    between atoms: O_30  and  P_34
   15  A    between atoms: O_30  and  C_45
   16  A    between atoms: C_33  and  C_41
   17  A    between atoms: C_43  and  C_44
   18  A    between atoms: C_47  and  C_48
                            x       y       z     vdW  Elec       q    Type
                         _______ _______ _______ _____ _____    ______ ____

>  <TORSDO>
F 18

$$$$
=
 OpenBabel11042417433D

 48 50  0  0  1  0  0  0  0  0999 V2000
  187.5390  177.4950  144.0060 N   0  0  0  0  0  2  0  0  0  0  0  0
  188.8090  176.8890  143.7200 C   0  0  0  0  0  2  0  0  0  0  0  0
  187.9590  175.8620  141.6050 C   0  0  2  0  0  3  0  0  0  0  0  0
  187.4100  177.0930  141.0240 C   0  0  0  0  0  3  0  0  0  0  0  0
  190.0530  175.0130  142.7600 C   0  0  0  0  0  3  0  0  0  0  0  0
  189.0150  176.0750  142.6610 C   0  0  0  0  0  0  0  0  0  0  0  0
  186.6920  177.9170  141.7570 C   0  0  0  0  0  3  0  0  0  0  0  0
  188.3100  174.8660  140.5580 C   0  0  0  0  0  2  0  0  0  0  0  0
  189.1310  173.8610  140.7620 C   0  0  0  0  0  0  0  0  0  0  0  0
  190.1610  173.9750  141.8780 C   0  0  0  0  0  0  0  0  0  0  0  0
  186.5130  177.7600  143.2040 C   0  0  2  0  0  3  0  0  0  0  0  0
  185.1710  177.9960  143.7490 C   0  0  0  0  0  0  0  0  0  0  0  0
  184.2690  178.5070  143.0260 O   0  0  0  0  0  0  0  0  0  0  0  0
  184.8420  177.6400  145.0750 O   0  0  0  0  0  0  0  0  0  0  0  0
  185.3840  179.0110  146.9860 C   0  0  0  0  0  1  0  0  0  0  0  0
  184.3190  178.5960  145.9940 C   0  0  0  0  0  2  0  0  0  0  0  0
  189.1270  172.8870  139.6550 N   0  0  0  0  0  2  0  0  0  0  0  0
  190.1550  172.2520  138.7960 C   0  0  1  0  0  3  0  0  0  0  0  0
  189.8320  170.7920  138.4100 C   0  0  0  0  0  1  0  0  0  0  0  0
  189.3070  173.9830  137.3210 O   0  0  0  0  0  1  0  0  0  0  0  0
  190.3750  173.0980  137.5170 C   0  0  1  0  0  3  0  0  0  0  0  0
  191.9150  174.8650  136.9660 O   0  0  0  0  0  0  0  0  0  0  0  0
  191.6700  173.8570  137.6360 C   0  0  0  0  0  0  0  0  0  0  0  0
  192.7320  173.3450  138.5670 C   0  0  0  0  0  2  0  0  0  0  0  0
  192.9810  174.2920  139.5740 O   0  0  0  0  0  0  0  0  0  0  0  0
  195.4320  173.0450  138.8630 O   0  0  0  0  0  0  0  0  0  0  0  0
  194.6420  174.1140  139.9450 P   0  0  0  0  0  0  0  0  0  0  0  0
  194.7420  173.5290  141.3460 O   0  0  0  0  0  1  0  0  0  0  0  0
  195.4330  175.6260  139.9240 O   0  0  0  0  0  1  0  0  0  0  0  0
  191.1350  172.8590  142.1400 C   0  0  0  0  0  2  0  0  0  0  0  0
  190.7940  172.0850  143.7550 S   0  0  0  0  0  0  0  0  0  0  0  0
  192.2450  170.9650  143.9480 C   0  0  2  0  0  3  0  0  0  0  0  0
  193.4610  171.7600  143.9580 N   0  0  0  0  0  2  0  0  0  0  0  0
  194.2670  170.6920  145.8650 O   0  0  0  0  0  0  0  0  0  0  0  0
  194.5440  171.3180  144.7910 C   0  0  0  0  0  0  0  0  0  0  0  0
  195.9100  171.8900  144.5970 C   0  0  0  0  0  2  0  0  0  0  0  0
  196.2770  172.7520  145.8150 C   0  0  0  0  0  2  0  0  0  0  0  0
  192.9260  175.1130  145.1120 C   0  0  0  0  0  2  0  0  0  0  0  0
  193.2230  176.4790  142.8930 C   0  0  0  0  0  1  0  0  0  0  0  0
  194.7570  177.5320  145.4580 C   0  0  0  0  0  1  0  0  0  0  0  0
  197.3000  174.6180  144.7410 O   0  0  0  0  0  0  0  0  0  0  0  0
  193.8460  175.6110  144.0040 C   0  0  1  0  0  3  0  0  0  0  0  0
  195.2510  175.1020  145.7540 N   0  0  0  0  0  0  0  0  0  0  0  0
  196.3270  174.2030  145.4460 C   0  0  0  0  0  0  0  0  0  0  0  0
  193.9190  174.5700  146.1440 C   0  0  0  0  0  2  0  0  0  0  0  0
  195.0240  176.1650  144.7820 C   0  0  2  0  0  3  0  0  0  0  0  0
  192.5870  168.6050  143.3960 N   0  0  0  0  0  1  0  0  0  0  0  0
  192.3170  169.9260  142.8170 C   0  0  0  0  0  2  0  0  0  0  0  0
  2  1  1  0  0  0  0
  3  8  1  6  0  0  0
  3  6  1  0  0  0  0
  4  3  1  0  0  0  0
  4  7  2  0  0  0  0
  6  5  2  0  0  0  0
  6  2  1  0  0  0  0
  7 11  1  0  0  0  0
  8  9  1  0  0  0  0
  9 10  2  0  0  0  0
 10 30  1  0  0  0  0
 10  5  1  0  0  0  0
 11 12  1  1  0  0  0
 11  1  1  0  0  0  0
 12 14  1  0  0  0  0
 13 12  2  0  0  0  0
 14 16  1  0  0  0  0
 16 15  1  0  0  0  0
 17  9  1  0  0  0  0
 18 19  1  6  0  0  0
 18 17  1  0  0  0  0
 21 20  1  1  0  0  0
 21 23  1  0  0  0  0
 21 18  1  0  0  0  0
 22 23  2  0  0  0  0
 23 24  1  0  0  0  0
 24 25  1  0  0  0  0
 25 27  1  0  0  0  0
 26 27  2  0  0  0  0
 27 28  1  0  0  0  0
 29 27  1  0  0  0  0
 30 31  1  0  0  0  0
 31 32  1  0  0  0  0
 32 48  1  6  0  0  0
 32 33  1  0  0  0  0
 33 35  1  0  0  0  0
 35 34  2  0  0  0  0
 36 35  1  0  0  0  0
 36 37  1  0  0  0  0
 38 45  1  0  0  0  0
 41 44  2  0  0  0  0
 42 39  1  1  0  0  0
 42 46  1  0  0  0  0
 42 38  1  0  0  0  0
 43 45  1  0  0  0  0
 44 43  1  0  0  0  0
 44 37  1  0  0  0  0
 46 40  1  1  0  0  0
 46 43  1  0  0  0  0
 48 47  1  0  0  0  0
M  END
>  <MODEL>
5

>  <REMARK>
 VINA RESULT:      -5.5      1.842      2.725
  Name = 
  18 active torsions:
  status: ('A' for Active; 'I' for Inactive)
    1  A    between atoms: C_4  and  C_27
    2  A    between atoms: C_4  and  C_45
    3  A    between atoms: S_9  and  C_44
    4  A    between atoms: S_9  and  C_47
    5  A    between atoms: N_10  and  C_47
    6  A    between atoms: C_11  and  O_23
    7  A    between atoms: C_11  and  C_46
    8  A    between atoms: C_12  and  N_22
    9  A    between atoms: C_12  and  C_27
   10  A    between atoms: C_17  and  O_23
   11  A    between atoms: N_22  and  C_39
   12  A    between atoms: C_28  and  C_29
   13  A    between atoms: C_28  and  C_41
   14  A    between atoms: O_30  and  P_34
   15  A    between atoms: O_30  and  C_45
   16  A    between atoms: C_33  and  C_41
   17  A    between atoms: C_43  and  C_44
   18  A    between atoms: C_47  and  C_48
                            x       y       z     vdW  Elec       q    Type
                         _______ _______ _______ _____ _____    ______ ____

>  <TORSDO>
F 18

$$$$
=
 OpenBabel11042417433D

 48 50  0  0  1  0  0  0  0  0999 V2000
  191.1460  176.1940  147.1300 N   0  0  0  0  0  2  0  0  0  0  0  0
  192.5730  176.3020  147.0210 C   0  0  0  0  0  2  0  0  0  0  0  0
  192.4970  176.1620  144.5260 C   0  0  2  0  0  3  0  0  0  0  0  0
  191.5070  177.2270  144.3240 C   0  0  0  0  0  3  0  0  0  0  0  0
  194.6230  175.6960  145.8300 C   0  0  0  0  0  3  0  0  0  0  0  0
  193.2310  176.2210  145.8430 C   0  0  0  0  0  0  0  0  0  0  0  0
  190.4240  177.2840  145.0710 C   0  0  0  0  0  3  0  0  0  0  0  0
  193.3630  175.9810  143.3320 C   0  0  0  0  0  2  0  0  0  0  0  0
  194.5280  175.3750  143.3690 C   0  0  0  0  0  0  0  0  0  0  0  0
  195.2790  175.3150  144.6940 C   0  0  0  0  0  0  0  0  0  0  0  0
  190.1960  176.4130  146.2270 C   0  0  2  0  0  3  0  0  0  0  0  0
  188.8470  175.8590  146.4020 C   0  0  0  0  0  0  0  0  0  0  0  0
  188.6150  175.0240  147.3220 O   0  0  0  0  0  0  0  0  0  0  0  0
  187.7750  176.2570  145.5740 O   0  0  0  0  0  0  0  0  0  0  0  0
  187.0840  177.8980  147.2030 C   0  0  0  0  0  1  0  0  0  0  0  0
  186.6500  176.9580  146.1000 C   0  0  0  0  0  2  0  0  0  0  0  0
  195.0770  175.1100  142.0260 N   0  0  0  0  0  2  0  0  0  0  0  0
  195.9470  175.8390  141.0730 C   0  0  1  0  0  3  0  0  0  0  0  0
  196.9110  176.8410  141.7480 C   0  0  0  0  0  1  0  0  0  0  0  0
  197.3980  173.8940  141.0260 O   0  0  0  0  0  1  0  0  0  0  0  0
  196.7520  174.8340  140.2120 C   0  0  1  0  0  3  0  0  0  0  0  0
  195.4810  172.9640  139.3830 O   0  0  0  0  0  0  0  0  0  0  0  0
  195.8230  174.1430  139.2490 C   0  0  0  0  0  0  0  0  0  0  0  0
  195.3300  174.8960  138.0460 C   0  0  0  0  0  2  0  0  0  0  0  0
  194.0100  175.3260  138.2610 O   0  0  0  0  0  0  0  0  0  0  0  0
  193.0030  176.7850  136.0420 O   0  0  0  0  0  1  0  0  0  0  0  0
  193.2620  175.2350  136.7250 P   0  0  0  0  0  0  0  0  0  0  0  0
  191.9070  174.5660  136.9100 O   0  0  0  0  0  1  0  0  0  0  0  0
  194.1960  174.2930  135.6520 O   0  0  0  0  0  0  0  0  0  0  0  0
  196.6230  174.6470  144.7830 C   0  0  0  0  0  2  0  0  0  0  0  0
  196.6430  173.4410  146.1490 S   0  0  0  0  0  0  0  0  0  0  0  0
  195.9790  171.9310  145.3270 C   0  0  2  0  0  3  0  0  0  0  0  0
  194.5420  172.0730  145.1620 N   0  0  0  0  0  2  0  0  0  0  0  0
  194.5570  170.9230  143.1360 O   0  0  0  0  0  0  0  0  0  0  0  0
  193.8960  171.2550  144.1740 C   0  0  0  0  0  0  0  0  0  0  0  0
  192.4090  171.1130  144.1850 C   0  0  0  0  0  2  0  0  0  0  0  0
  191.8890  171.1150  142.7390 C   0  0  0  0  0  2  0  0  0  0  0  0
  188.1340  172.6250  141.7840 C   0  0  0  0  0  2  0  0  0  0  0  0
  188.2140  173.8730  139.4780 C   0  0  0  0  0  1  0  0  0  0  0  0
  189.3760  175.4070  141.9950 C   0  0  0  0  0  1  0  0  0  0  0  0
  192.5220  173.0860  141.5560 O   0  0  0  0  0  0  0  0  0  0  0  0
  188.9660  173.2400  140.6650 C   0  0  1  0  0  3  0  0  0  0  0  0
  190.3780  173.1720  142.4810 N   0  0  0  0  0  0  0  0  0  0  0  0
  191.6350  172.5140  142.2660 C   0  0  0  0  0  0  0  0  0  0  0  0
  189.1800  172.3850  142.8770 C   0  0  0  0  0  2  0  0  0  0  0  0
  189.9620  174.0910  141.4280 C   0  0  2  0  0  3  0  0  0  0  0  0
  197.2930  169.8690  145.4280 N   0  0  0  0  0  1  0  0  0  0  0  0
  196.2820  170.6610  146.1380 C   0  0  0  0  0  2  0  0  0  0  0  0
  2  1  1  0  0  0  0
  3  8  1  6  0  0  0
  3  6  1  0  0  0  0
  4  3  1  0  0  0  0
  4  7  2  0  0  0  0
  5  6  2  0  0  0  0
  6  2  1  0  0  0  0
  7 11  1  0  0  0  0
  8  9  1  0  0  0  0
  9 10  2  0  0  0  0
 10 30  1  0  0  0  0
 10  5  1  0  0  0  0
 11 12  1  1  0  0  0
 11  1  1  0  0  0  0
 12 13  2  0  0  0  0
 14 16  1  0  0  0  0
 14 12  1  0  0  0  0
 16 15  1  0  0  0  0
 17  9  1  0  0  0  0
 18 19  1  1  0  0  0
 18 17  1  0  0  0  0
 21 20  1  1  0  0  0
 21 18  1  0  0  0  0
 23 22  2  0  0  0  0
 23 21  1  0  0  0  0
 24 25  1  0  0  0  0
 24 23  1  0  0  0  0
 26 27  1  0  0  0  0
 27 28  1  0  0  0  0
 27 25  1  0  0  0  0
 29 27  2  0  0  0  0
 30 31  1  0  0  0  0
 32 48  1  1  0  0  0
 32 31  1  0  0  0  0
 33 32  1  0  0  0  0
 34 35  2  0  0  0  0
 35 36  1  0  0  0  0
 35 33  1  0  0  0  0
 37 36  1  0  0  0  0
 38 45  1  0  0  0  0
 41 44  2  0  0  0  0
 42 39  1  6  0  0  0
 42 46  1  0  0  0  0
 42 38  1  0  0  0  0
 43 45  1  0  0  0  0
 44 43  1  0  0  0  0
 44 37  1  0  0  0  0
 46 40  1  1  0  0  0
 46 43  1  0  0  0  0
 47 48  1  0  0  0  0
M  END
>  <MODEL>
6

>  <REMARK>
 VINA RESULT:      -5.3      2.999      5.861
  Name = 
  18 active torsions:
  status: ('A' for Active; 'I' for Inactive)
    1  A    between atoms: C_4  and  C_27
    2  A    between atoms: C_4  and  C_45
    3  A    between atoms: S_9  and  C_44
    4  A    between atoms: S_9  and  C_47
    5  A    between atoms: N_10  and  C_47
    6  A    between atoms: C_11  and  O_23
    7  A    between atoms: C_11  and  C_46
    8  A    between atoms: C_12  and  N_22
    9  A    between atoms: C_12  and  C_27
   10  A    between atoms: C_17  and  O_23
   11  A    between atoms: N_22  and  C_39
   12  A    between atoms: C_28  and  C_29
   13  A    between atoms: C_28  and  C_41
   14  A    between atoms: O_30  and  P_34
   15  A    between atoms: O_30  and  C_45
   16  A    between atoms: C_33  and  C_41
   17  A    between atoms: C_43  and  C_44
   18  A    between atoms: C_47  and  C_48
                            x       y       z     vdW  Elec       q    Type
                         _______ _______ _______ _____ _____    ______ ____

>  <TORSDO>
F 18

$$$$
=
 OpenBabel11042417433D

 48 50  0  0  1  0  0  0  0  0999 V2000
  191.3880  172.6180  140.1540 N   0  0  0  0  0  2  0  0  0  0  0  0
  191.2610  173.2730  141.4250 C   0  0  0  0  0  2  0  0  0  0  0  0
  189.1430  174.4130  140.7420 C   0  0  2  0  0  3  0  0  0  0  0  0
  188.4380  173.2080  140.2880 C   0  0  0  0  0  3  0  0  0  0  0  0
  190.5410  175.2370  142.6930 C   0  0  0  0  0  3  0  0  0  0  0  0
  190.2790  174.1580  141.7030 C   0  0  0  0  0  0  0  0  0  0  0  0
  189.0480  172.3200  139.5320 C   0  0  0  0  0  3  0  0  0  0  0  0
  188.1980  175.4820  141.1570 C   0  0  0  0  0  2  0  0  0  0  0  0
  188.5390  176.4920  141.9240 C   0  0  0  0  0  0  0  0  0  0  0  0
  189.7390  176.3330  142.8500 C   0  0  0  0  0  0  0  0  0  0  0  0
  190.4790  172.3790  139.2150 C   0  0  2  0  0  3  0  0  0  0  0  0
  190.8800  172.0740  137.8360 C   0  0  0  0  0  0  0  0  0  0  0  0
  190.7390  170.9060  137.3750 O   0  0  0  0  0  0  0  0  0  0  0  0
  191.4060  173.0710  136.9860 O   0  0  0  0  0  0  0  0  0  0  0  0
  189.4780  173.5740  135.6250 C   0  0  0  0  0  1  0  0  0  0  0  0
  190.9490  173.2200  135.6440 C   0  0  0  0  0  2  0  0  0  0  0  0
  187.5000  177.5360  141.9920 N   0  0  0  0  0  2  0  0  0  0  0  0
  186.5760  178.1770  141.0260 C   0  0  1  0  0  3  0  0  0  0  0  0
  186.3390  177.3480  139.7440 C   0  0  0  0  0  1  0  0  0  0  0  0
  184.1610  177.9440  140.9710 O   0  0  0  0  0  1  0  0  0  0  0  0
  185.2200  178.4840  141.7110 C   0  0  1  0  0  3  0  0  0  0  0  0
  185.4440  176.7290  143.3440 O   0  0  0  0  0  0  0  0  0  0  0  0
  185.2260  177.9210  143.1070 C   0  0  0  0  0  0  0  0  0  0  0  0
  184.9020  178.8280  144.2600 C   0  0  0  0  0  2  0  0  0  0  0  0
  186.0450  179.0140  145.0560 O   0  0  0  0  0  0  0  0  0  0  0  0
  186.1510  176.8460  146.8870 O   0  0  0  0  0  1  0  0  0  0  0  0
  185.5990  178.4430  146.6060 P   0  0  0  0  0  0  0  0  0  0  0  0
  184.0790  178.4390  146.6770 O   0  0  0  0  0  0  0  0  0  0  0  0
  186.2020  179.4720  147.8270 O   0  0  0  0  0  1  0  0  0  0  0  0
  190.1590  177.4540  143.7600 C   0  0  0  0  0  2  0  0  0  0  0  0
  189.3730  177.2730  145.3950 S   0  0  0  0  0  0  0  0  0  0  0  0
  190.6890  176.4080  146.3510 C   0  0  2  0  0  3  0  0  0  0  0  0
  191.9570  176.5560  145.6550 N   0  0  0  0  0  2  0  0  0  0  0  0
  193.1230  176.9100  147.6410 O   0  0  0  0  0  0  0  0  0  0  0  0
  193.1610  176.4970  146.4360 C   0  0  0  0  0  0  0  0  0  0  0  0
  194.4770  176.3110  145.7550 C   0  0  0  0  0  2  0  0  0  0  0  0
  194.2390  175.9350  144.2840 C   0  0  0  0  0  2  0  0  0  0  0  0
  194.5690  174.8090  140.2940 C   0  0  0  0  0  2  0  0  0  0  0  0
  196.2020  172.7710  140.0550 C   0  0  0  0  0  1  0  0  0  0  0  0
  197.5050  175.6300  140.4730 C   0  0  0  0  0  1  0  0  0  0  0  0
  196.5000  175.1820  144.2500 O   0  0  0  0  0  0  0  0  0  0  0  0
  195.6340  173.9160  140.9170 C   0  0  1  0  0  3  0  0  0  0  0  0
  195.6820  175.8480  142.1650 N   0  0  0  0  0  0  0  0  0  0  0  0
  195.5370  175.6760  143.5830 C   0  0  0  0  0  0  0  0  0  0  0  0
  194.4790  175.9620  141.2990 C   0  0  0  0  0  2  0  0  0  0  0  0
  196.5990  174.9230  141.5110 C   0  0  2  0  0  3  0  0  0  0  0  0
  189.3210  174.7700  147.5480 N   0  0  0  0  0  1  0  0  0  0  0  0
  190.3720  174.9160  146.5350 C   0  0  0  0  0  2  0  0  0  0  0  0
  1  2  1  0  0  0  0
  2  6  1  0  0  0  0
  3  4  1  1  0  0  0
  3  8  1  0  0  0  0
  3  6  1  0  0  0  0
  5 10  1  0  0  0  0
  6  5  2  0  0  0  0
  7  4  2  0  0  0  0
  8  9  1  0  0  0  0
  9 17  1  0  0  0  0
  9 10  2  0  0  0  0
 10 30  1  0  0  0  0
 11 12  1  1  0  0  0
 11  7  1  0  0  0  0
 11  1  1  0  0  0  0
 13 12  2  0  0  0  0
 14 12  1  0  0  0  0
 15 16  1  0  0  0  0
 16 14  1  0  0  0  0
 18 19  1  6  0  0  0
 18 21  1  0  0  0  0
 18 17  1  0  0  0  0
 21 20  1  6  0  0  0
 21 23  1  0  0  0  0
 23 22  2  0  0  0  0
 23 24  1  0  0  0  0
 24 25  1  0  0  0  0
 25 27  1  0  0  0  0
 27 28  2  0  0  0  0
 27 26  1  0  0  0  0
 27 29  1  0  0  0  0
 30 31  1  0  0  0  0
 31 32  1  0  0  0  0
 32 48  1  6  0  0  0
 33 32  1  0  0  0  0
 33 35  1  0  0  0  0
 35 34  2  0  0  0  0
 36 35  1  0  0  0  0
 37 36  1  0  0  0  0
 38 42  1  0  0  0  0
 38 45  1  0  0  0  0
 42 39  1  6  0  0  0
 42 46  1  0  0  0  0
 43 44  1  0  0  0  0
 44 41  2  0  0  0  0
 44 37  1  0  0  0  0
 45 43  1  0  0  0  0
 46 40  1  6  0  0  0
 46 43  1  0  0  0  0
 48 47  1  0  0  0  0
M  END
>  <MODEL>
7

>  <REMARK>
 VINA RESULT:      -5.2      3.052      7.571
  Name = 
  18 active torsions:
  status: ('A' for Active; 'I' for Inactive)
    1  A    between atoms: C_4  and  C_27
    2  A    between atoms: C_4  and  C_45
    3  A    between atoms: S_9  and  C_44
    4  A    between atoms: S_9  and  C_47
    5  A    between atoms: N_10  and  C_47
    6  A    between atoms: C_11  and  O_23
    7  A    between atoms: C_11  and  C_46
    8  A    between atoms: C_12  and  N_22
    9  A    between atoms: C_12  and  C_27
   10  A    between atoms: C_17  and  O_23
   11  A    between atoms: N_22  and  C_39
   12  A    between atoms: C_28  and  C_29
   13  A    between atoms: C_28  and  C_41
   14  A    between atoms: O_30  and  P_34
   15  A    between atoms: O_30  and  C_45
   16  A    between atoms: C_33  and  C_41
   17  A    between atoms: C_43  and  C_44
   18  A    between atoms: C_47  and  C_48
                            x       y       z     vdW  Elec       q    Type
                         _______ _______ _______ _____ _____    ______ ____

>  <TORSDO>
F 18

$$$$
=
 OpenBabel11042417433D

 48 50  0  0  1  0  0  0  0  0999 V2000
  193.0040  175.1870  144.3620 N   0  0  0  0  0  2  0  0  0  0  0  0
  192.5160  174.7540  143.0830 C   0  0  0  0  0  2  0  0  0  0  0  0
  190.6240  176.3880  143.1370 C   0  0  2  0  0  3  0  0  0  0  0  0
  191.4330  177.5790  143.4240 C   0  0  0  0  0  3  0  0  0  0  0  0
  190.6050  174.3650  141.6060 C   0  0  0  0  0  3  0  0  0  0  0  0
  191.3850  175.2380  142.5240 C   0  0  0  0  0  0  0  0  0  0  0  0
  192.3740  177.5430  144.3450 C   0  0  0  0  0  3  0  0  0  0  0  0
  189.3530  176.7380  142.4510 C   0  0  0  0  0  2  0  0  0  0  0  0
  188.6360  175.8710  141.7710 C   0  0  0  0  0  0  0  0  0  0  0  0
  189.3270  174.6360  141.2050 C   0  0  0  0  0  0  0  0  0  0  0  0
  192.7840  176.3140  145.0300 C   0  0  2  0  0  3  0  0  0  0  0  0
  193.0300  176.3950  146.4750 C   0  0  0  0  0  0  0  0  0  0  0  0
  194.1790  176.6870  146.9110 O   0  0  0  0  0  0  0  0  0  0  0  0
  191.9950  176.1760  147.4110 O   0  0  0  0  0  0  0  0  0  0  0  0
  189.9300  174.9320  147.3000 C   0  0  0  0  0  1  0  0  0  0  0  0
  190.6230  176.2510  147.0330 C   0  0  0  0  0  2  0  0  0  0  0  0
  187.3110  176.3960  141.3940 N   0  0  0  0  0  2  0  0  0  0  0  0
  186.8010  177.6420  140.7750 C   0  0  1  0  0  3  0  0  0  0  0  0
  186.2480  177.4480  139.3450 C   0  0  0  0  0  1  0  0  0  0  0  0
  184.4340  178.0010  141.1780 O   0  0  0  0  0  1  0  0  0  0  0  0
  185.7140  178.2790  141.6770 C   0  0  1  0  0  3  0  0  0  0  0  0
  185.2750  176.7330  143.4710 O   0  0  0  0  0  0  0  0  0  0  0  0
  185.8560  177.7500  143.0790 C   0  0  0  0  0  0  0  0  0  0  0  0
  186.6940  178.5150  144.0650 C   0  0  0  0  0  2  0  0  0  0  0  0
  185.8730  179.3420  144.8480 O   0  0  0  0  0  0  0  0  0  0  0  0
  184.1480  177.8260  146.5200 O   0  0  0  0  0  1  0  0  0  0  0  0
  185.7060  178.5140  146.3360 P   0  0  0  0  0  0  0  0  0  0  0  0
  185.9120  179.5270  147.4540 O   0  0  0  0  0  1  0  0  0  0  0  0
  186.8860  177.2890  146.4830 O   0  0  0  0  0  0  0  0  0  0  0  0
  188.5530  173.6250  140.4050 C   0  0  0  0  0  2  0  0  0  0  0  0
  189.5180  173.0910  138.9540 S   0  0  0  0  0  0  0  0  0  0  0  0
  189.5540  171.2620  139.1770 C   0  0  2  0  0  3  0  0  0  0  0  0
  190.5480  170.9260  140.1820 N   0  0  0  0  0  2  0  0  0  0  0  0
  192.3020  171.6860  138.8510 O   0  0  0  0  0  0  0  0  0  0  0  0
  191.8680  171.4720  140.0290 C   0  0  0  0  0  0  0  0  0  0  0  0
  192.8220  171.4390  141.1780 C   0  0  0  0  0  2  0  0  0  0  0  0
  192.0720  171.0050  142.4470 C   0  0  0  0  0  2  0  0  0  0  0  0
  194.9130  172.0290  145.3080 C   0  0  0  0  0  2  0  0  0  0  0  0
  197.1270  170.6790  144.9160 C   0  0  0  0  0  1  0  0  0  0  0  0
  194.7210  169.1460  146.2960 C   0  0  0  0  0  1  0  0  0  0  0  0
  193.2060  168.9210  142.6720 O   0  0  0  0  0  0  0  0  0  0  0  0
  195.6280  170.8750  144.6160 C   0  0  1  0  0  3  0  0  0  0  0  0
  193.3970  170.3190  144.5340 N   0  0  0  0  0  0  0  0  0  0  0  0
  192.8790  170.0150  143.2310 C   0  0  0  0  0  0  0  0  0  0  0  0
  193.4400  171.7270  145.0130 C   0  0  0  0  0  2  0  0  0  0  0  0
  194.6830  169.7140  144.8560 C   0  0  2  0  0  3  0  0  0  0  0  0
  190.0680  169.1060  138.1410 N   0  0  0  0  0  1  0  0  0  0  0  0
  189.8820  170.5350  137.8630 C   0  0  0  0  0  2  0  0  0  0  0  0
  1 11  1  0  0  0  0
  2  1  1  0  0  0  0
  3  8  1  6  0  0  0
  3  4  1  0  0  0  0
  4  7  2  0  0  0  0
  5  6  2  0  0  0  0
  6  2  1  0  0  0  0
  6  3  1  0  0  0  0
  7 11  1  0  0  0  0
  9  8  1  0  0  0  0
 10  5  1  0  0  0  0
 10  9  2  0  0  0  0
 11 12  1  6  0  0  0
 12 13  2  0  0  0  0
 12 14  1  0  0  0  0
 16 15  1  0  0  0  0
 16 14  1  0  0  0  0
 17  9  1  0  0  0  0
 18 19  1  6  0  0  0
 18 17  1  0  0  0  0
 18 21  1  0  0  0  0
 21 20  1  6  0  0  0
 21 23  1  0  0  0  0
 23 22  2  0  0  0  0
 23 24  1  0  0  0  0
 24 25  1  0  0  0  0
 25 27  1  0  0  0  0
 27 29  2  0  0  0  0
 27 26  1  0  0  0  0
 27 28  1  0  0  0  0
 30 10  1  0  0  0  0
 31 32  1  0  0  0  0
 31 30  1  0  0  0  0
 32 48  1  6  0  0  0
 32 33  1  0  0  0  0
 34 35  2  0  0  0  0
 35 33  1  0  0  0  0
 35 36  1  0  0  0  0
 36 37  1  0  0  0  0
 37 44  1  0  0  0  0
 41 44  2  0  0  0  0
 42 46  1  0  0  0  0
 42 39  1  1  0  0  0
 42 38  1  0  0  0  0
 43 46  1  0  0  0  0
 43 45  1  0  0  0  0
 44 43  1  0  0  0  0
 45 38  1  0  0  0  0
 46 40  1  1  0  0  0
 48 47  1  0  0  0  0
M  END
>  <MODEL>
8

>  <REMARK>
 VINA RESULT:      -5.2      3.034      7.331
  Name = 
  18 active torsions:
  status: ('A' for Active; 'I' for Inactive)
    1  A    between atoms: C_4  and  C_27
    2  A    between atoms: C_4  and  C_45
    3  A    between atoms: S_9  and  C_44
    4  A    between atoms: S_9  and  C_47
    5  A    between atoms: N_10  and  C_47
    6  A    between atoms: C_11  and  O_23
    7  A    between atoms: C_11  and  C_46
    8  A    between atoms: C_12  and  N_22
    9  A    between atoms: C_12  and  C_27
   10  A    between atoms: C_17  and  O_23
   11  A    between atoms: N_22  and  C_39
   12  A    between atoms: C_28  and  C_29
   13  A    between atoms: C_28  and  C_41
   14  A    between atoms: O_30  and  P_34
   15  A    between atoms: O_30  and  C_45
   16  A    between atoms: C_33  and  C_41
   17  A    between atoms: C_43  and  C_44
   18  A    between atoms: C_47  and  C_48
                            x       y       z     vdW  Elec       q    Type
                         _______ _______ _______ _____ _____    ______ ____

>  <TORSDO>
F 18

$$$$
=
 OpenBabel11042417433D

 48 50  0  0  1  0  0  0  0  0999 V2000
  195.5450  171.9990  145.3410 N   0  0  0  0  0  2  0  0  0  0  0  0
  194.3060  172.5890  145.7600 C   0  0  0  0  0  2  0  0  0  0  0  0
  193.1790  172.0020  143.6070 C   0  0  2  0  0  3  0  0  0  0  0  0
  193.5320  170.5760  143.6110 C   0  0  0  0  0  3  0  0  0  0  0  0
  192.2610  173.7900  145.1550 C   0  0  0  0  0  3  0  0  0  0  0  0
  193.2200  172.6690  144.9590 C   0  0  0  0  0  0  0  0  0  0  0  0
  194.7550  170.1910  143.9060 C   0  0  0  0  0  3  0  0  0  0  0  0
  191.9490  172.2630  142.8140 C   0  0  0  0  0  2  0  0  0  0  0  0
  191.2250  173.3520  142.9410 C   0  0  0  0  0  0  0  0  0  0  0  0
  191.2940  174.1270  144.2510 C   0  0  0  0  0  0  0  0  0  0  0  0
  195.7940  171.1060  144.3890 C   0  0  2  0  0  3  0  0  0  0  0  0
  197.1470  170.9410  143.8440 C   0  0  0  0  0  0  0  0  0  0  0  0
  197.8510  169.9450  144.1760 O   0  0  0  0  0  0  0  0  0  0  0  0
  197.6880  171.8650  142.9240 O   0  0  0  0  0  0  0  0  0  0  0  0
  197.0090  174.1010  142.3230 C   0  0  0  0  0  1  0  0  0  0  0  0
  196.8520  172.6210  142.0520 C   0  0  0  0  0  2  0  0  0  0  0  0
  190.2040  173.4850  141.8850 N   0  0  0  0  0  2  0  0  0  0  0  0
  189.0560  172.6770  141.4110 C   0  0  1  0  0  3  0  0  0  0  0  0
  187.8420  172.6980  142.3660 C   0  0  0  0  0  1  0  0  0  0  0  0
  188.5650  174.5430  139.9390 O   0  0  0  0  0  1  0  0  0  0  0  0
  188.6220  173.1450  139.9990 C   0  0  1  0  0  3  0  0  0  0  0  0
  190.0640  173.3180  138.0780 O   0  0  0  0  0  0  0  0  0  0  0  0
  189.5920  172.6150  138.9770 C   0  0  0  0  0  0  0  0  0  0  0  0
  189.9660  171.1590  139.0120 C   0  0  0  0  0  2  0  0  0  0  0  0
  191.2630  171.0130  139.5300 O   0  0  0  0  0  0  0  0  0  0  0  0
  192.9460  168.7620  139.9400 O   0  0  0  0  0  1  0  0  0  0  0  0
  191.3520  169.3820  140.0390 P   0  0  0  0  0  0  0  0  0  0  0  0
  190.4650  168.5610  139.1150 O   0  0  0  0  0  0  0  0  0  0  0  0
  190.7790  169.2150  141.6380 O   0  0  0  0  0  1  0  0  0  0  0  0
  190.4710  175.3700  144.4500 C   0  0  0  0  0  2  0  0  0  0  0  0
  188.9700  174.9890  145.4110 S   0  0  0  0  0  0  0  0  0  0  0  0
  188.8770  176.4340  146.5510 C   0  0  2  0  0  3  0  0  0  0  0  0
  187.8430  177.3420  146.0830 N   0  0  0  0  0  2  0  0  0  0  0  0
  186.4070  176.7720  147.8270 O   0  0  0  0  0  0  0  0  0  0  0  0
  186.7680  177.6550  146.9820 C   0  0  0  0  0  0  0  0  0  0  0  0
  185.8730  178.8150  146.6930 C   0  0  0  0  0  2  0  0  0  0  0  0
  184.7360  178.3590  145.7650 C   0  0  0  0  0  2  0  0  0  0  0  0
  186.9210  176.4480  142.7870 C   0  0  0  0  0  2  0  0  0  0  0  0
  188.5670  178.1380  141.6390 C   0  0  0  0  0  1  0  0  0  0  0  0
  185.5160  178.2910  140.7980 C   0  0  0  0  0  1  0  0  0  0  0  0
  184.9960  180.1560  144.2220 O   0  0  0  0  0  0  0  0  0  0  0  0
  187.3540  177.8910  142.5580 C   0  0  1  0  0  3  0  0  0  0  0  0
  185.1670  178.0360  143.2570 N   0  0  0  0  0  0  0  0  0  0  0  0
  184.9290  178.8970  144.3800 C   0  0  0  0  0  0  0  0  0  0  0  0
  185.5620  176.6180  143.4710 C   0  0  0  0  0  2  0  0  0  0  0  0
  186.0430  178.5770  142.2260 C   0  0  2  0  0  3  0  0  0  0  0  0
  190.4740  177.5460  148.0350 N   0  0  0  0  0  1  0  0  0  0  0  0
  190.2180  177.1780  146.6370 C   0  0  0  0  0  2  0  0  0  0  0  0
  1  2  1  0  0  0  0
  3  8  1  1  0  0  0
  3  4  1  0  0  0  0
  3  6  1  0  0  0  0
  4  7  2  0  0  0  0
  6  5  2  0  0  0  0
  6  2  1  0  0  0  0
  7 11  1  0  0  0  0
  8  9  1  0  0  0  0
  9 10  2  0  0  0  0
 10 30  1  0  0  0  0
 10  5  1  0  0  0  0
 11 12  1  1  0  0  0
 11  1  1  0  0  0  0
 12 13  2  0  0  0  0
 14 12  1  0  0  0  0
 16 15  1  0  0  0  0
 16 14  1  0  0  0  0
 17  9  1  0  0  0  0
 18 17  1  0  0  0  0
 18 19  1  1  0  0  0
 21 20  1  1  0  0  0
 21 18  1  0  0  0  0
 22 23  2  0  0  0  0
 23 24  1  0  0  0  0
 23 21  1  0  0  0  0
 24 25  1  0  0  0  0
 25 27  1  0  0  0  0
 26 27  1  0  0  0  0
 27 29  1  0  0  0  0
 28 27  2  0  0  0  0
 30 31  1  0  0  0  0
 31 32  1  0  0  0  0
 32 48  1  6  0  0  0
 33 32  1  0  0  0  0
 33 35  1  0  0  0  0
 35 34  2  0  0  0  0
 36 35  1  0  0  0  0
 37 36  1  0  0  0  0
 38 45  1  0  0  0  0
 41 44  2  0  0  0  0
 42 39  1  6  0  0  0
 42 38  1  0  0  0  0
 43 45  1  0  0  0  0
 43 44  1  0  0  0  0
 44 37  1  0  0  0  0
 46 40  1  6  0  0  0
 46 42  1  0  0  0  0
 46 43  1  0  0  0  0
 48 47  1  0  0  0  0
M  END
>  <MODEL>
9

>  <REMARK>
 VINA RESULT:      -5.2      2.921      8.072
  Name = 
  18 active torsions:
  status: ('A' for Active; 'I' for Inactive)
    1  A    between atoms: C_4  and  C_27
    2  A    between atoms: C_4  and  C_45
    3  A    between atoms: S_9  and  C_44
    4  A    between atoms: S_9  and  C_47
    5  A    between atoms: N_10  and  C_47
    6  A    between atoms: C_11  and  O_23
    7  A    between atoms: C_11  and  C_46
    8  A    between atoms: C_12  and  N_22
    9  A    between atoms: C_12  and  C_27
   10  A    between atoms: C_17  and  O_23
   11  A    between atoms: N_22  and  C_39
   12  A    between atoms: C_28  and  C_29
   13  A    between atoms: C_28  and  C_41
   14  A    between atoms: O_30  and  P_34
   15  A    between atoms: O_30  and  C_45
   16  A    between atoms: C_33  and  C_41
   17  A    between atoms: C_43  and  C_44
   18  A    between atoms: C_47  and  C_48
                            x       y       z     vdW  Elec       q    Type
                         _______ _______ _______ _____ _____    ______ ____

>  <TORSDO>
F 18

$$$$
