=
 OpenBabel11042414203D

 27 29  0  0  1  0  0  0  0  0999 V2000
  186.6450  176.8150  143.2220 C   0  0  2  0  0  3  0  0  0  0  0  0
  189.1390  177.1900  143.0960 C   0  0  0  0  0  3  0  0  0  0  0  0
  185.9990  178.3970  141.7280 C   0  0  1  0  0  3  0  0  0  0  0  0
  185.5900  177.6870  142.8830 O   0  0  0  0  0  0  0  0  0  0  0  0
  187.4860  178.2020  141.5110 C   0  0  0  0  0  2  0  0  0  0  0  0
  186.8710  176.7680  144.7140 C   0  0  0  0  0  0  0  0  0  0  0  0
  187.8340  177.2490  142.5180 N   0  0  0  0  0  0  0  0  0  0  0  0
  189.2550  176.9030  144.3910 C   0  0  0  0  0  0  0  0  0  0  0  0
  188.0780  176.7500  145.2030 N   0  0  0  0  0  0  0  0  0  0  0  0
  194.4150  175.9720  146.4530 C   0  0  0  0  0  1  0  0  0  0  0  0
  191.5410  176.3460  144.0830 O   0  0  0  0  0  0  0  0  0  0  0  0
  191.9680  175.9380  146.8870 C   0  0  1  0  0  3  0  0  0  0  0  0
  190.5820  175.9460  146.2490 C   0  0  0  0  0  2  0  0  0  0  0  0
  192.8190  176.5830  144.6210 C   0  0  2  0  0  3  0  0  0  0  0  0
  192.0160  174.9700  147.8730 F   0  0  0  0  0  0  0  0  0  0  0  0
  193.7790  176.3240  143.6420 O   0  0  0  0  0  1  0  0  0  0  0  0
  193.0570  175.6810  145.8420 C   0  0  1  0  0  3  0  0  0  0  0  0
  190.6090  176.8440  145.0120 C   0  0  2  0  0  3  0  0  0  0  0  0
  185.1960  177.9650  140.5020 C   0  0  0  0  0  2  0  0  0  0  0  0
  183.9530  178.6510  140.4200 O   0  0  0  0  0  0  0  0  0  0  0  0
  181.6440  178.5400  140.8430 C   0  0  0  0  0  2  0  0  0  0  0  0
  182.7540  177.9480  140.4300 C   0  0  0  0  0  3  0  0  0  0  0  0
  185.7120  176.5390  145.6270 C   0  0  0  0  0  2  0  0  0  0  0  0
  185.8830  177.3140  146.8930 C   0  0  0  0  0  0  0  0  0  0  0  0
  186.2380  176.7450  147.9120 O   0  0  0  0  0  0  0  0  0  0  0  0
  185.5190  179.0680  146.9310 S   0  0  0  0  0  0  0  0  0  0  0  0
  184.0750  178.8740  145.8500 C   0  0  0  0  0  1  0  0  0  0  0  0
  1  4  1  1  0  0  0
  1  6  1  0  0  0  0
  2  8  2  0  0  0  0
  3 19  1  6  0  0  0
  3  4  1  0  0  0  0
  5  3  1  0  0  0  0
  5  7  1  0  0  0  0
  6  9  2  0  0  0  0
  6 23  1  0  0  0  0
  7  2  1  0  0  0  0
  7  1  1  0  0  0  0
  8  9  1  0  0  0  0
 11 14  1  0  0  0  0
 11 18  1  0  0  0  0
 12 15  1  1  0  0  0
 13 12  1  0  0  0  0
 14 16  1  6  0  0  0
 14 17  1  0  0  0  0
 17 10  1  1  0  0  0
 17 12  1  0  0  0  0
 18  8  1  6  0  0  0
 18 13  1  0  0  0  0
 20 22  1  0  0  0  0
 20 19  1  0  0  0  0
 22 21  2  0  0  0  0
 23 24  1  0  0  0  0
 24 26  1  0  0  0  0
 24 25  2  0  0  0  0
 27 26  1  0  0  0  0
M  END
>  <MODEL>
1

>  <REMARK>
 VINA RESULT:      -6.9      0.000      0.000
  Name = 
  7 active torsions:
  status: ('A' for Active; 'I' for Inactive)
    1  A    between atoms: C_2  and  S_4
    2  A    between atoms: C_2  and  C_15
    3  A    between atoms: C_8  and  O_26
    4  A    between atoms: C_10  and  C_14
    5  A    between atoms: C_14  and  O_26
    6  A    between atoms: C_15  and  C_19
    7  A    between atoms: C_21  and  C_23
                            x       y       z     vdW  Elec       q    Type
                         _______ _______ _______ _____ _____    ______ ____

>  <TORSDO>
F 7

$$$$
=
 OpenBabel11042414203D

 27 29  0  0  1  0  0  0  0  0999 V2000
  185.7260  177.7740  142.9700 C   0  0  2  0  0  3  0  0  0  0  0  0
  187.8190  176.3760  142.7720 C   0  0  0  0  0  3  0  0  0  0  0  0
  185.4630  178.2840  140.7740 C   0  0  1  0  0  3  0  0  0  0  0  0
  185.2120  178.7480  142.0880 O   0  0  0  0  0  0  0  0  0  0  0  0
  186.4480  177.1340  140.8180 C   0  0  0  0  0  2  0  0  0  0  0  0
  186.4290  178.4050  144.1470 C   0  0  0  0  0  0  0  0  0  0  0  0
  186.6150  176.9090  142.2200 N   0  0  0  0  0  0  0  0  0  0  0  0
  188.2440  176.8310  143.9490 C   0  0  0  0  0  0  0  0  0  0  0  0
  187.5460  177.9070  144.5990 N   0  0  0  0  0  0  0  0  0  0  0  0
  192.9470  175.3540  146.6760 C   0  0  0  0  0  1  0  0  0  0  0  0
  189.3740  176.1870  145.9330 O   0  0  0  0  0  0  0  0  0  0  0  0
  191.9580  176.6030  144.7670 C   0  0  1  0  0  3  0  0  0  0  0  0
  190.6800  177.2020  144.1910 C   0  0  0  0  0  2  0  0  0  0  0  0
  190.4590  175.4160  146.3870 C   0  0  2  0  0  3  0  0  0  0  0  0
  192.9890  177.5180  144.6520 F   0  0  0  0  0  0  0  0  0  0  0  0
  190.2550  175.0870  147.7270 O   0  0  0  0  0  1  0  0  0  0  0  0
  191.7700  176.2030  146.2340 C   0  0  1  0  0  3  0  0  0  0  0  0
  189.5030  176.2900  144.5360 C   0  0  2  0  0  3  0  0  0  0  0  0
  184.1650  177.8780  140.0760 C   0  0  0  0  0  2  0  0  0  0  0  0
  183.0800  178.7120  140.4600 O   0  0  0  0  0  0  0  0  0  0  0  0
  180.7630  178.8900  140.8130 C   0  0  0  0  0  2  0  0  0  0  0  0
  181.8670  178.1610  140.8550 C   0  0  0  0  0  3  0  0  0  0  0  0
  185.7450  179.4800  144.9240 C   0  0  0  0  0  2  0  0  0  0  0  0
  185.0610  178.9050  146.1220 C   0  0  0  0  0  0  0  0  0  0  0  0
  183.9090  178.5120  146.0350 O   0  0  0  0  0  0  0  0  0  0  0  0
  185.9110  178.8360  147.6970 S   0  0  0  0  0  0  0  0  0  0  0  0
  186.0830  177.0320  147.6180 C   0  0  0  0  0  1  0  0  0  0  0  0
  1  4  1  6  0  0  0
  1  6  1  0  0  0  0
  2  8  2  0  0  0  0
  3 19  1  1  0  0  0
  3  5  1  0  0  0  0
  3  4  1  0  0  0  0
  5  7  1  0  0  0  0
  6  9  2  0  0  0  0
  6 23  1  0  0  0  0
  7  2  1  0  0  0  0
  7  1  1  0  0  0  0
  8  9  1  0  0  0  0
 11 14  1  0  0  0  0
 12 15  1  1  0  0  0
 12 17  1  0  0  0  0
 13 18  1  0  0  0  0
 13 12  1  0  0  0  0
 14 16  1  1  0  0  0
 17 14  1  0  0  0  0
 17 10  1  6  0  0  0
 18  8  1  1  0  0  0
 18 11  1  0  0  0  0
 19 20  1  0  0  0  0
 20 22  1  0  0  0  0
 21 22  2  0  0  0  0
 23 24  1  0  0  0  0
 24 26  1  0  0  0  0
 25 24  2  0  0  0  0
 27 26  1  0  0  0  0
M  END
>  <MODEL>
2

>  <REMARK>
 VINA RESULT:      -6.8      1.860      2.296
  Name = 
  7 active torsions:
  status: ('A' for Active; 'I' for Inactive)
    1  A    between atoms: C_2  and  S_4
    2  A    between atoms: C_2  and  C_15
    3  A    between atoms: C_8  and  O_26
    4  A    between atoms: C_10  and  C_14
    5  A    between atoms: C_14  and  O_26
    6  A    between atoms: C_15  and  C_19
    7  A    between atoms: C_21  and  C_23
                            x       y       z     vdW  Elec       q    Type
                         _______ _______ _______ _____ _____    ______ ____

>  <TORSDO>
F 7

$$$$
=
 OpenBabel11042414203D

 27 29  0  0  1  0  0  0  0  0999 V2000
  187.7680  177.2750  144.8100 C   0  0  2  0  0  3  0  0  0  0  0  0
  189.5920  176.8310  146.4990 C   0  0  0  0  0  3  0  0  0  0  0  0
  185.9780  176.9650  146.1710 C   0  0  1  0  0  3  0  0  0  0  0  0
  186.4150  176.8760  144.8270 O   0  0  0  0  0  0  0  0  0  0  0  0
  187.1750  177.1190  147.0870 C   0  0  0  0  0  2  0  0  0  0  0  0
  188.5940  176.4000  143.8990 C   0  0  0  0  0  0  0  0  0  0  0  0
  188.2650  177.2450  146.1710 N   0  0  0  0  0  0  0  0  0  0  0  0
  190.3440  176.2750  145.5510 C   0  0  0  0  0  0  0  0  0  0  0  0
  189.7880  176.0150  144.2510 N   0  0  0  0  0  0  0  0  0  0  0  0
  195.7240  174.6760  146.0410 C   0  0  0  0  0  1  0  0  0  0  0  0
  192.6630  176.6880  145.2690 O   0  0  0  0  0  0  0  0  0  0  0  0
  193.3590  173.9560  145.7800 C   0  0  1  0  0  3  0  0  0  0  0  0
  191.9510  174.3980  145.3950 C   0  0  0  0  0  2  0  0  0  0  0  0
  193.9160  176.3990  145.8400 C   0  0  2  0  0  3  0  0  0  0  0  0
  193.6480  172.7520  145.1660 F   0  0  0  0  0  0  0  0  0  0  0  0
  194.8320  177.3740  145.4450 O   0  0  0  0  0  1  0  0  0  0  0  0
  194.3970  175.0110  145.3870 C   0  0  1  0  0  3  0  0  0  0  0  0
  191.7290  175.8310  145.8790 C   0  0  2  0  0  3  0  0  0  0  0  0
  184.9860  178.1130  146.3530 C   0  0  0  0  0  2  0  0  0  0  0  0
  184.1290  178.2500  145.2270 O   0  0  0  0  0  0  0  0  0  0  0  0
  185.3590  180.0640  144.3770 C   0  0  0  0  0  2  0  0  0  0  0  0
  184.2520  179.3380  144.3700 C   0  0  0  0  0  3  0  0  0  0  0  0
  188.1270  176.1380  142.5060 C   0  0  0  0  0  2  0  0  0  0  0  0
  187.8580  177.4250  141.7940 C   0  0  0  0  0  0  0  0  0  0  0  0
  188.7700  178.2090  141.5900 O   0  0  0  0  0  0  0  0  0  0  0  0
  186.1910  177.8410  141.2860 S   0  0  0  0  0  0  0  0  0  0  0  0
  186.5050  177.3500  139.5680 C   0  0  0  0  0  1  0  0  0  0  0  0
  1  6  1  6  0  0  0
  1  4  1  0  0  0  0
  1  7  1  0  0  0  0
  3 19  1  6  0  0  0
  3  5  1  0  0  0  0
  4  3  1  0  0  0  0
  6  9  2  0  0  0  0
  7  2  1  0  0  0  0
  7  5  1  0  0  0  0
  8  2  2  0  0  0  0
  9  8  1  0  0  0  0
 11 14  1  0  0  0  0
 11 18  1  0  0  0  0
 12 15  1  6  0  0  0
 13 12  1  0  0  0  0
 13 18  1  0  0  0  0
 14 16  1  6  0  0  0
 17 12  1  0  0  0  0
 17 14  1  0  0  0  0
 17 10  1  1  0  0  0
 18  8  1  6  0  0  0
 20 19  1  0  0  0  0
 22 21  2  0  0  0  0
 22 20  1  0  0  0  0
 23  6  1  0  0  0  0
 24 23  1  0  0  0  0
 25 24  2  0  0  0  0
 26 24  1  0  0  0  0
 27 26  1  0  0  0  0
M  END
>  <MODEL>
3

>  <REMARK>
 VINA RESULT:      -6.6      2.458      3.983
  Name = 
  7 active torsions:
  status: ('A' for Active; 'I' for Inactive)
    1  A    between atoms: C_2  and  S_4
    2  A    between atoms: C_2  and  C_15
    3  A    between atoms: C_8  and  O_26
    4  A    between atoms: C_10  and  C_14
    5  A    between atoms: C_14  and  O_26
    6  A    between atoms: C_15  and  C_19
    7  A    between atoms: C_21  and  C_23
                            x       y       z     vdW  Elec       q    Type
                         _______ _______ _______ _____ _____    ______ ____

>  <TORSDO>
F 7

$$$$
=
 OpenBabel11042414203D

 27 29  0  0  1  0  0  0  0  0999 V2000
  187.7080  177.0700  144.8080 C   0  0  2  0  0  3  0  0  0  0  0  0
  190.0550  177.4710  145.6460 C   0  0  0  0  0  3  0  0  0  0  0  0
  186.6800  176.8140  146.8150 C   0  0  1  0  0  3  0  0  0  0  0  0
  186.6220  176.4410  145.4500 O   0  0  0  0  0  0  0  0  0  0  0  0
  188.0260  177.4420  147.1140 C   0  0  0  0  0  2  0  0  0  0  0  0
  188.3730  176.1520  143.8110 C   0  0  0  0  0  0  0  0  0  0  0  0
  188.6390  177.5150  145.8240 N   0  0  0  0  0  0  0  0  0  0  0  0
  190.5500  176.8280  144.5900 C   0  0  0  0  0  0  0  0  0  0  0  0
  189.6700  176.1160  143.7030 N   0  0  0  0  0  0  0  0  0  0  0  0
  196.0480  175.8330  143.8600 C   0  0  0  0  0  1  0  0  0  0  0  0
  192.3350  175.8440  143.3770 O   0  0  0  0  0  0  0  0  0  0  0  0
  194.2240  176.3370  145.4740 C   0  0  1  0  0  3  0  0  0  0  0  0
  192.7150  176.3510  145.6930 C   0  0  0  0  0  2  0  0  0  0  0  0
  193.6880  176.0410  143.0440 C   0  0  2  0  0  3  0  0  0  0  0  0
  194.8440  175.7600  146.5670 F   0  0  0  0  0  0  0  0  0  0  0  0
  193.9820  175.3190  141.8870 O   0  0  0  0  0  1  0  0  0  0  0  0
  194.5900  175.5750  144.1970 C   0  0  1  0  0  3  0  0  0  0  0  0
  192.0270  176.7660  144.3930 C   0  0  2  0  0  3  0  0  0  0  0  0
  185.5340  177.7550  147.1790 C   0  0  0  0  0  2  0  0  0  0  0  0
  184.4620  177.6610  146.2500 O   0  0  0  0  0  0  0  0  0  0  0  0
  184.3790  179.0670  144.3680 C   0  0  0  0  0  2  0  0  0  0  0  0
  183.9840  178.7940  145.6010 C   0  0  0  0  0  3  0  0  0  0  0  0
  187.5390  175.4300  142.8040 C   0  0  0  0  0  2  0  0  0  0  0  0
  187.7470  176.0080  141.4420 C   0  0  0  0  0  0  0  0  0  0  0  0
  188.1730  175.3040  140.5410 O   0  0  0  0  0  0  0  0  0  0  0  0
  187.4200  177.7430  141.1410 S   0  0  0  0  0  0  0  0  0  0  0  0
  186.4670  177.3870  139.6390 C   0  0  0  0  0  1  0  0  0  0  0  0
  1  6  1  6  0  0  0
  1  4  1  0  0  0  0
  1  7  1  0  0  0  0
  2  7  1  0  0  0  0
  3  5  1  0  0  0  0
  3 19  1  6  0  0  0
  4  3  1  0  0  0  0
  7  5  1  0  0  0  0
  8  2  2  0  0  0  0
  9  6  2  0  0  0  0
  9  8  1  0  0  0  0
 11 18  1  0  0  0  0
 12 13  1  0  0  0  0
 12 15  1  1  0  0  0
 14 16  1  6  0  0  0
 14 11  1  0  0  0  0
 14 17  1  0  0  0  0
 17 10  1  6  0  0  0
 17 12  1  0  0  0  0
 18  8  1  1  0  0  0
 18 13  1  0  0  0  0
 20 19  1  0  0  0  0
 21 22  2  0  0  0  0
 22 20  1  0  0  0  0
 23  6  1  0  0  0  0
 24 23  1  0  0  0  0
 25 24  2  0  0  0  0
 26 24  1  0  0  0  0
 27 26  1  0  0  0  0
M  END
>  <MODEL>
4

>  <REMARK>
 VINA RESULT:      -6.5      2.518      4.190
  Name = 
  7 active torsions:
  status: ('A' for Active; 'I' for Inactive)
    1  A    between atoms: C_2  and  S_4
    2  A    between atoms: C_2  and  C_15
    3  A    between atoms: C_8  and  O_26
    4  A    between atoms: C_10  and  C_14
    5  A    between atoms: C_14  and  O_26
    6  A    between atoms: C_15  and  C_19
    7  A    between atoms: C_21  and  C_23
                            x       y       z     vdW  Elec       q    Type
                         _______ _______ _______ _____ _____    ______ ____

>  <TORSDO>
F 7

$$$$
=
 OpenBabel11042414203D

 27 29  0  0  1  0  0  0  0  0999 V2000
  191.7250  175.1890  145.3100 C   0  0  2  0  0  3  0  0  0  0  0  0
  190.0730  177.0940  145.4300 C   0  0  0  0  0  3  0  0  0  0  0  0
  193.3860  176.2630  144.1970 C   0  0  1  0  0  3  0  0  0  0  0  0
  192.8030  174.9920  144.4220 O   0  0  0  0  0  0  0  0  0  0  0  0
  192.4560  177.3470  144.7030 C   0  0  0  0  0  2  0  0  0  0  0  0
  190.5250  174.3610  144.9190 C   0  0  0  0  0  0  0  0  0  0  0  0
  191.4100  176.6030  145.3330 N   0  0  0  0  0  0  0  0  0  0  0  0
  189.0630  176.2360  145.3070 C   0  0  0  0  0  0  0  0  0  0  0  0
  189.3230  174.8580  144.9890 N   0  0  0  0  0  0  0  0  0  0  0  0
  184.0700  178.7980  145.8100 C   0  0  0  0  0  1  0  0  0  0  0  0
  187.5280  177.9290  144.6690 O   0  0  0  0  0  0  0  0  0  0  0  0
  185.8310  177.4430  146.9260 C   0  0  1  0  0  3  0  0  0  0  0  0
  187.2810  176.9760  146.8600 C   0  0  0  0  0  2  0  0  0  0  0  0
  186.1490  178.1860  144.5540 C   0  0  2  0  0  3  0  0  0  0  0  0
  185.5420  177.8700  148.2080 F   0  0  0  0  0  0  0  0  0  0  0  0
  185.9540  179.2260  143.6440 O   0  0  0  0  0  1  0  0  0  0  0  0
  185.5660  178.5690  145.9230 C   0  0  1  0  0  3  0  0  0  0  0  0
  187.6600  176.7340  145.3990 C   0  0  2  0  0  3  0  0  0  0  0  0
  194.7640  176.3620  144.8500 C   0  0  0  0  0  2  0  0  0  0  0  0
  195.1140  175.1580  145.5190 O   0  0  0  0  0  0  0  0  0  0  0  0
  196.7960  173.6340  146.1310 C   0  0  0  0  0  2  0  0  0  0  0  0
  196.3440  174.5510  145.2910 C   0  0  0  0  0  3  0  0  0  0  0  0
  190.6940  172.9030  144.6440 C   0  0  0  0  0  2  0  0  0  0  0  0
  190.1020  172.5490  143.3180 C   0  0  0  0  0  0  0  0  0  0  0  0
  189.0600  171.9160  143.2660 O   0  0  0  0  0  0  0  0  0  0  0  0
  190.9450  173.0080  141.8050 S   0  0  0  0  0  0  0  0  0  0  0  0
  189.5860  174.0890  141.2790 C   0  0  0  0  0  1  0  0  0  0  0  0
  1  4  1  6  0  0  0
  1  7  1  0  0  0  0
  3  4  1  0  0  0  0
  3  5  1  0  0  0  0
  3 19  1  1  0  0  0
  5  7  1  0  0  0  0
  6  9  2  0  0  0  0
  6  1  1  0  0  0  0
  7  2  1  0  0  0  0
  8  2  2  0  0  0  0
  9  8  1  0  0  0  0
 11 18  1  0  0  0  0
 12 15  1  1  0  0  0
 13 12  1  0  0  0  0
 14 16  1  6  0  0  0
 14 11  1  0  0  0  0
 14 17  1  0  0  0  0
 17 10  1  6  0  0  0
 17 12  1  0  0  0  0
 18  8  1  1  0  0  0
 18 13  1  0  0  0  0
 19 20  1  0  0  0  0
 22 20  1  0  0  0  0
 22 21  2  0  0  0  0
 23  6  1  0  0  0  0
 24 23  1  0  0  0  0
 25 24  2  0  0  0  0
 26 24  1  0  0  0  0
 27 26  1  0  0  0  0
M  END
>  <MODEL>
5

>  <REMARK>
 VINA RESULT:      -6.4      3.455      8.084
  Name = 
  7 active torsions:
  status: ('A' for Active; 'I' for Inactive)
    1  A    between atoms: C_2  and  S_4
    2  A    between atoms: C_2  and  C_15
    3  A    between atoms: C_8  and  O_26
    4  A    between atoms: C_10  and  C_14
    5  A    between atoms: C_14  and  O_26
    6  A    between atoms: C_15  and  C_19
    7  A    between atoms: C_21  and  C_23
                            x       y       z     vdW  Elec       q    Type
                         _______ _______ _______ _____ _____    ______ ____

>  <TORSDO>
F 7

$$$$
=
 OpenBabel11042414203D

 27 29  0  0  1  0  0  0  0  0999 V2000
  188.5090  177.0270  144.0450 C   0  0  2  0  0  3  0  0  0  0  0  0
  190.6950  176.8730  142.7920 C   0  0  0  0  0  3  0  0  0  0  0  0
  187.3550  178.2760  142.5420 C   0  0  1  0  0  3  0  0  0  0  0  0
  187.4690  177.9710  143.9200 O   0  0  0  0  0  0  0  0  0  0  0  0
  188.5690  177.7520  141.8020 C   0  0  0  0  0  2  0  0  0  0  0  0
  189.3800  177.3150  145.2440 C   0  0  0  0  0  0  0  0  0  0  0  0
  189.2760  177.0340  142.8170 N   0  0  0  0  0  0  0  0  0  0  0  0
  191.3650  176.9040  143.9420 C   0  0  0  0  0  0  0  0  0  0  0  0
  190.6750  177.1890  145.1700 N   0  0  0  0  0  0  0  0  0  0  0  0
  196.8340  175.5500  143.8710 C   0  0  0  0  0  1  0  0  0  0  0  0
  193.2280  175.8540  142.9130 O   0  0  0  0  0  0  0  0  0  0  0  0
  194.8490  176.1050  145.2620 C   0  0  1  0  0  3  0  0  0  0  0  0
  193.3290  176.2180  145.2850 C   0  0  0  0  0  2  0  0  0  0  0  0
  194.6230  175.9680  142.7700 C   0  0  2  0  0  3  0  0  0  0  0  0
  195.2790  175.4310  146.3910 F   0  0  0  0  0  0  0  0  0  0  0  0
  195.0200  175.2850  141.6210 O   0  0  0  0  0  1  0  0  0  0  0  0
  195.3310  175.3820  144.0010 C   0  0  1  0  0  3  0  0  0  0  0  0
  192.8480  176.7450  143.9340 C   0  0  2  0  0  3  0  0  0  0  0  0
  186.0610  177.7120  141.9570 C   0  0  0  0  0  2  0  0  0  0  0  0
  185.0690  177.5270  142.9590 O   0  0  0  0  0  0  0  0  0  0  0  0
  184.0770  179.0270  144.4730 C   0  0  0  0  0  2  0  0  0  0  0  0
  184.1560  178.5350  143.2470 C   0  0  0  0  0  3  0  0  0  0  0  0
  188.7460  177.5490  146.5760 C   0  0  0  0  0  2  0  0  0  0  0  0
  187.7830  176.4530  146.8970 C   0  0  0  0  0  0  0  0  0  0  0  0
  188.1910  175.3160  147.0740 O   0  0  0  0  0  0  0  0  0  0  0  0
  186.0260  176.7930  146.9720 S   0  0  0  0  0  0  0  0  0  0  0  0
  186.2950  178.4840  147.5690 C   0  0  0  0  0  1  0  0  0  0  0  0
  1  4  1  6  0  0  0
  1  6  1  0  0  0  0
  2  7  1  0  0  0  0
  2  8  2  0  0  0  0
  3 19  1  6  0  0  0
  3  4  1  0  0  0  0
  5  3  1  0  0  0  0
  5  7  1  0  0  0  0
  6 23  1  0  0  0  0
  7  1  1  0  0  0  0
  8  9  1  0  0  0  0
  9  6  2  0  0  0  0
 11 18  1  0  0  0  0
 12 13  1  0  0  0  0
 12 15  1  1  0  0  0
 14 16  1  6  0  0  0
 14 11  1  0  0  0  0
 14 17  1  0  0  0  0
 17 10  1  6  0  0  0
 17 12  1  0  0  0  0
 18  8  1  1  0  0  0
 18 13  1  0  0  0  0
 19 20  1  0  0  0  0
 20 22  1  0  0  0  0
 22 21  2  0  0  0  0
 23 24  1  0  0  0  0
 24 26  1  0  0  0  0
 24 25  2  0  0  0  0
 26 27  1  0  0  0  0
M  END
>  <MODEL>
6

>  <REMARK>
 VINA RESULT:      -6.4      1.990      2.663
  Name = 
  7 active torsions:
  status: ('A' for Active; 'I' for Inactive)
    1  A    between atoms: C_2  and  S_4
    2  A    between atoms: C_2  and  C_15
    3  A    between atoms: C_8  and  O_26
    4  A    between atoms: C_10  and  C_14
    5  A    between atoms: C_14  and  O_26
    6  A    between atoms: C_15  and  C_19
    7  A    between atoms: C_21  and  C_23
                            x       y       z     vdW  Elec       q    Type
                         _______ _______ _______ _____ _____    ______ ____

>  <TORSDO>
F 7

$$$$
=
 OpenBabel11042414203D

 27 29  0  0  1  0  0  0  0  0999 V2000
  191.7540  175.0060  145.4240 C   0  0  2  0  0  3  0  0  0  0  0  0
  190.4690  177.1740  145.5670 C   0  0  0  0  0  3  0  0  0  0  0  0
  193.6100  175.7910  144.3810 C   0  0  1  0  0  3  0  0  0  0  0  0
  192.8030  174.6410  144.5540 O   0  0  0  0  0  0  0  0  0  0  0  0
  192.8770  177.0110  144.9000 C   0  0  0  0  0  2  0  0  0  0  0  0
  190.4360  174.4180  144.9830 C   0  0  0  0  0  0  0  0  0  0  0  0
  191.6980  176.4520  145.4840 N   0  0  0  0  0  0  0  0  0  0  0  0
  189.3250  176.5160  145.3960 C   0  0  0  0  0  0  0  0  0  0  0  0
  189.3410  175.1230  145.0420 N   0  0  0  0  0  0  0  0  0  0  0  0
  184.1350  178.6480  145.9100 C   0  0  0  0  0  1  0  0  0  0  0  0
  187.3890  176.9710  146.6910 O   0  0  0  0  0  0  0  0  0  0  0  0
  185.8340  177.6620  144.3860 C   0  0  1  0  0  3  0  0  0  0  0  0
  187.1290  176.8600  144.3060 C   0  0  0  0  0  2  0  0  0  0  0  0
  186.3430  177.9020  146.8280 C   0  0  2  0  0  3  0  0  0  0  0  0
  184.9250  177.1640  143.4700 F   0  0  0  0  0  0  0  0  0  0  0  0
  185.8230  177.8150  148.1190 O   0  0  0  0  0  1  0  0  0  0  0  0
  185.2400  177.6150  145.7970 C   0  0  1  0  0  3  0  0  0  0  0  0
  188.0320  177.2560  145.4730 C   0  0  2  0  0  3  0  0  0  0  0  0
  194.9650  175.6220  145.0660 C   0  0  0  0  0  2  0  0  0  0  0  0
  195.3700  174.2600  145.1000 O   0  0  0  0  0  0  0  0  0  0  0  0
  196.8150  172.5980  145.9220 C   0  0  0  0  0  2  0  0  0  0  0  0
  196.5320  173.8810  145.7620 C   0  0  0  0  0  3  0  0  0  0  0  0
  190.3470  172.9620  144.6660 C   0  0  0  0  0  2  0  0  0  0  0  0
  189.8060  172.7580  143.2880 C   0  0  0  0  0  0  0  0  0  0  0  0
  188.9320  171.9290  143.0940 O   0  0  0  0  0  0  0  0  0  0  0  0
  190.4710  173.6930  141.9130 S   0  0  0  0  0  0  0  0  0  0  0  0
  188.8510  174.4000  141.5030 C   0  0  0  0  0  1  0  0  0  0  0  0
  1  4  1  6  0  0  0
  1  7  1  0  0  0  0
  3  4  1  0  0  0  0
  3  5  1  0  0  0  0
  3 19  1  1  0  0  0
  5  7  1  0  0  0  0
  6  9  2  0  0  0  0
  6  1  1  0  0  0  0
  7  2  1  0  0  0  0
  8  2  2  0  0  0  0
  9  8  1  0  0  0  0
 11 14  1  0  0  0  0
 12 15  1  6  0  0  0
 12 17  1  0  0  0  0
 13 12  1  0  0  0  0
 13 18  1  0  0  0  0
 14 16  1  1  0  0  0
 17 10  1  6  0  0  0
 17 14  1  0  0  0  0
 18  8  1  6  0  0  0
 18 11  1  0  0  0  0
 19 20  1  0  0  0  0
 20 22  1  0  0  0  0
 22 21  2  0  0  0  0
 23  6  1  0  0  0  0
 24 23  1  0  0  0  0
 25 24  2  0  0  0  0
 26 24  1  0  0  0  0
 27 26  1  0  0  0  0
M  END
>  <MODEL>
7

>  <REMARK>
 VINA RESULT:      -6.4      3.668      8.271
  Name = 
  7 active torsions:
  status: ('A' for Active; 'I' for Inactive)
    1  A    between atoms: C_2  and  S_4
    2  A    between atoms: C_2  and  C_15
    3  A    between atoms: C_8  and  O_26
    4  A    between atoms: C_10  and  C_14
    5  A    between atoms: C_14  and  O_26
    6  A    between atoms: C_15  and  C_19
    7  A    between atoms: C_21  and  C_23
                            x       y       z     vdW  Elec       q    Type
                         _______ _______ _______ _____ _____    ______ ____

>  <TORSDO>
F 7

$$$$
=
 OpenBabel11042414203D

 27 29  0  0  1  0  0  0  0  0999 V2000
  187.1460  177.3100  144.0560 C   0  0  2  0  0  3  0  0  0  0  0  0
  187.0660  175.8180  142.0210 C   0  0  0  0  0  3  0  0  0  0  0  0
  185.5820  178.8250  143.4140 C   0  0  1  0  0  3  0  0  0  0  0  0
  186.7510  178.6570  144.1950 O   0  0  0  0  0  0  0  0  0  0  0  0
  185.4070  177.6330  142.4960 C   0  0  0  0  0  2  0  0  0  0  0  0
  188.6430  177.1810  143.9170 C   0  0  0  0  0  0  0  0  0  0  0  0
  186.4550  176.7530  142.9110 N   0  0  0  0  0  0  0  0  0  0  0  0
  188.3720  175.5870  142.1300 C   0  0  0  0  0  0  0  0  0  0  0  0
  189.1610  176.3400  143.0670 N   0  0  0  0  0  0  0  0  0  0  0  0
  190.1740  171.5690  138.6150 C   0  0  0  0  0  1  0  0  0  0  0  0
  188.2010  174.3880  140.0900 O   0  0  0  0  0  0  0  0  0  0  0  0
  190.0080  172.3460  140.9710 C   0  0  1  0  0  3  0  0  0  0  0  0
  189.3000  173.3000  141.9280 C   0  0  0  0  0  2  0  0  0  0  0  0
  188.9820  173.7100  139.1360 C   0  0  2  0  0  3  0  0  0  0  0  0
  190.0670  171.0860  141.5360 F   0  0  0  0  0  0  0  0  0  0  0  0
  188.2860  173.6640  137.9280 O   0  0  0  0  0  1  0  0  0  0  0  0
  189.2900  172.2840  139.6200 C   0  0  1  0  0  3  0  0  0  0  0  0
  189.0270  174.6190  141.2040 C   0  0  2  0  0  3  0  0  0  0  0  0
  184.3530  179.0320  144.2980 C   0  0  0  0  0  2  0  0  0  0  0  0
  184.7160  179.3530  145.6350 O   0  0  0  0  0  0  0  0  0  0  0  0
  185.3320  178.2870  147.6370 C   0  0  0  0  0  2  0  0  0  0  0  0
  184.4420  178.4730  146.6750 C   0  0  0  0  0  3  0  0  0  0  0  0
  189.5360  177.8710  144.8940 C   0  0  0  0  0  2  0  0  0  0  0  0
  189.5020  177.1750  146.2160 C   0  0  0  0  0  0  0  0  0  0  0  0
  188.7190  177.5420  147.0770 O   0  0  0  0  0  0  0  0  0  0  0  0
  190.6410  175.8350  146.5570 S   0  0  0  0  0  0  0  0  0  0  0  0
  189.3160  174.7520  147.1590 C   0  0  0  0  0  1  0  0  0  0  0  0
  1  6  1  6  0  0  0
  1  4  1  0  0  0  0
  2  8  2  0  0  0  0
  2  7  1  0  0  0  0
  3  4  1  0  0  0  0
  3 19  1  1  0  0  0
  5  7  1  0  0  0  0
  5  3  1  0  0  0  0
  6 23  1  0  0  0  0
  7  1  1  0  0  0  0
  8  9  1  0  0  0  0
  9  6  2  0  0  0  0
 11 18  1  0  0  0  0
 12 15  1  1  0  0  0
 12 13  1  0  0  0  0
 14 16  1  6  0  0  0
 14 17  1  0  0  0  0
 14 11  1  0  0  0  0
 17 10  1  6  0  0  0
 17 12  1  0  0  0  0
 18 13  1  0  0  0  0
 18  8  1  1  0  0  0
 19 20  1  0  0  0  0
 20 22  1  0  0  0  0
 22 21  2  0  0  0  0
 23 24  1  0  0  0  0
 24 26  1  0  0  0  0
 24 25  2  0  0  0  0
 26 27  1  0  0  0  0
M  END
>  <MODEL>
8

>  <REMARK>
 VINA RESULT:      -6.3      3.827      5.395
  Name = 
  7 active torsions:
  status: ('A' for Active; 'I' for Inactive)
    1  A    between atoms: C_2  and  S_4
    2  A    between atoms: C_2  and  C_15
    3  A    between atoms: C_8  and  O_26
    4  A    between atoms: C_10  and  C_14
    5  A    between atoms: C_14  and  O_26
    6  A    between atoms: C_15  and  C_19
    7  A    between atoms: C_21  and  C_23
                            x       y       z     vdW  Elec       q    Type
                         _______ _______ _______ _____ _____    ______ ____

>  <TORSDO>
F 7

$$$$
=
 OpenBabel11042414203D

 27 29  0  0  1  0  0  0  0  0999 V2000
  188.1200  177.2960  144.1470 C   0  0  2  0  0  3  0  0  0  0  0  0
  190.3720  177.2790  145.2880 C   0  0  0  0  0  3  0  0  0  0  0  0
  186.8620  176.5750  145.8920 C   0  0  1  0  0  3  0  0  0  0  0  0
  186.9420  176.5950  144.4790 O   0  0  0  0  0  0  0  0  0  0  0  0
  188.1910  176.9970  146.4850 C   0  0  0  0  0  2  0  0  0  0  0  0
  188.8540  176.6400  143.0020 C   0  0  0  0  0  0  0  0  0  0  0  0
  188.9480  177.3760  145.3330 N   0  0  0  0  0  0  0  0  0  0  0  0
  190.9560  176.9160  144.1480 C   0  0  0  0  0  0  0  0  0  0  0  0
  190.1530  176.5400  143.0160 N   0  0  0  0  0  0  0  0  0  0  0  0
  196.4590  175.7320  143.9070 C   0  0  0  0  0  1  0  0  0  0  0  0
  192.8100  175.8850  143.0860 O   0  0  0  0  0  0  0  0  0  0  0  0
  194.5140  176.2800  145.3550 C   0  0  1  0  0  3  0  0  0  0  0  0
  192.9920  176.3460  145.4360 C   0  0  0  0  0  2  0  0  0  0  0  0
  194.1940  176.0370  142.8810 C   0  0  2  0  0  3  0  0  0  0  0  0
  195.0100  175.6650  146.4900 F   0  0  0  0  0  0  0  0  0  0  0  0
  194.5670  175.3220  141.7430 O   0  0  0  0  0  1  0  0  0  0  0  0
  194.9690  175.5220  144.1040 C   0  0  1  0  0  3  0  0  0  0  0  0
  192.4410  176.8030  144.0850 C   0  0  2  0  0  3  0  0  0  0  0  0
  185.7220  177.4620  146.3920 C   0  0  0  0  0  2  0  0  0  0  0  0
  184.7830  177.7400  145.3620 O   0  0  0  0  0  0  0  0  0  0  0  0
  185.2300  179.7700  144.2670 C   0  0  0  0  0  2  0  0  0  0  0  0
  184.4410  179.0500  145.0490 C   0  0  0  0  0  3  0  0  0  0  0  0
  188.1100  176.2840  141.7580 C   0  0  0  0  0  2  0  0  0  0  0  0
  188.1600  174.8090  141.5230 C   0  0  0  0  0  0  0  0  0  0  0  0
  187.7740  174.0410  142.3880 O   0  0  0  0  0  0  0  0  0  0  0  0
  188.8340  174.1650  139.9920 S   0  0  0  0  0  0  0  0  0  0  0  0
  190.3610  173.6130  140.8010 C   0  0  0  0  0  1  0  0  0  0  0  0
  1  6  1  6  0  0  0
  1  4  1  0  0  0  0
  1  7  1  0  0  0  0
  2  7  1  0  0  0  0
  3 19  1  6  0  0  0
  3  5  1  0  0  0  0
  4  3  1  0  0  0  0
  6  9  2  0  0  0  0
  7  5  1  0  0  0  0
  8  2  2  0  0  0  0
  9  8  1  0  0  0  0
 11 18  1  0  0  0  0
 12 13  1  0  0  0  0
 12 15  1  1  0  0  0
 14 16  1  6  0  0  0
 14 11  1  0  0  0  0
 14 17  1  0  0  0  0
 17 10  1  6  0  0  0
 17 12  1  0  0  0  0
 18  8  1  1  0  0  0
 18 13  1  0  0  0  0
 20 19  1  0  0  0  0
 21 22  2  0  0  0  0
 22 20  1  0  0  0  0
 23  6  1  0  0  0  0
 24 23  1  0  0  0  0
 24 25  2  0  0  0  0
 26 27  1  0  0  0  0
 26 24  1  0  0  0  0
M  END
>  <MODEL>
9

>  <REMARK>
 VINA RESULT:      -6.2      2.987      4.485
  Name = 
  7 active torsions:
  status: ('A' for Active; 'I' for Inactive)
    1  A    between atoms: C_2  and  S_4
    2  A    between atoms: C_2  and  C_15
    3  A    between atoms: C_8  and  O_26
    4  A    between atoms: C_10  and  C_14
    5  A    between atoms: C_14  and  O_26
    6  A    between atoms: C_15  and  C_19
    7  A    between atoms: C_21  and  C_23
                            x       y       z     vdW  Elec       q    Type
                         _______ _______ _______ _____ _____    ______ ____

>  <TORSDO>
F 7

$$$$
