=
 OpenBabel11042419463D

 50 55  0  0  1  0  0  0  0  0999 V2000
  194.0200  171.6970  144.6830 C   0  0  0  0  0  2  0  0  0  0  0  0
  197.1400  171.2300  143.3650 C   0  0  0  0  0  1  0  0  0  0  0  0
  191.2870  171.6560  142.3840 C   0  0  2  0  0  3  0  0  0  0  0  0
  194.7530  168.7390  143.3830 C   0  0  0  0  0  2  0  0  0  0  0  0
  196.1060  169.0860  143.6460 O   0  0  0  0  0  0  0  0  0  0  0  0
  191.9570  172.4150  143.5250 C   0  0  2  0  0  3  0  0  0  0  0  0
  193.9830  170.0050  143.0840 C   0  0  2  0  0  3  0  0  0  0  0  0
  194.7510  170.9530  143.8610 C   0  0  2  0  0  3  0  0  0  0  0  0
  196.1110  170.4170  144.1260 C   0  0  0  0  0  0  0  0  0  0  0  0
  192.5970  170.0670  143.7200 C   0  0  2  0  0  3  0  0  0  0  0  0
  196.4660  170.4140  145.6070 C   0  0  0  0  0  1  0  0  0  0  0  0
  191.5350  170.1730  142.6450 C   0  0  0  0  0  2  0  0  0  0  0  0
  192.5750  171.3960  144.4710 C   0  0  1  0  0  3  0  0  0  0  0  0
  190.0370  172.7550  144.8750 O   0  0  0  0  0  0  0  0  0  0  0  0
  190.9750  173.2910  144.2290 C   0  0  0  0  0  0  0  0  0  0  0  0
  191.1080  174.7200  144.1670 N   0  0  0  0  0  2  0  0  0  0  0  0
  190.3740  175.6620  144.9590 C   0  0  0  0  0  0  0  0  0  0  0  0
  189.1600  176.2050  144.5150 C   0  0  0  0  0  3  0  0  0  0  0  0
  188.4450  177.1220  145.3010 C   0  0  0  0  0  0  0  0  0  0  0  0
  190.8660  176.0250  146.2160 C   0  0  0  0  0  3  0  0  0  0  0  0
  188.9610  177.4800  146.5560 C   0  0  0  0  0  3  0  0  0  0  0  0
  190.1640  176.9330  147.0120 C   0  0  0  0  0  3  0  0  0  0  0  0
  186.9820  178.1150  143.5680 C   0  0  0  0  0  3  0  0  0  0  0  0
  187.1500  177.6860  144.8270 C   0  0  0  0  0  0  0  0  0  0  0  0
  185.9890  177.7740  145.7460 C   0  0  0  0  0  0  0  0  0  0  0  0
  185.3680  176.5920  146.2430 N   0  0  0  0  0  1  0  0  0  0  0  0
  185.5440  178.8950  146.1110 O   0  0  0  0  0  0  0  0  0  0  0  0
  188.0330  178.1150  142.6000 N   0  0  0  0  0  2  0  0  0  0  0  0
  187.8720  177.4720  141.3660 N   0  0  0  0  0  2  0  0  0  0  0  0
  186.4470  177.2600  141.1760 C   0  0  0  0  0  2  0  0  0  0  0  0
  186.0190  177.9570  140.0460 O   0  0  0  0  0  1  0  0  0  0  0  0
  191.8650  172.0880  141.0260 C   0  0  1  0  0  3  0  0  0  0  0  0
  190.7790  172.5600  140.1020 C   0  0  0  0  0  0  0  0  0  0  0  0
  188.8340  174.1040  139.6880 C   0  0  0  0  0  1  0  0  0  0  0  0
  190.6430  172.0400  138.9600 O   0  0  0  0  0  0  0  0  0  0  0  0
  189.9020  173.6010  140.5330 N   0  0  0  0  0  2  0  0  0  0  0  0
  193.5110  173.5510  139.8490 C   0  0  2  0  0  3  0  0  0  0  0  0
  192.9080  173.1930  141.1950 C   0  0  2  0  0  3  0  0  0  0  0  0
  194.2790  172.6710  140.8100 C   0  0  0  0  0  2  0  0  0  0  0  0
  194.0470  174.9670  139.9200 C   0  0  0  0  0  2  0  0  0  0  0  0
  195.4860  174.9550  139.7330 N   0  0  0  0  0  2  0  0  0  0  0  0
  196.0580  175.6480  140.8730 C   0  0  0  0  0  2  0  0  0  0  0  0
  194.9930  176.2450  141.6600 N   0  0  0  0  0  2  0  0  0  0  0  0
  194.5330  176.4440  145.4200 C   0  0  0  0  0  2  0  0  0  0  0  0
  195.9450  174.7410  143.3110 C   0  0  0  0  0  2  0  0  0  0  0  0
  196.0160  174.4130  145.8370 C   0  0  0  0  0  2  0  0  0  0  0  0
  196.8010  174.7600  144.5680 C   0  0  0  0  0  2  0  0  0  0  0  0
  194.1790  176.4400  143.9380 C   0  0  0  0  0  2  0  0  0  0  0  0
  194.6090  175.0100  145.9270 C   0  0  0  0  0  2  0  0  0  0  0  0
  195.3860  176.1370  143.0530 C   0  0  0  0  0  3  0  0  0  0  0  0
  2  9  1  0  0  0  0
  3 32  1  6  0  0  0
  3 12  1  0  0  0  0
  3  6  1  0  0  0  0
  4  5  1  0  0  0  0
  5  9  1  0  0  0  0
  6 15  1  1  0  0  0
  6 13  1  0  0  0  0
  7  4  1  1  0  0  0
  7 10  1  0  0  0  0
  7  8  1  0  0  0  0
  8  9  1  0  0  0  0
  8  1  1  1  0  0  0
  9 11  1  0  0  0  0
 10 12  1  6  0  0  0
 10 13  1  0  0  0  0
 13  1  1  6  0  0  0
 15 14  2  0  0  0  0
 16 15  1  0  0  0  0
 16 17  1  0  0  0  0
 17 20  1  0  0  0  0
 18 17  2  0  0  0  0
 18 19  1  0  0  0  0
 19 21  2  0  0  0  0
 20 22  2  0  0  0  0
 21 22  1  0  0  0  0
 23 24  2  0  0  0  0
 24 19  1  0  0  0  0
 24 25  1  0  0  0  0
 25 27  2  0  0  0  0
 25 26  1  0  0  0  0
 28 23  1  0  0  0  0
 29 28  1  0  0  0  0
 30 29  1  0  0  0  0
 31 30  1  0  0  0  0
 32 33  1  6  0  0  0
 33 36  1  0  0  0  0
 34 36  1  0  0  0  0
 35 33  2  0  0  0  0
 37 40  1  1  0  0  0
 37 39  1  0  0  0  0
 37 38  1  0  0  0  0
 38 32  1  6  0  0  0
 39 38  1  0  0  0  0
 41 40  1  0  0  0  0
 41 42  1  0  0  0  0
 42 43  1  0  0  0  0
 43 50  1  0  0  0  0
 44 49  1  0  0  0  0
 45 47  1  0  0  0  0
 46 49  1  0  0  0  0
 47 46  1  0  0  0  0
 48 44  1  0  0  0  0
 50 45  1  0  0  0  0
 50 48  1  0  0  0  0
M  END
>  <MODEL>
1

>  <REMARK>
 VINA RESULT:      -6.4      0.000      0.000
  Name = 
  15 active torsions:
  status: ('A' for Active; 'I' for Inactive)
    1  A    between atoms: C_1  and  N_45
    2  A    between atoms: C_3  and  C_41
    3  A    between atoms: C_6  and  C_36
    4  A    between atoms: C_7  and  C_39
    5  A    between atoms: C_11  and  C_36
    6  A    between atoms: C_12  and  C_39
    7  A    between atoms: C_15  and  N_26
    8  A    between atoms: C_16  and  C_36
    9  A    between atoms: C_17  and  C_42
   10  A    between atoms: N_18  and  C_41
   11  A    between atoms: N_18  and  C_47
   12  A    between atoms: C_19  and  N_23
   13  A    between atoms: N_23  and  N_26
   14  A    between atoms: N_37  and  C_47
   15  A    between atoms: N_37  and  C_48
                            x       y       z     vdW  Elec       q    Type
                         _______ _______ _______ _____ _____    ______ ____

>  <TORSDO>
F 15

$$$$
=
 OpenBabel11042419463D

 50 55  0  0  1  0  0  0  0  0999 V2000
  194.0790  171.7690  144.7230 C   0  0  0  0  0  2  0  0  0  0  0  0
  197.2750  171.2280  143.6330 C   0  0  0  0  0  1  0  0  0  0  0  0
  191.5030  171.6470  142.2530 C   0  0  2  0  0  3  0  0  0  0  0  0
  194.8700  168.7540  143.5990 C   0  0  0  0  0  2  0  0  0  0  0  0
  196.2060  169.1040  143.9350 O   0  0  0  0  0  0  0  0  0  0  0  0
  192.1030  172.4490  143.4030 C   0  0  2  0  0  3  0  0  0  0  0  0
  194.1320  170.0110  143.1980 C   0  0  2  0  0  3  0  0  0  0  0  0
  194.8560  170.9860  143.9830 C   0  0  2  0  0  3  0  0  0  0  0  0
  196.1900  170.4540  144.3580 C   0  0  0  0  0  0  0  0  0  0  0  0
  192.7080  170.1070  143.7380 C   0  0  2  0  0  3  0  0  0  0  0  0
  196.4480  170.5110  145.8580 C   0  0  0  0  0  1  0  0  0  0  0  0
  191.7190  170.1740  142.5920 C   0  0  0  0  0  2  0  0  0  0  0  0
  192.6490  171.4670  144.4290 C   0  0  1  0  0  3  0  0  0  0  0  0
  190.3120  172.9080  144.8880 O   0  0  0  0  0  0  0  0  0  0  0  0
  191.0850  173.3600  144.0030 C   0  0  0  0  0  0  0  0  0  0  0  0
  190.9970  174.7280  143.5750 N   0  0  0  0  0  2  0  0  0  0  0  0
  190.2230  175.7540  144.2080 C   0  0  0  0  0  0  0  0  0  0  0  0
  188.9670  176.1340  143.7160 C   0  0  0  0  0  3  0  0  0  0  0  0
  188.2120  177.1360  144.3460 C   0  0  0  0  0  0  0  0  0  0  0  0
  190.7190  176.3680  145.3620 C   0  0  0  0  0  3  0  0  0  0  0  0
  188.7330  177.7460  145.4980 C   0  0  0  0  0  3  0  0  0  0  0  0
  189.9790  177.3630  146.0040 C   0  0  0  0  0  3  0  0  0  0  0  0
  185.7440  177.2580  144.4950 C   0  0  0  0  0  3  0  0  0  0  0  0
  186.8740  177.5260  143.8230 C   0  0  0  0  0  0  0  0  0  0  0  0
  186.7540  178.2500  142.5340 C   0  0  0  0  0  0  0  0  0  0  0  0
  187.7430  178.0930  141.5200 N   0  0  0  0  0  1  0  0  0  0  0  0
  185.7690  179.0050  142.3120 O   0  0  0  0  0  0  0  0  0  0  0  0
  185.7260  176.5360  145.7270 N   0  0  0  0  0  2  0  0  0  0  0  0
  185.2350  177.1290  146.8980 N   0  0  0  0  0  2  0  0  0  0  0  0
  184.9090  178.5080  146.5760 C   0  0  0  0  0  2  0  0  0  0  0  0
  185.7550  179.3630  147.2820 O   0  0  0  0  0  1  0  0  0  0  0  0
  192.1710  172.0170  140.9190 C   0  0  1  0  0  3  0  0  0  0  0  0
  191.1490  172.4120  139.8930 C   0  0  0  0  0  0  0  0  0  0  0  0
  189.1350  173.7990  139.2920 C   0  0  0  0  0  1  0  0  0  0  0  0
  191.1700  171.8970  138.7400 O   0  0  0  0  0  0  0  0  0  0  0  0
  190.1510  173.3730  140.2380 N   0  0  0  0  0  2  0  0  0  0  0  0
  193.8120  173.5080  139.7700 C   0  0  2  0  0  3  0  0  0  0  0  0
  193.1770  173.1530  141.1020 C   0  0  2  0  0  3  0  0  0  0  0  0
  194.5740  172.6650  140.7680 C   0  0  0  0  0  2  0  0  0  0  0  0
  194.3050  174.9400  139.8330 C   0  0  0  0  0  2  0  0  0  0  0  0
  195.7560  174.9570  139.8340 N   0  0  0  0  0  2  0  0  0  0  0  0
  196.1600  175.8590  140.8970 C   0  0  0  0  0  2  0  0  0  0  0  0
  194.9950  176.2370  141.6780 N   0  0  0  0  0  2  0  0  0  0  0  0
  194.5030  176.4820  145.4320 C   0  0  0  0  0  2  0  0  0  0  0  0
  195.9290  174.7510  143.3550 C   0  0  0  0  0  2  0  0  0  0  0  0
  195.9780  174.4530  145.8860 C   0  0  0  0  0  2  0  0  0  0  0  0
  196.7750  174.7830  144.6200 C   0  0  0  0  0  2  0  0  0  0  0  0
  194.1630  176.4620  143.9480 C   0  0  0  0  0  2  0  0  0  0  0  0
  194.5720  175.0550  145.9570 C   0  0  0  0  0  2  0  0  0  0  0  0
  195.3760  176.1450  143.0760 C   0  0  0  0  0  3  0  0  0  0  0  0
  2  9  1  0  0  0  0
  3 32  1  6  0  0  0
  3 12  1  0  0  0  0
  3  6  1  0  0  0  0
  4  5  1  0  0  0  0
  5  9  1  0  0  0  0
  6 15  1  1  0  0  0
  6 13  1  0  0  0  0
  7  4  1  1  0  0  0
  7 10  1  0  0  0  0
  7  8  1  0  0  0  0
  8  9  1  0  0  0  0
  8  1  1  1  0  0  0
  9 11  1  0  0  0  0
 10 12  1  6  0  0  0
 10 13  1  0  0  0  0
 13  1  1  6  0  0  0
 15 14  2  0  0  0  0
 16 15  1  0  0  0  0
 16 17  1  0  0  0  0
 17 20  1  0  0  0  0
 18 17  2  0  0  0  0
 18 19  1  0  0  0  0
 19 21  2  0  0  0  0
 20 22  2  0  0  0  0
 21 22  1  0  0  0  0
 23 28  1  0  0  0  0
 24 19  1  0  0  0  0
 24 23  2  0  0  0  0
 25 24  1  0  0  0  0
 26 25  1  0  0  0  0
 27 25  2  0  0  0  0
 28 29  1  0  0  0  0
 30 29  1  0  0  0  0
 30 31  1  0  0  0  0
 32 33  1  6  0  0  0
 33 36  1  0  0  0  0
 34 36  1  0  0  0  0
 35 33  2  0  0  0  0
 37 40  1  1  0  0  0
 37 39  1  0  0  0  0
 37 38  1  0  0  0  0
 38 32  1  6  0  0  0
 39 38  1  0  0  0  0
 40 41  1  0  0  0  0
 41 42  1  0  0  0  0
 42 43  1  0  0  0  0
 43 50  1  0  0  0  0
 44 49  1  0  0  0  0
 45 47  1  0  0  0  0
 46 49  1  0  0  0  0
 47 46  1  0  0  0  0
 48 44  1  0  0  0  0
 50 45  1  0  0  0  0
 50 48  1  0  0  0  0
M  END
>  <MODEL>
2

>  <REMARK>
 VINA RESULT:      -6.4      0.698      2.055
  Name = 
  15 active torsions:
  status: ('A' for Active; 'I' for Inactive)
    1  A    between atoms: C_1  and  N_45
    2  A    between atoms: C_3  and  C_41
    3  A    between atoms: C_6  and  C_36
    4  A    between atoms: C_7  and  C_39
    5  A    between atoms: C_11  and  C_36
    6  A    between atoms: C_12  and  C_39
    7  A    between atoms: C_15  and  N_26
    8  A    between atoms: C_16  and  C_36
    9  A    between atoms: C_17  and  C_42
   10  A    between atoms: N_18  and  C_41
   11  A    between atoms: N_18  and  C_47
   12  A    between atoms: C_19  and  N_23
   13  A    between atoms: N_23  and  N_26
   14  A    between atoms: N_37  and  C_47
   15  A    between atoms: N_37  and  C_48
                            x       y       z     vdW  Elec       q    Type
                         _______ _______ _______ _____ _____    ______ ____

>  <TORSDO>
F 15

$$$$
=
 OpenBabel11042419463D

 50 55  0  0  1  0  0  0  0  0999 V2000
  192.3370  172.2400  143.8550 C   0  0  0  0  0  2  0  0  0  0  0  0
  195.7110  171.6920  143.7750 C   0  0  0  0  0  1  0  0  0  0  0  0
  190.5890  171.9230  140.7580 C   0  0  2  0  0  3  0  0  0  0  0  0
  193.4210  169.1780  143.2010 C   0  0  0  0  0  2  0  0  0  0  0  0
  194.6010  169.5710  143.8870 O   0  0  0  0  0  0  0  0  0  0  0  0
  190.8300  172.8030  141.9800 C   0  0  2  0  0  3  0  0  0  0  0  0
  192.8310  170.3940  142.5250 C   0  0  2  0  0  3  0  0  0  0  0  0
  193.2950  171.4280  143.4230 C   0  0  2  0  0  3  0  0  0  0  0  0
  194.4630  170.9440  144.2020 C   0  0  0  0  0  0  0  0  0  0  0  0
  191.3110  170.4970  142.6220 C   0  0  2  0  0  3  0  0  0  0  0  0
  194.2740  171.0960  145.7060 C   0  0  0  0  0  1  0  0  0  0  0  0
  190.6980  170.4770  141.2370 C   0  0  0  0  0  2  0  0  0  0  0  0
  191.0540  171.8950  143.1790 C   0  0  1  0  0  3  0  0  0  0  0  0
  188.5240  173.2470  142.3180 O   0  0  0  0  0  0  0  0  0  0  0  0
  189.6810  173.7300  142.2010 C   0  0  0  0  0  0  0  0  0  0  0  0
  189.9000  175.1470  142.2810 N   0  0  0  0  0  2  0  0  0  0  0  0
  188.9350  176.1200  142.6970 C   0  0  0  0  0  0  0  0  0  0  0  0
  188.5790  176.2720  144.0440 C   0  0  0  0  0  3  0  0  0  0  0  0
  187.6370  177.2330  144.4430 C   0  0  0  0  0  0  0  0  0  0  0  0
  188.3560  176.9580  141.7390 C   0  0  0  0  0  3  0  0  0  0  0  0
  187.0610  178.0580  143.4630 C   0  0  0  0  0  3  0  0  0  0  0  0
  187.4200  177.9220  142.1190 C   0  0  0  0  0  3  0  0  0  0  0  0
  188.1810  177.2800  146.8570 C   0  0  0  0  0  3  0  0  0  0  0  0
  187.2730  177.3960  145.8780 C   0  0  0  0  0  0  0  0  0  0  0  0
  185.8770  177.7140  146.2660 C   0  0  0  0  0  0  0  0  0  0  0  0
  185.5190  179.0340  146.6670 N   0  0  0  0  0  1  0  0  0  0  0  0
  184.9850  176.8240  146.2340 O   0  0  0  0  0  0  0  0  0  0  0  0
  189.5480  176.9420  146.6140 N   0  0  0  0  0  2  0  0  0  0  0  0
  190.1710  175.9130  147.3320 N   0  0  0  0  0  2  0  0  0  0  0  0
  189.2820  174.7650  147.2950 C   0  0  0  0  0  2  0  0  0  0  0  0
  189.6380  173.9340  146.2330 O   0  0  0  0  0  1  0  0  0  0  0  0
  191.6170  172.2250  139.6540 C   0  0  1  0  0  3  0  0  0  0  0  0
  190.9360  172.6110  138.3730 C   0  0  0  0  0  0  0  0  0  0  0  0
  189.2820  174.0900  137.1820 C   0  0  0  0  0  1  0  0  0  0  0  0
  191.2090  172.0080  137.2990 O   0  0  0  0  0  0  0  0  0  0  0  0
  189.9740  173.6660  138.3860 N   0  0  0  0  0  2  0  0  0  0  0  0
  193.6300  173.5550  139.0120 C   0  0  2  0  0  3  0  0  0  0  0  0
  192.5740  173.3370  140.0800 C   0  0  2  0  0  3  0  0  0  0  0  0
  193.9710  172.7750  140.2620 C   0  0  0  0  0  2  0  0  0  0  0  0
  194.1600  174.9690  139.1360 C   0  0  0  0  0  2  0  0  0  0  0  0
  195.5850  174.9330  139.4110 N   0  0  0  0  0  2  0  0  0  0  0  0
  195.7920  175.6980  140.6270 C   0  0  0  0  0  2  0  0  0  0  0  0
  194.5220  176.2350  141.0820 N   0  0  0  0  0  2  0  0  0  0  0  0
  193.1360  176.4000  144.6090 C   0  0  0  0  0  2  0  0  0  0  0  0
  195.4420  175.1450  143.0450 C   0  0  0  0  0  2  0  0  0  0  0  0
  194.9970  174.9310  145.5450 C   0  0  0  0  0  2  0  0  0  0  0  0
  195.9290  175.4620  144.4520 C   0  0  0  0  0  2  0  0  0  0  0  0
  193.1640  176.2430  143.0950 C   0  0  0  0  0  2  0  0  0  0  0  0
  193.4980  175.0740  145.2640 C   0  0  0  0  0  2  0  0  0  0  0  0
  194.5830  176.2950  142.5310 C   0  0  0  0  0  3  0  0  0  0  0  0
  2  9  1  0  0  0  0
  3 32  1  6  0  0  0
  3 12  1  0  0  0  0
  3  6  1  0  0  0  0
  4  5  1  0  0  0  0
  5  9  1  0  0  0  0
  6 15  1  1  0  0  0
  6 13  1  0  0  0  0
  7 10  1  0  0  0  0
  7  4  1  1  0  0  0
  7  8  1  0  0  0  0
  8  1  1  1  0  0  0
  8  9  1  0  0  0  0
  9 11  1  0  0  0  0
 10 12  1  6  0  0  0
 10 13  1  0  0  0  0
 13  1  1  6  0  0  0
 15 16  1  0  0  0  0
 15 14  2  0  0  0  0
 16 17  1  0  0  0  0
 17 18  1  0  0  0  0
 18 19  2  0  0  0  0
 19 24  1  0  0  0  0
 20 22  1  0  0  0  0
 20 17  2  0  0  0  0
 21 19  1  0  0  0  0
 22 21  2  0  0  0  0
 24 25  1  0  0  0  0
 24 23  2  0  0  0  0
 25 26  1  0  0  0  0
 27 25  2  0  0  0  0
 28 23  1  0  0  0  0
 28 29  1  0  0  0  0
 30 29  1  0  0  0  0
 31 30  1  0  0  0  0
 32 33  1  6  0  0  0
 33 36  1  0  0  0  0
 34 36  1  0  0  0  0
 35 33  2  0  0  0  0
 37 40  1  1  0  0  0
 37 38  1  0  0  0  0
 37 39  1  0  0  0  0
 38 32  1  6  0  0  0
 38 39  1  0  0  0  0
 40 41  1  0  0  0  0
 41 42  1  0  0  0  0
 42 43  1  0  0  0  0
 43 50  1  0  0  0  0
 44 49  1  0  0  0  0
 45 47  1  0  0  0  0
 47 46  1  0  0  0  0
 48 44  1  0  0  0  0
 49 46  1  0  0  0  0
 50 45  1  0  0  0  0
 50 48  1  0  0  0  0
M  END
>  <MODEL>
3

>  <REMARK>
 VINA RESULT:      -6.2      1.720      2.772
  Name = 
  15 active torsions:
  status: ('A' for Active; 'I' for Inactive)
    1  A    between atoms: C_1  and  N_45
    2  A    between atoms: C_3  and  C_41
    3  A    between atoms: C_6  and  C_36
    4  A    between atoms: C_7  and  C_39
    5  A    between atoms: C_11  and  C_36
    6  A    between atoms: C_12  and  C_39
    7  A    between atoms: C_15  and  N_26
    8  A    between atoms: C_16  and  C_36
    9  A    between atoms: C_17  and  C_42
   10  A    between atoms: N_18  and  C_41
   11  A    between atoms: N_18  and  C_47
   12  A    between atoms: C_19  and  N_23
   13  A    between atoms: N_23  and  N_26
   14  A    between atoms: N_37  and  C_47
   15  A    between atoms: N_37  and  C_48
                            x       y       z     vdW  Elec       q    Type
                         _______ _______ _______ _____ _____    ______ ____

>  <TORSDO>
F 15

$$$$
=
 OpenBabel11042419463D

 50 55  0  0  1  0  0  0  0  0999 V2000
  188.1140  176.8090  146.1750 C   0  0  0  0  0  2  0  0  0  0  0  0
  184.7260  176.7860  146.6390 C   0  0  0  0  0  1  0  0  0  0  0  0
  189.2810  176.1970  142.8560 C   0  0  2  0  0  3  0  0  0  0  0  0
  186.3160  179.2100  144.7680 C   0  0  0  0  0  2  0  0  0  0  0  0
  185.3610  178.9330  145.7840 O   0  0  0  0  0  0  0  0  0  0  0  0
  189.4160  175.8120  144.3260 C   0  0  2  0  0  3  0  0  0  0  0  0
  187.0470  177.9290  144.4360 C   0  0  2  0  0  3  0  0  0  0  0  0
  186.9510  177.2510  145.7090 C   0  0  2  0  0  3  0  0  0  0  0  0
  185.8340  177.8140  146.5080 C   0  0  0  0  0  0  0  0  0  0  0  0
  188.5510  178.0940  144.2340 C   0  0  2  0  0  3  0  0  0  0  0  0
  186.2700  178.2640  147.8960 C   0  0  0  0  0  1  0  0  0  0  0  0
  188.9360  177.6840  142.8270 C   0  0  0  0  0  2  0  0  0  0  0  0
  189.1810  177.0590  145.1640 C   0  0  1  0  0  3  0  0  0  0  0  0
  190.8540  173.9630  144.6950 O   0  0  0  0  0  0  0  0  0  0  0  0
  190.7560  175.2140  144.5970 C   0  0  0  0  0  0  0  0  0  0  0  0
  191.9090  176.0580  144.7370 N   0  0  0  0  0  2  0  0  0  0  0  0
  193.2700  175.6130  144.7850 C   0  0  0  0  0  0  0  0  0  0  0  0
  193.9830  175.3060  143.6190 C   0  0  0  0  0  3  0  0  0  0  0  0
  195.3180  174.8770  143.6760 C   0  0  0  0  0  0  0  0  0  0  0  0
  193.9100  175.5120  146.0240 C   0  0  0  0  0  3  0  0  0  0  0  0
  195.9390  174.7730  144.9300 C   0  0  0  0  0  3  0  0  0  0  0  0
  195.2400  175.0910  146.0980 C   0  0  0  0  0  3  0  0  0  0  0  0
  196.0820  173.3320  141.8980 C   0  0  0  0  0  3  0  0  0  0  0  0
  196.0730  174.5630  142.4300 C   0  0  0  0  0  0  0  0  0  0  0  0
  196.8320  175.6240  141.7260 C   0  0  0  0  0  0  0  0  0  0  0  0
  197.6370  175.3090  140.5930 N   0  0  0  0  0  1  0  0  0  0  0  0
  196.7660  176.8220  142.1120 O   0  0  0  0  0  0  0  0  0  0  0  0
  195.4190  172.2200  142.5020 N   0  0  0  0  0  2  0  0  0  0  0  0
  196.0940  171.3840  143.4010 N   0  0  0  0  0  2  0  0  0  0  0  0
  195.0990  170.8430  144.3120 C   0  0  0  0  0  2  0  0  0  0  0  0
  194.0790  171.7760  144.4960 O   0  0  0  0  0  1  0  0  0  0  0  0
  188.1910  175.3580  142.1680 C   0  0  1  0  0  3  0  0  0  0  0  0
  187.0150  176.2080  141.7840 C   0  0  0  0  0  0  0  0  0  0  0  0
  185.9620  177.7990  140.1400 C   0  0  0  0  0  1  0  0  0  0  0  0
  185.9960  176.2600  142.5270 O   0  0  0  0  0  0  0  0  0  0  0  0
  187.0660  176.9590  140.5710 N   0  0  0  0  0  2  0  0  0  0  0  0
  188.4070  173.1720  140.9800 C   0  0  2  0  0  3  0  0  0  0  0  0
  188.7390  174.6520  140.9280 C   0  0  2  0  0  3  0  0  0  0  0  0
  189.7990  173.6460  141.3320 C   0  0  0  0  0  2  0  0  0  0  0  0
  188.3990  172.6260  139.5670 C   0  0  0  0  0  2  0  0  0  0  0  0
  189.4020  171.5850  139.4390 N   0  0  0  0  0  2  0  0  0  0  0  0
  190.0510  171.7880  138.1570 C   0  0  0  0  0  2  0  0  0  0  0  0
  191.4900  171.7030  138.3250 N   0  0  0  0  0  2  0  0  0  0  0  0
  193.5100  174.6140  139.6830 C   0  0  0  0  0  2  0  0  0  0  0  0
  192.6020  173.4220  137.0190 C   0  0  0  0  0  2  0  0  0  0  0  0
  193.9950  175.5290  137.3530 C   0  0  0  0  0  2  0  0  0  0  0  0
  192.6670  174.9350  136.8730 C   0  0  0  0  0  2  0  0  0  0  0  0
  193.0080  173.1870  139.5050 C   0  0  0  0  0  2  0  0  0  0  0  0
  194.5710  174.9130  138.6320 C   0  0  0  0  0  2  0  0  0  0  0  0
  191.9920  173.0650  138.3710 C   0  0  0  0  0  3  0  0  0  0  0  0
  3 32  1  1  0  0  0
  3  6  1  0  0  0  0
  4  5  1  0  0  0  0
  5  9  1  0  0  0  0
  6 15  1  6  0  0  0
  6 13  1  0  0  0  0
  7  4  1  1  0  0  0
  7  8  1  0  0  0  0
  8  1  1  1  0  0  0
  8  9  1  0  0  0  0
  9  2  1  0  0  0  0
  9 11  1  0  0  0  0
 10 12  1  6  0  0  0
 10  7  1  0  0  0  0
 10 13  1  0  0  0  0
 12  3  1  0  0  0  0
 13  1  1  1  0  0  0
 15 14  2  0  0  0  0
 15 16  1  0  0  0  0
 16 17  1  0  0  0  0
 17 20  1  0  0  0  0
 18 19  1  0  0  0  0
 18 17  2  0  0  0  0
 19 21  2  0  0  0  0
 20 22  2  0  0  0  0
 21 22  1  0  0  0  0
 23 24  2  0  0  0  0
 23 28  1  0  0  0  0
 24 19  1  0  0  0  0
 25 27  2  0  0  0  0
 25 24  1  0  0  0  0
 26 25  1  0  0  0  0
 28 29  1  0  0  0  0
 29 30  1  0  0  0  0
 30 31  1  0  0  0  0
 32 33  1  6  0  0  0
 33 35  2  0  0  0  0
 34 36  1  0  0  0  0
 36 33  1  0  0  0  0
 37 40  1  6  0  0  0
 37 39  1  0  0  0  0
 38 37  1  0  0  0  0
 38 39  1  0  0  0  0
 38 32  1  1  0  0  0
 41 40  1  0  0  0  0
 42 43  1  0  0  0  0
 42 41  1  0  0  0  0
 43 50  1  0  0  0  0
 45 50  1  0  0  0  0
 46 49  1  0  0  0  0
 47 45  1  0  0  0  0
 47 46  1  0  0  0  0
 48 44  1  0  0  0  0
 49 44  1  0  0  0  0
 50 48  1  0  0  0  0
M  END
>  <MODEL>
4

>  <REMARK>
 VINA RESULT:      -6.1      2.246      8.409
  Name = 
  15 active torsions:
  status: ('A' for Active; 'I' for Inactive)
    1  A    between atoms: C_1  and  N_45
    2  A    between atoms: C_3  and  C_41
    3  A    between atoms: C_6  and  C_36
    4  A    between atoms: C_7  and  C_39
    5  A    between atoms: C_11  and  C_36
    6  A    between atoms: C_12  and  C_39
    7  A    between atoms: C_15  and  N_26
    8  A    between atoms: C_16  and  C_36
    9  A    between atoms: C_17  and  C_42
   10  A    between atoms: N_18  and  C_41
   11  A    between atoms: N_18  and  C_47
   12  A    between atoms: C_19  and  N_23
   13  A    between atoms: N_23  and  N_26
   14  A    between atoms: N_37  and  C_47
   15  A    between atoms: N_37  and  C_48
                            x       y       z     vdW  Elec       q    Type
                         _______ _______ _______ _____ _____    ______ ____

>  <TORSDO>
F 15

$$$$
=
 OpenBabel11042419463D

 50 55  0  0  1  0  0  0  0  0999 V2000
  187.8790  177.1540  146.3470 C   0  0  0  0  0  2  0  0  0  0  0  0
  184.4780  177.1120  146.7010 C   0  0  0  0  0  1  0  0  0  0  0  0
  189.1660  176.2690  143.1360 C   0  0  2  0  0  3  0  0  0  0  0  0
  186.0940  179.3870  144.6710 C   0  0  0  0  0  2  0  0  0  0  0  0
  185.1090  179.1850  145.6760 O   0  0  0  0  0  0  0  0  0  0  0  0
  189.2570  176.0190  144.6380 C   0  0  2  0  0  3  0  0  0  0  0  0
  186.8550  178.0950  144.4800 C   0  0  2  0  0  3  0  0  0  0  0  0
  186.7260  177.5320  145.8050 C   0  0  2  0  0  3  0  0  0  0  0  0
  185.5740  178.1450  146.5140 C   0  0  0  0  0  0  0  0  0  0  0  0
  188.3620  178.2680  144.3130 C   0  0  2  0  0  3  0  0  0  0  0  0
  185.9560  178.7250  147.8690 C   0  0  0  0  0  1  0  0  0  0  0  0
  188.8000  177.7410  142.9620 C   0  0  0  0  0  2  0  0  0  0  0  0
  188.9750  177.3330  145.3520 C   0  0  1  0  0  3  0  0  0  0  0  0
  190.6770  174.2810  145.4040 O   0  0  0  0  0  0  0  0  0  0  0  0
  190.5960  175.4720  145.0040 C   0  0  0  0  0  0  0  0  0  0  0  0
  191.7680  176.2960  144.8980 N   0  0  0  0  0  2  0  0  0  0  0  0
  193.1220  175.8420  145.0100 C   0  0  0  0  0  0  0  0  0  0  0  0
  193.8820  175.5130  143.8800 C   0  0  0  0  0  3  0  0  0  0  0  0
  195.2100  175.0750  144.0000 C   0  0  0  0  0  0  0  0  0  0  0  0
  193.7080  175.7550  146.2770 C   0  0  0  0  0  3  0  0  0  0  0  0
  195.7760  174.9860  145.2820 C   0  0  0  0  0  3  0  0  0  0  0  0
  195.0300  175.3260  146.4140 C   0  0  0  0  0  3  0  0  0  0  0  0
  196.0520  173.4950  142.2910 C   0  0  0  0  0  3  0  0  0  0  0  0
  196.0150  174.7380  142.7930 C   0  0  0  0  0  0  0  0  0  0  0  0
  196.7950  175.7880  142.0940 C   0  0  0  0  0  0  0  0  0  0  0  0
  197.1120  175.6550  140.7110 N   0  0  0  0  0  1  0  0  0  0  0  0
  197.1770  176.8190  142.7100 O   0  0  0  0  0  0  0  0  0  0  0  0
  195.3730  172.3920  142.8940 N   0  0  0  0  0  2  0  0  0  0  0  0
  195.9940  171.6260  143.8890 N   0  0  0  0  0  2  0  0  0  0  0  0
  194.9490  171.1640  144.7880 C   0  0  0  0  0  2  0  0  0  0  0  0
  193.8470  172.0130  144.6950 O   0  0  0  0  0  1  0  0  0  0  0  0
  188.1130  175.3520  142.4910 C   0  0  1  0  0  3  0  0  0  0  0  0
  187.0520  176.1530  141.7940 C   0  0  0  0  0  0  0  0  0  0  0  0
  186.3250  177.4380  139.7550 C   0  0  0  0  0  1  0  0  0  0  0  0
  185.9470  176.3780  142.3620 O   0  0  0  0  0  0  0  0  0  0  0  0
  187.3100  176.6590  140.4840 N   0  0  0  0  0  2  0  0  0  0  0  0
  189.4280  173.2430  142.2430 C   0  0  2  0  0  3  0  0  0  0  0  0
  188.7570  174.3830  141.4990 C   0  0  2  0  0  3  0  0  0  0  0  0
  190.2620  174.3760  141.6890 C   0  0  0  0  0  2  0  0  0  0  0  0
  189.5170  172.0460  141.3180 C   0  0  0  0  0  2  0  0  0  0  0  0
  190.8570  171.4900  141.3670 N   0  0  0  0  0  2  0  0  0  0  0  0
  191.1960  171.1050  140.0090 C   0  0  0  0  0  2  0  0  0  0  0  0
  189.9930  171.0920  139.1960 N   0  0  0  0  0  2  0  0  0  0  0  0
  190.3270  170.8360  135.4260 C   0  0  0  0  0  2  0  0  0  0  0  0
  189.8100  172.9160  137.6050 C   0  0  0  0  0  2  0  0  0  0  0  0
  189.9700  173.3390  135.0970 C   0  0  0  0  0  2  0  0  0  0  0  0
  190.5870  173.5800  136.4780 C   0  0  0  0  0  2  0  0  0  0  0  0
  189.8780  170.5050  136.8430 C   0  0  0  0  0  2  0  0  0  0  0  0
  189.4320  171.9250  134.8520 C   0  0  0  0  0  2  0  0  0  0  0  0
  190.3780  171.5240  137.8640 C   0  0  0  0  0  3  0  0  0  0  0  0
  3 32  1  1  0  0  0
  3  6  1  0  0  0  0
  4  5  1  0  0  0  0
  5  9  1  0  0  0  0
  6 15  1  6  0  0  0
  6 13  1  0  0  0  0
  7  4  1  1  0  0  0
  7  8  1  0  0  0  0
  8  1  1  1  0  0  0
  8  9  1  0  0  0  0
  9  2  1  0  0  0  0
  9 11  1  0  0  0  0
 10 12  1  6  0  0  0
 10  7  1  0  0  0  0
 10 13  1  0  0  0  0
 12  3  1  0  0  0  0
 13  1  1  1  0  0  0
 15 14  2  0  0  0  0
 16 15  1  0  0  0  0
 16 17  1  0  0  0  0
 17 20  1  0  0  0  0
 18 19  1  0  0  0  0
 18 17  2  0  0  0  0
 19 21  2  0  0  0  0
 20 22  2  0  0  0  0
 21 22  1  0  0  0  0
 23 24  2  0  0  0  0
 23 28  1  0  0  0  0
 24 19  1  0  0  0  0
 25 27  2  0  0  0  0
 25 24  1  0  0  0  0
 26 25  1  0  0  0  0
 28 29  1  0  0  0  0
 29 30  1  0  0  0  0
 31 30  1  0  0  0  0
 32 33  1  6  0  0  0
 33 35  2  0  0  0  0
 34 36  1  0  0  0  0
 36 33  1  0  0  0  0
 37 40  1  6  0  0  0
 38 39  1  0  0  0  0
 38 37  1  0  0  0  0
 38 32  1  1  0  0  0
 39 37  1  0  0  0  0
 40 41  1  0  0  0  0
 42 41  1  0  0  0  0
 43 42  1  0  0  0  0
 44 48  1  0  0  0  0
 45 50  1  0  0  0  0
 46 47  1  0  0  0  0
 47 45  1  0  0  0  0
 48 50  1  0  0  0  0
 49 46  1  0  0  0  0
 49 44  1  0  0  0  0
 50 43  1  0  0  0  0
M  END
>  <MODEL>
5

>  <REMARK>
 VINA RESULT:      -6.0      2.616      8.934
  Name = 
  15 active torsions:
  status: ('A' for Active; 'I' for Inactive)
    1  A    between atoms: C_1  and  N_45
    2  A    between atoms: C_3  and  C_41
    3  A    between atoms: C_6  and  C_36
    4  A    between atoms: C_7  and  C_39
    5  A    between atoms: C_11  and  C_36
    6  A    between atoms: C_12  and  C_39
    7  A    between atoms: C_15  and  N_26
    8  A    between atoms: C_16  and  C_36
    9  A    between atoms: C_17  and  C_42
   10  A    between atoms: N_18  and  C_41
   11  A    between atoms: N_18  and  C_47
   12  A    between atoms: C_19  and  N_23
   13  A    between atoms: N_23  and  N_26
   14  A    between atoms: N_37  and  C_47
   15  A    between atoms: N_37  and  C_48
                            x       y       z     vdW  Elec       q    Type
                         _______ _______ _______ _____ _____    ______ ____

>  <TORSDO>
F 15

$$$$
=
 OpenBabel11042419463D

 50 55  0  0  1  0  0  0  0  0999 V2000
  188.0440  176.9210  146.5030 C   0  0  0  0  0  2  0  0  0  0  0  0
  184.6290  176.8350  146.6700 C   0  0  0  0  0  1  0  0  0  0  0  0
  189.5130  176.1180  143.3490 C   0  0  2  0  0  3  0  0  0  0  0  0
  186.3250  179.1690  144.7790 C   0  0  0  0  0  2  0  0  0  0  0  0
  185.2900  178.9350  145.7240 O   0  0  0  0  0  0  0  0  0  0  0  0
  189.5260  175.8380  144.8480 C   0  0  2  0  0  3  0  0  0  0  0  0
  187.1110  177.8900  144.6020 C   0  0  2  0  0  3  0  0  0  0  0  0
  186.9170  177.2970  145.9070 C   0  0  2  0  0  3  0  0  0  0  0  0
  185.7210  177.8820  146.5640 C   0  0  0  0  0  0  0  0  0  0  0  0
  188.6220  178.0830  144.5210 C   0  0  2  0  0  3  0  0  0  0  0  0
  186.0220  178.4380  147.9500 C   0  0  0  0  0  1  0  0  0  0  0  0
  189.1400  177.5890  143.1860 C   0  0  0  0  0  2  0  0  0  0  0  0
  189.1900  177.1330  145.5730 C   0  0  1  0  0  3  0  0  0  0  0  0
  190.8840  174.4110  146.1690 O   0  0  0  0  0  0  0  0  0  0  0  0
  190.8500  175.2980  145.2760 C   0  0  0  0  0  0  0  0  0  0  0  0
  192.0580  175.7850  144.6720 N   0  0  0  0  0  2  0  0  0  0  0  0
  193.3620  175.2120  144.8310 C   0  0  0  0  0  0  0  0  0  0  0  0
  193.9080  174.3530  143.8690 C   0  0  0  0  0  3  0  0  0  0  0  0
  195.1890  173.8010  144.0310 C   0  0  0  0  0  0  0  0  0  0  0  0
  194.1170  175.5420  145.9600 C   0  0  0  0  0  3  0  0  0  0  0  0
  195.9270  174.1390  145.1760 C   0  0  0  0  0  3  0  0  0  0  0  0
  195.3950  175.0060  146.1350 C   0  0  0  0  0  3  0  0  0  0  0  0
  196.6870  173.3230  142.1180 C   0  0  0  0  0  3  0  0  0  0  0  0
  195.7680  172.8980  142.9980 C   0  0  0  0  0  0  0  0  0  0  0  0
  195.3490  171.4770  142.9250 C   0  0  0  0  0  0  0  0  0  0  0  0
  194.1720  171.1030  142.2140 N   0  0  0  0  0  1  0  0  0  0  0  0
  196.0360  170.5770  143.4800 O   0  0  0  0  0  0  0  0  0  0  0  0
  197.1440  174.6750  142.0650 N   0  0  0  0  0  2  0  0  0  0  0  0
  196.6370  175.5670  141.1100 N   0  0  0  0  0  2  0  0  0  0  0  0
  196.1780  176.7450  141.8250 C   0  0  0  0  0  2  0  0  0  0  0  0
  196.7940  176.8000  143.0750 O   0  0  0  0  0  1  0  0  0  0  0  0
  188.5080  175.2030  142.6290 C   0  0  1  0  0  3  0  0  0  0  0  0
  187.3440  175.9900  142.1000 C   0  0  0  0  0  0  0  0  0  0  0  0
  186.4170  177.5290  140.3360 C   0  0  0  0  0  1  0  0  0  0  0  0
  186.2390  175.9820  142.7100 O   0  0  0  0  0  0  0  0  0  0  0  0
  187.5040  176.7490  140.9020 N   0  0  0  0  0  2  0  0  0  0  0  0
  189.1980  172.9570  141.7870 C   0  0  2  0  0  3  0  0  0  0  0  0
  189.1750  174.4430  141.4830 C   0  0  2  0  0  3  0  0  0  0  0  0
  190.4500  173.7840  141.9740 C   0  0  0  0  0  2  0  0  0  0  0  0
  189.2840  172.1960  140.4790 C   0  0  0  0  0  2  0  0  0  0  0  0
  190.4460  171.3270  140.4940 N   0  0  0  0  0  2  0  0  0  0  0  0
  190.7610  171.0300  139.1080 C   0  0  0  0  0  2  0  0  0  0  0  0
  192.1730  171.2690  138.8720 N   0  0  0  0  0  2  0  0  0  0  0  0
  193.7080  174.6690  139.5620 C   0  0  0  0  0  2  0  0  0  0  0  0
  192.5390  173.0410  137.2550 C   0  0  0  0  0  2  0  0  0  0  0  0
  193.4420  175.4220  137.1410 C   0  0  0  0  0  2  0  0  0  0  0  0
  192.2170  174.5100  137.0210 C   0  0  0  0  0  2  0  0  0  0  0  0
  193.5250  173.1570  139.5810 C   0  0  0  0  0  2  0  0  0  0  0  0
  194.4120  175.0790  138.2760 C   0  0  0  0  0  2  0  0  0  0  0  0
  192.3410  172.7040  138.7290 C   0  0  0  0  0  3  0  0  0  0  0  0
  3 32  1  6  0  0  0
  3  6  1  0  0  0  0
  4  5  1  0  0  0  0
  5  9  1  0  0  0  0
  6 15  1  1  0  0  0
  6 13  1  0  0  0  0
  7  4  1  1  0  0  0
  7  8  1  0  0  0  0
  8  1  1  1  0  0  0
  8  9  1  0  0  0  0
  9  2  1  0  0  0  0
  9 11  1  0  0  0  0
 10 12  1  6  0  0  0
 10  7  1  0  0  0  0
 10 13  1  0  0  0  0
 12  3  1  0  0  0  0
 13  1  1  1  0  0  0
 15 14  2  0  0  0  0
 16 17  1  0  0  0  0
 16 15  1  0  0  0  0
 17 20  1  0  0  0  0
 18 19  1  0  0  0  0
 18 17  2  0  0  0  0
 19 21  2  0  0  0  0
 20 22  2  0  0  0  0
 21 22  1  0  0  0  0
 23 24  2  0  0  0  0
 24 19  1  0  0  0  0
 25 24  1  0  0  0  0
 25 27  2  0  0  0  0
 26 25  1  0  0  0  0
 28 23  1  0  0  0  0
 29 30  1  0  0  0  0
 29 28  1  0  0  0  0
 30 31  1  0  0  0  0
 32 33  1  6  0  0  0
 33 35  2  0  0  0  0
 34 36  1  0  0  0  0
 36 33  1  0  0  0  0
 37 40  1  6  0  0  0
 37 39  1  0  0  0  0
 38 37  1  0  0  0  0
 38 39  1  0  0  0  0
 38 32  1  1  0  0  0
 40 41  1  0  0  0  0
 42 41  1  0  0  0  0
 43 42  1  0  0  0  0
 44 48  1  0  0  0  0
 45 50  1  0  0  0  0
 46 49  1  0  0  0  0
 47 46  1  0  0  0  0
 47 45  1  0  0  0  0
 49 44  1  0  0  0  0
 50 43  1  0  0  0  0
 50 48  1  0  0  0  0
M  END
>  <MODEL>
6

>  <REMARK>
 VINA RESULT:      -6.0      2.228      8.327
  Name = 
  15 active torsions:
  status: ('A' for Active; 'I' for Inactive)
    1  A    between atoms: C_1  and  N_45
    2  A    between atoms: C_3  and  C_41
    3  A    between atoms: C_6  and  C_36
    4  A    between atoms: C_7  and  C_39
    5  A    between atoms: C_11  and  C_36
    6  A    between atoms: C_12  and  C_39
    7  A    between atoms: C_15  and  N_26
    8  A    between atoms: C_16  and  C_36
    9  A    between atoms: C_17  and  C_42
   10  A    between atoms: N_18  and  C_41
   11  A    between atoms: N_18  and  C_47
   12  A    between atoms: C_19  and  N_23
   13  A    between atoms: N_23  and  N_26
   14  A    between atoms: N_37  and  C_47
   15  A    between atoms: N_37  and  C_48
                            x       y       z     vdW  Elec       q    Type
                         _______ _______ _______ _____ _____    ______ ____

>  <TORSDO>
F 15

$$$$
=
 OpenBabel11042419463D

 50 55  0  0  1  0  0  0  0  0999 V2000
  188.2060  176.8410  146.4080 C   0  0  0  0  0  2  0  0  0  0  0  0
  184.8200  176.7450  146.8810 C   0  0  0  0  0  1  0  0  0  0  0  0
  189.3910  176.0040  143.1460 C   0  0  2  0  0  3  0  0  0  0  0  0
  186.3290  179.0620  144.8180 C   0  0  0  0  0  2  0  0  0  0  0  0
  185.3840  178.8360  145.8550 O   0  0  0  0  0  0  0  0  0  0  0  0
  189.5390  175.7430  144.6410 C   0  0  2  0  0  3  0  0  0  0  0  0
  187.1020  177.7830  144.5880 C   0  0  2  0  0  3  0  0  0  0  0  0
  187.0290  177.2060  145.9110 C   0  0  2  0  0  3  0  0  0  0  0  0
  185.8930  177.7950  146.6660 C   0  0  0  0  0  0  0  0  0  0  0  0
  188.6000  177.9800  144.3690 C   0  0  2  0  0  3  0  0  0  0  0  0
  186.3140  178.3690  148.0130 C   0  0  0  0  0  1  0  0  0  0  0  0
  188.9980  177.4720  142.9990 C   0  0  0  0  0  2  0  0  0  0  0  0
  189.2630  177.0450  145.3780 C   0  0  1  0  0  3  0  0  0  0  0  0
  191.0050  174.0370  145.3940 O   0  0  0  0  0  0  0  0  0  0  0  0
  190.8980  175.2130  144.9550 C   0  0  0  0  0  0  0  0  0  0  0  0
  192.0590  176.0340  144.7550 N   0  0  0  0  0  2  0  0  0  0  0  0
  193.4190  175.5880  144.8110 C   0  0  0  0  0  0  0  0  0  0  0  0
  194.1850  175.4220  143.6500 C   0  0  0  0  0  3  0  0  0  0  0  0
  195.5190  174.9900  143.7160 C   0  0  0  0  0  0  0  0  0  0  0  0
  194.0040  175.3410  146.0570 C   0  0  0  0  0  3  0  0  0  0  0  0
  196.0840  174.7390  144.9760 C   0  0  0  0  0  3  0  0  0  0  0  0
  195.3310  174.9150  146.1400 C   0  0  0  0  0  3  0  0  0  0  0  0
  196.3180  173.6900  141.7660 C   0  0  0  0  0  3  0  0  0  0  0  0
  196.3310  174.8270  142.4770 C   0  0  0  0  0  0  0  0  0  0  0  0
  197.1750  175.9410  141.9810 C   0  0  0  0  0  0  0  0  0  0  0  0
  197.6940  176.9140  142.8830 N   0  0  0  0  0  1  0  0  0  0  0  0
  197.4540  176.0360  140.7560 O   0  0  0  0  0  0  0  0  0  0  0  0
  195.5750  172.5350  142.1600 N   0  0  0  0  0  2  0  0  0  0  0  0
  195.1290  171.6100  141.2070 N   0  0  0  0  0  2  0  0  0  0  0  0
  195.2450  172.2450  139.9050 C   0  0  0  0  0  2  0  0  0  0  0  0
  193.9730  172.4810  139.3870 O   0  0  0  0  0  1  0  0  0  0  0  0
  188.3300  175.0770  142.5300 C   0  0  1  0  0  3  0  0  0  0  0  0
  187.2360  175.8690  141.8740 C   0  0  0  0  0  0  0  0  0  0  0  0
  186.4390  177.1870  139.8820 C   0  0  0  0  0  1  0  0  0  0  0  0
  186.1370  176.0510  142.4670 O   0  0  0  0  0  0  0  0  0  0  0  0
  187.4560  176.4140  140.5730 N   0  0  0  0  0  2  0  0  0  0  0  0
  189.8940  173.1580  142.2080 C   0  0  2  0  0  3  0  0  0  0  0  0
  188.9540  174.1240  141.5110 C   0  0  2  0  0  3  0  0  0  0  0  0
  190.4540  174.3420  141.4510 C   0  0  0  0  0  2  0  0  0  0  0  0
  190.0210  171.9080  141.3600 C   0  0  0  0  0  2  0  0  0  0  0  0
  191.3870  171.4200  141.4100 N   0  0  0  0  0  2  0  0  0  0  0  0
  191.7440  171.3300  142.8150 C   0  0  0  0  0  2  0  0  0  0  0  0
  192.0020  169.9440  143.1590 N   0  0  0  0  0  2  0  0  0  0  0  0
  195.2360  168.8850  144.8370 C   0  0  0  0  0  2  0  0  0  0  0  0
  193.5190  171.3760  144.4010 C   0  0  0  0  0  2  0  0  0  0  0  0
  195.7000  171.2350  145.7110 C   0  0  0  0  0  2  0  0  0  0  0  0
  194.1890  171.4850  145.7620 C   0  0  0  0  0  2  0  0  0  0  0  0
  194.1610  169.0130  143.7660 C   0  0  0  0  0  2  0  0  0  0  0  0
  196.1510  170.1010  144.7860 C   0  0  0  0  0  2  0  0  0  0  0  0
  193.0290  169.9470  144.1860 C   0  0  0  0  0  3  0  0  0  0  0  0
  3 32  1  1  0  0  0
  3  6  1  0  0  0  0
  4  5  1  0  0  0  0
  5  9  1  0  0  0  0
  6 15  1  6  0  0  0
  6 13  1  0  0  0  0
  7  4  1  1  0  0  0
  7  8  1  0  0  0  0
  8  1  1  1  0  0  0
  8  9  1  0  0  0  0
  9  2  1  0  0  0  0
  9 11  1  0  0  0  0
 10 12  1  6  0  0  0
 10  7  1  0  0  0  0
 10 13  1  0  0  0  0
 12  3  1  0  0  0  0
 13  1  1  1  0  0  0
 15 14  2  0  0  0  0
 16 17  1  0  0  0  0
 16 15  1  0  0  0  0
 17 20  1  0  0  0  0
 18 19  1  0  0  0  0
 18 17  2  0  0  0  0
 19 21  2  0  0  0  0
 20 22  2  0  0  0  0
 21 22  1  0  0  0  0
 23 28  1  0  0  0  0
 23 24  2  0  0  0  0
 24 19  1  0  0  0  0
 25 24  1  0  0  0  0
 25 26  1  0  0  0  0
 27 25  2  0  0  0  0
 29 28  1  0  0  0  0
 30 29  1  0  0  0  0
 31 30  1  0  0  0  0
 32 33  1  6  0  0  0
 33 35  2  0  0  0  0
 34 36  1  0  0  0  0
 36 33  1  0  0  0  0
 37 40  1  6  0  0  0
 38 37  1  0  0  0  0
 38 32  1  1  0  0  0
 39 38  1  0  0  0  0
 39 37  1  0  0  0  0
 40 41  1  0  0  0  0
 41 42  1  0  0  0  0
 42 43  1  0  0  0  0
 43 50  1  0  0  0  0
 45 47  1  0  0  0  0
 46 47  1  0  0  0  0
 48 50  1  0  0  0  0
 48 44  1  0  0  0  0
 49 44  1  0  0  0  0
 49 46  1  0  0  0  0
 50 45  1  0  0  0  0
M  END
>  <MODEL>
7

>  <REMARK>
 VINA RESULT:      -5.9      2.126      8.081
  Name = 
  15 active torsions:
  status: ('A' for Active; 'I' for Inactive)
    1  A    between atoms: C_1  and  N_45
    2  A    between atoms: C_3  and  C_41
    3  A    between atoms: C_6  and  C_36
    4  A    between atoms: C_7  and  C_39
    5  A    between atoms: C_11  and  C_36
    6  A    between atoms: C_12  and  C_39
    7  A    between atoms: C_15  and  N_26
    8  A    between atoms: C_16  and  C_36
    9  A    between atoms: C_17  and  C_42
   10  A    between atoms: N_18  and  C_41
   11  A    between atoms: N_18  and  C_47
   12  A    between atoms: C_19  and  N_23
   13  A    between atoms: N_23  and  N_26
   14  A    between atoms: N_37  and  C_47
   15  A    between atoms: N_37  and  C_48
                            x       y       z     vdW  Elec       q    Type
                         _______ _______ _______ _____ _____    ______ ____

>  <TORSDO>
F 15

$$$$
=
 OpenBabel11042419463D

 50 55  0  0  1  0  0  0  0  0999 V2000
  189.1120  177.4460  146.3050 C   0  0  0  0  0  2  0  0  0  0  0  0
  186.0790  176.6060  147.6420 C   0  0  0  0  0  1  0  0  0  0  0  0
  190.0200  175.8300  143.2530 C   0  0  2  0  0  3  0  0  0  0  0  0
  186.3710  178.3230  144.6640 C   0  0  0  0  0  2  0  0  0  0  0  0
  185.7260  178.2430  145.9280 O   0  0  0  0  0  0  0  0  0  0  0  0
  190.4680  176.1870  144.6670 C   0  0  2  0  0  3  0  0  0  0  0  0
  187.4950  177.3130  144.6350 C   0  0  2  0  0  3  0  0  0  0  0  0
  187.8220  177.2650  146.0430 C   0  0  2  0  0  3  0  0  0  0  0  0
  186.6780  177.7550  146.8530 C   0  0  0  0  0  0  0  0  0  0  0  0
  188.7820  177.8190  143.9890 C   0  0  2  0  0  3  0  0  0  0  0  0
  187.0670  178.8740  147.8090 C   0  0  0  0  0  1  0  0  0  0  0  0
  189.1250  176.9730  142.7800 C   0  0  0  0  0  2  0  0  0  0  0  0
  189.8690  177.5390  145.0240 C   0  0  1  0  0  3  0  0  0  0  0  0
  192.4920  176.6090  145.8280 O   0  0  0  0  0  0  0  0  0  0  0  0
  191.9570  176.2030  144.7630 C   0  0  0  0  0  0  0  0  0  0  0  0
  192.7580  175.7580  143.6570 N   0  0  0  0  0  2  0  0  0  0  0  0
  194.1710  175.5230  143.6900 C   0  0  0  0  0  0  0  0  0  0  0  0
  194.7000  174.2940  144.1080 C   0  0  0  0  0  3  0  0  0  0  0  0
  196.0860  174.0700  144.1300 C   0  0  0  0  0  0  0  0  0  0  0  0
  195.0400  176.5330  143.2670 C   0  0  0  0  0  3  0  0  0  0  0  0
  196.9410  175.1010  143.7100 C   0  0  0  0  0  3  0  0  0  0  0  0
  196.4210  176.3250  143.2790 C   0  0  0  0  0  3  0  0  0  0  0  0
  196.9650  171.8000  143.6840 C   0  0  0  0  0  3  0  0  0  0  0  0
  196.6400  172.7580  144.5640 C   0  0  0  0  0  0  0  0  0  0  0  0
  196.8670  172.4790  146.0030 C   0  0  0  0  0  0  0  0  0  0  0  0
  196.7400  171.1540  146.5130 N   0  0  0  0  0  1  0  0  0  0  0  0
  197.1890  173.4070  146.7930 O   0  0  0  0  0  0  0  0  0  0  0  0
  196.7610  171.9350  142.2770 N   0  0  0  0  0  2  0  0  0  0  0  0
  195.9720  171.0150  141.5750 N   0  0  0  0  0  2  0  0  0  0  0  0
  195.4700  170.0550  142.5430 C   0  0  0  0  0  2  0  0  0  0  0  0
  195.9200  168.7780  142.2090 O   0  0  0  0  0  1  0  0  0  0  0  0
  189.2670  174.4890  143.2390 C   0  0  1  0  0  3  0  0  0  0  0  0
  188.4650  174.3330  141.9790 C   0  0  0  0  0  0  0  0  0  0  0  0
  188.4200  174.1940  139.4660 C   0  0  0  0  0  1  0  0  0  0  0  0
  187.2110  174.1980  142.0350 O   0  0  0  0  0  0  0  0  0  0  0  0
  189.1370  174.3430  140.7200 N   0  0  0  0  0  2  0  0  0  0  0  0
  189.5240  172.0140  143.0410 C   0  0  2  0  0  3  0  0  0  0  0  0
  190.2320  173.3130  143.3790 C   0  0  2  0  0  3  0  0  0  0  0  0
  189.7620  172.3890  144.4860 C   0  0  0  0  0  2  0  0  0  0  0  0
  190.5590  170.9970  142.6040 C   0  0  0  0  0  2  0  0  0  0  0  0
  190.4390  170.7610  141.1760 N   0  0  0  0  0  2  0  0  0  0  0  0
  191.6470  171.2880  140.5660 C   0  0  0  0  0  2  0  0  0  0  0  0
  191.2880  172.1540  139.4570 N   0  0  0  0  0  2  0  0  0  0  0  0
  193.8090  174.9240  140.0620 C   0  0  0  0  0  2  0  0  0  0  0  0
  193.6620  172.0790  138.9530 C   0  0  0  0  0  2  0  0  0  0  0  0
  195.7320  173.5590  139.0920 C   0  0  0  0  0  2  0  0  0  0  0  0
  194.7280  172.8430  138.1820 C   0  0  0  0  0  2  0  0  0  0  0  0
  192.6650  173.9540  140.3270 C   0  0  0  0  0  2  0  0  0  0  0  0
  195.1360  174.2300  140.3340 C   0  0  0  0  0  2  0  0  0  0  0  0
  192.4490  172.9780  139.1730 C   0  0  0  0  0  3  0  0  0  0  0  0
  3 32  1  1  0  0  0
  3  6  1  0  0  0  0
  4  5  1  0  0  0  0
  5  9  1  0  0  0  0
  6 15  1  6  0  0  0
  6 13  1  0  0  0  0
  7  4  1  1  0  0  0
  7  8  1  0  0  0  0
  8  1  1  6  0  0  0
  8  9  1  0  0  0  0
  9  2  1  0  0  0  0
  9 11  1  0  0  0  0
 10 12  1  6  0  0  0
 10  7  1  0  0  0  0
 10 13  1  0  0  0  0
 12  3  1  0  0  0  0
 13  1  1  1  0  0  0
 15 14  2  0  0  0  0
 16 17  1  0  0  0  0
 16 15  1  0  0  0  0
 17 18  1  0  0  0  0
 18 19  2  0  0  0  0
 19 24  1  0  0  0  0
 20 22  1  0  0  0  0
 20 17  2  0  0  0  0
 21 19  1  0  0  0  0
 22 21  2  0  0  0  0
 23 24  2  0  0  0  0
 24 25  1  0  0  0  0
 25 26  1  0  0  0  0
 25 27  2  0  0  0  0
 28 23  1  0  0  0  0
 29 28  1  0  0  0  0
 29 30  1  0  0  0  0
 31 30  1  0  0  0  0
 32 33  1  6  0  0  0
 33 35  2  0  0  0  0
 34 36  1  0  0  0  0
 36 33  1  0  0  0  0
 37 40  1  6  0  0  0
 37 38  1  0  0  0  0
 37 39  1  0  0  0  0
 38 32  1  1  0  0  0
 38 39  1  0  0  0  0
 41 40  1  0  0  0  0
 42 41  1  0  0  0  0
 43 42  1  0  0  0  0
 44 48  1  0  0  0  0
 44 49  1  0  0  0  0
 45 50  1  0  0  0  0
 46 49  1  0  0  0  0
 47 45  1  0  0  0  0
 47 46  1  0  0  0  0
 50 43  1  0  0  0  0
 50 48  1  0  0  0  0
M  END
>  <MODEL>
8

>  <REMARK>
 VINA RESULT:      -5.8      2.332      8.268
  Name = 
  15 active torsions:
  status: ('A' for Active; 'I' for Inactive)
    1  A    between atoms: C_1  and  N_45
    2  A    between atoms: C_3  and  C_41
    3  A    between atoms: C_6  and  C_36
    4  A    between atoms: C_7  and  C_39
    5  A    between atoms: C_11  and  C_36
    6  A    between atoms: C_12  and  C_39
    7  A    between atoms: C_15  and  N_26
    8  A    between atoms: C_16  and  C_36
    9  A    between atoms: C_17  and  C_42
   10  A    between atoms: N_18  and  C_41
   11  A    between atoms: N_18  and  C_47
   12  A    between atoms: C_19  and  N_23
   13  A    between atoms: N_23  and  N_26
   14  A    between atoms: N_37  and  C_47
   15  A    between atoms: N_37  and  C_48
                            x       y       z     vdW  Elec       q    Type
                         _______ _______ _______ _____ _____    ______ ____

>  <TORSDO>
F 15

$$$$
=
 OpenBabel11042419463D

 50 55  0  0  1  0  0  0  0  0999 V2000
  192.4400  177.1630  144.3050 C   0  0  0  0  0  2  0  0  0  0  0  0
  195.7210  176.2260  144.0820 C   0  0  0  0  0  1  0  0  0  0  0  0
  190.0060  174.6730  143.5140 C   0  0  2  0  0  3  0  0  0  0  0  0
  193.5860  174.9170  146.4540 C   0  0  0  0  0  2  0  0  0  0  0  0
  194.8620  175.4850  146.1930 O   0  0  0  0  0  0  0  0  0  0  0  0
  190.4680  176.1040  143.2580 C   0  0  2  0  0  3  0  0  0  0  0  0
  192.7430  175.0380  145.2050 C   0  0  2  0  0  3  0  0  0  0  0  0
  193.3260  176.2270  144.6260 C   0  0  2  0  0  3  0  0  0  0  0  0
  194.6890  176.4480  145.1720 C   0  0  0  0  0  0  0  0  0  0  0  0
  191.2930  175.4420  145.4580 C   0  0  2  0  0  3  0  0  0  0  0  0
  194.8700  177.8410  145.7600 C   0  0  0  0  0  1  0  0  0  0  0  0
  190.3560  174.3570  144.9660 C   0  0  0  0  0  2  0  0  0  0  0  0
  191.0630  176.6460  144.5480 C   0  0  1  0  0  3  0  0  0  0  0  0
  189.5230  178.1840  142.6240 O   0  0  0  0  0  0  0  0  0  0  0  0
  189.3350  176.9490  142.7790 C   0  0  0  0  0  0  0  0  0  0  0  0
  188.0580  176.3550  142.4980 N   0  0  0  0  0  2  0  0  0  0  0  0
  186.9630  177.0010  141.8390 C   0  0  0  0  0  0  0  0  0  0  0  0
  185.8520  177.4720  142.5510 C   0  0  0  0  0  3  0  0  0  0  0  0
  184.7860  178.1100  141.8980 C   0  0  0  0  0  0  0  0  0  0  0  0
  187.0180  177.1940  140.4550 C   0  0  0  0  0  3  0  0  0  0  0  0
  184.8580  178.2840  140.5060 C   0  0  0  0  0  3  0  0  0  0  0  0
  185.9680  177.8300  139.7890 C   0  0  0  0  0  3  0  0  0  0  0  0
  183.7430  179.1470  143.8890 C   0  0  0  0  0  3  0  0  0  0  0  0
  183.6140  178.6170  142.6640 C   0  0  0  0  0  0  0  0  0  0  0  0
  182.2540  178.5650  142.0750 C   0  0  0  0  0  0  0  0  0  0  0  0
  181.2120  179.3930  142.5830 N   0  0  0  0  0  1  0  0  0  0  0  0
  182.0030  177.7960  141.1080 O   0  0  0  0  0  0  0  0  0  0  0  0
  184.9940  179.2210  144.5750 N   0  0  0  0  0  2  0  0  0  0  0  0
  185.0700  178.9880  145.9550 N   0  0  0  0  0  2  0  0  0  0  0  0
  184.8120  177.5740  146.1650 C   0  0  0  0  0  2  0  0  0  0  0  0
  185.6150  177.1040  147.2040 O   0  0  0  0  0  1  0  0  0  0  0  0
  190.6940  173.6940  142.5480 C   0  0  1  0  0  3  0  0  0  0  0  0
  189.6860  172.9700  141.7030 C   0  0  0  0  0  0  0  0  0  0  0  0
  188.1930  172.9640  139.6760 C   0  0  0  0  0  1  0  0  0  0  0  0
  189.3010  171.8110  142.0220 O   0  0  0  0  0  0  0  0  0  0  0  0
  189.1680  173.6100  140.5370 N   0  0  0  0  0  2  0  0  0  0  0  0
  192.3970  173.4230  140.7420 C   0  0  2  0  0  3  0  0  0  0  0  0
  191.6920  174.4190  141.6450 C   0  0  2  0  0  3  0  0  0  0  0  0
  193.1030  173.9620  141.9650 C   0  0  0  0  0  2  0  0  0  0  0  0
  192.8900  174.1530  139.5080 C   0  0  0  0  0  2  0  0  0  0  0  0
  192.7530  173.2950  138.3460 N   0  0  0  0  0  2  0  0  0  0  0  0
  193.4180  172.0460  138.6710 C   0  0  0  0  0  2  0  0  0  0  0  0
  192.7430  170.9500  137.9990 N   0  0  0  0  0  2  0  0  0  0  0  0
  193.3200  169.0170  141.2110 C   0  0  0  0  0  2  0  0  0  0  0  0
  191.0330  170.0540  139.4700 C   0  0  0  0  0  2  0  0  0  0  0  0
  190.8230  168.7110  141.6250 C   0  0  0  0  0  2  0  0  0  0  0  0
  190.5960  168.7450  140.1110 C   0  0  0  0  0  2  0  0  0  0  0  0
  193.4660  170.1070  140.1570 C   0  0  0  0  0  2  0  0  0  0  0  0
  192.1350  169.3370  142.1110 C   0  0  0  0  0  2  0  0  0  0  0  0
  192.4810  169.9360  139.0040 C   0  0  0  0  0  3  0  0  0  0  0  0
  2  9  1  0  0  0  0
  3 32  1  6  0  0  0
  3 12  1  0  0  0  0
  5  4  1  0  0  0  0
  6 15  1  1  0  0  0
  6  3  1  0  0  0  0
  6 13  1  0  0  0  0
  7 10  1  0  0  0  0
  7  4  1  1  0  0  0
  8  1  1  1  0  0  0
  8  9  1  0  0  0  0
  8  7  1  0  0  0  0
  9 11  1  0  0  0  0
  9  5  1  0  0  0  0
 10 12  1  6  0  0  0
 13  1  1  6  0  0  0
 13 10  1  0  0  0  0
 14 15  2  0  0  0  0
 16 15  1  0  0  0  0
 17 16  1  0  0  0  0
 17 18  1  0  0  0  0
 19 18  2  0  0  0  0
 19 24  1  0  0  0  0
 20 17  2  0  0  0  0
 21 19  1  0  0  0  0
 22 20  1  0  0  0  0
 22 21  2  0  0  0  0
 23 28  1  0  0  0  0
 24 23  2  0  0  0  0
 25 26  1  0  0  0  0
 25 24  1  0  0  0  0
 27 25  2  0  0  0  0
 28 29  1  0  0  0  0
 29 30  1  0  0  0  0
 30 31  1  0  0  0  0
 32 33  1  6  0  0  0
 33 35  2  0  0  0  0
 34 36  1  0  0  0  0
 36 33  1  0  0  0  0
 37 40  1  6  0  0  0
 37 38  1  0  0  0  0
 37 39  1  0  0  0  0
 38 39  1  0  0  0  0
 38 32  1  1  0  0  0
 41 42  1  0  0  0  0
 41 40  1  0  0  0  0
 43 42  1  0  0  0  0
 43 50  1  0  0  0  0
 44 49  1  0  0  0  0
 45 47  1  0  0  0  0
 46 49  1  0  0  0  0
 47 46  1  0  0  0  0
 48 44  1  0  0  0  0
 50 45  1  0  0  0  0
 50 48  1  0  0  0  0
M  END
>  <MODEL>
9

>  <REMARK>
 VINA RESULT:      -5.6      2.728      5.652
  Name = 
  15 active torsions:
  status: ('A' for Active; 'I' for Inactive)
    1  A    between atoms: C_1  and  N_45
    2  A    between atoms: C_3  and  C_41
    3  A    between atoms: C_6  and  C_36
    4  A    between atoms: C_7  and  C_39
    5  A    between atoms: C_11  and  C_36
    6  A    between atoms: C_12  and  C_39
    7  A    between atoms: C_15  and  N_26
    8  A    between atoms: C_16  and  C_36
    9  A    between atoms: C_17  and  C_42
   10  A    between atoms: N_18  and  C_41
   11  A    between atoms: N_18  and  C_47
   12  A    between atoms: C_19  and  N_23
   13  A    between atoms: N_23  and  N_26
   14  A    between atoms: N_37  and  C_47
   15  A    between atoms: N_37  and  C_48
                            x       y       z     vdW  Elec       q    Type
                         _______ _______ _______ _____ _____    ______ ____

>  <TORSDO>
F 15

$$$$
