=
 OpenBabel11042414213D

 27 31  0  0  1  0  0  0  0  0999 V2000
  191.3030  175.1830  146.5760 N   0  0  0  0  0  0  0  0  0  0  0  0
  189.3840  176.8570  146.7660 C   0  0  0  0  0  2  0  0  0  0  0  0
  188.7300  177.2540  145.4490 C   0  0  1  0  0  3  0  0  0  0  0  0
  191.4600  173.4580  145.0140 O   0  0  0  0  0  1  0  0  0  0  0  0
  189.3210  176.2990  144.4230 C   0  0  0  0  0  2  0  0  0  0  0  0
  189.6680  175.0210  145.1630 C   0  0  2  0  0  3  0  0  0  0  0  0
  189.8420  175.4010  146.6170 C   0  0  1  0  0  3  0  0  0  0  0  0
  191.1710  174.8150  145.1690 C   0  0  1  0  0  3  0  0  0  0  0  0
  186.4170  175.9130  142.9970 O   0  0  0  0  0  0  0  0  0  0  0  0
  185.7540  178.8580  146.2490 C   0  0  0  0  0  2  0  0  0  0  0  0
  186.0080  177.0210  143.4360 C   0  0  0  0  0  0  0  0  0  0  0  0
  184.7380  177.6500  143.0190 C   0  0  1  0  0  3  0  0  0  0  0  0
  186.8050  177.8500  146.7040 C   0  0  0  0  0  2  0  0  0  0  0  0
  186.6900  177.7480  144.4400 N   0  0  0  0  0  0  0  0  0  0  0  0
  185.9240  178.9260  144.7570 C   0  0  1  0  0  3  0  0  0  0  0  0
  184.5760  178.7840  144.0360 C   0  0  0  0  0  2  0  0  0  0  0  0
  187.2730  177.0940  145.5370 N   0  0  1  0  0  0  0  0  0  0  0  0
  185.9500  178.6030  141.2040 O   0  0  0  0  0  0  0  0  0  0  0  0
  183.6940  178.2580  140.7830 N   0  0  0  0  0  1  0  0  0  0  0  0
  184.8390  178.1960  141.6300 C   0  0  0  0  0  0  0  0  0  0  0  0
  192.0960  176.4130  146.6350 C   0  0  0  0  0  2  0  0  0  0  0  0
  193.5870  176.0990  146.5510 C   0  0  0  0  0  2  0  0  0  0  0  0
  194.2910  176.8240  145.4030 C   0  0  1  0  0  3  0  0  0  0  0  0
  194.9520  177.9620  145.8680 O   0  0  0  0  0  1  0  0  0  0  0  0
  195.2620  175.9140  144.6670 C   0  0  2  0  0  3  0  0  0  0  0  0
  196.0100  176.6800  143.7560 O   0  0  0  0  0  0  0  0  0  0  0  0
  194.9620  175.9110  143.2200 C   0  0  0  0  0  2  0  0  0  0  0  0
  1  7  1  0  0  0  0
  1 21  1  0  0  0  0
  3  5  1  6  0  0  0
  3 17  1  0  0  0  0
  3  2  1  0  0  0  0
  6  5  1  6  0  0  0
  6  8  1  0  0  0  0
  6  7  1  0  0  0  0
  7  2  1  6  0  0  0
  8  4  1  1  0  0  0
  8  1  1  0  0  0  0
  9 11  2  0  0  0  0
 10 13  1  0  0  0  0
 11 14  1  0  0  0  0
 12 20  1  6  0  0  0
 12 11  1  0  0  0  0
 12 16  1  0  0  0  0
 14 15  1  0  0  0  0
 14 17  1  0  0  0  0
 15 16  1  6  0  0  0
 15 10  1  0  0  0  0
 17 13  1  1  0  0  0
 18 20  2  0  0  0  0
 19 20  1  0  0  0  0
 22 21  1  0  0  0  0
 23 24  1  1  0  0  0
 23 22  1  0  0  0  0
 25 23  1  1  0  0  0
 26 25  1  0  0  0  0
 27 26  1  0  0  0  0
 27 25  1  0  0  0  0
M  END
>  <MODEL>
1

>  <REMARK>
 VINA RESULT:      -7.2      0.000      0.000
  Name = 
  6 active torsions:
  status: ('A' for Active; 'I' for Inactive)
    1  A    between atoms: C_1  and  C_12
    2  A    between atoms: C_2  and  C_12
    3  A    between atoms: C_2  and  C_18
    4  A    between atoms: C_7  and  C_27
    5  A    between atoms: N_8  and  C_18
    6  A    between atoms: C_11  and  N_24
                            x       y       z     vdW  Elec       q    Type
                         _______ _______ _______ _____ _____    ______ ____

>  <TORSDO>
F 6

$$$$
=
 OpenBabel11042414213D

 27 31  0  0  1  0  0  0  0  0999 V2000
  185.7600  177.8790  145.7030 N   0  0  0  0  0  0  0  0  0  0  0  0
  187.7570  176.7870  144.5470 C   0  0  0  0  0  2  0  0  0  0  0  0
  189.0840  176.9010  145.2870 C   0  0  1  0  0  3  0  0  0  0  0  0
  185.4210  178.0120  148.0070 O   0  0  0  0  0  1  0  0  0  0  0  0
  188.7150  177.4640  146.6520 C   0  0  0  0  0  2  0  0  0  0  0  0
  187.3010  177.0030  146.9490 C   0  0  2  0  0  3  0  0  0  0  0  0
  186.6560  176.7080  145.6130 C   0  0  1  0  0  3  0  0  0  0  0  0
  186.3640  178.1950  146.9940 C   0  0  1  0  0  3  0  0  0  0  0  0
  191.5840  175.7670  147.6580 O   0  0  0  0  0  0  0  0  0  0  0  0
  190.6790  174.3470  143.5530 C   0  0  0  0  0  2  0  0  0  0  0  0
  191.9160  175.4630  146.4810 C   0  0  0  0  0  0  0  0  0  0  0  0
  193.1440  174.7150  146.1420 C   0  0  1  0  0  3  0  0  0  0  0  0
  189.3810  174.8040  144.2130 C   0  0  0  0  0  2  0  0  0  0  0  0
  191.1020  175.7410  145.3580 N   0  0  0  0  0  0  0  0  0  0  0  0
  191.7400  175.2060  144.1820 C   0  0  1  0  0  3  0  0  0  0  0  0
  192.9240  174.3590  144.6690 C   0  0  0  0  0  2  0  0  0  0  0  0
  189.7090  175.5780  145.4160 N   0  0  1  0  0  0  0  0  0  0  0  0
  195.5010  175.0580  146.2030 O   0  0  0  0  0  0  0  0  0  0  0  0
  194.2380  176.9720  146.5610 N   0  0  0  0  0  1  0  0  0  0  0  0
  194.3590  175.5750  146.3020 C   0  0  0  0  0  0  0  0  0  0  0  0
  186.0970  178.9670  144.7830 C   0  0  0  0  0  2  0  0  0  0  0  0
  184.9360  179.2520  143.8340 C   0  0  0  0  0  2  0  0  0  0  0  0
  184.7960  178.2080  142.7250 C   0  0  1  0  0  3  0  0  0  0  0  0
  183.4760  178.1400  142.2750 O   0  0  0  0  0  1  0  0  0  0  0  0
  185.7370  178.4850  141.5630 C   0  0  2  0  0  3  0  0  0  0  0  0
  185.3410  177.7130  140.4560 O   0  0  0  0  0  0  0  0  0  0  0  0
  186.4540  177.2510  141.1800 C   0  0  0  0  0  2  0  0  0  0  0  0
  1  8  1  0  0  0  0
  3  2  1  6  0  0  0
  3 17  1  0  0  0  0
  3  5  1  0  0  0  0
  6  5  1  6  0  0  0
  6  8  1  0  0  0  0
  7  2  1  6  0  0  0
  7  1  1  0  0  0  0
  7  6  1  0  0  0  0
  8  4  1  1  0  0  0
 10 13  1  0  0  0  0
 11  9  2  0  0  0  0
 12 20  1  6  0  0  0
 12 11  1  0  0  0  0
 14 17  1  0  0  0  0
 14 11  1  0  0  0  0
 15 10  1  1  0  0  0
 15 16  1  0  0  0  0
 15 14  1  0  0  0  0
 16 12  1  0  0  0  0
 17 13  1  6  0  0  0
 18 20  2  0  0  0  0
 20 19  1  0  0  0  0
 21  1  1  0  0  0  0
 22 21  1  0  0  0  0
 23 24  1  6  0  0  0
 23 22  1  0  0  0  0
 25 23  1  1  0  0  0
 26 27  1  0  0  0  0
 26 25  1  0  0  0  0
 27 25  1  0  0  0  0
M  END
>  <MODEL>
2

>  <REMARK>
 VINA RESULT:      -7.1      2.027      7.932
  Name = 
  6 active torsions:
  status: ('A' for Active; 'I' for Inactive)
    1  A    between atoms: C_1  and  C_12
    2  A    between atoms: C_2  and  C_12
    3  A    between atoms: C_2  and  C_18
    4  A    between atoms: C_7  and  C_27
    5  A    between atoms: N_8  and  C_18
    6  A    between atoms: C_11  and  N_24
                            x       y       z     vdW  Elec       q    Type
                         _______ _______ _______ _____ _____    ______ ____

>  <TORSDO>
F 6

$$$$
=
 OpenBabel11042414213D

 27 31  0  0  1  0  0  0  0  0999 V2000
  185.1070  179.2670  143.1230 N   0  0  0  0  0  0  0  0  0  0  0  0
  187.5060  178.4280  143.3720 C   0  0  0  0  0  2  0  0  0  0  0  0
  187.6620  176.9190  143.4960 C   0  0  1  0  0  3  0  0  0  0  0  0
  183.3820  178.1570  142.0140 O   0  0  0  0  0  1  0  0  0  0  0  0
  186.2790  176.3630  143.1890 C   0  0  0  0  0  2  0  0  0  0  0  0
  185.6100  177.3490  142.2490 C   0  0  2  0  0  3  0  0  0  0  0  0
  186.2940  178.6810  142.4660 C   0  0  1  0  0  3  0  0  0  0  0  0
  184.4190  177.9930  142.9340 C   0  0  1  0  0  3  0  0  0  0  0  0
  187.7990  173.7300  141.7720 O   0  0  0  0  0  0  0  0  0  0  0  0
  191.0580  176.5310  142.8760 C   0  0  0  0  0  2  0  0  0  0  0  0
  188.9110  173.9990  142.3000 C   0  0  0  0  0  0  0  0  0  0  0  0
  190.1040  173.1350  142.1870 C   0  0  1  0  0  3  0  0  0  0  0  0
  189.8030  177.3370  142.5590 C   0  0  0  0  0  2  0  0  0  0  0  0
  189.1580  175.2060  142.9970 N   0  0  0  0  0  0  0  0  0  0  0  0
  190.5380  175.2250  143.4100 C   0  0  1  0  0  3  0  0  0  0  0  0
  191.2210  174.0330  142.7250 C   0  0  0  0  0  2  0  0  0  0  0  0
  188.6510  176.4280  142.5280 N   0  0  1  0  0  0  0  0  0  0  0  0
  190.2390  170.7830  142.5400 O   0  0  0  0  0  0  0  0  0  0  0  0
  189.5150  171.9960  144.3820 N   0  0  0  0  0  1  0  0  0  0  0  0
  189.9600  171.9070  143.0300 C   0  0  0  0  0  0  0  0  0  0  0  0
  185.2590  179.4740  144.5650 C   0  0  0  0  0  2  0  0  0  0  0  0
  184.2480  178.6330  145.3400 C   0  0  0  0  0  2  0  0  0  0  0  0
  184.8560  177.9310  146.5560 C   0  0  1  0  0  3  0  0  0  0  0  0
  184.7250  176.5460  146.4430 O   0  0  0  0  0  1  0  0  0  0  0  0
  186.3150  178.3090  146.7600 C   0  0  2  0  0  3  0  0  0  0  0  0
  186.8760  177.4680  147.7370 O   0  0  0  0  0  0  0  0  0  0  0  0
  186.5340  178.7680  148.1470 C   0  0  0  0  0  2  0  0  0  0  0  0
  1 21  1  0  0  0  0
  2  3  1  0  0  0  0
  3  5  1  6  0  0  0
  6  7  1  0  0  0  0
  6  8  1  0  0  0  0
  6  5  1  1  0  0  0
  7  1  1  0  0  0  0
  7  2  1  1  0  0  0
  8  4  1  6  0  0  0
  8  1  1  0  0  0  0
  9 11  2  0  0  0  0
 10 15  1  0  0  0  0
 11 14  1  0  0  0  0
 12 11  1  0  0  0  0
 12 16  1  0  0  0  0
 12 20  1  1  0  0  0
 13 10  1  0  0  0  0
 14 15  1  0  0  0  0
 15 16  1  6  0  0  0
 17 13  1  1  0  0  0
 17 14  1  0  0  0  0
 17  3  1  0  0  0  0
 18 20  2  0  0  0  0
 20 19  1  0  0  0  0
 21 22  1  0  0  0  0
 22 23  1  0  0  0  0
 23 24  1  6  0  0  0
 25 23  1  1  0  0  0
 25 26  1  0  0  0  0
 25 27  1  0  0  0  0
 26 27  1  0  0  0  0
M  END
>  <MODEL>
3

>  <REMARK>
 VINA RESULT:      -6.9      3.576      7.430
  Name = 
  6 active torsions:
  status: ('A' for Active; 'I' for Inactive)
    1  A    between atoms: C_1  and  C_12
    2  A    between atoms: C_2  and  C_12
    3  A    between atoms: C_2  and  C_18
    4  A    between atoms: C_7  and  C_27
    5  A    between atoms: N_8  and  C_18
    6  A    between atoms: C_11  and  N_24
                            x       y       z     vdW  Elec       q    Type
                         _______ _______ _______ _____ _____    ______ ____

>  <TORSDO>
F 6

$$$$
=
 OpenBabel11042414213D

 27 31  0  0  1  0  0  0  0  0999 V2000
  193.0570  174.9290  144.2440 N   0  0  0  0  0  0  0  0  0  0  0  0
  191.0560  175.9530  143.0310 C   0  0  0  0  0  2  0  0  0  0  0  0
  189.7710  176.0350  143.8440 C   0  0  1  0  0  3  0  0  0  0  0  0
  193.5210  175.1310  146.5200 O   0  0  0  0  0  1  0  0  0  0  0  0
  190.1870  175.6670  145.2600 C   0  0  0  0  0  2  0  0  0  0  0  0
  191.6390  176.0800  145.4110 C   0  0  2  0  0  3  0  0  0  0  0  0
  192.2200  176.1260  144.0150 C   0  0  1  0  0  3  0  0  0  0  0  0
  192.5120  174.8530  145.5970 C   0  0  1  0  0  3  0  0  0  0  0  0
  187.9680  177.8780  146.3970 O   0  0  0  0  0  0  0  0  0  0  0  0
  187.8470  178.2450  141.9770 C   0  0  0  0  0  2  0  0  0  0  0  0
  187.3580  177.9290  145.2950 C   0  0  0  0  0  0  0  0  0  0  0  0
  186.1000  178.6760  145.0880 C   0  0  1  0  0  3  0  0  0  0  0  0
  189.2580  177.8480  142.3990 C   0  0  0  0  0  2  0  0  0  0  0  0
  187.8590  177.3380  144.1110 N   0  0  0  0  0  0  0  0  0  0  0  0
  186.9590  177.6400  143.0280 C   0  0  1  0  0  3  0  0  0  0  0  0
  185.9520  178.6680  143.5640 C   0  0  0  0  0  2  0  0  0  0  0  0
  189.2260  177.3990  143.7950 N   0  0  1  0  0  0  0  0  0  0  0  0
  185.0530  176.7610  146.0410 O   0  0  0  0  0  0  0  0  0  0  0  0
  183.7320  178.6690  146.0110 N   0  0  0  0  0  1  0  0  0  0  0  0
  184.9470  177.9760  145.7350 C   0  0  0  0  0  0  0  0  0  0  0  0
  192.6090  173.7360  143.5230 C   0  0  0  0  0  2  0  0  0  0  0  0
  192.1760  172.6460  144.4990 C   0  0  0  0  0  2  0  0  0  0  0  0
  190.8900  171.9340  144.0750 C   0  0  1  0  0  3  0  0  0  0  0  0
  189.8800  172.1350  145.0170 O   0  0  0  0  0  1  0  0  0  0  0  0
  190.4230  172.3780  142.6980 C   0  0  2  0  0  3  0  0  0  0  0  0
  189.1730  171.7940  142.4250 O   0  0  0  0  0  0  0  0  0  0  0  0
  190.2910  171.2090  141.8030 C   0  0  0  0  0  2  0  0  0  0  0  0
  1  8  1  0  0  0  0
  3  2  1  6  0  0  0
  3  5  1  0  0  0  0
  6  5  1  6  0  0  0
  6  8  1  0  0  0  0
  7  2  1  6  0  0  0
  7  1  1  0  0  0  0
  7  6  1  0  0  0  0
  8  4  1  1  0  0  0
 10 13  1  0  0  0  0
 11  9  2  0  0  0  0
 12 11  1  0  0  0  0
 12 20  1  1  0  0  0
 14 11  1  0  0  0  0
 15 10  1  6  0  0  0
 15 16  1  0  0  0  0
 15 14  1  0  0  0  0
 16 12  1  0  0  0  0
 17 13  1  6  0  0  0
 17  3  1  0  0  0  0
 17 14  1  0  0  0  0
 20 19  1  0  0  0  0
 20 18  2  0  0  0  0
 21  1  1  0  0  0  0
 21 22  1  0  0  0  0
 23 22  1  0  0  0  0
 23 24  1  1  0  0  0
 25 23  1  1  0  0  0
 26 25  1  0  0  0  0
 27 26  1  0  0  0  0
 27 25  1  0  0  0  0
M  END
>  <MODEL>
4

>  <REMARK>
 VINA RESULT:      -6.5      2.593      4.391
  Name = 
  6 active torsions:
  status: ('A' for Active; 'I' for Inactive)
    1  A    between atoms: C_1  and  C_12
    2  A    between atoms: C_2  and  C_12
    3  A    between atoms: C_2  and  C_18
    4  A    between atoms: C_7  and  C_27
    5  A    between atoms: N_8  and  C_18
    6  A    between atoms: C_11  and  N_24
                            x       y       z     vdW  Elec       q    Type
                         _______ _______ _______ _____ _____    ______ ____

>  <TORSDO>
F 6

$$$$
=
 OpenBabel11042414213D

 27 31  0  0  1  0  0  0  0  0999 V2000
  187.6480  176.2920  145.5500 N   0  0  0  0  0  0  0  0  0  0  0  0
  189.5900  175.1060  144.3920 C   0  0  0  0  0  2  0  0  0  0  0  0
  190.8550  175.9360  144.2220 C   0  0  1  0  0  3  0  0  0  0  0  0
  187.8360  177.8830  147.2450 O   0  0  0  0  0  1  0  0  0  0  0  0
  190.6050  177.1920  145.0440 C   0  0  0  0  0  2  0  0  0  0  0  0
  189.6630  176.8000  146.1660 C   0  0  2  0  0  3  0  0  0  0  0  0
  188.9260  175.5650  145.6960 C   0  0  1  0  0  3  0  0  0  0  0  0
  188.3300  177.5040  145.9960 C   0  0  1  0  0  3  0  0  0  0  0  0
  194.1310  177.1820  145.1590 O   0  0  0  0  0  0  0  0  0  0  0  0
  192.9010  173.1760  143.7030 C   0  0  0  0  0  2  0  0  0  0  0  0
  194.2350  176.1930  144.3860 C   0  0  0  0  0  0  0  0  0  0  0  0
  195.5270  175.6160  143.9620 C   0  0  1  0  0  3  0  0  0  0  0  0
  191.7670  173.7660  144.5360 C   0  0  0  0  0  2  0  0  0  0  0  0
  193.1160  175.4770  143.9000 N   0  0  0  0  0  0  0  0  0  0  0  0
  193.5850  174.3720  143.1040 C   0  0  1  0  0  3  0  0  0  0  0  0
  195.1060  174.3000  143.3020 C   0  0  0  0  0  2  0  0  0  0  0  0
  192.0190  175.1980  144.7310 N   0  0  1  0  0  0  0  0  0  0  0  0
  197.1890  177.2080  143.3500 O   0  0  0  0  0  0  0  0  0  0  0  0
  195.7870  176.5630  141.6170 N   0  0  0  0  0  1  0  0  0  0  0  0
  196.2160  176.5050  142.9760 C   0  0  0  0  0  0  0  0  0  0  0  0
  187.2340  176.5070  144.1610 C   0  0  0  0  0  2  0  0  0  0  0  0
  187.2000  177.9980  143.8330 C   0  0  0  0  0  2  0  0  0  0  0  0
  187.3910  178.2900  142.3440 C   0  0  1  0  0  3  0  0  0  0  0  0
  188.7420  178.2360  141.9990 O   0  0  0  0  0  1  0  0  0  0  0  0
  186.5850  177.3410  141.4710 C   0  0  2  0  0  3  0  0  0  0  0  0
  186.8650  177.6100  140.1190 O   0  0  0  0  0  0  0  0  0  0  0  0
  185.6460  178.1020  140.6200 C   0  0  0  0  0  2  0  0  0  0  0  0
  1  7  1  0  0  0  0
  1  8  1  0  0  0  0
  3  2  1  1  0  0  0
  3 17  1  0  0  0  0
  3  5  1  0  0  0  0
  6  5  1  6  0  0  0
  7  2  1  6  0  0  0
  7  6  1  0  0  0  0
  8  6  1  0  0  0  0
  8  4  1  1  0  0  0
 10 13  1  0  0  0  0
 11  9  2  0  0  0  0
 12 20  1  6  0  0  0
 12 11  1  0  0  0  0
 14 11  1  0  0  0  0
 14 17  1  0  0  0  0
 15 16  1  1  0  0  0
 15 10  1  0  0  0  0
 15 14  1  0  0  0  0
 16 12  1  0  0  0  0
 17 13  1  6  0  0  0
 19 20  1  0  0  0  0
 20 18  2  0  0  0  0
 21  1  1  0  0  0  0
 22 21  1  0  0  0  0
 23 24  1  6  0  0  0
 23 22  1  0  0  0  0
 25 23  1  1  0  0  0
 26 27  1  0  0  0  0
 26 25  1  0  0  0  0
 27 25  1  0  0  0  0
M  END
>  <MODEL>
5

>  <REMARK>
 VINA RESULT:      -6.4      2.311      7.862
  Name = 
  6 active torsions:
  status: ('A' for Active; 'I' for Inactive)
    1  A    between atoms: C_1  and  C_12
    2  A    between atoms: C_2  and  C_12
    3  A    between atoms: C_2  and  C_18
    4  A    between atoms: C_7  and  C_27
    5  A    between atoms: N_8  and  C_18
    6  A    between atoms: C_11  and  N_24
                            x       y       z     vdW  Elec       q    Type
                         _______ _______ _______ _____ _____    ______ ____

>  <TORSDO>
F 6

$$$$
=
 OpenBabel11042414213D

 27 31  0  0  1  0  0  0  0  0999 V2000
  192.4150  174.2380  142.8350 N   0  0  0  0  0  0  0  0  0  0  0  0
  190.9400  175.4780  144.5100 C   0  0  0  0  0  2  0  0  0  0  0  0
  189.7310  176.1890  143.9160 C   0  0  1  0  0  3  0  0  0  0  0  0
  191.6770  173.1570  140.9050 O   0  0  0  0  0  1  0  0  0  0  0  0
  189.6750  175.7120  142.4720 C   0  0  0  0  0  2  0  0  0  0  0  0
  190.2850  174.3230  142.4460 C   0  0  2  0  0  3  0  0  0  0  0  0
  191.1870  174.2270  143.6570 C   0  0  1  0  0  3  0  0  0  0  0  0
  191.5730  174.3360  141.6460 C   0  0  1  0  0  3  0  0  0  0  0  0
  186.2800  176.2650  142.8000 O   0  0  0  0  0  0  0  0  0  0  0  0
  187.9740  176.5770  146.8880 C   0  0  0  0  0  2  0  0  0  0  0  0
  186.3980  176.8270  143.9210 C   0  0  0  0  0  0  0  0  0  0  0  0
  185.2640  177.3990  144.6750 C   0  0  1  0  0  3  0  0  0  0  0  0
  188.8590  175.6520  146.0590 C   0  0  0  0  0  2  0  0  0  0  0  0
  187.6270  176.9010  144.6180 N   0  0  0  0  0  0  0  0  0  0  0  0
  187.4000  177.5410  145.8880 C   0  0  1  0  0  3  0  0  0  0  0  0
  185.8790  177.6720  146.0510 C   0  0  0  0  0  2  0  0  0  0  0  0
  188.5110  175.8100  144.6420 N   0  0  1  0  0  0  0  0  0  0  0  0
  185.3340  179.7590  144.3620 O   0  0  0  0  0  0  0  0  0  0  0  0
  183.7260  178.6650  143.0960 N   0  0  0  0  0  1  0  0  0  0  0  0
  184.7880  178.6710  144.0480 C   0  0  0  0  0  0  0  0  0  0  0  0
  193.1890  175.4780  142.9270 C   0  0  0  0  0  2  0  0  0  0  0  0
  194.6660  175.1760  143.1690 C   0  0  0  0  0  2  0  0  0  0  0  0
  195.2610  175.9740  144.3300 C   0  0  1  0  0  3  0  0  0  0  0  0
  196.2910  176.8030  143.8830 O   0  0  0  0  0  1  0  0  0  0  0  0
  194.2050  176.7900  145.0590 C   0  0  2  0  0  3  0  0  0  0  0  0
  194.8330  177.6030  146.0190 O   0  0  0  0  0  0  0  0  0  0  0  0
  194.1930  176.4450  146.4950 C   0  0  0  0  0  2  0  0  0  0  0  0
  1 21  1  0  0  0  0
  1  7  1  0  0  0  0
  3  5  1  6  0  0  0
  3  2  1  0  0  0  0
  3 17  1  0  0  0  0
  6  5  1  1  0  0  0
  6  7  1  0  0  0  0
  7  2  1  1  0  0  0
  8  4  1  6  0  0  0
  8  6  1  0  0  0  0
  8  1  1  0  0  0  0
  9 11  2  0  0  0  0
 11 14  1  0  0  0  0
 11 12  1  0  0  0  0
 12 20  1  6  0  0  0
 12 16  1  0  0  0  0
 13 10  1  0  0  0  0
 14 17  1  0  0  0  0
 14 15  1  0  0  0  0
 15 16  1  1  0  0  0
 15 10  1  0  0  0  0
 17 13  1  1  0  0  0
 19 20  1  0  0  0  0
 20 18  2  0  0  0  0
 21 22  1  0  0  0  0
 22 23  1  0  0  0  0
 23 24  1  6  0  0  0
 25 23  1  6  0  0  0
 25 26  1  0  0  0  0
 25 27  1  0  0  0  0
 26 27  1  0  0  0  0
M  END
>  <MODEL>
6

>  <REMARK>
 VINA RESULT:      -6.4      1.910      2.785
  Name = 
  6 active torsions:
  status: ('A' for Active; 'I' for Inactive)
    1  A    between atoms: C_1  and  C_12
    2  A    between atoms: C_2  and  C_12
    3  A    between atoms: C_2  and  C_18
    4  A    between atoms: C_7  and  C_27
    5  A    between atoms: N_8  and  C_18
    6  A    between atoms: C_11  and  N_24
                            x       y       z     vdW  Elec       q    Type
                         _______ _______ _______ _____ _____    ______ ____

>  <TORSDO>
F 6

$$$$
=
 OpenBabel11042414213D

 27 31  0  0  1  0  0  0  0  0999 V2000
  187.9220  176.3390  145.2890 N   0  0  0  0  0  0  0  0  0  0  0  0
  189.7220  175.1930  143.8870 C   0  0  0  0  0  2  0  0  0  0  0  0
  191.0430  175.9430  143.7800 C   0  0  1  0  0  3  0  0  0  0  0  0
  188.2940  177.6470  147.1840 O   0  0  0  0  0  1  0  0  0  0  0  0
  190.9220  177.0810  144.7830 C   0  0  0  0  0  2  0  0  0  0  0  0
  189.9900  176.6000  145.8800 C   0  0  2  0  0  3  0  0  0  0  0  0
  189.1420  175.5050  145.2730 C   0  0  1  0  0  3  0  0  0  0  0  0
  188.7130  177.4190  145.8720 C   0  0  1  0  0  3  0  0  0  0  0  0
  194.3630  176.7910  144.9710 O   0  0  0  0  0  0  0  0  0  0  0  0
  192.9550  173.2520  142.6960 C   0  0  0  0  0  2  0  0  0  0  0  0
  194.4290  175.9840  144.0060 C   0  0  0  0  0  0  0  0  0  0  0  0
  195.6960  175.4420  143.4740 C   0  0  1  0  0  3  0  0  0  0  0  0
  191.8400  173.7110  143.6310 C   0  0  0  0  0  2  0  0  0  0  0  0
  193.2820  175.4450  143.3760 N   0  0  0  0  0  0  0  0  0  0  0  0
  193.7070  174.5110  142.3660 C   0  0  1  0  0  3  0  0  0  0  0  0
  195.2200  174.3190  142.5490 C   0  0  0  0  0  2  0  0  0  0  0  0
  192.1610  175.0550  144.1260 N   0  0  1  0  0  0  0  0  0  0  0  0
  197.3010  177.1920  143.2860 O   0  0  0  0  0  0  0  0  0  0  0  0
  196.1970  176.6790  141.3100 N   0  0  0  0  0  1  0  0  0  0  0  0
  196.4430  176.4830  142.7010 C   0  0  0  0  0  0  0  0  0  0  0  0
  187.4790  176.7830  143.9660 C   0  0  0  0  0  2  0  0  0  0  0  0
  185.9670  176.6340  143.8240 C   0  0  0  0  0  2  0  0  0  0  0  0
  185.1980  177.8970  144.2190 C   0  0  1  0  0  3  0  0  0  0  0  0
  184.1270  178.1140  143.3500 O   0  0  0  0  0  1  0  0  0  0  0  0
  184.7080  177.8370  145.6570 C   0  0  2  0  0  3  0  0  0  0  0  0
  183.8910  178.9530  145.9110 O   0  0  0  0  0  0  0  0  0  0  0  0
  185.2030  179.0050  146.4150 C   0  0  0  0  0  2  0  0  0  0  0  0
  1  8  1  0  0  0  0
  3  2  1  1  0  0  0
  3 17  1  0  0  0  0
  3  5  1  0  0  0  0
  6  5  1  6  0  0  0
  7  2  1  6  0  0  0
  7  1  1  0  0  0  0
  7  6  1  0  0  0  0
  8  6  1  0  0  0  0
  8  4  1  1  0  0  0
 10 13  1  0  0  0  0
 11  9  2  0  0  0  0
 12 20  1  6  0  0  0
 12 11  1  0  0  0  0
 14 11  1  0  0  0  0
 14 17  1  0  0  0  0
 15 16  1  1  0  0  0
 15 10  1  0  0  0  0
 15 14  1  0  0  0  0
 16 12  1  0  0  0  0
 17 13  1  6  0  0  0
 19 20  1  0  0  0  0
 20 18  2  0  0  0  0
 21  1  1  0  0  0  0
 22 21  1  0  0  0  0
 22 23  1  0  0  0  0
 23 24  1  6  0  0  0
 25 23  1  6  0  0  0
 25 26  1  0  0  0  0
 25 27  1  0  0  0  0
 26 27  1  0  0  0  0
M  END
>  <MODEL>
7

>  <REMARK>
 VINA RESULT:      -6.4      2.591      8.450
  Name = 
  6 active torsions:
  status: ('A' for Active; 'I' for Inactive)
    1  A    between atoms: C_1  and  C_12
    2  A    between atoms: C_2  and  C_12
    3  A    between atoms: C_2  and  C_18
    4  A    between atoms: C_7  and  C_27
    5  A    between atoms: N_8  and  C_18
    6  A    between atoms: C_11  and  N_24
                            x       y       z     vdW  Elec       q    Type
                         _______ _______ _______ _____ _____    ______ ____

>  <TORSDO>
F 6

$$$$
=
 OpenBabel11042414213D

 27 31  0  0  1  0  0  0  0  0999 V2000
  188.5610  177.7020  143.9090 N   0  0  0  0  0  0  0  0  0  0  0  0
  190.5780  176.8540  145.2250 C   0  0  0  0  0  2  0  0  0  0  0  0
  191.5720  176.0170  144.4310 C   0  0  1  0  0  3  0  0  0  0  0  0
  188.5600  178.3200  141.6600 O   0  0  0  0  0  1  0  0  0  0  0  0
  191.1250  176.1610  142.9830 C   0  0  0  0  0  2  0  0  0  0  0  0
  190.4500  177.5140  142.8650 C   0  0  2  0  0  3  0  0  0  0  0  0
  189.9850  177.8850  144.2560 C   0  0  1  0  0  3  0  0  0  0  0  0
  188.9760  177.3350  142.5580 C   0  0  1  0  0  3  0  0  0  0  0  0
  194.3350  176.0920  142.0800 O   0  0  0  0  0  0  0  0  0  0  0  0
  194.3520  175.9940  146.5150 C   0  0  0  0  0  2  0  0  0  0  0  0
  194.7040  175.6160  143.1860 C   0  0  0  0  0  0  0  0  0  0  0  0
  196.0880  175.1870  143.4740 C   0  0  1  0  0  3  0  0  0  0  0  0
  193.1350  176.7850  146.0460 C   0  0  0  0  0  2  0  0  0  0  0  0
  193.8430  175.5130  144.3040 N   0  0  0  0  0  0  0  0  0  0  0  0
  194.5930  174.9950  145.4190 C   0  0  1  0  0  3  0  0  0  0  0  0
  196.0680  174.9840  144.9910 C   0  0  0  0  0  2  0  0  0  0  0  0
  192.9340  176.5380  144.6130 N   0  0  1  0  0  0  0  0  0  0  0  0
  195.7640  172.8640  143.0580 O   0  0  0  0  0  0  0  0  0  0  0  0
  197.4360  173.8480  141.7850 N   0  0  0  0  0  1  0  0  0  0  0  0
  196.4100  173.9050  142.7730 C   0  0  0  0  0  0  0  0  0  0  0  0
  187.9420  176.5200  144.5140 C   0  0  0  0  0  2  0  0  0  0  0  0
  186.4210  176.6540  144.5250 C   0  0  0  0  0  2  0  0  0  0  0  0
  185.8560  176.9800  145.9080 C   0  0  1  0  0  3  0  0  0  0  0  0
  186.7400  176.5790  146.9110 O   0  0  0  0  0  1  0  0  0  0  0  0
  185.5290  178.4590  146.0540 C   0  0  2  0  0  3  0  0  0  0  0  0
  184.8910  178.6690  147.2900 O   0  0  0  0  0  0  0  0  0  0  0  0
  184.0670  178.6510  146.1500 C   0  0  0  0  0  2  0  0  0  0  0  0
  1  7  1  0  0  0  0
  1 21  1  0  0  0  0
  3  5  1  6  0  0  0
  3 17  1  0  0  0  0
  3  2  1  0  0  0  0
  6  5  1  1  0  0  0
  6  7  1  0  0  0  0
  7  2  1  1  0  0  0
  8  4  1  6  0  0  0
  8  6  1  0  0  0  0
  8  1  1  0  0  0  0
  9 11  2  0  0  0  0
 11 12  1  0  0  0  0
 11 14  1  0  0  0  0
 12 20  1  6  0  0  0
 12 16  1  0  0  0  0
 13 10  1  0  0  0  0
 14 17  1  0  0  0  0
 14 15  1  0  0  0  0
 15 16  1  6  0  0  0
 15 10  1  0  0  0  0
 17 13  1  1  0  0  0
 19 20  1  0  0  0  0
 20 18  2  0  0  0  0
 21 22  1  0  0  0  0
 22 23  1  0  0  0  0
 23 24  1  1  0  0  0
 25 23  1  1  0  0  0
 25 27  1  0  0  0  0
 25 26  1  0  0  0  0
 27 26  1  0  0  0  0
M  END
>  <MODEL>
8

>  <REMARK>
 VINA RESULT:      -6.3      2.747      8.492
  Name = 
  6 active torsions:
  status: ('A' for Active; 'I' for Inactive)
    1  A    between atoms: C_1  and  C_12
    2  A    between atoms: C_2  and  C_12
    3  A    between atoms: C_2  and  C_18
    4  A    between atoms: C_7  and  C_27
    5  A    between atoms: N_8  and  C_18
    6  A    between atoms: C_11  and  N_24
                            x       y       z     vdW  Elec       q    Type
                         _______ _______ _______ _____ _____    ______ ____

>  <TORSDO>
F 6

$$$$
=
 OpenBabel11042414213D

 27 31  0  0  1  0  0  0  0  0999 V2000
  192.7180  174.7870  144.8580 N   0  0  0  0  0  0  0  0  0  0  0  0
  190.7070  175.7900  146.0710 C   0  0  0  0  0  2  0  0  0  0  0  0
  189.7100  176.5250  145.1850 C   0  0  1  0  0  3  0  0  0  0  0  0
  192.7080  173.9020  142.7010 O   0  0  0  0  0  1  0  0  0  0  0  0
  190.1500  176.2070  143.7640 C   0  0  0  0  0  2  0  0  0  0  0  0
  190.8240  174.8480  143.8080 C   0  0  2  0  0  3  0  0  0  0  0  0
  191.2950  174.6490  145.2310 C   0  0  1  0  0  3  0  0  0  0  0  0
  192.2970  174.9880  143.4740 C   0  0  1  0  0  3  0  0  0  0  0  0
  186.8760  176.3600  142.9250 O   0  0  0  0  0  0  0  0  0  0  0  0
  186.9950  176.6930  147.3480 C   0  0  0  0  0  2  0  0  0  0  0  0
  186.5460  176.8990  144.0150 C   0  0  0  0  0  0  0  0  0  0  0  0
  185.1760  177.3590  144.3210 C   0  0  1  0  0  3  0  0  0  0  0  0
  188.1890  175.8630  146.8850 C   0  0  0  0  0  2  0  0  0  0  0  0
  187.4420  177.0500  145.1000 N   0  0  0  0  0  0  0  0  0  0  0  0
  186.7310  177.6350  146.2070 C   0  0  1  0  0  3  0  0  0  0  0  0
  185.2440  177.6420  145.8240 C   0  0  0  0  0  2  0  0  0  0  0  0
  188.3490  176.0310  145.4360 N   0  0  1  0  0  0  0  0  0  0  0  0
  184.0070  178.5590  142.6280 O   0  0  0  0  0  0  0  0  0  0  0  0
  185.4700  179.8470  143.8880 N   0  0  0  0  0  1  0  0  0  0  0  0
  184.8470  178.6060  143.5630 C   0  0  0  0  0  0  0  0  0  0  0  0
  193.3410  176.0330  145.3130 C   0  0  0  0  0  2  0  0  0  0  0  0
  194.6560  175.7470  146.0320 C   0  0  0  0  0  2  0  0  0  0  0  0
  195.6130  174.8780  145.2150 C   0  0  1  0  0  3  0  0  0  0  0  0
  196.3190  175.6530  144.2930 O   0  0  0  0  0  1  0  0  0  0  0  0
  196.5760  174.1050  146.1020 C   0  0  2  0  0  3  0  0  0  0  0  0
  197.5680  173.5140  145.2980 O   0  0  0  0  0  0  0  0  0  0  0  0
  196.5440  172.6670  145.7590 C   0  0  0  0  0  2  0  0  0  0  0  0
  1  7  1  0  0  0  0
  1 21  1  0  0  0  0
  3  5  1  6  0  0  0
  3 17  1  0  0  0  0
  3  2  1  0  0  0  0
  6  5  1  1  0  0  0
  6  7  1  0  0  0  0
  7  2  1  1  0  0  0
  8  4  1  6  0  0  0
  8  6  1  0  0  0  0
  8  1  1  0  0  0  0
  9 11  2  0  0  0  0
 11 12  1  0  0  0  0
 11 14  1  0  0  0  0
 12 20  1  6  0  0  0
 12 16  1  0  0  0  0
 13 10  1  0  0  0  0
 14 17  1  0  0  0  0
 14 15  1  0  0  0  0
 15 16  1  6  0  0  0
 15 10  1  0  0  0  0
 17 13  1  1  0  0  0
 18 20  2  0  0  0  0
 20 19  1  0  0  0  0
 21 22  1  0  0  0  0
 23 24  1  6  0  0  0
 23 22  1  0  0  0  0
 25 23  1  6  0  0  0
 26 27  1  0  0  0  0
 26 25  1  0  0  0  0
 27 25  1  0  0  0  0
M  END
>  <MODEL>
9

>  <REMARK>
 VINA RESULT:      -6.3      1.792      2.328
  Name = 
  6 active torsions:
  status: ('A' for Active; 'I' for Inactive)
    1  A    between atoms: C_1  and  C_12
    2  A    between atoms: C_2  and  C_12
    3  A    between atoms: C_2  and  C_18
    4  A    between atoms: C_7  and  C_27
    5  A    between atoms: N_8  and  C_18
    6  A    between atoms: C_11  and  N_24
                            x       y       z     vdW  Elec       q    Type
                         _______ _______ _______ _____ _____    ______ ____

>  <TORSDO>
F 6

$$$$
