=
 OpenBabel11042416483D

 37 40  0  0  1  0  0  0  0  0999 V2000
  188.0850  173.8580  142.2840 N   0  0  0  0  0  0  0  0  0  0  0  0
  189.6590  176.0480  142.7660 C   0  0  0  0  0  3  0  0  0  0  0  0
  188.2970  176.1920  142.4890 C   0  0  0  0  0  0  0  0  0  0  0  0
  187.5510  175.0810  142.2470 N   0  0  0  0  0  0  0  0  0  0  0  0
  189.4040  173.6620  142.5580 C   0  0  0  0  0  0  0  0  0  0  0  0
  190.2290  174.7710  142.7910 C   0  0  0  0  0  0  0  0  0  0  0  0
  191.6920  174.5870  143.0790 C   0  0  2  0  0  3  0  0  0  0  0  0
  193.6580  175.6380  142.3070 C   0  0  1  0  0  3  0  0  0  0  0  0
  192.1290  175.3880  144.2980 C   0  0  2  0  0  3  0  0  0  0  0  0
  192.5410  175.0340  141.9340 C   0  0  0  0  0  2  0  0  0  0  0  0
  194.5790  176.2660  141.3220 C   0  0  0  0  0  1  0  0  0  0  0  0
  193.8850  175.8240  144.0670 S   0  0  0  0  0  0  0  0  0  0  0  0
  191.9740  174.5780  145.4950 N   0  0  0  0  0  2  0  0  0  0  0  0
  191.0520  175.2800  146.3790 C   0  0  1  0  0  3  0  0  0  0  0  0
  188.5180  176.8210  146.4670 C   0  0  0  0  0  2  0  0  0  0  0  0
  189.5610  173.4630  146.0020 O   0  0  0  0  0  0  0  0  0  0  0  0
  190.9510  176.7430  145.9530 C   0  0  0  0  0  2  0  0  0  0  0  0
  189.8700  177.4640  146.7560 C   0  0  0  0  0  2  0  0  0  0  0  0
  188.5120  175.3620  146.9230 C   0  0  0  0  0  2  0  0  0  0  0  0
  189.6920  174.6250  146.3610 C   0  0  0  0  0  0  0  0  0  0  0  0
  188.2000  178.4630  141.8100 O   0  0  0  0  0  0  0  0  0  0  0  0
  187.6690  177.5210  142.4620 C   0  0  0  0  0  0  0  0  0  0  0  0
  186.4590  177.7430  143.1880 N   0  0  0  0  0  2  0  0  0  0  0  0
  185.8020  179.0410  143.2390 C   0  0  0  0  0  2  0  0  0  0  0  0
  185.5390  179.4470  144.6820 C   0  0  0  0  0  2  0  0  0  0  0  0
  184.2140  178.9000  145.1830 C   0  0  0  0  0  2  0  0  0  0  0  0
  185.2710  178.6360  147.2440 C   0  0  0  0  0  1  0  0  0  0  0  0
  184.4430  177.9550  146.2650 N   0  0  0  0  0  2  0  0  0  0  0  0
  189.9370  172.3330  142.6240 N   0  0  0  0  0  2  0  0  0  0  0  0
  189.5430  172.1100  139.1060 C   0  0  0  0  0  1  0  0  0  0  0  0
  191.3860  170.6240  141.6400 C   0  0  0  0  0  2  0  0  0  0  0  0
  190.4920  172.4110  140.2540 C   0  0  2  0  0  3  0  0  0  0  0  0
  191.8660  171.9830  139.8980 C   0  0  0  0  0  0  0  0  0  0  0  0
  192.3430  171.0380  140.6320 N   0  0  0  0  0  0  0  0  0  0  0  0
  190.1550  171.5140  141.4390 C   0  0  2  0  0  3  0  0  0  0  0  0
  192.5880  172.5670  138.8550 O   0  0  0  0  0  0  0  0  0  0  0  0
  193.9230  173.0210  139.0210 C   0  0  0  0  0  1  0  0  0  0  0  0
  1  5  2  0  0  0  0
  2  6  2  0  0  0  0
  3  2  1  0  0  0  0
  4  1  1  0  0  0  0
  4  3  2  0  0  0  0
  5 29  1  0  0  0  0
  5  6  1  0  0  0  0
  7  6  1  6  0  0  0
  7  9  1  0  0  0  0
  8 11  1  6  0  0  0
  8 12  1  0  0  0  0
  9 13  1  1  0  0  0
 10  8  1  0  0  0  0
 10  7  1  0  0  0  0
 12  9  1  0  0  0  0
 14 13  1  6  0  0  0
 15 18  1  0  0  0  0
 15 19  1  0  0  0  0
 16 20  2  0  0  0  0
 17 14  1  0  0  0  0
 17 18  1  0  0  0  0
 20 14  1  0  0  0  0
 20 19  1  0  0  0  0
 21 22  2  0  0  0  0
 22  3  1  0  0  0  0
 22 23  1  0  0  0  0
 23 24  1  0  0  0  0
 24 25  1  0  0  0  0
 25 26  1  0  0  0  0
 26 28  1  0  0  0  0
 28 27  1  0  0  0  0
 32 30  1  6  0  0  0
 32 35  1  0  0  0  0
 33 32  1  0  0  0  0
 33 34  2  0  0  0  0
 34 31  1  0  0  0  0
 35 31  1  0  0  0  0
 35 29  1  1  0  0  0
 36 37  1  0  0  0  0
 36 33  1  0  0  0  0
M  END
>  <MODEL>
1

>  <REMARK>
 VINA RESULT:      -6.4      0.000      0.000
  Name = 
  11 active torsions:
  status: ('A' for Active; 'I' for Inactive)
    1  A    between atoms: C_1  and  N_13
    2  A    between atoms: C_5  and  C_15
    3  A    between atoms: O_6  and  C_27
    4  A    between atoms: C_7  and  C_34
    5  A    between atoms: C_10  and  N_13
    6  A    between atoms: N_12  and  C_23
    7  A    between atoms: N_12  and  C_36
    8  A    between atoms: C_14  and  N_25
    9  A    between atoms: C_14  and  C_28
   10  A    between atoms: N_24  and  C_35
   11  A    between atoms: C_28  and  C_35
                            x       y       z     vdW  Elec       q    Type
                         _______ _______ _______ _____ _____    ______ ____

>  <TORSDO>
F 11

$$$$
=
 OpenBabel11042416483D

 37 40  0  0  1  0  0  0  0  0999 V2000
  189.9010  171.6930  142.2000 N   0  0  0  0  0  0  0  0  0  0  0  0
  190.3030  174.3990  142.3670 C   0  0  0  0  0  3  0  0  0  0  0  0
  189.3400  173.8690  141.5030 C   0  0  0  0  0  0  0  0  0  0  0  0
  189.1760  172.5220  141.4430 N   0  0  0  0  0  0  0  0  0  0  0  0
  190.8450  172.1570  143.0640 C   0  0  0  0  0  0  0  0  0  0  0  0
  191.0770  173.5370  143.1520 C   0  0  0  0  0  0  0  0  0  0  0  0
  192.1240  174.0780  144.0840 C   0  0  2  0  0  3  0  0  0  0  0  0
  194.0060  175.4710  143.8020 C   0  0  1  0  0  3  0  0  0  0  0  0
  191.6700  175.3710  144.7490 C   0  0  2  0  0  3  0  0  0  0  0  0
  193.3990  174.3780  143.3680 C   0  0  0  0  0  2  0  0  0  0  0  0
  195.2240  176.0100  143.1380 C   0  0  0  0  0  1  0  0  0  0  0  0
  193.1610  176.3610  145.0970 S   0  0  0  0  0  0  0  0  0  0  0  0
  190.9780  175.0650  145.9890 N   0  0  0  0  0  2  0  0  0  0  0  0
  189.9530  176.0840  146.1780 C   0  0  1  0  0  3  0  0  0  0  0  0
  187.1340  176.7890  145.5800 C   0  0  0  0  0  2  0  0  0  0  0  0
  188.9150  174.5350  147.6590 O   0  0  0  0  0  0  0  0  0  0  0  0
  189.4940  176.6060  144.8180 C   0  0  0  0  0  2  0  0  0  0  0  0
  188.3070  177.5520  144.9770 C   0  0  0  0  0  2  0  0  0  0  0  0
  187.4870  176.2820  146.9780 C   0  0  0  0  0  2  0  0  0  0  0  0
  188.7840  175.5270  146.9560 C   0  0  0  0  0  0  0  0  0  0  0  0
  188.2910  174.4650  139.4600 O   0  0  0  0  0  0  0  0  0  0  0  0
  188.5080  174.7510  140.6700 C   0  0  0  0  0  0  0  0  0  0  0  0
  187.9580  175.9410  141.2380 N   0  0  0  0  0  2  0  0  0  0  0  0
  187.1580  176.8800  140.4650 C   0  0  0  0  0  2  0  0  0  0  0  0
  186.5570  177.9410  141.3760 C   0  0  0  0  0  2  0  0  0  0  0  0
  185.5600  177.3390  142.3510 C   0  0  0  0  0  2  0  0  0  0  0  0
  184.1410  178.6680  143.6370 C   0  0  0  0  0  1  0  0  0  0  0  0
  184.3150  178.0900  142.3170 N   0  0  0  0  0  2  0  0  0  0  0  0
  191.5810  171.2430  143.8880 N   0  0  0  0  0  2  0  0  0  0  0  0
  195.1220  171.1290  144.0530 C   0  0  0  0  0  1  0  0  0  0  0  0
  192.4710  169.0980  143.1190 C   0  0  0  0  0  2  0  0  0  0  0  0
  193.8150  170.5340  144.5490 C   0  0  2  0  0  3  0  0  0  0  0  0
  193.9840  169.0830  144.7990 C   0  0  0  0  0  0  0  0  0  0  0  0
  193.2720  168.3200  144.0440 N   0  0  0  0  0  0  0  0  0  0  0  0
  192.7850  170.5660  143.4270 C   0  0  2  0  0  3  0  0  0  0  0  0
  194.8420  168.5850  145.7820 O   0  0  0  0  0  0  0  0  0  0  0  0
  194.7660  169.0090  147.1360 C   0  0  0  0  0  1  0  0  0  0  0  0
  1  5  2  0  0  0  0
  2  6  2  0  0  0  0
  3  2  1  0  0  0  0
  4  3  2  0  0  0  0
  4  1  1  0  0  0  0
  5  6  1  0  0  0  0
  5 29  1  0  0  0  0
  7  6  1  6  0  0  0
  7  9  1  0  0  0  0
  8 11  1  6  0  0  0
  8 12  1  0  0  0  0
  9 12  1  0  0  0  0
  9 13  1  1  0  0  0
 10  8  1  0  0  0  0
 10  7  1  0  0  0  0
 14 13  1  6  0  0  0
 14 20  1  0  0  0  0
 15 19  1  0  0  0  0
 17 18  1  0  0  0  0
 17 14  1  0  0  0  0
 18 15  1  0  0  0  0
 20 19  1  0  0  0  0
 20 16  2  0  0  0  0
 21 22  2  0  0  0  0
 22 23  1  0  0  0  0
 22  3  1  0  0  0  0
 24 23  1  0  0  0  0
 24 25  1  0  0  0  0
 25 26  1  0  0  0  0
 28 26  1  0  0  0  0
 28 27  1  0  0  0  0
 31 35  1  0  0  0  0
 31 34  1  0  0  0  0
 32 30  1  6  0  0  0
 32 33  1  0  0  0  0
 33 36  1  0  0  0  0
 34 33  2  0  0  0  0
 35 29  1  1  0  0  0
 35 32  1  0  0  0  0
 36 37  1  0  0  0  0
M  END
>  <MODEL>
2

>  <REMARK>
 VINA RESULT:      -6.0      2.715      3.698
  Name = 
  11 active torsions:
  status: ('A' for Active; 'I' for Inactive)
    1  A    between atoms: C_1  and  N_13
    2  A    between atoms: C_5  and  C_15
    3  A    between atoms: O_6  and  C_27
    4  A    between atoms: C_7  and  C_34
    5  A    between atoms: C_10  and  N_13
    6  A    between atoms: N_12  and  C_23
    7  A    between atoms: N_12  and  C_36
    8  A    between atoms: C_14  and  N_25
    9  A    between atoms: C_14  and  C_28
   10  A    between atoms: N_24  and  C_35
   11  A    between atoms: C_28  and  C_35
                            x       y       z     vdW  Elec       q    Type
                         _______ _______ _______ _____ _____    ______ ____

>  <TORSDO>
F 11

$$$$
=
 OpenBabel11042416483D

 37 40  0  0  1  0  0  0  0  0999 V2000
  191.8610  176.6780  145.3880 N   0  0  0  0  0  0  0  0  0  0  0  0
  189.7780  175.0010  144.7880 C   0  0  0  0  0  3  0  0  0  0  0  0
  189.7740  175.7560  145.9630 C   0  0  0  0  0  0  0  0  0  0  0  0
  190.8290  176.5700  146.2300 N   0  0  0  0  0  0  0  0  0  0  0  0
  191.9100  175.9720  144.2250 C   0  0  0  0  0  0  0  0  0  0  0  0
  190.8620  175.0960  143.9080 C   0  0  0  0  0  0  0  0  0  0  0  0
  190.8970  174.2910  142.6410 C   0  0  2  0  0  3  0  0  0  0  0  0
  190.7030  171.9900  142.1560 C   0  0  1  0  0  3  0  0  0  0  0  0
  189.5240  174.2140  141.9860 C   0  0  2  0  0  3  0  0  0  0  0  0
  191.3420  172.8870  142.8900 C   0  0  0  0  0  2  0  0  0  0  0  0
  190.9100  170.5290  142.3420 C   0  0  0  0  0  1  0  0  0  0  0  0
  189.4370  172.6360  141.0760 S   0  0  0  0  0  0  0  0  0  0  0  0
  189.3610  175.3260  141.0650 N   0  0  0  0  0  2  0  0  0  0  0  0
  188.1910  176.0810  141.4970 C   0  0  1  0  0  3  0  0  0  0  0  0
  186.7340  177.0920  143.8760 C   0  0  0  0  0  2  0  0  0  0  0  0
  189.7230  177.7990  142.1030 O   0  0  0  0  0  0  0  0  0  0  0  0
  187.3070  175.1950  142.3730 C   0  0  0  0  0  2  0  0  0  0  0  0
  186.1610  176.0060  142.9750 C   0  0  0  0  0  2  0  0  0  0  0  0
  187.5880  178.0660  143.0630 C   0  0  0  0  0  2  0  0  0  0  0  0
  188.6050  177.3250  142.2470 C   0  0  0  0  0  0  0  0  0  0  0  0
  188.5390  174.7020  147.6940 O   0  0  0  0  0  0  0  0  0  0  0  0
  188.6460  175.6810  146.9040 C   0  0  0  0  0  0  0  0  0  0  0  0
  187.6640  176.7190  146.9090 N   0  0  0  0  0  2  0  0  0  0  0  0
  186.5010  176.6920  147.7830 C   0  0  0  0  0  2  0  0  0  0  0  0
  186.0590  178.1090  148.1230 C   0  0  0  0  0  2  0  0  0  0  0  0
  185.5360  178.8390  146.8980 C   0  0  0  0  0  2  0  0  0  0  0  0
  183.9020  178.9310  145.2370 C   0  0  0  0  0  1  0  0  0  0  0  0
  184.3700  178.1490  146.3680 N   0  0  0  0  0  2  0  0  0  0  0  0
  193.0160  176.1370  143.3270 N   0  0  0  0  0  2  0  0  0  0  0  0
  195.1830  175.0790  145.9290 C   0  0  0  0  0  1  0  0  0  0  0  0
  195.0640  175.1150  142.4630 C   0  0  0  0  0  2  0  0  0  0  0  0
  194.3380  174.6560  144.7380 C   0  0  2  0  0  3  0  0  0  0  0  0
  194.9750  173.5070  144.0510 C   0  0  0  0  0  0  0  0  0  0  0  0
  195.3590  173.7470  142.8450 N   0  0  0  0  0  0  0  0  0  0  0  0
  194.3760  175.7480  143.6770 C   0  0  2  0  0  3  0  0  0  0  0  0
  195.1360  172.2620  144.6620 O   0  0  0  0  0  0  0  0  0  0  0  0
  194.0310  171.4960  145.1180 C   0  0  0  0  0  1  0  0  0  0  0  0
  1  4  1  0  0  0  0
  2  3  1  0  0  0  0
  3  4  2  0  0  0  0
  3 22  1  0  0  0  0
  5  1  2  0  0  0  0
  6  5  1  0  0  0  0
  6  2  2  0  0  0  0
  7 10  1  0  0  0  0
  7  6  1  1  0  0  0
  8 11  1  1  0  0  0
  8 10  1  0  0  0  0
  9 13  1  6  0  0  0
  9  7  1  0  0  0  0
 12  9  1  0  0  0  0
 12  8  1  0  0  0  0
 14 13  1  1  0  0  0
 14 20  1  0  0  0  0
 14 17  1  0  0  0  0
 16 20  2  0  0  0  0
 17 18  1  0  0  0  0
 18 15  1  0  0  0  0
 19 15  1  0  0  0  0
 20 19  1  0  0  0  0
 22 23  1  0  0  0  0
 22 21  2  0  0  0  0
 23 24  1  0  0  0  0
 24 25  1  0  0  0  0
 26 25  1  0  0  0  0
 27 28  1  0  0  0  0
 28 26  1  0  0  0  0
 29  5  1  0  0  0  0
 31 34  1  0  0  0  0
 31 35  1  0  0  0  0
 32 30  1  1  0  0  0
 33 36  1  0  0  0  0
 33 32  1  0  0  0  0
 34 33  2  0  0  0  0
 35 29  1  6  0  0  0
 35 32  1  0  0  0  0
 36 37  1  0  0  0  0
M  END
>  <MODEL>
3

>  <REMARK>
 VINA RESULT:      -6.0      2.466      5.026
  Name = 
  11 active torsions:
  status: ('A' for Active; 'I' for Inactive)
    1  A    between atoms: C_1  and  N_13
    2  A    between atoms: C_5  and  C_15
    3  A    between atoms: O_6  and  C_27
    4  A    between atoms: C_7  and  C_34
    5  A    between atoms: C_10  and  N_13
    6  A    between atoms: N_12  and  C_23
    7  A    between atoms: N_12  and  C_36
    8  A    between atoms: C_14  and  N_25
    9  A    between atoms: C_14  and  C_28
   10  A    between atoms: N_24  and  C_35
   11  A    between atoms: C_28  and  C_35
                            x       y       z     vdW  Elec       q    Type
                         _______ _______ _______ _____ _____    ______ ____

>  <TORSDO>
F 11

$$$$
=
 OpenBabel11042416483D

 37 40  0  0  1  0  0  0  0  0999 V2000
  189.5040  176.2070  147.2930 N   0  0  0  0  0  0  0  0  0  0  0  0
  190.4960  176.0450  144.7430 C   0  0  0  0  0  3  0  0  0  0  0  0
  191.3450  176.2700  145.8290 C   0  0  0  0  0  0  0  0  0  0  0  0
  190.8150  176.3530  147.0780 N   0  0  0  0  0  0  0  0  0  0  0  0
  188.6340  175.9750  146.2720 C   0  0  0  0  0  0  0  0  0  0  0  0
  189.1200  175.9050  144.9580 C   0  0  0  0  0  0  0  0  0  0  0  0
  188.1820  175.6690  143.8090 C   0  0  2  0  0  3  0  0  0  0  0  0
  187.5550  176.9330  141.9190 C   0  0  1  0  0  3  0  0  0  0  0  0
  188.8620  174.9120  142.6760 C   0  0  2  0  0  3  0  0  0  0  0  0
  187.6740  176.9510  143.2370 C   0  0  0  0  0  2  0  0  0  0  0  0
  187.1850  178.1490  141.1450 C   0  0  0  0  0  1  0  0  0  0  0  0
  188.0600  175.4200  141.1180 S   0  0  0  0  0  0  0  0  0  0  0  0
  188.6950  173.4820  142.8750 N   0  0  0  0  0  2  0  0  0  0  0  0
  190.0190  172.8760  142.8070 C   0  0  1  0  0  3  0  0  0  0  0  0
  192.8530  173.2070  143.6220 C   0  0  0  0  0  2  0  0  0  0  0  0
  189.7420  172.3980  145.1220 O   0  0  0  0  0  0  0  0  0  0  0  0
  190.9830  173.8320  142.1060 C   0  0  0  0  0  2  0  0  0  0  0  0
  192.4120  173.2960  142.1670 C   0  0  0  0  0  2  0  0  0  0  0  0
  191.9750  172.2170  144.3880 C   0  0  0  0  0  2  0  0  0  0  0  0
  190.5210  172.5340  144.1890 C   0  0  0  0  0  0  0  0  0  0  0  0
  193.2470  177.2700  144.8220 O   0  0  0  0  0  0  0  0  0  0  0  0
  192.7950  176.4150  145.6340 C   0  0  0  0  0  0  0  0  0  0  0  0
  193.6910  175.5720  146.3620 N   0  0  0  0  0  2  0  0  0  0  0  0
  195.1350  175.6310  146.1920 C   0  0  0  0  0  2  0  0  0  0  0  0
  195.6460  174.3530  145.5410 C   0  0  0  0  0  2  0  0  0  0  0  0
  196.2810  174.6310  144.1900 C   0  0  0  0  0  2  0  0  0  0  0  0
  195.8620  176.2400  142.5550 C   0  0  0  0  0  1  0  0  0  0  0  0
  196.2920  176.0620  143.9300 N   0  0  0  0  0  2  0  0  0  0  0  0
  187.2390  175.7880  146.5410 N   0  0  0  0  0  2  0  0  0  0  0  0
  187.1650  179.0730  147.8790 C   0  0  0  0  0  1  0  0  0  0  0  0
  184.9570  176.6440  146.7590 C   0  0  0  0  0  2  0  0  0  0  0  0
  186.8370  178.1860  146.6890 C   0  0  2  0  0  3  0  0  0  0  0  0
  185.6110  178.6770  146.0160 C   0  0  0  0  0  0  0  0  0  0  0  0
  184.6140  177.8620  146.0510 N   0  0  0  0  0  0  0  0  0  0  0  0
  186.4200  176.8070  147.1850 C   0  0  2  0  0  3  0  0  0  0  0  0
  185.5470  179.9230  145.3880 O   0  0  0  0  0  0  0  0  0  0  0  0
  185.5280  180.0560  143.9740 C   0  0  0  0  0  1  0  0  0  0  0  0
  2  6  2  0  0  0  0
  2  3  1  0  0  0  0
  3  4  2  0  0  0  0
  4  1  1  0  0  0  0
  5 29  1  0  0  0  0
  5  1  2  0  0  0  0
  6  5  1  0  0  0  0
  7  6  1  1  0  0  0
  8 11  1  6  0  0  0
  8 10  1  0  0  0  0
  9 13  1  1  0  0  0
  9  7  1  0  0  0  0
 10  7  1  0  0  0  0
 12  8  1  0  0  0  0
 12  9  1  0  0  0  0
 14 13  1  1  0  0  0
 14 20  1  0  0  0  0
 15 19  1  0  0  0  0
 17 18  1  0  0  0  0
 17 14  1  0  0  0  0
 18 15  1  0  0  0  0
 20 19  1  0  0  0  0
 20 16  2  0  0  0  0
 21 22  2  0  0  0  0
 22  3  1  0  0  0  0
 22 23  1  0  0  0  0
 24 23  1  0  0  0  0
 25 24  1  0  0  0  0
 26 25  1  0  0  0  0
 27 28  1  0  0  0  0
 28 26  1  0  0  0  0
 31 35  1  0  0  0  0
 32 35  1  0  0  0  0
 32 30  1  1  0  0  0
 33 34  2  0  0  0  0
 33 32  1  0  0  0  0
 34 31  1  0  0  0  0
 35 29  1  6  0  0  0
 36 33  1  0  0  0  0
 37 36  1  0  0  0  0
M  END
>  <MODEL>
4

>  <REMARK>
 VINA RESULT:      -5.9      2.639      7.910
  Name = 
  11 active torsions:
  status: ('A' for Active; 'I' for Inactive)
    1  A    between atoms: C_1  and  N_13
    2  A    between atoms: C_5  and  C_15
    3  A    between atoms: O_6  and  C_27
    4  A    between atoms: C_7  and  C_34
    5  A    between atoms: C_10  and  N_13
    6  A    between atoms: N_12  and  C_23
    7  A    between atoms: N_12  and  C_36
    8  A    between atoms: C_14  and  N_25
    9  A    between atoms: C_14  and  C_28
   10  A    between atoms: N_24  and  C_35
   11  A    between atoms: C_28  and  C_35
                            x       y       z     vdW  Elec       q    Type
                         _______ _______ _______ _____ _____    ______ ____

>  <TORSDO>
F 11

$$$$
=
 OpenBabel11042416483D

 37 40  0  0  1  0  0  0  0  0999 V2000
  188.7750  173.9910  141.7520 N   0  0  0  0  0  0  0  0  0  0  0  0
  188.2350  176.2610  143.1880 C   0  0  0  0  0  3  0  0  0  0  0  0
  187.7830  176.1200  141.8730 C   0  0  0  0  0  0  0  0  0  0  0  0
  188.0790  174.9830  141.1910 N   0  0  0  0  0  0  0  0  0  0  0  0
  189.2300  174.0720  143.0320 C   0  0  0  0  0  0  0  0  0  0  0  0
  188.9780  175.2320  143.7780 C   0  0  0  0  0  0  0  0  0  0  0  0
  189.4820  175.3580  145.1880 C   0  0  2  0  0  3  0  0  0  0  0  0
  191.4710  176.1880  146.1480 C   0  0  1  0  0  3  0  0  0  0  0  0
  189.0100  176.6520  145.8390 C   0  0  2  0  0  3  0  0  0  0  0  0
  190.9740  175.3600  145.2420 C   0  0  0  0  0  2  0  0  0  0  0  0
  192.9330  176.4290  146.2760 C   0  0  0  0  0  1  0  0  0  0  0  0
  190.2710  177.1420  147.0620 S   0  0  0  0  0  0  0  0  0  0  0  0
  187.7370  176.4260  146.5030 N   0  0  0  0  0  2  0  0  0  0  0  0
  186.9970  177.6810  146.4620 C   0  0  1  0  0  3  0  0  0  0  0  0
  184.3860  178.9030  145.7590 C   0  0  0  0  0  2  0  0  0  0  0  0
  185.7360  176.8100  148.2840 O   0  0  0  0  0  0  0  0  0  0  0  0
  186.5760  177.9790  145.0240 C   0  0  0  0  0  2  0  0  0  0  0  0
  185.6580  179.1990  144.9740 C   0  0  0  0  0  2  0  0  0  0  0  0
  184.7120  178.6540  147.2310 C   0  0  0  0  0  2  0  0  0  0  0  0
  185.7900  177.6180  147.3680 C   0  0  0  0  0  0  0  0  0  0  0  0
  187.5600  178.0380  140.4930 O   0  0  0  0  0  0  0  0  0  0  0  0
  186.9950  177.1820  141.2300 C   0  0  0  0  0  0  0  0  0  0  0  0
  185.5850  177.2460  141.4540 N   0  0  0  0  0  2  0  0  0  0  0  0
  184.7480  178.2900  140.8830 C   0  0  0  0  0  2  0  0  0  0  0  0
  183.3990  178.3340  141.5870 C   0  0  0  0  0  2  0  0  0  0  0  0
  182.2710  177.9250  140.6560 C   0  0  0  0  0  2  0  0  0  0  0  0
  180.6650  179.5960  140.9140 C   0  0  0  0  0  1  0  0  0  0  0  0
  180.9870  178.2250  141.2710 N   0  0  0  0  0  2  0  0  0  0  0  0
  189.9450  172.9750  143.6150 N   0  0  0  0  0  2  0  0  0  0  0  0
  192.2770  173.1750  140.9510 C   0  0  0  0  0  1  0  0  0  0  0  0
  191.8860  171.5310  143.9780 C   0  0  0  0  0  2  0  0  0  0  0  0
  192.0300  173.4020  142.4330 C   0  0  2  0  0  3  0  0  0  0  0  0
  193.2720  173.1370  143.1980 C   0  0  0  0  0  0  0  0  0  0  0  0
  193.1980  172.1470  144.0180 N   0  0  0  0  0  0  0  0  0  0  0  0
  191.0760  172.3360  142.9570 C   0  0  2  0  0  3  0  0  0  0  0  0
  194.4270  173.9080  143.0450 O   0  0  0  0  0  0  0  0  0  0  0  0
  194.3840  175.3250  142.9640 C   0  0  0  0  0  1  0  0  0  0  0  0
  1  5  2  0  0  0  0
  2  6  2  0  0  0  0
  3  2  1  0  0  0  0
  4  1  1  0  0  0  0
  4  3  2  0  0  0  0
  5 29  1  0  0  0  0
  5  6  1  0  0  0  0
  7  6  1  6  0  0  0
  7 10  1  0  0  0  0
  7  9  1  0  0  0  0
  8 11  1  6  0  0  0
  8 12  1  0  0  0  0
  9 13  1  1  0  0  0
  9 12  1  0  0  0  0
 10  8  1  0  0  0  0
 14 13  1  6  0  0  0
 14 20  1  0  0  0  0
 15 19  1  0  0  0  0
 17 14  1  0  0  0  0
 18 17  1  0  0  0  0
 18 15  1  0  0  0  0
 19 20  1  0  0  0  0
 20 16  2  0  0  0  0
 21 22  2  0  0  0  0
 22 23  1  0  0  0  0
 22  3  1  0  0  0  0
 24 23  1  0  0  0  0
 24 25  1  0  0  0  0
 26 28  1  0  0  0  0
 26 25  1  0  0  0  0
 27 28  1  0  0  0  0
 31 34  1  0  0  0  0
 32 30  1  6  0  0  0
 32 35  1  0  0  0  0
 32 33  1  0  0  0  0
 33 34  2  0  0  0  0
 35 29  1  1  0  0  0
 35 31  1  0  0  0  0
 36 33  1  0  0  0  0
 37 36  1  0  0  0  0
M  END
>  <MODEL>
5

>  <REMARK>
 VINA RESULT:      -5.9      2.629      3.920
  Name = 
  11 active torsions:
  status: ('A' for Active; 'I' for Inactive)
    1  A    between atoms: C_1  and  N_13
    2  A    between atoms: C_5  and  C_15
    3  A    between atoms: O_6  and  C_27
    4  A    between atoms: C_7  and  C_34
    5  A    between atoms: C_10  and  N_13
    6  A    between atoms: N_12  and  C_23
    7  A    between atoms: N_12  and  C_36
    8  A    between atoms: C_14  and  N_25
    9  A    between atoms: C_14  and  C_28
   10  A    between atoms: N_24  and  C_35
   11  A    between atoms: C_28  and  C_35
                            x       y       z     vdW  Elec       q    Type
                         _______ _______ _______ _____ _____    ______ ____

>  <TORSDO>
F 11

$$$$
=
 OpenBabel11042416483D

 37 40  0  0  1  0  0  0  0  0999 V2000
  192.5830  174.9590  146.6160 N   0  0  0  0  0  0  0  0  0  0  0  0
  190.2870  174.4230  145.2190 C   0  0  0  0  0  3  0  0  0  0  0  0
  190.2330  174.9610  146.5070 C   0  0  0  0  0  0  0  0  0  0  0  0
  191.3930  175.2050  147.1720 N   0  0  0  0  0  0  0  0  0  0  0  0
  192.6920  174.4440  145.3610 C   0  0  0  0  0  0  0  0  0  0  0  0
  191.5290  174.1470  144.6360 C   0  0  0  0  0  0  0  0  0  0  0  0
  191.6180  173.5620  143.2560 C   0  0  2  0  0  3  0  0  0  0  0  0
  191.3690  171.3860  142.3800 C   0  0  1  0  0  3  0  0  0  0  0  0
  190.2910  173.6620  142.5170 C   0  0  2  0  0  3  0  0  0  0  0  0
  191.9910  172.1170  143.2910 C   0  0  0  0  0  2  0  0  0  0  0  0
  191.5080  169.9050  142.3290 C   0  0  0  0  0  1  0  0  0  0  0  0
  190.2050  172.2630  141.3500 S   0  0  0  0  0  0  0  0  0  0  0  0
  190.2320  174.9180  141.7880 N   0  0  0  0  0  2  0  0  0  0  0  0
  189.0960  175.6700  142.3060 C   0  0  1  0  0  3  0  0  0  0  0  0
  187.5540  178.1880  142.0170 C   0  0  0  0  0  2  0  0  0  0  0  0
  188.0190  175.1500  140.2480 O   0  0  0  0  0  0  0  0  0  0  0  0
  189.5790  177.0110  142.8550 C   0  0  0  0  0  2  0  0  0  0  0  0
  188.3930  177.8880  143.2530 C   0  0  0  0  0  2  0  0  0  0  0  0
  186.9760  176.8980  141.4360 C   0  0  0  0  0  2  0  0  0  0  0  0
  188.0580  175.8780  141.2290 C   0  0  0  0  0  0  0  0  0  0  0  0
  188.5140  174.5510  148.0920 O   0  0  0  0  0  0  0  0  0  0  0  0
  188.9420  175.2650  147.1430 C   0  0  0  0  0  0  0  0  0  0  0  0
  188.1680  176.3700  146.6700 N   0  0  0  0  0  2  0  0  0  0  0  0
  186.8650  176.7080  147.2230 C   0  0  0  0  0  2  0  0  0  0  0  0
  185.8210  176.7760  146.1180 C   0  0  0  0  0  2  0  0  0  0  0  0
  184.8320  177.9050  146.3540 C   0  0  0  0  0  2  0  0  0  0  0  0
  184.5150  178.6170  144.1570 C   0  0  0  0  0  1  0  0  0  0  0  0
  185.0970  178.9980  145.4320 N   0  0  0  0  0  2  0  0  0  0  0  0
  193.9850  174.2240  144.7820 N   0  0  0  0  0  2  0  0  0  0  0  0
  197.4980  174.1650  145.2710 C   0  0  0  0  0  1  0  0  0  0  0  0
  194.9500  176.4720  144.8160 C   0  0  0  0  0  2  0  0  0  0  0  0
  196.3590  174.5480  144.3410 C   0  0  2  0  0  3  0  0  0  0  0  0
  196.7130  175.7730  143.5860 C   0  0  0  0  0  0  0  0  0  0  0  0
  195.9680  176.7940  143.8340 N   0  0  0  0  0  0  0  0  0  0  0  0
  195.1590  174.9960  145.1670 C   0  0  2  0  0  3  0  0  0  0  0  0
  197.7680  175.8120  142.6720 O   0  0  0  0  0  0  0  0  0  0  0  0
  197.6970  175.1680  141.4080 C   0  0  0  0  0  1  0  0  0  0  0  0
  1  4  1  0  0  0  0
  2  3  1  0  0  0  0
  3 22  1  0  0  0  0
  3  4  2  0  0  0  0
  5  1  2  0  0  0  0
  6  2  2  0  0  0  0
  6  5  1  0  0  0  0
  7 10  1  0  0  0  0
  7  6  1  1  0  0  0
  8 11  1  1  0  0  0
  8 10  1  0  0  0  0
  9 13  1  6  0  0  0
  9  7  1  0  0  0  0
 12  8  1  0  0  0  0
 12  9  1  0  0  0  0
 14 13  1  6  0  0  0
 14 17  1  0  0  0  0
 15 18  1  0  0  0  0
 16 20  2  0  0  0  0
 17 18  1  0  0  0  0
 19 15  1  0  0  0  0
 20 19  1  0  0  0  0
 20 14  1  0  0  0  0
 22 21  2  0  0  0  0
 23 22  1  0  0  0  0
 23 24  1  0  0  0  0
 25 26  1  0  0  0  0
 25 24  1  0  0  0  0
 27 28  1  0  0  0  0
 28 26  1  0  0  0  0
 29  5  1  0  0  0  0
 31 35  1  0  0  0  0
 32 35  1  0  0  0  0
 32 30  1  1  0  0  0
 33 34  2  0  0  0  0
 33 32  1  0  0  0  0
 34 31  1  0  0  0  0
 35 29  1  6  0  0  0
 36 33  1  0  0  0  0
 37 36  1  0  0  0  0
M  END
>  <MODEL>
6

>  <REMARK>
 VINA RESULT:      -5.8      2.733      5.400
  Name = 
  11 active torsions:
  status: ('A' for Active; 'I' for Inactive)
    1  A    between atoms: C_1  and  N_13
    2  A    between atoms: C_5  and  C_15
    3  A    between atoms: O_6  and  C_27
    4  A    between atoms: C_7  and  C_34
    5  A    between atoms: C_10  and  N_13
    6  A    between atoms: N_12  and  C_23
    7  A    between atoms: N_12  and  C_36
    8  A    between atoms: C_14  and  N_25
    9  A    between atoms: C_14  and  C_28
   10  A    between atoms: N_24  and  C_35
   11  A    between atoms: C_28  and  C_35
                            x       y       z     vdW  Elec       q    Type
                         _______ _______ _______ _____ _____    ______ ____

>  <TORSDO>
F 11

$$$$
=
 OpenBabel11042416483D

 37 40  0  0  1  0  0  0  0  0999 V2000
  187.6790  176.4050  141.2900 N   0  0  0  0  0  0  0  0  0  0  0  0
  189.6830  174.8570  142.3370 C   0  0  0  0  0  3  0  0  0  0  0  0
  189.1400  174.5730  141.0820 C   0  0  0  0  0  0  0  0  0  0  0  0
  188.1410  175.3580  140.6000 N   0  0  0  0  0  0  0  0  0  0  0  0
  188.1800  176.7320  142.5130 C   0  0  0  0  0  0  0  0  0  0  0  0
  189.1940  175.9430  143.0730 C   0  0  0  0  0  0  0  0  0  0  0  0
  189.7540  176.2680  144.4290 C   0  0  2  0  0  3  0  0  0  0  0  0
  189.6050  175.2490  146.5510 C   0  0  1  0  0  3  0  0  0  0  0  0
  191.1540  175.6960  144.6100 C   0  0  2  0  0  3  0  0  0  0  0  0
  188.9080  175.7110  145.5250 C   0  0  0  0  0  2  0  0  0  0  0  0
  188.9570  174.5420  147.6880 C   0  0  0  0  0  1  0  0  0  0  0  0
  191.3790  175.3510  146.3860 S   0  0  0  0  0  0  0  0  0  0  0  0
  192.1390  176.6670  144.1660 N   0  0  0  0  0  2  0  0  0  0  0  0
  193.3080  175.9240  143.7100 C   0  0  1  0  0  3  0  0  0  0  0  0
  195.9140  176.1740  142.3140 C   0  0  0  0  0  2  0  0  0  0  0  0
  194.4940  177.0410  145.4460 O   0  0  0  0  0  0  0  0  0  0  0  0
  193.4330  176.0480  142.1930 C   0  0  0  0  0  2  0  0  0  0  0  0
  194.7370  175.4200  141.7070 C   0  0  0  0  0  2  0  0  0  0  0  0
  195.9010  176.0480  143.8370 C   0  0  0  0  0  2  0  0  0  0  0  0
  194.5590  176.4280  144.3900 C   0  0  0  0  0  0  0  0  0  0  0  0
  189.6800  173.5210  139.0250 O   0  0  0  0  0  0  0  0  0  0  0  0
  189.6380  173.4420  140.2840 C   0  0  0  0  0  0  0  0  0  0  0  0
  190.0620  172.2480  140.9440 N   0  0  0  0  0  2  0  0  0  0  0  0
  190.5300  171.0760  140.2190 C   0  0  0  0  0  2  0  0  0  0  0  0
  191.9410  171.3020  139.6970 C   0  0  0  0  0  2  0  0  0  0  0  0
  192.0610  170.9230  138.2310 C   0  0  0  0  0  2  0  0  0  0  0  0
  191.1620  169.2510  136.8780 C   0  0  0  0  0  1  0  0  0  0  0  0
  190.8100  170.3480  137.7620 N   0  0  0  0  0  2  0  0  0  0  0  0
  187.6850  177.8820  143.2110 N   0  0  0  0  0  2  0  0  0  0  0  0
  185.2910  176.7050  145.5500 C   0  0  0  0  0  1  0  0  0  0  0  0
  185.7730  179.3960  143.4160 C   0  0  0  0  0  2  0  0  0  0  0  0
  186.2700  177.8120  145.1930 C   0  0  2  0  0  3  0  0  0  0  0  0
  185.7480  179.1180  145.6590 C   0  0  0  0  0  0  0  0  0  0  0  0
  185.4850  179.9600  144.7200 N   0  0  0  0  0  0  0  0  0  0  0  0
  186.3090  177.9840  143.6790 C   0  0  2  0  0  3  0  0  0  0  0  0
  185.5640  179.4130  147.0120 O   0  0  0  0  0  0  0  0  0  0  0  0
  186.5300  179.0760  147.9970 C   0  0  0  0  0  1  0  0  0  0  0  0
  1  5  2  0  0  0  0
  2  6  2  0  0  0  0
  3  2  1  0  0  0  0
  4  3  2  0  0  0  0
  4  1  1  0  0  0  0
  5  6  1  0  0  0  0
  5 29  1  0  0  0  0
  7  6  1  6  0  0  0
  7  9  1  0  0  0  0
  7 10  1  0  0  0  0
  8 11  1  6  0  0  0
  9 13  1  1  0  0  0
  9 12  1  0  0  0  0
 10  8  1  0  0  0  0
 12  8  1  0  0  0  0
 14 13  1  1  0  0  0
 14 20  1  0  0  0  0
 15 19  1  0  0  0  0
 17 14  1  0  0  0  0
 18 17  1  0  0  0  0
 18 15  1  0  0  0  0
 19 20  1  0  0  0  0
 20 16  2  0  0  0  0
 21 22  2  0  0  0  0
 22 23  1  0  0  0  0
 22  3  1  0  0  0  0
 24 23  1  0  0  0  0
 25 24  1  0  0  0  0
 26 25  1  0  0  0  0
 27 28  1  0  0  0  0
 28 26  1  0  0  0  0
 31 35  1  0  0  0  0
 31 34  1  0  0  0  0
 32 30  1  6  0  0  0
 32 33  1  0  0  0  0
 33 36  1  0  0  0  0
 34 33  2  0  0  0  0
 35 29  1  1  0  0  0
 35 32  1  0  0  0  0
 36 37  1  0  0  0  0
M  END
>  <MODEL>
7

>  <REMARK>
 VINA RESULT:      -5.8      2.317      7.982
  Name = 
  11 active torsions:
  status: ('A' for Active; 'I' for Inactive)
    1  A    between atoms: C_1  and  N_13
    2  A    between atoms: C_5  and  C_15
    3  A    between atoms: O_6  and  C_27
    4  A    between atoms: C_7  and  C_34
    5  A    between atoms: C_10  and  N_13
    6  A    between atoms: N_12  and  C_23
    7  A    between atoms: N_12  and  C_36
    8  A    between atoms: C_14  and  N_25
    9  A    between atoms: C_14  and  C_28
   10  A    between atoms: N_24  and  C_35
   11  A    between atoms: C_28  and  C_35
                            x       y       z     vdW  Elec       q    Type
                         _______ _______ _______ _____ _____    ______ ____

>  <TORSDO>
F 11

$$$$
=
 OpenBabel11042416483D

 37 40  0  0  1  0  0  0  0  0999 V2000
  189.0140  173.7070  142.0440 N   0  0  0  0  0  0  0  0  0  0  0  0
  190.3020  175.9370  142.9830 C   0  0  0  0  0  3  0  0  0  0  0  0
  189.0230  176.0280  142.4280 C   0  0  0  0  0  0  0  0  0  0  0  0
  188.4200  174.9010  141.9660 N   0  0  0  0  0  0  0  0  0  0  0  0
  190.2550  173.5610  142.5840 C   0  0  0  0  0  0  0  0  0  0  0  0
  190.9370  174.6920  143.0550 C   0  0  0  0  0  0  0  0  0  0  0  0
  192.3150  174.5640  143.6400 C   0  0  2  0  0  3  0  0  0  0  0  0
  194.3630  175.6730  143.2660 C   0  0  1  0  0  3  0  0  0  0  0  0
  192.4660  175.3970  144.9060 C   0  0  2  0  0  3  0  0  0  0  0  0
  193.3660  175.0250  142.6850 C   0  0  0  0  0  2  0  0  0  0  0  0
  195.4460  176.3200  142.4770 C   0  0  0  0  0  1  0  0  0  0  0  0
  194.2170  175.8920  145.0310 S   0  0  0  0  0  0  0  0  0  0  0  0
  192.0950  174.5980  146.0620 N   0  0  0  0  0  2  0  0  0  0  0  0
  191.0360  175.3140  146.7630 C   0  0  1  0  0  3  0  0  0  0  0  0
  188.5810  176.9370  146.3850 C   0  0  0  0  0  2  0  0  0  0  0  0
  189.5980  173.5550  146.0550 O   0  0  0  0  0  0  0  0  0  0  0  0
  191.0640  176.7880  146.3610 C   0  0  0  0  0  2  0  0  0  0  0  0
  189.8650  177.5290  146.9510 C   0  0  0  0  0  2  0  0  0  0  0  0
  188.4410  175.4700  146.7950 C   0  0  0  0  0  2  0  0  0  0  0  0
  189.6880  174.7050  146.4600 C   0  0  0  0  0  0  0  0  0  0  0  0
  188.8660  178.2960  141.7450 O   0  0  0  0  0  0  0  0  0  0  0  0
  188.3290  177.3220  142.3440 C   0  0  0  0  0  0  0  0  0  0  0  0
  187.0470  177.4740  142.9560 N   0  0  0  0  0  2  0  0  0  0  0  0
  186.3190  178.7340  142.9470 C   0  0  0  0  0  2  0  0  0  0  0  0
  184.8210  178.4810  142.8460 C   0  0  0  0  0  2  0  0  0  0  0  0
  184.0760  179.0590  144.0370 C   0  0  0  0  0  2  0  0  0  0  0  0
  184.2100  178.4250  146.2770 C   0  0  0  0  0  1  0  0  0  0  0  0
  184.9430  179.0760  145.2050 N   0  0  0  0  0  2  0  0  0  0  0  0
  190.8490  172.2600  142.6860 N   0  0  0  0  0  2  0  0  0  0  0  0
  193.9130  171.7560  140.9700 C   0  0  0  0  0  1  0  0  0  0  0  0
  190.7730  170.3050  141.2160 C   0  0  0  0  0  2  0  0  0  0  0  0
  192.9130  171.1870  141.9630 C   0  0  2  0  0  3  0  0  0  0  0  0
  192.8630  169.7100  141.8400 C   0  0  0  0  0  0  0  0  0  0  0  0
  191.7310  169.2410  141.4460 N   0  0  0  0  0  0  0  0  0  0  0  0
  191.5050  171.6070  141.5600 C   0  0  2  0  0  3  0  0  0  0  0  0
  193.9580  168.8960  142.1360 O   0  0  0  0  0  0  0  0  0  0  0  0
  194.6910  169.0260  143.3450 C   0  0  0  0  0  1  0  0  0  0  0  0
  1  5  2  0  0  0  0
  2  6  2  0  0  0  0
  3  2  1  0  0  0  0
  4  1  1  0  0  0  0
  4  3  2  0  0  0  0
  5 29  1  0  0  0  0
  5  6  1  0  0  0  0
  7  6  1  6  0  0  0
  7  9  1  0  0  0  0
  8 11  1  6  0  0  0
  8 12  1  0  0  0  0
  9 12  1  0  0  0  0
  9 13  1  1  0  0  0
 10  8  1  0  0  0  0
 10  7  1  0  0  0  0
 14 13  1  6  0  0  0
 15 19  1  0  0  0  0
 15 18  1  0  0  0  0
 16 20  2  0  0  0  0
 17 14  1  0  0  0  0
 17 18  1  0  0  0  0
 20 14  1  0  0  0  0
 20 19  1  0  0  0  0
 21 22  2  0  0  0  0
 22  3  1  0  0  0  0
 22 23  1  0  0  0  0
 24 23  1  0  0  0  0
 25 24  1  0  0  0  0
 25 26  1  0  0  0  0
 26 28  1  0  0  0  0
 28 27  1  0  0  0  0
 31 34  1  0  0  0  0
 31 35  1  0  0  0  0
 32 30  1  6  0  0  0
 33 32  1  0  0  0  0
 33 36  1  0  0  0  0
 34 33  2  0  0  0  0
 35 32  1  0  0  0  0
 35 29  1  1  0  0  0
 36 37  1  0  0  0  0
M  END
>  <MODEL>
8

>  <REMARK>
 VINA RESULT:      -5.8      1.474      1.922
  Name = 
  11 active torsions:
  status: ('A' for Active; 'I' for Inactive)
    1  A    between atoms: C_1  and  N_13
    2  A    between atoms: C_5  and  C_15
    3  A    between atoms: O_6  and  C_27
    4  A    between atoms: C_7  and  C_34
    5  A    between atoms: C_10  and  N_13
    6  A    between atoms: N_12  and  C_23
    7  A    between atoms: N_12  and  C_36
    8  A    between atoms: C_14  and  N_25
    9  A    between atoms: C_14  and  C_28
   10  A    between atoms: N_24  and  C_35
   11  A    between atoms: C_28  and  C_35
                            x       y       z     vdW  Elec       q    Type
                         _______ _______ _______ _____ _____    ______ ____

>  <TORSDO>
F 11

$$$$
=
 OpenBabel11042416483D

 37 40  0  0  1  0  0  0  0  0999 V2000
  188.0040  175.9150  141.0380 N   0  0  0  0  0  0  0  0  0  0  0  0
  189.9060  174.4760  142.3860 C   0  0  0  0  0  3  0  0  0  0  0  0
  189.4610  174.0700  141.1260 C   0  0  0  0  0  0  0  0  0  0  0  0
  188.5100  174.8060  140.4920 N   0  0  0  0  0  0  0  0  0  0  0  0
  188.4090  176.3600  142.2590 C   0  0  0  0  0  0  0  0  0  0  0  0
  189.3700  175.6290  142.9720 C   0  0  0  0  0  0  0  0  0  0  0  0
  189.8240  176.0850  144.3290 C   0  0  2  0  0  3  0  0  0  0  0  0
  189.6140  175.2060  146.5080 C   0  0  1  0  0  3  0  0  0  0  0  0
  191.2450  175.6250  144.6290 C   0  0  2  0  0  3  0  0  0  0  0  0
  188.9510  175.5460  145.4140 C   0  0  0  0  0  2  0  0  0  0  0  0
  188.9460  174.5350  147.6560 C   0  0  0  0  0  1  0  0  0  0  0  0
  191.3840  175.4200  146.4360 S   0  0  0  0  0  0  0  0  0  0  0  0
  192.1890  176.6300  144.1710 N   0  0  0  0  0  2  0  0  0  0  0  0
  193.3900  175.9310  143.7320 C   0  0  1  0  0  3  0  0  0  0  0  0
  196.0080  176.2780  142.3790 C   0  0  0  0  0  2  0  0  0  0  0  0
  194.5080  177.0790  145.4910 O   0  0  0  0  0  0  0  0  0  0  0  0
  193.5350  176.0670  142.2170 C   0  0  0  0  0  2  0  0  0  0  0  0
  194.8680  175.4860  141.7500 C   0  0  0  0  0  2  0  0  0  0  0  0
  195.9750  176.1440  143.9010 C   0  0  0  0  0  2  0  0  0  0  0  0
  194.6120  176.4740  144.4340 C   0  0  0  0  0  0  0  0  0  0  0  0
  189.6730  172.5610  139.3070 O   0  0  0  0  0  0  0  0  0  0  0  0
  190.0110  172.8670  140.4840 C   0  0  0  0  0  0  0  0  0  0  0  0
  190.9220  172.0370  141.2080 N   0  0  0  0  0  2  0  0  0  0  0  0
  191.4760  170.8110  140.6530 C   0  0  0  0  0  2  0  0  0  0  0  0
  192.9000  170.6000  141.1480 C   0  0  0  0  0  2  0  0  0  0  0  0
  193.4790  171.8730  141.7410 C   0  0  0  0  0  2  0  0  0  0  0  0
  193.2040  171.2690  143.9760 C   0  0  0  0  0  1  0  0  0  0  0  0
  194.2030  171.5660  142.9650 N   0  0  0  0  0  2  0  0  0  0  0  0
  187.8710  177.5730  142.8000 N   0  0  0  0  0  2  0  0  0  0  0  0
  185.5230  176.7660  145.3330 C   0  0  0  0  0  1  0  0  0  0  0  0
  185.8750  178.9850  142.6910 C   0  0  0  0  0  2  0  0  0  0  0  0
  186.4420  177.8300  144.7550 C   0  0  2  0  0  3  0  0  0  0  0  0
  185.8420  179.1720  144.9440 C   0  0  0  0  0  0  0  0  0  0  0  0
  185.5420  179.7870  143.8530 N   0  0  0  0  0  0  0  0  0  0  0  0
  186.4870  177.6900  143.2390 C   0  0  2  0  0  3  0  0  0  0  0  0
  185.6280  179.7270  146.2080 O   0  0  0  0  0  0  0  0  0  0  0  0
  186.0270  179.0680  147.4000 C   0  0  0  0  0  1  0  0  0  0  0  0
  1  5  2  0  0  0  0
  2  6  2  0  0  0  0
  3  2  1  0  0  0  0
  4  1  1  0  0  0  0
  4  3  2  0  0  0  0
  5 29  1  0  0  0  0
  5  6  1  0  0  0  0
  7  6  1  6  0  0  0
  7  9  1  0  0  0  0
  7 10  1  0  0  0  0
  8 11  1  6  0  0  0
  9 13  1  1  0  0  0
  9 12  1  0  0  0  0
 10  8  1  0  0  0  0
 12  8  1  0  0  0  0
 14 13  1  1  0  0  0
 14 20  1  0  0  0  0
 15 19  1  0  0  0  0
 17 14  1  0  0  0  0
 18 17  1  0  0  0  0
 18 15  1  0  0  0  0
 19 20  1  0  0  0  0
 20 16  2  0  0  0  0
 21 22  2  0  0  0  0
 22  3  1  0  0  0  0
 22 23  1  0  0  0  0
 24 25  1  0  0  0  0
 24 23  1  0  0  0  0
 25 26  1  0  0  0  0
 26 28  1  0  0  0  0
 28 27  1  0  0  0  0
 31 35  1  0  0  0  0
 31 34  1  0  0  0  0
 32 33  1  0  0  0  0
 32 30  1  1  0  0  0
 33 36  1  0  0  0  0
 34 33  2  0  0  0  0
 35 29  1  6  0  0  0
 35 32  1  0  0  0  0
 36 37  1  0  0  0  0
M  END
>  <MODEL>
9

>  <REMARK>
 VINA RESULT:      -5.7      2.217      7.695
  Name = 
  11 active torsions:
  status: ('A' for Active; 'I' for Inactive)
    1  A    between atoms: C_1  and  N_13
    2  A    between atoms: C_5  and  C_15
    3  A    between atoms: O_6  and  C_27
    4  A    between atoms: C_7  and  C_34
    5  A    between atoms: C_10  and  N_13
    6  A    between atoms: N_12  and  C_23
    7  A    between atoms: N_12  and  C_36
    8  A    between atoms: C_14  and  N_25
    9  A    between atoms: C_14  and  C_28
   10  A    between atoms: N_24  and  C_35
   11  A    between atoms: C_28  and  C_35
                            x       y       z     vdW  Elec       q    Type
                         _______ _______ _______ _____ _____    ______ ____

>  <TORSDO>
F 11

$$$$
