=
 OpenBabel11042419353D

 32 36  0  0  1  0  0  0  0  0999 V2000
  192.0110  174.9550  143.2700 N   0  0  0  0  0  0  0  0  0  0  0  0
  197.1140  177.0240  143.3470 N   0  0  0  0  0  1  0  0  0  0  0  0
  190.3890  172.8980  140.5680 C   0  0  0  0  0  0  0  0  0  0  0  0
  193.2790  175.2650  143.2040 C   0  0  0  0  0  0  0  0  0  0  0  0
  189.0610  175.8180  143.2590 C   0  0  2  0  0  3  0  0  0  0  0  0
  195.8330  176.4050  143.2720 C   0  0  0  0  0  0  0  0  0  0  0  0
  187.6590  175.6680  143.0910 O   0  0  0  0  0  0  0  0  0  0  0  0
  189.6880  174.5770  142.6710 C   0  0  2  0  0  3  0  0  0  0  0  0
  189.0530  173.1730  140.8890 O   0  0  0  0  0  0  0  0  0  0  0  0
  193.9040  175.6320  144.4160 C   0  0  0  0  0  0  0  0  0  0  0  0
  191.4490  173.7770  141.1450 C   0  0  0  0  0  0  0  0  0  0  0  0
  190.6700  171.9420  139.7970 O   0  0  0  0  0  0  0  0  0  0  0  0
  187.4720  174.6450  142.1280 C   0  0  0  0  0  2  0  0  0  0  0  0
  194.0370  175.3580  142.0010 C   0  0  0  0  0  0  0  0  0  0  0  0
  191.0960  174.6440  142.2500 N   0  0  0  0  0  0  0  0  0  0  0  0
  195.2970  176.0080  142.0420 C   0  0  0  0  0  0  0  0  0  0  0  0
  188.8080  174.4290  141.4930 C   0  0  1  0  0  3  0  0  0  0  0  0
  195.1400  176.1850  144.4140 N   0  0  0  0  0  0  0  0  0  0  0  0
  196.1060  176.2420  140.7950 C   0  0  0  0  0  1  0  0  0  0  0  0
  193.7230  174.7480  140.8480 C   0  0  0  0  0  3  0  0  0  0  0  0
  192.6010  173.8810  140.5040 C   0  0  0  0  0  3  0  0  0  0  0  0
  189.4040  175.9680  144.7430 C   0  0  2  0  0  3  0  0  0  0  0  0
  188.7010  177.1250  145.4760 C   0  0  1  0  0  3  0  0  0  0  0  0
  190.1120  177.2900  144.9530 C   0  0  0  0  0  2  0  0  0  0  0  0
  186.5560  178.1370  145.0240 N   0  0  0  0  0  0  0  0  0  0  0  0
  187.7720  177.9340  144.6330 C   0  0  0  0  0  3  0  0  0  0  0  0
  185.9760  179.4490  143.1720 O   0  0  0  0  0  0  0  0  0  0  0  0
  185.6190  178.8790  144.2410 C   0  0  0  0  0  0  0  0  0  0  0  0
  184.2080  178.9960  144.7010 C   0  0  0  0  0  2  0  0  0  0  0  0
  184.0990  178.5400  146.1470 C   0  0  0  0  0  1  0  0  0  0  0  0
  192.6900  175.3230  146.7490 C   0  0  0  0  0  3  0  0  0  0  0  0
  193.2420  175.4610  145.6870 C   0  0  0  0  0  0  0  0  0  0  0  0
  3  9  1  0  0  0  0
  3 11  1  0  0  0  0
  4  1  2  0  0  0  0
  4 10  1  0  0  0  0
  5  7  1  1  0  0  0
  5 22  1  0  0  0  0
  6  2  1  0  0  0  0
  6 18  1  0  0  0  0
  8 15  1  6  0  0  0
  8  5  1  0  0  0  0
  9 17  1  0  0  0  0
 10 32  1  0  0  0  0
 11 15  1  0  0  0  0
 12  3  2  0  0  0  0
 13  7  1  0  0  0  0
 14 16  1  0  0  0  0
 14  4  1  0  0  0  0
 15  1  1  0  0  0  0
 16  6  2  0  0  0  0
 17 13  1  1  0  0  0
 17  8  1  0  0  0  0
 18 10  2  0  0  0  0
 19 16  1  0  0  0  0
 20 14  2  0  0  0  0
 21 20  1  0  0  0  0
 21 11  2  0  0  0  0
 22 24  1  6  0  0  0
 22 23  1  0  0  0  0
 23 26  1  6  0  0  0
 24 23  1  0  0  0  0
 26 25  2  0  0  0  0
 27 28  2  0  0  0  0
 28 29  1  0  0  0  0
 28 25  1  0  0  0  0
 29 30  1  0  0  0  0
 32 31  3  0  0  0  0
M  END
>  <MODEL>
1

>  <REMARK>
 VINA RESULT:      -7.4      0.000      0.000
  Name = 
  5 active torsions:
  status: ('A' for Active; 'I' for Inactive)
    1  A    between atoms: C_4  and  C_6
    2  A    between atoms: C_9  and  C_30
    3  A    between atoms: C_10  and  C_26
    4  A    between atoms: N_11  and  C_30
    5  A    between atoms: C_14  and  C_29
                            x       y       z     vdW  Elec       q    Type
                         _______ _______ _______ _____ _____    ______ ____

>  <TORSDO>
F 5

$$$$
=
 OpenBabel11042419353D

 32 36  0  0  1  0  0  0  0  0999 V2000
  190.8090  174.1460  142.2100 N   0  0  0  0  0  0  0  0  0  0  0  0
  190.8470  168.7370  141.1760 N   0  0  0  0  0  1  0  0  0  0  0  0
  193.2580  176.1250  144.2720 C   0  0  0  0  0  0  0  0  0  0  0  0
  191.0240  172.8850  141.9450 C   0  0  0  0  0  0  0  0  0  0  0  0
  189.1330  176.3250  143.5830 C   0  0  2  0  0  3  0  0  0  0  0  0
  190.9440  170.1330  141.4440 C   0  0  0  0  0  0  0  0  0  0  0  0
  188.8630  177.5970  144.1560 O   0  0  0  0  0  0  0  0  0  0  0  0
  190.6280  176.2670  143.3800 C   0  0  2  0  0  3  0  0  0  0  0  0
  192.4270  177.2120  144.5710 O   0  0  0  0  0  0  0  0  0  0  0  0
  190.3330  172.3440  140.8390 C   0  0  0  0  0  0  0  0  0  0  0  0
  192.6260  174.8750  143.7540 C   0  0  0  0  0  0  0  0  0  0  0  0
  194.5010  176.2090  144.4570 O   0  0  0  0  0  0  0  0  0  0  0  0
  190.0990  178.0940  144.6420 C   0  0  0  0  0  2  0  0  0  0  0  0
  191.8110  172.0040  142.7420 C   0  0  0  0  0  0  0  0  0  0  0  0
  191.2620  174.9420  143.2760 N   0  0  0  0  0  0  0  0  0  0  0  0
  191.6980  170.6070  142.5230 C   0  0  0  0  0  0  0  0  0  0  0  0
  191.0410  176.9330  144.6330 C   0  0  1  0  0  3  0  0  0  0  0  0
  190.3110  171.0060  140.6260 N   0  0  0  0  0  0  0  0  0  0  0  0
  192.4130  169.6110  143.3950 C   0  0  0  0  0  1  0  0  0  0  0  0
  192.7700  172.3940  143.5960 C   0  0  0  0  0  3  0  0  0  0  0  0
  193.2540  173.7260  143.9400 C   0  0  0  0  0  3  0  0  0  0  0  0
  188.3830  176.1710  142.2580 C   0  0  2  0  0  3  0  0  0  0  0  0
  186.8480  176.2590  142.3470 C   0  0  1  0  0  3  0  0  0  0  0  0
  187.5410  174.9130  142.3130 C   0  0  0  0  0  2  0  0  0  0  0  0
  185.4550  177.4440  143.9240 N   0  0  0  0  0  0  0  0  0  0  0  0
  186.3070  176.4930  143.7190 C   0  0  0  0  0  3  0  0  0  0  0  0
  184.1880  178.7310  145.4160 O   0  0  0  0  0  0  0  0  0  0  0  0
  184.9300  177.7280  145.2220 C   0  0  0  0  0  0  0  0  0  0  0  0
  185.2790  176.8390  146.3650 C   0  0  0  0  0  2  0  0  0  0  0  0
  186.2840  177.5330  147.2690 C   0  0  0  0  0  1  0  0  0  0  0  0
  189.0000  173.8870  139.1490 C   0  0  0  0  0  3  0  0  0  0  0  0
  189.6050  173.1860  139.9200 C   0  0  0  0  0  0  0  0  0  0  0  0
  1 15  1  0  0  0  0
  2  6  1  0  0  0  0
  3 12  2  0  0  0  0
  3  9  1  0  0  0  0
  4  1  2  0  0  0  0
  4 14  1  0  0  0  0
  5  7  1  6  0  0  0
  6 16  2  0  0  0  0
  7 13  1  0  0  0  0
  8 15  1  1  0  0  0
  8  5  1  0  0  0  0
  8 17  1  0  0  0  0
  9 17  1  0  0  0  0
 10  4  1  0  0  0  0
 11 21  2  0  0  0  0
 11  3  1  0  0  0  0
 14 20  2  0  0  0  0
 15 11  1  0  0  0  0
 16 14  1  0  0  0  0
 16 19  1  0  0  0  0
 17 13  1  6  0  0  0
 18 10  2  0  0  0  0
 18  6  1  0  0  0  0
 20 21  1  0  0  0  0
 22 24  1  1  0  0  0
 22 23  1  0  0  0  0
 22  5  1  0  0  0  0
 23 26  1  1  0  0  0
 24 23  1  0  0  0  0
 25 28  1  0  0  0  0
 26 25  2  0  0  0  0
 28 27  2  0  0  0  0
 28 29  1  0  0  0  0
 29 30  1  0  0  0  0
 31 32  3  0  0  0  0
 32 10  1  0  0  0  0
M  END
>  <MODEL>
2

>  <REMARK>
 VINA RESULT:      -6.8      2.825      5.130
  Name = 
  5 active torsions:
  status: ('A' for Active; 'I' for Inactive)
    1  A    between atoms: C_4  and  C_6
    2  A    between atoms: C_9  and  C_30
    3  A    between atoms: C_10  and  C_26
    4  A    between atoms: N_11  and  C_30
    5  A    between atoms: C_14  and  C_29
                            x       y       z     vdW  Elec       q    Type
                         _______ _______ _______ _____ _____    ______ ____

>  <TORSDO>
F 5

$$$$
=
 OpenBabel11042419353D

 32 36  0  0  1  0  0  0  0  0999 V2000
  189.7770  175.4000  144.1760 N   0  0  0  0  0  0  0  0  0  0  0  0
  185.0930  177.4530  142.1340 N   0  0  0  0  0  1  0  0  0  0  0  0
  191.5000  176.3230  147.3920 C   0  0  0  0  0  0  0  0  0  0  0  0
  188.5980  175.8810  143.8880 C   0  0  0  0  0  0  0  0  0  0  0  0
  192.7830  175.1930  143.5700 C   0  0  2  0  0  3  0  0  0  0  0  0
  186.2630  176.9360  142.7600 C   0  0  0  0  0  0  0  0  0  0  0  0
  194.1570  174.9580  143.8470 O   0  0  0  0  0  0  0  0  0  0  0  0
  192.0860  175.2170  144.9090 C   0  0  2  0  0  3  0  0  0  0  0  0
  192.7910  175.8980  147.0510 O   0  0  0  0  0  0  0  0  0  0  0  0
  187.8430  175.1730  142.9260 C   0  0  0  0  0  0  0  0  0  0  0  0
  190.5000  176.4950  146.2960 C   0  0  0  0  0  0  0  0  0  0  0  0
  191.2110  176.5670  148.5940 O   0  0  0  0  0  0  0  0  0  0  0  0
  194.3460  175.2300  145.2250 C   0  0  0  0  0  2  0  0  0  0  0  0
  188.0690  177.1070  144.3870 C   0  0  0  0  0  0  0  0  0  0  0  0
  190.7910  175.9110  145.0040 N   0  0  0  0  0  0  0  0  0  0  0  0
  186.9290  177.6640  143.7520 C   0  0  0  0  0  0  0  0  0  0  0  0
  193.1150  175.9500  145.6750 C   0  0  1  0  0  3  0  0  0  0  0  0
  186.7190  175.7140  142.3980 N   0  0  0  0  0  0  0  0  0  0  0  0
  186.3800  179.0060  144.1510 C   0  0  0  0  0  1  0  0  0  0  0  0
  188.4760  177.7140  145.5120 C   0  0  0  0  0  3  0  0  0  0  0  0
  189.4980  177.3370  146.4820 C   0  0  0  0  0  3  0  0  0  0  0  0
  192.2270  174.0880  142.6700 C   0  0  2  0  0  3  0  0  0  0  0  0
  192.8150  174.0270  141.2480 C   0  0  1  0  0  3  0  0  0  0  0  0
  191.4960  174.7230  141.5060 C   0  0  0  0  0  2  0  0  0  0  0  0
  195.0560  174.6850  140.6350 N   0  0  0  0  0  0  0  0  0  0  0  0
  193.8580  175.0540  140.9520 C   0  0  0  0  0  3  0  0  0  0  0  0
  196.8370  175.5090  139.3550 O   0  0  0  0  0  0  0  0  0  0  0  0
  196.0970  175.6280  140.3710 C   0  0  0  0  0  0  0  0  0  0  0  0
  196.3230  176.7550  141.3170 C   0  0  0  0  0  2  0  0  0  0  0  0
  197.1510  176.2770  142.4990 C   0  0  0  0  0  1  0  0  0  0  0  0
  188.6020  172.7870  142.0640 C   0  0  0  0  0  3  0  0  0  0  0  0
  188.2550  173.8730  142.4540 C   0  0  0  0  0  0  0  0  0  0  0  0
  1 15  1  0  0  0  0
  2  6  1  0  0  0  0
  3 12  2  0  0  0  0
  4  1  2  0  0  0  0
  4 14  1  0  0  0  0
  5  7  1  1  0  0  0
  5  8  1  0  0  0  0
  6 16  2  0  0  0  0
  7 13  1  0  0  0  0
  8 15  1  6  0  0  0
  8 17  1  0  0  0  0
  9  3  1  0  0  0  0
 10  4  1  0  0  0  0
 11 21  2  0  0  0  0
 11  3  1  0  0  0  0
 14 20  2  0  0  0  0
 15 11  1  0  0  0  0
 16 19  1  0  0  0  0
 16 14  1  0  0  0  0
 17 13  1  1  0  0  0
 17  9  1  0  0  0  0
 18  6  1  0  0  0  0
 18 10  2  0  0  0  0
 20 21  1  0  0  0  0
 22 24  1  6  0  0  0
 22  5  1  0  0  0  0
 23 26  1  1  0  0  0
 23 24  1  0  0  0  0
 23 22  1  0  0  0  0
 25 26  2  0  0  0  0
 27 28  2  0  0  0  0
 28 25  1  0  0  0  0
 28 29  1  0  0  0  0
 29 30  1  0  0  0  0
 31 32  3  0  0  0  0
 32 10  1  0  0  0  0
M  END
>  <MODEL>
3

>  <REMARK>
 VINA RESULT:      -6.7      2.967      8.136
  Name = 
  5 active torsions:
  status: ('A' for Active; 'I' for Inactive)
    1  A    between atoms: C_4  and  C_6
    2  A    between atoms: C_9  and  C_30
    3  A    between atoms: C_10  and  C_26
    4  A    between atoms: N_11  and  C_30
    5  A    between atoms: C_14  and  C_29
                            x       y       z     vdW  Elec       q    Type
                         _______ _______ _______ _____ _____    ______ ____

>  <TORSDO>
F 5

$$$$
=
 OpenBabel11042419353D

 32 36  0  0  1  0  0  0  0  0999 V2000
  188.4270  176.3760  143.7070 N   0  0  0  0  0  0  0  0  0  0  0  0
  186.0940  178.0880  148.3920 N   0  0  0  0  0  1  0  0  0  0  0  0
  187.0870  176.6910  140.2040 C   0  0  0  0  0  0  0  0  0  0  0  0
  187.8180  176.9500  144.7100 C   0  0  0  0  0  0  0  0  0  0  0  0
  189.3350  173.8200  142.2610 C   0  0  2  0  0  3  0  0  0  0  0  0
  186.6530  177.7300  147.1320 C   0  0  0  0  0  0  0  0  0  0  0  0
  189.7490  173.0190  141.1630 O   0  0  0  0  0  0  0  0  0  0  0  0
  188.8550  175.1230  141.6700 C   0  0  2  0  0  3  0  0  0  0  0  0
  187.8170  175.6470  139.6210 O   0  0  0  0  0  0  0  0  0  0  0  0
  188.5850  177.1660  145.8760 C   0  0  0  0  0  0  0  0  0  0  0  0
  187.0030  176.7480  141.6940 C   0  0  0  0  0  0  0  0  0  0  0  0
  186.5070  177.5410  139.4770 O   0  0  0  0  0  0  0  0  0  0  0  0
  189.1890  173.6040  140.0000 C   0  0  0  0  0  2  0  0  0  0  0  0
  186.4310  177.2750  144.7480 C   0  0  0  0  0  0  0  0  0  0  0  0
  187.9290  175.9460  142.4650 N   0  0  0  0  0  0  0  0  0  0  0  0
  185.8430  177.5930  145.9990 C   0  0  0  0  0  0  0  0  0  0  0  0
  188.1640  174.5790  140.4830 C   0  0  1  0  0  3  0  0  0  0  0  0
  187.9900  177.5400  147.0340 N   0  0  0  0  0  0  0  0  0  0  0  0
  184.3650  177.8390  146.1370 C   0  0  0  0  0  1  0  0  0  0  0  0
  185.6550  177.4480  143.6680 C   0  0  0  0  0  3  0  0  0  0  0  0
  185.9690  177.3600  142.2460 C   0  0  0  0  0  3  0  0  0  0  0  0
  190.5030  174.0410  143.2260 C   0  0  2  0  0  3  0  0  0  0  0  0
  191.3120  172.7830  143.5910 C   0  0  1  0  0  3  0  0  0  0  0  0
  190.2250  173.2920  144.5130 C   0  0  0  0  0  2  0  0  0  0  0  0
  191.7110  170.6840  142.4640 N   0  0  0  0  0  0  0  0  0  0  0  0
  190.8480  171.5220  142.9400 C   0  0  0  0  0  3  0  0  0  0  0  0
  191.4140  168.3620  142.3880 O   0  0  0  0  0  0  0  0  0  0  0  0
  191.3170  169.4790  141.8070 C   0  0  0  0  0  0  0  0  0  0  0  0
  190.8030  169.5390  140.4110 C   0  0  0  0  0  2  0  0  0  0  0  0
  191.7120  170.4160  139.5650 C   0  0  0  0  0  1  0  0  0  0  0  0
  191.2080  176.7970  145.8920 C   0  0  0  0  0  3  0  0  0  0  0  0
  190.0150  176.9680  145.8850 C   0  0  0  0  0  0  0  0  0  0  0  0
  1  4  2  0  0  0  0
  3 11  1  0  0  0  0
  4 14  1  0  0  0  0
  4 10  1  0  0  0  0
  5  7  1  6  0  0  0
  5 22  1  0  0  0  0
  6  2  1  0  0  0  0
  8  5  1  0  0  0  0
  8 15  1  1  0  0  0
  9  3  1  0  0  0  0
  9 17  1  0  0  0  0
 10 32  1  0  0  0  0
 10 18  2  0  0  0  0
 11 21  2  0  0  0  0
 11 15  1  0  0  0  0
 12  3  2  0  0  0  0
 13  7  1  0  0  0  0
 14 16  1  0  0  0  0
 15  1  1  0  0  0  0
 16 19  1  0  0  0  0
 16  6  2  0  0  0  0
 17 13  1  6  0  0  0
 17  8  1  0  0  0  0
 18  6  1  0  0  0  0
 20 14  2  0  0  0  0
 21 20  1  0  0  0  0
 22 23  1  0  0  0  0
 22 24  1  1  0  0  0
 23 26  1  6  0  0  0
 23 24  1  0  0  0  0
 25 26  2  0  0  0  0
 28 27  2  0  0  0  0
 28 25  1  0  0  0  0
 29 28  1  0  0  0  0
 30 29  1  0  0  0  0
 32 31  3  0  0  0  0
M  END
>  <MODEL>
4

>  <REMARK>
 VINA RESULT:      -6.6      3.458      7.591
  Name = 
  5 active torsions:
  status: ('A' for Active; 'I' for Inactive)
    1  A    between atoms: C_4  and  C_6
    2  A    between atoms: C_9  and  C_30
    3  A    between atoms: C_10  and  C_26
    4  A    between atoms: N_11  and  C_30
    5  A    between atoms: C_14  and  C_29
                            x       y       z     vdW  Elec       q    Type
                         _______ _______ _______ _____ _____    ______ ____

>  <TORSDO>
F 5

$$$$
=
 OpenBabel11042419353D

 32 36  0  0  1  0  0  0  0  0999 V2000
  189.3130  174.4280  143.6320 N   0  0  0  0  0  0  0  0  0  0  0  0
  187.9390  174.5540  138.3010 N   0  0  0  0  0  1  0  0  0  0  0  0
  187.8110  176.4110  146.4570 C   0  0  0  0  0  0  0  0  0  0  0  0
  188.7910  174.4680  142.4350 C   0  0  0  0  0  0  0  0  0  0  0  0
  191.6530  175.0270  145.5320 C   0  0  2  0  0  3  0  0  0  0  0  0
  188.1910  174.5400  139.7030 C   0  0  0  0  0  0  0  0  0  0  0  0
  192.2940  175.2720  146.7760 O   0  0  0  0  0  0  0  0  0  0  0  0
  190.1700  175.0890  145.8060 C   0  0  2  0  0  3  0  0  0  0  0  0
  188.8940  176.3380  147.3430 O   0  0  0  0  0  0  0  0  0  0  0  0
  189.1090  173.3990  141.5690 C   0  0  0  0  0  0  0  0  0  0  0  0
  188.0480  176.0660  145.0230 C   0  0  0  0  0  0  0  0  0  0  0  0
  186.6790  176.7760  146.8700 O   0  0  0  0  0  0  0  0  0  0  0  0
  191.3170  175.8420  147.6300 C   0  0  0  0  0  2  0  0  0  0  0  0
  188.0210  175.5480  141.9140 C   0  0  0  0  0  0  0  0  0  0  0  0
  189.2670  175.3660  144.6780 N   0  0  0  0  0  0  0  0  0  0  0  0
  187.7930  175.6060  140.5160 C   0  0  0  0  0  0  0  0  0  0  0  0
  190.1740  176.2280  146.7480 C   0  0  1  0  0  3  0  0  0  0  0  0
  188.8080  173.4670  140.2510 N   0  0  0  0  0  0  0  0  0  0  0  0
  187.0840  176.7710  139.8790 C   0  0  0  0  0  1  0  0  0  0  0  0
  187.3620  176.4490  142.6600 C   0  0  0  0  0  3  0  0  0  0  0  0
  187.2480  176.5860  144.1080 C   0  0  0  0  0  3  0  0  0  0  0  0
  192.0630  173.6570  144.9860 C   0  0  2  0  0  3  0  0  0  0  0  0
  193.5540  173.5000  144.6310 C   0  0  1  0  0  3  0  0  0  0  0  0
  192.5370  173.8190  143.5560 C   0  0  0  0  0  2  0  0  0  0  0  0
  194.8400  175.4030  143.8870 N   0  0  0  0  0  0  0  0  0  0  0  0
  194.3930  174.7090  144.8820 C   0  0  0  0  0  3  0  0  0  0  0  0
  195.4370  177.3780  144.9970 O   0  0  0  0  0  0  0  0  0  0  0  0
  195.6710  176.5510  144.0720 C   0  0  0  0  0  0  0  0  0  0  0  0
  196.8180  176.7830  143.1510 C   0  0  0  0  0  2  0  0  0  0  0  0
  197.6400  175.5110  143.0230 C   0  0  0  0  0  1  0  0  0  0  0  0
  190.3600  171.2350  142.4450 C   0  0  0  0  0  3  0  0  0  0  0  0
  189.7890  172.2190  142.0480 C   0  0  0  0  0  0  0  0  0  0  0  0
  1 15  1  0  0  0  0
  2  6  1  0  0  0  0
  3 12  2  0  0  0  0
  3  9  1  0  0  0  0
  4  1  2  0  0  0  0
  5  8  1  0  0  0  0
  5  7  1  1  0  0  0
  6 18  1  0  0  0  0
  6 16  2  0  0  0  0
  7 13  1  0  0  0  0
  8 15  1  6  0  0  0
  8 17  1  0  0  0  0
 10 32  1  0  0  0  0
 10  4  1  0  0  0  0
 11  3  1  0  0  0  0
 14  4  1  0  0  0  0
 14 20  2  0  0  0  0
 15 11  1  0  0  0  0
 16 14  1  0  0  0  0
 17  9  1  0  0  0  0
 17 13  1  1  0  0  0
 18 10  2  0  0  0  0
 19 16  1  0  0  0  0
 20 21  1  0  0  0  0
 21 11  2  0  0  0  0
 22 24  1  6  0  0  0
 22  5  1  0  0  0  0
 23 26  1  1  0  0  0
 23 22  1  0  0  0  0
 24 23  1  0  0  0  0
 25 28  1  0  0  0  0
 25 26  2  0  0  0  0
 28 27  2  0  0  0  0
 29 28  1  0  0  0  0
 30 29  1  0  0  0  0
 32 31  3  0  0  0  0
M  END
>  <MODEL>
5

>  <REMARK>
 VINA RESULT:      -6.6      3.057      7.535
  Name = 
  5 active torsions:
  status: ('A' for Active; 'I' for Inactive)
    1  A    between atoms: C_4  and  C_6
    2  A    between atoms: C_9  and  C_30
    3  A    between atoms: C_10  and  C_26
    4  A    between atoms: N_11  and  C_30
    5  A    between atoms: C_14  and  C_29
                            x       y       z     vdW  Elec       q    Type
                         _______ _______ _______ _____ _____    ______ ____

>  <TORSDO>
F 5

$$$$
=
 OpenBabel11042419353D

 32 36  0  0  1  0  0  0  0  0999 V2000
  190.2770  175.2700  143.2410 N   0  0  0  0  0  0  0  0  0  0  0  0
  187.5720  177.9790  147.2000 N   0  0  0  0  0  1  0  0  0  0  0  0
  188.9410  174.0570  139.9390 C   0  0  0  0  0  0  0  0  0  0  0  0
  189.5460  176.0170  144.0250 C   0  0  0  0  0  0  0  0  0  0  0  0
  191.7400  172.6220  142.7020 C   0  0  2  0  0  3  0  0  0  0  0  0
  188.2100  177.3290  146.1050 C   0  0  0  0  0  0  0  0  0  0  0  0
  192.3330  171.5940  141.9200 O   0  0  0  0  0  0  0  0  0  0  0  0
  190.9930  173.5060  141.7330 C   0  0  2  0  0  3  0  0  0  0  0  0
  189.8880  173.0520  139.7020 O   0  0  0  0  0  0  0  0  0  0  0  0
  190.2330  176.7810  144.9940 C   0  0  0  0  0  0  0  0  0  0  0  0
  188.8290  174.6110  141.3220 C   0  0  0  0  0  0  0  0  0  0  0  0
  188.1970  174.4580  139.0050 O   0  0  0  0  0  0  0  0  0  0  0  0
  191.6710  171.6050  140.6660 C   0  0  0  0  0  2  0  0  0  0  0  0
  188.1210  176.0360  144.0420 C   0  0  0  0  0  0  0  0  0  0  0  0
  189.9000  174.3400  142.2580 N   0  0  0  0  0  0  0  0  0  0  0  0
  187.4630  176.6400  145.1430 C   0  0  0  0  0  0  0  0  0  0  0  0
  190.4510  172.4500  140.8520 C   0  0  1  0  0  3  0  0  0  0  0  0
  189.5570  177.4010  145.9890 N   0  0  0  0  0  0  0  0  0  0  0  0
  185.9660  176.6030  145.2860 C   0  0  0  0  0  1  0  0  0  0  0  0
  187.3380  175.6550  143.0200 C   0  0  0  0  0  3  0  0  0  0  0  0
  187.6800  175.1450  141.6970 C   0  0  0  0  0  3  0  0  0  0  0  0
  192.8200  173.4040  143.4530 C   0  0  2  0  0  3  0  0  0  0  0  0
  193.6190  172.6020  144.4970 C   0  0  1  0  0  3  0  0  0  0  0  0
  192.4500  173.4660  144.9210 C   0  0  0  0  0  2  0  0  0  0  0  0
  194.1260  170.2800  144.9220 N   0  0  0  0  0  0  0  0  0  0  0  0
  193.2330  171.1660  144.6200 C   0  0  0  0  0  3  0  0  0  0  0  0
  193.2890  168.2700  144.0560 O   0  0  0  0  0  0  0  0  0  0  0  0
  193.8140  168.8890  145.0230 C   0  0  0  0  0  0  0  0  0  0  0  0
  194.0940  168.1660  146.2950 C   0  0  0  0  0  2  0  0  0  0  0  0
  194.9780  169.0200  147.1890 C   0  0  0  0  0  1  0  0  0  0  0  0
  192.8720  177.0030  144.9640 C   0  0  0  0  0  3  0  0  0  0  0  0
  191.6720  176.9030  144.9750 C   0  0  0  0  0  0  0  0  0  0  0  0
  1  4  2  0  0  0  0
  3 11  1  0  0  0  0
  4 14  1  0  0  0  0
  4 10  1  0  0  0  0
  5  7  1  6  0  0  0
  5 22  1  0  0  0  0
  6  2  1  0  0  0  0
  8 15  1  1  0  0  0
  8  5  1  0  0  0  0
  9  3  1  0  0  0  0
  9 17  1  0  0  0  0
 10 18  2  0  0  0  0
 11 21  2  0  0  0  0
 11 15  1  0  0  0  0
 12  3  2  0  0  0  0
 13  7  1  0  0  0  0
 14 16  1  0  0  0  0
 15  1  1  0  0  0  0
 16 19  1  0  0  0  0
 16  6  2  0  0  0  0
 17 13  1  6  0  0  0
 17  8  1  0  0  0  0
 18  6  1  0  0  0  0
 20 14  2  0  0  0  0
 21 20  1  0  0  0  0
 22 23  1  0  0  0  0
 22 24  1  1  0  0  0
 23 26  1  6  0  0  0
 23 24  1  0  0  0  0
 25 28  1  0  0  0  0
 26 25  2  0  0  0  0
 27 28  2  0  0  0  0
 28 29  1  0  0  0  0
 29 30  1  0  0  0  0
 31 32  3  0  0  0  0
 32 10  1  0  0  0  0
M  END
>  <MODEL>
6

>  <REMARK>
 VINA RESULT:      -6.4      3.116      7.377
  Name = 
  5 active torsions:
  status: ('A' for Active; 'I' for Inactive)
    1  A    between atoms: C_4  and  C_6
    2  A    between atoms: C_9  and  C_30
    3  A    between atoms: C_10  and  C_26
    4  A    between atoms: N_11  and  C_30
    5  A    between atoms: C_14  and  C_29
                            x       y       z     vdW  Elec       q    Type
                         _______ _______ _______ _____ _____    ______ ____

>  <TORSDO>
F 5

$$$$
=
 OpenBabel11042419353D

 32 36  0  0  1  0  0  0  0  0999 V2000
  191.2690  174.9210  144.2880 N   0  0  0  0  0  0  0  0  0  0  0  0
  195.5900  178.0340  145.6880 N   0  0  0  0  0  1  0  0  0  0  0  0
  191.2350  171.8560  142.1030 C   0  0  0  0  0  0  0  0  0  0  0  0
  192.3970  175.4800  144.6380 C   0  0  0  0  0  0  0  0  0  0  0  0
  188.6030  175.0450  142.7640 C   0  0  2  0  0  3  0  0  0  0  0  0
  194.5380  177.1440  145.3260 C   0  0  0  0  0  0  0  0  0  0  0  0
  187.4520  174.5360  142.1050 O   0  0  0  0  0  0  0  0  0  0  0  0
  189.5200  173.8640  142.9750 C   0  0  2  0  0  3  0  0  0  0  0  0
  189.8860  171.8990  141.7280 O   0  0  0  0  0  0  0  0  0  0  0  0
  192.3620  176.3150  145.7770 C   0  0  0  0  0  0  0  0  0  0  0  0
  191.8410  173.0830  142.7030 C   0  0  0  0  0  0  0  0  0  0  0  0
  191.9110  170.8100  141.9170 O   0  0  0  0  0  0  0  0  0  0  0  0
  187.8070  173.2640  141.5900 C   0  0  0  0  0  2  0  0  0  0  0  0
  193.6160  175.3930  143.9060 C   0  0  0  0  0  0  0  0  0  0  0  0
  190.9550  174.1270  143.1720 N   0  0  0  0  0  0  0  0  0  0  0  0
  194.6620  176.2970  144.2190 C   0  0  0  0  0  0  0  0  0  0  0  0
  189.2980  173.1860  141.6810 C   0  0  1  0  0  3  0  0  0  0  0  0
  193.4150  177.1110  146.0800 N   0  0  0  0  0  0  0  0  0  0  0  0
  195.9360  176.3390  143.4190 C   0  0  0  0  0  1  0  0  0  0  0  0
  193.9150  174.4210  143.0300 C   0  0  0  0  0  3  0  0  0  0  0  0
  193.1470  173.2590  142.5970 C   0  0  0  0  0  3  0  0  0  0  0  0
  188.2090  175.6910  144.0940 C   0  0  2  0  0  3  0  0  0  0  0  0
  187.3590  176.9710  143.9880 C   0  0  1  0  0  3  0  0  0  0  0  0
  188.8570  177.0570  144.1880 C   0  0  0  0  0  2  0  0  0  0  0  0
  185.7930  177.4970  142.2260 N   0  0  0  0  0  0  0  0  0  0  0  0
  187.0290  177.3950  142.5950 C   0  0  0  0  0  3  0  0  0  0  0  0
  186.2640  177.8260  139.9550 O   0  0  0  0  0  0  0  0  0  0  0  0
  185.4250  177.8710  140.8980 C   0  0  0  0  0  0  0  0  0  0  0  0
  184.0370  178.3370  140.6250 C   0  0  0  0  0  2  0  0  0  0  0  0
  183.2340  178.3450  141.9160 C   0  0  0  0  0  1  0  0  0  0  0  0
  190.2320  176.4160  147.3470 C   0  0  0  0  0  3  0  0  0  0  0  0
  191.2020  176.3710  146.6350 C   0  0  0  0  0  0  0  0  0  0  0  0
  1  4  2  0  0  0  0
  3 11  1  0  0  0  0
  4 10  1  0  0  0  0
  5  7  1  1  0  0  0
  5  8  1  0  0  0  0
  5 22  1  0  0  0  0
  6  2  1  0  0  0  0
  6 18  1  0  0  0  0
  8 15  1  6  0  0  0
  9  3  1  0  0  0  0
 10 18  2  0  0  0  0
 10 32  1  0  0  0  0
 11 15  1  0  0  0  0
 12  3  2  0  0  0  0
 13  7  1  0  0  0  0
 14 16  1  0  0  0  0
 14  4  1  0  0  0  0
 15  1  1  0  0  0  0
 16  6  2  0  0  0  0
 17 13  1  1  0  0  0
 17  9  1  0  0  0  0
 17  8  1  0  0  0  0
 19 16  1  0  0  0  0
 20 14  2  0  0  0  0
 21 11  2  0  0  0  0
 21 20  1  0  0  0  0
 22 24  1  6  0  0  0
 23 26  1  6  0  0  0
 23 22  1  0  0  0  0
 23 24  1  0  0  0  0
 25 26  2  0  0  0  0
 27 28  2  0  0  0  0
 28 25  1  0  0  0  0
 29 28  1  0  0  0  0
 29 30  1  0  0  0  0
 32 31  3  0  0  0  0
M  END
>  <MODEL>
7

>  <REMARK>
 VINA RESULT:      -6.4      2.035      2.374
  Name = 
  5 active torsions:
  status: ('A' for Active; 'I' for Inactive)
    1  A    between atoms: C_4  and  C_6
    2  A    between atoms: C_9  and  C_30
    3  A    between atoms: C_10  and  C_26
    4  A    between atoms: N_11  and  C_30
    5  A    between atoms: C_14  and  C_29
                            x       y       z     vdW  Elec       q    Type
                         _______ _______ _______ _____ _____    ______ ____

>  <TORSDO>
F 5

$$$$
=
 OpenBabel11042419353D

 32 36  0  0  1  0  0  0  0  0999 V2000
  189.7790  175.9020  143.9770 N   0  0  0  0  0  0  0  0  0  0  0  0
  184.7040  177.5930  142.6720 N   0  0  0  0  0  1  0  0  0  0  0  0
  191.6330  176.4250  147.2100 C   0  0  0  0  0  0  0  0  0  0  0  0
  188.5250  176.2490  143.8620 C   0  0  0  0  0  0  0  0  0  0  0  0
  192.7220  176.2660  143.1700 C   0  0  2  0  0  3  0  0  0  0  0  0
  185.9820  177.1440  143.1100 C   0  0  0  0  0  0  0  0  0  0  0  0
  194.1340  176.1880  143.3130 O   0  0  0  0  0  0  0  0  0  0  0  0
  192.1460  175.9240  144.5230 C   0  0  2  0  0  3  0  0  0  0  0  0
  192.9350  176.2720  146.7160 O   0  0  0  0  0  0  0  0  0  0  0  0
  187.7920  175.6370  142.8210 C   0  0  0  0  0  0  0  0  0  0  0  0
  190.5290  176.6580  146.2320 C   0  0  0  0  0  0  0  0  0  0  0  0
  191.4190  176.3850  148.4510 O   0  0  0  0  0  0  0  0  0  0  0  0
  194.4030  176.2110  144.7040 C   0  0  0  0  0  2  0  0  0  0  0  0
  187.8820  177.2610  144.6310 C   0  0  0  0  0  0  0  0  0  0  0  0
  190.7830  176.3860  144.8330 N   0  0  0  0  0  0  0  0  0  0  0  0
  186.6280  177.7550  144.1900 C   0  0  0  0  0  0  0  0  0  0  0  0
  193.1300  176.6390  145.3630 C   0  0  1  0  0  3  0  0  0  0  0  0
  186.5640  176.0970  142.4800 N   0  0  0  0  0  0  0  0  0  0  0  0
  185.9400  178.8980  144.8870 C   0  0  0  0  0  1  0  0  0  0  0  0
  188.2990  177.6910  145.8320 C   0  0  0  0  0  3  0  0  0  0  0  0
  189.4420  177.2890  146.6440 C   0  0  0  0  0  3  0  0  0  0  0  0
  192.2440  175.2860  142.0960 C   0  0  2  0  0  3  0  0  0  0  0  0
  192.5380  173.8000  142.3700 C   0  0  1  0  0  3  0  0  0  0  0  0
  193.4490  174.6120  141.4740 C   0  0  0  0  0  2  0  0  0  0  0  0
  194.2430  172.7030  143.6830 N   0  0  0  0  0  0  0  0  0  0  0  0
  193.2430  173.5230  143.6570 C   0  0  0  0  0  3  0  0  0  0  0  0
  194.3060  171.9420  145.8970 O   0  0  0  0  0  0  0  0  0  0  0  0
  194.9310  172.3820  144.8930 C   0  0  0  0  0  0  0  0  0  0  0  0
  196.4040  172.5870  144.9750 C   0  0  0  0  0  2  0  0  0  0  0  0
  196.7220  173.5990  146.0640 C   0  0  0  0  0  1  0  0  0  0  0  0
  188.7820  173.6070  141.4380 C   0  0  0  0  0  3  0  0  0  0  0  0
  188.3320  174.5300  142.0690 C   0  0  0  0  0  0  0  0  0  0  0  0
  1 15  1  0  0  0  0
  2  6  1  0  0  0  0
  3 12  2  0  0  0  0
  4  1  2  0  0  0  0
  4 14  1  0  0  0  0
  5  7  1  1  0  0  0
  5  8  1  0  0  0  0
  6 16  2  0  0  0  0
  7 13  1  0  0  0  0
  8 15  1  6  0  0  0
  8 17  1  0  0  0  0
  9  3  1  0  0  0  0
 10  4  1  0  0  0  0
 11 21  2  0  0  0  0
 11  3  1  0  0  0  0
 14 20  2  0  0  0  0
 15 11  1  0  0  0  0
 16 14  1  0  0  0  0
 16 19  1  0  0  0  0
 17 13  1  6  0  0  0
 17  9  1  0  0  0  0
 18 10  2  0  0  0  0
 18  6  1  0  0  0  0
 20 21  1  0  0  0  0
 22 24  1  6  0  0  0
 22 23  1  0  0  0  0
 22  5  1  0  0  0  0
 23 26  1  1  0  0  0
 24 23  1  0  0  0  0
 25 28  1  0  0  0  0
 26 25  2  0  0  0  0
 28 29  1  0  0  0  0
 28 27  2  0  0  0  0
 29 30  1  0  0  0  0
 31 32  3  0  0  0  0
 32 10  1  0  0  0  0
M  END
>  <MODEL>
8

>  <REMARK>
 VINA RESULT:      -6.4      3.101      8.183
  Name = 
  5 active torsions:
  status: ('A' for Active; 'I' for Inactive)
    1  A    between atoms: C_4  and  C_6
    2  A    between atoms: C_9  and  C_30
    3  A    between atoms: C_10  and  C_26
    4  A    between atoms: N_11  and  C_30
    5  A    between atoms: C_14  and  C_29
                            x       y       z     vdW  Elec       q    Type
                         _______ _______ _______ _____ _____    ______ ____

>  <TORSDO>
F 5

$$$$
=
 OpenBabel11042419353D

 32 36  0  0  1  0  0  0  0  0999 V2000
  189.6150  174.9530  143.1010 N   0  0  0  0  0  0  0  0  0  0  0  0
  186.0780  177.9160  140.0950 N   0  0  0  0  0  1  0  0  0  0  0  0
  190.1410  175.0580  146.8260 C   0  0  0  0  0  0  0  0  0  0  0  0
  188.6420  175.6240  142.5430 C   0  0  0  0  0  0  0  0  0  0  0  0
  192.6240  174.4780  143.5050 C   0  0  2  0  0  3  0  0  0  0  0  0
  186.9210  177.1510  140.9510 C   0  0  0  0  0  0  0  0  0  0  0  0
  193.7960  174.0240  144.1680 O   0  0  0  0  0  0  0  0  0  0  0  0
  191.5020  174.3500  144.5060 C   0  0  2  0  0  3  0  0  0  0  0  0
  191.4420  174.5410  146.8540 O   0  0  0  0  0  0  0  0  0  0  0  0
  188.2370  175.2010  141.2580 C   0  0  0  0  0  0  0  0  0  0  0  0
  189.6040  175.5500  145.5210 C   0  0  0  0  0  0  0  0  0  0  0  0
  189.4600  175.1180  147.8850 O   0  0  0  0  0  0  0  0  0  0  0  0
  193.5020  174.0190  145.5550 C   0  0  0  0  0  2  0  0  0  0  0  0
  188.0420  176.7970  143.0850 C   0  0  0  0  0  0  0  0  0  0  0  0
  190.2990  175.1740  144.3080 N   0  0  0  0  0  0  0  0  0  0  0  0
  187.2340  177.5990  142.2390 C   0  0  0  0  0  0  0  0  0  0  0  0
  192.2340  174.7970  145.7090 C   0  0  1  0  0  3  0  0  0  0  0  0
  187.4040  175.9660  140.5120 N   0  0  0  0  0  0  0  0  0  0  0  0
  186.6560  178.9070  142.7070 C   0  0  0  0  0  1  0  0  0  0  0  0
  188.0590  177.1360  144.3830 C   0  0  0  0  0  3  0  0  0  0  0  0
  188.6500  176.4650  145.5360 C   0  0  0  0  0  3  0  0  0  0  0  0
  192.3600  173.6310  142.2580 C   0  0  2  0  0  3  0  0  0  0  0  0
  193.4920  173.6100  141.2150 C   0  0  1  0  0  3  0  0  0  0  0  0
  192.3090  174.5400  141.0480 C   0  0  0  0  0  2  0  0  0  0  0  0
  195.1990  175.2440  140.7180 N   0  0  0  0  0  0  0  0  0  0  0  0
  194.6970  174.4150  141.5740 C   0  0  0  0  0  3  0  0  0  0  0  0
  197.3430  176.0350  140.2010 O   0  0  0  0  0  0  0  0  0  0  0  0
  196.3680  176.0150  141.0030 C   0  0  0  0  0  0  0  0  0  0  0  0
  196.4440  176.7910  142.2720 C   0  0  0  0  0  2  0  0  0  0  0  0
  197.5710  176.2510  143.1380 C   0  0  0  0  0  1  0  0  0  0  0  0
  189.1140  172.9350  140.2060 C   0  0  0  0  0  3  0  0  0  0  0  0
  188.7140  173.9640  140.6870 C   0  0  0  0  0  0  0  0  0  0  0  0
  1 15  1  0  0  0  0
  2  6  1  0  0  0  0
  3  9  1  0  0  0  0
  3 12  2  0  0  0  0
  4 14  1  0  0  0  0
  4  1  2  0  0  0  0
  5  7  1  1  0  0  0
  5  8  1  0  0  0  0
  6 16  2  0  0  0  0
  7 13  1  0  0  0  0
  8 15  1  6  0  0  0
  8 17  1  0  0  0  0
 10  4  1  0  0  0  0
 11 21  2  0  0  0  0
 11  3  1  0  0  0  0
 14 20  2  0  0  0  0
 15 11  1  0  0  0  0
 16 19  1  0  0  0  0
 16 14  1  0  0  0  0
 17 13  1  1  0  0  0
 17  9  1  0  0  0  0
 18  6  1  0  0  0  0
 18 10  2  0  0  0  0
 20 21  1  0  0  0  0
 22 24  1  6  0  0  0
 22  5  1  0  0  0  0
 23 26  1  1  0  0  0
 23 22  1  0  0  0  0
 24 23  1  0  0  0  0
 25 28  1  0  0  0  0
 25 26  2  0  0  0  0
 27 28  2  0  0  0  0
 28 29  1  0  0  0  0
 29 30  1  0  0  0  0
 31 32  3  0  0  0  0
 32 10  1  0  0  0  0
M  END
>  <MODEL>
9

>  <REMARK>
 VINA RESULT:      -6.2      2.890      7.958
  Name = 
  5 active torsions:
  status: ('A' for Active; 'I' for Inactive)
    1  A    between atoms: C_4  and  C_6
    2  A    between atoms: C_9  and  C_30
    3  A    between atoms: C_10  and  C_26
    4  A    between atoms: N_11  and  C_30
    5  A    between atoms: C_14  and  C_29
                            x       y       z     vdW  Elec       q    Type
                         _______ _______ _______ _____ _____    ______ ____

>  <TORSDO>
F 5

$$$$
