=
 OpenBabel11042418203D

 37 39  0  0  1  0  0  0  0  0999 V2000
  189.6260  175.1710  145.6140 C   0  0  2  0  0  3  0  0  0  0  0  0
  190.9890  175.7930  145.5980 C   0  0  0  0  0  0  0  0  0  0  0  0
  194.8360  177.4740  145.6640 N   0  0  0  0  0  1  0  0  0  0  0  0
  193.5330  176.9020  145.6300 C   0  0  0  0  0  0  0  0  0  0  0  0
  193.0400  176.2680  146.7290 N   0  0  0  0  0  0  0  0  0  0  0  0
  191.4820  176.4370  144.4560 C   0  0  0  0  0  3  0  0  0  0  0  0
  192.7600  176.9970  144.4700 C   0  0  0  0  0  3  0  0  0  0  0  0
  191.7970  175.7150  146.7350 C   0  0  0  0  0  3  0  0  0  0  0  0
  188.7120  175.9050  146.6140 C   0  0  1  0  0  3  0  0  0  0  0  0
  188.7410  177.4110  146.4250 C   0  0  0  0  0  2  0  0  0  0  0  0
  187.5400  176.6120  145.9510 C   0  0  2  0  0  3  0  0  0  0  0  0
  186.4180  176.7490  146.9570 C   0  0  0  0  0  2  0  0  0  0  0  0
  185.1400  177.1560  146.2460 C   0  0  0  0  0  2  0  0  0  0  0  0
  184.9470  178.6590  146.3340 C   0  0  1  0  0  3  0  0  0  0  0  0
  185.6280  179.1460  147.4490 O   0  0  0  0  0  1  0  0  0  0  0  0
  185.4870  179.3260  145.0770 C   0  0  0  0  0  2  0  0  0  0  0  0
  184.9040  178.6770  143.8230 C   0  0  1  0  0  3  0  0  0  0  0  0
  183.5440  178.9780  143.6940 O   0  0  0  0  0  1  0  0  0  0  0  0
  185.6240  178.9970  142.6480 O   0  0  0  0  0  0  0  0  0  0  0  0
  184.5970  178.0480  140.8410 O   0  0  0  0  0  1  0  0  0  0  0  0
  185.6110  177.8860  141.7860 C   0  0  1  0  0  3  0  0  0  0  0  0
  186.9560  177.7700  141.0870 C   0  0  0  0  0  2  0  0  0  0  0  0
  188.6310  177.4940  142.7680 O   0  0  0  0  0  1  0  0  0  0  0  0
  187.0280  175.7610  142.5310 C   0  0  0  0  0  1  0  0  0  0  0  0
  187.8680  176.8040  141.8260 C   0  0  1  0  0  3  0  0  0  0  0  0
  189.7010  173.6410  145.7470 C   0  0  0  0  0  2  0  0  0  0  0  0
  189.8430  172.9770  144.3860 C   0  0  0  0  0  2  0  0  0  0  0  0
  190.9090  172.0770  144.4040 O   0  0  0  0  0  0  0  0  0  0  0  0
  191.9450  172.7440  143.7470 C   0  0  0  0  0  2  0  0  0  0  0  0
  193.4950  171.5150  145.0670 O   0  0  0  0  0  0  0  0  0  0  0  0
  193.1960  172.6210  144.5400 C   0  0  0  0  0  0  0  0  0  0  0  0
  194.0460  173.7180  144.6610 O   0  0  0  0  0  0  0  0  0  0  0  0
  195.7970  174.5310  143.3920 C   0  0  0  0  0  0  0  0  0  0  0  0
  195.6260  175.7610  142.5080 C   0  0  0  0  0  2  0  0  0  0  0  0
  196.9010  175.1200  142.5200 C   0  0  2  0  0  3  0  0  0  0  0  0
  195.3500  173.6550  144.2290 N   0  0  0  0  0  0  0  0  0  0  0  0
  197.0480  174.3240  141.3850 O   0  0  0  0  0  1  0  0  0  0  0  0
  1 26  1  1  0  0  0
  2  1  1  0  0  0  0
  2  8  1  0  0  0  0
  4  3  1  0  0  0  0
  4  5  1  0  0  0  0
  5  8  2  0  0  0  0
  6  7  1  0  0  0  0
  6  2  2  0  0  0  0
  7  4  2  0  0  0  0
  9  1  1  6  0  0  0
 10  9  1  0  0  0  0
 11 10  1  0  0  0  0
 11  9  1  0  0  0  0
 11 12  1  1  0  0  0
 13 14  1  0  0  0  0
 13 12  1  0  0  0  0
 14 15  1  1  0  0  0
 16 14  1  0  0  0  0
 17 18  1  6  0  0  0
 17 16  1  0  0  0  0
 19 17  1  0  0  0  0
 21 20  1  6  0  0  0
 21 19  1  0  0  0  0
 22 21  1  0  0  0  0
 22 25  1  0  0  0  0
 25 24  1  1  0  0  0
 25 23  1  0  0  0  0
 27 28  1  0  0  0  0
 27 26  1  0  0  0  0
 29 28  1  0  0  0  0
 29 31  1  0  0  0  0
 31 32  1  0  0  0  0
 31 30  2  0  0  0  0
 33 36  2  0  0  0  0
 34 35  1  0  0  0  0
 34 33  1  0  0  0  0
 35 37  1  6  0  0  0
 35 33  1  0  0  0  0
 36 32  1  0  0  0  0
M  END
>  <MODEL>
1

>  <REMARK>
 VINA RESULT:      -6.1      0.000      0.000
  Name = 
  18 active torsions:
  status: ('A' for Active; 'I' for Inactive)
    1  A    between atoms: C_1  and  C_19
    2  A    between atoms: O_4  and  N_23
    3  A    between atoms: O_4  and  C_31
    4  A    between atoms: C_5  and  C_19
    5  A    between atoms: C_10  and  O_25
    6  A    between atoms: C_10  and  C_33
    7  A    between atoms: C_12  and  C_18
    8  A    between atoms: C_12  and  C_33
    9  A    between atoms: C_17  and  C_19
   10  A    between atoms: C_17  and  C_29
   11  A    between atoms: C_18  and  C_30
   12  A    between atoms: C_20  and  C_28
   13  A    between atoms: O_25  and  C_26
   14  A    between atoms: C_26  and  C_28
   15  A    between atoms: C_29  and  O_37
   16  A    between atoms: C_30  and  C_35
   17  A    between atoms: C_31  and  C_34
   18  A    between atoms: C_34  and  O_37
                            x       y       z     vdW  Elec       q    Type
                         _______ _______ _______ _____ _____    ______ ____

>  <TORSDO>
F 18

$$$$
=
 OpenBabel11042418203D

 37 39  0  0  1  0  0  0  0  0999 V2000
  193.0110  175.8950  146.0960 C   0  0  2  0  0  3  0  0  0  0  0  0
  193.9950  174.7780  145.9280 C   0  0  0  0  0  0  0  0  0  0  0  0
  196.6570  171.5720  145.4190 N   0  0  0  0  0  1  0  0  0  0  0  0
  195.7630  172.6660  145.5860 C   0  0  0  0  0  0  0  0  0  0  0  0
  194.4180  172.4540  145.5650 N   0  0  0  0  0  0  0  0  0  0  0  0
  195.3750  175.0150  145.9470 C   0  0  0  0  0  3  0  0  0  0  0  0
  196.2660  173.9550  145.7770 C   0  0  0  0  0  3  0  0  0  0  0  0
  193.5330  173.4750  145.7290 C   0  0  0  0  0  3  0  0  0  0  0  0
  191.6040  175.3330  146.3830 C   0  0  1  0  0  3  0  0  0  0  0  0
  191.2240  175.4490  147.8470 C   0  0  0  0  0  2  0  0  0  0  0  0
  190.6110  176.3950  146.8290 C   0  0  2  0  0  3  0  0  0  0  0  0
  189.2120  175.9300  146.4910 C   0  0  0  0  0  2  0  0  0  0  0  0
  188.4680  177.0340  145.7620 C   0  0  0  0  0  2  0  0  0  0  0  0
  186.9760  176.9190  146.0180 C   0  0  1  0  0  3  0  0  0  0  0  0
  186.7630  176.5980  147.3580 O   0  0  0  0  0  1  0  0  0  0  0  0
  186.2900  178.2390  145.6950 C   0  0  0  0  0  2  0  0  0  0  0  0
  184.8410  178.0100  145.2700 C   0  0  1  0  0  3  0  0  0  0  0  0
  183.9710  178.2010  146.3500 O   0  0  0  0  0  1  0  0  0  0  0  0
  184.4630  178.7860  144.1500 O   0  0  0  0  0  0  0  0  0  0  0  0
  183.4460  178.1470  142.2060 O   0  0  0  0  0  1  0  0  0  0  0  0
  184.5930  178.0050  142.9870 C   0  0  1  0  0  3  0  0  0  0  0  0
  185.8130  178.4620  142.2030 C   0  0  0  0  0  2  0  0  0  0  0  0
  186.3290  176.1770  142.6710 O   0  0  0  0  0  1  0  0  0  0  0  0
  187.0180  177.0430  140.5720 C   0  0  0  0  0  1  0  0  0  0  0  0
  186.8100  177.3270  142.0440 C   0  0  1  0  0  3  0  0  0  0  0  0
  193.1210  176.9260  144.9610 C   0  0  0  0  0  2  0  0  0  0  0  0
  192.6670  176.3360  143.6350 C   0  0  0  0  0  2  0  0  0  0  0  0
  193.7470  176.2550  142.7550 O   0  0  0  0  0  0  0  0  0  0  0  0
  193.3260  175.3730  141.7590 C   0  0  0  0  0  2  0  0  0  0  0  0
  194.9130  173.6940  142.3240 O   0  0  0  0  0  0  0  0  0  0  0  0
  193.7000  173.9840  142.1360 C   0  0  0  0  0  0  0  0  0  0  0  0
  192.7040  173.0260  142.3140 O   0  0  0  0  0  0  0  0  0  0  0  0
  190.4200  173.3530  142.4280 C   0  0  0  0  0  0  0  0  0  0  0  0
  189.7140  173.5300  143.7680 C   0  0  0  0  0  2  0  0  0  0  0  0
  188.9170  173.5630  142.5840 C   0  0  2  0  0  3  0  0  0  0  0  0
  191.4760  173.1610  141.7100 N   0  0  0  0  0  0  0  0  0  0  0  0
  188.2730  172.3390  142.4070 O   0  0  0  0  0  1  0  0  0  0  0  0
  1 26  1  6  0  0  0
  2  6  1  0  0  0  0
  2  1  1  0  0  0  0
  3  4  1  0  0  0  0
  4  7  1  0  0  0  0
  5  4  2  0  0  0  0
  5  8  1  0  0  0  0
  7  6  2  0  0  0  0
  8  2  2  0  0  0  0
  9  1  1  1  0  0  0
  9 11  1  0  0  0  0
  9 10  1  0  0  0  0
 11 12  1  6  0  0  0
 11 10  1  0  0  0  0
 13 14  1  0  0  0  0
 13 12  1  0  0  0  0
 14 15  1  1  0  0  0
 16 14  1  0  0  0  0
 17 16  1  0  0  0  0
 17 18  1  1  0  0  0
 19 17  1  0  0  0  0
 21 20  1  6  0  0  0
 21 19  1  0  0  0  0
 22 21  1  0  0  0  0
 25 24  1  6  0  0  0
 25 22  1  0  0  0  0
 25 23  1  0  0  0  0
 27 26  1  0  0  0  0
 28 27  1  0  0  0  0
 29 31  1  0  0  0  0
 29 28  1  0  0  0  0
 31 32  1  0  0  0  0
 31 30  2  0  0  0  0
 33 35  1  0  0  0  0
 33 34  1  0  0  0  0
 35 37  1  1  0  0  0
 35 34  1  0  0  0  0
 36 32  1  0  0  0  0
 36 33  2  0  0  0  0
M  END
>  <MODEL>
2

>  <REMARK>
 VINA RESULT:      -5.8      2.060      4.075
  Name = 
  18 active torsions:
  status: ('A' for Active; 'I' for Inactive)
    1  A    between atoms: C_1  and  C_19
    2  A    between atoms: O_4  and  N_23
    3  A    between atoms: O_4  and  C_31
    4  A    between atoms: C_5  and  C_19
    5  A    between atoms: C_10  and  O_25
    6  A    between atoms: C_10  and  C_33
    7  A    between atoms: C_12  and  C_18
    8  A    between atoms: C_12  and  C_33
    9  A    between atoms: C_17  and  C_19
   10  A    between atoms: C_17  and  C_29
   11  A    between atoms: C_18  and  C_30
   12  A    between atoms: C_20  and  C_28
   13  A    between atoms: O_25  and  C_26
   14  A    between atoms: C_26  and  C_28
   15  A    between atoms: C_29  and  O_37
   16  A    between atoms: C_30  and  C_35
   17  A    between atoms: C_31  and  C_34
   18  A    between atoms: C_34  and  O_37
                            x       y       z     vdW  Elec       q    Type
                         _______ _______ _______ _____ _____    ______ ____

>  <TORSDO>
F 18

$$$$
=
 OpenBabel11042418203D

 37 39  0  0  1  0  0  0  0  0999 V2000
  189.9460  175.9450  143.0310 C   0  0  2  0  0  3  0  0  0  0  0  0
  190.0850  174.4670  142.8270 C   0  0  0  0  0  0  0  0  0  0  0  0
  190.5340  170.3500  142.1440 N   0  0  0  0  0  1  0  0  0  0  0  0
  190.3850  171.7430  142.3880 C   0  0  0  0  0  0  0  0  0  0  0  0
  190.6280  172.6370  141.3900 N   0  0  0  0  0  0  0  0  0  0  0  0
  189.8360  173.5630  143.8670 C   0  0  0  0  0  3  0  0  0  0  0  0
  189.9850  172.1930  143.6480 C   0  0  0  0  0  3  0  0  0  0  0  0
  190.4890  173.9770  141.5830 C   0  0  0  0  0  3  0  0  0  0  0  0
  188.7660  176.4940  142.2050 C   0  0  1  0  0  3  0  0  0  0  0  0
  187.4220  176.0750  142.7710 C   0  0  0  0  0  2  0  0  0  0  0  0
  187.9150  177.4980  142.9650 C   0  0  2  0  0  3  0  0  0  0  0  0
  187.2260  178.4080  141.9710 C   0  0  0  0  0  2  0  0  0  0  0  0
  185.7880  178.6400  142.4010 C   0  0  0  0  0  2  0  0  0  0  0  0
  185.7370  179.0260  143.8690 C   0  0  1  0  0  3  0  0  0  0  0  0
  185.6170  180.4110  143.9770 O   0  0  0  0  0  1  0  0  0  0  0  0
  184.5450  178.3590  144.5390 C   0  0  0  0  0  2  0  0  0  0  0  0
  184.8030  178.1540  146.0310 C   0  0  1  0  0  3  0  0  0  0  0  0
  183.6080  178.2240  146.7560 O   0  0  0  0  0  1  0  0  0  0  0  0
  185.5170  176.9660  146.3120 O   0  0  0  0  0  0  0  0  0  0  0  0
  186.6180  178.0530  147.9940 O   0  0  0  0  0  1  0  0  0  0  0  0
  186.7810  177.3030  146.8290 C   0  0  1  0  0  3  0  0  0  0  0  0
  187.5590  176.0330  147.1360 C   0  0  0  0  0  2  0  0  0  0  0  0
  189.5490  177.3460  146.9810 O   0  0  0  0  0  1  0  0  0  0  0  0
  189.8050  174.9940  147.1770 C   0  0  0  0  0  1  0  0  0  0  0  0
  188.9800  176.1280  146.6060 C   0  0  1  0  0  3  0  0  0  0  0  0
  191.2920  176.6700  142.8700 C   0  0  0  0  0  2  0  0  0  0  0  0
  191.6660  177.4230  144.1370 C   0  0  0  0  0  2  0  0  0  0  0  0
  192.1050  176.5280  145.1130 O   0  0  0  0  0  0  0  0  0  0  0  0
  193.4980  176.5970  145.0550 C   0  0  0  0  0  2  0  0  0  0  0  0
  193.3460  174.2960  145.6380 O   0  0  0  0  0  0  0  0  0  0  0  0
  194.0790  175.3170  145.5400 C   0  0  0  0  0  0  0  0  0  0  0  0
  195.4370  175.2490  145.8460 O   0  0  0  0  0  0  0  0  0  0  0  0
  196.8000  175.4280  143.9890 C   0  0  0  0  0  0  0  0  0  0  0  0
  196.8910  176.7300  143.2000 C   0  0  0  0  0  2  0  0  0  0  0  0
  197.6680  175.6200  142.7500 C   0  0  2  0  0  3  0  0  0  0  0  0
  196.3360  174.7090  144.9560 N   0  0  0  0  0  0  0  0  0  0  0  0
  197.0420  175.0070  141.6650 O   0  0  0  0  0  1  0  0  0  0  0  0
  1 26  1  6  0  0  0
  2  1  1  0  0  0  0
  2  6  1  0  0  0  0
  3  4  1  0  0  0  0
  4  7  1  0  0  0  0
  5  8  1  0  0  0  0
  5  4  2  0  0  0  0
  7  6  2  0  0  0  0
  8  2  2  0  0  0  0
  9 10  1  0  0  0  0
  9 11  1  0  0  0  0
  9  1  1  1  0  0  0
 10 11  1  0  0  0  0
 11 12  1  6  0  0  0
 12 13  1  0  0  0  0
 13 14  1  0  0  0  0
 14 15  1  6  0  0  0
 14 16  1  0  0  0  0
 16 17  1  0  0  0  0
 17 19  1  0  0  0  0
 17 18  1  1  0  0  0
 19 21  1  0  0  0  0
 21 22  1  0  0  0  0
 21 20  1  1  0  0  0
 25 23  1  0  0  0  0
 25 22  1  0  0  0  0
 25 24  1  1  0  0  0
 26 27  1  0  0  0  0
 27 28  1  0  0  0  0
 29 28  1  0  0  0  0
 29 31  1  0  0  0  0
 31 30  2  0  0  0  0
 31 32  1  0  0  0  0
 33 36  2  0  0  0  0
 34 33  1  0  0  0  0
 35 37  1  6  0  0  0
 35 34  1  0  0  0  0
 35 33  1  0  0  0  0
 36 32  1  0  0  0  0
M  END
>  <MODEL>
3

>  <REMARK>
 VINA RESULT:      -5.6      2.195      4.432
  Name = 
  18 active torsions:
  status: ('A' for Active; 'I' for Inactive)
    1  A    between atoms: C_1  and  C_19
    2  A    between atoms: O_4  and  N_23
    3  A    between atoms: O_4  and  C_31
    4  A    between atoms: C_5  and  C_19
    5  A    between atoms: C_10  and  O_25
    6  A    between atoms: C_10  and  C_33
    7  A    between atoms: C_12  and  C_18
    8  A    between atoms: C_12  and  C_33
    9  A    between atoms: C_17  and  C_19
   10  A    between atoms: C_17  and  C_29
   11  A    between atoms: C_18  and  C_30
   12  A    between atoms: C_20  and  C_28
   13  A    between atoms: O_25  and  C_26
   14  A    between atoms: C_26  and  C_28
   15  A    between atoms: C_29  and  O_37
   16  A    between atoms: C_30  and  C_35
   17  A    between atoms: C_31  and  C_34
   18  A    between atoms: C_34  and  O_37
                            x       y       z     vdW  Elec       q    Type
                         _______ _______ _______ _____ _____    ______ ____

>  <TORSDO>
F 18

$$$$
=
 OpenBabel11042418203D

 37 39  0  0  1  0  0  0  0  0999 V2000
  190.1950  175.4050  144.0960 C   0  0  2  0  0  3  0  0  0  0  0  0
  190.1250  174.4360  142.9560 C   0  0  0  0  0  0  0  0  0  0  0  0
  190.0490  171.7620  139.7200 N   0  0  0  0  0  1  0  0  0  0  0  0
  190.0700  172.6600  140.8240 C   0  0  0  0  0  0  0  0  0  0  0  0
  191.0140  173.6390  140.8850 N   0  0  0  0  0  0  0  0  0  0  0  0
  189.1510  173.4310  142.9120 C   0  0  0  0  0  3  0  0  0  0  0  0
  189.1200  172.5380  141.8400 C   0  0  0  0  0  3  0  0  0  0  0  0
  191.0610  174.5200  141.9210 C   0  0  0  0  0  3  0  0  0  0  0  0
  188.9610  175.2520  145.0080 C   0  0  1  0  0  3  0  0  0  0  0  0
  189.3150  174.6720  146.3650 C   0  0  0  0  0  2  0  0  0  0  0  0
  189.0030  176.1520  146.2330 C   0  0  2  0  0  3  0  0  0  0  0  0
  187.5870  176.4100  146.6990 C   0  0  0  0  0  2  0  0  0  0  0  0
  187.4700  177.8320  147.2170 C   0  0  0  0  0  2  0  0  0  0  0  0
  186.1050  178.4030  146.8760 C   0  0  1  0  0  3  0  0  0  0  0  0
  185.8530  179.5100  147.6860 O   0  0  0  0  0  1  0  0  0  0  0  0
  186.0680  178.8230  145.4140 C   0  0  0  0  0  2  0  0  0  0  0  0
  184.7080  178.5120  144.7920 C   0  0  1  0  0  3  0  0  0  0  0  0
  183.6710  178.8890  145.6530 O   0  0  0  0  0  1  0  0  0  0  0  0
  184.5470  179.0720  143.5030 O   0  0  0  0  0  0  0  0  0  0  0  0
  183.1490  177.9980  142.0490 O   0  0  0  0  0  1  0  0  0  0  0  0
  184.4460  178.0320  142.5620 C   0  0  1  0  0  3  0  0  0  0  0  0
  185.4410  178.2680  141.4360 C   0  0  0  0  0  2  0  0  0  0  0  0
  187.6780  178.3210  142.2730 O   0  0  0  0  0  1  0  0  0  0  0  0
  186.4400  176.3210  142.5940 C   0  0  0  0  0  1  0  0  0  0  0  0
  186.7250  177.4930  141.6780 C   0  0  1  0  0  3  0  0  0  0  0  0
  190.5220  176.8270  143.6150 C   0  0  0  0  0  2  0  0  0  0  0  0
  191.7850  177.3560  144.2760 C   0  0  0  0  0  2  0  0  0  0  0  0
  192.8180  176.4280  144.1400 O   0  0  0  0  0  0  0  0  0  0  0  0
  193.5760  176.5700  145.3040 C   0  0  0  0  0  2  0  0  0  0  0  0
  195.6730  176.8610  144.2220 O   0  0  0  0  0  0  0  0  0  0  0  0
  194.9840  176.1810  145.0300 C   0  0  0  0  0  0  0  0  0  0  0  0
  195.5410  175.0930  145.6970 O   0  0  0  0  0  0  0  0  0  0  0  0
  195.6870  172.7870  145.6370 C   0  0  0  0  0  0  0  0  0  0  0  0
  197.0380  172.0810  145.6660 C   0  0  0  0  0  2  0  0  0  0  0  0
  195.8640  171.2730  145.5910 C   0  0  2  0  0  3  0  0  0  0  0  0
  194.9530  173.8500  145.6390 N   0  0  0  0  0  0  0  0  0  0  0  0
  195.6650  170.8390  144.2810 O   0  0  0  0  0  1  0  0  0  0  0  0
  1 26  1  6  0  0  0
  2  1  1  0  0  0  0
  3  4  1  0  0  0  0
  4  5  2  0  0  0  0
  4  7  1  0  0  0  0
  5  8  1  0  0  0  0
  6  2  1  0  0  0  0
  7  6  2  0  0  0  0
  8  2  2  0  0  0  0
  9  1  1  6  0  0  0
  9 11  1  0  0  0  0
  9 10  1  0  0  0  0
 11 10  1  0  0  0  0
 11 12  1  1  0  0  0
 12 13  1  0  0  0  0
 14 13  1  0  0  0  0
 14 15  1  1  0  0  0
 16 14  1  0  0  0  0
 17 16  1  0  0  0  0
 17 18  1  1  0  0  0
 19 17  1  0  0  0  0
 21 20  1  6  0  0  0
 21 19  1  0  0  0  0
 22 25  1  0  0  0  0
 22 21  1  0  0  0  0
 25 23  1  0  0  0  0
 25 24  1  1  0  0  0
 26 27  1  0  0  0  0
 28 27  1  0  0  0  0
 28 29  1  0  0  0  0
 30 31  2  0  0  0  0
 31 29  1  0  0  0  0
 31 32  1  0  0  0  0
 33 36  2  0  0  0  0
 33 34  1  0  0  0  0
 35 37  1  6  0  0  0
 35 33  1  0  0  0  0
 35 34  1  0  0  0  0
 36 32  1  0  0  0  0
M  END
>  <MODEL>
4

>  <REMARK>
 VINA RESULT:      -5.6      2.393      3.844
  Name = 
  18 active torsions:
  status: ('A' for Active; 'I' for Inactive)
    1  A    between atoms: C_1  and  C_19
    2  A    between atoms: O_4  and  N_23
    3  A    between atoms: O_4  and  C_31
    4  A    between atoms: C_5  and  C_19
    5  A    between atoms: C_10  and  O_25
    6  A    between atoms: C_10  and  C_33
    7  A    between atoms: C_12  and  C_18
    8  A    between atoms: C_12  and  C_33
    9  A    between atoms: C_17  and  C_19
   10  A    between atoms: C_17  and  C_29
   11  A    between atoms: C_18  and  C_30
   12  A    between atoms: C_20  and  C_28
   13  A    between atoms: O_25  and  C_26
   14  A    between atoms: C_26  and  C_28
   15  A    between atoms: C_29  and  O_37
   16  A    between atoms: C_30  and  C_35
   17  A    between atoms: C_31  and  C_34
   18  A    between atoms: C_34  and  O_37
                            x       y       z     vdW  Elec       q    Type
                         _______ _______ _______ _____ _____    ______ ____

>  <TORSDO>
F 18

$$$$
=
 OpenBabel11042418203D

 37 39  0  0  1  0  0  0  0  0999 V2000
  193.0360  175.4940  145.8790 C   0  0  2  0  0  3  0  0  0  0  0  0
  194.1600  174.5060  145.8140 C   0  0  0  0  0  0  0  0  0  0  0  0
  197.2250  171.6460  145.5910 N   0  0  0  0  0  1  0  0  0  0  0  0
  196.1940  172.6230  145.6610 C   0  0  0  0  0  0  0  0  0  0  0  0
  194.8900  172.2430  145.5710 N   0  0  0  0  0  0  0  0  0  0  0  0
  195.4960  174.9150  145.9030 C   0  0  0  0  0  3  0  0  0  0  0  0
  196.5200  173.9710  145.8280 C   0  0  0  0  0  3  0  0  0  0  0  0
  193.8770  173.1480  145.6420 C   0  0  0  0  0  3  0  0  0  0  0  0
  191.7560  174.8180  146.4090 C   0  0  1  0  0  3  0  0  0  0  0  0
  191.3750  175.3100  147.7930 C   0  0  0  0  0  2  0  0  0  0  0  0
  190.5930  175.7830  146.5800 C   0  0  2  0  0  3  0  0  0  0  0  0
  189.2960  175.0090  146.4860 C   0  0  0  0  0  2  0  0  0  0  0  0
  188.2610  175.8330  145.7420 C   0  0  0  0  0  2  0  0  0  0  0  0
  188.3190  177.2800  146.1950 C   0  0  1  0  0  3  0  0  0  0  0  0
  188.5350  178.1010  145.0890 O   0  0  0  0  0  1  0  0  0  0  0  0
  187.0100  177.6670  146.8670 C   0  0  0  0  0  2  0  0  0  0  0  0
  185.8280  177.4440  145.9260 C   0  0  1  0  0  3  0  0  0  0  0  0
  184.8470  176.6550  146.5380 O   0  0  0  0  0  1  0  0  0  0  0  0
  185.2870  178.6500  145.4200 O   0  0  0  0  0  0  0  0  0  0  0  0
  183.5900  179.0550  143.9440 O   0  0  0  0  0  1  0  0  0  0  0  0
  184.8270  178.4300  144.1090 C   0  0  1  0  0  3  0  0  0  0  0  0
  185.8300  178.9970  143.1170 C   0  0  0  0  0  2  0  0  0  0  0  0
  185.9890  176.6900  142.5190 O   0  0  0  0  0  1  0  0  0  0  0  0
  185.1970  178.1940  140.8630 C   0  0  0  0  0  1  0  0  0  0  0  0
  186.1430  177.9870  142.0260 C   0  0  1  0  0  3  0  0  0  0  0  0
  192.9020  176.2890  144.5700 C   0  0  0  0  0  2  0  0  0  0  0  0
  192.8740  175.3640  143.3640 C   0  0  0  0  0  2  0  0  0  0  0  0
  191.9370  175.8190  142.4350 O   0  0  0  0  0  0  0  0  0  0  0  0
  190.8800  174.9130  142.5260 C   0  0  0  0  0  2  0  0  0  0  0  0
  189.5180  176.8590  142.4010 O   0  0  0  0  0  0  0  0  0  0  0  0
  189.6010  175.6120  142.2340 C   0  0  0  0  0  0  0  0  0  0  0  0
  188.5170  174.8880  141.7410 O   0  0  0  0  0  0  0  0  0  0  0  0
  188.6800  173.9660  139.6280 C   0  0  0  0  0  0  0  0  0  0  0  0
  189.4970  172.7030  139.3800 C   0  0  0  0  0  2  0  0  0  0  0  0
  188.8410  173.3050  138.2640 C   0  0  2  0  0  3  0  0  0  0  0  0
  188.2150  174.8920  140.3990 N   0  0  0  0  0  0  0  0  0  0  0  0
  189.7550  174.0440  137.5130 O   0  0  0  0  0  1  0  0  0  0  0  0
  1 26  1  6  0  0  0
  2  1  1  0  0  0  0
  2  6  1  0  0  0  0
  3  4  1  0  0  0  0
  4  7  1  0  0  0  0
  5  8  1  0  0  0  0
  5  4  2  0  0  0  0
  7  6  2  0  0  0  0
  8  2  2  0  0  0  0
  9  1  1  6  0  0  0
  9 11  1  0  0  0  0
  9 10  1  0  0  0  0
 11 12  1  1  0  0  0
 11 10  1  0  0  0  0
 13 14  1  0  0  0  0
 13 12  1  0  0  0  0
 14 15  1  6  0  0  0
 14 16  1  0  0  0  0
 17 18  1  1  0  0  0
 17 16  1  0  0  0  0
 19 17  1  0  0  0  0
 21 20  1  1  0  0  0
 21 19  1  0  0  0  0
 22 21  1  0  0  0  0
 25 24  1  6  0  0  0
 25 23  1  0  0  0  0
 25 22  1  0  0  0  0
 27 26  1  0  0  0  0
 28 29  1  0  0  0  0
 28 27  1  0  0  0  0
 31 30  2  0  0  0  0
 31 29  1  0  0  0  0
 32 31  1  0  0  0  0
 33 36  2  0  0  0  0
 34 33  1  0  0  0  0
 35 37  1  6  0  0  0
 35 34  1  0  0  0  0
 35 33  1  0  0  0  0
 36 32  1  0  0  0  0
M  END
>  <MODEL>
5

>  <REMARK>
 VINA RESULT:      -5.5      2.795      4.832
  Name = 
  18 active torsions:
  status: ('A' for Active; 'I' for Inactive)
    1  A    between atoms: C_1  and  C_19
    2  A    between atoms: O_4  and  N_23
    3  A    between atoms: O_4  and  C_31
    4  A    between atoms: C_5  and  C_19
    5  A    between atoms: C_10  and  O_25
    6  A    between atoms: C_10  and  C_33
    7  A    between atoms: C_12  and  C_18
    8  A    between atoms: C_12  and  C_33
    9  A    between atoms: C_17  and  C_19
   10  A    between atoms: C_17  and  C_29
   11  A    between atoms: C_18  and  C_30
   12  A    between atoms: C_20  and  C_28
   13  A    between atoms: O_25  and  C_26
   14  A    between atoms: C_26  and  C_28
   15  A    between atoms: C_29  and  O_37
   16  A    between atoms: C_30  and  C_35
   17  A    between atoms: C_31  and  C_34
   18  A    between atoms: C_34  and  O_37
                            x       y       z     vdW  Elec       q    Type
                         _______ _______ _______ _____ _____    ______ ____

>  <TORSDO>
F 18

$$$$
=
 OpenBabel11042418203D

 37 39  0  0  1  0  0  0  0  0999 V2000
  189.6050  176.0640  145.9170 C   0  0  2  0  0  3  0  0  0  0  0  0
  188.2760  176.7460  146.0400 C   0  0  0  0  0  0  0  0  0  0  0  0
  184.5740  178.7120  146.2660 N   0  0  0  0  0  1  0  0  0  0  0  0
  185.8230  178.0350  146.1940 C   0  0  0  0  0  0  0  0  0  0  0  0
  186.7310  178.3830  145.2400 N   0  0  0  0  0  0  0  0  0  0  0  0
  187.3530  176.3710  147.0240 C   0  0  0  0  0  3  0  0  0  0  0  0
  186.1200  177.0180  147.1040 C   0  0  0  0  0  3  0  0  0  0  0  0
  187.9380  177.7640  145.1450 C   0  0  0  0  0  3  0  0  0  0  0  0
  189.6140  175.1180  144.7010 C   0  0  1  0  0  3  0  0  0  0  0  0
  190.5380  175.6030  143.5990 C   0  0  0  0  0  2  0  0  0  0  0  0
  190.9550  174.4360  144.4780 C   0  0  2  0  0  3  0  0  0  0  0  0
  190.7280  173.1400  143.7320 C   0  0  0  0  0  2  0  0  0  0  0  0
  190.6030  173.4210  142.2450 C   0  0  0  0  0  2  0  0  0  0  0  0
  189.3780  172.7240  141.6820 C   0  0  1  0  0  3  0  0  0  0  0  0
  188.9840  171.7080  142.5530 O   0  0  0  0  0  1  0  0  0  0  0  0
  188.2420  173.7230  141.5170 C   0  0  0  0  0  2  0  0  0  0  0  0
  188.5530  174.7230  140.4050 C   0  0  1  0  0  3  0  0  0  0  0  0
  188.6180  174.0810  139.1640 O   0  0  0  0  0  1  0  0  0  0  0  0
  187.6590  175.8190  140.3810 O   0  0  0  0  0  0  0  0  0  0  0  0
  188.3160  177.6800  141.5320 O   0  0  0  0  0  1  0  0  0  0  0  0
  187.6710  176.4480  141.6390 C   0  0  1  0  0  3  0  0  0  0  0  0
  186.2430  176.6520  142.1180 C   0  0  0  0  0  2  0  0  0  0  0  0
  185.2850  177.8970  140.3180 O   0  0  0  0  0  1  0  0  0  0  0  0
  184.5230  178.3890  142.5110 C   0  0  0  0  0  1  0  0  0  0  0  0
  185.7010  177.9910  141.6470 C   0  0  1  0  0  3  0  0  0  0  0  0
  190.0620  175.4650  147.2570 C   0  0  0  0  0  2  0  0  0  0  0  0
  191.2460  176.2310  147.8270 C   0  0  0  0  0  2  0  0  0  0  0  0
  192.1100  176.6090  146.7980 O   0  0  0  0  0  0  0  0  0  0  0  0
  193.1490  175.6780  146.8490 C   0  0  0  0  0  2  0  0  0  0  0  0
  194.5120  177.4770  146.1000 O   0  0  0  0  0  0  0  0  0  0  0  0
  194.3430  176.2290  146.1550 C   0  0  0  0  0  0  0  0  0  0  0  0
  195.2820  175.3590  145.6060 O   0  0  0  0  0  0  0  0  0  0  0  0
  196.0500  175.7930  143.4700 C   0  0  0  0  0  0  0  0  0  0  0  0
  197.0620  176.9030  143.2060 C   0  0  0  0  0  2  0  0  0  0  0  0
  196.5960  176.1450  142.0900 C   0  0  2  0  0  3  0  0  0  0  0  0
  195.2980  175.0960  144.2550 N   0  0  0  0  0  0  0  0  0  0  0  0
  195.6250  176.8650  141.3940 O   0  0  0  0  0  1  0  0  0  0  0  0
  1  2  1  0  0  0  0
  1 26  1  1  0  0  0
  2  6  1  0  0  0  0
  4  3  1  0  0  0  0
  4  7  1  0  0  0  0
  5  4  2  0  0  0  0
  6  7  2  0  0  0  0
  8  5  1  0  0  0  0
  8  2  2  0  0  0  0
  9  1  1  1  0  0  0
 10 11  1  0  0  0  0
 10  9  1  0  0  0  0
 11 12  1  6  0  0  0
 11  9  1  0  0  0  0
 13 12  1  0  0  0  0
 14 13  1  0  0  0  0
 14 15  1  1  0  0  0
 16 14  1  0  0  0  0
 17 18  1  6  0  0  0
 17 16  1  0  0  0  0
 19 17  1  0  0  0  0
 19 21  1  0  0  0  0
 21 20  1  6  0  0  0
 21 22  1  0  0  0  0
 23 25  1  0  0  0  0
 25 22  1  0  0  0  0
 25 24  1  1  0  0  0
 26 27  1  0  0  0  0
 28 29  1  0  0  0  0
 28 27  1  0  0  0  0
 30 31  2  0  0  0  0
 31 29  1  0  0  0  0
 32 31  1  0  0  0  0
 33 36  2  0  0  0  0
 34 33  1  0  0  0  0
 35 37  1  6  0  0  0
 35 34  1  0  0  0  0
 35 33  1  0  0  0  0
 36 32  1  0  0  0  0
M  END
>  <MODEL>
6

>  <REMARK>
 VINA RESULT:      -5.5      2.717      5.261
  Name = 
  18 active torsions:
  status: ('A' for Active; 'I' for Inactive)
    1  A    between atoms: C_1  and  C_19
    2  A    between atoms: O_4  and  N_23
    3  A    between atoms: O_4  and  C_31
    4  A    between atoms: C_5  and  C_19
    5  A    between atoms: C_10  and  O_25
    6  A    between atoms: C_10  and  C_33
    7  A    between atoms: C_12  and  C_18
    8  A    between atoms: C_12  and  C_33
    9  A    between atoms: C_17  and  C_19
   10  A    between atoms: C_17  and  C_29
   11  A    between atoms: C_18  and  C_30
   12  A    between atoms: C_20  and  C_28
   13  A    between atoms: O_25  and  C_26
   14  A    between atoms: C_26  and  C_28
   15  A    between atoms: C_29  and  O_37
   16  A    between atoms: C_30  and  C_35
   17  A    between atoms: C_31  and  C_34
   18  A    between atoms: C_34  and  O_37
                            x       y       z     vdW  Elec       q    Type
                         _______ _______ _______ _____ _____    ______ ____

>  <TORSDO>
F 18

$$$$
=
 OpenBabel11042418203D

 37 39  0  0  1  0  0  0  0  0999 V2000
  189.4180  175.8800  145.4800 C   0  0  2  0  0  3  0  0  0  0  0  0
  188.1410  176.5950  145.8010 C   0  0  0  0  0  0  0  0  0  0  0  0
  184.5630  178.5410  146.8180 N   0  0  0  0  0  1  0  0  0  0  0  0
  185.7800  177.8920  146.4690 C   0  0  0  0  0  0  0  0  0  0  0  0
  186.2570  176.8790  147.2430 N   0  0  0  0  0  0  0  0  0  0  0  0
  187.6690  177.6390  144.9960 C   0  0  0  0  0  3  0  0  0  0  0  0
  186.4810  178.2920  145.3290 C   0  0  0  0  0  3  0  0  0  0  0  0
  187.4130  176.2300  146.9360 C   0  0  0  0  0  3  0  0  0  0  0  0
  190.5860  176.4740  146.2920 C   0  0  1  0  0  3  0  0  0  0  0  0
  190.7990  175.7520  147.6090 C   0  0  0  0  0  2  0  0  0  0  0  0
  191.7560  175.5160  146.4530 C   0  0  2  0  0  3  0  0  0  0  0  0
  193.0190  176.3180  146.6760 C   0  0  0  0  0  2  0  0  0  0  0  0
  193.6430  176.6730  145.3380 C   0  0  0  0  0  2  0  0  0  0  0  0
  195.0800  176.1890  145.2850 C   0  0  1  0  0  3  0  0  0  0  0  0
  195.3120  175.3170  146.3490 O   0  0  0  0  0  1  0  0  0  0  0  0
  195.3370  175.4670  143.9700 C   0  0  0  0  0  2  0  0  0  0  0  0
  194.1680  174.5500  143.6150 C   0  0  1  0  0  3  0  0  0  0  0  0
  193.7230  174.7950  142.3110 O   0  0  0  0  0  1  0  0  0  0  0  0
  194.4570  173.1800  143.8200 O   0  0  0  0  0  0  0  0  0  0  0  0
  192.5790  171.9970  144.3630 O   0  0  0  0  0  1  0  0  0  0  0  0
  193.6670  172.7000  144.8810 C   0  0  1  0  0  3  0  0  0  0  0  0
  194.5020  171.7850  145.7620 C   0  0  0  0  0  2  0  0  0  0  0  0
  196.7820  172.4020  146.1220 O   0  0  0  0  0  1  0  0  0  0  0  0
  196.3650  170.2590  145.1910 C   0  0  0  0  0  1  0  0  0  0  0  0
  195.9330  171.7080  145.2580 C   0  0  1  0  0  3  0  0  0  0  0  0
  189.6320  175.7500  143.9630 C   0  0  0  0  0  2  0  0  0  0  0  0
  189.6710  174.2910  143.5360 C   0  0  0  0  0  2  0  0  0  0  0  0
  189.8580  174.2040  142.1560 O   0  0  0  0  0  0  0  0  0  0  0  0
  188.6030  173.8610  141.6500 C   0  0  0  0  0  2  0  0  0  0  0  0
  188.2170  174.5530  139.4070 O   0  0  0  0  0  0  0  0  0  0  0  0
  188.1900  174.8610  140.6300 C   0  0  0  0  0  0  0  0  0  0  0  0
  187.7400  176.1150  141.0370 O   0  0  0  0  0  0  0  0  0  0  0  0
  186.0160  177.6200  140.7190 C   0  0  0  0  0  0  0  0  0  0  0  0
  185.2130  178.1600  141.8980 C   0  0  0  0  0  2  0  0  0  0  0  0
  184.8600  178.6070  140.5880 C   0  0  2  0  0  3  0  0  0  0  0  0
  186.9500  176.8850  140.2150 N   0  0  0  0  0  0  0  0  0  0  0  0
  183.7340  177.9200  140.1360 O   0  0  0  0  0  1  0  0  0  0  0  0
  1 26  1  6  0  0  0
  1  2  1  0  0  0  0
  2  8  1  0  0  0  0
  4  3  1  0  0  0  0
  4  5  1  0  0  0  0
  6  7  1  0  0  0  0
  6  2  2  0  0  0  0
  7  4  2  0  0  0  0
  8  5  2  0  0  0  0
  9  1  1  6  0  0  0
  9 11  1  0  0  0  0
  9 10  1  0  0  0  0
 11 12  1  1  0  0  0
 11 10  1  0  0  0  0
 13 12  1  0  0  0  0
 14 13  1  0  0  0  0
 14 15  1  1  0  0  0
 16 14  1  0  0  0  0
 17 18  1  6  0  0  0
 17 19  1  0  0  0  0
 17 16  1  0  0  0  0
 19 21  1  0  0  0  0
 21 20  1  6  0  0  0
 21 22  1  0  0  0  0
 25 24  1  1  0  0  0
 25 22  1  0  0  0  0
 25 23  1  0  0  0  0
 27 26  1  0  0  0  0
 28 27  1  0  0  0  0
 29 28  1  0  0  0  0
 30 31  2  0  0  0  0
 31 32  1  0  0  0  0
 31 29  1  0  0  0  0
 33 34  1  0  0  0  0
 35 37  1  6  0  0  0
 35 33  1  0  0  0  0
 35 34  1  0  0  0  0
 36 33  2  0  0  0  0
 36 32  1  0  0  0  0
M  END
>  <MODEL>
7

>  <REMARK>
 VINA RESULT:      -5.3      3.197      8.496
  Name = 
  18 active torsions:
  status: ('A' for Active; 'I' for Inactive)
    1  A    between atoms: C_1  and  C_19
    2  A    between atoms: O_4  and  N_23
    3  A    between atoms: O_4  and  C_31
    4  A    between atoms: C_5  and  C_19
    5  A    between atoms: C_10  and  O_25
    6  A    between atoms: C_10  and  C_33
    7  A    between atoms: C_12  and  C_18
    8  A    between atoms: C_12  and  C_33
    9  A    between atoms: C_17  and  C_19
   10  A    between atoms: C_17  and  C_29
   11  A    between atoms: C_18  and  C_30
   12  A    between atoms: C_20  and  C_28
   13  A    between atoms: O_25  and  C_26
   14  A    between atoms: C_26  and  C_28
   15  A    between atoms: C_29  and  O_37
   16  A    between atoms: C_30  and  C_35
   17  A    between atoms: C_31  and  C_34
   18  A    between atoms: C_34  and  O_37
                            x       y       z     vdW  Elec       q    Type
                         _______ _______ _______ _____ _____    ______ ____

>  <TORSDO>
F 18

$$$$
=
 OpenBabel11042418203D

 37 39  0  0  1  0  0  0  0  0999 V2000
  190.7560  174.6540  143.3010 C   0  0  2  0  0  3  0  0  0  0  0  0
  190.4230  173.8290  142.0950 C   0  0  0  0  0  0  0  0  0  0  0  0
  189.3960  171.6040  138.6870 N   0  0  0  0  0  1  0  0  0  0  0  0
  189.7560  172.3570  139.8400 C   0  0  0  0  0  0  0  0  0  0  0  0
  188.9380  173.3500  140.2850 N   0  0  0  0  0  0  0  0  0  0  0  0
  191.2790  172.8150  141.6480 C   0  0  0  0  0  3  0  0  0  0  0  0
  190.9450  172.0720  140.5150 C   0  0  0  0  0  3  0  0  0  0  0  0
  189.2460  174.0860  141.3880 C   0  0  0  0  0  3  0  0  0  0  0  0
  189.6390  174.5370  144.3580 C   0  0  1  0  0  3  0  0  0  0  0  0
  189.7280  173.2450  145.1490 C   0  0  0  0  0  2  0  0  0  0  0  0
  190.1590  174.5540  145.7870 C   0  0  2  0  0  3  0  0  0  0  0  0
  189.0620  175.0530  146.7010 C   0  0  0  0  0  2  0  0  0  0  0  0
  189.3100  176.5080  147.0530 C   0  0  0  0  0  2  0  0  0  0  0  0
  188.2750  177.3930  146.3810 C   0  0  1  0  0  3  0  0  0  0  0  0
  188.7210  177.7370  145.1050 O   0  0  0  0  0  1  0  0  0  0  0  0
  186.9500  176.6530  146.2750 C   0  0  0  0  0  2  0  0  0  0  0  0
  185.8040  177.5060  146.8180 C   0  0  1  0  0  3  0  0  0  0  0  0
  185.9790  177.7610  148.1830 O   0  0  0  0  0  1  0  0  0  0  0  0
  185.6070  178.7000  146.0850 O   0  0  0  0  0  0  0  0  0  0  0  0
  183.6270  178.8980  144.9600 O   0  0  0  0  0  1  0  0  0  0  0  0
  184.9270  178.3960  144.8910 C   0  0  1  0  0  3  0  0  0  0  0  0
  185.6610  179.0220  143.7160 C   0  0  0  0  0  2  0  0  0  0  0  0
  185.7520  176.7370  143.0240 O   0  0  0  0  0  1  0  0  0  0  0  0
  184.5500  178.2480  141.6440 C   0  0  0  0  0  1  0  0  0  0  0  0
  185.7450  178.0500  142.5510 C   0  0  1  0  0  3  0  0  0  0  0  0
  191.1890  176.0780  142.9140 C   0  0  0  0  0  2  0  0  0  0  0  0
  192.2780  176.5930  143.8430 C   0  0  0  0  0  2  0  0  0  0  0  0
  193.2740  175.6270  143.9920 O   0  0  0  0  0  0  0  0  0  0  0  0
  194.4200  176.3500  144.3250 C   0  0  0  0  0  2  0  0  0  0  0  0
  195.5050  176.4970  142.2140 O   0  0  0  0  0  0  0  0  0  0  0  0
  195.5140  176.0100  143.3770 C   0  0  0  0  0  0  0  0  0  0  0  0
  196.5580  175.1880  143.7950 O   0  0  0  0  0  0  0  0  0  0  0  0
  196.6250  173.0330  144.6250 C   0  0  0  0  0  0  0  0  0  0  0  0
  196.8260  172.7660  146.1130 C   0  0  0  0  0  2  0  0  0  0  0  0
  196.6890  171.6410  145.2450 C   0  0  2  0  0  3  0  0  0  0  0  0
  196.5030  173.8260  143.6130 N   0  0  0  0  0  0  0  0  0  0  0  0
  197.9400  171.0880  144.9770 O   0  0  0  0  0  1  0  0  0  0  0  0
  1 26  1  6  0  0  0
  2  1  1  0  0  0  0
  3  4  1  0  0  0  0
  4  5  2  0  0  0  0
  4  7  1  0  0  0  0
  5  8  1  0  0  0  0
  6  2  1  0  0  0  0
  7  6  2  0  0  0  0
  8  2  2  0  0  0  0
  9  1  1  6  0  0  0
  9 10  1  0  0  0  0
  9 11  1  0  0  0  0
 10 11  1  0  0  0  0
 11 12  1  1  0  0  0
 12 13  1  0  0  0  0
 14 15  1  6  0  0  0
 14 13  1  0  0  0  0
 16 14  1  0  0  0  0
 16 17  1  0  0  0  0
 17 18  1  1  0  0  0
 19 17  1  0  0  0  0
 21 20  1  1  0  0  0
 21 19  1  0  0  0  0
 22 21  1  0  0  0  0
 25 24  1  6  0  0  0
 25 23  1  0  0  0  0
 25 22  1  0  0  0  0
 26 27  1  0  0  0  0
 27 28  1  0  0  0  0
 28 29  1  0  0  0  0
 30 31  2  0  0  0  0
 31 32  1  0  0  0  0
 31 29  1  0  0  0  0
 33 35  1  0  0  0  0
 33 34  1  0  0  0  0
 35 37  1  6  0  0  0
 35 34  1  0  0  0  0
 36 32  1  0  0  0  0
 36 33  2  0  0  0  0
M  END
>  <MODEL>
8

>  <REMARK>
 VINA RESULT:      -5.3      2.791      4.681
  Name = 
  18 active torsions:
  status: ('A' for Active; 'I' for Inactive)
    1  A    between atoms: C_1  and  C_19
    2  A    between atoms: O_4  and  N_23
    3  A    between atoms: O_4  and  C_31
    4  A    between atoms: C_5  and  C_19
    5  A    between atoms: C_10  and  O_25
    6  A    between atoms: C_10  and  C_33
    7  A    between atoms: C_12  and  C_18
    8  A    between atoms: C_12  and  C_33
    9  A    between atoms: C_17  and  C_19
   10  A    between atoms: C_17  and  C_29
   11  A    between atoms: C_18  and  C_30
   12  A    between atoms: C_20  and  C_28
   13  A    between atoms: O_25  and  C_26
   14  A    between atoms: C_26  and  C_28
   15  A    between atoms: C_29  and  O_37
   16  A    between atoms: C_30  and  C_35
   17  A    between atoms: C_31  and  C_34
   18  A    between atoms: C_34  and  O_37
                            x       y       z     vdW  Elec       q    Type
                         _______ _______ _______ _____ _____    ______ ____

>  <TORSDO>
F 18

$$$$
=
 OpenBabel11042418203D

 37 39  0  0  1  0  0  0  0  0999 V2000
  189.6770  175.2770  145.4170 C   0  0  2  0  0  3  0  0  0  0  0  0
  191.0590  175.8360  145.5690 C   0  0  0  0  0  0  0  0  0  0  0  0
  194.9400  177.3420  146.1110 N   0  0  0  0  0  1  0  0  0  0  0  0
  193.6280  176.8290  145.9150 C   0  0  0  0  0  0  0  0  0  0  0  0
  192.9600  176.2580  146.9550 N   0  0  0  0  0  0  0  0  0  0  0  0
  191.7340  176.4150  144.4870 C   0  0  0  0  0  3  0  0  0  0  0  0
  193.0240  176.9160  144.6590 C   0  0  0  0  0  3  0  0  0  0  0  0
  191.7010  175.7630  146.8080 C   0  0  0  0  0  3  0  0  0  0  0  0
  188.7160  175.9370  146.4250 C   0  0  1  0  0  3  0  0  0  0  0  0
  188.7850  177.4530  146.3790 C   0  0  0  0  0  2  0  0  0  0  0  0
  187.6000  176.7290  145.7620 C   0  0  2  0  0  3  0  0  0  0  0  0
  186.4210  176.8000  146.7080 C   0  0  0  0  0  2  0  0  0  0  0  0
  185.1500  177.0630  145.9210 C   0  0  0  0  0  2  0  0  0  0  0  0
  184.6800  178.4890  146.1460 C   0  0  1  0  0  3  0  0  0  0  0  0
  185.5990  179.1540  146.9580 O   0  0  0  0  0  1  0  0  0  0  0  0
  184.5620  179.2130  144.8130 C   0  0  0  0  0  2  0  0  0  0  0  0
  184.8770  178.2720  143.6520 C   0  0  1  0  0  3  0  0  0  0  0  0
  183.7280  178.0170  142.8940 O   0  0  0  0  0  1  0  0  0  0  0  0
  185.9460  178.7260  142.8450 O   0  0  0  0  0  0  0  0  0  0  0  0
  185.1300  178.6480  140.7120 O   0  0  0  0  0  1  0  0  0  0  0  0
  185.9480  178.0020  141.6390 C   0  0  1  0  0  3  0  0  0  0  0  0
  187.3680  177.9140  141.1030 C   0  0  0  0  0  2  0  0  0  0  0  0
  189.0210  177.0580  142.6000 O   0  0  0  0  0  1  0  0  0  0  0  0
  187.0600  175.7600  142.2830 C   0  0  0  0  0  1  0  0  0  0  0  0
  188.0760  176.6830  141.6450 C   0  0  1  0  0  3  0  0  0  0  0  0
  189.6860  173.7400  145.3820 C   0  0  0  0  0  2  0  0  0  0  0  0
  189.7160  173.2220  143.9520 C   0  0  0  0  0  2  0  0  0  0  0  0
  190.0010  171.8560  143.9460 O   0  0  0  0  0  0  0  0  0  0  0  0
  191.3670  171.7790  144.2250 C   0  0  0  0  0  2  0  0  0  0  0  0
  191.7990  171.3470  141.9260 O   0  0  0  0  0  0  0  0  0  0  0  0
  192.0580  171.0550  143.1250 C   0  0  0  0  0  0  0  0  0  0  0  0
  193.0130  170.0880  143.4310 O   0  0  0  0  0  0  0  0  0  0  0  0
  194.6080  170.0870  145.1040 C   0  0  0  0  0  0  0  0  0  0  0  0
  196.0380  170.5410  144.8300 C   0  0  0  0  0  2  0  0  0  0  0  0
  195.7160  170.1060  146.1510 C   0  0  2  0  0  3  0  0  0  0  0  0
  193.3920  169.8550  144.7330 N   0  0  0  0  0  0  0  0  0  0  0  0
  196.1670  168.8020  146.3490 O   0  0  0  0  0  1  0  0  0  0  0  0
  1 26  1  1  0  0  0
  1  2  1  0  0  0  0
  2  8  1  0  0  0  0
  4  3  1  0  0  0  0
  4  5  1  0  0  0  0
  6  7  1  0  0  0  0
  6  2  2  0  0  0  0
  7  4  2  0  0  0  0
  8  5  2  0  0  0  0
  9  1  1  6  0  0  0
 10  9  1  0  0  0  0
 11 10  1  0  0  0  0
 11  9  1  0  0  0  0
 11 12  1  1  0  0  0
 13 14  1  0  0  0  0
 13 12  1  0  0  0  0
 14 15  1  1  0  0  0
 16 14  1  0  0  0  0
 17 18  1  6  0  0  0
 17 16  1  0  0  0  0
 19 17  1  0  0  0  0
 21 20  1  6  0  0  0
 21 19  1  0  0  0  0
 22 21  1  0  0  0  0
 22 25  1  0  0  0  0
 25 24  1  1  0  0  0
 25 23  1  0  0  0  0
 27 26  1  0  0  0  0
 28 27  1  0  0  0  0
 28 29  1  0  0  0  0
 30 31  2  0  0  0  0
 31 32  1  0  0  0  0
 31 29  1  0  0  0  0
 32 36  1  0  0  0  0
 33 35  1  0  0  0  0
 34 33  1  0  0  0  0
 34 35  1  0  0  0  0
 35 37  1  6  0  0  0
 36 33  2  0  0  0  0
M  END
>  <MODEL>
9

>  <REMARK>
 VINA RESULT:      -5.2      1.932      2.405
  Name = 
  18 active torsions:
  status: ('A' for Active; 'I' for Inactive)
    1  A    between atoms: C_1  and  C_19
    2  A    between atoms: O_4  and  N_23
    3  A    between atoms: O_4  and  C_31
    4  A    between atoms: C_5  and  C_19
    5  A    between atoms: C_10  and  O_25
    6  A    between atoms: C_10  and  C_33
    7  A    between atoms: C_12  and  C_18
    8  A    between atoms: C_12  and  C_33
    9  A    between atoms: C_17  and  C_19
   10  A    between atoms: C_17  and  C_29
   11  A    between atoms: C_18  and  C_30
   12  A    between atoms: C_20  and  C_28
   13  A    between atoms: O_25  and  C_26
   14  A    between atoms: C_26  and  C_28
   15  A    between atoms: C_29  and  O_37
   16  A    between atoms: C_30  and  C_35
   17  A    between atoms: C_31  and  C_34
   18  A    between atoms: C_34  and  O_37
                            x       y       z     vdW  Elec       q    Type
                         _______ _______ _______ _____ _____    ______ ____

>  <TORSDO>
F 18

$$$$
