=
 OpenBabel11042415063D

 53 55  0  0  1  0  0  0  0  0999 V2000
  190.2540  175.1030  144.9070 C   0  0  0  0  0  2  0  0  0  0  0  0
  195.7510  173.0440  142.0850 N   0  0  0  0  0  2  0  0  0  0  0  0
  189.6280  177.9730  145.1250 C   0  0  0  0  0  3  0  0  0  0  0  0
  195.1540  175.3580  141.7180 C   0  0  0  0  0  0  0  0  0  0  0  0
  188.7070  174.8910  146.7020 O   0  0  0  0  0  0  0  0  0  0  0  0
  193.6730  173.2400  144.2960 C   0  0  0  0  0  3  0  0  0  0  0  0
  195.9330  175.6090  140.7600 O   0  0  0  0  0  0  0  0  0  0  0  0
  190.5570  177.5230  144.0320 C   0  0  1  0  0  3  0  0  0  0  0  0
  189.0240  177.1270  145.9670 C   0  0  0  0  0  0  0  0  0  0  0  0
  195.1910  174.1320  142.5020 C   0  0  0  0  0  0  0  0  0  0  0  0
  189.2980  175.6740  145.9120 C   0  0  0  0  0  0  0  0  0  0  0  0
  194.0650  174.1810  143.4300 C   0  0  0  0  0  0  0  0  0  0  0  0
  194.0570  176.2730  142.1570 C   0  0  0  0  0  2  0  0  0  0  0  0
  192.2730  175.8220  143.7970 C   0  0  0  0  0  0  0  0  0  0  0  0
  193.4060  175.4760  143.2440 C   0  0  0  0  0  0  0  0  0  0  0  0
  191.1370  176.1680  144.3330 C   0  0  0  0  0  0  0  0  0  0  0  0
  194.2160  169.6330  144.7390 C   0  0  1  0  0  3  0  0  0  0  0  0
  194.6290  170.3110  146.0320 C   0  0  2  0  0  3  0  0  0  0  0  0
  194.3810  171.9340  144.4840 C   0  0  1  0  0  3  0  0  0  0  0  0
  194.6670  171.7090  145.8440 O   0  0  0  0  0  0  0  0  0  0  0  0
  192.2420  170.8740  144.2400 O   0  0  0  0  0  1  0  0  0  0  0  0
  193.3050  168.6040  144.9910 O   0  0  0  0  0  1  0  0  0  0  0  0
  193.6050  170.7500  143.9410 C   0  0  2  0  0  3  0  0  0  0  0  0
  196.0200  168.6060  147.2400 C   0  0  0  0  0  3  0  0  0  0  0  0
  197.1370  168.1660  147.6240 O   0  0  0  0  0  0  0  0  0  0  0  0
  195.9260  169.8240  146.4890 N   0  0  0  0  0  0  0  0  0  0  0  0
  197.1260  170.5430  146.0840 C   0  0  0  0  0  2  0  0  0  0  0  0
  197.7750  169.8640  144.8870 C   0  0  0  0  0  2  0  0  0  0  0  0
  197.5400  170.6070  143.7290 O   0  0  0  0  0  1  0  0  0  0  0  0
  188.7630  176.7240  142.5550 C   0  0  0  0  0  3  0  0  0  0  0  0
  189.8220  177.5150  142.7270 C   0  0  0  0  0  3  0  0  0  0  0  0
  188.0320  176.7170  141.2540 C   0  0  0  0  0  2  0  0  0  0  0  0
  188.1290  175.3460  140.6020 C   0  0  0  0  0  2  0  0  0  0  0  0
  188.8680  172.1880  142.7420 C   0  0  0  0  0  1  0  0  0  0  0  0
  188.0110  174.2570  141.6240 C   0  0  0  0  0  0  0  0  0  0  0  0
  188.9540  173.1740  141.6690 N   0  0  0  0  0  0  0  0  0  0  0  0
  187.0770  174.3200  142.4690 O   0  0  0  0  0  0  0  0  0  0  0  0
  191.3590  173.4420  141.1590 C   0  0  0  0  0  1  0  0  0  0  0  0
  189.9840  173.0510  140.6350 C   0  0  1  0  0  3  0  0  0  0  0  0
  189.9660  171.6720  139.9670 C   0  0  0  0  0  2  0  0  0  0  0  0
  190.7110  169.4100  141.6390 O   0  0  0  0  0  1  0  0  0  0  0  0
  192.7690  169.4090  140.6250 O   0  0  0  0  0  0  0  0  0  0  0  0
  191.2930  171.0670  139.9320 N   0  0  0  0  0  2  0  0  0  0  0  0
  191.6290  169.9330  140.7320 C   0  0  0  0  0  0  0  0  0  0  0  0
  188.0730  177.6840  146.9810 C   0  0  0  0  0  2  0  0  0  0  0  0
  186.6250  177.4360  146.5640 C   0  0  1  0  0  3  0  0  0  0  0  0
  184.2130  178.0530  147.0290 C   0  0  0  0  0  1  0  0  0  0  0  0
  185.6740  178.3880  147.2880 C   0  0  0  0  0  2  0  0  0  0  0  0
  186.4610  177.5300  145.0500 C   0  0  0  0  0  2  0  0  0  0  0  0
  186.2250  178.9720  144.6150 C   0  0  0  0  0  2  0  0  0  0  0  0
  185.8940  179.0700  143.1330 C   0  0  0  0  0  2  0  0  0  0  0  0
  183.5820  178.5150  143.1520 O   0  0  0  0  0  1  0  0  0  0  0  0
  184.8340  178.0500  142.7550 C   0  0  0  0  0  2  0  0  0  0  0  0
  1 11  1  0  0  0  0
  2 10  2  0  0  0  0
  3  9  2  0  0  0  0
  4 13  1  0  0  0  0
  4 10  1  0  0  0  0
  7  4  2  0  0  0  0
  8 31  1  6  0  0  0
  8 16  1  0  0  0  0
  8  3  1  0  0  0  0
  9 45  1  0  0  0  0
 10 12  1  0  0  0  0
 11  9  1  0  0  0  0
 11  5  2  0  0  0  0
 12  6  2  0  0  0  0
 13 15  1  0  0  0  0
 14 16  2  0  0  0  0
 15 12  1  0  0  0  0
 15 14  2  0  0  0  0
 16  1  1  0  0  0  0
 17 22  1  1  0  0  0
 17 18  1  0  0  0  0
 18 26  1  6  0  0  0
 19  6  1  1  0  0  0
 19 20  1  0  0  0  0
 20 18  1  0  0  0  0
 23 21  1  1  0  0  0
 23 19  1  0  0  0  0
 23 17  1  0  0  0  0
 24 25  2  0  0  0  0
 26 24  1  0  0  0  0
 27 26  1  0  0  0  0
 28 27  1  0  0  0  0
 29 28  1  0  0  0  0
 30 31  2  0  0  0  0
 32 30  1  0  0  0  0
 33 32  1  0  0  0  0
 33 35  1  0  0  0  0
 35 36  1  0  0  0  0
 35 37  2  0  0  0  0
 36 34  1  0  0  0  0
 39 38  1  1  0  0  0
 39 36  1  0  0  0  0
 40 39  1  0  0  0  0
 42 44  2  0  0  0  0
 43 40  1  0  0  0  0
 43 44  1  0  0  0  0
 44 41  1  0  0  0  0
 46 49  1  6  0  0  0
 46 45  1  0  0  0  0
 46 48  1  0  0  0  0
 47 48  1  0  0  0  0
 50 49  1  0  0  0  0
 51 50  1  0  0  0  0
 53 51  1  0  0  0  0
 53 52  1  0  0  0  0
M  END
>  <MODEL>
1

>  <REMARK>
 VINA RESULT:      -6.8      0.000      0.000
  Name = 
  18 active torsions:
  status: ('A' for Active; 'I' for Inactive)
    1  A    between atoms: C_1  and  C_47
    2  A    between atoms: C_1  and  N_48
    3  A    between atoms: C_6  and  C_16
    4  A    between atoms: C_6  and  C_26
    5  A    between atoms: C_9  and  C_41
    6  A    between atoms: C_9  and  C_44
    7  A    between atoms: C_9  and  C_50
    8  A    between atoms: C_12  and  N_48
    9  A    between atoms: C_14  and  C_19
   10  A    between atoms: C_16  and  C_18
   11  A    between atoms: C_17  and  C_22
   12  A    between atoms: C_20  and  N_27
   13  A    between atoms: C_20  and  C_31
   14  A    between atoms: C_21  and  C_50
   15  A    between atoms: C_30  and  C_38
   16  A    between atoms: C_31  and  N_42
   17  A    between atoms: C_38  and  C_51
   18  A    between atoms: C_44  and  C_51
                            x       y       z     vdW  Elec       q    Type
                         _______ _______ _______ _____ _____    ______ ____

>  <TORSDO>
F 18

$$$$
=
 OpenBabel11042415063D

 53 55  0  0  1  0  0  0  0  0999 V2000
  189.4360  176.6420  142.9920 C   0  0  0  0  0  2  0  0  0  0  0  0
  192.7070  171.1950  141.5570 N   0  0  0  0  0  2  0  0  0  0  0  0
  188.1590  177.0130  145.6200 C   0  0  0  0  0  3  0  0  0  0  0  0
  192.1820  171.5530  143.8910 C   0  0  0  0  0  0  0  0  0  0  0  0
  187.8900  178.3090  142.2920 O   0  0  0  0  0  0  0  0  0  0  0  0
  190.6330  173.3780  141.1350 C   0  0  0  0  0  3  0  0  0  0  0  0
  192.9550  170.6970  144.3960 O   0  0  0  0  0  0  0  0  0  0  0  0
  189.3200  176.0640  145.5150 C   0  0  1  0  0  3  0  0  0  0  0  0
  187.7140  177.7430  144.5920 C   0  0  0  0  0  0  0  0  0  0  0  0
  191.9210  171.6770  142.4640 C   0  0  0  0  0  0  0  0  0  0  0  0
  188.3110  177.6010  143.2440 C   0  0  0  0  0  0  0  0  0  0  0  0
  191.0690  172.8490  142.2830 C   0  0  0  0  0  0  0  0  0  0  0  0
  191.4530  172.5850  144.6870 C   0  0  0  0  0  2  0  0  0  0  0  0
  190.1460  174.5010  143.8510 C   0  0  0  0  0  0  0  0  0  0  0  0
  190.7640  173.3730  143.6170 C   0  0  0  0  0  0  0  0  0  0  0  0
  189.5440  175.6310  144.0910 C   0  0  0  0  0  0  0  0  0  0  0  0
  190.3370  172.6230  137.5510 C   0  0  1  0  0  3  0  0  0  0  0  0
  190.0950  171.3280  138.3040 C   0  0  2  0  0  3  0  0  0  0  0  0
  190.9390  172.8070  139.7850 C   0  0  1  0  0  3  0  0  0  0  0  0
  190.4270  171.5010  139.6650 O   0  0  0  0  0  0  0  0  0  0  0  0
  189.1270  174.1360  138.9420 O   0  0  0  0  0  1  0  0  0  0  0  0
  189.2940  172.8740  136.6560 O   0  0  0  0  0  1  0  0  0  0  0  0
  190.4080  173.6520  138.6440 C   0  0  2  0  0  3  0  0  0  0  0  0
  190.6230  169.8010  136.3820 C   0  0  0  0  0  3  0  0  0  0  0  0
  191.2970  168.8700  135.8670 O   0  0  0  0  0  0  0  0  0  0  0  0
  190.8690  170.2340  137.7270 N   0  0  0  0  0  0  0  0  0  0  0  0
  191.9560  169.6590  138.5060 C   0  0  0  0  0  2  0  0  0  0  0  0
  193.2790  170.3170  138.1420 C   0  0  0  0  0  2  0  0  0  0  0  0
  194.1440  169.3760  137.5830 O   0  0  0  0  0  1  0  0  0  0  0  0
  191.5840  175.9740  146.4700 C   0  0  0  0  0  3  0  0  0  0  0  0
  190.5470  176.7150  146.0770 C   0  0  0  0  0  3  0  0  0  0  0  0
  192.8040  176.6250  147.0300 C   0  0  0  0  0  2  0  0  0  0  0  0
  194.0460  175.8330  146.6480 C   0  0  0  0  0  2  0  0  0  0  0  0
  196.2250  176.5850  143.5200 C   0  0  0  0  0  1  0  0  0  0  0  0
  194.8440  176.5570  145.6060 C   0  0  0  0  0  0  0  0  0  0  0  0
  195.5430  175.8420  144.5750 N   0  0  0  0  0  0  0  0  0  0  0  0
  194.8710  177.8170  145.6340 O   0  0  0  0  0  0  0  0  0  0  0  0
  195.0880  173.7820  143.2850 C   0  0  0  0  0  1  0  0  0  0  0  0
  195.5880  174.3780  144.5940 C   0  0  1  0  0  3  0  0  0  0  0  0
  196.9650  173.8500  145.0080 C   0  0  0  0  0  2  0  0  0  0  0  0
  197.1440  171.0750  144.1510 O   0  0  0  0  0  0  0  0  0  0  0  0
  196.9520  170.4420  146.3470 O   0  0  0  0  0  1  0  0  0  0  0  0
  196.8610  172.7290  145.9340 N   0  0  0  0  0  2  0  0  0  0  0  0
  196.9910  171.3740  145.5020 C   0  0  0  0  0  0  0  0  0  0  0  0
  186.5860  178.6980  144.8270 C   0  0  0  0  0  2  0  0  0  0  0  0
  185.2380  177.9980  144.6760 C   0  0  1  0  0  3  0  0  0  0  0  0
  184.8110  178.4340  147.1350 C   0  0  0  0  0  1  0  0  0  0  0  0
  184.7690  177.4130  146.0080 C   0  0  0  0  0  2  0  0  0  0  0  0
  184.1910  178.9340  144.0800 C   0  0  0  0  0  2  0  0  0  0  0  0
  183.6400  178.3750  142.7730 C   0  0  0  0  0  2  0  0  0  0  0  0
  184.7170  177.6710  141.9600 C   0  0  0  0  0  2  0  0  0  0  0  0
  185.7570  177.5640  139.8240 O   0  0  0  0  0  1  0  0  0  0  0  0
  184.8010  178.2600  140.5630 C   0  0  0  0  0  2  0  0  0  0  0  0
  1 11  1  0  0  0  0
  1 16  1  0  0  0  0
  2 10  2  0  0  0  0
  4  7  2  0  0  0  0
  4 13  1  0  0  0  0
  5 11  2  0  0  0  0
  6 12  2  0  0  0  0
  8  3  1  0  0  0  0
  8 31  1  6  0  0  0
  9 45  1  0  0  0  0
  9  3  2  0  0  0  0
 10  4  1  0  0  0  0
 11  9  1  0  0  0  0
 12 10  1  0  0  0  0
 12 15  1  0  0  0  0
 14 16  2  0  0  0  0
 15 14  2  0  0  0  0
 15 13  1  0  0  0  0
 16  8  1  0  0  0  0
 17 22  1  6  0  0  0
 17 18  1  0  0  0  0
 17 23  1  0  0  0  0
 18 26  1  6  0  0  0
 18 20  1  0  0  0  0
 19  6  1  1  0  0  0
 20 19  1  0  0  0  0
 23 21  1  1  0  0  0
 23 19  1  0  0  0  0
 24 26  1  0  0  0  0
 25 24  2  0  0  0  0
 26 27  1  0  0  0  0
 28 27  1  0  0  0  0
 29 28  1  0  0  0  0
 30 32  1  0  0  0  0
 31 30  2  0  0  0  0
 33 32  1  0  0  0  0
 34 36  1  0  0  0  0
 35 37  2  0  0  0  0
 35 33  1  0  0  0  0
 36 39  1  0  0  0  0
 36 35  1  0  0  0  0
 39 38  1  6  0  0  0
 39 40  1  0  0  0  0
 40 43  1  0  0  0  0
 41 44  2  0  0  0  0
 44 43  1  0  0  0  0
 44 42  1  0  0  0  0
 46 49  1  1  0  0  0
 46 45  1  0  0  0  0
 46 48  1  0  0  0  0
 48 47  1  0  0  0  0
 50 49  1  0  0  0  0
 51 50  1  0  0  0  0
 52 53  1  0  0  0  0
 53 51  1  0  0  0  0
M  END
>  <MODEL>
2

>  <REMARK>
 VINA RESULT:      -6.8      2.586      6.444
  Name = 
  18 active torsions:
  status: ('A' for Active; 'I' for Inactive)
    1  A    between atoms: C_1  and  C_47
    2  A    between atoms: C_1  and  N_48
    3  A    between atoms: C_6  and  C_16
    4  A    between atoms: C_6  and  C_26
    5  A    between atoms: C_9  and  C_41
    6  A    between atoms: C_9  and  C_44
    7  A    between atoms: C_9  and  C_50
    8  A    between atoms: C_12  and  N_48
    9  A    between atoms: C_14  and  C_19
   10  A    between atoms: C_16  and  C_18
   11  A    between atoms: C_17  and  C_22
   12  A    between atoms: C_20  and  N_27
   13  A    between atoms: C_20  and  C_31
   14  A    between atoms: C_21  and  C_50
   15  A    between atoms: C_30  and  C_38
   16  A    between atoms: C_31  and  N_42
   17  A    between atoms: C_38  and  C_51
   18  A    between atoms: C_44  and  C_51
                            x       y       z     vdW  Elec       q    Type
                         _______ _______ _______ _____ _____    ______ ____

>  <TORSDO>
F 18

$$$$
=
 OpenBabel11042415063D

 53 55  0  0  1  0  0  0  0  0999 V2000
  190.2860  175.8490  143.3660 C   0  0  0  0  0  2  0  0  0  0  0  0
  192.9560  170.5750  140.6330 N   0  0  0  0  0  2  0  0  0  0  0  0
  188.8910  175.6910  145.9550 C   0  0  0  0  0  3  0  0  0  0  0  0
  192.3240  170.3790  142.9600 C   0  0  0  0  0  0  0  0  0  0  0  0
  189.0050  177.8350  143.0880 O   0  0  0  0  0  0  0  0  0  0  0  0
  191.1980  173.0520  140.7430 C   0  0  0  0  0  3  0  0  0  0  0  0
  192.9520  169.3240  143.2420 O   0  0  0  0  0  0  0  0  0  0  0  0
  189.9330  174.6550  145.6380 C   0  0  1  0  0  3  0  0  0  0  0  0
  188.6080  176.7180  145.1460 C   0  0  0  0  0  0  0  0  0  0  0  0
  192.1760  170.9050  141.6100 C   0  0  0  0  0  0  0  0  0  0  0  0
  189.2720  176.8530  143.8290 C   0  0  0  0  0  0  0  0  0  0  0  0
  191.4870  172.1870  141.7220 C   0  0  0  0  0  0  0  0  0  0  0  0
  191.6750  171.2570  143.9790 C   0  0  0  0  0  2  0  0  0  0  0  0
  190.6700  173.4820  143.6440 C   0  0  0  0  0  0  0  0  0  0  0  0
  191.1600  172.3820  143.1370 C   0  0  0  0  0  0  0  0  0  0  0  0
  190.1960  174.5820  144.1580 C   0  0  0  0  0  0  0  0  0  0  0  0
  192.7100  173.4850  137.4230 C   0  0  1  0  0  3  0  0  0  0  0  0
  191.2300  173.7870  137.2840 C   0  0  2  0  0  3  0  0  0  0  0  0
  191.5210  172.8160  139.3000 C   0  0  1  0  0  3  0  0  0  0  0  0
  190.5560  173.4120  138.4660 O   0  0  0  0  0  0  0  0  0  0  0  0
  193.1550  174.5630  139.5030 O   0  0  0  0  0  1  0  0  0  0  0  0
  193.4780  174.5320  136.9070 O   0  0  0  0  0  1  0  0  0  0  0  0
  192.8950  173.3220  138.9050 C   0  0  2  0  0  3  0  0  0  0  0  0
  190.9970  171.7300  135.8650 C   0  0  0  0  0  3  0  0  0  0  0  0
  190.4960  171.1190  134.8830 O   0  0  0  0  0  0  0  0  0  0  0  0
  190.6600  173.0980  136.1320 N   0  0  0  0  0  0  0  0  0  0  0  0
  189.6700  173.7920  135.3210 C   0  0  0  0  0  2  0  0  0  0  0  0
  190.3070  174.9660  134.5910 C   0  0  0  0  0  2  0  0  0  0  0  0
  189.7740  176.1670  135.0600 O   0  0  0  0  0  1  0  0  0  0  0  0
  191.8920  176.0620  146.1100 C   0  0  0  0  0  3  0  0  0  0  0  0
  191.1890  174.9640  146.3930 C   0  0  0  0  0  3  0  0  0  0  0  0
  193.1430  176.3690  146.8630 C   0  0  0  0  0  2  0  0  0  0  0  0
  194.3160  175.6000  146.2710 C   0  0  0  0  0  2  0  0  0  0  0  0
  196.1720  176.6220  143.0150 C   0  0  0  0  0  1  0  0  0  0  0  0
  195.0150  176.4110  145.2230 C   0  0  0  0  0  0  0  0  0  0  0  0
  195.5900  175.7900  144.0630 N   0  0  0  0  0  0  0  0  0  0  0  0
  195.0680  177.6630  145.3650 O   0  0  0  0  0  0  0  0  0  0  0  0
  194.6170  173.8390  142.8960 C   0  0  0  0  0  1  0  0  0  0  0  0
  195.6090  174.3300  143.9420 C   0  0  1  0  0  3  0  0  0  0  0  0
  197.0260  173.7890  143.7270 C   0  0  0  0  0  2  0  0  0  0  0  0
  197.0650  172.9500  146.5120 O   0  0  0  0  0  1  0  0  0  0  0  0
  197.1640  170.7720  145.7970 O   0  0  0  0  0  0  0  0  0  0  0  0
  197.1410  172.3920  144.1290 N   0  0  0  0  0  2  0  0  0  0  0  0
  197.1200  171.9950  145.5000 C   0  0  0  0  0  0  0  0  0  0  0  0
  187.5920  177.7230  145.5920 C   0  0  0  0  0  2  0  0  0  0  0  0
  186.2340  177.0610  145.8170 C   0  0  1  0  0  3  0  0  0  0  0  0
  186.4100  178.4550  147.9250 C   0  0  0  0  0  1  0  0  0  0  0  0
  185.7620  177.2520  147.2580 C   0  0  0  0  0  2  0  0  0  0  0  0
  185.1980  177.5710  144.8190 C   0  0  0  0  0  2  0  0  0  0  0  0
  185.5810  178.9500  144.2930 C   0  0  0  0  0  2  0  0  0  0  0  0
  185.6920  178.9660  142.7750 C   0  0  0  0  0  2  0  0  0  0  0  0
  184.1880  178.4200  141.0150 O   0  0  0  0  0  1  0  0  0  0  0  0
  184.7910  177.9080  142.1630 C   0  0  0  0  0  2  0  0  0  0  0  0
  1 11  1  0  0  0  0
  1 16  1  0  0  0  0
  2 10  2  0  0  0  0
  4  7  2  0  0  0  0
  4 13  1  0  0  0  0
  5 11  2  0  0  0  0
  6 12  2  0  0  0  0
  8  3  1  0  0  0  0
  8 31  1  1  0  0  0
  9 45  1  0  0  0  0
  9  3  2  0  0  0  0
 10 12  1  0  0  0  0
 10  4  1  0  0  0  0
 11  9  1  0  0  0  0
 12 15  1  0  0  0  0
 14 16  2  0  0  0  0
 15 14  2  0  0  0  0
 15 13  1  0  0  0  0
 16  8  1  0  0  0  0
 17 22  1  1  0  0  0
 17 23  1  0  0  0  0
 18 26  1  6  0  0  0
 18 17  1  0  0  0  0
 18 20  1  0  0  0  0
 19  6  1  1  0  0  0
 20 19  1  0  0  0  0
 23 19  1  0  0  0  0
 23 21  1  1  0  0  0
 24 26  1  0  0  0  0
 25 24  2  0  0  0  0
 27 26  1  0  0  0  0
 28 29  1  0  0  0  0
 28 27  1  0  0  0  0
 30 31  2  0  0  0  0
 30 32  1  0  0  0  0
 33 32  1  0  0  0  0
 34 36  1  0  0  0  0
 35 37  2  0  0  0  0
 35 33  1  0  0  0  0
 36 35  1  0  0  0  0
 39 38  1  6  0  0  0
 39 36  1  0  0  0  0
 40 39  1  0  0  0  0
 40 43  1  0  0  0  0
 43 44  1  0  0  0  0
 44 42  2  0  0  0  0
 44 41  1  0  0  0  0
 45 46  1  0  0  0  0
 46 49  1  6  0  0  0
 46 48  1  0  0  0  0
 48 47  1  0  0  0  0
 50 49  1  0  0  0  0
 51 50  1  0  0  0  0
 52 53  1  0  0  0  0
 53 51  1  0  0  0  0
M  END
>  <MODEL>
3

>  <REMARK>
 VINA RESULT:      -6.7      2.998      7.019
  Name = 
  18 active torsions:
  status: ('A' for Active; 'I' for Inactive)
    1  A    between atoms: C_1  and  C_47
    2  A    between atoms: C_1  and  N_48
    3  A    between atoms: C_6  and  C_16
    4  A    between atoms: C_6  and  C_26
    5  A    between atoms: C_9  and  C_41
    6  A    between atoms: C_9  and  C_44
    7  A    between atoms: C_9  and  C_50
    8  A    between atoms: C_12  and  N_48
    9  A    between atoms: C_14  and  C_19
   10  A    between atoms: C_16  and  C_18
   11  A    between atoms: C_17  and  C_22
   12  A    between atoms: C_20  and  N_27
   13  A    between atoms: C_20  and  C_31
   14  A    between atoms: C_21  and  C_50
   15  A    between atoms: C_30  and  C_38
   16  A    between atoms: C_31  and  N_42
   17  A    between atoms: C_38  and  C_51
   18  A    between atoms: C_44  and  C_51
                            x       y       z     vdW  Elec       q    Type
                         _______ _______ _______ _____ _____    ______ ____

>  <TORSDO>
F 18

$$$$
=
 OpenBabel11042415063D

 53 55  0  0  1  0  0  0  0  0999 V2000
  190.3440  175.0690  144.5170 C   0  0  0  0  0  2  0  0  0  0  0  0
  195.2820  172.7190  140.9800 N   0  0  0  0  0  2  0  0  0  0  0  0
  190.1240  177.9440  145.1180 C   0  0  0  0  0  3  0  0  0  0  0  0
  194.9720  175.1170  140.9360 C   0  0  0  0  0  0  0  0  0  0  0  0
  188.9260  174.8260  146.4120 O   0  0  0  0  0  0  0  0  0  0  0  0
  193.4270  172.8910  143.3830 C   0  0  0  0  0  3  0  0  0  0  0  0
  195.7000  175.3870  139.9450 O   0  0  0  0  0  0  0  0  0  0  0  0
  190.8970  177.5240  143.8990 C   0  0  1  0  0  3  0  0  0  0  0  0
  189.4800  177.0810  145.9110 C   0  0  0  0  0  0  0  0  0  0  0  0
  194.9060  173.8070  141.5680 C   0  0  0  0  0  0  0  0  0  0  0  0
  189.5530  175.6230  145.6650 C   0  0  0  0  0  0  0  0  0  0  0  0
  193.8720  173.8780  142.5970 C   0  0  0  0  0  0  0  0  0  0  0  0
  194.0440  176.0970  141.5760 C   0  0  0  0  0  2  0  0  0  0  0  0
  192.3480  175.6680  143.3130 C   0  0  0  0  0  0  0  0  0  0  0  0
  193.3790  175.2570  142.6210 C   0  0  0  0  0  0  0  0  0  0  0  0
  191.3130  176.0800  143.9880 C   0  0  0  0  0  0  0  0  0  0  0  0
  193.7120  169.2800  144.0010 C   0  0  1  0  0  3  0  0  0  0  0  0
  194.8470  169.9550  144.7490 C   0  0  2  0  0  3  0  0  0  0  0  0
  193.9670  171.4950  143.3540 C   0  0  1  0  0  3  0  0  0  0  0  0
  194.9320  171.3090  144.3630 O   0  0  0  0  0  0  0  0  0  0  0  0
  191.9480  170.8170  144.4610 O   0  0  0  0  0  1  0  0  0  0  0  0
  192.9850  168.4470  144.8540 O   0  0  0  0  0  1  0  0  0  0  0  0
  192.8920  170.4350  143.4990 C   0  0  2  0  0  3  0  0  0  0  0  0
  196.8290  169.4940  143.2800 C   0  0  0  0  0  3  0  0  0  0  0  0
  197.9340  168.9270  143.0650 O   0  0  0  0  0  0  0  0  0  0  0  0
  196.1140  169.2750  144.5040 N   0  0  0  0  0  0  0  0  0  0  0  0
  196.6830  168.4530  145.5620 C   0  0  0  0  0  2  0  0  0  0  0  0
  195.8530  168.5680  146.8320 C   0  0  0  0  0  2  0  0  0  0  0  0
  196.6890  168.7430  147.9360 O   0  0  0  0  0  1  0  0  0  0  0  0
  188.7370  177.7660  142.7510 C   0  0  0  0  0  3  0  0  0  0  0  0
  190.0680  177.7690  142.6750 C   0  0  0  0  0  3  0  0  0  0  0  0
  187.9140  178.0100  141.5310 C   0  0  0  0  0  2  0  0  0  0  0  0
  186.9720  176.8400  141.2880 C   0  0  0  0  0  2  0  0  0  0  0  0
  188.2690  174.2780  138.6710 C   0  0  0  0  0  1  0  0  0  0  0  0
  187.2820  176.1630  139.9880 C   0  0  0  0  0  0  0  0  0  0  0  0
  188.0730  174.9650  139.9440 N   0  0  0  0  0  0  0  0  0  0  0  0
  186.8130  176.6520  138.9250 O   0  0  0  0  0  0  0  0  0  0  0  0
  187.8140  173.4100  141.8490 C   0  0  0  0  0  1  0  0  0  0  0  0
  188.6950  174.4470  141.1650 C   0  0  1  0  0  3  0  0  0  0  0  0
  190.1230  173.9530  140.9180 C   0  0  0  0  0  2  0  0  0  0  0  0
  190.8060  171.8940  138.9790 O   0  0  0  0  0  0  0  0  0  0  0  0
  190.8400  170.3690  140.6920 O   0  0  0  0  0  1  0  0  0  0  0  0
  190.2830  172.5490  141.2800 N   0  0  0  0  0  2  0  0  0  0  0  0
  190.6570  171.5580  140.3210 C   0  0  0  0  0  0  0  0  0  0  0  0
  188.6930  177.6190  147.0650 C   0  0  0  0  0  2  0  0  0  0  0  0
  187.1980  177.3830  146.8630 C   0  0  1  0  0  3  0  0  0  0  0  0
  187.1830  179.2720  148.5500 C   0  0  0  0  0  1  0  0  0  0  0  0
  186.3740  178.1730  147.8790 C   0  0  0  0  0  2  0  0  0  0  0  0
  186.7750  177.7040  145.4330 C   0  0  0  0  0  2  0  0  0  0  0  0
  185.8720  178.9330  145.3950 C   0  0  0  0  0  2  0  0  0  0  0  0
  185.8480  179.5750  144.0150 C   0  0  0  0  0  2  0  0  0  0  0  0
  183.7530  178.4530  144.0820 O   0  0  0  0  0  1  0  0  0  0  0  0
  184.6430  179.0970  143.2240 C   0  0  0  0  0  2  0  0  0  0  0  0
  1 11  1  0  0  0  0
  2 10  2  0  0  0  0
  3  9  2  0  0  0  0
  4 10  1  0  0  0  0
  4 13  1  0  0  0  0
  7  4  2  0  0  0  0
  8 31  1  6  0  0  0
  8 16  1  0  0  0  0
  8  3  1  0  0  0  0
  9 45  1  0  0  0  0
 10 12  1  0  0  0  0
 11  9  1  0  0  0  0
 11  5  2  0  0  0  0
 12 15  1  0  0  0  0
 12  6  2  0  0  0  0
 13 15  1  0  0  0  0
 14 16  2  0  0  0  0
 15 14  2  0  0  0  0
 16  1  1  0  0  0  0
 17 18  1  0  0  0  0
 17 22  1  1  0  0  0
 18 26  1  6  0  0  0
 19  6  1  1  0  0  0
 19 23  1  0  0  0  0
 19 20  1  0  0  0  0
 20 18  1  0  0  0  0
 23 17  1  0  0  0  0
 23 21  1  1  0  0  0
 24 26  1  0  0  0  0
 25 24  2  0  0  0  0
 26 27  1  0  0  0  0
 27 28  1  0  0  0  0
 28 29  1  0  0  0  0
 31 30  2  0  0  0  0
 32 30  1  0  0  0  0
 33 32  1  0  0  0  0
 34 36  1  0  0  0  0
 35 33  1  0  0  0  0
 36 35  1  0  0  0  0
 36 39  1  0  0  0  0
 37 35  2  0  0  0  0
 39 38  1  6  0  0  0
 40 39  1  0  0  0  0
 40 43  1  0  0  0  0
 41 44  2  0  0  0  0
 44 42  1  0  0  0  0
 44 43  1  0  0  0  0
 46 49  1  6  0  0  0
 46 45  1  0  0  0  0
 46 48  1  0  0  0  0
 48 47  1  0  0  0  0
 50 49  1  0  0  0  0
 51 50  1  0  0  0  0
 53 51  1  0  0  0  0
 53 52  1  0  0  0  0
M  END
>  <MODEL>
4

>  <REMARK>
 VINA RESULT:      -6.5      1.344      2.056
  Name = 
  18 active torsions:
  status: ('A' for Active; 'I' for Inactive)
    1  A    between atoms: C_1  and  C_47
    2  A    between atoms: C_1  and  N_48
    3  A    between atoms: C_6  and  C_16
    4  A    between atoms: C_6  and  C_26
    5  A    between atoms: C_9  and  C_41
    6  A    between atoms: C_9  and  C_44
    7  A    between atoms: C_9  and  C_50
    8  A    between atoms: C_12  and  N_48
    9  A    between atoms: C_14  and  C_19
   10  A    between atoms: C_16  and  C_18
   11  A    between atoms: C_17  and  C_22
   12  A    between atoms: C_20  and  N_27
   13  A    between atoms: C_20  and  C_31
   14  A    between atoms: C_21  and  C_50
   15  A    between atoms: C_30  and  C_38
   16  A    between atoms: C_31  and  N_42
   17  A    between atoms: C_38  and  C_51
   18  A    between atoms: C_44  and  C_51
                            x       y       z     vdW  Elec       q    Type
                         _______ _______ _______ _____ _____    ______ ____

>  <TORSDO>
F 18

$$$$
=
 OpenBabel11042415063D

 53 55  0  0  1  0  0  0  0  0999 V2000
  189.7150  176.4350  142.5640 C   0  0  0  0  0  2  0  0  0  0  0  0
  192.9400  170.8780  141.4960 N   0  0  0  0  0  2  0  0  0  0  0  0
  188.2920  176.9160  145.0980 C   0  0  0  0  0  3  0  0  0  0  0  0
  192.2850  171.3210  143.7820 C   0  0  0  0  0  0  0  0  0  0  0  0
  188.2510  178.1110  141.7210 O   0  0  0  0  0  0  0  0  0  0  0  0
  190.9450  173.0900  140.8830 C   0  0  0  0  0  3  0  0  0  0  0  0
  193.0070  170.4660  144.3590 O   0  0  0  0  0  0  0  0  0  0  0  0
  189.4360  175.9410  145.0920 C   0  0  1  0  0  3  0  0  0  0  0  0
  187.9260  177.6220  144.0230 C   0  0  0  0  0  0  0  0  0  0  0  0
  192.1120  171.4050  142.3390 C   0  0  0  0  0  0  0  0  0  0  0  0
  188.5980  177.4250  142.7180 C   0  0  0  0  0  0  0  0  0  0  0  0
  191.2990  172.5880  142.0710 C   0  0  0  0  0  0  0  0  0  0  0  0
  191.5340  172.3940  144.5010 C   0  0  0  0  0  2  0  0  0  0  0  0
  190.3230  174.3080  143.5300 C   0  0  0  0  0  0  0  0  0  0  0  0
  190.9280  173.1610  143.3680 C   0  0  0  0  0  0  0  0  0  0  0  0
  189.7330  175.4580  143.6980 C   0  0  0  0  0  0  0  0  0  0  0  0
  190.9310  172.3300  137.2880 C   0  0  1  0  0  3  0  0  0  0  0  0
  190.4610  171.0820  138.0120 C   0  0  2  0  0  3  0  0  0  0  0  0
  191.3180  172.4690  139.5720 C   0  0  1  0  0  3  0  0  0  0  0  0
  190.6690  171.2320  139.4000 O   0  0  0  0  0  0  0  0  0  0  0  0
  189.7740  173.9930  138.5460 O   0  0  0  0  0  1  0  0  0  0  0  0
  190.0230  172.6920  136.2900 O   0  0  0  0  0  1  0  0  0  0  0  0
  191.0120  173.3570  138.3820 C   0  0  2  0  0  3  0  0  0  0  0  0
  190.9970  169.4800  136.1550 C   0  0  0  0  0  3  0  0  0  0  0  0
  191.6050  168.4690  135.7130 O   0  0  0  0  0  0  0  0  0  0  0  0
  191.1530  169.8970  137.5190 N   0  0  0  0  0  0  0  0  0  0  0  0
  192.0780  169.2070  138.4060 C   0  0  0  0  0  2  0  0  0  0  0  0
  193.5030  169.6860  138.1700 C   0  0  0  0  0  2  0  0  0  0  0  0
  194.2960  168.6280  137.7230 O   0  0  0  0  0  1  0  0  0  0  0  0
  191.5640  175.8400  146.3170 C   0  0  0  0  0  3  0  0  0  0  0  0
  190.6410  176.5840  145.7070 C   0  0  0  0  0  3  0  0  0  0  0  0
  192.7640  176.4820  146.9290 C   0  0  0  0  0  2  0  0  0  0  0  0
  194.0220  175.7120  146.5560 C   0  0  0  0  0  2  0  0  0  0  0  0
  196.1960  176.5310  143.4410 C   0  0  0  0  0  1  0  0  0  0  0  0
  194.8230  176.4570  145.5320 C   0  0  0  0  0  0  0  0  0  0  0  0
  195.5110  175.7650  144.4780 N   0  0  0  0  0  0  0  0  0  0  0  0
  194.8640  177.7160  145.5970 O   0  0  0  0  0  0  0  0  0  0  0  0
  195.1220  173.7510  143.0970 C   0  0  0  0  0  1  0  0  0  0  0  0
  195.5400  174.3010  144.4540 C   0  0  1  0  0  3  0  0  0  0  0  0
  196.8820  173.7450  144.9400 C   0  0  0  0  0  2  0  0  0  0  0  0
  197.9280  171.1320  144.2010 O   0  0  0  0  0  0  0  0  0  0  0  0
  197.1400  170.3140  146.1940 O   0  0  0  0  0  1  0  0  0  0  0  0
  196.7100  172.5610  145.7730 N   0  0  0  0  0  2  0  0  0  0  0  0
  197.2640  171.2940  145.4140 C   0  0  0  0  0  0  0  0  0  0  0  0
  186.8080  178.6090  144.1600 C   0  0  0  0  0  2  0  0  0  0  0  0
  185.4530  177.9040  144.1310 C   0  0  1  0  0  3  0  0  0  0  0  0
  184.6430  178.2550  141.7560 C   0  0  0  0  0  1  0  0  0  0  0  0
  185.1960  177.2630  142.7680 C   0  0  0  0  0  2  0  0  0  0  0  0
  185.3360  176.8830  145.2580 C   0  0  0  0  0  2  0  0  0  0  0  0
  184.8560  177.5440  146.5460 C   0  0  0  0  0  2  0  0  0  0  0  0
  185.8170  177.3000  147.7000 C   0  0  0  0  0  2  0  0  0  0  0  0
  185.9110  179.6760  147.6630 O   0  0  0  0  0  1  0  0  0  0  0  0
  186.6560  178.5370  147.9670 C   0  0  0  0  0  2  0  0  0  0  0  0
  1 11  1  0  0  0  0
  1 16  1  0  0  0  0
  2 10  2  0  0  0  0
  4  7  2  0  0  0  0
  4 13  1  0  0  0  0
  5 11  2  0  0  0  0
  6 12  2  0  0  0  0
  8  3  1  0  0  0  0
  8 31  1  6  0  0  0
  9 45  1  0  0  0  0
  9  3  2  0  0  0  0
 10  4  1  0  0  0  0
 11  9  1  0  0  0  0
 12 10  1  0  0  0  0
 12 15  1  0  0  0  0
 14 16  2  0  0  0  0
 15 14  2  0  0  0  0
 15 13  1  0  0  0  0
 16  8  1  0  0  0  0
 17 22  1  6  0  0  0
 17 18  1  0  0  0  0
 17 23  1  0  0  0  0
 18 26  1  6  0  0  0
 18 20  1  0  0  0  0
 19  6  1  1  0  0  0
 20 19  1  0  0  0  0
 23 21  1  1  0  0  0
 23 19  1  0  0  0  0
 24 26  1  0  0  0  0
 25 24  2  0  0  0  0
 26 27  1  0  0  0  0
 28 27  1  0  0  0  0
 29 28  1  0  0  0  0
 30 32  1  0  0  0  0
 31 30  2  0  0  0  0
 33 32  1  0  0  0  0
 34 36  1  0  0  0  0
 35 37  2  0  0  0  0
 35 33  1  0  0  0  0
 36 35  1  0  0  0  0
 39 38  1  6  0  0  0
 39 36  1  0  0  0  0
 39 40  1  0  0  0  0
 40 43  1  0  0  0  0
 41 44  2  0  0  0  0
 44 43  1  0  0  0  0
 44 42  1  0  0  0  0
 46 48  1  6  0  0  0
 46 45  1  0  0  0  0
 46 49  1  0  0  0  0
 47 48  1  0  0  0  0
 49 50  1  0  0  0  0
 50 51  1  0  0  0  0
 51 53  1  0  0  0  0
 52 53  1  0  0  0  0
M  END
>  <MODEL>
5

>  <REMARK>
 VINA RESULT:      -6.5      2.655      6.581
  Name = 
  18 active torsions:
  status: ('A' for Active; 'I' for Inactive)
    1  A    between atoms: C_1  and  C_47
    2  A    between atoms: C_1  and  N_48
    3  A    between atoms: C_6  and  C_16
    4  A    between atoms: C_6  and  C_26
    5  A    between atoms: C_9  and  C_41
    6  A    between atoms: C_9  and  C_44
    7  A    between atoms: C_9  and  C_50
    8  A    between atoms: C_12  and  N_48
    9  A    between atoms: C_14  and  C_19
   10  A    between atoms: C_16  and  C_18
   11  A    between atoms: C_17  and  C_22
   12  A    between atoms: C_20  and  N_27
   13  A    between atoms: C_20  and  C_31
   14  A    between atoms: C_21  and  C_50
   15  A    between atoms: C_30  and  C_38
   16  A    between atoms: C_31  and  N_42
   17  A    between atoms: C_38  and  C_51
   18  A    between atoms: C_44  and  C_51
                            x       y       z     vdW  Elec       q    Type
                         _______ _______ _______ _____ _____    ______ ____

>  <TORSDO>
F 18

$$$$
=
 OpenBabel11042415063D

 53 55  0  0  1  0  0  0  0  0999 V2000
  189.6980  176.2120  142.9930 C   0  0  0  0  0  2  0  0  0  0  0  0
  192.2670  170.8480  140.3380 N   0  0  0  0  0  2  0  0  0  0  0  0
  188.3870  176.1370  145.6300 C   0  0  0  0  0  3  0  0  0  0  0  0
  191.7090  170.7250  142.6880 C   0  0  0  0  0  0  0  0  0  0  0  0
  188.4120  178.1920  142.6960 O   0  0  0  0  0  0  0  0  0  0  0  0
  190.5170  173.3330  140.4290 C   0  0  0  0  0  3  0  0  0  0  0  0
  192.3440  169.6780  142.9820 O   0  0  0  0  0  0  0  0  0  0  0  0
  189.4150  175.0880  145.3110 C   0  0  1  0  0  3  0  0  0  0  0  0
  188.0800  177.1390  144.7990 C   0  0  0  0  0  0  0  0  0  0  0  0
  191.5190  171.2110  141.3290 C   0  0  0  0  0  0  0  0  0  0  0  0
  188.7010  177.2320  143.4580 C   0  0  0  0  0  0  0  0  0  0  0  0
  190.8370  172.4980  141.4240 C   0  0  0  0  0  0  0  0  0  0  0  0
  191.0960  171.6360  143.7010 C   0  0  0  0  0  2  0  0  0  0  0  0
  190.0850  173.8530  143.3310 C   0  0  0  0  0  0  0  0  0  0  0  0
  190.5560  172.7360  142.8420 C   0  0  0  0  0  0  0  0  0  0  0  0
  189.6300  174.9700  143.8260 C   0  0  0  0  0  0  0  0  0  0  0  0
  192.0580  173.5370  137.1000 C   0  0  1  0  0  3  0  0  0  0  0  0
  190.6400  174.0580  136.9700 C   0  0  2  0  0  3  0  0  0  0  0  0
  190.7930  173.0530  138.9840 C   0  0  1  0  0  3  0  0  0  0  0  0
  189.9240  173.7870  138.1550 O   0  0  0  0  0  0  0  0  0  0  0  0
  192.6720  174.5340  139.1770 O   0  0  0  0  0  1  0  0  0  0  0  0
  192.9720  174.4570  136.5790 O   0  0  0  0  0  1  0  0  0  0  0  0
  192.2250  173.3470  138.5810 C   0  0  2  0  0  3  0  0  0  0  0  0
  189.6290  172.0690  135.8200 C   0  0  0  0  0  3  0  0  0  0  0  0
  189.0300  171.5480  134.8410 O   0  0  0  0  0  0  0  0  0  0  0  0
  189.9650  173.4630  135.8210 N   0  0  0  0  0  0  0  0  0  0  0  0
  189.5550  174.3290  134.7250 C   0  0  0  0  0  2  0  0  0  0  0  0
  188.9940  175.6380  135.2600 C   0  0  0  0  0  2  0  0  0  0  0  0
  187.7700  175.4110  135.8920 O   0  0  0  0  0  1  0  0  0  0  0  0
  191.7450  174.5980  145.9230 C   0  0  0  0  0  3  0  0  0  0  0  0
  190.6960  175.4170  146.0150 C   0  0  0  0  0  3  0  0  0  0  0  0
  193.0200  174.9270  146.6250 C   0  0  0  0  0  2  0  0  0  0  0  0
  194.0060  175.5630  145.6560 C   0  0  0  0  0  2  0  0  0  0  0  0
  196.9390  173.8980  143.7270 C   0  0  0  0  0  1  0  0  0  0  0  0
  195.0110  174.5600  145.1780 C   0  0  0  0  0  0  0  0  0  0  0  0
  195.9060  174.8610  144.0960 N   0  0  0  0  0  0  0  0  0  0  0  0
  195.0760  173.4450  145.7640 O   0  0  0  0  0  0  0  0  0  0  0  0
  197.1180  176.7980  143.1510 C   0  0  0  0  0  1  0  0  0  0  0  0
  195.7710  176.1180  143.3570 C   0  0  1  0  0  3  0  0  0  0  0  0
  194.9840  175.9390  142.0550 C   0  0  0  0  0  2  0  0  0  0  0  0
  195.8190  173.7570  140.3210 O   0  0  0  0  0  1  0  0  0  0  0  0
  196.8680  175.2960  138.9820 O   0  0  0  0  0  0  0  0  0  0  0  0
  195.8220  176.1410  140.8800 N   0  0  0  0  0  2  0  0  0  0  0  0
  196.1910  175.0640  140.0170 C   0  0  0  0  0  0  0  0  0  0  0  0
  187.0810  178.1600  145.2470 C   0  0  0  0  0  2  0  0  0  0  0  0
  185.6550  177.6510  145.0490 C   0  0  1  0  0  3  0  0  0  0  0  0
  185.2170  178.6880  147.3180 C   0  0  0  0  0  1  0  0  0  0  0  0
  184.9260  177.5220  146.3860 C   0  0  0  0  0  2  0  0  0  0  0  0
  184.8810  178.5360  144.0760 C   0  0  0  0  0  2  0  0  0  0  0  0
  184.4230  177.7390  142.8600 C   0  0  0  0  0  2  0  0  0  0  0  0
  185.0160  178.2840  141.5690 C   0  0  0  0  0  2  0  0  0  0  0  0
  182.7380  177.9190  140.9930 O   0  0  0  0  0  1  0  0  0  0  0  0
  183.9410  178.4280  140.5060 C   0  0  0  0  0  2  0  0  0  0  0  0
  1 11  1  0  0  0  0
  1 16  1  0  0  0  0
  2 10  2  0  0  0  0
  4  7  2  0  0  0  0
  4 13  1  0  0  0  0
  5 11  2  0  0  0  0
  6 12  2  0  0  0  0
  8  3  1  0  0  0  0
  8 31  1  1  0  0  0
  9 45  1  0  0  0  0
  9  3  2  0  0  0  0
 10 12  1  0  0  0  0
 10  4  1  0  0  0  0
 11  9  1  0  0  0  0
 12 15  1  0  0  0  0
 14 16  2  0  0  0  0
 15 14  2  0  0  0  0
 15 13  1  0  0  0  0
 16  8  1  0  0  0  0
 17 22  1  1  0  0  0
 17 23  1  0  0  0  0
 18 26  1  6  0  0  0
 18 17  1  0  0  0  0
 18 20  1  0  0  0  0
 19  6  1  1  0  0  0
 20 19  1  0  0  0  0
 23 19  1  0  0  0  0
 23 21  1  1  0  0  0
 24 26  1  0  0  0  0
 25 24  2  0  0  0  0
 27 28  1  0  0  0  0
 27 26  1  0  0  0  0
 28 29  1  0  0  0  0
 30 31  2  0  0  0  0
 30 32  1  0  0  0  0
 33 32  1  0  0  0  0
 34 36  1  0  0  0  0
 35 33  1  0  0  0  0
 35 37  2  0  0  0  0
 36 35  1  0  0  0  0
 39 38  1  6  0  0  0
 39 36  1  0  0  0  0
 40 39  1  0  0  0  0
 42 44  2  0  0  0  0
 43 40  1  0  0  0  0
 44 41  1  0  0  0  0
 44 43  1  0  0  0  0
 46 49  1  6  0  0  0
 46 45  1  0  0  0  0
 46 48  1  0  0  0  0
 48 47  1  0  0  0  0
 50 49  1  0  0  0  0
 51 50  1  0  0  0  0
 53 52  1  0  0  0  0
 53 51  1  0  0  0  0
M  END
>  <MODEL>
6

>  <REMARK>
 VINA RESULT:      -6.3      2.936      7.225
  Name = 
  18 active torsions:
  status: ('A' for Active; 'I' for Inactive)
    1  A    between atoms: C_1  and  C_47
    2  A    between atoms: C_1  and  N_48
    3  A    between atoms: C_6  and  C_16
    4  A    between atoms: C_6  and  C_26
    5  A    between atoms: C_9  and  C_41
    6  A    between atoms: C_9  and  C_44
    7  A    between atoms: C_9  and  C_50
    8  A    between atoms: C_12  and  N_48
    9  A    between atoms: C_14  and  C_19
   10  A    between atoms: C_16  and  C_18
   11  A    between atoms: C_17  and  C_22
   12  A    between atoms: C_20  and  N_27
   13  A    between atoms: C_20  and  C_31
   14  A    between atoms: C_21  and  C_50
   15  A    between atoms: C_30  and  C_38
   16  A    between atoms: C_31  and  N_42
   17  A    between atoms: C_38  and  C_51
   18  A    between atoms: C_44  and  C_51
                            x       y       z     vdW  Elec       q    Type
                         _______ _______ _______ _____ _____    ______ ____

>  <TORSDO>
F 18

$$$$
=
 OpenBabel11042415063D

 53 55  0  0  1  0  0  0  0  0999 V2000
  192.4230  173.2610  143.8680 C   0  0  0  0  0  2  0  0  0  0  0  0
  187.5520  176.5330  141.0410 N   0  0  0  0  0  2  0  0  0  0  0  0
  193.1630  170.5510  142.9820 C   0  0  0  0  0  3  0  0  0  0  0  0
  188.3580  174.5760  139.8700 C   0  0  0  0  0  0  0  0  0  0  0  0
  193.5270  172.6270  145.8790 O   0  0  0  0  0  0  0  0  0  0  0  0
  189.1090  175.3340  143.3610 C   0  0  0  0  0  3  0  0  0  0  0  0
  187.8220  174.7880  138.7500 O   0  0  0  0  0  0  0  0  0  0  0  0
  192.4680  171.4590  142.0070 C   0  0  1  0  0  3  0  0  0  0  0  0
  193.5160  170.9320  144.2150 C   0  0  0  0  0  0  0  0  0  0  0  0
  188.0750  175.3510  141.0700 C   0  0  0  0  0  0  0  0  0  0  0  0
  193.1710  172.2800  144.7220 C   0  0  0  0  0  0  0  0  0  0  0  0
  188.9730  174.8680  142.1150 C   0  0  0  0  0  0  0  0  0  0  0  0
  189.3870  173.5220  140.1120 C   0  0  0  0  0  2  0  0  0  0  0  0
  190.7410  173.1610  142.1390 C   0  0  0  0  0  0  0  0  0  0  0  0
  189.7360  173.7520  141.5490 C   0  0  0  0  0  0  0  0  0  0  0  0
  191.7530  172.5770  142.7170 C   0  0  0  0  0  0  0  0  0  0  0  0
  187.7800  177.7770  145.7620 C   0  0  1  0  0  3  0  0  0  0  0  0
  186.6510  176.8220  145.4230 C   0  0  2  0  0  3  0  0  0  0  0  0
  188.2970  176.4600  143.9230 C   0  0  1  0  0  3  0  0  0  0  0  0
  187.0290  176.0080  144.3330 O   0  0  0  0  0  0  0  0  0  0  0  0
  189.5870  176.2290  145.9340 O   0  0  0  0  0  1  0  0  0  0  0  0
  187.9480  177.8700  147.1460 O   0  0  0  0  0  1  0  0  0  0  0  0
  188.9720  177.1600  145.0860 C   0  0  2  0  0  3  0  0  0  0  0  0
  184.7550  178.3060  146.1310 C   0  0  0  0  0  3  0  0  0  0  0  0
  183.7050  178.9530  145.8720 O   0  0  0  0  0  0  0  0  0  0  0  0
  185.4250  177.5480  145.1140 N   0  0  0  0  0  0  0  0  0  0  0  0
  184.9510  177.5690  143.7380 C   0  0  0  0  0  2  0  0  0  0  0  0
  185.0300  178.9780  143.1680 C   0  0  0  0  0  2  0  0  0  0  0  0
  186.3610  179.3300  142.9440 O   0  0  0  0  0  1  0  0  0  0  0  0
  193.2080  171.9750  139.7200 C   0  0  0  0  0  3  0  0  0  0  0  0
  193.4670  171.9960  141.0280 C   0  0  0  0  0  3  0  0  0  0  0  0
  194.2040  172.5090  138.7470 C   0  0  0  0  0  2  0  0  0  0  0  0
  194.0550  174.0180  138.6160 C   0  0  0  0  0  2  0  0  0  0  0  0
  197.2940  175.6810  139.9740 C   0  0  0  0  0  1  0  0  0  0  0  0
  195.3900  174.6960  138.6830 C   0  0  0  0  0  0  0  0  0  0  0  0
  195.9480  175.1170  139.9380 N   0  0  0  0  0  0  0  0  0  0  0  0
  196.0340  174.8690  137.6130 O   0  0  0  0  0  0  0  0  0  0  0  0
  195.9350  174.2690  142.2610 C   0  0  0  0  0  1  0  0  0  0  0  0
  195.1630  175.0000  141.1690 C   0  0  1  0  0  3  0  0  0  0  0  0
  194.6070  176.3510  141.6290 C   0  0  0  0  0  2  0  0  0  0  0  0
  192.0190  177.1240  142.7080 O   0  0  0  0  0  0  0  0  0  0  0  0
  192.8130  176.6480  144.8070 O   0  0  0  0  0  1  0  0  0  0  0  0
  194.3200  176.3630  143.0580 N   0  0  0  0  0  2  0  0  0  0  0  0
  193.0310  176.7080  143.5690 C   0  0  0  0  0  0  0  0  0  0  0  0
  194.2570  169.9610  145.0800 C   0  0  0  0  0  2  0  0  0  0  0  0
  195.7600  170.0350  144.8190 C   0  0  1  0  0  3  0  0  0  0  0  0
  196.7370  169.5990  142.5220 C   0  0  0  0  0  1  0  0  0  0  0  0
  196.0500  170.6070  143.4320 C   0  0  0  0  0  2  0  0  0  0  0  0
  196.4730  170.8290  145.9090 C   0  0  0  0  0  2  0  0  0  0  0  0
  197.0470  172.1270  145.3500 C   0  0  0  0  0  2  0  0  0  0  0  0
  196.8230  173.2980  146.2970 C   0  0  0  0  0  2  0  0  0  0  0  0
  195.3430  175.1520  146.1360 O   0  0  0  0  0  1  0  0  0  0  0  0
  196.4370  174.5450  145.5210 C   0  0  0  0  0  2  0  0  0  0  0  0
  1 11  1  0  0  0  0
  2 10  2  0  0  0  0
  3  9  2  0  0  0  0
  4 13  1  0  0  0  0
  4 10  1  0  0  0  0
  7  4  2  0  0  0  0
  8 31  1  6  0  0  0
  8 16  1  0  0  0  0
  8  3  1  0  0  0  0
  9 11  1  0  0  0  0
  9 45  1  0  0  0  0
 10 12  1  0  0  0  0
 11  5  2  0  0  0  0
 12  6  2  0  0  0  0
 13 15  1  0  0  0  0
 14 16  2  0  0  0  0
 15 12  1  0  0  0  0
 15 14  2  0  0  0  0
 16  1  1  0  0  0  0
 17 22  1  1  0  0  0
 18 26  1  6  0  0  0
 18 17  1  0  0  0  0
 19  6  1  1  0  0  0
 19 20  1  0  0  0  0
 19 23  1  0  0  0  0
 20 18  1  0  0  0  0
 23 17  1  0  0  0  0
 23 21  1  1  0  0  0
 25 24  2  0  0  0  0
 26 24  1  0  0  0  0
 27 26  1  0  0  0  0
 28 27  1  0  0  0  0
 29 28  1  0  0  0  0
 30 31  2  0  0  0  0
 32 30  1  0  0  0  0
 33 35  1  0  0  0  0
 33 32  1  0  0  0  0
 35 36  1  0  0  0  0
 36 34  1  0  0  0  0
 36 39  1  0  0  0  0
 37 35  2  0  0  0  0
 39 40  1  0  0  0  0
 39 38  1  1  0  0  0
 40 43  1  0  0  0  0
 41 44  2  0  0  0  0
 43 44  1  0  0  0  0
 44 42  1  0  0  0  0
 46 48  1  6  0  0  0
 46 45  1  0  0  0  0
 46 49  1  0  0  0  0
 47 48  1  0  0  0  0
 50 49  1  0  0  0  0
 50 51  1  0  0  0  0
 53 52  1  0  0  0  0
 53 51  1  0  0  0  0
M  END
>  <MODEL>
7

>  <REMARK>
 VINA RESULT:      -6.3      2.703      9.581
  Name = 
  18 active torsions:
  status: ('A' for Active; 'I' for Inactive)
    1  A    between atoms: C_1  and  C_47
    2  A    between atoms: C_1  and  N_48
    3  A    between atoms: C_6  and  C_16
    4  A    between atoms: C_6  and  C_26
    5  A    between atoms: C_9  and  C_41
    6  A    between atoms: C_9  and  C_44
    7  A    between atoms: C_9  and  C_50
    8  A    between atoms: C_12  and  N_48
    9  A    between atoms: C_14  and  C_19
   10  A    between atoms: C_16  and  C_18
   11  A    between atoms: C_17  and  C_22
   12  A    between atoms: C_20  and  N_27
   13  A    between atoms: C_20  and  C_31
   14  A    between atoms: C_21  and  C_50
   15  A    between atoms: C_30  and  C_38
   16  A    between atoms: C_31  and  N_42
   17  A    between atoms: C_38  and  C_51
   18  A    between atoms: C_44  and  C_51
                            x       y       z     vdW  Elec       q    Type
                         _______ _______ _______ _____ _____    ______ ____

>  <TORSDO>
F 18

$$$$
=
 OpenBabel11042415063D

 53 55  0  0  1  0  0  0  0  0999 V2000
  193.7930  174.9930  142.2670 C   0  0  0  0  0  2  0  0  0  0  0  0
  189.3780  175.8930  146.9690 N   0  0  0  0  0  2  0  0  0  0  0  0
  196.5190  176.0830  142.4980 C   0  0  0  0  0  3  0  0  0  0  0  0
  191.6750  176.3890  147.5400 C   0  0  0  0  0  0  0  0  0  0  0  0
  194.2800  174.9600  139.9380 O   0  0  0  0  0  0  0  0  0  0  0  0
  190.4550  175.9570  144.1270 C   0  0  0  0  0  3  0  0  0  0  0  0
  191.5550  176.4430  148.7930 O   0  0  0  0  0  0  0  0  0  0  0  0
  195.7430  175.8200  143.7590 C   0  0  1  0  0  3  0  0  0  0  0  0
  196.0560  175.7910  141.2780 C   0  0  0  0  0  0  0  0  0  0  0  0
  190.5540  176.2970  146.6160 C   0  0  0  0  0  0  0  0  0  0  0  0
  194.6930  175.2440  141.0930 C   0  0  0  0  0  0  0  0  0  0  0  0
  191.1140  176.1430  145.2760 C   0  0  0  0  0  0  0  0  0  0  0  0
  192.9900  176.3750  146.8320 C   0  0  0  0  0  2  0  0  0  0  0  0
  193.4180  175.9820  144.4370 C   0  0  0  0  0  0  0  0  0  0  0  0
  192.5710  176.2220  145.4030 C   0  0  0  0  0  0  0  0  0  0  0  0
  194.2670  175.7300  143.4810 C   0  0  0  0  0  0  0  0  0  0  0  0
  187.0850  176.0780  142.6680 C   0  0  1  0  0  3  0  0  0  0  0  0
  187.2130  177.2690  143.5990 C   0  0  2  0  0  3  0  0  0  0  0  0
  188.9610  175.9070  144.0220 C   0  0  1  0  0  3  0  0  0  0  0  0
  188.3920  177.1470  144.3660 O   0  0  0  0  0  0  0  0  0  0  0  0
  189.2400  176.1240  141.6480 O   0  0  0  0  0  1  0  0  0  0  0  0
  186.6610  176.4870  141.4010 O   0  0  0  0  0  1  0  0  0  0  0  0
  188.4730  175.5040  142.6440 C   0  0  2  0  0  3  0  0  0  0  0  0
  186.1600  177.0870  145.8710 C   0  0  0  0  0  3  0  0  0  0  0  0
  185.1660  177.1970  146.6370 O   0  0  0  0  0  0  0  0  0  0  0  0
  186.0490  177.3800  144.4710 N   0  0  0  0  0  0  0  0  0  0  0  0
  184.8030  177.8870  143.9140 C   0  0  0  0  0  2  0  0  0  0  0  0
  184.9540  179.3460  143.5090 C   0  0  0  0  0  2  0  0  0  0  0  0
  185.2330  180.1270  144.6300 O   0  0  0  0  0  1  0  0  0  0  0  0
  196.3650  174.4830  145.7250 C   0  0  0  0  0  3  0  0  0  0  0  0
  196.2470  174.5630  144.3990 C   0  0  0  0  0  3  0  0  0  0  0  0
  196.8670  173.2300  146.3610 C   0  0  0  0  0  2  0  0  0  0  0  0
  196.9990  172.1270  145.3220 C   0  0  0  0  0  2  0  0  0  0  0  0
  194.3480  169.2950  145.5460 C   0  0  0  0  0  1  0  0  0  0  0  0
  196.2610  170.8950  145.7510 C   0  0  0  0  0  0  0  0  0  0  0  0
  194.9880  170.5540  145.1780 N   0  0  0  0  0  0  0  0  0  0  0  0
  196.7910  170.1420  146.6110 O   0  0  0  0  0  0  0  0  0  0  0  0
  194.7520  171.2150  142.8070 C   0  0  0  0  0  1  0  0  0  0  0  0
  194.3290  171.4730  144.2470 C   0  0  1  0  0  3  0  0  0  0  0  0
  192.8090  171.4870  144.4320 C   0  0  0  0  0  2  0  0  0  0  0  0
  190.0710  172.4710  144.3650 O   0  0  0  0  0  1  0  0  0  0  0  0
  190.2420  172.6270  142.0830 O   0  0  0  0  0  0  0  0  0  0  0  0
  192.1120  171.7990  143.1900 N   0  0  0  0  0  2  0  0  0  0  0  0
  190.7810  172.3180  143.1770 C   0  0  0  0  0  0  0  0  0  0  0  0
  196.9410  176.0440  140.0970 C   0  0  0  0  0  2  0  0  0  0  0  0
  197.9160  174.8870  139.8890 C   0  0  1  0  0  3  0  0  0  0  0  0
  197.5210  172.5430  140.7640 C   0  0  0  0  0  1  0  0  0  0  0  0
  197.9410  173.9640  141.1070 C   0  0  0  0  0  2  0  0  0  0  0  0
  197.5960  174.1160  138.6130 C   0  0  0  0  0  2  0  0  0  0  0  0
  197.3940  175.0660  137.4370 C   0  0  0  0  0  2  0  0  0  0  0  0
  196.6890  174.3850  136.2730 C   0  0  0  0  0  2  0  0  0  0  0  0
  195.6350  176.4400  135.7050 O   0  0  0  0  0  1  0  0  0  0  0  0
  195.3840  175.0910  135.9530 C   0  0  0  0  0  2  0  0  0  0  0  0
  1 16  1  0  0  0  0
  3  8  1  0  0  0  0
  4  7  2  0  0  0  0
  5 11  2  0  0  0  0
  6 12  2  0  0  0  0
  8 31  1  6  0  0  0
  9  3  2  0  0  0  0
 10  2  2  0  0  0  0
 10  4  1  0  0  0  0
 11  9  1  0  0  0  0
 11  1  1  0  0  0  0
 12 15  1  0  0  0  0
 12 10  1  0  0  0  0
 13  4  1  0  0  0  0
 14 15  2  0  0  0  0
 15 13  1  0  0  0  0
 16  8  1  0  0  0  0
 16 14  2  0  0  0  0
 17 22  1  6  0  0  0
 17 18  1  0  0  0  0
 18 20  1  0  0  0  0
 18 26  1  1  0  0  0
 19  6  1  6  0  0  0
 19 20  1  0  0  0  0
 23 21  1  6  0  0  0
 23 17  1  0  0  0  0
 23 19  1  0  0  0  0
 24 25  2  0  0  0  0
 26 24  1  0  0  0  0
 27 26  1  0  0  0  0
 28 27  1  0  0  0  0
 28 29  1  0  0  0  0
 30 32  1  0  0  0  0
 31 30  2  0  0  0  0
 33 35  1  0  0  0  0
 33 32  1  0  0  0  0
 35 37  2  0  0  0  0
 36 34  1  0  0  0  0
 36 35  1  0  0  0  0
 39 38  1  6  0  0  0
 39 40  1  0  0  0  0
 39 36  1  0  0  0  0
 42 44  2  0  0  0  0
 43 40  1  0  0  0  0
 44 43  1  0  0  0  0
 44 41  1  0  0  0  0
 45  9  1  0  0  0  0
 46 49  1  6  0  0  0
 46 45  1  0  0  0  0
 46 48  1  0  0  0  0
 47 48  1  0  0  0  0
 50 49  1  0  0  0  0
 51 50  1  0  0  0  0
 52 53  1  0  0  0  0
 53 51  1  0  0  0  0
M  END
>  <MODEL>
8

>  <REMARK>
 VINA RESULT:      -6.2      2.866      9.657
  Name = 
  18 active torsions:
  status: ('A' for Active; 'I' for Inactive)
    1  A    between atoms: C_1  and  C_47
    2  A    between atoms: C_1  and  N_48
    3  A    between atoms: C_6  and  C_16
    4  A    between atoms: C_6  and  C_26
    5  A    between atoms: C_9  and  C_41
    6  A    between atoms: C_9  and  C_44
    7  A    between atoms: C_9  and  C_50
    8  A    between atoms: C_12  and  N_48
    9  A    between atoms: C_14  and  C_19
   10  A    between atoms: C_16  and  C_18
   11  A    between atoms: C_17  and  C_22
   12  A    between atoms: C_20  and  N_27
   13  A    between atoms: C_20  and  C_31
   14  A    between atoms: C_21  and  C_50
   15  A    between atoms: C_30  and  C_38
   16  A    between atoms: C_31  and  N_42
   17  A    between atoms: C_38  and  C_51
   18  A    between atoms: C_44  and  C_51
                            x       y       z     vdW  Elec       q    Type
                         _______ _______ _______ _____ _____    ______ ____

>  <TORSDO>
F 18

$$$$
=
 OpenBabel11042415063D

 53 55  0  0  1  0  0  0  0  0999 V2000
  189.6090  176.6800  142.7560 C   0  0  0  0  0  2  0  0  0  0  0  0
  192.9580  171.3160  141.1970 N   0  0  0  0  0  2  0  0  0  0  0  0
  188.3710  176.9940  145.4100 C   0  0  0  0  0  3  0  0  0  0  0  0
  192.4660  171.6350  143.5440 C   0  0  0  0  0  0  0  0  0  0  0  0
  188.0200  178.3260  142.1030 O   0  0  0  0  0  0  0  0  0  0  0  0
  190.8360  173.4640  140.8380 C   0  0  0  0  0  3  0  0  0  0  0  0
  193.2650  170.7870  144.0250 O   0  0  0  0  0  0  0  0  0  0  0  0
  189.5480  176.0690  145.2740 C   0  0  1  0  0  3  0  0  0  0  0  0
  187.8940  177.7280  144.3990 C   0  0  0  0  0  0  0  0  0  0  0  0
  192.1790  171.7710  142.1230 C   0  0  0  0  0  0  0  0  0  0  0  0
  188.4700  177.6150  143.0400 C   0  0  0  0  0  0  0  0  0  0  0  0
  191.3010  172.9280  141.9720 C   0  0  0  0  0  0  0  0  0  0  0  0
  191.7320  172.6430  144.3650 C   0  0  0  0  0  2  0  0  0  0  0  0
  190.3740  174.5430  143.5760 C   0  0  0  0  0  0  0  0  0  0  0  0
  191.0100  173.4300  143.3170 C   0  0  0  0  0  0  0  0  0  0  0  0
  189.7550  175.6590  143.8410 C   0  0  0  0  0  0  0  0  0  0  0  0
  190.4560  172.6870  137.2670 C   0  0  1  0  0  3  0  0  0  0  0  0
  190.3360  171.3790  138.0250 C   0  0  2  0  0  3  0  0  0  0  0  0
  191.1300  172.9150  139.4760 C   0  0  1  0  0  3  0  0  0  0  0  0
  190.7070  171.5760  139.3720 O   0  0  0  0  0  0  0  0  0  0  0  0
  189.1960  174.1110  138.7070 O   0  0  0  0  0  1  0  0  0  0  0  0
  189.3640  172.8640  136.4130 O   0  0  0  0  0  1  0  0  0  0  0  0
  190.4960  173.7200  138.3580 C   0  0  2  0  0  3  0  0  0  0  0  0
  192.5170  170.6240  137.0360 C   0  0  0  0  0  3  0  0  0  0  0  0
  193.2460  169.7320  136.5260 O   0  0  0  0  0  0  0  0  0  0  0  0
  191.1630  170.3420  137.4160 N   0  0  0  0  0  0  0  0  0  0  0  0
  190.6200  168.9970  137.2940 C   0  0  0  0  0  2  0  0  0  0  0  0
  190.4750  168.3540  138.6660 C   0  0  0  0  0  2  0  0  0  0  0  0
  191.7320  168.1700  139.2430 O   0  0  0  0  0  1  0  0  0  0  0  0
  191.8300  176.0120  146.1860 C   0  0  0  0  0  3  0  0  0  0  0  0
  190.7720  176.7370  145.8230 C   0  0  0  0  0  3  0  0  0  0  0  0
  193.0470  176.6790  146.7330 C   0  0  0  0  0  2  0  0  0  0  0  0
  194.0870  176.8610  145.6360 C   0  0  0  0  0  2  0  0  0  0  0  0
  196.9510  174.4600  144.5740 C   0  0  0  0  0  1  0  0  0  0  0  0
  195.0320  175.6980  145.5950 C   0  0  0  0  0  0  0  0  0  0  0  0
  195.9790  175.5480  144.5260 N   0  0  0  0  0  0  0  0  0  0  0  0
  194.9990  174.8600  146.5360 O   0  0  0  0  0  0  0  0  0  0  0  0
  197.3450  177.0140  143.0770 C   0  0  0  0  0  1  0  0  0  0  0  0
  195.9570  176.4690  143.3870 C   0  0  1  0  0  3  0  0  0  0  0  0
  195.2660  175.8560  142.1650 C   0  0  0  0  0  2  0  0  0  0  0  0
  196.0340  173.2020  141.2540 O   0  0  0  0  0  1  0  0  0  0  0  0
  197.2980  174.1920  139.6140 O   0  0  0  0  0  0  0  0  0  0  0  0
  196.1980  175.6390  141.0650 N   0  0  0  0  0  2  0  0  0  0  0  0
  196.5340  174.3290  140.6050 C   0  0  0  0  0  0  0  0  0  0  0  0
  186.7530  178.6590  144.6660 C   0  0  0  0  0  2  0  0  0  0  0  0
  185.4300  177.8970  144.7220 C   0  0  1  0  0  3  0  0  0  0  0  0
  185.6620  178.7820  147.0850 C   0  0  0  0  0  1  0  0  0  0  0  0
  184.8070  177.9810  146.1160 C   0  0  0  0  0  2  0  0  0  0  0  0
  184.4630  178.3870  143.6490 C   0  0  0  0  0  2  0  0  0  0  0  0
  184.6400  177.6000  142.3550 C   0  0  0  0  0  2  0  0  0  0  0  0
  184.4820  178.4860  141.1280 C   0  0  0  0  0  2  0  0  0  0  0  0
  182.2000  177.9400  141.5130 O   0  0  0  0  0  1  0  0  0  0  0  0
  183.1020  178.3110  140.5180 C   0  0  0  0  0  2  0  0  0  0  0  0
  1 11  1  0  0  0  0
  1 16  1  0  0  0  0
  2 10  2  0  0  0  0
  4  7  2  0  0  0  0
  4 13  1  0  0  0  0
  5 11  2  0  0  0  0
  6 12  2  0  0  0  0
  8  3  1  0  0  0  0
  8 31  1  6  0  0  0
  9 45  1  0  0  0  0
  9  3  2  0  0  0  0
 10  4  1  0  0  0  0
 11  9  1  0  0  0  0
 12 10  1  0  0  0  0
 12 15  1  0  0  0  0
 14 16  2  0  0  0  0
 15 14  2  0  0  0  0
 15 13  1  0  0  0  0
 16  8  1  0  0  0  0
 17 22  1  6  0  0  0
 17 18  1  0  0  0  0
 17 23  1  0  0  0  0
 18 26  1  6  0  0  0
 18 20  1  0  0  0  0
 19  6  1  1  0  0  0
 20 19  1  0  0  0  0
 23 21  1  1  0  0  0
 23 19  1  0  0  0  0
 24 26  1  0  0  0  0
 25 24  2  0  0  0  0
 27 26  1  0  0  0  0
 27 28  1  0  0  0  0
 28 29  1  0  0  0  0
 30 32  1  0  0  0  0
 31 30  2  0  0  0  0
 33 32  1  0  0  0  0
 35 33  1  0  0  0  0
 35 37  2  0  0  0  0
 36 34  1  0  0  0  0
 36 35  1  0  0  0  0
 39 38  1  6  0  0  0
 39 36  1  0  0  0  0
 40 39  1  0  0  0  0
 42 44  2  0  0  0  0
 43 40  1  0  0  0  0
 44 43  1  0  0  0  0
 44 41  1  0  0  0  0
 45 46  1  0  0  0  0
 46 49  1  6  0  0  0
 46 48  1  0  0  0  0
 48 47  1  0  0  0  0
 50 49  1  0  0  0  0
 51 50  1  0  0  0  0
 53 51  1  0  0  0  0
 53 52  1  0  0  0  0
M  END
>  <MODEL>
9

>  <REMARK>
 VINA RESULT:      -6.2      2.736      6.385
  Name = 
  18 active torsions:
  status: ('A' for Active; 'I' for Inactive)
    1  A    between atoms: C_1  and  C_47
    2  A    between atoms: C_1  and  N_48
    3  A    between atoms: C_6  and  C_16
    4  A    between atoms: C_6  and  C_26
    5  A    between atoms: C_9  and  C_41
    6  A    between atoms: C_9  and  C_44
    7  A    between atoms: C_9  and  C_50
    8  A    between atoms: C_12  and  N_48
    9  A    between atoms: C_14  and  C_19
   10  A    between atoms: C_16  and  C_18
   11  A    between atoms: C_17  and  C_22
   12  A    between atoms: C_20  and  N_27
   13  A    between atoms: C_20  and  C_31
   14  A    between atoms: C_21  and  C_50
   15  A    between atoms: C_30  and  C_38
   16  A    between atoms: C_31  and  N_42
   17  A    between atoms: C_38  and  C_51
   18  A    between atoms: C_44  and  C_51
                            x       y       z     vdW  Elec       q    Type
                         _______ _______ _______ _____ _____    ______ ____

>  <TORSDO>
F 18

$$$$
