=
 OpenBabel11042414533D

 32 33  0  0  1  0  0  0  0  0999 V2000
  193.2710  174.9060  143.1200 C   0  0  0  0  0  2  0  0  0  0  0  0
  194.8020  175.5700  145.6770 C   0  0  0  0  0  3  0  0  0  0  0  0
  191.7200  177.5730  144.8440 C   0  0  0  0  0  3  0  0  0  0  0  0
  191.1970  176.0240  143.2860 N   0  0  0  0  0  0  0  0  0  0  0  0
  192.4550  175.7850  143.7090 C   0  0  0  0  0  0  0  0  0  0  0  0
  190.7740  177.1290  143.9350 C   0  0  0  0  0  0  0  0  0  0  0  0
  194.7520  174.9010  143.3200 C   0  0  0  0  0  2  0  0  0  0  0  0
  195.1510  174.7730  144.7130 N   0  0  0  0  0  0  0  0  0  0  0  0
  193.8000  176.6490  145.5730 C   0  0  0  0  0  2  0  0  0  0  0  0
  192.7820  176.6940  144.7060 C   0  0  0  0  0  0  0  0  0  0  0  0
  190.4760  175.3420  142.2120 C   0  0  0  0  0  2  0  0  0  0  0  0
  189.4460  174.3600  142.7670 C   0  0  2  0  0  3  0  0  0  0  0  0
  188.9900  172.1970  142.9160 C   0  0  0  0  0  1  0  0  0  0  0  0
  190.0510  173.1050  142.8760 O   0  0  0  0  0  0  0  0  0  0  0  0
  188.6090  174.4560  140.5200 O   0  0  0  0  0  1  0  0  0  0  0  0
  188.2210  174.2800  141.8510 C   0  0  2  0  0  3  0  0  0  0  0  0
  187.1890  175.3420  142.2110 C   0  0  0  0  0  2  0  0  0  0  0  0
  187.2190  176.4810  141.2060 C   0  0  0  0  0  2  0  0  0  0  0  0
  186.1600  177.3580  141.4430 O   0  0  0  0  0  0  0  0  0  0  0  0
  185.7470  177.0650  142.7430 C   0  0  0  0  0  2  0  0  0  0  0  0
  184.6350  177.9800  143.1460 C   0  0  0  0  0  0  0  0  0  0  0  0
  183.6730  178.1270  142.4100 O   0  0  0  0  0  0  0  0  0  0  0  0
  184.6750  178.6960  144.4610 C   0  0  2  0  0  3  0  0  0  0  0  0
  185.6620  179.6790  144.4420 O   0  0  0  0  0  1  0  0  0  0  0  0
  184.9460  177.7180  145.5890 C   0  0  0  0  0  1  0  0  0  0  0  0
  189.4260  177.7470  143.7500 C   0  0  0  0  0  2  0  0  0  0  0  0
  188.6550  177.6910  145.0530 C   0  0  0  0  0  2  0  0  0  0  0  0
  188.3340  176.2540  145.3990 C   0  0  0  0  0  2  0  0  0  0  0  0
  188.4060  176.0820  146.9060 C   0  0  0  0  0  2  0  0  0  0  0  0
  189.0550  174.7580  147.2660 C   0  0  0  0  0  2  0  0  0  0  0  0
  191.1700  175.8150  147.9950 C   0  0  0  0  0  1  0  0  0  0  0  0
  190.5540  174.8260  147.0320 C   0  0  0  0  0  2  0  0  0  0  0  0
  1  7  1  0  0  0  0
  1  5  1  0  0  0  0
  4  5  1  0  0  0  0
  4  6  1  0  0  0  0
  5 10  2  0  0  0  0
  6  3  2  0  0  0  0
  7  8  1  0  0  0  0
  8  2  2  0  0  0  0
  9  2  1  0  0  0  0
 10  3  1  0  0  0  0
 10  9  1  0  0  0  0
 11  4  1  0  0  0  0
 12 11  1  6  0  0  0
 12 14  1  0  0  0  0
 14 13  1  0  0  0  0
 16 15  1  6  0  0  0
 16 17  1  0  0  0  0
 16 12  1  0  0  0  0
 18 19  1  0  0  0  0
 18 17  1  0  0  0  0
 19 20  1  0  0  0  0
 20 21  1  0  0  0  0
 21 23  1  0  0  0  0
 22 21  2  0  0  0  0
 23 25  1  1  0  0  0
 24 23  1  0  0  0  0
 26  6  1  0  0  0  0
 26 27  1  0  0  0  0
 27 28  1  0  0  0  0
 28 29  1  0  0  0  0
 29 30  1  0  0  0  0
 32 30  1  0  0  0  0
 32 31  1  0  0  0  0
M  END
>  <MODEL>
1

>  <REMARK>
 VINA RESULT:      -5.6      0.000      0.000
  Name = 
  16 active torsions:
  status: ('A' for Active; 'I' for Inactive)
    1  A    between atoms: C_1  and  C_22
    2  A    between atoms: C_1  and  C_24
    3  A    between atoms: C_2  and  C_7
    4  A    between atoms: C_2  and  C_25
    5  A    between atoms: C_6  and  C_9
    6  A    between atoms: C_6  and  C_32
    7  A    between atoms: C_9  and  O_12
    8  A    between atoms: N_10  and  C_20
    9  A    between atoms: O_12  and  C_25
   10  A    between atoms: C_14  and  C_17
   11  A    between atoms: C_14  and  C_19
   12  A    between atoms: C_16  and  O_18
   13  A    between atoms: C_16  and  C_20
   14  A    between atoms: C_16  and  C_32
   15  A    between atoms: C_17  and  C_21
   16  A    between atoms: C_21  and  C_24
                            x       y       z     vdW  Elec       q    Type
                         _______ _______ _______ _____ _____    ______ ____

>  <TORSDO>
F 16

$$$$
=
 OpenBabel11042414533D

 32 33  0  0  1  0  0  0  0  0999 V2000
  186.2890  178.4000  143.9550 C   0  0  0  0  0  2  0  0  0  0  0  0
  183.9050  178.6920  145.8400 C   0  0  0  0  0  3  0  0  0  0  0  0
  186.9180  176.7620  147.0240 C   0  0  0  0  0  3  0  0  0  0  0  0
  188.0770  177.5990  145.2760 N   0  0  0  0  0  0  0  0  0  0  0  0
  186.7730  177.8910  145.0920 C   0  0  0  0  0  0  0  0  0  0  0  0
  188.1560  176.8790  146.4150 C   0  0  0  0  0  0  0  0  0  0  0  0
  184.8390  178.3710  143.5970 C   0  0  0  0  0  2  0  0  0  0  0  0
  183.9830  179.0120  144.5840 N   0  0  0  0  0  0  0  0  0  0  0  0
  184.7930  177.7400  146.5360 C   0  0  0  0  0  2  0  0  0  0  0  0
  186.0450  177.4310  146.1820 C   0  0  0  0  0  0  0  0  0  0  0  0
  189.1820  177.8510  144.3530 C   0  0  0  0  0  2  0  0  0  0  0  0
  189.4800  176.6250  143.4900 C   0  0  2  0  0  3  0  0  0  0  0  0
  191.4320  177.5240  144.0250 C   0  0  0  0  0  1  0  0  0  0  0  0
  190.8420  176.3320  143.6010 O   0  0  0  0  0  0  0  0  0  0  0  0
  188.8440  178.2460  141.8370 O   0  0  0  0  0  1  0  0  0  0  0  0
  189.1120  176.8880  142.0270 C   0  0  2  0  0  3  0  0  0  0  0  0
  187.8900  176.0790  141.6080 C   0  0  0  0  0  2  0  0  0  0  0  0
  188.3020  174.8820  140.7670 C   0  0  0  0  0  2  0  0  0  0  0  0
  188.0040  173.6970  141.4410 O   0  0  0  0  0  0  0  0  0  0  0  0
  189.0540  172.8370  141.1200 C   0  0  0  0  0  2  0  0  0  0  0  0
  189.8660  172.5410  142.3400 C   0  0  0  0  0  0  0  0  0  0  0  0
  189.5130  172.9770  143.4230 O   0  0  0  0  0  0  0  0  0  0  0  0
  191.0930  171.6880  142.2510 C   0  0  2  0  0  3  0  0  0  0  0  0
  191.9430  172.1710  141.2570 O   0  0  0  0  0  1  0  0  0  0  0  0
  190.7180  170.2490  141.9510 C   0  0  0  0  0  1  0  0  0  0  0  0
  189.4300  176.3420  146.9820 C   0  0  0  0  0  2  0  0  0  0  0  0
  189.4650  174.8360  146.8230 C   0  0  0  0  0  2  0  0  0  0  0  0
  190.8400  174.3980  146.3680 C   0  0  0  0  0  2  0  0  0  0  0  0
  191.8810  175.2990  147.0090 C   0  0  0  0  0  2  0  0  0  0  0  0
  193.2190  175.1570  146.3060 C   0  0  0  0  0  2  0  0  0  0  0  0
  194.8190  176.7700  145.3260 C   0  0  0  0  0  1  0  0  0  0  0  0
  194.0940  176.3650  146.5900 C   0  0  0  0  0  2  0  0  0  0  0  0
  1  5  1  0  0  0  0
  2  9  1  0  0  0  0
  4  6  1  0  0  0  0
  5  4  1  0  0  0  0
  5 10  2  0  0  0  0
  6 26  1  0  0  0  0
  6  3  2  0  0  0  0
  7  1  1  0  0  0  0
  7  8  1  0  0  0  0
  8  2  2  0  0  0  0
 10  9  1  0  0  0  0
 10  3  1  0  0  0  0
 11  4  1  0  0  0  0
 12 14  1  0  0  0  0
 12 11  1  1  0  0  0
 14 13  1  0  0  0  0
 16 15  1  1  0  0  0
 16 12  1  0  0  0  0
 17 16  1  0  0  0  0
 18 19  1  0  0  0  0
 18 17  1  0  0  0  0
 20 19  1  0  0  0  0
 20 21  1  0  0  0  0
 21 22  2  0  0  0  0
 23 25  1  6  0  0  0
 23 21  1  0  0  0  0
 24 23  1  0  0  0  0
 27 26  1  0  0  0  0
 28 27  1  0  0  0  0
 28 29  1  0  0  0  0
 30 32  1  0  0  0  0
 30 29  1  0  0  0  0
 31 32  1  0  0  0  0
M  END
>  <MODEL>
2

>  <REMARK>
 VINA RESULT:      -5.5      2.403      6.469
  Name = 
  16 active torsions:
  status: ('A' for Active; 'I' for Inactive)
    1  A    between atoms: C_1  and  C_22
    2  A    between atoms: C_1  and  C_24
    3  A    between atoms: C_2  and  C_7
    4  A    between atoms: C_2  and  C_25
    5  A    between atoms: C_6  and  C_9
    6  A    between atoms: C_6  and  C_32
    7  A    between atoms: C_9  and  O_12
    8  A    between atoms: N_10  and  C_20
    9  A    between atoms: O_12  and  C_25
   10  A    between atoms: C_14  and  C_17
   11  A    between atoms: C_14  and  C_19
   12  A    between atoms: C_16  and  O_18
   13  A    between atoms: C_16  and  C_20
   14  A    between atoms: C_16  and  C_32
   15  A    between atoms: C_17  and  C_21
   16  A    between atoms: C_21  and  C_24
                            x       y       z     vdW  Elec       q    Type
                         _______ _______ _______ _____ _____    ______ ____

>  <TORSDO>
F 16

$$$$
=
 OpenBabel11042414533D

 32 33  0  0  1  0  0  0  0  0999 V2000
  188.6910  175.8350  141.9810 C   0  0  0  0  0  2  0  0  0  0  0  0
  186.2980  177.3850  140.8880 C   0  0  0  0  0  3  0  0  0  0  0  0
  186.4180  176.6120  144.5740 C   0  0  0  0  0  3  0  0  0  0  0  0
  188.5910  176.0430  144.3320 N   0  0  0  0  0  0  0  0  0  0  0  0
  188.0560  176.1880  143.1020 C   0  0  0  0  0  0  0  0  0  0  0  0
  187.5930  176.2520  145.2160 C   0  0  0  0  0  0  0  0  0  0  0  0
  187.9940  175.6290  140.6740 C   0  0  0  0  0  2  0  0  0  0  0  0
  187.2440  176.7920  140.2250 N   0  0  0  0  0  0  0  0  0  0  0  0
  185.9260  177.0990  142.2870 C   0  0  0  0  0  2  0  0  0  0  0  0
  186.7310  176.5880  143.2250 C   0  0  0  0  0  0  0  0  0  0  0  0
  189.9370  175.5820  144.6650 C   0  0  0  0  0  2  0  0  0  0  0  0
  190.7970  176.7200  145.2150 C   0  0  2  0  0  3  0  0  0  0  0  0
  191.0780  178.4030  143.8020 C   0  0  0  0  0  1  0  0  0  0  0  0
  191.6270  177.1780  144.1880 O   0  0  0  0  0  0  0  0  0  0  0  0
  191.2430  176.9040  147.5670 O   0  0  0  0  0  1  0  0  0  0  0  0
  191.6380  176.2410  146.4020 C   0  0  2  0  0  3  0  0  0  0  0  0
  193.1230  176.4930  146.1670 C   0  0  0  0  0  2  0  0  0  0  0  0
  193.8680  175.1810  145.9940 C   0  0  0  0  0  2  0  0  0  0  0  0
  195.1980  175.4260  145.6500 O   0  0  0  0  0  0  0  0  0  0  0  0
  195.1260  176.3740  144.6300 C   0  0  0  0  0  2  0  0  0  0  0  0
  196.0410  175.9930  143.5100 C   0  0  0  0  0  0  0  0  0  0  0  0
  197.2130  175.7480  143.7420 O   0  0  0  0  0  0  0  0  0  0  0  0
  195.5250  175.8770  142.1090 C   0  0  2  0  0  3  0  0  0  0  0  0
  196.0620  176.8900  141.3150 O   0  0  0  0  0  1  0  0  0  0  0  0
  194.0100  175.9610  142.0930 C   0  0  0  0  0  1  0  0  0  0  0  0
  187.7550  176.1780  146.6990 C   0  0  0  0  0  2  0  0  0  0  0  0
  186.5700  176.8340  147.3760 C   0  0  0  0  0  2  0  0  0  0  0  0
  186.9060  178.2670  147.7280 C   0  0  0  0  0  2  0  0  0  0  0  0
  185.7370  179.1570  147.3440 C   0  0  0  0  0  2  0  0  0  0  0  0
  184.5420  178.3200  146.9230 C   0  0  0  0  0  2  0  0  0  0  0  0
  184.9610  179.6560  144.8820 C   0  0  0  0  0  1  0  0  0  0  0  0
  183.9150  178.8930  145.6640 C   0  0  0  0  0  2  0  0  0  0  0  0
  1  5  1  0  0  0  0
  2  9  1  0  0  0  0
  3  6  2  0  0  0  0
  4 11  1  0  0  0  0
  4  6  1  0  0  0  0
  5 10  2  0  0  0  0
  5  4  1  0  0  0  0
  6 26  1  0  0  0  0
  7  1  1  0  0  0  0
  8  7  1  0  0  0  0
  8  2  2  0  0  0  0
  9 10  1  0  0  0  0
 10  3  1  0  0  0  0
 12 11  1  6  0  0  0
 12 16  1  0  0  0  0
 13 14  1  0  0  0  0
 14 12  1  0  0  0  0
 16 15  1  1  0  0  0
 17 16  1  0  0  0  0
 18 17  1  0  0  0  0
 19 18  1  0  0  0  0
 20 19  1  0  0  0  0
 21 22  2  0  0  0  0
 21 20  1  0  0  0  0
 23 25  1  1  0  0  0
 23 21  1  0  0  0  0
 24 23  1  0  0  0  0
 26 27  1  0  0  0  0
 27 28  1  0  0  0  0
 29 28  1  0  0  0  0
 30 29  1  0  0  0  0
 31 32  1  0  0  0  0
 32 30  1  0  0  0  0
M  END
>  <MODEL>
3

>  <REMARK>
 VINA RESULT:      -5.5      3.167      7.568
  Name = 
  16 active torsions:
  status: ('A' for Active; 'I' for Inactive)
    1  A    between atoms: C_1  and  C_22
    2  A    between atoms: C_1  and  C_24
    3  A    between atoms: C_2  and  C_7
    4  A    between atoms: C_2  and  C_25
    5  A    between atoms: C_6  and  C_9
    6  A    between atoms: C_6  and  C_32
    7  A    between atoms: C_9  and  O_12
    8  A    between atoms: N_10  and  C_20
    9  A    between atoms: O_12  and  C_25
   10  A    between atoms: C_14  and  C_17
   11  A    between atoms: C_14  and  C_19
   12  A    between atoms: C_16  and  O_18
   13  A    between atoms: C_16  and  C_20
   14  A    between atoms: C_16  and  C_32
   15  A    between atoms: C_17  and  C_21
   16  A    between atoms: C_21  and  C_24
                            x       y       z     vdW  Elec       q    Type
                         _______ _______ _______ _____ _____    ______ ____

>  <TORSDO>
F 16

$$$$
=
 OpenBabel11042414533D

 32 33  0  0  1  0  0  0  0  0999 V2000
  189.2200  173.3190  143.0430 C   0  0  0  0  0  2  0  0  0  0  0  0
  188.4240  174.5890  140.3840 C   0  0  0  0  0  3  0  0  0  0  0  0
  188.3240  176.7070  143.4990 C   0  0  0  0  0  3  0  0  0  0  0  0
  189.5030  175.1030  144.5650 N   0  0  0  0  0  0  0  0  0  0  0  0
  189.0980  174.6060  143.3790 C   0  0  0  0  0  0  0  0  0  0  0  0
  188.9960  176.3510  144.6560 C   0  0  0  0  0  0  0  0  0  0  0  0
  188.4530  172.6860  141.9280 C   0  0  0  0  0  2  0  0  0  0  0  0
  188.6520  173.3370  140.6420 N   0  0  0  0  0  0  0  0  0  0  0  0
  188.0860  175.6200  141.3840 C   0  0  0  0  0  2  0  0  0  0  0  0
  188.4140  175.5930  142.6810 C   0  0  0  0  0  0  0  0  0  0  0  0
  190.2040  174.3920  145.6330 C   0  0  0  0  0  2  0  0  0  0  0  0
  191.7170  174.5840  145.5320 C   0  0  2  0  0  3  0  0  0  0  0  0
  192.6980  173.5260  143.8520 C   0  0  0  0  0  1  0  0  0  0  0  0
  192.2920  173.3610  145.1780 O   0  0  0  0  0  0  0  0  0  0  0  0
  191.2730  175.1830  147.8140 O   0  0  0  0  0  1  0  0  0  0  0  0
  192.2920  175.0740  146.8640 C   0  0  2  0  0  3  0  0  0  0  0  0
  192.9730  176.4290  146.7100 C   0  0  0  0  0  2  0  0  0  0  0  0
  193.2360  176.7320  145.2440 C   0  0  0  0  0  2  0  0  0  0  0  0
  194.5500  177.1700  145.0730 O   0  0  0  0  0  0  0  0  0  0  0  0
  195.2330  176.0520  144.5940 C   0  0  0  0  0  2  0  0  0  0  0  0
  196.0160  176.4140  143.3730 C   0  0  0  0  0  0  0  0  0  0  0  0
  196.9730  177.1640  143.4680 O   0  0  0  0  0  0  0  0  0  0  0  0
  195.6570  175.8400  142.0380 C   0  0  2  0  0  3  0  0  0  0  0  0
  196.5100  176.3400  141.0550 O   0  0  0  0  0  1  0  0  0  0  0  0
  194.2190  176.1730  141.6870 C   0  0  0  0  0  1  0  0  0  0  0  0
  189.2010  177.2570  145.8270 C   0  0  0  0  0  2  0  0  0  0  0  0
  187.8590  177.7290  146.3470 C   0  0  0  0  0  2  0  0  0  0  0  0
  187.0210  176.5400  146.7640 C   0  0  0  0  0  2  0  0  0  0  0  0
  185.5910  176.7580  146.3010 C   0  0  0  0  0  2  0  0  0  0  0  0
  185.0390  178.0580  146.8570 C   0  0  0  0  0  2  0  0  0  0  0  0
  184.5880  178.5140  144.4660 C   0  0  0  0  0  1  0  0  0  0  0  0
  184.0610  178.6790  145.8740 C   0  0  0  0  0  2  0  0  0  0  0  0
  1  5  1  0  0  0  0
  2  8  2  0  0  0  0
  2  9  1  0  0  0  0
  3  6  2  0  0  0  0
  4  6  1  0  0  0  0
  4 11  1  0  0  0  0
  5  4  1  0  0  0  0
  6 26  1  0  0  0  0
  7  1  1  0  0  0  0
  8  7  1  0  0  0  0
  9 10  1  0  0  0  0
 10  5  2  0  0  0  0
 10  3  1  0  0  0  0
 12 11  1  1  0  0  0
 12 16  1  0  0  0  0
 13 14  1  0  0  0  0
 14 12  1  0  0  0  0
 16 15  1  1  0  0  0
 17 16  1  0  0  0  0
 18 17  1  0  0  0  0
 19 18  1  0  0  0  0
 20 19  1  0  0  0  0
 21 22  2  0  0  0  0
 21 20  1  0  0  0  0
 23 25  1  6  0  0  0
 23 21  1  0  0  0  0
 24 23  1  0  0  0  0
 26 27  1  0  0  0  0
 27 28  1  0  0  0  0
 29 28  1  0  0  0  0
 29 30  1  0  0  0  0
 31 32  1  0  0  0  0
 32 30  1  0  0  0  0
M  END
>  <MODEL>
4

>  <REMARK>
 VINA RESULT:      -5.4      3.388      7.086
  Name = 
  16 active torsions:
  status: ('A' for Active; 'I' for Inactive)
    1  A    between atoms: C_1  and  C_22
    2  A    between atoms: C_1  and  C_24
    3  A    between atoms: C_2  and  C_7
    4  A    between atoms: C_2  and  C_25
    5  A    between atoms: C_6  and  C_9
    6  A    between atoms: C_6  and  C_32
    7  A    between atoms: C_9  and  O_12
    8  A    between atoms: N_10  and  C_20
    9  A    between atoms: O_12  and  C_25
   10  A    between atoms: C_14  and  C_17
   11  A    between atoms: C_14  and  C_19
   12  A    between atoms: C_16  and  O_18
   13  A    between atoms: C_16  and  C_20
   14  A    between atoms: C_16  and  C_32
   15  A    between atoms: C_17  and  C_21
   16  A    between atoms: C_21  and  C_24
                            x       y       z     vdW  Elec       q    Type
                         _______ _______ _______ _____ _____    ______ ____

>  <TORSDO>
F 16

$$$$
=
 OpenBabel11042414533D

 32 33  0  0  1  0  0  0  0  0999 V2000
  194.3540  175.3770  143.1710 C   0  0  0  0  0  2  0  0  0  0  0  0
  196.1410  174.5250  145.4950 C   0  0  0  0  0  3  0  0  0  0  0  0
  192.7450  175.9650  146.2630 C   0  0  0  0  0  3  0  0  0  0  0  0
  192.2010  175.7100  144.0860 N   0  0  0  0  0  0  0  0  0  0  0  0
  193.5270  175.4990  144.2140 C   0  0  0  0  0  0  0  0  0  0  0  0
  191.7400  176.0360  145.3110 C   0  0  0  0  0  0  0  0  0  0  0  0
  195.8360  175.5260  143.2790 C   0  0  0  0  0  2  0  0  0  0  0  0
  196.4450  174.6150  144.2360 N   0  0  0  0  0  0  0  0  0  0  0  0
  195.0070  175.2050  146.1510 C   0  0  0  0  0  2  0  0  0  0  0  0
  193.8780  175.6000  145.5540 C   0  0  0  0  0  0  0  0  0  0  0  0
  191.4240  175.7530  142.8480 C   0  0  0  0  0  2  0  0  0  0  0  0
  190.9200  174.3640  142.4560 C   0  0  2  0  0  3  0  0  0  0  0  0
  192.1780  172.8850  141.3910 C   0  0  0  0  0  1  0  0  0  0  0  0
  191.4340  174.0510  141.1950 O   0  0  0  0  0  0  0  0  0  0  0  0
  188.9350  173.0320  142.6790 O   0  0  0  0  0  1  0  0  0  0  0  0
  189.3890  174.3290  142.4290 C   0  0  2  0  0  3  0  0  0  0  0  0
  188.8480  174.7930  141.0810 C   0  0  0  0  0  2  0  0  0  0  0  0
  187.7820  175.8580  141.2690 C   0  0  0  0  0  2  0  0  0  0  0  0
  188.1430  176.7210  142.3040 O   0  0  0  0  0  0  0  0  0  0  0  0
  187.8480  177.9950  141.8180 C   0  0  0  0  0  2  0  0  0  0  0  0
  186.4400  178.3620  142.1620 C   0  0  0  0  0  0  0  0  0  0  0  0
  185.6380  178.5900  141.2720 O   0  0  0  0  0  0  0  0  0  0  0  0
  185.9950  178.4210  143.5910 C   0  0  2  0  0  3  0  0  0  0  0  0
  184.9510  177.5220  143.8060 O   0  0  0  0  0  1  0  0  0  0  0  0
  185.5440  179.8250  143.9480 C   0  0  0  0  0  1  0  0  0  0  0  0
  190.3130  176.3600  145.6130 C   0  0  0  0  0  2  0  0  0  0  0  0
  189.5850  175.1030  146.0440 C   0  0  0  0  0  2  0  0  0  0  0  0
  188.4960  175.4530  147.0350 C   0  0  0  0  0  2  0  0  0  0  0  0
  187.7010  176.6300  146.4990 C   0  0  0  0  0  2  0  0  0  0  0  0
  186.3880  176.7770  147.2470 C   0  0  0  0  0  2  0  0  0  0  0  0
  184.5630  178.4480  147.2320 C   0  0  0  0  0  1  0  0  0  0  0  0
  186.0490  178.2460  147.4330 C   0  0  0  0  0  2  0  0  0  0  0  0
  1  7  1  0  0  0  0
  1  5  1  0  0  0  0
  2  9  1  0  0  0  0
  4  5  1  0  0  0  0
  4  6  1  0  0  0  0
  5 10  2  0  0  0  0
  6 26  1  0  0  0  0
  6  3  2  0  0  0  0
  7  8  1  0  0  0  0
  8  2  2  0  0  0  0
 10  9  1  0  0  0  0
 10  3  1  0  0  0  0
 11  4  1  0  0  0  0
 12 11  1  6  0  0  0
 14 13  1  0  0  0  0
 14 12  1  0  0  0  0
 16 12  1  0  0  0  0
 16 15  1  6  0  0  0
 17 18  1  0  0  0  0
 17 16  1  0  0  0  0
 18 19  1  0  0  0  0
 20 21  1  0  0  0  0
 20 19  1  0  0  0  0
 21 23  1  0  0  0  0
 22 21  2  0  0  0  0
 23 24  1  0  0  0  0
 23 25  1  6  0  0  0
 26 27  1  0  0  0  0
 27 28  1  0  0  0  0
 29 28  1  0  0  0  0
 29 30  1  0  0  0  0
 30 32  1  0  0  0  0
 31 32  1  0  0  0  0
M  END
>  <MODEL>
5

>  <REMARK>
 VINA RESULT:      -5.4      1.549      2.584
  Name = 
  16 active torsions:
  status: ('A' for Active; 'I' for Inactive)
    1  A    between atoms: C_1  and  C_22
    2  A    between atoms: C_1  and  C_24
    3  A    between atoms: C_2  and  C_7
    4  A    between atoms: C_2  and  C_25
    5  A    between atoms: C_6  and  C_9
    6  A    between atoms: C_6  and  C_32
    7  A    between atoms: C_9  and  O_12
    8  A    between atoms: N_10  and  C_20
    9  A    between atoms: O_12  and  C_25
   10  A    between atoms: C_14  and  C_17
   11  A    between atoms: C_14  and  C_19
   12  A    between atoms: C_16  and  O_18
   13  A    between atoms: C_16  and  C_20
   14  A    between atoms: C_16  and  C_32
   15  A    between atoms: C_17  and  C_21
   16  A    between atoms: C_21  and  C_24
                            x       y       z     vdW  Elec       q    Type
                         _______ _______ _______ _____ _____    ______ ____

>  <TORSDO>
F 16

$$$$
=
 OpenBabel11042414533D

 32 33  0  0  1  0  0  0  0  0999 V2000
  185.9920  178.1840  144.6490 C   0  0  0  0  0  2  0  0  0  0  0  0
  184.9510  178.3340  147.5160 C   0  0  0  0  0  3  0  0  0  0  0  0
  187.9240  176.1360  146.7860 C   0  0  0  0  0  3  0  0  0  0  0  0
  188.1080  177.1410  144.7720 N   0  0  0  0  0  0  0  0  0  0  0  0
  186.9320  177.5120  145.3190 C   0  0  0  0  0  0  0  0  0  0  0  0
  188.6820  176.2760  145.6350 C   0  0  0  0  0  0  0  0  0  0  0  0
  184.5680  178.2660  145.0960 C   0  0  0  0  0  2  0  0  0  0  0  0
  184.4090  178.8100  146.4360 N   0  0  0  0  0  0  0  0  0  0  0  0
  185.9640  177.2610  147.5620 C   0  0  0  0  0  2  0  0  0  0  0  0
  186.8190  176.9460  146.5830 C   0  0  0  0  0  0  0  0  0  0  0  0
  188.6050  177.4620  143.4360 C   0  0  0  0  0  2  0  0  0  0  0  0
  187.9280  176.6050  142.3660 C   0  0  2  0  0  3  0  0  0  0  0  0
  188.2760  174.4200  142.2780 C   0  0  0  0  0  1  0  0  0  0  0  0
  188.8450  175.6460  141.9280 O   0  0  0  0  0  0  0  0  0  0  0  0
  187.4630  178.8180  141.5600 O   0  0  0  0  0  1  0  0  0  0  0  0
  187.4630  177.4700  141.1910 C   0  0  2  0  0  3  0  0  0  0  0  0
  186.0620  177.0800  140.7360 C   0  0  0  0  0  2  0  0  0  0  0  0
  185.1760  178.3080  140.6170 C   0  0  0  0  0  2  0  0  0  0  0  0
  184.0640  178.1800  141.4510 O   0  0  0  0  0  0  0  0  0  0  0  0
  182.9800  178.0930  140.5780 C   0  0  0  0  0  2  0  0  0  0  0  0
  181.7190  178.4700  141.2880 C   0  0  0  0  0  0  0  0  0  0  0  0
  181.7400  178.6840  142.4890 O   0  0  0  0  0  0  0  0  0  0  0  0
  180.4340  178.6180  140.5340 C   0  0  2  0  0  3  0  0  0  0  0  0
  180.2480  179.9480  140.1590 O   0  0  0  0  0  1  0  0  0  0  0  0
  179.2640  178.1570  141.3840 C   0  0  0  0  0  1  0  0  0  0  0  0
  190.0020  175.6150  145.4070 C   0  0  0  0  0  2  0  0  0  0  0  0
  191.1020  176.4360  146.0490 C   0  0  0  0  0  2  0  0  0  0  0  0
  191.8730  175.5830  147.0330 C   0  0  0  0  0  2  0  0  0  0  0  0
  193.2270  175.2440  146.4360 C   0  0  0  0  0  2  0  0  0  0  0  0
  194.1620  176.4370  146.5150 C   0  0  0  0  0  2  0  0  0  0  0  0
  194.7900  175.3510  144.3820 C   0  0  0  0  0  1  0  0  0  0  0  0
  194.8950  176.6200  145.1970 C   0  0  0  0  0  2  0  0  0  0  0  0
  1  7  1  0  0  0  0
  1  5  1  0  0  0  0
  2  9  1  0  0  0  0
  4  5  1  0  0  0  0
  4  6  1  0  0  0  0
  5 10  2  0  0  0  0
  6  3  2  0  0  0  0
  7  8  1  0  0  0  0
  8  2  2  0  0  0  0
 10  3  1  0  0  0  0
 10  9  1  0  0  0  0
 11  4  1  0  0  0  0
 12 11  1  1  0  0  0
 14 13  1  0  0  0  0
 14 12  1  0  0  0  0
 16 15  1  1  0  0  0
 16 12  1  0  0  0  0
 17 16  1  0  0  0  0
 18 17  1  0  0  0  0
 18 19  1  0  0  0  0
 20 21  1  0  0  0  0
 20 19  1  0  0  0  0
 21 22  2  0  0  0  0
 23 21  1  0  0  0  0
 23 25  1  1  0  0  0
 24 23  1  0  0  0  0
 26  6  1  0  0  0  0
 26 27  1  0  0  0  0
 27 28  1  0  0  0  0
 29 30  1  0  0  0  0
 29 28  1  0  0  0  0
 31 32  1  0  0  0  0
 32 30  1  0  0  0  0
M  END
>  <MODEL>
6

>  <REMARK>
 VINA RESULT:      -5.3      2.700      5.565
  Name = 
  16 active torsions:
  status: ('A' for Active; 'I' for Inactive)
    1  A    between atoms: C_1  and  C_22
    2  A    between atoms: C_1  and  C_24
    3  A    between atoms: C_2  and  C_7
    4  A    between atoms: C_2  and  C_25
    5  A    between atoms: C_6  and  C_9
    6  A    between atoms: C_6  and  C_32
    7  A    between atoms: C_9  and  O_12
    8  A    between atoms: N_10  and  C_20
    9  A    between atoms: O_12  and  C_25
   10  A    between atoms: C_14  and  C_17
   11  A    between atoms: C_14  and  C_19
   12  A    between atoms: C_16  and  O_18
   13  A    between atoms: C_16  and  C_20
   14  A    between atoms: C_16  and  C_32
   15  A    between atoms: C_17  and  C_21
   16  A    between atoms: C_21  and  C_24
                            x       y       z     vdW  Elec       q    Type
                         _______ _______ _______ _____ _____    ______ ____

>  <TORSDO>
F 16

$$$$
=
 OpenBabel11042414533D

 32 33  0  0  1  0  0  0  0  0999 V2000
  186.8780  177.1850  145.6320 C   0  0  0  0  0  2  0  0  0  0  0  0
  185.1010  178.1780  147.9070 C   0  0  0  0  0  3  0  0  0  0  0  0
  184.0540  178.8860  144.3570 C   0  0  0  0  0  3  0  0  0  0  0  0
  185.5950  177.3900  143.6590 N   0  0  0  0  0  0  0  0  0  0  0  0
  185.8030  177.6250  144.9700 C   0  0  0  0  0  0  0  0  0  0  0  0
  184.5720  178.1850  143.2800 C   0  0  0  0  0  0  0  0  0  0  0  0
  187.3130  177.7400  146.9490 C   0  0  0  0  0  2  0  0  0  0  0  0
  186.2900  177.6620  147.9810 N   0  0  0  0  0  0  0  0  0  0  0  0
  184.5060  178.7860  146.7010 C   0  0  0  0  0  2  0  0  0  0  0  0
  184.8340  178.5040  145.4360 C   0  0  0  0  0  0  0  0  0  0  0  0
  186.4110  176.5730  142.7630 C   0  0  0  0  0  2  0  0  0  0  0  0
  187.7340  177.2620  142.4270 C   0  0  2  0  0  3  0  0  0  0  0  0
  187.0840  176.9770  140.3280 C   0  0  0  0  0  1  0  0  0  0  0  0
  187.5800  177.9380  141.2130 O   0  0  0  0  0  0  0  0  0  0  0  0
  188.5880  175.1310  143.1280 O   0  0  0  0  0  1  0  0  0  0  0  0
  188.8690  176.2390  142.3240 C   0  0  2  0  0  3  0  0  0  0  0  0
  190.2000  176.8420  142.7560 C   0  0  0  0  0  2  0  0  0  0  0  0
  190.0000  177.8060  143.9140 C   0  0  0  0  0  2  0  0  0  0  0  0
  190.4140  177.2140  145.1080 O   0  0  0  0  0  0  0  0  0  0  0  0
  191.6590  176.6600  144.8110 C   0  0  0  0  0  2  0  0  0  0  0  0
  192.2130  175.9700  146.0170 C   0  0  0  0  0  0  0  0  0  0  0  0
  191.4800  175.2940  146.7190 O   0  0  0  0  0  0  0  0  0  0  0  0
  193.6680  176.0740  146.3540 C   0  0  2  0  0  3  0  0  0  0  0  0
  193.8910  177.1700  147.1860 O   0  0  0  0  0  1  0  0  0  0  0  0
  194.4970  176.2120  145.0910 C   0  0  0  0  0  1  0  0  0  0  0  0
  184.0230  178.2440  141.8920 C   0  0  0  0  0  2  0  0  0  0  0  0
  182.5360  178.5230  141.9430 C   0  0  0  0  0  2  0  0  0  0  0  0
  181.8990  178.1630  140.6180 C   0  0  0  0  0  2  0  0  0  0  0  0
  180.3890  178.2010  140.7700 C   0  0  0  0  0  2  0  0  0  0  0  0
  179.9890  179.0960  141.9290 C   0  0  0  0  0  2  0  0  0  0  0  0
  178.7270  179.0060  144.0560 C   0  0  0  0  0  1  0  0  0  0  0  0
  178.7480  178.5500  142.6140 C   0  0  0  0  0  2  0  0  0  0  0  0
  1  7  1  0  0  0  0
  2  8  2  0  0  0  0
  3 10  1  0  0  0  0
  4  5  1  0  0  0  0
  5 10  2  0  0  0  0
  5  1  1  0  0  0  0
  6  4  1  0  0  0  0
  6  3  2  0  0  0  0
  7  8  1  0  0  0  0
  9  2  1  0  0  0  0
 10  9  1  0  0  0  0
 11  4  1  0  0  0  0
 12 11  1  6  0  0  0
 13 14  1  0  0  0  0
 14 12  1  0  0  0  0
 16 12  1  0  0  0  0
 16 17  1  0  0  0  0
 16 15  1  1  0  0  0
 17 18  1  0  0  0  0
 18 19  1  0  0  0  0
 20 19  1  0  0  0  0
 20 21  1  0  0  0  0
 21 23  1  0  0  0  0
 21 22  2  0  0  0  0
 23 25  1  6  0  0  0
 23 24  1  0  0  0  0
 26 27  1  0  0  0  0
 26  6  1  0  0  0  0
 28 29  1  0  0  0  0
 28 27  1  0  0  0  0
 29 30  1  0  0  0  0
 30 32  1  0  0  0  0
 32 31  1  0  0  0  0
M  END
>  <MODEL>
7

>  <REMARK>
 VINA RESULT:      -5.3      3.343      7.990
  Name = 
  16 active torsions:
  status: ('A' for Active; 'I' for Inactive)
    1  A    between atoms: C_1  and  C_22
    2  A    between atoms: C_1  and  C_24
    3  A    between atoms: C_2  and  C_7
    4  A    between atoms: C_2  and  C_25
    5  A    between atoms: C_6  and  C_9
    6  A    between atoms: C_6  and  C_32
    7  A    between atoms: C_9  and  O_12
    8  A    between atoms: N_10  and  C_20
    9  A    between atoms: O_12  and  C_25
   10  A    between atoms: C_14  and  C_17
   11  A    between atoms: C_14  and  C_19
   12  A    between atoms: C_16  and  O_18
   13  A    between atoms: C_16  and  C_20
   14  A    between atoms: C_16  and  C_32
   15  A    between atoms: C_17  and  C_21
   16  A    between atoms: C_21  and  C_24
                            x       y       z     vdW  Elec       q    Type
                         _______ _______ _______ _____ _____    ______ ____

>  <TORSDO>
F 16

$$$$
=
 OpenBabel11042414533D

 32 33  0  0  1  0  0  0  0  0999 V2000
  190.0730  174.6200  145.2420 C   0  0  0  0  0  2  0  0  0  0  0  0
  190.2860  176.8300  147.3370 C   0  0  0  0  0  3  0  0  0  0  0  0
  189.1800  177.7450  143.8530 C   0  0  0  0  0  3  0  0  0  0  0  0
  188.8790  175.5480  143.4270 N   0  0  0  0  0  0  0  0  0  0  0  0
  189.5350  175.6610  144.6000 C   0  0  0  0  0  0  0  0  0  0  0  0
  188.7080  176.8010  142.9560 C   0  0  0  0  0  0  0  0  0  0  0  0
  191.1080  174.7620  146.3110 C   0  0  0  0  0  2  0  0  0  0  0  0
  190.6830  175.5980  147.4240 N   0  0  0  0  0  0  0  0  0  0  0  0
  190.0270  177.5580  146.0790 C   0  0  0  0  0  2  0  0  0  0  0  0
  189.6870  177.0070  144.9090 C   0  0  0  0  0  0  0  0  0  0  0  0
  188.5590  174.3190  142.7040 C   0  0  0  0  0  2  0  0  0  0  0  0
  189.7460  173.8350  141.8710 C   0  0  2  0  0  3  0  0  0  0  0  0
  188.3640  173.3050  140.2220 C   0  0  0  0  0  1  0  0  0  0  0  0
  189.4730  174.0990  140.5250 O   0  0  0  0  0  0  0  0  0  0  0  0
  189.3780  171.9180  143.2690 O   0  0  0  0  0  1  0  0  0  0  0  0
  189.9820  172.3360  142.0800 C   0  0  2  0  0  3  0  0  0  0  0  0
  191.4690  172.0120  142.1380 C   0  0  0  0  0  2  0  0  0  0  0  0
  192.2680  173.2340  142.5580 C   0  0  0  0  0  2  0  0  0  0  0  0
  193.0030  172.9540  143.7110 O   0  0  0  0  0  0  0  0  0  0  0  0
  194.2250  173.5960  143.5120 C   0  0  0  0  0  2  0  0  0  0  0  0
  194.4190  174.6600  144.5450 C   0  0  0  0  0  0  0  0  0  0  0  0
  194.5900  174.3480  145.7120 O   0  0  0  0  0  0  0  0  0  0  0  0
  194.4380  176.1060  144.1570 C   0  0  2  0  0  3  0  0  0  0  0  0
  195.7510  176.5340  143.9640 O   0  0  0  0  0  1  0  0  0  0  0  0
  193.7750  176.9510  145.2280 C   0  0  0  0  0  1  0  0  0  0  0  0
  188.0280  177.1280  141.6660 C   0  0  0  0  0  2  0  0  0  0  0  0
  186.8630  178.0610  141.9240 C   0  0  0  0  0  2  0  0  0  0  0  0
  185.6870  177.2770  142.4670 C   0  0  0  0  0  2  0  0  0  0  0  0
  184.9130  178.1560  143.4330 C   0  0  0  0  0  2  0  0  0  0  0  0
  185.6060  178.2090  144.7830 C   0  0  0  0  0  2  0  0  0  0  0  0
  186.4480  176.8850  146.6960 C   0  0  0  0  0  1  0  0  0  0  0  0
  185.7950  176.8070  145.3340 C   0  0  0  0  0  2  0  0  0  0  0  0
  1  7  1  0  0  0  0
  2  8  2  0  0  0  0
  3 10  1  0  0  0  0
  4  5  1  0  0  0  0
  5 10  2  0  0  0  0
  5  1  1  0  0  0  0
  6  4  1  0  0  0  0
  6  3  2  0  0  0  0
  7  8  1  0  0  0  0
  9  2  1  0  0  0  0
 10  9  1  0  0  0  0
 11  4  1  0  0  0  0
 12 16  1  0  0  0  0
 12 11  1  1  0  0  0
 13 14  1  0  0  0  0
 14 12  1  0  0  0  0
 16 17  1  0  0  0  0
 16 15  1  1  0  0  0
 17 18  1  0  0  0  0
 18 19  1  0  0  0  0
 20 19  1  0  0  0  0
 20 21  1  0  0  0  0
 21 22  2  0  0  0  0
 23 21  1  0  0  0  0
 23 25  1  1  0  0  0
 24 23  1  0  0  0  0
 26 27  1  0  0  0  0
 26  6  1  0  0  0  0
 27 28  1  0  0  0  0
 28 29  1  0  0  0  0
 29 30  1  0  0  0  0
 30 32  1  0  0  0  0
 32 31  1  0  0  0  0
M  END
>  <MODEL>
8

>  <REMARK>
 VINA RESULT:      -5.2      2.637      5.875
  Name = 
  16 active torsions:
  status: ('A' for Active; 'I' for Inactive)
    1  A    between atoms: C_1  and  C_22
    2  A    between atoms: C_1  and  C_24
    3  A    between atoms: C_2  and  C_7
    4  A    between atoms: C_2  and  C_25
    5  A    between atoms: C_6  and  C_9
    6  A    between atoms: C_6  and  C_32
    7  A    between atoms: C_9  and  O_12
    8  A    between atoms: N_10  and  C_20
    9  A    between atoms: O_12  and  C_25
   10  A    between atoms: C_14  and  C_17
   11  A    between atoms: C_14  and  C_19
   12  A    between atoms: C_16  and  O_18
   13  A    between atoms: C_16  and  C_20
   14  A    between atoms: C_16  and  C_32
   15  A    between atoms: C_17  and  C_21
   16  A    between atoms: C_21  and  C_24
                            x       y       z     vdW  Elec       q    Type
                         _______ _______ _______ _____ _____    ______ ____

>  <TORSDO>
F 16

$$$$
=
 OpenBabel11042414533D

 32 33  0  0  1  0  0  0  0  0999 V2000
  190.7060  174.2260  143.1590 C   0  0  0  0  0  2  0  0  0  0  0  0
  189.2080  173.4490  140.6150 C   0  0  0  0  0  3  0  0  0  0  0  0
  187.4630  175.6300  143.1440 C   0  0  0  0  0  3  0  0  0  0  0  0
  189.4550  175.9650  144.1540 N   0  0  0  0  0  0  0  0  0  0  0  0
  189.6060  174.9780  143.2470 C   0  0  0  0  0  0  0  0  0  0  0  0
  188.1540  176.3240  144.1240 C   0  0  0  0  0  0  0  0  0  0  0  0
  190.7480  172.9140  142.4450 C   0  0  0  0  0  2  0  0  0  0  0  0
  190.3450  172.9980  141.0490 N   0  0  0  0  0  0  0  0  0  0  0  0
  188.1830  174.1190  141.4390 C   0  0  0  0  0  2  0  0  0  0  0  0
  188.4050  174.7880  142.5760 C   0  0  0  0  0  0  0  0  0  0  0  0
  190.4470  176.4500  145.1120 C   0  0  0  0  0  2  0  0  0  0  0  0
  190.6120  175.4810  146.2830 C   0  0  2  0  0  3  0  0  0  0  0  0
  188.9580  174.5520  147.4260 C   0  0  0  0  0  1  0  0  0  0  0  0
  189.6220  175.7640  147.2280 O   0  0  0  0  0  0  0  0  0  0  0  0
  191.9790  176.6040  147.9060 O   0  0  0  0  0  1  0  0  0  0  0  0
  192.0010  175.6210  146.9130 C   0  0  2  0  0  3  0  0  0  0  0  0
  193.0470  175.9940  145.8700 C   0  0  0  0  0  2  0  0  0  0  0  0
  194.1220  176.8780  146.4800 C   0  0  0  0  0  2  0  0  0  0  0  0
  195.0320  177.2730  145.5000 O   0  0  0  0  0  0  0  0  0  0  0  0
  195.3280  176.1010  144.8040 C   0  0  0  0  0  2  0  0  0  0  0  0
  196.0090  176.4300  143.5130 C   0  0  0  0  0  0  0  0  0  0  0  0
  197.1000  176.9750  143.5250 O   0  0  0  0  0  0  0  0  0  0  0  0
  195.3790  176.0660  142.2050 C   0  0  2  0  0  3  0  0  0  0  0  0
  195.6910  177.0230  141.2400 O   0  0  0  0  0  1  0  0  0  0  0  0
  193.8720  175.9590  142.3530 C   0  0  0  0  0  1  0  0  0  0  0  0
  187.5560  177.3870  144.9870 C   0  0  0  0  0  2  0  0  0  0  0  0
  186.4100  176.8080  145.7890 C   0  0  0  0  0  2  0  0  0  0  0  0
  185.5590  177.9270  146.3520 C   0  0  0  0  0  2  0  0  0  0  0  0
  185.7840  179.1800  145.5260 C   0  0  0  0  0  2  0  0  0  0  0  0
  184.6630  179.3690  144.5200 C   0  0  0  0  0  2  0  0  0  0  0  0
  184.4190  177.9100  142.5360 C   0  0  0  0  0  1  0  0  0  0  0  0
  185.1650  179.0920  143.1130 C   0  0  0  0  0  2  0  0  0  0  0  0
  1  5  1  0  0  0  0
  2  8  2  0  0  0  0
  2  9  1  0  0  0  0
  3  6  2  0  0  0  0
  4 11  1  0  0  0  0
  5  4  1  0  0  0  0
  6  4  1  0  0  0  0
  6 26  1  0  0  0  0
  7  1  1  0  0  0  0
  8  7  1  0  0  0  0
  9 10  1  0  0  0  0
 10  3  1  0  0  0  0
 10  5  2  0  0  0  0
 12 11  1  6  0  0  0
 12 16  1  0  0  0  0
 12 14  1  0  0  0  0
 14 13  1  0  0  0  0
 16 15  1  1  0  0  0
 17 18  1  0  0  0  0
 17 16  1  0  0  0  0
 19 18  1  0  0  0  0
 20 19  1  0  0  0  0
 21 22  2  0  0  0  0
 21 20  1  0  0  0  0
 23 25  1  1  0  0  0
 23 21  1  0  0  0  0
 24 23  1  0  0  0  0
 26 27  1  0  0  0  0
 27 28  1  0  0  0  0
 29 28  1  0  0  0  0
 30 29  1  0  0  0  0
 31 32  1  0  0  0  0
 32 30  1  0  0  0  0
M  END
>  <MODEL>
9

>  <REMARK>
 VINA RESULT:      -5.2      3.112      7.171
  Name = 
  16 active torsions:
  status: ('A' for Active; 'I' for Inactive)
    1  A    between atoms: C_1  and  C_22
    2  A    between atoms: C_1  and  C_24
    3  A    between atoms: C_2  and  C_7
    4  A    between atoms: C_2  and  C_25
    5  A    between atoms: C_6  and  C_9
    6  A    between atoms: C_6  and  C_32
    7  A    between atoms: C_9  and  O_12
    8  A    between atoms: N_10  and  C_20
    9  A    between atoms: O_12  and  C_25
   10  A    between atoms: C_14  and  C_17
   11  A    between atoms: C_14  and  C_19
   12  A    between atoms: C_16  and  O_18
   13  A    between atoms: C_16  and  C_20
   14  A    between atoms: C_16  and  C_32
   15  A    between atoms: C_17  and  C_21
   16  A    between atoms: C_21  and  C_24
                            x       y       z     vdW  Elec       q    Type
                         _______ _______ _______ _____ _____    ______ ____

>  <TORSDO>
F 16

$$$$
