=
 OpenBabel11042414103D

 49 54  0  0  1  0  0  0  0  0999 V2000
  191.3390  173.2940  138.6250 C   0  0  2  0  0  3  0  0  0  0  0  0
  191.7010  171.6720  140.4140 C   0  0  0  0  0  2  0  0  0  0  0  0
  192.1400  173.0550  140.7330 C   0  0  0  0  0  0  0  0  0  0  0  0
  192.7440  173.4340  141.9740 N   0  0  0  0  0  2  0  0  0  0  0  0
  191.9410  173.9170  139.7960 N   0  0  0  0  0  0  0  0  0  0  0  0
  191.1300  171.8200  139.0030 C   0  0  1  0  0  3  0  0  0  0  0  0
  192.3030  174.5340  136.6980 C   0  0  0  0  0  3  0  0  0  0  0  0
  192.2470  173.4160  137.4290 C   0  0  0  0  0  3  0  0  0  0  0  0
  193.2240  174.6460  135.5270 C   0  0  0  0  0  2  0  0  0  0  0  0
  194.2630  175.6290  135.8030 N   0  0  0  0  0  2  0  0  0  0  0  0
  195.5290  174.9170  135.7650 C   0  0  0  0  0  1  0  0  0  0  0  0
  193.0320  172.4520  143.0150 C   0  0  2  0  0  3  0  0  0  0  0  0
  190.9030  173.1510  144.0920 C   0  0  0  0  0  1  0  0  0  0  0  0
  192.3830  172.8730  144.3200 C   0  0  0  0  0  2  0  0  0  0  0  0
  194.4800  172.3080  143.2010 N   0  0  0  0  0  2  0  0  0  0  0  0
  195.1140  173.3670  142.5260 N   0  0  0  0  0  2  0  0  0  0  0  0
  196.1300  173.9170  143.4140 C   0  0  0  0  0  2  0  0  0  0  0  0
  196.5030  176.2480  143.1660 O   0  0  0  0  0  0  0  0  0  0  0  0
  195.8050  175.3470  143.7060 C   0  0  0  0  0  0  0  0  0  0  0  0
  193.5090  176.2870  143.9850 C   0  0  0  0  0  3  0  0  0  0  0  0
  192.4500  176.4190  146.1710 C   0  0  0  0  0  0  0  0  0  0  0  0
  192.4160  176.6360  144.7850 C   0  0  0  0  0  3  0  0  0  0  0  0
  194.6550  175.7130  144.5580 C   0  0  0  0  0  0  0  0  0  0  0  0
  193.5990  175.8500  146.7460 C   0  0  0  0  0  3  0  0  0  0  0  0
  194.6920  175.4980  145.9460 C   0  0  0  0  0  3  0  0  0  0  0  0
  191.3190  176.7750  146.9800 N   0  0  0  0  0  0  0  0  0  0  0  0
  191.4050  176.6920  148.3260 O   0  0  0  0  0  1  0  0  0  0  0  0
  190.0440  177.1400  146.3750 C   0  0  0  0  0  2  0  0  0  0  0  0
  187.9990  175.8150  146.8080 C   0  0  0  0  0  2  0  0  0  0  0  0
  189.1980  174.9850  147.2040 C   0  0  0  0  0  2  0  0  0  0  0  0
  189.2720  175.8880  145.9930 C   0  0  0  0  0  3  0  0  0  0  0  0
  189.6510  171.4240  138.9260 C   0  0  0  0  0  2  0  0  0  0  0  0
  188.7050  172.5860  139.2110 C   0  0  0  0  0  2  0  0  0  0  0  0
  188.4470  172.6550  140.5810 O   0  0  0  0  0  0  0  0  0  0  0  0
  188.3710  174.0150  140.8790 C   0  0  0  0  0  2  0  0  0  0  0  0
  187.5610  174.2050  142.1490 C   0  0  0  0  0  2  0  0  0  0  0  0
  187.7640  175.6070  142.7030 C   0  0  0  0  0  2  0  0  0  0  0  0
  187.0250  177.6620  140.4390 C   0  0  0  0  0  2  0  0  0  0  0  0
  186.4470  176.3600  142.6770 C   0  0  2  0  0  3  0  0  0  0  0  0
  186.5750  177.6350  141.8840 C   0  0  0  0  0  0  0  0  0  0  0  0
  186.5410  178.3260  144.1630 C   0  0  1  0  0  3  0  0  0  0  0  0
  186.0990  176.8590  144.0720 C   0  0  0  0  0  2  0  0  0  0  0  0
  186.5610  178.8700  142.7410 C   0  0  0  0  0  2  0  0  0  0  0  0
  185.5450  177.7160  140.7750 C   0  0  0  0  0  2  0  0  0  0  0  0
  186.0290  179.0610  146.5010 C   0  0  0  0  0  2  0  0  0  0  0  0
  183.9460  178.3280  146.4190 C   0  0  0  0  0  2  0  0  0  0  0  0
  184.2650  178.5730  145.0160 N   0  0  0  0  0  2  0  0  0  0  0  0
  185.1380  178.1940  147.1460 O   0  0  0  0  0  0  0  0  0  0  0  0
  185.6000  179.1400  145.0490 C   0  0  2  0  0  3  0  0  0  0  0  0
  1  8  1  6  0  0  0
  1  6  1  0  0  0  0
  1  5  1  0  0  0  0
  2  3  1  0  0  0  0
  3  4  1  0  0  0  0
  4 12  1  0  0  0  0
  5  3  2  0  0  0  0
  6 32  1  1  0  0  0
  6  2  1  0  0  0  0
  7  8  2  0  0  0  0
  9 10  1  0  0  0  0
  9  7  1  0  0  0  0
 11 10  1  0  0  0  0
 12 15  1  0  0  0  0
 12 14  1  1  0  0  0
 13 14  1  0  0  0  0
 16 15  1  0  0  0  0
 16 17  1  0  0  0  0
 17 19  1  0  0  0  0
 18 19  2  0  0  0  0
 19 23  1  0  0  0  0
 20 23  2  0  0  0  0
 20 22  1  0  0  0  0
 21 24  1  0  0  0  0
 21 26  1  0  0  0  0
 22 21  2  0  0  0  0
 23 25  1  0  0  0  0
 25 24  2  0  0  0  0
 26 27  1  0  0  0  0
 28 26  1  0  0  0  0
 29 30  1  0  0  0  0
 31 28  1  0  0  0  0
 31 29  1  0  0  0  0
 31 30  1  0  0  0  0
 32 33  1  0  0  0  0
 33 34  1  0  0  0  0
 34 35  1  0  0  0  0
 35 36  1  0  0  0  0
 36 37  1  0  0  0  0
 38 44  1  0  0  0  0
 38 40  1  0  0  0  0
 39 37  1  1  0  0  0
 39 42  1  0  0  0  0
 40 39  1  0  0  0  0
 40 43  1  0  0  0  0
 41 43  1  6  0  0  0
 41 49  1  0  0  0  0
 42 41  1  0  0  0  0
 44 40  1  0  0  0  0
 45 48  1  0  0  0  0
 46 48  1  0  0  0  0
 47 49  1  0  0  0  0
 47 46  1  0  0  0  0
 49 45  1  1  0  0  0
M  END
>  <MODEL>
1

>  <REMARK>
 VINA RESULT:      -6.2      0.000      0.000
  Name = 
  21 active torsions:
  status: ('A' for Active; 'I' for Inactive)
    1  A    between atoms: C_1  and  N_9
    2  A    between atoms: C_1  and  C_35
    3  A    between atoms: C_4  and  O_23
    4  A    between atoms: C_4  and  C_31
    5  A    between atoms: C_7  and  C_38
    6  A    between atoms: C_8  and  C_12
    7  A    between atoms: N_9  and  N_24
    8  A    between atoms: C_11  and  N_13
    9  A    between atoms: N_13  and  C_33
   10  A    between atoms: C_16  and  C_21
   11  A    between atoms: C_17  and  C_35
   12  A    between atoms: C_20  and  C_21
   13  A    between atoms: C_20  and  C_22
   14  A    between atoms: C_22  and  O_23
   15  A    between atoms: N_24  and  C_48
   16  A    between atoms: C_25  and  C_47
   17  A    between atoms: N_29  and  C_48
   18  A    between atoms: C_31  and  C_45
   19  A    between atoms: C_33  and  C_41
   20  A    between atoms: N_36  and  C_38
   21  A    between atoms: C_46  and  C_48
                            x       y       z     vdW  Elec       q    Type
                         _______ _______ _______ _____ _____    ______ ____

>  <TORSDO>
F 21

$$$$
=
 OpenBabel11042414103D

 49 54  0  0  1  0  0  0  0  0999 V2000
  189.1630  175.9230  142.0050 C   0  0  2  0  0  3  0  0  0  0  0  0
  186.7600  175.6570  142.3470 C   0  0  0  0  0  2  0  0  0  0  0  0
  187.1620  176.9620  141.7620 C   0  0  0  0  0  0  0  0  0  0  0  0
  186.2400  178.0040  141.4280 N   0  0  0  0  0  2  0  0  0  0  0  0
  188.4280  177.1020  141.5680 N   0  0  0  0  0  0  0  0  0  0  0  0
  188.0970  174.9290  142.4920 C   0  0  1  0  0  3  0  0  0  0  0  0
  191.3060  176.8350  142.8740 C   0  0  0  0  0  3  0  0  0  0  0  0
  190.1190  176.2700  143.1160 C   0  0  0  0  0  3  0  0  0  0  0  0
  192.2340  177.1930  143.9890 C   0  0  0  0  0  2  0  0  0  0  0  0
  193.2900  176.1970  144.0980 N   0  0  0  0  0  2  0  0  0  0  0  0
  194.0430  176.5190  145.2980 C   0  0  0  0  0  1  0  0  0  0  0  0
  184.8120  177.8780  141.7040 C   0  0  2  0  0  3  0  0  0  0  0  0
  182.5250  178.0410  140.7420 C   0  0  0  0  0  1  0  0  0  0  0  0
  184.0110  178.2270  140.4630 C   0  0  0  0  0  2  0  0  0  0  0  0
  184.4220  178.7550  142.8130 N   0  0  0  0  0  2  0  0  0  0  0  0
  185.5740  179.4190  143.2710 N   0  0  0  0  0  2  0  0  0  0  0  0
  185.2690  179.9940  144.5750 C   0  0  0  0  0  2  0  0  0  0  0  0
  183.9960  178.7370  146.1350 O   0  0  0  0  0  0  0  0  0  0  0  0
  185.1150  178.8920  145.5740 C   0  0  0  0  0  0  0  0  0  0  0  0
  186.0960  177.0130  146.8940 C   0  0  0  0  0  3  0  0  0  0  0  0
  188.3280  176.1660  146.4270 C   0  0  0  0  0  0  0  0  0  0  0  0
  187.1410  176.1250  147.1730 C   0  0  0  0  0  3  0  0  0  0  0  0
  186.2230  177.9570  145.8620 C   0  0  0  0  0  0  0  0  0  0  0  0
  188.4570  177.1130  145.3970 C   0  0  0  0  0  3  0  0  0  0  0  0
  187.4130  178.0010  145.1160 C   0  0  0  0  0  3  0  0  0  0  0  0
  189.3890  175.2440  146.7180 N   0  0  0  0  0  0  0  0  0  0  0  0
  189.4590  174.0700  146.0530 O   0  0  0  0  0  1  0  0  0  0  0  0
  190.3450  175.5090  147.7860 C   0  0  0  0  0  2  0  0  0  0  0  0
  191.7420  177.2790  148.8060 C   0  0  0  0  0  2  0  0  0  0  0  0
  190.4160  177.8860  148.4120 C   0  0  0  0  0  2  0  0  0  0  0  0
  191.0530  176.8300  147.5370 C   0  0  0  0  0  3  0  0  0  0  0  0
  188.1420  173.6210  141.6940 C   0  0  0  0  0  2  0  0  0  0  0  0
  188.4890  172.4080  142.5510 C   0  0  0  0  0  2  0  0  0  0  0  0
  189.7700  172.5620  143.0830 O   0  0  0  0  0  0  0  0  0  0  0  0
  190.6450  172.1410  142.0820 C   0  0  0  0  0  2  0  0  0  0  0  0
  191.7860  173.1360  141.9630 C   0  0  0  0  0  2  0  0  0  0  0  0
  191.8040  173.7570  140.5740 C   0  0  0  0  0  2  0  0  0  0  0  0
  193.2470  171.3460  139.1590 C   0  0  0  0  0  2  0  0  0  0  0  0
  191.0970  172.8380  139.5960 C   0  0  2  0  0  3  0  0  0  0  0  0
  192.0860  172.1830  138.6670 C   0  0  0  0  0  0  0  0  0  0  0  0
  191.0160  173.8550  137.3510 C   0  0  1  0  0  3  0  0  0  0  0  0
  190.2240  173.6480  138.6500 C   0  0  0  0  0  2  0  0  0  0  0  0
  192.0240  172.7170  137.2630 C   0  0  0  0  0  2  0  0  0  0  0  0
  191.9690  170.6710  138.6920 C   0  0  0  0  0  2  0  0  0  0  0  0
  190.6510  174.7800  135.0530 C   0  0  0  0  0  2  0  0  0  0  0  0
  188.6280  175.5290  135.5290 C   0  0  0  0  0  2  0  0  0  0  0  0
  188.8080  174.4380  136.4820 N   0  0  0  0  0  2  0  0  0  0  0  0
  189.8840  175.9520  135.0700 O   0  0  0  0  0  0  0  0  0  0  0  0
  190.0960  173.8700  136.1310 C   0  0  2  0  0  3  0  0  0  0  0  0
  1  6  1  0  0  0  0
  1  8  1  1  0  0  0
  2  6  1  0  0  0  0
  3  2  1  0  0  0  0
  4 12  1  0  0  0  0
  4  3  1  0  0  0  0
  5  3  2  0  0  0  0
  5  1  1  0  0  0  0
  6 32  1  6  0  0  0
  7  8  2  0  0  0  0
  7  9  1  0  0  0  0
  9 10  1  0  0  0  0
 10 11  1  0  0  0  0
 12 14  1  6  0  0  0
 12 15  1  0  0  0  0
 14 13  1  0  0  0  0
 15 16  1  0  0  0  0
 16 17  1  0  0  0  0
 17 19  1  0  0  0  0
 19 23  1  0  0  0  0
 19 18  2  0  0  0  0
 20 22  1  0  0  0  0
 21 26  1  0  0  0  0
 21 22  2  0  0  0  0
 23 20  2  0  0  0  0
 24 21  1  0  0  0  0
 25 24  2  0  0  0  0
 25 23  1  0  0  0  0
 26 28  1  0  0  0  0
 27 26  1  0  0  0  0
 30 29  1  0  0  0  0
 31 28  1  0  0  0  0
 31 30  1  0  0  0  0
 31 29  1  0  0  0  0
 32 33  1  0  0  0  0
 33 34  1  0  0  0  0
 35 34  1  0  0  0  0
 36 35  1  0  0  0  0
 37 36  1  0  0  0  0
 39 37  1  1  0  0  0
 40 44  1  0  0  0  0
 40 38  1  0  0  0  0
 40 39  1  0  0  0  0
 41 43  1  6  0  0  0
 41 42  1  0  0  0  0
 42 39  1  0  0  0  0
 43 40  1  0  0  0  0
 44 38  1  0  0  0  0
 45 48  1  0  0  0  0
 46 47  1  0  0  0  0
 48 46  1  0  0  0  0
 49 45  1  6  0  0  0
 49 47  1  0  0  0  0
 49 41  1  0  0  0  0
M  END
>  <MODEL>
2

>  <REMARK>
 VINA RESULT:      -6.0      2.528      8.213
  Name = 
  21 active torsions:
  status: ('A' for Active; 'I' for Inactive)
    1  A    between atoms: C_1  and  N_9
    2  A    between atoms: C_1  and  C_35
    3  A    between atoms: C_4  and  O_23
    4  A    between atoms: C_4  and  C_31
    5  A    between atoms: C_7  and  C_38
    6  A    between atoms: C_8  and  C_12
    7  A    between atoms: N_9  and  N_24
    8  A    between atoms: C_11  and  N_13
    9  A    between atoms: N_13  and  C_33
   10  A    between atoms: C_16  and  C_21
   11  A    between atoms: C_17  and  C_35
   12  A    between atoms: C_20  and  C_21
   13  A    between atoms: C_20  and  C_22
   14  A    between atoms: C_22  and  O_23
   15  A    between atoms: N_24  and  C_48
   16  A    between atoms: C_25  and  C_47
   17  A    between atoms: N_29  and  C_48
   18  A    between atoms: C_31  and  C_45
   19  A    between atoms: C_33  and  C_41
   20  A    between atoms: N_36  and  C_38
   21  A    between atoms: C_46  and  C_48
                            x       y       z     vdW  Elec       q    Type
                         _______ _______ _______ _____ _____    ______ ____

>  <TORSDO>
F 21

$$$$
=
 OpenBabel11042414103D

 49 54  0  0  1  0  0  0  0  0999 V2000
  189.4890  176.7070  141.8800 C   0  0  2  0  0  3  0  0  0  0  0  0
  187.1720  175.9960  142.1730 C   0  0  0  0  0  2  0  0  0  0  0  0
  187.3660  177.4680  142.1090 C   0  0  0  0  0  0  0  0  0  0  0  0
  186.3010  178.4180  142.2230 N   0  0  0  0  0  2  0  0  0  0  0  0
  188.5860  177.8480  141.9430 N   0  0  0  0  0  0  0  0  0  0  0  0
  188.5940  175.4640  141.9910 C   0  0  1  0  0  3  0  0  0  0  0  0
  191.3710  177.7470  143.1280 C   0  0  0  0  0  3  0  0  0  0  0  0
  190.4860  176.7520  143.0080 C   0  0  0  0  0  3  0  0  0  0  0  0
  192.3390  177.7870  144.2660 C   0  0  0  0  0  2  0  0  0  0  0  0
  193.0920  176.5420  144.3240 N   0  0  0  0  0  2  0  0  0  0  0  0
  194.1590  176.7470  145.2890 C   0  0  0  0  0  1  0  0  0  0  0  0
  184.9260  177.9980  142.4760 C   0  0  2  0  0  3  0  0  0  0  0  0
  182.6090  178.3100  141.6310 C   0  0  0  0  0  1  0  0  0  0  0  0
  184.0780  178.2240  141.2390 C   0  0  0  0  0  2  0  0  0  0  0  0
  184.3620  178.7380  143.6100 N   0  0  0  0  0  2  0  0  0  0  0  0
  185.3950  179.4890  144.1990 N   0  0  0  0  0  2  0  0  0  0  0  0
  185.2080  179.4500  145.6430 C   0  0  0  0  0  2  0  0  0  0  0  0
  184.3070  177.3580  146.3110 O   0  0  0  0  0  0  0  0  0  0  0  0
  185.3500  178.0400  146.1200 C   0  0  0  0  0  0  0  0  0  0  0  0
  186.8230  176.2910  147.1240 C   0  0  0  0  0  3  0  0  0  0  0  0
  189.2130  176.2390  146.6790 C   0  0  0  0  0  0  0  0  0  0  0  0
  188.0790  175.7030  147.3070 C   0  0  0  0  0  3  0  0  0  0  0  0
  186.6810  177.4250  146.3080 C   0  0  0  0  0  0  0  0  0  0  0  0
  189.0730  177.3760  145.8660 C   0  0  0  0  0  3  0  0  0  0  0  0
  187.8170  177.9640  145.6810 C   0  0  0  0  0  3  0  0  0  0  0  0
  190.4960  175.6220  146.8690 N   0  0  0  0  0  0  0  0  0  0  0  0
  191.3570  176.1310  147.7760 O   0  0  0  0  0  1  0  0  0  0  0  0
  190.9260  174.5060  146.0340 C   0  0  0  0  0  2  0  0  0  0  0  0
  189.7180  172.5210  145.1840 C   0  0  0  0  0  2  0  0  0  0  0  0
  190.3440  173.2360  144.0100 C   0  0  0  0  0  2  0  0  0  0  0  0
  189.7750  174.0320  145.1630 C   0  0  0  0  0  3  0  0  0  0  0  0
  188.7280  174.5630  140.7580 C   0  0  0  0  0  2  0  0  0  0  0  0
  188.1120  173.1820  140.9560 C   0  0  0  0  0  2  0  0  0  0  0  0
  188.7460  172.2610  140.1200 O   0  0  0  0  0  0  0  0  0  0  0  0
  190.1050  172.5650  140.1910 C   0  0  0  0  0  2  0  0  0  0  0  0
  190.8880  171.5520  139.3750 C   0  0  0  0  0  2  0  0  0  0  0  0
  192.3080  171.4280  139.9060 C   0  0  0  0  0  2  0  0  0  0  0  0
  193.4860  174.3440  139.9840 C   0  0  0  0  0  2  0  0  0  0  0  0
  192.4430  172.2240  141.1900 C   0  0  2  0  0  3  0  0  0  0  0  0
  193.5120  173.2770  141.0570 C   0  0  0  0  0  0  0  0  0  0  0  0
  194.4880  171.5730  142.4050 C   0  0  1  0  0  3  0  0  0  0  0  0
  192.9760  171.3360  142.3060 C   0  0  0  0  0  2  0  0  0  0  0  0
  194.7550  172.9640  141.8430 C   0  0  0  0  0  2  0  0  0  0  0  0
  192.9840  174.6610  141.3820 C   0  0  0  0  0  2  0  0  0  0  0  0
  193.8240  171.6100  144.8190 C   0  0  0  0  0  2  0  0  0  0  0  0
  195.2890  173.1810  145.3380 C   0  0  0  0  0  2  0  0  0  0  0  0
  195.8790  172.5570  144.1570 N   0  0  0  0  0  2  0  0  0  0  0  0
  193.9170  172.8920  145.3740 O   0  0  0  0  0  0  0  0  0  0  0  0
  194.9790  171.4620  143.8480 C   0  0  2  0  0  3  0  0  0  0  0  0
  1  5  1  0  0  0  0
  1  6  1  0  0  0  0
  1  8  1  1  0  0  0
  3  2  1  0  0  0  0
  3  4  1  0  0  0  0
  4 12  1  0  0  0  0
  5  3  2  0  0  0  0
  6 32  1  6  0  0  0
  6  2  1  0  0  0  0
  7  9  1  0  0  0  0
  8  7  2  0  0  0  0
  9 10  1  0  0  0  0
 10 11  1  0  0  0  0
 12 14  1  6  0  0  0
 12 15  1  0  0  0  0
 14 13  1  0  0  0  0
 15 16  1  0  0  0  0
 16 17  1  0  0  0  0
 17 19  1  0  0  0  0
 19 23  1  0  0  0  0
 19 18  2  0  0  0  0
 20 22  1  0  0  0  0
 21 26  1  0  0  0  0
 21 22  2  0  0  0  0
 23 20  2  0  0  0  0
 24 21  1  0  0  0  0
 25 24  2  0  0  0  0
 25 23  1  0  0  0  0
 26 27  1  0  0  0  0
 28 26  1  0  0  0  0
 30 31  1  0  0  0  0
 30 29  1  0  0  0  0
 31 29  1  0  0  0  0
 31 28  1  0  0  0  0
 32 33  1  0  0  0  0
 34 35  1  0  0  0  0
 34 33  1  0  0  0  0
 36 37  1  0  0  0  0
 36 35  1  0  0  0  0
 38 40  1  0  0  0  0
 38 44  1  0  0  0  0
 39 37  1  6  0  0  0
 39 42  1  0  0  0  0
 40 39  1  0  0  0  0
 40 44  1  0  0  0  0
 40 43  1  0  0  0  0
 41 43  1  1  0  0  0
 41 49  1  0  0  0  0
 42 41  1  0  0  0  0
 45 48  1  0  0  0  0
 46 48  1  0  0  0  0
 47 46  1  0  0  0  0
 49 47  1  0  0  0  0
 49 45  1  1  0  0  0
M  END
>  <MODEL>
3

>  <REMARK>
 VINA RESULT:      -5.9      2.451      8.126
  Name = 
  21 active torsions:
  status: ('A' for Active; 'I' for Inactive)
    1  A    between atoms: C_1  and  N_9
    2  A    between atoms: C_1  and  C_35
    3  A    between atoms: C_4  and  O_23
    4  A    between atoms: C_4  and  C_31
    5  A    between atoms: C_7  and  C_38
    6  A    between atoms: C_8  and  C_12
    7  A    between atoms: N_9  and  N_24
    8  A    between atoms: C_11  and  N_13
    9  A    between atoms: N_13  and  C_33
   10  A    between atoms: C_16  and  C_21
   11  A    between atoms: C_17  and  C_35
   12  A    between atoms: C_20  and  C_21
   13  A    between atoms: C_20  and  C_22
   14  A    between atoms: C_22  and  O_23
   15  A    between atoms: N_24  and  C_48
   16  A    between atoms: C_25  and  C_47
   17  A    between atoms: N_29  and  C_48
   18  A    between atoms: C_31  and  C_45
   19  A    between atoms: C_33  and  C_41
   20  A    between atoms: N_36  and  C_38
   21  A    between atoms: C_46  and  C_48
                            x       y       z     vdW  Elec       q    Type
                         _______ _______ _______ _____ _____    ______ ____

>  <TORSDO>
F 21

$$$$
=
 OpenBabel11042414103D

 49 54  0  0  1  0  0  0  0  0999 V2000
  189.3530  175.9230  142.0080 C   0  0  2  0  0  3  0  0  0  0  0  0
  186.9530  175.6090  142.3260 C   0  0  0  0  0  2  0  0  0  0  0  0
  187.3430  176.9580  141.8430 C   0  0  0  0  0  0  0  0  0  0  0  0
  186.4110  178.0150  141.5900 N   0  0  0  0  0  2  0  0  0  0  0  0
  188.6080  177.1260  141.6630 N   0  0  0  0  0  0  0  0  0  0  0  0
  188.2970  174.8850  142.4160 C   0  0  1  0  0  3  0  0  0  0  0  0
  191.3020  177.0760  143.0330 C   0  0  0  0  0  3  0  0  0  0  0  0
  190.3060  176.1920  143.1440 C   0  0  0  0  0  3  0  0  0  0  0  0
  192.2250  177.3470  144.1770 C   0  0  0  0  0  2  0  0  0  0  0  0
  193.4450  176.5650  144.0300 N   0  0  0  0  0  2  0  0  0  0  0  0
  194.2920  176.9000  145.1620 C   0  0  0  0  0  1  0  0  0  0  0  0
  184.9840  177.8540  141.8530 C   0  0  2  0  0  3  0  0  0  0  0  0
  182.7040  178.3210  140.9790 C   0  0  0  0  0  1  0  0  0  0  0  0
  184.1830  178.2370  140.6230 C   0  0  0  0  0  2  0  0  0  0  0  0
  184.5740  178.6810  142.9940 N   0  0  0  0  0  2  0  0  0  0  0  0
  185.6760  179.4640  143.3830 N   0  0  0  0  0  2  0  0  0  0  0  0
  185.3860  180.0190  144.7000 C   0  0  0  0  0  2  0  0  0  0  0  0
  184.0670  178.7540  146.2150 O   0  0  0  0  0  0  0  0  0  0  0  0
  185.1960  178.9000  145.6730 C   0  0  0  0  0  0  0  0  0  0  0  0
  186.1380  177.0010  146.9930 C   0  0  0  0  0  3  0  0  0  0  0  0
  188.3470  176.0990  146.5170 C   0  0  0  0  0  0  0  0  0  0  0  0
  187.1620  176.0870  147.2680 C   0  0  0  0  0  3  0  0  0  0  0  0
  186.2830  177.9390  145.9580 C   0  0  0  0  0  0  0  0  0  0  0  0
  188.4940  177.0410  145.4850 C   0  0  0  0  0  3  0  0  0  0  0  0
  187.4700  177.9530  145.2070 C   0  0  0  0  0  3  0  0  0  0  0  0
  189.3870  175.1520  146.8050 N   0  0  0  0  0  0  0  0  0  0  0  0
  189.3610  173.9310  146.2280 O   0  0  0  0  0  1  0  0  0  0  0  0
  190.4260  175.4490  147.7840 C   0  0  0  0  0  2  0  0  0  0  0  0
  192.4310  176.8720  148.0670 C   0  0  0  0  0  2  0  0  0  0  0  0
  191.2880  177.5020  148.8290 C   0  0  0  0  0  2  0  0  0  0  0  0
  191.0280  176.8160  147.5060 C   0  0  0  0  0  3  0  0  0  0  0  0
  188.3540  173.6430  141.5200 C   0  0  0  0  0  2  0  0  0  0  0  0
  188.4470  172.3400  142.3070 C   0  0  0  0  0  2  0  0  0  0  0  0
  189.3330  172.4980  143.3730 O   0  0  0  0  0  0  0  0  0  0  0  0
  190.4760  171.7820  143.0210 C   0  0  0  0  0  2  0  0  0  0  0  0
  191.5810  172.0790  144.0180 C   0  0  0  0  0  2  0  0  0  0  0  0
  192.4760  173.1950  143.5000 C   0  0  0  0  0  2  0  0  0  0  0  0
  194.9190  171.3310  142.8260 C   0  0  0  0  0  2  0  0  0  0  0  0
  192.9040  172.8860  142.0770 C   0  0  2  0  0  3  0  0  0  0  0  0
  194.3560  172.4890  142.0300 C   0  0  0  0  0  0  0  0  0  0  0  0
  194.2950  174.7100  141.1730 C   0  0  1  0  0  3  0  0  0  0  0  0
  192.8680  174.1500  141.2310 C   0  0  0  0  0  2  0  0  0  0  0  0
  195.2390  173.5400  141.4160 C   0  0  0  0  0  2  0  0  0  0  0  0
  194.5520  171.1410  141.3640 C   0  0  0  0  0  2  0  0  0  0  0  0
  194.0940  174.5050  138.6850 C   0  0  0  0  0  2  0  0  0  0  0  0
  196.2520  174.8380  138.3480 C   0  0  0  0  0  2  0  0  0  0  0  0
  196.0110  175.5030  139.6250 N   0  0  0  0  0  2  0  0  0  0  0  0
  195.2250  173.9130  138.1100 O   0  0  0  0  0  0  0  0  0  0  0  0
  194.5800  175.3760  139.8270 C   0  0  2  0  0  3  0  0  0  0  0  0
  1  6  1  0  0  0  0
  1  8  1  1  0  0  0
  2  6  1  0  0  0  0
  3  2  1  0  0  0  0
  4  3  1  0  0  0  0
  4 12  1  0  0  0  0
  5  3  2  0  0  0  0
  5  1  1  0  0  0  0
  6 32  1  6  0  0  0
  7  8  2  0  0  0  0
  7  9  1  0  0  0  0
 10  9  1  0  0  0  0
 10 11  1  0  0  0  0
 12 14  1  6  0  0  0
 12 15  1  0  0  0  0
 14 13  1  0  0  0  0
 15 16  1  0  0  0  0
 16 17  1  0  0  0  0
 17 19  1  0  0  0  0
 19 23  1  0  0  0  0
 19 18  2  0  0  0  0
 20 22  1  0  0  0  0
 21 26  1  0  0  0  0
 21 22  2  0  0  0  0
 23 20  2  0  0  0  0
 24 21  1  0  0  0  0
 25 24  2  0  0  0  0
 25 23  1  0  0  0  0
 26 28  1  0  0  0  0
 27 26  1  0  0  0  0
 29 30  1  0  0  0  0
 31 28  1  0  0  0  0
 31 29  1  0  0  0  0
 31 30  1  0  0  0  0
 32 33  1  0  0  0  0
 33 34  1  0  0  0  0
 35 34  1  0  0  0  0
 35 36  1  0  0  0  0
 37 36  1  0  0  0  0
 39 37  1  1  0  0  0
 40 39  1  0  0  0  0
 40 38  1  0  0  0  0
 41 42  1  6  0  0  0
 41 43  1  0  0  0  0
 42 39  1  0  0  0  0
 43 40  1  0  0  0  0
 44 40  1  0  0  0  0
 44 38  1  0  0  0  0
 46 47  1  0  0  0  0
 47 49  1  0  0  0  0
 48 46  1  0  0  0  0
 48 45  1  0  0  0  0
 49 45  1  6  0  0  0
 49 41  1  0  0  0  0
M  END
>  <MODEL>
4

>  <REMARK>
 VINA RESULT:      -5.8      2.463      8.489
  Name = 
  21 active torsions:
  status: ('A' for Active; 'I' for Inactive)
    1  A    between atoms: C_1  and  N_9
    2  A    between atoms: C_1  and  C_35
    3  A    between atoms: C_4  and  O_23
    4  A    between atoms: C_4  and  C_31
    5  A    between atoms: C_7  and  C_38
    6  A    between atoms: C_8  and  C_12
    7  A    between atoms: N_9  and  N_24
    8  A    between atoms: C_11  and  N_13
    9  A    between atoms: N_13  and  C_33
   10  A    between atoms: C_16  and  C_21
   11  A    between atoms: C_17  and  C_35
   12  A    between atoms: C_20  and  C_21
   13  A    between atoms: C_20  and  C_22
   14  A    between atoms: C_22  and  O_23
   15  A    between atoms: N_24  and  C_48
   16  A    between atoms: C_25  and  C_47
   17  A    between atoms: N_29  and  C_48
   18  A    between atoms: C_31  and  C_45
   19  A    between atoms: C_33  and  C_41
   20  A    between atoms: N_36  and  C_38
   21  A    between atoms: C_46  and  C_48
                            x       y       z     vdW  Elec       q    Type
                         _______ _______ _______ _____ _____    ______ ____

>  <TORSDO>
F 21

$$$$
=
 OpenBabel11042414103D

 49 54  0  0  1  0  0  0  0  0999 V2000
  191.7960  175.4450  143.3280 C   0  0  2  0  0  3  0  0  0  0  0  0
  194.0000  174.4000  143.2210 C   0  0  0  0  0  2  0  0  0  0  0  0
  193.9320  175.7660  142.6400 C   0  0  0  0  0  0  0  0  0  0  0  0
  195.0490  176.4360  142.0460 N   0  0  0  0  0  2  0  0  0  0  0  0
  192.7740  176.3270  142.7050 N   0  0  0  0  0  0  0  0  0  0  0  0
  192.5710  174.1770  143.7170 C   0  0  1  0  0  3  0  0  0  0  0  0
  189.6580  174.3330  142.7160 C   0  0  0  0  0  3  0  0  0  0  0  0
  190.6820  175.1180  142.3680 C   0  0  0  0  0  3  0  0  0  0  0  0
  188.5510  174.0370  141.7580 C   0  0  0  0  0  2  0  0  0  0  0  0
  188.6030  172.6390  141.3520 N   0  0  0  0  0  2  0  0  0  0  0  0
  189.3820  171.9420  142.3610 C   0  0  0  0  0  1  0  0  0  0  0  0
  196.3470  175.7840  141.9100 C   0  0  2  0  0  3  0  0  0  0  0  0
  197.8520  174.9560  143.7080 C   0  0  0  0  0  1  0  0  0  0  0  0
  197.2570  176.1950  143.0530 C   0  0  0  0  0  2  0  0  0  0  0  0
  196.9680  176.1330  140.6280 N   0  0  0  0  0  2  0  0  0  0  0  0
  197.3360  174.9390  139.9820 N   0  0  0  0  0  2  0  0  0  0  0  0
  196.1760  174.4550  139.2440 C   0  0  0  0  0  2  0  0  0  0  0  0
  196.7960  172.3740  140.2020 O   0  0  0  0  0  0  0  0  0  0  0  0
  195.8800  173.0510  139.6610 C   0  0  0  0  0  0  0  0  0  0  0  0
  194.3690  171.1910  138.9580 C   0  0  0  0  0  3  0  0  0  0  0  0
  191.9540  171.3590  139.2020 C   0  0  0  0  0  0  0  0  0  0  0  0
  193.0920  170.6380  138.8090 C   0  0  0  0  0  3  0  0  0  0  0  0
  194.5280  172.4740  139.5060 C   0  0  0  0  0  0  0  0  0  0  0  0
  192.1120  172.6440  139.7460 C   0  0  0  0  0  3  0  0  0  0  0  0
  193.3890  173.1980  139.8990 C   0  0  0  0  0  3  0  0  0  0  0  0
  190.6500  170.7770  139.0500 N   0  0  0  0  0  0  0  0  0  0  0  0
  190.3370  169.6480  139.7220 O   0  0  0  0  0  1  0  0  0  0  0  0
  189.6830  171.3320  138.1110 C   0  0  0  0  0  2  0  0  0  0  0  0
  189.3910  171.4600  135.6570 C   0  0  0  0  0  2  0  0  0  0  0  0
  190.4310  170.4060  135.9590 C   0  0  0  0  0  2  0  0  0  0  0  0
  190.3660  171.6650  136.7950 C   0  0  0  0  0  3  0  0  0  0  0  0
  192.5080  173.9210  145.2270 C   0  0  0  0  0  2  0  0  0  0  0  0
  193.4920  174.7760  146.0200 C   0  0  0  0  0  2  0  0  0  0  0  0
  192.8500  175.9260  146.4800 O   0  0  0  0  0  0  0  0  0  0  0  0
  191.6300  175.4920  146.9970 C   0  0  0  0  0  2  0  0  0  0  0  0
  190.6460  176.6490  147.0000 C   0  0  0  0  0  2  0  0  0  0  0  0
  189.2980  176.1990  146.4580 C   0  0  0  0  0  2  0  0  0  0  0  0
  186.3530  176.7430  147.4200 C   0  0  0  0  0  2  0  0  0  0  0  0
  188.5000  177.4090  146.0100 C   0  0  2  0  0  3  0  0  0  0  0  0
  187.0210  177.1450  146.1220 C   0  0  0  0  0  0  0  0  0  0  0  0
  187.4970  177.0160  143.7920 C   0  0  1  0  0  3  0  0  0  0  0  0
  188.6930  177.6440  144.5200 C   0  0  0  0  0  2  0  0  0  0  0  0
  186.3470  176.9730  144.7890 C   0  0  0  0  0  2  0  0  0  0  0  0
  186.3220  178.1930  146.9660 C   0  0  0  0  0  2  0  0  0  0  0  0
  186.3360  179.0600  142.9290 C   0  0  0  0  0  2  0  0  0  0  0  0
  185.0510  177.9110  141.5460 C   0  0  0  0  0  2  0  0  0  0  0  0
  186.2140  177.0450  141.7120 N   0  0  0  0  0  2  0  0  0  0  0  0
  184.9930  178.8140  142.6180 O   0  0  0  0  0  0  0  0  0  0  0  0
  187.1150  177.8160  142.5480 C   0  0  2  0  0  3  0  0  0  0  0  0
  1  8  1  6  0  0  0
  1  6  1  0  0  0  0
  2  6  1  0  0  0  0
  3  5  2  0  0  0  0
  3  2  1  0  0  0  0
  4  3  1  0  0  0  0
  5  1  1  0  0  0  0
  6 32  1  1  0  0  0
  8  7  2  0  0  0  0
  9  7  1  0  0  0  0
 10  9  1  0  0  0  0
 10 11  1  0  0  0  0
 12  4  1  0  0  0  0
 12 14  1  1  0  0  0
 14 13  1  0  0  0  0
 15 12  1  0  0  0  0
 16 15  1  0  0  0  0
 17 19  1  0  0  0  0
 17 16  1  0  0  0  0
 19 18  2  0  0  0  0
 20 23  1  0  0  0  0
 21 24  2  0  0  0  0
 22 20  2  0  0  0  0
 22 21  1  0  0  0  0
 23 19  1  0  0  0  0
 23 25  2  0  0  0  0
 24 25  1  0  0  0  0
 26 21  1  0  0  0  0
 26 27  1  0  0  0  0
 28 26  1  0  0  0  0
 29 30  1  0  0  0  0
 29 31  1  0  0  0  0
 30 31  1  0  0  0  0
 31 28  1  0  0  0  0
 32 33  1  0  0  0  0
 33 34  1  0  0  0  0
 34 35  1  0  0  0  0
 35 36  1  0  0  0  0
 37 36  1  0  0  0  0
 39 40  1  0  0  0  0
 39 37  1  6  0  0  0
 40 44  1  0  0  0  0
 40 38  1  0  0  0  0
 41 42  1  1  0  0  0
 41 43  1  0  0  0  0
 42 39  1  0  0  0  0
 43 40  1  0  0  0  0
 44 38  1  0  0  0  0
 46 47  1  0  0  0  0
 46 48  1  0  0  0  0
 47 49  1  0  0  0  0
 48 45  1  0  0  0  0
 49 45  1  1  0  0  0
 49 41  1  0  0  0  0
M  END
>  <MODEL>
5

>  <REMARK>
 VINA RESULT:      -5.7      2.503      6.737
  Name = 
  21 active torsions:
  status: ('A' for Active; 'I' for Inactive)
    1  A    between atoms: C_1  and  N_9
    2  A    between atoms: C_1  and  C_35
    3  A    between atoms: C_4  and  O_23
    4  A    between atoms: C_4  and  C_31
    5  A    between atoms: C_7  and  C_38
    6  A    between atoms: C_8  and  C_12
    7  A    between atoms: N_9  and  N_24
    8  A    between atoms: C_11  and  N_13
    9  A    between atoms: N_13  and  C_33
   10  A    between atoms: C_16  and  C_21
   11  A    between atoms: C_17  and  C_35
   12  A    between atoms: C_20  and  C_21
   13  A    between atoms: C_20  and  C_22
   14  A    between atoms: C_22  and  O_23
   15  A    between atoms: N_24  and  C_48
   16  A    between atoms: C_25  and  C_47
   17  A    between atoms: N_29  and  C_48
   18  A    between atoms: C_31  and  C_45
   19  A    between atoms: C_33  and  C_41
   20  A    between atoms: N_36  and  C_38
   21  A    between atoms: C_46  and  C_48
                            x       y       z     vdW  Elec       q    Type
                         _______ _______ _______ _____ _____    ______ ____

>  <TORSDO>
F 21

$$$$
=
 OpenBabel11042414103D

 49 54  0  0  1  0  0  0  0  0999 V2000
  186.5370  178.2360  142.2460 C   0  0  2  0  0  3  0  0  0  0  0  0
  187.1230  176.0110  143.0650 C   0  0  0  0  0  2  0  0  0  0  0  0
  187.5030  176.2720  141.6520 C   0  0  0  0  0  0  0  0  0  0  0  0
  188.1480  175.3110  140.8090 N   0  0  0  0  0  2  0  0  0  0  0  0
  187.2060  177.4490  141.2190 N   0  0  0  0  0  0  0  0  0  0  0  0
  186.4940  177.3380  143.4920 C   0  0  1  0  0  3  0  0  0  0  0  0
  184.5210  177.9720  140.8150 C   0  0  0  0  0  3  0  0  0  0  0  0
  185.1450  178.6110  141.8090 C   0  0  0  0  0  3  0  0  0  0  0  0
  183.1320  178.3430  140.4080 C   0  0  0  0  0  2  0  0  0  0  0  0
  182.2340  178.2400  141.5490 N   0  0  0  0  0  2  0  0  0  0  0  0
  181.0090  178.9280  141.1780 C   0  0  0  0  0  1  0  0  0  0  0  0
  188.4290  173.9560  141.2720 C   0  0  2  0  0  3  0  0  0  0  0  0
  189.6780  173.5360  143.3800 C   0  0  0  0  0  1  0  0  0  0  0  0
  189.8060  173.8990  141.9070 C   0  0  0  0  0  2  0  0  0  0  0  0
  188.3540  173.0050  140.1580 N   0  0  0  0  0  2  0  0  0  0  0  0
  189.4920  172.1810  140.2100 N   0  0  0  0  0  2  0  0  0  0  0  0
  189.9050  171.9040  138.8400 C   0  0  0  0  0  2  0  0  0  0  0  0
  191.6320  170.3020  138.5450 O   0  0  0  0  0  0  0  0  0  0  0  0
  191.3430  171.4950  138.8340 C   0  0  0  0  0  0  0  0  0  0  0  0
  192.4250  173.7100  138.4350 C   0  0  0  0  0  3  0  0  0  0  0  0
  194.4670  174.3500  139.5910 C   0  0  0  0  0  0  0  0  0  0  0  0
  193.4400  174.6410  138.6810 C   0  0  0  0  0  3  0  0  0  0  0  0
  192.4200  172.4730  139.0980 C   0  0  0  0  0  0  0  0  0  0  0  0
  194.4660  173.1100  140.2510 C   0  0  0  0  0  3  0  0  0  0  0  0
  193.4500  172.1790  140.0080 C   0  0  0  0  0  3  0  0  0  0  0  0
  195.4990  175.3170  139.8400 N   0  0  0  0  0  0  0  0  0  0  0  0
  196.5890  175.3540  139.0430 O   0  0  0  0  0  1  0  0  0  0  0  0
  195.4390  176.2030  140.9960 C   0  0  0  0  0  2  0  0  0  0  0  0
  196.7090  176.5920  143.0840 C   0  0  0  0  0  2  0  0  0  0  0  0
  197.5760  175.7910  142.1410 C   0  0  0  0  0  2  0  0  0  0  0  0
  196.0860  175.5360  142.1980 C   0  0  0  0  0  3  0  0  0  0  0  0
  187.2300  177.9820  144.6730 C   0  0  0  0  0  2  0  0  0  0  0  0
  187.4990  177.0060  145.8140 C   0  0  0  0  0  2  0  0  0  0  0  0
  188.8600  176.7010  145.8600 O   0  0  0  0  0  0  0  0  0  0  0  0
  189.3630  177.4010  146.9560 C   0  0  0  0  0  2  0  0  0  0  0  0
  190.6280  176.7190  147.4480 C   0  0  0  0  0  2  0  0  0  0  0  0
  190.9760  175.5390  146.5540 C   0  0  0  0  0  2  0  0  0  0  0  0
  191.7140  176.6290  143.6960 C   0  0  0  0  0  2  0  0  0  0  0  0
  192.4080  175.6720  146.0710 C   0  0  2  0  0  3  0  0  0  0  0  0
  192.4700  175.6480  144.5660 C   0  0  0  0  0  0  0  0  0  0  0  0
  193.2530  173.5050  145.2510 C   0  0  1  0  0  3  0  0  0  0  0  0
  193.2120  174.4420  146.4650 C   0  0  0  0  0  2  0  0  0  0  0  0
  193.0500  174.3740  144.0160 C   0  0  0  0  0  2  0  0  0  0  0  0
  193.1800  176.8670  144.0100 C   0  0  0  0  0  2  0  0  0  0  0  0
  194.9280  172.4270  143.7340 C   0  0  0  0  0  2  0  0  0  0  0  0
  194.8550  170.4950  144.8050 C   0  0  0  0  0  2  0  0  0  0  0  0
  194.4500  171.4550  145.8270 N   0  0  0  0  0  2  0  0  0  0  0  0
  194.6650  171.0660  143.5370 O   0  0  0  0  0  0  0  0  0  0  0  0
  194.5750  172.7440  145.1740 C   0  0  2  0  0  3  0  0  0  0  0  0
  1  8  1  6  0  0  0
  1  6  1  0  0  0  0
  2  6  1  0  0  0  0
  3  2  1  0  0  0  0
  4 12  1  0  0  0  0
  4  3  1  0  0  0  0
  5  3  2  0  0  0  0
  5  1  1  0  0  0  0
  6 32  1  1  0  0  0
  7  8  2  0  0  0  0
  9  7  1  0  0  0  0
  9 10  1  0  0  0  0
 11 10  1  0  0  0  0
 12 14  1  6  0  0  0
 14 13  1  0  0  0  0
 15 16  1  0  0  0  0
 15 12  1  0  0  0  0
 17 16  1  0  0  0  0
 18 19  2  0  0  0  0
 19 17  1  0  0  0  0
 19 23  1  0  0  0  0
 20 22  2  0  0  0  0
 20 23  1  0  0  0  0
 21 26  1  0  0  0  0
 21 24  2  0  0  0  0
 22 21  1  0  0  0  0
 23 25  2  0  0  0  0
 25 24  1  0  0  0  0
 26 28  1  0  0  0  0
 27 26  1  0  0  0  0
 28 31  1  0  0  0  0
 30 31  1  0  0  0  0
 30 29  1  0  0  0  0
 31 29  1  0  0  0  0
 32 33  1  0  0  0  0
 33 34  1  0  0  0  0
 34 35  1  0  0  0  0
 35 36  1  0  0  0  0
 37 36  1  0  0  0  0
 38 44  1  0  0  0  0
 38 40  1  0  0  0  0
 39 42  1  0  0  0  0
 39 37  1  6  0  0  0
 40 39  1  0  0  0  0
 41 43  1  6  0  0  0
 41 42  1  0  0  0  0
 43 40  1  0  0  0  0
 44 40  1  0  0  0  0
 46 47  1  0  0  0  0
 48 45  1  0  0  0  0
 48 46  1  0  0  0  0
 49 45  1  6  0  0  0
 49 41  1  0  0  0  0
 49 47  1  0  0  0  0
M  END
>  <MODEL>
6

>  <REMARK>
 VINA RESULT:      -5.6      2.494      8.555
  Name = 
  21 active torsions:
  status: ('A' for Active; 'I' for Inactive)
    1  A    between atoms: C_1  and  N_9
    2  A    between atoms: C_1  and  C_35
    3  A    between atoms: C_4  and  O_23
    4  A    between atoms: C_4  and  C_31
    5  A    between atoms: C_7  and  C_38
    6  A    between atoms: C_8  and  C_12
    7  A    between atoms: N_9  and  N_24
    8  A    between atoms: C_11  and  N_13
    9  A    between atoms: N_13  and  C_33
   10  A    between atoms: C_16  and  C_21
   11  A    between atoms: C_17  and  C_35
   12  A    between atoms: C_20  and  C_21
   13  A    between atoms: C_20  and  C_22
   14  A    between atoms: C_22  and  O_23
   15  A    between atoms: N_24  and  C_48
   16  A    between atoms: C_25  and  C_47
   17  A    between atoms: N_29  and  C_48
   18  A    between atoms: C_31  and  C_45
   19  A    between atoms: C_33  and  C_41
   20  A    between atoms: N_36  and  C_38
   21  A    between atoms: C_46  and  C_48
                            x       y       z     vdW  Elec       q    Type
                         _______ _______ _______ _____ _____    ______ ____

>  <TORSDO>
F 21

$$$$
=
 OpenBabel11042414103D

 49 54  0  0  1  0  0  0  0  0999 V2000
  195.3700  173.3720  145.1080 C   0  0  2  0  0  3  0  0  0  0  0  0
  193.7240  174.8460  144.0680 C   0  0  0  0  0  2  0  0  0  0  0  0
  193.2260  174.0970  145.2510 C   0  0  0  0  0  0  0  0  0  0  0  0
  191.8900  174.1990  145.7550 N   0  0  0  0  0  2  0  0  0  0  0  0
  194.0940  173.3270  145.8110 N   0  0  0  0  0  0  0  0  0  0  0  0
  195.1810  174.3900  143.9740 C   0  0  1  0  0  3  0  0  0  0  0  0
  195.1300  170.9000  144.9920 C   0  0  0  0  0  3  0  0  0  0  0  0
  195.7240  172.0160  144.5570 C   0  0  0  0  0  3  0  0  0  0  0  0
  195.4790  169.5650  144.4200 C   0  0  0  0  0  2  0  0  0  0  0  0
  194.6280  168.5360  145.0000 N   0  0  0  0  0  2  0  0  0  0  0  0
  193.4890  168.3860  144.1100 C   0  0  0  0  0  1  0  0  0  0  0  0
  190.8830  175.0200  145.0890 C   0  0  2  0  0  3  0  0  0  0  0  0
  189.2370  175.1130  146.9490 C   0  0  0  0  0  1  0  0  0  0  0  0
  190.2020  175.9260  146.0970 C   0  0  0  0  0  2  0  0  0  0  0  0
  189.8860  174.1730  144.4250 N   0  0  0  0  0  2  0  0  0  0  0  0
  190.3030  173.9660  143.0980 N   0  0  0  0  0  2  0  0  0  0  0  0
  190.2640  175.2520  142.4120 C   0  0  0  0  0  2  0  0  0  0  0  0
  188.5400  174.8980  140.8190 O   0  0  0  0  0  0  0  0  0  0  0  0
  188.8850  175.4830  141.8810 C   0  0  0  0  0  0  0  0  0  0  0  0
  186.5380  176.0920  142.4770 C   0  0  0  0  0  3  0  0  0  0  0  0
  186.0510  177.9370  143.9850 C   0  0  0  0  0  0  0  0  0  0  0  0
  185.6140  176.8890  143.1610 C   0  0  0  0  0  3  0  0  0  0  0  0
  187.9160  176.3300  142.6070 C   0  0  0  0  0  0  0  0  0  0  0  0
  187.4290  178.1790  144.1130 C   0  0  0  0  0  3  0  0  0  0  0  0
  188.3550  177.3810  143.4300 C   0  0  0  0  0  3  0  0  0  0  0  0
  185.0930  178.7430  144.6880 N   0  0  0  0  0  0  0  0  0  0  0  0
  183.8860  178.9870  144.1330 O   0  0  0  0  0  1  0  0  0  0  0  0
  185.4310  179.3830  145.9540 C   0  0  0  0  0  2  0  0  0  0  0  0
  186.1280  178.1540  147.9860 C   0  0  0  0  0  2  0  0  0  0  0  0
  185.5760  177.1590  146.9930 C   0  0  0  0  0  2  0  0  0  0  0  0
  184.9500  178.5300  147.1150 C   0  0  0  0  0  3  0  0  0  0  0  0
  196.1680  175.5560  144.0950 C   0  0  0  0  0  2  0  0  0  0  0  0
  197.4320  175.3600  143.2640 C   0  0  0  0  0  2  0  0  0  0  0  0
  197.2390  174.3160  142.3580 O   0  0  0  0  0  0  0  0  0  0  0  0
  197.7480  174.7760  141.1430 C   0  0  0  0  0  2  0  0  0  0  0  0
  196.7320  175.6990  140.4920 C   0  0  0  0  0  2  0  0  0  0  0  0
  195.8300  174.9140  139.5520 C   0  0  0  0  0  2  0  0  0  0  0  0
  196.0610  171.7860  139.7860 C   0  0  0  0  0  2  0  0  0  0  0  0
  194.8560  174.0780  140.3600 C   0  0  2  0  0  3  0  0  0  0  0  0
  194.8270  172.6580  139.8600 C   0  0  0  0  0  0  0  0  0  0  0  0
  192.8060  173.6360  139.0630 C   0  0  1  0  0  3  0  0  0  0  0  0
  193.4300  174.5540  140.1220 C   0  0  0  0  0  2  0  0  0  0  0  0
  193.5600  172.3140  139.1250 C   0  0  0  0  0  2  0  0  0  0  0  0
  195.1140  171.6630  140.9670 C   0  0  0  0  0  2  0  0  0  0  0  0
  191.0720  172.1390  140.0750 C   0  0  0  0  0  2  0  0  0  0  0  0
  189.9140  171.9870  138.1990 C   0  0  0  0  0  2  0  0  0  0  0  0
  190.6130  173.2600  138.0530 N   0  0  0  0  0  2  0  0  0  0  0  0
  190.5780  171.2050  139.1570 O   0  0  0  0  0  0  0  0  0  0  0  0
  191.3130  173.4280  139.3120 C   0  0  2  0  0  3  0  0  0  0  0  0
  1  8  1  6  0  0  0
  1  5  1  0  0  0  0
  2  3  1  0  0  0  0
  3  4  1  0  0  0  0
  3  5  2  0  0  0  0
  6  2  1  0  0  0  0
  6 32  1  1  0  0  0
  6  1  1  0  0  0  0
  8  7  2  0  0  0  0
  9  7  1  0  0  0  0
  9 10  1  0  0  0  0
 11 10  1  0  0  0  0
 12  4  1  0  0  0  0
 12 14  1  1  0  0  0
 14 13  1  0  0  0  0
 15 12  1  0  0  0  0
 16 15  1  0  0  0  0
 17 16  1  0  0  0  0
 18 19  2  0  0  0  0
 19 17  1  0  0  0  0
 19 23  1  0  0  0  0
 20 23  2  0  0  0  0
 20 22  1  0  0  0  0
 21 24  1  0  0  0  0
 21 26  1  0  0  0  0
 22 21  2  0  0  0  0
 23 25  1  0  0  0  0
 25 24  2  0  0  0  0
 26 28  1  0  0  0  0
 27 26  1  0  0  0  0
 28 31  1  0  0  0  0
 30 31  1  0  0  0  0
 30 29  1  0  0  0  0
 31 29  1  0  0  0  0
 33 32  1  0  0  0  0
 34 33  1  0  0  0  0
 35 34  1  0  0  0  0
 36 35  1  0  0  0  0
 37 36  1  0  0  0  0
 38 40  1  0  0  0  0
 38 44  1  0  0  0  0
 39 37  1  6  0  0  0
 40 39  1  0  0  0  0
 40 44  1  0  0  0  0
 41 43  1  1  0  0  0
 41 49  1  0  0  0  0
 41 42  1  0  0  0  0
 42 39  1  0  0  0  0
 43 40  1  0  0  0  0
 46 48  1  0  0  0  0
 47 46  1  0  0  0  0
 47 49  1  0  0  0  0
 48 45  1  0  0  0  0
 49 45  1  1  0  0  0
M  END
>  <MODEL>
7

>  <REMARK>
 VINA RESULT:      -5.5      2.381      8.233
  Name = 
  21 active torsions:
  status: ('A' for Active; 'I' for Inactive)
    1  A    between atoms: C_1  and  N_9
    2  A    between atoms: C_1  and  C_35
    3  A    between atoms: C_4  and  O_23
    4  A    between atoms: C_4  and  C_31
    5  A    between atoms: C_7  and  C_38
    6  A    between atoms: C_8  and  C_12
    7  A    between atoms: N_9  and  N_24
    8  A    between atoms: C_11  and  N_13
    9  A    between atoms: N_13  and  C_33
   10  A    between atoms: C_16  and  C_21
   11  A    between atoms: C_17  and  C_35
   12  A    between atoms: C_20  and  C_21
   13  A    between atoms: C_20  and  C_22
   14  A    between atoms: C_22  and  O_23
   15  A    between atoms: N_24  and  C_48
   16  A    between atoms: C_25  and  C_47
   17  A    between atoms: N_29  and  C_48
   18  A    between atoms: C_31  and  C_45
   19  A    between atoms: C_33  and  C_41
   20  A    between atoms: N_36  and  C_38
   21  A    between atoms: C_46  and  C_48
                            x       y       z     vdW  Elec       q    Type
                         _______ _______ _______ _____ _____    ______ ____

>  <TORSDO>
F 21

$$$$
=
 OpenBabel11042414103D

 49 54  0  0  1  0  0  0  0  0999 V2000
  195.7680  175.3060  139.4920 C   0  0  2  0  0  3  0  0  0  0  0  0
  195.2010  174.5120  141.7300 C   0  0  0  0  0  2  0  0  0  0  0  0
  196.1540  175.6500  141.6990 C   0  0  0  0  0  0  0  0  0  0  0  0
  196.7230  176.2460  142.8700 N   0  0  0  0  0  2  0  0  0  0  0  0
  196.4480  176.0820  140.5210 N   0  0  0  0  0  0  0  0  0  0  0  0
  194.9060  174.2830  140.2470 C   0  0  1  0  0  3  0  0  0  0  0  0
  196.3850  173.9420  137.5070 C   0  0  0  0  0  3  0  0  0  0  0  0
  196.7640  174.6130  138.6000 C   0  0  0  0  0  3  0  0  0  0  0  0
  197.3880  173.2780  136.6210 C   0  0  0  0  0  2  0  0  0  0  0  0
  196.7300  172.7400  135.4390 N   0  0  0  0  0  2  0  0  0  0  0  0
  196.1600  171.4610  135.8260 C   0  0  0  0  0  1  0  0  0  0  0  0
  196.4470  175.7220  144.2040 C   0  0  2  0  0  3  0  0  0  0  0  0
  196.2520  173.2580  144.4740 C   0  0  0  0  0  1  0  0  0  0  0  0
  197.2180  174.4350  144.4280 C   0  0  0  0  0  2  0  0  0  0  0  0
  195.0100  175.4790  144.3750 N   0  0  0  0  0  2  0  0  0  0  0  0
  194.5620  176.2550  145.4590 N   0  0  0  0  0  2  0  0  0  0  0  0
  193.1600  176.5790  145.2270 C   0  0  0  0  0  2  0  0  0  0  0  0
  192.8350  174.6700  146.6000 O   0  0  0  0  0  0  0  0  0  0  0  0
  192.3030  175.6740  146.0540 C   0  0  0  0  0  0  0  0  0  0  0  0
  190.3810  177.2690  146.0660 C   0  0  0  0  0  3  0  0  0  0  0  0
  188.1490  176.5580  146.7240 C   0  0  0  0  0  0  0  0  0  0  0  0
  189.0290  177.5580  146.2830 C   0  0  0  0  0  3  0  0  0  0  0  0
  190.8740  175.9720  146.2850 C   0  0  0  0  0  0  0  0  0  0  0  0
  188.6430  175.2620  146.9480 C   0  0  0  0  0  3  0  0  0  0  0  0
  189.9940  174.9710  146.7300 C   0  0  0  0  0  3  0  0  0  0  0  0
  186.7630  176.8660  146.9360 N   0  0  0  0  0  0  0  0  0  0  0  0
  186.2850  176.9710  148.1950 O   0  0  0  0  0  1  0  0  0  0  0  0
  185.8360  176.9790  145.8160 C   0  0  0  0  0  2  0  0  0  0  0  0
  184.0450  178.6840  145.7350 C   0  0  0  0  0  2  0  0  0  0  0  0
  184.6070  178.5170  144.3420 C   0  0  0  0  0  2  0  0  0  0  0  0
  185.5250  178.4400  145.5420 C   0  0  0  0  0  3  0  0  0  0  0  0
  193.4180  174.4480  139.9140 C   0  0  0  0  0  2  0  0  0  0  0  0
  192.7850  173.1750  139.3620 C   0  0  0  0  0  2  0  0  0  0  0  0
  191.6240  173.4960  138.6570 O   0  0  0  0  0  0  0  0  0  0  0  0
  190.7900  172.3850  138.7830 C   0  0  0  0  0  2  0  0  0  0  0  0
  190.7570  171.9450  140.2350 C   0  0  0  0  0  2  0  0  0  0  0  0
  189.5380  172.5250  140.9370 C   0  0  0  0  0  2  0  0  0  0  0  0
  191.2670  173.8520  143.2060 C   0  0  0  0  0  2  0  0  0  0  0  0
  189.6970  174.0280  141.0750 C   0  0  2  0  0  3  0  0  0  0  0  0
  190.0520  174.4010  142.4910 C   0  0  0  0  0  0  0  0  0  0  0  0
  187.7600  175.0020  142.2480 C   0  0  1  0  0  3  0  0  0  0  0  0
  188.3590  174.7200  140.8640 C   0  0  0  0  0  2  0  0  0  0  0  0
  188.9240  175.0690  143.2270 C   0  0  0  0  0  2  0  0  0  0  0  0
  191.3230  175.2230  142.5570 C   0  0  0  0  0  2  0  0  0  0  0  0
  186.7120  176.7890  140.8410 C   0  0  0  0  0  2  0  0  0  0  0  0
  187.7670  178.4230  141.8910 C   0  0  0  0  0  2  0  0  0  0  0  0
  187.7270  177.3600  142.8900 N   0  0  0  0  0  2  0  0  0  0  0  0
  187.5800  177.8640  140.6170 O   0  0  0  0  0  0  0  0  0  0  0  0
  186.9600  176.3040  142.2570 C   0  0  2  0  0  3  0  0  0  0  0  0
  1  8  1  6  0  0  0
  1  6  1  0  0  0  0
  1  5  1  0  0  0  0
  3  2  1  0  0  0  0
  3  4  1  0  0  0  0
  4 12  1  0  0  0  0
  5  3  2  0  0  0  0
  6 32  1  1  0  0  0
  6  2  1  0  0  0  0
  7  8  2  0  0  0  0
  9  7  1  0  0  0  0
 10 11  1  0  0  0  0
 10  9  1  0  0  0  0
 12 15  1  0  0  0  0
 12 14  1  6  0  0  0
 14 13  1  0  0  0  0
 15 16  1  0  0  0  0
 17 16  1  0  0  0  0
 17 19  1  0  0  0  0
 19 23  1  0  0  0  0
 19 18  2  0  0  0  0
 20 22  2  0  0  0  0
 20 23  1  0  0  0  0
 21 26  1  0  0  0  0
 21 24  2  0  0  0  0
 22 21  1  0  0  0  0
 23 25  2  0  0  0  0
 25 24  1  0  0  0  0
 26 27  1  0  0  0  0
 28 26  1  0  0  0  0
 30 31  1  0  0  0  0
 30 29  1  0  0  0  0
 31 29  1  0  0  0  0
 31 28  1  0  0  0  0
 33 32  1  0  0  0  0
 34 35  1  0  0  0  0
 34 33  1  0  0  0  0
 35 36  1  0  0  0  0
 36 37  1  0  0  0  0
 39 37  1  1  0  0  0
 39 40  1  0  0  0  0
 40 44  1  0  0  0  0
 40 38  1  0  0  0  0
 40 43  1  0  0  0  0
 41 42  1  6  0  0  0
 41 49  1  0  0  0  0
 41 43  1  0  0  0  0
 42 39  1  0  0  0  0
 44 38  1  0  0  0  0
 46 47  1  0  0  0  0
 48 45  1  0  0  0  0
 48 46  1  0  0  0  0
 49 45  1  6  0  0  0
 49 47  1  0  0  0  0
M  END
>  <MODEL>
8

>  <REMARK>
 VINA RESULT:      -5.5      2.313      4.760
  Name = 
  21 active torsions:
  status: ('A' for Active; 'I' for Inactive)
    1  A    between atoms: C_1  and  N_9
    2  A    between atoms: C_1  and  C_35
    3  A    between atoms: C_4  and  O_23
    4  A    between atoms: C_4  and  C_31
    5  A    between atoms: C_7  and  C_38
    6  A    between atoms: C_8  and  C_12
    7  A    between atoms: N_9  and  N_24
    8  A    between atoms: C_11  and  N_13
    9  A    between atoms: N_13  and  C_33
   10  A    between atoms: C_16  and  C_21
   11  A    between atoms: C_17  and  C_35
   12  A    between atoms: C_20  and  C_21
   13  A    between atoms: C_20  and  C_22
   14  A    between atoms: C_22  and  O_23
   15  A    between atoms: N_24  and  C_48
   16  A    between atoms: C_25  and  C_47
   17  A    between atoms: N_29  and  C_48
   18  A    between atoms: C_31  and  C_45
   19  A    between atoms: C_33  and  C_41
   20  A    between atoms: N_36  and  C_38
   21  A    between atoms: C_46  and  C_48
                            x       y       z     vdW  Elec       q    Type
                         _______ _______ _______ _____ _____    ______ ____

>  <TORSDO>
F 21

$$$$
=
 OpenBabel11042414103D

 49 54  0  0  1  0  0  0  0  0999 V2000
  188.8680  173.0990  141.3810 C   0  0  2  0  0  3  0  0  0  0  0  0
  191.3020  173.2790  141.3460 C   0  0  0  0  0  2  0  0  0  0  0  0
  190.7610  172.4100  142.4220 C   0  0  0  0  0  0  0  0  0  0  0  0
  191.5750  171.7310  143.3840 N   0  0  0  0  0  2  0  0  0  0  0  0
  189.4770  172.3010  142.4380 N   0  0  0  0  0  0  0  0  0  0  0  0
  190.0380  173.7310  140.6140 C   0  0  1  0  0  3  0  0  0  0  0  0
  187.9290  175.3990  141.4610 C   0  0  0  0  0  3  0  0  0  0  0  0
  187.9720  174.1610  141.9630 C   0  0  0  0  0  3  0  0  0  0  0  0
  187.0190  176.4350  142.0360 C   0  0  0  0  0  2  0  0  0  0  0  0
  187.4860  177.7660  141.6740 N   0  0  0  0  0  2  0  0  0  0  0  0
  186.6580  178.7110  142.4050 C   0  0  0  0  0  1  0  0  0  0  0  0
  193.0240  171.8990  143.4130 C   0  0  2  0  0  3  0  0  0  0  0  0
  193.1430  169.6060  142.4580 C   0  0  0  0  0  1  0  0  0  0  0  0
  193.7020  170.5460  143.5190 C   0  0  0  0  0  2  0  0  0  0  0  0
  193.4220  172.7460  144.5420 N   0  0  0  0  0  2  0  0  0  0  0  0
  192.2880  173.4530  144.9790 N   0  0  0  0  0  2  0  0  0  0  0  0
  192.4460  174.8440  144.5750 C   0  0  0  0  0  2  0  0  0  0  0  0
  192.9160  176.2900  146.3970 O   0  0  0  0  0  0  0  0  0  0  0  0
  192.0250  175.7340  145.7000 C   0  0  0  0  0  0  0  0  0  0  0  0
  189.9130  175.2980  146.9600 C   0  0  0  0  0  3  0  0  0  0  0  0
  187.8730  176.5330  146.4800 C   0  0  0  0  0  0  0  0  0  0  0  0
  188.5620  175.5570  147.2160 C   0  0  0  0  0  3  0  0  0  0  0  0
  190.5970  176.0130  145.9640 C   0  0  0  0  0  0  0  0  0  0  0  0
  188.5560  177.2460  145.4810 C   0  0  0  0  0  3  0  0  0  0  0  0
  189.9080  176.9900  145.2250 C   0  0  0  0  0  3  0  0  0  0  0  0
  186.4890  176.7950  146.7570 N   0  0  0  0  0  0  0  0  0  0  0  0
  186.0610  176.8560  148.0370 O   0  0  0  0  0  1  0  0  0  0  0  0
  185.5130  176.9050  145.6800 C   0  0  0  0  0  2  0  0  0  0  0  0
  184.0560  178.7000  144.7970 C   0  0  0  0  0  2  0  0  0  0  0  0
  185.0210  179.3120  145.7850 C   0  0  0  0  0  2  0  0  0  0  0  0
  184.4540  177.9340  146.0390 C   0  0  0  0  0  3  0  0  0  0  0  0
  190.0340  173.3130  139.1390 C   0  0  0  0  0  2  0  0  0  0  0  0
  189.3280  171.9840  138.8960 C   0  0  0  0  0  2  0  0  0  0  0  0
  190.2470  170.9390  138.9970 O   0  0  0  0  0  0  0  0  0  0  0  0
  190.8780  170.8730  137.7550 C   0  0  0  0  0  2  0  0  0  0  0  0
  192.2950  170.3580  137.9390 C   0  0  0  0  0  2  0  0  0  0  0  0
  192.9490  171.0250  139.1400 C   0  0  0  0  0  2  0  0  0  0  0  0
  195.8750  170.3700  140.0900 C   0  0  0  0  0  2  0  0  0  0  0  0
  194.1570  171.8220  138.6850 C   0  0  2  0  0  3  0  0  0  0  0  0
  195.2830  171.7000  139.6770 C   0  0  0  0  0  0  0  0  0  0  0  0
  194.3920  173.8820  140.0190 C   0  0  1  0  0  3  0  0  0  0  0  0
  193.8430  173.3110  138.7050 C   0  0  0  0  0  2  0  0  0  0  0  0
  195.5180  172.9590  140.4660 C   0  0  0  0  0  2  0  0  0  0  0  0
  196.5600  171.2080  139.0250 C   0  0  0  0  0  2  0  0  0  0  0  0
  196.2660  175.3220  139.1900 C   0  0  0  0  0  2  0  0  0  0  0  0
  196.4720  176.3930  141.1120 C   0  0  0  0  0  2  0  0  0  0  0  0
  195.0830  175.9450  141.1320 N   0  0  0  0  0  2  0  0  0  0  0  0
  197.1950  175.6130  140.1970 O   0  0  0  0  0  0  0  0  0  0  0  0
  194.8950  175.3140  139.8400 C   0  0  2  0  0  3  0  0  0  0  0  0
  1  8  1  1  0  0  0
  1  5  1  0  0  0  0
  2  3  1  0  0  0  0
  3  5  2  0  0  0  0
  3  4  1  0  0  0  0
  4 12  1  0  0  0  0
  6 32  1  6  0  0  0
  6  2  1  0  0  0  0
  6  1  1  0  0  0  0
  7  8  2  0  0  0  0
  7  9  1  0  0  0  0
 10  9  1  0  0  0  0
 10 11  1  0  0  0  0
 12 14  1  1  0  0  0
 12 15  1  0  0  0  0
 13 14  1  0  0  0  0
 15 16  1  0  0  0  0
 17 16  1  0  0  0  0
 17 19  1  0  0  0  0
 19 23  1  0  0  0  0
 19 18  2  0  0  0  0
 20 22  1  0  0  0  0
 21 26  1  0  0  0  0
 21 22  2  0  0  0  0
 23 20  2  0  0  0  0
 24 21  1  0  0  0  0
 25 24  2  0  0  0  0
 25 23  1  0  0  0  0
 26 27  1  0  0  0  0
 28 31  1  0  0  0  0
 28 26  1  0  0  0  0
 29 30  1  0  0  0  0
 29 31  1  0  0  0  0
 30 31  1  0  0  0  0
 33 34  1  0  0  0  0
 33 32  1  0  0  0  0
 35 36  1  0  0  0  0
 35 34  1  0  0  0  0
 36 37  1  0  0  0  0
 39 42  1  0  0  0  0
 39 37  1  1  0  0  0
 39 40  1  0  0  0  0
 40 38  1  0  0  0  0
 40 43  1  0  0  0  0
 41 42  1  6  0  0  0
 41 43  1  0  0  0  0
 44 40  1  0  0  0  0
 44 38  1  0  0  0  0
 45 48  1  0  0  0  0
 46 47  1  0  0  0  0
 48 46  1  0  0  0  0
 49 45  1  1  0  0  0
 49 41  1  0  0  0  0
 49 47  1  0  0  0  0
M  END
>  <MODEL>
9

>  <REMARK>
 VINA RESULT:      -5.4      2.378      7.371
  Name = 
  21 active torsions:
  status: ('A' for Active; 'I' for Inactive)
    1  A    between atoms: C_1  and  N_9
    2  A    between atoms: C_1  and  C_35
    3  A    between atoms: C_4  and  O_23
    4  A    between atoms: C_4  and  C_31
    5  A    between atoms: C_7  and  C_38
    6  A    between atoms: C_8  and  C_12
    7  A    between atoms: N_9  and  N_24
    8  A    between atoms: C_11  and  N_13
    9  A    between atoms: N_13  and  C_33
   10  A    between atoms: C_16  and  C_21
   11  A    between atoms: C_17  and  C_35
   12  A    between atoms: C_20  and  C_21
   13  A    between atoms: C_20  and  C_22
   14  A    between atoms: C_22  and  O_23
   15  A    between atoms: N_24  and  C_48
   16  A    between atoms: C_25  and  C_47
   17  A    between atoms: N_29  and  C_48
   18  A    between atoms: C_31  and  C_45
   19  A    between atoms: C_33  and  C_41
   20  A    between atoms: N_36  and  C_38
   21  A    between atoms: C_46  and  C_48
                            x       y       z     vdW  Elec       q    Type
                         _______ _______ _______ _____ _____    ______ ____

>  <TORSDO>
F 21

$$$$
