=
 OpenBabel11042418173D

 35 38  0  0  1  0  0  0  0  0999 V2000
  195.2420  172.0160  141.1410 N   0  0  0  0  0  2  0  0  0  0  0  0
  194.5190  176.1060  146.4450 C   0  0  0  0  0  3  0  0  0  0  0  0
  195.1810  173.4000  144.3140 C   0  0  0  0  0  0  0  0  0  0  0  0
  189.6510  176.2830  146.6830 N   0  0  0  0  0  0  0  0  0  0  0  0
  195.6500  174.3240  145.0940 N   0  0  0  0  0  0  0  0  0  0  0  0
  195.9200  172.9070  143.2150 N   0  0  0  0  0  2  0  0  0  0  0  0
  193.2900  176.7020  146.7610 C   0  0  0  0  0  3  0  0  0  0  0  0
  192.1110  175.1400  145.2970 C   0  0  0  0  0  0  0  0  0  0  0  0
  193.3530  174.5710  144.9940 C   0  0  0  0  0  0  0  0  0  0  0  0
  190.8730  174.6020  144.6470 C   0  0  1  0  0  3  0  0  0  0  0  0
  195.0390  172.8540  142.1020 C   0  0  0  0  0  0  0  0  0  0  0  0
  193.4180  173.5910  142.3700 S   0  0  0  0  0  0  0  0  0  0  0  0
  189.4480  174.8620  146.7380 C   0  0  0  0  0  0  0  0  0  0  0  0
  192.0820  176.2210  146.2140 C   0  0  0  0  0  0  0  0  0  0  0  0
  190.9000  176.8760  146.5810 O   0  0  0  0  0  0  0  0  0  0  0  0
  189.9850  173.9330  145.6920 C   0  0  0  0  0  2  0  0  0  0  0  0
  188.7350  174.3720  147.6540 O   0  0  0  0  0  0  0  0  0  0  0  0
  188.5370  177.1480  147.0330 C   0  0  0  0  0  1  0  0  0  0  0  0
  194.5130  175.0210  145.5750 C   0  0  0  0  0  0  0  0  0  0  0  0
  193.6930  173.3850  144.1610 C   0  0  1  0  0  3  0  0  0  0  0  0
  190.1360  175.6280  143.7630 C   0  0  1  0  0  3  0  0  0  0  0  0
  191.1060  176.3270  142.8190 C   0  0  0  0  0  2  0  0  0  0  0  0
  191.1700  177.8110  143.1280 C   0  0  0  0  0  1  0  0  0  0  0  0
  189.0510  174.9460  142.9360 C   0  0  0  0  0  2  0  0  0  0  0  0
  188.3140  175.0710  140.6590 O   0  0  0  0  0  1  0  0  0  0  0  0
  188.6030  175.8400  141.7890 C   0  0  1  0  0  3  0  0  0  0  0  0
  187.4090  176.6550  142.1800 C   0  0  0  0  0  3  0  0  0  0  0  0
  187.4740  177.9810  142.3210 C   0  0  0  0  0  3  0  0  0  0  0  0
  186.2610  178.7600  142.7130 C   0  0  0  0  0  2  0  0  0  0  0  0
  185.1780  177.8550  143.0800 N   0  0  0  0  0  0  0  0  0  0  0  0
  184.0130  178.1880  142.2680 C   0  0  0  0  0  2  0  0  0  0  0  0
  184.4050  178.3940  140.9450 O   0  0  0  0  0  1  0  0  0  0  0  0
  184.8600  178.0130  144.5050 C   0  0  0  0  0  2  0  0  0  0  0  0
  185.4190  179.0690  146.6840 C   0  0  0  0  0  1  0  0  0  0  0  0
  185.6600  179.1220  145.1910 C   0  0  0  0  0  2  0  0  0  0  0  0
  1 11  2  0  0  0  0
  2  7  1  0  0  0  0
  3  5  2  0  0  0  0
  4 13  1  0  0  0  0
  4 18  1  0  0  0  0
  5 19  1  0  0  0  0
  6  3  1  0  0  0  0
  8 14  1  0  0  0  0
  9  8  2  0  0  0  0
  9 19  1  0  0  0  0
 10 21  1  1  0  0  0
 10  8  1  0  0  0  0
 10 16  1  0  0  0  0
 11 12  1  0  0  0  0
 11  6  1  0  0  0  0
 13 17  2  0  0  0  0
 14 15  1  0  0  0  0
 14  7  2  0  0  0  0
 15  4  1  0  0  0  0
 16 13  1  0  0  0  0
 19  2  2  0  0  0  0
 20 12  1  6  0  0  0
 20  3  1  0  0  0  0
 20  9  1  0  0  0  0
 21 22  1  6  0  0  0
 22 23  1  0  0  0  0
 24 21  1  0  0  0  0
 26 25  1  6  0  0  0
 26 27  1  0  0  0  0
 26 24  1  0  0  0  0
 27 28  2  0  0  0  0
 28 29  1  0  0  0  0
 29 30  1  0  0  0  0
 30 33  1  0  0  0  0
 31 30  1  0  0  0  0
 32 31  1  0  0  0  0
 33 35  1  0  0  0  0
 35 34  1  0  0  0  0
M  END
>  <MODEL>
1

>  <REMARK>
 VINA RESULT:      -6.9      0.000      0.000
  Name = 
  10 active torsions:
  status: ('A' for Active; 'I' for Inactive)
    1  A    between atoms: C_1  and  C_20
    2  A    between atoms: C_2  and  C_13
    3  A    between atoms: C_2  and  N_17
    4  A    between atoms: C_4  and  C_33
    5  A    between atoms: C_6  and  C_20
    6  A    between atoms: C_6  and  C_33
    7  A    between atoms: C_10  and  N_17
    8  A    between atoms: N_17  and  C_21
    9  A    between atoms: C_21  and  C_27
   10  A    between atoms: C_22  and  C_33
                            x       y       z     vdW  Elec       q    Type
                         _______ _______ _______ _____ _____    ______ ____

>  <TORSDO>
F 10

$$$$
=
 OpenBabel11042418173D

 35 38  0  0  1  0  0  0  0  0999 V2000
  185.2020  178.9470  147.7460 N   0  0  0  0  0  2  0  0  0  0  0  0
  186.7430  176.7530  141.5660 C   0  0  0  0  0  3  0  0  0  0  0  0
  185.2500  177.3260  144.6880 C   0  0  0  0  0  0  0  0  0  0  0  0
  190.7150  174.1170  142.6010 N   0  0  0  0  0  0  0  0  0  0  0  0
  185.1870  177.4570  143.3990 N   0  0  0  0  0  0  0  0  0  0  0  0
  184.6460  178.2570  145.5630 N   0  0  0  0  0  2  0  0  0  0  0  0
  187.9840  176.1680  141.2730 C   0  0  0  0  0  3  0  0  0  0  0  0
  188.4370  175.8460  143.6530 C   0  0  0  0  0  0  0  0  0  0  0  0
  187.1980  176.4410  143.9150 C   0  0  0  0  0  0  0  0  0  0  0  0
  189.3000  175.4010  144.7950 C   0  0  1  0  0  3  0  0  0  0  0  0
  185.5920  178.5570  146.5790 C   0  0  0  0  0  0  0  0  0  0  0  0
  187.2360  177.8670  146.3260 S   0  0  0  0  0  0  0  0  0  0  0  0
  190.0970  173.2990  143.6070 C   0  0  0  0  0  0  0  0  0  0  0  0
  188.8280  175.6940  142.2990 C   0  0  0  0  0  0  0  0  0  0  0  0
  190.0500  175.1250  141.9190 O   0  0  0  0  0  0  0  0  0  0  0  0
  189.4080  173.8800  144.8040 C   0  0  0  0  0  2  0  0  0  0  0  0
  190.1910  172.0440  143.5300 O   0  0  0  0  0  0  0  0  0  0  0  0
  191.9990  173.6960  142.0680 C   0  0  0  0  0  1  0  0  0  0  0  0
  186.3680  176.8520  142.9020 C   0  0  0  0  0  0  0  0  0  0  0  0
  186.4790  176.6470  145.2020 C   0  0  1  0  0  3  0  0  0  0  0  0
  190.6580  176.1270  144.8700 C   0  0  1  0  0  3  0  0  0  0  0  0
  190.4720  177.6370  144.7820 C   0  0  0  0  0  2  0  0  0  0  0  0
  191.2010  178.1910  143.5720 C   0  0  0  0  0  1  0  0  0  0  0  0
  191.3750  175.7950  146.1740 C   0  0  0  0  0  2  0  0  0  0  0  0
  193.0200  176.8830  147.5370 O   0  0  0  0  0  1  0  0  0  0  0  0
  192.7360  176.4740  146.2310 C   0  0  1  0  0  3  0  0  0  0  0  0
  193.8110  175.5600  145.7300 C   0  0  0  0  0  3  0  0  0  0  0  0
  194.2150  175.5750  144.4570 C   0  0  0  0  0  3  0  0  0  0  0  0
  195.2910  174.6480  143.9930 C   0  0  0  0  0  2  0  0  0  0  0  0
  196.6010  175.1900  144.3320 N   0  0  0  0  0  0  0  0  0  0  0  0
  197.1940  175.7390  143.1180 C   0  0  0  0  0  2  0  0  0  0  0  0
  197.2680  177.1280  143.2190 O   0  0  0  0  0  1  0  0  0  0  0  0
  197.4560  174.1230  144.8710 C   0  0  0  0  0  2  0  0  0  0  0  0
  196.9060  171.9540  145.9540 C   0  0  0  0  0  1  0  0  0  0  0  0
  196.8860  173.4580  146.1250 C   0  0  0  0  0  2  0  0  0  0  0  0
  2 19  1  0  0  0  0
  3 20  1  0  0  0  0
  3  6  1  0  0  0  0
  4 13  1  0  0  0  0
  5  3  2  0  0  0  0
  6 11  1  0  0  0  0
  7  2  2  0  0  0  0
  7 14  1  0  0  0  0
  8  9  1  0  0  0  0
  8 10  1  0  0  0  0
 10 16  1  0  0  0  0
 10 21  1  6  0  0  0
 11  1  2  0  0  0  0
 12 11  1  0  0  0  0
 13 16  1  0  0  0  0
 14  8  2  0  0  0  0
 15 14  1  0  0  0  0
 15  4  1  0  0  0  0
 17 13  2  0  0  0  0
 18  4  1  0  0  0  0
 19  5  1  0  0  0  0
 19  9  2  0  0  0  0
 20  9  1  6  0  0  0
 20 12  1  0  0  0  0
 21 22  1  1  0  0  0
 21 24  1  0  0  0  0
 23 22  1  0  0  0  0
 24 26  1  0  0  0  0
 26 25  1  1  0  0  0
 27 26  1  0  0  0  0
 28 27  2  0  0  0  0
 29 30  1  0  0  0  0
 29 28  1  0  0  0  0
 30 33  1  0  0  0  0
 31 32  1  0  0  0  0
 31 30  1  0  0  0  0
 33 35  1  0  0  0  0
 34 35  1  0  0  0  0
M  END
>  <MODEL>
2

>  <REMARK>
 VINA RESULT:      -6.9      2.824      8.725
  Name = 
  10 active torsions:
  status: ('A' for Active; 'I' for Inactive)
    1  A    between atoms: C_1  and  C_20
    2  A    between atoms: C_2  and  C_13
    3  A    between atoms: C_2  and  N_17
    4  A    between atoms: C_4  and  C_33
    5  A    between atoms: C_6  and  C_20
    6  A    between atoms: C_6  and  C_33
    7  A    between atoms: C_10  and  N_17
    8  A    between atoms: N_17  and  C_21
    9  A    between atoms: C_21  and  C_27
   10  A    between atoms: C_22  and  C_33
                            x       y       z     vdW  Elec       q    Type
                         _______ _______ _______ _____ _____    ______ ____

>  <TORSDO>
F 10

$$$$
=
 OpenBabel11042418173D

 35 38  0  0  1  0  0  0  0  0999 V2000
  184.7390  178.2850  140.5290 N   0  0  0  0  0  2  0  0  0  0  0  0
  187.0680  176.6880  146.6450 C   0  0  0  0  0  3  0  0  0  0  0  0
  185.9150  178.3580  143.7840 C   0  0  0  0  0  0  0  0  0  0  0  0
  191.5650  175.2260  145.4500 N   0  0  0  0  0  0  0  0  0  0  0  0
  185.6990  178.0090  145.0150 N   0  0  0  0  0  0  0  0  0  0  0  0
  184.8570  178.5520  142.8680 N   0  0  0  0  0  2  0  0  0  0  0  0
  188.2450  175.9440  146.8210 C   0  0  0  0  0  3  0  0  0  0  0  0
  188.9020  176.3630  144.5050 C   0  0  0  0  0  0  0  0  0  0  0  0
  187.7170  177.0920  144.3570 C   0  0  0  0  0  0  0  0  0  0  0  0
  189.8260  176.2080  143.3350 C   0  0  1  0  0  3  0  0  0  0  0  0
  185.2150  177.8910  141.6630 C   0  0  0  0  0  0  0  0  0  0  0  0
  186.7120  176.8940  141.7490 S   0  0  0  0  0  0  0  0  0  0  0  0
  191.9320  176.4220  144.7440 C   0  0  0  0  0  0  0  0  0  0  0  0
  189.1750  175.7910  145.7730 C   0  0  0  0  0  0  0  0  0  0  0  0
  190.3230  175.0310  146.0330 O   0  0  0  0  0  0  0  0  0  0  0  0
  191.1290  176.9570  143.5980 C   0  0  0  0  0  2  0  0  0  0  0  0
  193.0050  177.0140  145.0420 O   0  0  0  0  0  0  0  0  0  0  0  0
  192.6200  174.2970  145.8200 C   0  0  0  0  0  1  0  0  0  0  0  0
  186.8460  177.2720  145.4030 C   0  0  0  0  0  0  0  0  0  0  0  0
  187.2070  177.8800  143.2010 C   0  0  1  0  0  3  0  0  0  0  0  0
  190.0220  174.7470  142.8850 C   0  0  1  0  0  3  0  0  0  0  0  0
  188.7240  174.1680  142.3370 C   0  0  0  0  0  2  0  0  0  0  0  0
  188.6920  172.6630  142.5270 C   0  0  0  0  0  1  0  0  0  0  0  0
  191.0950  174.6560  141.8050 C   0  0  0  0  0  2  0  0  0  0  0  0
  192.1370  172.5350  141.4020 O   0  0  0  0  0  1  0  0  0  0  0  0
  192.1860  173.6750  142.2090 C   0  0  1  0  0  3  0  0  0  0  0  0
  193.5390  174.3120  142.1220 C   0  0  0  0  0  3  0  0  0  0  0  0
  194.6190  173.7560  142.6760 C   0  0  0  0  0  3  0  0  0  0  0  0
  195.9520  174.4220  142.5690 C   0  0  0  0  0  2  0  0  0  0  0  0
  196.2130  175.2200  143.7610 N   0  0  0  0  0  0  0  0  0  0  0  0
  196.7150  176.5210  143.3350 C   0  0  0  0  0  2  0  0  0  0  0  0
  196.3720  176.7440  142.0010 O   0  0  0  0  0  1  0  0  0  0  0  0
  197.2110  174.5460  144.6020 C   0  0  0  0  0  2  0  0  0  0  0  0
  196.7620  172.3910  145.7570 C   0  0  0  0  0  1  0  0  0  0  0  0
  196.6160  173.8950  145.8520 C   0  0  0  0  0  2  0  0  0  0  0  0
  1 11  2  0  0  0  0
  2  7  1  0  0  0  0
  3  5  2  0  0  0  0
  4 18  1  0  0  0  0
  4 15  1  0  0  0  0
  5 19  1  0  0  0  0
  6  3  1  0  0  0  0
  8 14  1  0  0  0  0
  9  8  2  0  0  0  0
  9 19  1  0  0  0  0
 10 21  1  1  0  0  0
 10 16  1  0  0  0  0
 10  8  1  0  0  0  0
 11 12  1  0  0  0  0
 11  6  1  0  0  0  0
 13 17  2  0  0  0  0
 13  4  1  0  0  0  0
 14 15  1  0  0  0  0
 14  7  2  0  0  0  0
 16 13  1  0  0  0  0
 19  2  2  0  0  0  0
 20 12  1  6  0  0  0
 20  3  1  0  0  0  0
 20  9  1  0  0  0  0
 21 24  1  6  0  0  0
 22 23  1  0  0  0  0
 22 21  1  0  0  0  0
 24 26  1  0  0  0  0
 26 25  1  6  0  0  0
 27 26  1  0  0  0  0
 27 28  2  0  0  0  0
 29 28  1  0  0  0  0
 29 30  1  0  0  0  0
 30 33  1  0  0  0  0
 31 30  1  0  0  0  0
 32 31  1  0  0  0  0
 33 35  1  0  0  0  0
 34 35  1  0  0  0  0
M  END
>  <MODEL>
3

>  <REMARK>
 VINA RESULT:      -6.8      2.722      8.140
  Name = 
  10 active torsions:
  status: ('A' for Active; 'I' for Inactive)
    1  A    between atoms: C_1  and  C_20
    2  A    between atoms: C_2  and  C_13
    3  A    between atoms: C_2  and  N_17
    4  A    between atoms: C_4  and  C_33
    5  A    between atoms: C_6  and  C_20
    6  A    between atoms: C_6  and  C_33
    7  A    between atoms: C_10  and  N_17
    8  A    between atoms: N_17  and  C_21
    9  A    between atoms: C_21  and  C_27
   10  A    between atoms: C_22  and  C_33
                            x       y       z     vdW  Elec       q    Type
                         _______ _______ _______ _____ _____    ______ ____

>  <TORSDO>
F 10

$$$$
=
 OpenBabel11042418173D

 35 38  0  0  1  0  0  0  0  0999 V2000
  184.8630  178.3300  140.4970 N   0  0  0  0  0  2  0  0  0  0  0  0
  187.0780  176.6550  146.6340 C   0  0  0  0  0  3  0  0  0  0  0  0
  185.9600  178.3600  143.7800 C   0  0  0  0  0  0  0  0  0  0  0  0
  191.6330  175.3100  145.5200 N   0  0  0  0  0  0  0  0  0  0  0  0
  185.7220  177.9810  144.9980 N   0  0  0  0  0  0  0  0  0  0  0  0
  184.9200  178.5510  142.8420 N   0  0  0  0  0  2  0  0  0  0  0  0
  188.2660  175.9320  146.8240 C   0  0  0  0  0  3  0  0  0  0  0  0
  188.9690  176.4120  144.5330 C   0  0  0  0  0  0  0  0  0  0  0  0
  187.7730  177.1200  144.3710 C   0  0  0  0  0  0  0  0  0  0  0  0
  189.9240  176.3000  143.3830 C   0  0  1  0  0  3  0  0  0  0  0  0
  185.3210  177.9220  141.6330 C   0  0  0  0  0  0  0  0  0  0  0  0
  186.8350  176.9540  141.7360 S   0  0  0  0  0  0  0  0  0  0  0  0
  191.9920  176.5280  144.8470 C   0  0  0  0  0  0  0  0  0  0  0  0
  189.2240  175.8190  145.7960 C   0  0  0  0  0  0  0  0  0  0  0  0
  190.3810  175.0780  146.0680 O   0  0  0  0  0  0  0  0  0  0  0  0
  191.2040  177.0700  143.6930 C   0  0  0  0  0  2  0  0  0  0  0  0
  193.0440  177.1350  145.1830 O   0  0  0  0  0  0  0  0  0  0  0  0
  192.6980  174.3960  145.8960 C   0  0  0  0  0  1  0  0  0  0  0  0
  186.8740  177.2600  145.3990 C   0  0  0  0  0  0  0  0  0  0  0  0
  187.2750  177.9200  143.2190 C   0  0  1  0  0  3  0  0  0  0  0  0
  190.1620  174.8530  142.9080 C   0  0  1  0  0  3  0  0  0  0  0  0
  188.8760  174.2410  142.3680 C   0  0  0  0  0  2  0  0  0  0  0  0
  188.9770  174.0350  140.8680 C   0  0  0  0  0  1  0  0  0  0  0  0
  191.2240  174.8120  141.8150 C   0  0  0  0  0  2  0  0  0  0  0  0
  192.1690  172.6360  141.4740 O   0  0  0  0  0  1  0  0  0  0  0  0
  192.3330  173.8340  142.1740 C   0  0  1  0  0  3  0  0  0  0  0  0
  193.6800  174.4220  141.8860 C   0  0  0  0  0  3  0  0  0  0  0  0
  193.8550  175.7340  141.7070 C   0  0  0  0  0  3  0  0  0  0  0  0
  195.2150  176.2840  141.4210 C   0  0  0  0  0  2  0  0  0  0  0  0
  196.1990  175.6770  142.3080 N   0  0  0  0  0  0  0  0  0  0  0  0
  196.2650  176.4740  143.5270 C   0  0  0  0  0  2  0  0  0  0  0  0
  195.9950  175.6670  144.6320 O   0  0  0  0  0  1  0  0  0  0  0  0
  197.5130  175.6540  141.6510 C   0  0  0  0  0  2  0  0  0  0  0  0
  197.4160  173.5080  140.4020 C   0  0  0  0  0  1  0  0  0  0  0  0
  197.4910  175.0130  140.2620 C   0  0  0  0  0  2  0  0  0  0  0  0
  1 11  2  0  0  0  0
  2  7  1  0  0  0  0
  3  5  2  0  0  0  0
  4 18  1  0  0  0  0
  4 15  1  0  0  0  0
  5 19  1  0  0  0  0
  6  3  1  0  0  0  0
  8 14  1  0  0  0  0
  9  8  2  0  0  0  0
  9 19  1  0  0  0  0
 10 21  1  1  0  0  0
 10 16  1  0  0  0  0
 10  8  1  0  0  0  0
 11 12  1  0  0  0  0
 11  6  1  0  0  0  0
 13 17  2  0  0  0  0
 13  4  1  0  0  0  0
 14 15  1  0  0  0  0
 14  7  2  0  0  0  0
 16 13  1  0  0  0  0
 19  2  2  0  0  0  0
 20 12  1  6  0  0  0
 20  3  1  0  0  0  0
 20  9  1  0  0  0  0
 21 24  1  6  0  0  0
 22 21  1  0  0  0  0
 23 22  1  0  0  0  0
 24 26  1  0  0  0  0
 26 25  1  6  0  0  0
 27 26  1  0  0  0  0
 28 27  2  0  0  0  0
 29 28  1  0  0  0  0
 29 30  1  0  0  0  0
 30 31  1  0  0  0  0
 31 32  1  0  0  0  0
 33 30  1  0  0  0  0
 35 34  1  0  0  0  0
 35 33  1  0  0  0  0
M  END
>  <MODEL>
4

>  <REMARK>
 VINA RESULT:      -6.5      2.804      8.162
  Name = 
  10 active torsions:
  status: ('A' for Active; 'I' for Inactive)
    1  A    between atoms: C_1  and  C_20
    2  A    between atoms: C_2  and  C_13
    3  A    between atoms: C_2  and  N_17
    4  A    between atoms: C_4  and  C_33
    5  A    between atoms: C_6  and  C_20
    6  A    between atoms: C_6  and  C_33
    7  A    between atoms: C_10  and  N_17
    8  A    between atoms: N_17  and  C_21
    9  A    between atoms: C_21  and  C_27
   10  A    between atoms: C_22  and  C_33
                            x       y       z     vdW  Elec       q    Type
                         _______ _______ _______ _____ _____    ______ ____

>  <TORSDO>
F 10

$$$$
=
 OpenBabel11042418173D

 35 38  0  0  1  0  0  0  0  0999 V2000
  188.1910  172.8900  138.5840 N   0  0  0  0  0  2  0  0  0  0  0  0
  194.2010  175.3460  140.3810 C   0  0  0  0  0  3  0  0  0  0  0  0
  191.5640  173.3490  139.2150 C   0  0  0  0  0  0  0  0  0  0  0  0
  193.6860  175.3000  145.2310 N   0  0  0  0  0  0  0  0  0  0  0  0
  192.6270  174.0390  138.9350 N   0  0  0  0  0  0  0  0  0  0  0  0
  190.5080  173.1990  138.2870 N   0  0  0  0  0  2  0  0  0  0  0  0
  194.4610  175.7940  141.6850 C   0  0  0  0  0  3  0  0  0  0  0  0
  192.4640  174.6570  142.5150 C   0  0  0  0  0  0  0  0  0  0  0  0
  192.2260  174.2310  141.2040 C   0  0  0  0  0  0  0  0  0  0  0  0
  191.5020  174.2790  143.6020 C   0  0  1  0  0  3  0  0  0  0  0  0
  189.2940  173.4260  138.9880 C   0  0  0  0  0  0  0  0  0  0  0  0
  189.4820  174.0100  140.6810 S   0  0  0  0  0  0  0  0  0  0  0  0
  193.3280  173.9120  145.3340 C   0  0  0  0  0  0  0  0  0  0  0  0
  193.6180  175.4440  142.7590 C   0  0  0  0  0  0  0  0  0  0  0  0
  193.9490  175.9360  144.0280 O   0  0  0  0  0  0  0  0  0  0  0  0
  192.1740  173.3220  144.5810 C   0  0  0  0  0  2  0  0  0  0  0  0
  193.9530  173.1680  146.1360 O   0  0  0  0  0  0  0  0  0  0  0  0
  194.0680  176.0000  146.4460 C   0  0  0  0  0  1  0  0  0  0  0  0
  193.0850  174.5420  140.1790 C   0  0  0  0  0  0  0  0  0  0  0  0
  191.1740  173.3300  140.6580 C   0  0  1  0  0  3  0  0  0  0  0  0
  190.8150  175.4840  144.2730 C   0  0  1  0  0  3  0  0  0  0  0  0
  190.5710  176.6010  143.2670 C   0  0  0  0  0  2  0  0  0  0  0  0
  190.9030  177.9490  143.8780 C   0  0  0  0  0  1  0  0  0  0  0  0
  189.4800  175.0720  144.8840 C   0  0  0  0  0  2  0  0  0  0  0  0
  190.7090  175.8050  146.8060 O   0  0  0  0  0  1  0  0  0  0  0  0
  189.5120  175.2100  146.3990 C   0  0  1  0  0  3  0  0  0  0  0  0
  188.3440  176.0080  146.8900 C   0  0  0  0  0  3  0  0  0  0  0  0
  187.9810  177.1570  146.3140 C   0  0  0  0  0  3  0  0  0  0  0  0
  186.8100  177.9260  146.8320 C   0  0  0  0  0  2  0  0  0  0  0  0
  186.0900  178.5490  145.7270 N   0  0  0  0  0  0  0  0  0  0  0  0
  184.7330  178.0150  145.7110 C   0  0  0  0  0  2  0  0  0  0  0  0
  184.1080  178.2830  146.9290 O   0  0  0  0  0  1  0  0  0  0  0  0
  186.7660  178.2450  144.4590 C   0  0  0  0  0  2  0  0  0  0  0  0
  186.5800  176.3840  142.8220 C   0  0  0  0  0  1  0  0  0  0  0  0
  185.8580  177.5670  143.4310 C   0  0  0  0  0  2  0  0  0  0  0  0
  1 11  2  0  0  0  0
  2  7  1  0  0  0  0
  4 13  1  0  0  0  0
  4 18  1  0  0  0  0
  5  3  2  0  0  0  0
  5 19  1  0  0  0  0
  6 11  1  0  0  0  0
  6  3  1  0  0  0  0
  7 14  2  0  0  0  0
  8 14  1  0  0  0  0
  8 10  1  0  0  0  0
  9  8  2  0  0  0  0
 10 21  1  1  0  0  0
 10 16  1  0  0  0  0
 11 12  1  0  0  0  0
 13 17  2  0  0  0  0
 14 15  1  0  0  0  0
 15  4  1  0  0  0  0
 16 13  1  0  0  0  0
 19  2  2  0  0  0  0
 19  9  1  0  0  0  0
 20  3  1  6  0  0  0
 20 12  1  0  0  0  0
 20  9  1  0  0  0  0
 21 22  1  6  0  0  0
 21 24  1  0  0  0  0
 22 23  1  0  0  0  0
 24 26  1  0  0  0  0
 26 25  1  6  0  0  0
 26 27  1  0  0  0  0
 28 29  1  0  0  0  0
 28 27  2  0  0  0  0
 30 29  1  0  0  0  0
 31 30  1  0  0  0  0
 31 32  1  0  0  0  0
 33 30  1  0  0  0  0
 34 35  1  0  0  0  0
 35 33  1  0  0  0  0
M  END
>  <MODEL>
5

>  <REMARK>
 VINA RESULT:      -6.4      3.059      4.654
  Name = 
  10 active torsions:
  status: ('A' for Active; 'I' for Inactive)
    1  A    between atoms: C_1  and  C_20
    2  A    between atoms: C_2  and  C_13
    3  A    between atoms: C_2  and  N_17
    4  A    between atoms: C_4  and  C_33
    5  A    between atoms: C_6  and  C_20
    6  A    between atoms: C_6  and  C_33
    7  A    between atoms: C_10  and  N_17
    8  A    between atoms: N_17  and  C_21
    9  A    between atoms: C_21  and  C_27
   10  A    between atoms: C_22  and  C_33
                            x       y       z     vdW  Elec       q    Type
                         _______ _______ _______ _____ _____    ______ ____

>  <TORSDO>
F 10

$$$$
=
 OpenBabel11042418173D

 35 38  0  0  1  0  0  0  0  0999 V2000
  185.8760  179.1160  148.2310 N   0  0  0  0  0  2  0  0  0  0  0  0
  186.7120  176.5970  142.0400 C   0  0  0  0  0  3  0  0  0  0  0  0
  185.5720  177.3480  145.2700 C   0  0  0  0  0  0  0  0  0  0  0  0
  190.7350  173.9390  142.7760 N   0  0  0  0  0  0  0  0  0  0  0  0
  185.3720  177.4190  143.9910 N   0  0  0  0  0  0  0  0  0  0  0  0
  185.0780  178.3320  146.1570 N   0  0  0  0  0  2  0  0  0  0  0  0
  187.9060  175.9740  141.6460 C   0  0  0  0  0  3  0  0  0  0  0  0
  188.6080  175.7590  143.9770 C   0  0  0  0  0  0  0  0  0  0  0  0
  187.4130  176.3900  144.3390 C   0  0  0  0  0  0  0  0  0  0  0  0
  189.5820  175.3540  145.0410 C   0  0  1  0  0  3  0  0  0  0  0  0
  186.1320  178.6630  147.0500 C   0  0  0  0  0  0  0  0  0  0  0  0
  187.7290  177.9300  146.6580 S   0  0  0  0  0  0  0  0  0  0  0  0
  190.2170  173.1810  143.8820 C   0  0  0  0  0  0  0  0  0  0  0  0
  188.8490  175.5340  142.5980 C   0  0  0  0  0  0  0  0  0  0  0  0
  190.0150  174.9250  142.1190 O   0  0  0  0  0  0  0  0  0  0  0  0
  189.6690  173.8330  145.1150 C   0  0  0  0  0  2  0  0  0  0  0  0
  190.2850  171.9230  143.8580 O   0  0  0  0  0  0  0  0  0  0  0  0
  191.9480  173.4670  142.1300 C   0  0  0  0  0  1  0  0  0  0  0  0
  186.4840  176.7670  143.4010 C   0  0  0  0  0  0  0  0  0  0  0  0
  186.8390  176.6710  145.6840 C   0  0  1  0  0  3  0  0  0  0  0  0
  190.9500  176.0560  144.9350 C   0  0  1  0  0  3  0  0  0  0  0  0
  190.7770  177.5470  144.6720 C   0  0  0  0  0  2  0  0  0  0  0  0
  191.5070  177.9510  143.4050 C   0  0  0  0  0  1  0  0  0  0  0  0
  191.7520  175.8730  146.2190 C   0  0  0  0  0  2  0  0  0  0  0  0
  193.7600  176.9970  146.8890 O   0  0  0  0  0  1  0  0  0  0  0  0
  193.2370  176.0890  145.9650 C   0  0  1  0  0  3  0  0  0  0  0  0
  193.9850  174.7930  146.0310 C   0  0  0  0  0  3  0  0  0  0  0  0
  193.5300  173.6830  145.4450 C   0  0  0  0  0  3  0  0  0  0  0  0
  194.3040  172.4080  145.5330 C   0  0  0  0  0  2  0  0  0  0  0  0
  195.5500  172.5240  144.7850 N   0  0  0  0  0  0  0  0  0  0  0  0
  195.6380  171.3920  143.8710 C   0  0  0  0  0  2  0  0  0  0  0  0
  195.2950  170.2180  144.5420 O   0  0  0  0  0  1  0  0  0  0  0  0
  196.6900  172.5120  145.7120 C   0  0  0  0  0  2  0  0  0  0  0  0
  197.2180  174.5500  144.3930 C   0  0  0  0  0  1  0  0  0  0  0  0
  197.5320  173.7870  145.6620 C   0  0  0  0  0  2  0  0  0  0  0  0
  2 19  1  0  0  0  0
  3 20  1  0  0  0  0
  3  6  1  0  0  0  0
  4 13  1  0  0  0  0
  5  3  2  0  0  0  0
  6 11  1  0  0  0  0
  7  2  2  0  0  0  0
  7 14  1  0  0  0  0
  8  9  1  0  0  0  0
  8 10  1  0  0  0  0
 10 21  1  6  0  0  0
 10 16  1  0  0  0  0
 11  1  2  0  0  0  0
 12 11  1  0  0  0  0
 13 16  1  0  0  0  0
 14  8  2  0  0  0  0
 15 14  1  0  0  0  0
 15  4  1  0  0  0  0
 17 13  2  0  0  0  0
 18  4  1  0  0  0  0
 19  5  1  0  0  0  0
 19  9  2  0  0  0  0
 20  9  1  6  0  0  0
 20 12  1  0  0  0  0
 21 22  1  1  0  0  0
 21 24  1  0  0  0  0
 23 22  1  0  0  0  0
 26 27  1  0  0  0  0
 26 24  1  0  0  0  0
 26 25  1  1  0  0  0
 28 29  1  0  0  0  0
 28 27  2  0  0  0  0
 30 29  1  0  0  0  0
 30 33  1  0  0  0  0
 31 32  1  0  0  0  0
 31 30  1  0  0  0  0
 34 35  1  0  0  0  0
 35 33  1  0  0  0  0
M  END
>  <MODEL>
6

>  <REMARK>
 VINA RESULT:      -6.3      2.916      8.717
  Name = 
  10 active torsions:
  status: ('A' for Active; 'I' for Inactive)
    1  A    between atoms: C_1  and  C_20
    2  A    between atoms: C_2  and  C_13
    3  A    between atoms: C_2  and  N_17
    4  A    between atoms: C_4  and  C_33
    5  A    between atoms: C_6  and  C_20
    6  A    between atoms: C_6  and  C_33
    7  A    between atoms: C_10  and  N_17
    8  A    between atoms: N_17  and  C_21
    9  A    between atoms: C_21  and  C_27
   10  A    between atoms: C_22  and  C_33
                            x       y       z     vdW  Elec       q    Type
                         _______ _______ _______ _____ _____    ______ ____

>  <TORSDO>
F 10

$$$$
=
 OpenBabel11042418173D

 35 38  0  0  1  0  0  0  0  0999 V2000
  194.2370  168.5830  144.9600 N   0  0  0  0  0  2  0  0  0  0  0  0
  195.9800  175.0880  144.7810 C   0  0  0  0  0  3  0  0  0  0  0  0
  195.3350  171.7740  145.7330 C   0  0  0  0  0  0  0  0  0  0  0  0
  191.5570  177.1090  144.3980 N   0  0  0  0  0  0  0  0  0  0  0  0
  196.2140  172.6970  145.4940 N   0  0  0  0  0  0  0  0  0  0  0  0
  195.6190  170.4040  145.5330 N   0  0  0  0  0  2  0  0  0  0  0  0
  195.0760  176.0890  144.3950 C   0  0  0  0  0  3  0  0  0  0  0  0
  193.1950  174.5560  144.6830 C   0  0  0  0  0  0  0  0  0  0  0  0
  194.1210  173.5750  145.0560 C   0  0  0  0  0  0  0  0  0  0  0  0
  191.7370  174.2140  144.6300 C   0  0  1  0  0  3  0  0  0  0  0  0
  194.5120  169.8390  144.8440 C   0  0  0  0  0  0  0  0  0  0  0  0
  193.2710  171.0190  144.2870 S   0  0  0  0  0  0  0  0  0  0  0  0
  190.9940  176.4650  145.5530 C   0  0  0  0  0  0  0  0  0  0  0  0
  193.6880  175.8460  144.3600 C   0  0  0  0  0  0  0  0  0  0  0  0
  192.8560  176.9000  143.9610 O   0  0  0  0  0  0  0  0  0  0  0  0
  190.9840  174.9760  145.7170 C   0  0  0  0  0  2  0  0  0  0  0  0
  190.4220  177.1610  146.4330 O   0  0  0  0  0  0  0  0  0  0  0  0
  190.8430  178.2380  143.8260 C   0  0  0  0  0  1  0  0  0  0  0  0
  195.4650  173.8450  145.1320 C   0  0  0  0  0  0  0  0  0  0  0  0
  193.9090  172.1820  145.5370 C   0  0  1  0  0  3  0  0  0  0  0  0
  191.1150  174.3480  143.2260 C   0  0  1  0  0  3  0  0  0  0  0  0
  191.9240  173.5670  142.1970 C   0  0  0  0  0  2  0  0  0  0  0  0
  192.4900  174.5030  141.1460 C   0  0  0  0  0  1  0  0  0  0  0  0
  189.6810  173.8300  143.2200 C   0  0  0  0  0  2  0  0  0  0  0  0
  187.8200  173.6220  141.7230 O   0  0  0  0  0  1  0  0  0  0  0  0
  188.8860  174.4520  142.0810 C   0  0  1  0  0  3  0  0  0  0  0  0
  188.3810  175.8100  142.4590 C   0  0  0  0  0  3  0  0  0  0  0  0
  187.7530  176.0330  143.6170 C   0  0  0  0  0  3  0  0  0  0  0  0
  187.2630  177.4020  143.9600 C   0  0  0  0  0  2  0  0  0  0  0  0
  185.8050  177.4230  143.9790 N   0  0  0  0  0  0  0  0  0  0  0  0
  185.3490  178.2950  142.9030 C   0  0  0  0  0  2  0  0  0  0  0  0
  184.0460  177.9540  142.5420 O   0  0  0  0  0  1  0  0  0  0  0  0
  185.3320  177.9330  145.2740 C   0  0  0  0  0  2  0  0  0  0  0  0
  186.0920  177.2490  147.5390 C   0  0  0  0  0  1  0  0  0  0  0  0
  185.2340  176.8560  146.3550 C   0  0  0  0  0  2  0  0  0  0  0  0
  2 19  1  0  0  0  0
  4 13  1  0  0  0  0
  5  3  2  0  0  0  0
  6  3  1  0  0  0  0
  7  2  2  0  0  0  0
  8  9  1  0  0  0  0
  9 19  2  0  0  0  0
  9 20  1  0  0  0  0
 10 21  1  6  0  0  0
 10  8  1  0  0  0  0
 10 16  1  0  0  0  0
 11  1  2  0  0  0  0
 11  6  1  0  0  0  0
 12 11  1  0  0  0  0
 13 16  1  0  0  0  0
 13 17  2  0  0  0  0
 14  7  1  0  0  0  0
 14  8  2  0  0  0  0
 15 14  1  0  0  0  0
 15  4  1  0  0  0  0
 18  4  1  0  0  0  0
 19  5  1  0  0  0  0
 20 12  1  6  0  0  0
 20  3  1  0  0  0  0
 21 22  1  6  0  0  0
 23 22  1  0  0  0  0
 24 21  1  0  0  0  0
 26 25  1  1  0  0  0
 26 27  1  0  0  0  0
 26 24  1  0  0  0  0
 27 28  2  0  0  0  0
 28 29  1  0  0  0  0
 29 30  1  0  0  0  0
 30 33  1  0  0  0  0
 31 30  1  0  0  0  0
 32 31  1  0  0  0  0
 33 35  1  0  0  0  0
 35 34  1  0  0  0  0
M  END
>  <MODEL>
7

>  <REMARK>
 VINA RESULT:      -6.3      2.080      2.557
  Name = 
  10 active torsions:
  status: ('A' for Active; 'I' for Inactive)
    1  A    between atoms: C_1  and  C_20
    2  A    between atoms: C_2  and  C_13
    3  A    between atoms: C_2  and  N_17
    4  A    between atoms: C_4  and  C_33
    5  A    between atoms: C_6  and  C_20
    6  A    between atoms: C_6  and  C_33
    7  A    between atoms: C_10  and  N_17
    8  A    between atoms: N_17  and  C_21
    9  A    between atoms: C_21  and  C_27
   10  A    between atoms: C_22  and  C_33
                            x       y       z     vdW  Elec       q    Type
                         _______ _______ _______ _____ _____    ______ ____

>  <TORSDO>
F 10

$$$$
=
 OpenBabel11042418173D

 35 38  0  0  1  0  0  0  0  0999 V2000
  185.5310  177.9150  140.1340 N   0  0  0  0  0  2  0  0  0  0  0  0
  187.6410  177.2380  146.4950 C   0  0  0  0  0  3  0  0  0  0  0  0
  186.5950  178.4670  143.3810 C   0  0  0  0  0  0  0  0  0  0  0  0
  192.1690  175.6160  145.6870 N   0  0  0  0  0  0  0  0  0  0  0  0
  186.3350  178.3040  144.6420 N   0  0  0  0  0  0  0  0  0  0  0  0
  185.5700  178.5240  142.4100 N   0  0  0  0  0  2  0  0  0  0  0  0
  188.8070  176.5290  146.8200 C   0  0  0  0  0  3  0  0  0  0  0  0
  189.5450  176.6010  144.4920 C   0  0  0  0  0  0  0  0  0  0  0  0
  188.3700  177.3000  144.1970 C   0  0  0  0  0  0  0  0  0  0  0  0
  190.5080  176.2750  143.3910 C   0  0  1  0  0  3  0  0  0  0  0  0
  185.9660  177.6920  141.3290 C   0  0  0  0  0  0  0  0  0  0  0  0
  187.4540  176.7190  141.6130 S   0  0  0  0  0  0  0  0  0  0  0  0
  192.5660  176.6950  144.8250 C   0  0  0  0  0  0  0  0  0  0  0  0
  189.7720  176.2220  145.8390 C   0  0  0  0  0  0  0  0  0  0  0  0
  190.9060  175.5090  146.2480 O   0  0  0  0  0  0  0  0  0  0  0  0
  191.8050  177.0550  143.5850 C   0  0  0  0  0  2  0  0  0  0  0  0
  193.6300  177.3240  145.0690 O   0  0  0  0  0  0  0  0  0  0  0  0
  193.2060  174.7520  146.2250 C   0  0  0  0  0  1  0  0  0  0  0  0
  187.4650  177.6330  145.1740 C   0  0  0  0  0  0  0  0  0  0  0  0
  187.9040  177.9080  142.9200 C   0  0  1  0  0  3  0  0  0  0  0  0
  190.7120  174.7640  143.1670 C   0  0  1  0  0  3  0  0  0  0  0  0
  189.4270  173.9950  143.4460 C   0  0  0  0  0  2  0  0  0  0  0  0
  189.7070  172.7960  144.3330 C   0  0  0  0  0  1  0  0  0  0  0  0
  191.1520  174.4850  141.7340 C   0  0  0  0  0  2  0  0  0  0  0  0
  193.4720  175.0280  141.4730 O   0  0  0  0  0  1  0  0  0  0  0  0
  192.5840  173.9730  141.6970 C   0  0  1  0  0  3  0  0  0  0  0  0
  192.9320  173.2650  142.9700 C   0  0  0  0  0  3  0  0  0  0  0  0
  194.0790  172.5970  143.1170 C   0  0  0  0  0  3  0  0  0  0  0  0
  194.3920  171.9030  144.4020 C   0  0  0  0  0  2  0  0  0  0  0  0
  195.4940  170.9670  144.2130 N   0  0  0  0  0  0  0  0  0  0  0  0
  195.1280  169.7030  144.8410 C   0  0  0  0  0  2  0  0  0  0  0  0
  193.7530  169.5010  144.7250 O   0  0  0  0  0  1  0  0  0  0  0  0
  196.7140  171.5030  144.8320 C   0  0  0  0  0  2  0  0  0  0  0  0
  197.2600  173.8180  145.5500 C   0  0  0  0  0  1  0  0  0  0  0  0
  196.4430  172.5860  145.8770 C   0  0  0  0  0  2  0  0  0  0  0  0
  1 11  2  0  0  0  0
  2  7  1  0  0  0  0
  3  5  2  0  0  0  0
  4 18  1  0  0  0  0
  4 15  1  0  0  0  0
  5 19  1  0  0  0  0
  6  3  1  0  0  0  0
  8 14  1  0  0  0  0
  9  8  2  0  0  0  0
  9 19  1  0  0  0  0
 10 21  1  1  0  0  0
 10 16  1  0  0  0  0
 10  8  1  0  0  0  0
 11 12  1  0  0  0  0
 11  6  1  0  0  0  0
 13 17  2  0  0  0  0
 13  4  1  0  0  0  0
 14 15  1  0  0  0  0
 14  7  2  0  0  0  0
 16 13  1  0  0  0  0
 19  2  2  0  0  0  0
 20 12  1  6  0  0  0
 20  3  1  0  0  0  0
 20  9  1  0  0  0  0
 21 24  1  6  0  0  0
 21 22  1  0  0  0  0
 22 23  1  0  0  0  0
 26 25  1  1  0  0  0
 26 24  1  0  0  0  0
 26 27  1  0  0  0  0
 27 28  2  0  0  0  0
 28 29  1  0  0  0  0
 30 29  1  0  0  0  0
 30 33  1  0  0  0  0
 30 31  1  0  0  0  0
 32 31  1  0  0  0  0
 33 35  1  0  0  0  0
 34 35  1  0  0  0  0
M  END
>  <MODEL>
8

>  <REMARK>
 VINA RESULT:      -6.3      2.755      8.181
  Name = 
  10 active torsions:
  status: ('A' for Active; 'I' for Inactive)
    1  A    between atoms: C_1  and  C_20
    2  A    between atoms: C_2  and  C_13
    3  A    between atoms: C_2  and  N_17
    4  A    between atoms: C_4  and  C_33
    5  A    between atoms: C_6  and  C_20
    6  A    between atoms: C_6  and  C_33
    7  A    between atoms: C_10  and  N_17
    8  A    between atoms: N_17  and  C_21
    9  A    between atoms: C_21  and  C_27
   10  A    between atoms: C_22  and  C_33
                            x       y       z     vdW  Elec       q    Type
                         _______ _______ _______ _____ _____    ______ ____

>  <TORSDO>
F 10

$$$$
=
 OpenBabel11042418173D

 35 38  0  0  1  0  0  0  0  0999 V2000
  197.1100  173.7920  146.5120 N   0  0  0  0  0  2  0  0  0  0  0  0
  193.6790  173.7060  140.7160 C   0  0  0  0  0  3  0  0  0  0  0  0
  195.9490  174.3760  143.3040 C   0  0  0  0  0  0  0  0  0  0  0  0
  189.5250  175.7920  142.1940 N   0  0  0  0  0  0  0  0  0  0  0  0
  195.7430  173.8740  142.1260 N   0  0  0  0  0  0  0  0  0  0  0  0
  196.9540  173.8740  144.1630 N   0  0  0  0  0  2  0  0  0  0  0  0
  192.2980  173.9480  140.6660 C   0  0  0  0  0  3  0  0  0  0  0  0
  192.3430  174.8900  142.9210 C   0  0  0  0  0  0  0  0  0  0  0  0
  193.7170  174.6300  142.9450 C   0  0  0  0  0  0  0  0  0  0  0  0
  191.6850  175.5010  144.1210 C   0  0  1  0  0  3  0  0  0  0  0  0
  196.3750  173.7350  145.4520 C   0  0  0  0  0  0  0  0  0  0  0  0
  194.5980  174.0170  145.5330 S   0  0  0  0  0  0  0  0  0  0  0  0
  190.1330  176.9720  142.7440 C   0  0  0  0  0  0  0  0  0  0  0  0
  191.6230  174.5540  141.7460 C   0  0  0  0  0  0  0  0  0  0  0  0
  190.2440  174.7580  141.6150 O   0  0  0  0  0  0  0  0  0  0  0  0
  191.2040  176.9110  143.7900 C   0  0  0  0  0  2  0  0  0  0  0  0
  189.7120  178.1070  142.3940 O   0  0  0  0  0  0  0  0  0  0  0  0
  188.0880  175.8000  141.9750 C   0  0  0  0  0  1  0  0  0  0  0  0
  194.3660  174.0840  141.8650 C   0  0  0  0  0  0  0  0  0  0  0  0
  194.7430  174.9520  143.9740 C   0  0  1  0  0  3  0  0  0  0  0  0
  190.6090  174.6060  144.7650 C   0  0  1  0  0  3  0  0  0  0  0  0
  191.0210  173.1400  144.7190 C   0  0  0  0  0  2  0  0  0  0  0  0
  189.8480  172.2710  144.3070 C   0  0  0  0  0  1  0  0  0  0  0  0
  190.3750  175.0050  146.2190 C   0  0  0  0  0  2  0  0  0  0  0  0
  188.6720  174.8540  147.8990 O   0  0  0  0  0  1  0  0  0  0  0  0
  188.8870  175.0560  146.5330 C   0  0  1  0  0  3  0  0  0  0  0  0
  188.2940  176.3620  146.1030 C   0  0  0  0  0  3  0  0  0  0  0  0
  187.2160  176.4250  145.3170 C   0  0  0  0  0  3  0  0  0  0  0  0
  186.6530  177.7470  144.9090 C   0  0  0  0  0  2  0  0  0  0  0  0
  185.2020  177.7420  145.0550 N   0  0  0  0  0  0  0  0  0  0  0  0
  184.6600  178.8250  144.2420 C   0  0  0  0  0  2  0  0  0  0  0  0
  184.8580  178.5420  142.8910 O   0  0  0  0  0  1  0  0  0  0  0  0
  184.8430  177.9430  146.4650 C   0  0  0  0  0  2  0  0  0  0  0  0
  186.3340  178.6210  148.3340 C   0  0  0  0  0  1  0  0  0  0  0  0
  185.5750  179.1150  147.1210 C   0  0  0  0  0  2  0  0  0  0  0  0
  2 19  1  0  0  0  0
  3 20  1  0  0  0  0
  3  6  1  0  0  0  0
  4 13  1  0  0  0  0
  5  3  2  0  0  0  0
  6 11  1  0  0  0  0
  7  2  2  0  0  0  0
  7 14  1  0  0  0  0
  8  9  1  0  0  0  0
  8 10  1  0  0  0  0
 10 21  1  6  0  0  0
 11 12  1  0  0  0  0
 11  1  2  0  0  0  0
 13 16  1  0  0  0  0
 14  8  2  0  0  0  0
 15 14  1  0  0  0  0
 15  4  1  0  0  0  0
 16 10  1  0  0  0  0
 17 13  2  0  0  0  0
 18  4  1  0  0  0  0
 19  5  1  0  0  0  0
 19  9  2  0  0  0  0
 20  9  1  6  0  0  0
 20 12  1  0  0  0  0
 21 22  1  1  0  0  0
 21 24  1  0  0  0  0
 23 22  1  0  0  0  0
 24 26  1  0  0  0  0
 26 25  1  1  0  0  0
 27 26  1  0  0  0  0
 28 27  2  0  0  0  0
 29 30  1  0  0  0  0
 29 28  1  0  0  0  0
 30 33  1  0  0  0  0
 31 30  1  0  0  0  0
 32 31  1  0  0  0  0
 33 35  1  0  0  0  0
 35 34  1  0  0  0  0
M  END
>  <MODEL>
9

>  <REMARK>
 VINA RESULT:      -6.2      1.958      4.015
  Name = 
  10 active torsions:
  status: ('A' for Active; 'I' for Inactive)
    1  A    between atoms: C_1  and  C_20
    2  A    between atoms: C_2  and  C_13
    3  A    between atoms: C_2  and  N_17
    4  A    between atoms: C_4  and  C_33
    5  A    between atoms: C_6  and  C_20
    6  A    between atoms: C_6  and  C_33
    7  A    between atoms: C_10  and  N_17
    8  A    between atoms: N_17  and  C_21
    9  A    between atoms: C_21  and  C_27
   10  A    between atoms: C_22  and  C_33
                            x       y       z     vdW  Elec       q    Type
                         _______ _______ _______ _____ _____    ______ ____

>  <TORSDO>
F 10

$$$$
