=
 OpenBabel11042416243D

 38 40  0  0  1  0  0  0  0  0999 V2000
  192.3860  176.6550  144.6760 C   0  0  0  0  0  2  0  0  0  0  0  0
  190.3040  175.8120  146.6440 C   0  0  0  0  0  0  0  0  0  0  0  0
  189.9930  177.4740  144.7390 C   0  0  0  0  0  3  0  0  0  0  0  0
  189.5610  176.6690  145.7170 C   0  0  0  0  0  0  0  0  0  0  0  0
  191.4250  177.8040  144.4290 C   0  0  0  0  0  2  0  0  0  0  0  0
  189.4710  175.1910  147.4140 N   0  0  0  0  0  0  0  0  0  0  0  0
  188.1600  175.5920  147.1170 N   0  0  0  0  0  0  0  0  0  0  0  0
  186.9940  177.0160  145.6010 N   0  0  0  0  0  2  0  0  0  0  0  0
  191.7400  175.3990  146.5460 C   0  0  0  0  0  2  0  0  0  0  0  0
  188.1840  176.4280  146.1350 C   0  0  0  0  0  0  0  0  0  0  0  0
  192.5820  176.5030  146.1090 N   0  0  0  0  0  0  0  0  0  0  0  0
  186.9900  178.0490  144.5730 C   0  0  1  0  0  3  0  0  0  0  0  0
  188.2160  176.4120  141.5820 C   0  0  0  0  0  3  0  0  0  0  0  0
  186.5320  177.4700  143.2700 C   0  0  0  0  0  3  0  0  0  0  0  0
  187.3740  176.9410  142.4240 C   0  0  0  0  0  0  0  0  0  0  0  0
  187.9280  175.1500  140.9820 N   0  0  0  0  0  2  0  0  0  0  0  0
  188.5450  173.9990  139.0350 O   0  0  0  0  0  1  0  0  0  0  0  0
  188.9530  174.3410  140.3280 C   0  0  2  0  0  3  0  0  0  0  0  0
  189.3520  173.0980  141.1490 C   0  0  0  0  0  0  0  0  0  0  0  0
  189.8190  171.9640  140.2500 C   0  0  0  0  0  1  0  0  0  0  0  0
  188.1660  172.6120  141.9660 C   0  0  0  0  0  1  0  0  0  0  0  0
  191.8120  172.2530  142.3850 O   0  0  0  0  0  1  0  0  0  0  0  0
  191.4040  174.7730  141.8240 O   0  0  0  0  0  0  0  0  0  0  0  0
  190.6990  173.5240  142.3020 P   0  0  0  0  0  0  0  0  0  0  0  0
  190.0590  173.8000  143.8420 O   0  0  0  0  0  1  0  0  0  0  0  0
  186.1420  179.1220  144.9720 O   0  0  0  0  0  0  0  0  0  0  0  0
  185.3100  179.0430  146.0900 C   0  0  0  0  0  0  0  0  0  0  0  0
  183.9660  178.5830  145.9720 N   0  0  0  0  0  1  0  0  0  0  0  0
  185.7490  179.3900  147.2160 O   0  0  0  0  0  0  0  0  0  0  0  0
  193.9080  176.0900  146.2940 N   0  0  0  0  0  2  0  0  0  0  0  0
  194.2080  175.2110  145.2450 N   0  0  0  0  0  2  0  0  0  0  0  0
  197.0650  172.9280  146.0560 C   0  0  0  0  0  3  0  0  0  0  0  0
  196.4670  171.5500  145.9370 C   0  0  0  0  0  2  0  0  0  0  0  0
  196.3610  174.0430  145.8440 C   0  0  0  0  0  3  0  0  0  0  0  0
  194.3020  172.8350  145.3380 C   0  0  0  0  0  3  0  0  0  0  0  0
  194.9320  174.0030  145.4720 C   0  0  0  0  0  0  0  0  0  0  0  0
  195.0120  171.5670  145.5580 C   0  0  0  0  0  0  0  0  0  0  0  0
  194.3930  170.4800  145.4260 O   0  0  0  0  0  0  0  0  0  0  0  0
  1 11  1  0  0  0  0
  2  6  2  0  0  0  0
  3  4  2  0  0  0  0
  4 10  1  0  0  0  0
  4  2  1  0  0  0  0
  5  1  1  0  0  0  0
  5  3  1  0  0  0  0
  7  6  1  0  0  0  0
  8 10  1  0  0  0  0
  9  2  1  0  0  0  0
 10  7  2  0  0  0  0
 11 30  1  0  0  0  0
 11  9  1  0  0  0  0
 12 14  1  6  0  0  0
 12 26  1  0  0  0  0
 12  8  1  0  0  0  0
 13 15  2  0  0  0  0
 15 14  2  0  0  0  0
 16 13  1  0  0  0  0
 18 17  1  6  0  0  0
 18 16  1  0  0  0  0
 18 19  1  0  0  0  0
 19 21  1  0  0  0  0
 19 24  1  0  0  0  0
 20 19  1  0  0  0  0
 23 24  2  0  0  0  0
 24 22  1  0  0  0  0
 24 25  1  0  0  0  0
 26 27  1  0  0  0  0
 27 29  2  0  0  0  0
 28 27  1  0  0  0  0
 31 36  1  0  0  0  0
 31 30  1  0  0  0  0
 33 32  1  0  0  0  0
 34 32  2  0  0  0  0
 35 36  2  0  0  0  0
 35 37  1  0  0  0  0
 36 34  1  0  0  0  0
 37 33  1  0  0  0  0
 38 37  2  0  0  0  0
M  END
>  <MODEL>
1

>  <REMARK>
 VINA RESULT:      -7.3      0.000      0.000
  Name = 
  11 active torsions:
  status: ('A' for Active; 'I' for Inactive)
    1  A    between atoms: C_2  and  O_4
    2  A    between atoms: C_2  and  C_15
    3  A    between atoms: C_2  and  N_20
    4  A    between atoms: O_4  and  C_7
    5  A    between atoms: C_13  and  N_17
    6  A    between atoms: N_17  and  C_33
    7  A    between atoms: N_19  and  C_23
    8  A    between atoms: N_19  and  N_37
    9  A    between atoms: C_21  and  P_29
   10  A    between atoms: C_21  and  C_33
   11  A    between atoms: N_31  and  N_37
                            x       y       z     vdW  Elec       q    Type
                         _______ _______ _______ _____ _____    ______ ____

>  <TORSDO>
F 11

$$$$
=
 OpenBabel11042416243D

 38 40  0  0  1  0  0  0  0  0999 V2000
  184.9270  178.4230  140.8780 C   0  0  0  0  0  2  0  0  0  0  0  0
  184.4300  178.3500  143.8220 C   0  0  0  0  0  0  0  0  0  0  0  0
  186.5550  177.6030  142.6310 C   0  0  0  0  0  3  0  0  0  0  0  0
  185.8290  177.9310  143.7070 C   0  0  0  0  0  0  0  0  0  0  0  0
  186.0440  177.4560  141.2270 C   0  0  0  0  0  2  0  0  0  0  0  0
  184.1540  178.5870  145.0630 N   0  0  0  0  0  0  0  0  0  0  0  0
  185.2770  178.3160  145.8590 N   0  0  0  0  0  0  0  0  0  0  0  0
  187.5440  177.6110  145.6270 N   0  0  0  0  0  2  0  0  0  0  0  0
  183.5230  178.7940  142.7170 C   0  0  0  0  0  2  0  0  0  0  0  0
  186.2570  177.9540  145.1020 C   0  0  0  0  0  0  0  0  0  0  0  0
  183.7000  177.9820  141.5230 N   0  0  0  0  0  0  0  0  0  0  0  0
  188.6360  177.0880  144.8180 C   0  0  1  0  0  3  0  0  0  0  0  0
  191.2520  175.9400  147.0460 C   0  0  0  0  0  3  0  0  0  0  0  0
  189.9500  177.4970  145.4080 C   0  0  0  0  0  3  0  0  0  0  0  0
  190.6030  176.7190  146.2290 C   0  0  0  0  0  0  0  0  0  0  0  0
  192.6510  175.7240  146.8670 N   0  0  0  0  0  2  0  0  0  0  0  0
  193.1760  173.7100  145.7880 O   0  0  0  0  0  1  0  0  0  0  0  0
  193.2010  175.1020  145.6650 C   0  0  2  0  0  3  0  0  0  0  0  0
  194.6100  175.6210  145.3120 C   0  0  0  0  0  0  0  0  0  0  0  0
  195.6920  174.7640  145.9490 C   0  0  0  0  0  1  0  0  0  0  0  0
  194.7740  177.0520  145.7970 C   0  0  0  0  0  1  0  0  0  0  0  0
  195.3080  174.0620  142.9930 O   0  0  0  0  0  1  0  0  0  0  0  0
  193.5450  175.9840  142.8200 O   0  0  0  0  0  0  0  0  0  0  0  0
  194.8390  175.6060  143.5030 P   0  0  0  0  0  0  0  0  0  0  0  0
  196.0400  176.7170  143.0760 O   0  0  0  0  0  1  0  0  0  0  0  0
  188.5400  175.6680  144.7420 O   0  0  0  0  0  0  0  0  0  0  0  0
  189.1830  174.9260  143.7490 C   0  0  0  0  0  0  0  0  0  0  0  0
  189.8480  173.7050  144.0630 N   0  0  0  0  0  1  0  0  0  0  0  0
  189.1810  175.3440  142.5630 O   0  0  0  0  0  0  0  0  0  0  0  0
  182.6480  178.3090  140.6580 N   0  0  0  0  0  2  0  0  0  0  0  0
  181.4590  178.0140  141.3370 N   0  0  0  0  0  2  0  0  0  0  0  0
  177.8680  179.0670  141.5120 C   0  0  0  0  0  3  0  0  0  0  0  0
  177.8570  180.4150  140.8410 C   0  0  0  0  0  2  0  0  0  0  0  0
  178.9790  178.3400  141.6600 C   0  0  0  0  0  3  0  0  0  0  0  0
  180.3950  179.9960  140.5600 C   0  0  0  0  0  3  0  0  0  0  0  0
  180.2900  178.8140  141.1700 C   0  0  0  0  0  0  0  0  0  0  0  0
  179.2150  180.8500  140.3630 C   0  0  0  0  0  0  0  0  0  0  0  0
  179.3430  181.9590  139.7860 O   0  0  0  0  0  0  0  0  0  0  0  0
  1  5  1  0  0  0  0
  1 11  1  0  0  0  0
  2  6  2  0  0  0  0
  3  4  2  0  0  0  0
  4  2  1  0  0  0  0
  4 10  1  0  0  0  0
  5  3  1  0  0  0  0
  6  7  1  0  0  0  0
  9  2  1  0  0  0  0
 10  8  1  0  0  0  0
 10  7  2  0  0  0  0
 11  9  1  0  0  0  0
 12 14  1  1  0  0  0
 12  8  1  0  0  0  0
 14 15  2  0  0  0  0
 15 13  2  0  0  0  0
 16 13  1  0  0  0  0
 18 17  1  1  0  0  0
 18 16  1  0  0  0  0
 19 18  1  0  0  0  0
 19 21  1  0  0  0  0
 19 20  1  0  0  0  0
 22 24  1  0  0  0  0
 23 24  2  0  0  0  0
 24 19  1  0  0  0  0
 25 24  1  0  0  0  0
 26 12  1  0  0  0  0
 27 28  1  0  0  0  0
 27 26  1  0  0  0  0
 29 27  2  0  0  0  0
 30 31  1  0  0  0  0
 30 11  1  0  0  0  0
 32 34  2  0  0  0  0
 33 32  1  0  0  0  0
 35 36  2  0  0  0  0
 36 31  1  0  0  0  0
 36 34  1  0  0  0  0
 37 35  1  0  0  0  0
 37 33  1  0  0  0  0
 38 37  2  0  0  0  0
M  END
>  <MODEL>
2

>  <REMARK>
 VINA RESULT:      -7.0      4.357     10.289
  Name = 
  11 active torsions:
  status: ('A' for Active; 'I' for Inactive)
    1  A    between atoms: C_2  and  O_4
    2  A    between atoms: C_2  and  C_15
    3  A    between atoms: C_2  and  N_20
    4  A    between atoms: O_4  and  C_7
    5  A    between atoms: C_13  and  N_17
    6  A    between atoms: N_17  and  C_33
    7  A    between atoms: N_19  and  C_23
    8  A    between atoms: N_19  and  N_37
    9  A    between atoms: C_21  and  P_29
   10  A    between atoms: C_21  and  C_33
   11  A    between atoms: N_31  and  N_37
                            x       y       z     vdW  Elec       q    Type
                         _______ _______ _______ _____ _____    ______ ____

>  <TORSDO>
F 11

$$$$
=
 OpenBabel11042416243D

 38 40  0  0  1  0  0  0  0  0999 V2000
  192.1810  177.0680  144.2200 C   0  0  0  0  0  2  0  0  0  0  0  0
  190.5390  175.9880  146.4690 C   0  0  0  0  0  0  0  0  0  0  0  0
  189.6770  177.3190  144.4750 C   0  0  0  0  0  3  0  0  0  0  0  0
  189.5360  176.5480  145.5600 C   0  0  0  0  0  0  0  0  0  0  0  0
  190.9560  177.9330  143.9840 C   0  0  0  0  0  2  0  0  0  0  0  0
  189.9480  175.2800  147.3760 N   0  0  0  0  0  0  0  0  0  0  0  0
  188.5590  175.3360  147.1910 N   0  0  0  0  0  0  0  0  0  0  0  0
  186.9590  176.2830  145.6960 N   0  0  0  0  0  2  0  0  0  0  0  0
  192.0180  175.9080  146.2500 C   0  0  0  0  0  2  0  0  0  0  0  0
  188.2980  176.0450  146.1450 C   0  0  0  0  0  0  0  0  0  0  0  0
  192.5310  177.1200  145.6310 N   0  0  0  0  0  0  0  0  0  0  0  0
  186.6200  177.1700  144.5920 C   0  0  1  0  0  3  0  0  0  0  0  0
  187.8860  176.3390  141.3000 C   0  0  0  0  0  3  0  0  0  0  0  0
  186.3000  176.3650  143.3710 C   0  0  0  0  0  3  0  0  0  0  0  0
  187.0920  176.3520  142.3330 C   0  0  0  0  0  0  0  0  0  0  0  0
  188.2310  175.1020  140.6800 N   0  0  0  0  0  2  0  0  0  0  0  0
  190.2450  174.8540  141.8540 O   0  0  0  0  0  1  0  0  0  0  0  0
  189.1770  174.1610  141.2760 C   0  0  2  0  0  3  0  0  0  0  0  0
  189.6610  173.0870  140.2820 C   0  0  0  0  0  0  0  0  0  0  0  0
  190.6620  173.6590  139.2900 C   0  0  0  0  0  1  0  0  0  0  0  0
  188.4810  172.5220  139.5100 C   0  0  0  0  0  1  0  0  0  0  0  0
  192.0380  172.1410  141.6060 O   0  0  0  0  0  1  0  0  0  0  0  0
  189.6720  171.4180  142.4470 O   0  0  0  0  0  1  0  0  0  0  0  0
  190.4540  171.7180  141.1890 P   0  0  0  0  0  0  0  0  0  0  0  0
  190.4890  170.3380  140.2130 O   0  0  0  0  0  0  0  0  0  0  0  0
  185.5150  177.9920  144.9560 O   0  0  0  0  0  0  0  0  0  0  0  0
  184.9840  178.9570  144.0990 C   0  0  0  0  0  0  0  0  0  0  0  0
  183.7250  178.7570  143.4620 N   0  0  0  0  0  1  0  0  0  0  0  0
  185.6280  180.0150  143.8800 O   0  0  0  0  0  0  0  0  0  0  0  0
  193.9280  177.0450  145.7040 N   0  0  0  0  0  2  0  0  0  0  0  0
  194.3590  176.3940  144.5410 N   0  0  0  0  0  2  0  0  0  0  0  0
  197.6070  174.8990  143.4220 C   0  0  0  0  0  3  0  0  0  0  0  0
  197.9170  173.8780  144.4850 C   0  0  0  0  0  2  0  0  0  0  0  0
  196.5130  175.6660  143.4510 C   0  0  0  0  0  3  0  0  0  0  0  0
  195.6960  174.6940  145.5340 C   0  0  0  0  0  3  0  0  0  0  0  0
  195.5210  175.5650  144.5400 C   0  0  0  0  0  0  0  0  0  0  0  0
  196.8760  173.8180  145.5700 C   0  0  0  0  0  0  0  0  0  0  0  0
  197.0170  173.0070  146.5200 O   0  0  0  0  0  0  0  0  0  0  0  0
  1 11  1  0  0  0  0
  2  6  2  0  0  0  0
  3  4  2  0  0  0  0
  4 10  1  0  0  0  0
  4  2  1  0  0  0  0
  5  1  1  0  0  0  0
  5  3  1  0  0  0  0
  7  6  1  0  0  0  0
  8 10  1  0  0  0  0
  9  2  1  0  0  0  0
 10  7  2  0  0  0  0
 11 30  1  0  0  0  0
 11  9  1  0  0  0  0
 12 14  1  6  0  0  0
 12 26  1  0  0  0  0
 12  8  1  0  0  0  0
 13 15  2  0  0  0  0
 15 14  2  0  0  0  0
 16 18  1  0  0  0  0
 16 13  1  0  0  0  0
 18 17  1  6  0  0  0
 19 24  1  0  0  0  0
 19 18  1  0  0  0  0
 20 19  1  0  0  0  0
 21 19  1  0  0  0  0
 24 22  1  0  0  0  0
 24 23  1  0  0  0  0
 25 24  2  0  0  0  0
 27 26  1  0  0  0  0
 28 27  1  0  0  0  0
 29 27  2  0  0  0  0
 31 30  1  0  0  0  0
 32 34  2  0  0  0  0
 32 33  1  0  0  0  0
 33 37  1  0  0  0  0
 34 36  1  0  0  0  0
 35 37  1  0  0  0  0
 36 31  1  0  0  0  0
 36 35  2  0  0  0  0
 37 38  2  0  0  0  0
M  END
>  <MODEL>
3

>  <REMARK>
 VINA RESULT:      -6.9      1.586      2.076
  Name = 
  11 active torsions:
  status: ('A' for Active; 'I' for Inactive)
    1  A    between atoms: C_2  and  O_4
    2  A    between atoms: C_2  and  C_15
    3  A    between atoms: C_2  and  N_20
    4  A    between atoms: O_4  and  C_7
    5  A    between atoms: C_13  and  N_17
    6  A    between atoms: N_17  and  C_33
    7  A    between atoms: N_19  and  C_23
    8  A    between atoms: N_19  and  N_37
    9  A    between atoms: C_21  and  P_29
   10  A    between atoms: C_21  and  C_33
   11  A    between atoms: N_31  and  N_37
                            x       y       z     vdW  Elec       q    Type
                         _______ _______ _______ _____ _____    ______ ____

>  <TORSDO>
F 11

$$$$
=
 OpenBabel11042416243D

 38 40  0  0  1  0  0  0  0  0999 V2000
  188.9760  175.6720  146.9570 C   0  0  0  0  0  2  0  0  0  0  0  0
  190.6490  177.2470  145.0500 C   0  0  0  0  0  0  0  0  0  0  0  0
  191.4370  175.3080  146.5020 C   0  0  0  0  0  3  0  0  0  0  0  0
  191.5630  176.1990  145.5120 C   0  0  0  0  0  0  0  0  0  0  0  0
  190.3260  175.2540  147.5110 C   0  0  0  0  0  2  0  0  0  0  0  0
  191.1770  177.8610  144.0420 N   0  0  0  0  0  0  0  0  0  0  0  0
  192.4500  177.3360  143.7790 N   0  0  0  0  0  0  0  0  0  0  0  0
  193.9140  175.6300  144.5760 N   0  0  0  0  0  2  0  0  0  0  0  0
  189.2010  177.4060  145.3970 C   0  0  0  0  0  2  0  0  0  0  0  0
  192.6880  176.3690  144.5990 C   0  0  0  0  0  0  0  0  0  0  0  0
  188.9560  177.1180  146.8020 N   0  0  0  0  0  0  0  0  0  0  0  0
  194.2660  174.6130  145.5570 C   0  0  1  0  0  3  0  0  0  0  0  0
  191.8520  172.2040  144.3350 C   0  0  0  0  0  3  0  0  0  0  0  0
  194.1620  173.2520  144.9410 C   0  0  0  0  0  3  0  0  0  0  0  0
  193.0060  172.7260  144.6380 C   0  0  0  0  0  0  0  0  0  0  0  0
  191.6600  171.5870  143.0630 N   0  0  0  0  0  2  0  0  0  0  0  0
  190.1310  170.4910  141.6630 O   0  0  0  0  0  1  0  0  0  0  0  0
  190.4060  171.6950  142.3200 C   0  0  2  0  0  3  0  0  0  0  0  0
  190.3850  172.8940  141.3510 C   0  0  0  0  0  0  0  0  0  0  0  0
  191.3120  172.6680  140.1670 C   0  0  0  0  0  1  0  0  0  0  0  0
  190.8220  174.1560  142.0760 C   0  0  0  0  0  1  0  0  0  0  0  0
  188.4690  172.3030  139.2830 O   0  0  0  0  0  0  0  0  0  0  0  0
  187.6900  172.6700  141.7500 O   0  0  0  0  0  1  0  0  0  0  0  0
  188.6910  173.1550  140.7280 P   0  0  0  0  0  0  0  0  0  0  0  0
  188.4420  174.8030  140.4410 O   0  0  0  0  0  1  0  0  0  0  0  0
  195.5860  174.8460  146.0410 O   0  0  0  0  0  0  0  0  0  0  0  0
  196.6980  174.1650  145.5430 C   0  0  0  0  0  0  0  0  0  0  0  0
  197.0810  172.9000  146.0780 N   0  0  0  0  0  1  0  0  0  0  0  0
  197.3750  174.6760  144.6150 O   0  0  0  0  0  0  0  0  0  0  0  0
  187.6470  177.5360  147.0720 N   0  0  0  0  0  2  0  0  0  0  0  0
  186.8070  176.8140  146.2140 N   0  0  0  0  0  2  0  0  0  0  0  0
  183.8540  178.9340  145.3050 C   0  0  0  0  0  3  0  0  0  0  0  0
  183.7810  178.8220  143.8050 C   0  0  0  0  0  2  0  0  0  0  0  0
  184.7880  178.3140  146.0330 C   0  0  0  0  0  3  0  0  0  0  0  0
  185.8550  177.2990  144.0870 C   0  0  0  0  0  3  0  0  0  0  0  0
  185.8260  177.4680  145.4100 C   0  0  0  0  0  0  0  0  0  0  0  0
  184.8600  177.9500  143.2220 C   0  0  0  0  0  0  0  0  0  0  0  0
  184.9120  177.7750  141.9790 O   0  0  0  0  0  0  0  0  0  0  0  0
  1  5  1  0  0  0  0
  2  9  1  0  0  0  0
  2  4  1  0  0  0  0
  3  5  1  0  0  0  0
  4  3  2  0  0  0  0
  6  2  2  0  0  0  0
  7  6  1  0  0  0  0
  7 10  2  0  0  0  0
  8 10  1  0  0  0  0
  8 12  1  0  0  0  0
  9 11  1  0  0  0  0
 10  4  1  0  0  0  0
 11  1  1  0  0  0  0
 11 30  1  0  0  0  0
 12 14  1  6  0  0  0
 12 26  1  0  0  0  0
 13 15  2  0  0  0  0
 15 14  2  0  0  0  0
 16 13  1  0  0  0  0
 18 17  1  6  0  0  0
 18 16  1  0  0  0  0
 19 21  1  0  0  0  0
 19 18  1  0  0  0  0
 20 19  1  0  0  0  0
 22 24  2  0  0  0  0
 24 19  1  0  0  0  0
 24 23  1  0  0  0  0
 25 24  1  0  0  0  0
 27 26  1  0  0  0  0
 27 28  1  0  0  0  0
 29 27  2  0  0  0  0
 31 30  1  0  0  0  0
 32 34  2  0  0  0  0
 33 32  1  0  0  0  0
 35 36  2  0  0  0  0
 36 34  1  0  0  0  0
 36 31  1  0  0  0  0
 37 33  1  0  0  0  0
 37 35  1  0  0  0  0
 38 37  2  0  0  0  0
M  END
>  <MODEL>
4

>  <REMARK>
 VINA RESULT:      -6.7      2.364      7.930
  Name = 
  11 active torsions:
  status: ('A' for Active; 'I' for Inactive)
    1  A    between atoms: C_2  and  O_4
    2  A    between atoms: C_2  and  C_15
    3  A    between atoms: C_2  and  N_20
    4  A    between atoms: O_4  and  C_7
    5  A    between atoms: C_13  and  N_17
    6  A    between atoms: N_17  and  C_33
    7  A    between atoms: N_19  and  C_23
    8  A    between atoms: N_19  and  N_37
    9  A    between atoms: C_21  and  P_29
   10  A    between atoms: C_21  and  C_33
   11  A    between atoms: N_31  and  N_37
                            x       y       z     vdW  Elec       q    Type
                         _______ _______ _______ _____ _____    ______ ____

>  <TORSDO>
F 11

$$$$
=
 OpenBabel11042416243D

 38 40  0  0  1  0  0  0  0  0999 V2000
  189.5530  174.6510  145.2670 C   0  0  0  0  0  2  0  0  0  0  0  0
  191.9230  175.9400  146.5470 C   0  0  0  0  0  0  0  0  0  0  0  0
  191.9170  173.7530  145.2410 C   0  0  0  0  0  3  0  0  0  0  0  0
  192.5040  174.7950  145.8420 C   0  0  0  0  0  0  0  0  0  0  0  0
  190.4520  173.4270  145.2610 C   0  0  0  0  0  2  0  0  0  0  0  0
  192.8710  176.7190  146.9540 N   0  0  0  0  0  0  0  0  0  0  0  0
  194.1160  176.1690  146.6140 N   0  0  0  0  0  0  0  0  0  0  0  0
  195.0190  174.2780  145.4740 N   0  0  0  0  0  2  0  0  0  0  0  0
  190.4930  176.3850  146.5310 C   0  0  0  0  0  2  0  0  0  0  0  0
  193.9310  175.0720  145.9600 C   0  0  0  0  0  0  0  0  0  0  0  0
  189.5830  175.2520  146.5910 N   0  0  0  0  0  0  0  0  0  0  0  0
  194.8530  172.9800  144.8360 C   0  0  1  0  0  3  0  0  0  0  0  0
  193.6570  171.3750  141.8160 C   0  0  0  0  0  3  0  0  0  0  0  0
  194.8100  173.1430  143.3480 C   0  0  0  0  0  3  0  0  0  0  0  0
  194.2340  172.2580  142.5800 C   0  0  0  0  0  0  0  0  0  0  0  0
  192.7680  171.7960  140.7840 N   0  0  0  0  0  2  0  0  0  0  0  0
  190.7380  170.7900  140.1780 O   0  0  0  0  0  1  0  0  0  0  0  0
  191.3160  171.8000  140.9520 C   0  0  2  0  0  3  0  0  0  0  0  0
  190.6830  173.1760  140.6620 C   0  0  0  0  0  0  0  0  0  0  0  0
  190.7620  173.5230  139.1840 C   0  0  0  0  0  1  0  0  0  0  0  0
  191.4020  174.2570  141.4540 C   0  0  0  0  0  1  0  0  0  0  0  0
  187.9580  172.6660  139.8810 O   0  0  0  0  0  0  0  0  0  0  0  0
  188.7410  172.2290  142.3360 O   0  0  0  0  0  1  0  0  0  0  0  0
  188.9320  173.1710  141.1700 P   0  0  0  0  0  0  0  0  0  0  0  0
  188.4720  174.7300  141.6330 O   0  0  0  0  0  1  0  0  0  0  0  0
  195.9210  172.1170  145.2160 O   0  0  0  0  0  0  0  0  0  0  0  0
  195.7040  170.8480  145.7560 C   0  0  0  0  0  0  0  0  0  0  0  0
  196.7860  170.0770  146.2740 N   0  0  0  0  0  1  0  0  0  0  0  0
  194.5390  170.3750  145.7810 O   0  0  0  0  0  0  0  0  0  0  0  0
  188.3050  175.7780  146.8250 N   0  0  0  0  0  2  0  0  0  0  0  0
  187.9550  176.5100  145.6830 N   0  0  0  0  0  2  0  0  0  0  0  0
  184.4770  177.6710  146.4520 C   0  0  0  0  0  3  0  0  0  0  0  0
  184.3080  178.8930  145.5880 C   0  0  0  0  0  2  0  0  0  0  0  0
  185.6010  176.9490  146.4730 C   0  0  0  0  0  3  0  0  0  0  0  0
  186.7290  178.3680  144.8410 C   0  0  0  0  0  3  0  0  0  0  0  0
  186.7690  177.3040  145.6430 C   0  0  0  0  0  0  0  0  0  0  0  0
  185.5260  179.2100  144.7650 C   0  0  0  0  0  0  0  0  0  0  0  0
  185.5160  180.2080  144.0010 O   0  0  0  0  0  0  0  0  0  0  0  0
  1 11  1  0  0  0  0
  2  6  2  0  0  0  0
  3  5  1  0  0  0  0
  3  4  2  0  0  0  0
  4 10  1  0  0  0  0
  4  2  1  0  0  0  0
  5  1  1  0  0  0  0
  7  6  1  0  0  0  0
  8 10  1  0  0  0  0
  9  2  1  0  0  0  0
  9 11  1  0  0  0  0
 10  7  2  0  0  0  0
 11 30  1  0  0  0  0
 12 14  1  6  0  0  0
 12 26  1  0  0  0  0
 12  8  1  0  0  0  0
 13 15  2  0  0  0  0
 15 14  2  0  0  0  0
 16 18  1  0  0  0  0
 16 13  1  0  0  0  0
 18 17  1  6  0  0  0
 19 18  1  0  0  0  0
 19 24  1  0  0  0  0
 19 21  1  0  0  0  0
 20 19  1  0  0  0  0
 22 24  2  0  0  0  0
 24 25  1  0  0  0  0
 24 23  1  0  0  0  0
 26 27  1  0  0  0  0
 27 29  2  0  0  0  0
 27 28  1  0  0  0  0
 31 30  1  0  0  0  0
 32 34  2  0  0  0  0
 33 32  1  0  0  0  0
 35 36  2  0  0  0  0
 36 31  1  0  0  0  0
 36 34  1  0  0  0  0
 37 35  1  0  0  0  0
 37 33  1  0  0  0  0
 38 37  2  0  0  0  0
M  END
>  <MODEL>
5

>  <REMARK>
 VINA RESULT:      -6.7      2.209      8.037
  Name = 
  11 active torsions:
  status: ('A' for Active; 'I' for Inactive)
    1  A    between atoms: C_2  and  O_4
    2  A    between atoms: C_2  and  C_15
    3  A    between atoms: C_2  and  N_20
    4  A    between atoms: O_4  and  C_7
    5  A    between atoms: C_13  and  N_17
    6  A    between atoms: N_17  and  C_33
    7  A    between atoms: N_19  and  C_23
    8  A    between atoms: N_19  and  N_37
    9  A    between atoms: C_21  and  P_29
   10  A    between atoms: C_21  and  C_33
   11  A    between atoms: N_31  and  N_37
                            x       y       z     vdW  Elec       q    Type
                         _______ _______ _______ _____ _____    ______ ____

>  <TORSDO>
F 11

$$$$
=
 OpenBabel11042416243D

 38 40  0  0  1  0  0  0  0  0999 V2000
  189.9920  176.5110  145.1950 C   0  0  0  0  0  2  0  0  0  0  0  0
  189.7070  173.5740  144.7360 C   0  0  0  0  0  0  0  0  0  0  0  0
  190.3910  175.3120  143.0040 C   0  0  0  0  0  3  0  0  0  0  0  0
  190.2320  174.0640  143.4590 C   0  0  0  0  0  0  0  0  0  0  0  0
  189.9240  176.5690  143.6790 C   0  0  0  0  0  2  0  0  0  0  0  0
  189.7570  172.2820  144.7520 N   0  0  0  0  0  0  0  0  0  0  0  0
  190.2530  171.8100  143.5280 N   0  0  0  0  0  0  0  0  0  0  0  0
  191.0820  172.6520  141.4560 N   0  0  0  0  0  2  0  0  0  0  0  0
  189.4720  174.3670  145.9840 C   0  0  0  0  0  2  0  0  0  0  0  0
  190.5490  172.8150  142.7740 C   0  0  0  0  0  0  0  0  0  0  0  0
  188.9080  175.6740  145.6850 N   0  0  0  0  0  0  0  0  0  0  0  0
  191.3190  173.7560  140.5350 C   0  0  1  0  0  3  0  0  0  0  0  0
  194.3940  175.5320  141.2500 C   0  0  0  0  0  3  0  0  0  0  0  0
  192.7680  173.8070  140.1610 C   0  0  0  0  0  3  0  0  0  0  0  0
  193.5830  174.6710  140.7040 C   0  0  0  0  0  0  0  0  0  0  0  0
  195.6680  175.1070  141.7310 N   0  0  0  0  0  2  0  0  0  0  0  0
  197.4410  176.0340  142.9540 O   0  0  0  0  0  1  0  0  0  0  0  0
  196.1660  175.4680  143.0560 C   0  0  2  0  0  3  0  0  0  0  0  0
  196.1410  174.2890  144.0490 C   0  0  0  0  0  0  0  0  0  0  0  0
  197.4470  174.1860  144.8220 C   0  0  0  0  0  1  0  0  0  0  0  0
  195.9150  172.9850  143.3030 C   0  0  0  0  0  1  0  0  0  0  0  0
  194.1280  173.0020  145.6580 O   0  0  0  0  0  1  0  0  0  0  0  0
  195.2830  175.1980  146.4800 O   0  0  0  0  0  1  0  0  0  0  0  0
  194.7740  174.5080  145.2360 P   0  0  0  0  0  0  0  0  0  0  0  0
  193.5610  175.4520  144.5320 O   0  0  0  0  0  0  0  0  0  0  0  0
  190.5060  173.5970  139.3750 O   0  0  0  0  0  0  0  0  0  0  0  0
  189.1120  173.6460  139.4250 C   0  0  0  0  0  0  0  0  0  0  0  0
  188.3200  172.6630  138.7620 N   0  0  0  0  0  1  0  0  0  0  0  0
  188.5460  174.5750  140.0570 O   0  0  0  0  0  0  0  0  0  0  0  0
  188.4980  176.2210  146.9080 N   0  0  0  0  0  2  0  0  0  0  0  0
  188.1520  177.5550  146.6590 N   0  0  0  0  0  2  0  0  0  0  0  0
  184.4560  178.1030  146.9410 C   0  0  0  0  0  3  0  0  0  0  0  0
  184.0710  178.6520  145.5930 C   0  0  0  0  0  2  0  0  0  0  0  0
  185.7120  177.7720  147.2570 C   0  0  0  0  0  3  0  0  0  0  0  0
  186.5940  178.4010  145.0710 C   0  0  0  0  0  3  0  0  0  0  0  0
  186.8220  177.9230  146.2960 C   0  0  0  0  0  0  0  0  0  0  0  0
  185.2390  178.7870  144.6530 C   0  0  0  0  0  0  0  0  0  0  0  0
  185.0520  179.2350  143.4940 O   0  0  0  0  0  0  0  0  0  0  0  0
  1 11  1  0  0  0  0
  2  6  2  0  0  0  0
  2  9  1  0  0  0  0
  3  4  2  0  0  0  0
  3  5  1  0  0  0  0
  4  2  1  0  0  0  0
  5  1  1  0  0  0  0
  7  6  1  0  0  0  0
  8 10  1  0  0  0  0
 10  4  1  0  0  0  0
 10  7  2  0  0  0  0
 11  9  1  0  0  0  0
 11 30  1  0  0  0  0
 12 14  1  6  0  0  0
 12  8  1  0  0  0  0
 13 16  1  0  0  0  0
 14 15  2  0  0  0  0
 15 13  2  0  0  0  0
 16 18  1  0  0  0  0
 18 17  1  6  0  0  0
 18 19  1  0  0  0  0
 19 20  1  0  0  0  0
 19 24  1  0  0  0  0
 21 19  1  0  0  0  0
 24 22  1  0  0  0  0
 24 23  1  0  0  0  0
 25 24  2  0  0  0  0
 26 27  1  0  0  0  0
 26 12  1  0  0  0  0
 27 29  2  0  0  0  0
 28 27  1  0  0  0  0
 31 30  1  0  0  0  0
 32 34  2  0  0  0  0
 33 32  1  0  0  0  0
 35 36  2  0  0  0  0
 36 31  1  0  0  0  0
 36 34  1  0  0  0  0
 37 35  1  0  0  0  0
 37 33  1  0  0  0  0
 38 37  2  0  0  0  0
M  END
>  <MODEL>
6

>  <REMARK>
 VINA RESULT:      -6.5      2.940      7.861
  Name = 
  11 active torsions:
  status: ('A' for Active; 'I' for Inactive)
    1  A    between atoms: C_2  and  O_4
    2  A    between atoms: C_2  and  C_15
    3  A    between atoms: C_2  and  N_20
    4  A    between atoms: O_4  and  C_7
    5  A    between atoms: C_13  and  N_17
    6  A    between atoms: N_17  and  C_33
    7  A    between atoms: N_19  and  C_23
    8  A    between atoms: N_19  and  N_37
    9  A    between atoms: C_21  and  P_29
   10  A    between atoms: C_21  and  C_33
   11  A    between atoms: N_31  and  N_37
                            x       y       z     vdW  Elec       q    Type
                         _______ _______ _______ _____ _____    ______ ____

>  <TORSDO>
F 11

$$$$
=
 OpenBabel11042416243D

 38 40  0  0  1  0  0  0  0  0999 V2000
  185.6250  179.0480  142.9700 C   0  0  0  0  0  2  0  0  0  0  0  0
  185.9990  177.2520  145.3270 C   0  0  0  0  0  0  0  0  0  0  0  0
  187.6620  177.6220  143.4330 C   0  0  0  0  0  3  0  0  0  0  0  0
  187.2900  177.1760  144.6390 C   0  0  0  0  0  0  0  0  0  0  0  0
  186.7620  178.2230  142.3930 C   0  0  0  0  0  2  0  0  0  0  0  0
  186.1030  176.7030  146.4930 N   0  0  0  0  0  0  0  0  0  0  0  0
  187.3980  176.1930  146.6650 N   0  0  0  0  0  0  0  0  0  0  0  0
  189.4750  176.0750  145.4990 N   0  0  0  0  0  2  0  0  0  0  0  0
  184.8260  178.1090  144.9630 C   0  0  0  0  0  2  0  0  0  0  0  0
  188.1040  176.4660  145.6200 C   0  0  0  0  0  0  0  0  0  0  0  0
  184.6230  178.1490  143.5230 N   0  0  0  0  0  0  0  0  0  0  0  0
  190.2690  176.2630  144.2920 C   0  0  1  0  0  3  0  0  0  0  0  0
  193.2860  176.0350  146.2830 C   0  0  0  0  0  3  0  0  0  0  0  0
  191.5280  177.0040  144.6190 C   0  0  0  0  0  3  0  0  0  0  0  0
  192.4090  176.5210  145.4530 C   0  0  0  0  0  0  0  0  0  0  0  0
  194.6720  176.0460  145.9460 N   0  0  0  0  0  2  0  0  0  0  0  0
  196.2820  174.3530  146.1430 O   0  0  0  0  0  1  0  0  0  0  0  0
  195.3300  174.9190  145.2890 C   0  0  2  0  0  3  0  0  0  0  0  0
  195.9370  175.2910  143.9210 C   0  0  0  0  0  0  0  0  0  0  0  0
  197.2480  174.5600  143.6780 C   0  0  0  0  0  1  0  0  0  0  0  0
  196.1960  176.7870  143.8570 C   0  0  0  0  0  1  0  0  0  0  0  0
  193.6680  173.6990  143.1390 O   0  0  0  0  0  1  0  0  0  0  0  0
  194.0140  176.0930  142.1510 O   0  0  0  0  0  1  0  0  0  0  0  0
  194.7690  174.8590  142.5890 P   0  0  0  0  0  0  0  0  0  0  0  0
  195.6220  174.2310  141.2710 O   0  0  0  0  0  0  0  0  0  0  0  0
  190.5680  174.9970  143.7110 O   0  0  0  0  0  0  0  0  0  0  0  0
  189.6140  173.9850  143.5870 C   0  0  0  0  0  0  0  0  0  0  0  0
  189.7020  172.7960  144.3690 N   0  0  0  0  0  1  0  0  0  0  0  0
  188.6680  174.1200  142.7700 O   0  0  0  0  0  0  0  0  0  0  0  0
  183.3770  178.7540  143.3130 N   0  0  0  0  0  2  0  0  0  0  0  0
  182.9160  178.3080  142.0670 N   0  0  0  0  0  2  0  0  0  0  0  0
  179.2730  179.1470  142.3040 C   0  0  0  0  0  3  0  0  0  0  0  0
  178.7000  178.6270  141.0120 C   0  0  0  0  0  2  0  0  0  0  0  0
  180.5680  179.0450  142.6160 C   0  0  0  0  0  3  0  0  0  0  0  0
  181.1410  177.9130  140.5320 C   0  0  0  0  0  3  0  0  0  0  0  0
  181.5400  178.4080  141.7050 C   0  0  0  0  0  0  0  0  0  0  0  0
  179.7320  177.9900  140.1210 C   0  0  0  0  0  0  0  0  0  0  0  0
  179.3840  177.5160  139.0100 O   0  0  0  0  0  0  0  0  0  0  0  0
  1 11  1  0  0  0  0
  2  6  2  0  0  0  0
  3  4  2  0  0  0  0
  4  2  1  0  0  0  0
  4 10  1  0  0  0  0
  5  1  1  0  0  0  0
  5  3  1  0  0  0  0
  6  7  1  0  0  0  0
  8 10  1  0  0  0  0
  9  2  1  0  0  0  0
 10  7  2  0  0  0  0
 11  9  1  0  0  0  0
 12 14  1  1  0  0  0
 12  8  1  0  0  0  0
 14 15  2  0  0  0  0
 15 13  2  0  0  0  0
 16 13  1  0  0  0  0
 18 16  1  0  0  0  0
 18 17  1  1  0  0  0
 19 18  1  0  0  0  0
 20 19  1  0  0  0  0
 21 19  1  0  0  0  0
 23 24  1  0  0  0  0
 24 22  1  0  0  0  0
 24 19  1  0  0  0  0
 25 24  2  0  0  0  0
 26 12  1  0  0  0  0
 27 26  1  0  0  0  0
 27 28  1  0  0  0  0
 29 27  2  0  0  0  0
 30 11  1  0  0  0  0
 31 30  1  0  0  0  0
 32 34  2  0  0  0  0
 33 32  1  0  0  0  0
 35 36  2  0  0  0  0
 36 31  1  0  0  0  0
 36 34  1  0  0  0  0
 37 35  1  0  0  0  0
 37 33  1  0  0  0  0
 38 37  2  0  0  0  0
M  END
>  <MODEL>
7

>  <REMARK>
 VINA RESULT:      -6.4      3.752      9.616
  Name = 
  11 active torsions:
  status: ('A' for Active; 'I' for Inactive)
    1  A    between atoms: C_2  and  O_4
    2  A    between atoms: C_2  and  C_15
    3  A    between atoms: C_2  and  N_20
    4  A    between atoms: O_4  and  C_7
    5  A    between atoms: C_13  and  N_17
    6  A    between atoms: N_17  and  C_33
    7  A    between atoms: N_19  and  C_23
    8  A    between atoms: N_19  and  N_37
    9  A    between atoms: C_21  and  P_29
   10  A    between atoms: C_21  and  C_33
   11  A    between atoms: N_31  and  N_37
                            x       y       z     vdW  Elec       q    Type
                         _______ _______ _______ _____ _____    ______ ____

>  <TORSDO>
F 11

$$$$
=
 OpenBabel11042416243D

 38 40  0  0  1  0  0  0  0  0999 V2000
  189.3790  173.3970  141.5540 C   0  0  0  0  0  2  0  0  0  0  0  0
  187.8240  175.9280  141.2500 C   0  0  0  0  0  0  0  0  0  0  0  0
  188.7810  174.9970  143.4200 C   0  0  0  0  0  3  0  0  0  0  0  0
  188.2220  175.9470  142.6600 C   0  0  0  0  0  0  0  0  0  0  0  0
  189.0240  173.5700  143.0200 C   0  0  0  0  0  2  0  0  0  0  0  0
  187.3410  177.0840  140.9270 N   0  0  0  0  0  0  0  0  0  0  0  0
  187.3310  177.9250  142.0490 N   0  0  0  0  0  0  0  0  0  0  0  0
  187.9770  177.9030  144.3450 N   0  0  0  0  0  2  0  0  0  0  0  0
  188.2030  174.9170  140.2130 C   0  0  0  0  0  2  0  0  0  0  0  0
  187.8470  177.3010  143.0530 C   0  0  0  0  0  0  0  0  0  0  0  0
  188.1770  173.5660  140.7530 N   0  0  0  0  0  0  0  0  0  0  0  0
  188.4460  177.1940  145.5270 C   0  0  1  0  0  3  0  0  0  0  0  0
  191.3320  176.0800  147.4120 C   0  0  0  0  0  3  0  0  0  0  0  0
  189.8910  177.5030  145.7680 C   0  0  0  0  0  3  0  0  0  0  0  0
  190.6140  176.7920  146.5910 C   0  0  0  0  0  0  0  0  0  0  0  0
  192.6300  175.6340  147.0220 N   0  0  0  0  0  2  0  0  0  0  0  0
  192.8070  173.8620  145.4970 O   0  0  0  0  0  1  0  0  0  0  0  0
  192.9460  175.2440  145.6490 C   0  0  2  0  0  3  0  0  0  0  0  0
  194.3350  175.7340  145.1910 C   0  0  0  0  0  0  0  0  0  0  0  0
  195.4460  174.8780  145.7780 C   0  0  0  0  0  1  0  0  0  0  0  0
  194.5480  177.1740  145.6280 C   0  0  0  0  0  1  0  0  0  0  0  0
  193.0790  176.3990  142.6860 O   0  0  0  0  0  0  0  0  0  0  0  0
  195.6830  176.4010  142.9090 O   0  0  0  0  0  1  0  0  0  0  0  0
  194.4440  175.6710  143.3720 P   0  0  0  0  0  0  0  0  0  0  0  0
  194.5250  174.0600  142.8660 O   0  0  0  0  0  1  0  0  0  0  0  0
  187.6580  177.5640  146.6550 O   0  0  0  0  0  0  0  0  0  0  0  0
  186.2910  177.8330  146.5580 C   0  0  0  0  0  0  0  0  0  0  0  0
  185.3610  176.7980  146.2510 N   0  0  0  0  0  1  0  0  0  0  0  0
  185.8760  179.0070  146.7390 O   0  0  0  0  0  0  0  0  0  0  0  0
  188.2940  172.6970  139.6600 N   0  0  0  0  0  2  0  0  0  0  0  0
  189.4340  173.0940  138.9480 N   0  0  0  0  0  2  0  0  0  0  0  0
  189.7780  171.2690  135.6950 C   0  0  0  0  0  3  0  0  0  0  0  0
  189.7920  172.3690  134.6660 C   0  0  0  0  0  2  0  0  0  0  0  0
  189.6660  171.5040  137.0050 C   0  0  0  0  0  3  0  0  0  0  0  0
  189.5480  173.9240  136.7210 C   0  0  0  0  0  3  0  0  0  0  0  0
  189.5460  172.8740  137.5430 C   0  0  0  0  0  0  0  0  0  0  0  0
  189.6670  173.7430  135.2670 C   0  0  0  0  0  0  0  0  0  0  0  0
  189.6640  174.7500  134.5150 O   0  0  0  0  0  0  0  0  0  0  0  0
  1  5  1  0  0  0  0
  2  4  1  0  0  0  0
  4 10  1  0  0  0  0
  4  3  2  0  0  0  0
  5  3  1  0  0  0  0
  6  2  2  0  0  0  0
  6  7  1  0  0  0  0
  7 10  2  0  0  0  0
  8 12  1  0  0  0  0
  9 11  1  0  0  0  0
  9  2  1  0  0  0  0
 10  8  1  0  0  0  0
 11  1  1  0  0  0  0
 12 14  1  1  0  0  0
 12 26  1  0  0  0  0
 14 15  2  0  0  0  0
 15 13  2  0  0  0  0
 16 13  1  0  0  0  0
 18 17  1  1  0  0  0
 18 16  1  0  0  0  0
 19 21  1  0  0  0  0
 19 18  1  0  0  0  0
 19 20  1  0  0  0  0
 22 24  2  0  0  0  0
 23 24  1  0  0  0  0
 24 19  1  0  0  0  0
 25 24  1  0  0  0  0
 27 26  1  0  0  0  0
 27 29  2  0  0  0  0
 28 27  1  0  0  0  0
 30 11  1  0  0  0  0
 31 30  1  0  0  0  0
 32 34  2  0  0  0  0
 33 37  1  0  0  0  0
 33 32  1  0  0  0  0
 34 36  1  0  0  0  0
 35 36  2  0  0  0  0
 36 31  1  0  0  0  0
 37 35  1  0  0  0  0
 38 37  2  0  0  0  0
M  END
>  <MODEL>
8

>  <REMARK>
 VINA RESULT:      -6.4      2.739      7.207
  Name = 
  11 active torsions:
  status: ('A' for Active; 'I' for Inactive)
    1  A    between atoms: C_2  and  O_4
    2  A    between atoms: C_2  and  C_15
    3  A    between atoms: C_2  and  N_20
    4  A    between atoms: O_4  and  C_7
    5  A    between atoms: C_13  and  N_17
    6  A    between atoms: N_17  and  C_33
    7  A    between atoms: N_19  and  C_23
    8  A    between atoms: N_19  and  N_37
    9  A    between atoms: C_21  and  P_29
   10  A    between atoms: C_21  and  C_33
   11  A    between atoms: N_31  and  N_37
                            x       y       z     vdW  Elec       q    Type
                         _______ _______ _______ _____ _____    ______ ____

>  <TORSDO>
F 11

$$$$
=
 OpenBabel11042416243D

 38 40  0  0  1  0  0  0  0  0999 V2000
  189.4510  175.1020  145.3260 C   0  0  0  0  0  2  0  0  0  0  0  0
  192.1650  176.3470  145.3710 C   0  0  0  0  0  0  0  0  0  0  0  0
  191.6340  173.9030  144.8840 C   0  0  0  0  0  3  0  0  0  0  0  0
  192.4320  174.9770  144.9240 C   0  0  0  0  0  0  0  0  0  0  0  0
  190.2420  173.8110  145.4400 C   0  0  0  0  0  2  0  0  0  0  0  0
  193.2290  177.0640  145.2100 N   0  0  0  0  0  0  0  0  0  0  0  0
  194.2680  176.2670  144.7080 N   0  0  0  0  0  0  0  0  0  0  0  0
  194.6620  174.0210  144.0090 N   0  0  0  0  0  2  0  0  0  0  0  0
  190.8310  176.9700  145.6400 C   0  0  0  0  0  2  0  0  0  0  0  0
  193.8300  175.0680  144.5190 C   0  0  0  0  0  0  0  0  0  0  0  0
  189.9390  176.0440  146.3210 N   0  0  0  0  0  0  0  0  0  0  0  0
  194.2380  172.6320  143.8920 C   0  0  1  0  0  3  0  0  0  0  0  0
  192.0730  171.0450  141.4600 C   0  0  0  0  0  3  0  0  0  0  0  0
  194.1710  172.2380  142.4490 C   0  0  0  0  0  3  0  0  0  0  0  0
  193.1220  171.6400  141.9530 C   0  0  0  0  0  0  0  0  0  0  0  0
  191.5140  171.4900  140.2250 N   0  0  0  0  0  2  0  0  0  0  0  0
  189.7530  170.5890  138.9660 O   0  0  0  0  0  1  0  0  0  0  0  0
  190.0740  171.5020  139.9750 C   0  0  2  0  0  3  0  0  0  0  0  0
  189.5310  172.9120  139.6650 C   0  0  0  0  0  0  0  0  0  0  0  0
  188.1930  172.8460  138.9470 C   0  0  0  0  0  1  0  0  0  0  0  0
  190.5160  173.6680  138.7890 C   0  0  0  0  0  1  0  0  0  0  0  0
  188.7630  172.8180  142.4390 O   0  0  0  0  0  1  0  0  0  0  0  0
  190.6380  174.4510  141.6350 O   0  0  0  0  0  1  0  0  0  0  0  0
  189.3180  173.8470  141.2160 P   0  0  0  0  0  0  0  0  0  0  0  0
  188.1890  175.0830  140.9800 O   0  0  0  0  0  0  0  0  0  0  0  0
  195.1440  171.7910  144.6010 O   0  0  0  0  0  0  0  0  0  0  0  0
  196.4530  172.1780  144.8940 C   0  0  0  0  0  0  0  0  0  0  0  0
  197.4440  172.2400  143.8710 N   0  0  0  0  0  1  0  0  0  0  0  0
  196.7640  172.4690  146.0770 O   0  0  0  0  0  0  0  0  0  0  0  0
  188.8340  176.7930  146.7450 N   0  0  0  0  0  2  0  0  0  0  0  0
  187.7780  176.4820  145.8770 N   0  0  0  0  0  2  0  0  0  0  0  0
  184.3580  177.8770  146.5040 C   0  0  0  0  0  3  0  0  0  0  0  0
  184.2650  179.0390  145.5500 C   0  0  0  0  0  2  0  0  0  0  0  0
  185.4420  177.1020  146.5960 C   0  0  0  0  0  3  0  0  0  0  0  0
  186.6630  178.3340  144.8810 C   0  0  0  0  0  3  0  0  0  0  0  0
  186.6380  177.3310  145.7600 C   0  0  0  0  0  0  0  0  0  0  0  0
  185.5080  179.2290  144.7240 C   0  0  0  0  0  0  0  0  0  0  0  0
  185.5600  180.1670  143.8880 O   0  0  0  0  0  0  0  0  0  0  0  0
  1  5  1  0  0  0  0
  1 11  1  0  0  0  0
  2  9  1  0  0  0  0
  3  4  2  0  0  0  0
  3  5  1  0  0  0  0
  4  2  1  0  0  0  0
  6  2  2  0  0  0  0
  7  6  1  0  0  0  0
  8 10  1  0  0  0  0
  9 11  1  0  0  0  0
 10  7  2  0  0  0  0
 10  4  1  0  0  0  0
 11 30  1  0  0  0  0
 12 14  1  6  0  0  0
 12  8  1  0  0  0  0
 12 26  1  0  0  0  0
 13 15  2  0  0  0  0
 15 14  2  0  0  0  0
 16 13  1  0  0  0  0
 18 17  1  6  0  0  0
 18 16  1  0  0  0  0
 19 18  1  0  0  0  0
 19 24  1  0  0  0  0
 20 19  1  0  0  0  0
 21 19  1  0  0  0  0
 24 23  1  0  0  0  0
 24 22  1  0  0  0  0
 25 24  2  0  0  0  0
 26 27  1  0  0  0  0
 27 29  2  0  0  0  0
 28 27  1  0  0  0  0
 31 30  1  0  0  0  0
 32 34  2  0  0  0  0
 33 32  1  0  0  0  0
 35 36  2  0  0  0  0
 36 31  1  0  0  0  0
 36 34  1  0  0  0  0
 37 35  1  0  0  0  0
 37 33  1  0  0  0  0
 38 37  2  0  0  0  0
M  END
>  <MODEL>
9

>  <REMARK>
 VINA RESULT:      -6.3      2.180      7.961
  Name = 
  11 active torsions:
  status: ('A' for Active; 'I' for Inactive)
    1  A    between atoms: C_2  and  O_4
    2  A    between atoms: C_2  and  C_15
    3  A    between atoms: C_2  and  N_20
    4  A    between atoms: O_4  and  C_7
    5  A    between atoms: C_13  and  N_17
    6  A    between atoms: N_17  and  C_33
    7  A    between atoms: N_19  and  C_23
    8  A    between atoms: N_19  and  N_37
    9  A    between atoms: C_21  and  P_29
   10  A    between atoms: C_21  and  C_33
   11  A    between atoms: N_31  and  N_37
                            x       y       z     vdW  Elec       q    Type
                         _______ _______ _______ _____ _____    ______ ____

>  <TORSDO>
F 11

$$$$
