=
 OpenBabel11042414283D

 52 59  0  0  1  0  0  0  0  0999 V2000
  192.4090  173.9030  143.4040 N   0  0  2  0  0  0  0  0  0  0  0  0
  193.5390  171.7520  144.1130 C   0  0  0  0  0  2  0  0  0  0  0  0
  192.3170  172.6710  144.2200 C   0  0  2  0  0  3  0  0  0  0  0  0
  193.6880  174.0430  142.6850 C   0  0  0  0  0  2  0  0  0  0  0  0
  194.9110  173.8320  143.6050 C   0  0  2  0  0  3  0  0  0  0  0  0
  195.8030  172.6380  143.2300 C   0  0  1  0  0  3  0  0  0  0  0  0
  194.8220  172.5320  144.4090 C   0  0  2  0  0  3  0  0  0  0  0  0
  184.8720  177.7090  145.5110 C   0  0  1  0  0  3  0  0  0  0  0  0
  192.2120  175.0880  144.2500 C   0  0  1  0  0  3  0  0  0  0  0  0
  188.8090  176.7380  146.2330 C   0  0  0  0  0  0  0  0  0  0  0  0
  190.4600  175.1180  145.5160 C   0  0  2  0  0  3  0  0  0  0  0  0
  194.1370  175.5410  146.5270 O   0  0  0  0  0  1  0  0  0  0  0  0
  186.6430  177.6350  143.7970 C   0  0  0  0  0  2  0  0  0  0  0  0
  190.7760  175.5830  144.1060 C   0  0  0  0  0  2  0  0  0  0  0  0
  187.6080  177.2120  146.0590 C   0  0  0  0  0  0  0  0  0  0  0  0
  192.7500  175.5840  146.6150 C   0  0  0  0  0  0  0  0  0  0  0  0
  190.7090  176.4850  147.6900 C   0  0  0  0  0  2  0  0  0  0  0  0
  186.6070  177.0210  147.1140 C   0  0  0  0  0  3  0  0  0  0  0  0
  185.3320  177.3070  146.8800 C   0  0  0  0  0  3  0  0  0  0  0  0
  190.0090  176.2520  146.3940 C   0  0  0  0  0  0  0  0  0  0  0  0
  183.6720  178.3900  145.6070 F   0  0  0  0  0  0  0  0  0  0  0  0
  191.9280  174.7010  145.7010 C   0  0  2  0  0  3  0  0  0  0  0  0
  185.8910  178.5580  144.7390 C   0  0  2  0  0  3  0  0  0  0  0  0
  187.3760  178.2320  144.9770 C   0  0  2  0  0  3  0  0  0  0  0  0
  192.1900  176.4050  147.5030 C   0  0  0  0  0  3  0  0  0  0  0  0
  191.0670  171.9040  143.8240 C   0  0  0  0  0  2  0  0  0  0  0  0
  191.3690  170.9640  142.7570 N   0  0  0  0  0  2  0  0  0  0  0  0
  190.4710  171.2560  141.6500 C   0  0  0  0  0  2  0  0  0  0  0  0
  188.3120  174.0480  138.7180 C   0  0  0  0  0  1  0  0  0  0  0  0
  189.2560  172.0870  136.9330 O   0  0  0  0  0  0  0  0  0  0  0  0
  189.9350  174.2630  141.0120 O   0  0  0  0  0  0  0  0  0  0  0  0
  189.4360  173.1680  139.0050 N   0  0  0  0  0  0  0  0  0  0  0  0
  191.0720  171.3940  138.2980 C   0  0  0  0  0  0  0  0  0  0  0  0
  191.6610  171.4310  139.4960 C   0  0  0  0  0  3  0  0  0  0  0  0
  191.1240  172.2170  140.6630 C   0  0  1  0  0  3  0  0  0  0  0  0
  189.8730  172.2100  138.0310 C   0  0  0  0  0  0  0  0  0  0  0  0
  190.1510  173.2850  140.2420 C   0  0  0  0  0  0  0  0  0  0  0  0
  191.6440  170.5160  137.2410 C   0  0  0  0  0  2  0  0  0  0  0  0
  192.0250  169.2960  137.8020 O   0  0  0  0  0  1  0  0  0  0  0  0
  195.3880  171.8930  141.9420 C   0  0  1  0  0  3  0  0  0  0  0  0
  197.7290  171.6440  140.9080 C   0  0  0  0  0  1  0  0  0  0  0  0
  196.2980  172.1490  140.7290 C   0  0  2  0  0  3  0  0  0  0  0  0
  196.2770  173.6380  140.3800 C   0  0  2  0  0  3  0  0  0  0  0  0
  194.4560  174.3980  138.8720 C   0  0  0  0  0  2  0  0  0  0  0  0
  195.8690  173.8480  138.9300 C   0  0  0  0  0  3  0  0  0  0  0  0
  194.7090  172.9260  138.6070 C   0  0  0  0  0  2  0  0  0  0  0  0
  197.5250  174.2250  140.6250 O   0  0  0  0  0  0  0  0  0  0  0  0
  197.2350  175.5220  141.0570 C   0  0  0  0  0  2  0  0  0  0  0  0
  197.8060  175.7450  142.4530 C   0  0  0  0  0  2  0  0  0  0  0  0
  197.0080  176.8210  143.1840 C   0  0  0  0  0  1  0  0  0  0  0  0
  194.6180  169.6970  140.5780 C   0  0  0  0  0  1  0  0  0  0  0  0
  195.2300  170.0950  142.2450 S   0  0  0  0  0  0  0  0  0  0  0  0
  1  4  1  1  0  0  0
  1  3  1  0  0  0  0
  1  9  1  0  0  0  0
  2  3  1  0  0  0  0
  3 26  1  6  0  0  0
  5  4  1  6  0  0  0
  5  7  1  0  0  0  0
  6 40  1  6  0  0  0
  6  5  1  0  0  0  0
  6  7  1  0  0  0  0
  7  2  1  6  0  0  0
  8 21  1  1  0  0  0
  8 19  1  0  0  0  0
  9 14  1  6  0  0  0
  9 22  1  0  0  0  0
 10 20  2  0  0  0  0
 11 14  1  6  0  0  0
 11 22  1  0  0  0  0
 11 20  1  0  0  0  0
 12 16  1  0  0  0  0
 15 10  2  0  0  0  0
 15 18  1  0  0  0  0
 16 25  2  0  0  0  0
 19 18  2  0  0  0  0
 20 17  1  0  0  0  0
 22 16  1  1  0  0  0
 23 13  1  6  0  0  0
 23 24  1  0  0  0  0
 23  8  1  0  0  0  0
 24 13  1  6  0  0  0
 24 15  1  0  0  0  0
 25 17  1  0  0  0  0
 27 26  1  0  0  0  0
 28 27  1  0  0  0  0
 29 32  1  0  0  0  0
 30 36  2  0  0  0  0
 32 37  1  0  0  0  0
 33 34  2  0  0  0  0
 34 35  1  0  0  0  0
 35 28  1  1  0  0  0
 36 33  1  0  0  0  0
 36 32  1  0  0  0  0
 37 35  1  0  0  0  0
 37 31  2  0  0  0  0
 38 39  1  0  0  0  0
 38 33  1  0  0  0  0
 40 52  1  1  0  0  0
 42 41  1  1  0  0  0
 42 40  1  0  0  0  0
 43 47  1  6  0  0  0
 43 42  1  0  0  0  0
 44 45  1  0  0  0  0
 45 43  1  0  0  0  0
 46 44  1  0  0  0  0
 46 45  1  0  0  0  0
 47 48  1  0  0  0  0
 48 49  1  0  0  0  0
 49 50  1  0  0  0  0
 51 52  1  0  0  0  0
M  END
>  <MODEL>
1

>  <REMARK>
 VINA RESULT:      -6.8      0.000      0.000
  Name = 
  14 active torsions:
  status: ('A' for Active; 'I' for Inactive)
    1  A    between atoms: C_2  and  C_19
    2  A    between atoms: N_3  and  C_6
    3  A    between atoms: O_4  and  C_7
    4  A    between atoms: O_4  and  C_19
    5  A    between atoms: C_7  and  C_15
    6  A    between atoms: C_7  and  C_22
    7  A    between atoms: C_8  and  C_34
    8  A    between atoms: C_8  and  N_43
    9  A    between atoms: C_15  and  C_51
   10  A    between atoms: C_24  and  C_28
   11  A    between atoms: C_31  and  C_35
   12  A    between atoms: C_31  and  N_43
   13  A    between atoms: S_41  and  C_51
   14  A    between atoms: C_48  and  C_51
                            x       y       z     vdW  Elec       q    Type
                         _______ _______ _______ _____ _____    ______ ____

>  <TORSDO>
F 14

$$$$
=
 OpenBabel11042414283D

 52 59  0  0  1  0  0  0  0  0999 V2000
  194.0270  174.7090  141.1410 N   0  0  2  0  0  0  0  0  0  0  0  0
  195.9820  173.1130  140.9490 C   0  0  0  0  0  2  0  0  0  0  0  0
  194.7310  173.5430  141.7230 C   0  0  2  0  0  3  0  0  0  0  0  0
  194.6970  175.2740  139.9570 C   0  0  0  0  0  2  0  0  0  0  0  0
  196.2020  175.5310  140.1930 C   0  0  2  0  0  3  0  0  0  0  0  0
  197.1450  174.7210  139.2900 C   0  0  1  0  0  3  0  0  0  0  0  0
  196.9250  174.3020  140.7520 C   0  0  2  0  0  3  0  0  0  0  0  0
  186.9220  176.6490  145.7780 C   0  0  1  0  0  3  0  0  0  0  0  0
  193.8800  175.7670  142.1500 C   0  0  1  0  0  3  0  0  0  0  0  0
  191.0000  176.5110  145.2140 C   0  0  0  0  0  0  0  0  0  0  0  0
  192.6260  175.3360  143.8580 C   0  0  2  0  0  3  0  0  0  0  0  0
  196.2880  176.4820  143.8180 O   0  0  0  0  0  1  0  0  0  0  0  0
  188.0650  177.0690  143.6330 C   0  0  0  0  0  2  0  0  0  0  0  0
  192.4020  175.9470  142.4860 C   0  0  0  0  0  2  0  0  0  0  0  0
  189.7370  176.7240  145.4530 C   0  0  0  0  0  0  0  0  0  0  0  0
  195.0130  176.2180  144.3040 C   0  0  0  0  0  0  0  0  0  0  0  0
  193.2680  176.5850  146.0230 C   0  0  0  0  0  2  0  0  0  0  0  0
  189.1610  176.2540  146.7170 C   0  0  0  0  0  3  0  0  0  0  0  0
  187.8460  176.2710  146.8960 C   0  0  0  0  0  3  0  0  0  0  0  0
  192.2610  176.2880  144.9630 C   0  0  0  0  0  0  0  0  0  0  0  0
  185.7040  177.0460  146.2980 F   0  0  0  0  0  0  0  0  0  0  0  0
  194.1310  175.2370  143.5610 C   0  0  2  0  0  3  0  0  0  0  0  0
  187.4780  177.7460  144.8590 C   0  0  2  0  0  3  0  0  0  0  0  0
  188.9980  177.7350  144.6190 C   0  0  2  0  0  3  0  0  0  0  0  0
  194.6070  176.8410  145.4110 C   0  0  0  0  0  3  0  0  0  0  0  0
  193.7640  172.3750  141.8180 C   0  0  0  0  0  2  0  0  0  0  0  0
  192.5880  172.6240  141.0000 N   0  0  0  0  0  2  0  0  0  0  0  0
  192.1170  171.3380  140.5080 C   0  0  0  0  0  2  0  0  0  0  0  0
  188.8390  173.7590  138.4000 C   0  0  0  0  0  1  0  0  0  0  0  0
  188.7490  174.9250  140.9600 O   0  0  0  0  0  0  0  0  0  0  0  0
  189.7580  171.0960  138.4800 O   0  0  0  0  0  0  0  0  0  0  0  0
  189.3250  173.1010  139.6050 N   0  0  0  0  0  0  0  0  0  0  0  0
  189.6280  173.0370  142.1000 C   0  0  0  0  0  0  0  0  0  0  0  0
  190.2320  171.8490  142.0160 C   0  0  0  0  0  3  0  0  0  0  0  0
  190.6120  171.2000  140.7120 C   0  0  1  0  0  3  0  0  0  0  0  0
  189.2200  173.7540  140.8780 C   0  0  0  0  0  0  0  0  0  0  0  0
  189.8650  171.7750  139.5390 C   0  0  0  0  0  0  0  0  0  0  0  0
  189.3740  173.6220  143.4450 C   0  0  0  0  0  2  0  0  0  0  0  0
  190.1020  172.9180  144.4050 O   0  0  0  0  0  1  0  0  0  0  0  0
  196.4400  173.8470  138.2280 C   0  0  1  0  0  3  0  0  0  0  0  0
  197.1920  175.7600  136.6840 C   0  0  0  0  0  1  0  0  0  0  0  0
  196.4320  174.4410  136.8100 C   0  0  2  0  0  3  0  0  0  0  0  0
  194.9890  174.5850  136.3240 C   0  0  2  0  0  3  0  0  0  0  0  0
  194.1730  172.8130  134.7870 C   0  0  0  0  0  2  0  0  0  0  0  0
  194.8620  174.1630  134.8690 C   0  0  0  0  0  3  0  0  0  0  0  0
  195.6800  172.9040  134.6490 C   0  0  0  0  0  2  0  0  0  0  0  0
  194.5360  175.9010  136.4910 O   0  0  0  0  0  0  0  0  0  0  0  0
  193.1420  175.8030  136.5130 C   0  0  0  0  0  2  0  0  0  0  0  0
  192.5330  176.8490  135.5860 C   0  0  0  0  0  2  0  0  0  0  0  0
  193.6300  177.7260  134.9890 C   0  0  0  0  0  1  0  0  0  0  0  0
  195.5330  171.3160  138.0110 C   0  0  0  0  0  1  0  0  0  0  0  0
  197.1370  172.1550  138.2020 S   0  0  0  0  0  0  0  0  0  0  0  0
  1  4  1  6  0  0  0
  1  3  1  0  0  0  0
  1  9  1  0  0  0  0
  2  3  1  0  0  0  0
  3 26  1  6  0  0  0
  5  4  1  6  0  0  0
  5  7  1  0  0  0  0
  6 40  1  6  0  0  0
  6  5  1  0  0  0  0
  6  7  1  0  0  0  0
  7  2  1  6  0  0  0
  8 21  1  1  0  0  0
  8 19  1  0  0  0  0
  9 14  1  1  0  0  0
  9 22  1  0  0  0  0
 10 15  2  0  0  0  0
 11 14  1  6  0  0  0
 11 20  1  0  0  0  0
 12 16  1  0  0  0  0
 15 18  1  0  0  0  0
 16 25  2  0  0  0  0
 18 19  2  0  0  0  0
 20 10  2  0  0  0  0
 20 17  1  0  0  0  0
 22 11  1  0  0  0  0
 22 16  1  1  0  0  0
 23 13  1  6  0  0  0
 23  8  1  0  0  0  0
 24 13  1  6  0  0  0
 24 23  1  0  0  0  0
 24 15  1  0  0  0  0
 25 17  1  0  0  0  0
 27 26  1  0  0  0  0
 28 27  1  0  0  0  0
 29 32  1  0  0  0  0
 31 37  2  0  0  0  0
 32 36  1  0  0  0  0
 33 38  1  0  0  0  0
 34 33  2  0  0  0  0
 35 28  1  6  0  0  0
 35 34  1  0  0  0  0
 36 30  2  0  0  0  0
 36 33  1  0  0  0  0
 37 32  1  0  0  0  0
 37 35  1  0  0  0  0
 38 39  1  0  0  0  0
 40 52  1  6  0  0  0
 42 41  1  1  0  0  0
 42 40  1  0  0  0  0
 43 47  1  6  0  0  0
 43 42  1  0  0  0  0
 44 45  1  0  0  0  0
 45 43  1  0  0  0  0
 46 44  1  0  0  0  0
 46 45  1  0  0  0  0
 47 48  1  0  0  0  0
 49 48  1  0  0  0  0
 50 49  1  0  0  0  0
 51 52  1  0  0  0  0
M  END
>  <MODEL>
2

>  <REMARK>
 VINA RESULT:      -6.7      2.424      4.065
  Name = 
  14 active torsions:
  status: ('A' for Active; 'I' for Inactive)
    1  A    between atoms: C_2  and  C_19
    2  A    between atoms: N_3  and  C_6
    3  A    between atoms: O_4  and  C_7
    4  A    between atoms: O_4  and  C_19
    5  A    between atoms: C_7  and  C_15
    6  A    between atoms: C_7  and  C_22
    7  A    between atoms: C_8  and  C_34
    8  A    between atoms: C_8  and  N_43
    9  A    between atoms: C_15  and  C_51
   10  A    between atoms: C_24  and  C_28
   11  A    between atoms: C_31  and  C_35
   12  A    between atoms: C_31  and  N_43
   13  A    between atoms: S_41  and  C_51
   14  A    between atoms: C_48  and  C_51
                            x       y       z     vdW  Elec       q    Type
                         _______ _______ _______ _____ _____    ______ ____

>  <TORSDO>
F 14

$$$$
=
 OpenBabel11042414283D

 52 59  0  0  1  0  0  0  0  0999 V2000
  193.5390  174.4480  143.3770 N   0  0  2  0  0  0  0  0  0  0  0  0
  195.5690  173.0150  143.8550 C   0  0  0  0  0  2  0  0  0  0  0  0
  194.1280  173.3860  144.2230 C   0  0  2  0  0  3  0  0  0  0  0  0
  194.4710  174.9930  142.3750 C   0  0  0  0  0  2  0  0  0  0  0  0
  195.8320  175.3910  142.9860 C   0  0  2  0  0  3  0  0  0  0  0  0
  197.0390  174.6080  142.4420 C   0  0  1  0  0  3  0  0  0  0  0  0
  196.4510  174.2660  143.8210 C   0  0  2  0  0  3  0  0  0  0  0  0
  185.3690  177.3700  144.0540 C   0  0  1  0  0  3  0  0  0  0  0  0
  193.0510  175.5520  144.2150 C   0  0  1  0  0  3  0  0  0  0  0  0
  189.1630  176.7360  145.5260 C   0  0  0  0  0  0  0  0  0  0  0  0
  191.0880  175.3310  145.0940 C   0  0  2  0  0  3  0  0  0  0  0  0
  194.4220  176.0390  146.8570 O   0  0  0  0  0  1  0  0  0  0  0  0
  187.4450  177.5770  142.7390 C   0  0  0  0  0  2  0  0  0  0  0  0
  191.6280  175.9150  143.8010 C   0  0  0  0  0  2  0  0  0  0  0  0
  187.9770  177.1030  145.1300 C   0  0  0  0  0  0  0  0  0  0  0  0
  193.0490  175.9430  146.6600 C   0  0  0  0  0  0  0  0  0  0  0  0
  190.7490  176.5730  147.3310 C   0  0  0  0  0  2  0  0  0  0  0  0
  186.8120  176.7490  145.9480 C   0  0  0  0  0  3  0  0  0  0  0  0
  185.5860  176.9260  145.4690 C   0  0  0  0  0  3  0  0  0  0  0  0
  190.3510  176.3580  145.9090 C   0  0  0  0  0  0  0  0  0  0  0  0
  184.1080  177.9250  143.9310 F   0  0  0  0  0  0  0  0  0  0  0  0
  192.5250  175.0470  145.5590 C   0  0  2  0  0  3  0  0  0  0  0  0
  186.4250  178.3610  143.5460 C   0  0  2  0  0  3  0  0  0  0  0  0
  187.8590  178.1630  144.0700 C   0  0  2  0  0  3  0  0  0  0  0  0
  192.2370  176.6480  147.4480 C   0  0  0  0  0  3  0  0  0  0  0  0
  193.2510  172.1470  144.1510 C   0  0  0  0  0  2  0  0  0  0  0  0
  192.1560  172.3580  143.2180 N   0  0  0  0  0  2  0  0  0  0  0  0
  190.9350  171.9010  143.8660 C   0  0  0  0  0  2  0  0  0  0  0  0
  191.5680  170.8240  139.4520 C   0  0  0  0  0  1  0  0  0  0  0  0
  190.6720  173.4790  139.1910 O   0  0  0  0  0  0  0  0  0  0  0  0
  190.5850  169.5970  141.7900 O   0  0  0  0  0  0  0  0  0  0  0  0
  190.7880  171.5160  140.4670 N   0  0  0  0  0  0  0  0  0  0  0  0
  189.4780  173.5160  141.2430 C   0  0  0  0  0  0  0  0  0  0  0  0
  189.2240  172.9220  142.4120 C   0  0  0  0  0  3  0  0  0  0  0  0
  189.8480  171.6190  142.8350 C   0  0  1  0  0  3  0  0  0  0  0  0
  190.3470  172.8630  140.2470 C   0  0  0  0  0  0  0  0  0  0  0  0
  190.4080  170.8420  141.6740 C   0  0  0  0  0  0  0  0  0  0  0  0
  188.8690  174.8470  140.9640 C   0  0  0  0  0  2  0  0  0  0  0  0
  188.0760  174.7660  139.8190 O   0  0  0  0  0  1  0  0  0  0  0  0
  196.7110  173.6120  141.3070 C   0  0  1  0  0  3  0  0  0  0  0  0
  197.6320  175.5240  139.8550 C   0  0  0  0  0  1  0  0  0  0  0  0
  197.1040  174.0910  139.8990 C   0  0  2  0  0  3  0  0  0  0  0  0
  195.9210  173.9080  138.9480 C   0  0  2  0  0  3  0  0  0  0  0  0
  195.9250  171.9630  137.4030 C   0  0  0  0  0  2  0  0  0  0  0  0
  196.3890  173.3950  137.5940 C   0  0  0  0  0  3  0  0  0  0  0  0
  197.3570  172.2480  137.8110 C   0  0  0  0  0  2  0  0  0  0  0  0
  195.2120  175.1070  138.7970 O   0  0  0  0  0  0  0  0  0  0  0  0
  193.8760  174.7210  138.6550 C   0  0  0  0  0  2  0  0  0  0  0  0
  193.3270  175.2290  137.3260 C   0  0  0  0  0  2  0  0  0  0  0  0
  192.9270  174.0550  136.4380 C   0  0  0  0  0  1  0  0  0  0  0  0
  196.0100  171.0210  141.0430 C   0  0  0  0  0  1  0  0  0  0  0  0
  197.4430  171.9680  141.6430 S   0  0  0  0  0  0  0  0  0  0  0  0
  1  4  1  6  0  0  0
  1  9  1  0  0  0  0
  1  3  1  0  0  0  0
  2  3  1  0  0  0  0
  3 26  1  6  0  0  0
  5  4  1  6  0  0  0
  5  7  1  0  0  0  0
  6 40  1  6  0  0  0
  6  5  1  0  0  0  0
  6  7  1  0  0  0  0
  7  2  1  6  0  0  0
  8 21  1  1  0  0  0
  8 19  1  0  0  0  0
  9 14  1  6  0  0  0
  9 22  1  0  0  0  0
 10 20  2  0  0  0  0
 11 14  1  6  0  0  0
 11 22  1  0  0  0  0
 11 20  1  0  0  0  0
 15 10  2  0  0  0  0
 15 18  1  0  0  0  0
 16 12  1  0  0  0  0
 16 25  2  0  0  0  0
 17 25  1  0  0  0  0
 19 18  2  0  0  0  0
 20 17  1  0  0  0  0
 22 16  1  1  0  0  0
 23 13  1  6  0  0  0
 23  8  1  0  0  0  0
 23 24  1  0  0  0  0
 24 13  1  6  0  0  0
 24 15  1  0  0  0  0
 27 28  1  0  0  0  0
 27 26  1  0  0  0  0
 29 32  1  0  0  0  0
 30 36  2  0  0  0  0
 32 37  1  0  0  0  0
 33 34  2  0  0  0  0
 34 35  1  0  0  0  0
 35 28  1  1  0  0  0
 36 32  1  0  0  0  0
 36 33  1  0  0  0  0
 37 31  2  0  0  0  0
 37 35  1  0  0  0  0
 38 33  1  0  0  0  0
 39 38  1  0  0  0  0
 40 52  1  1  0  0  0
 42 41  1  1  0  0  0
 42 40  1  0  0  0  0
 43 47  1  6  0  0  0
 43 42  1  0  0  0  0
 44 45  1  0  0  0  0
 44 46  1  0  0  0  0
 45 46  1  0  0  0  0
 45 43  1  0  0  0  0
 48 47  1  0  0  0  0
 49 48  1  0  0  0  0
 50 49  1  0  0  0  0
 51 52  1  0  0  0  0
M  END
>  <MODEL>
3

>  <REMARK>
 VINA RESULT:      -6.7      1.569      3.005
  Name = 
  14 active torsions:
  status: ('A' for Active; 'I' for Inactive)
    1  A    between atoms: C_2  and  C_19
    2  A    between atoms: N_3  and  C_6
    3  A    between atoms: O_4  and  C_7
    4  A    between atoms: O_4  and  C_19
    5  A    between atoms: C_7  and  C_15
    6  A    between atoms: C_7  and  C_22
    7  A    between atoms: C_8  and  C_34
    8  A    between atoms: C_8  and  N_43
    9  A    between atoms: C_15  and  C_51
   10  A    between atoms: C_24  and  C_28
   11  A    between atoms: C_31  and  C_35
   12  A    between atoms: C_31  and  N_43
   13  A    between atoms: S_41  and  C_51
   14  A    between atoms: C_48  and  C_51
                            x       y       z     vdW  Elec       q    Type
                         _______ _______ _______ _____ _____    ______ ____

>  <TORSDO>
F 14

$$$$
=
 OpenBabel11042414283D

 52 59  0  0  1  0  0  0  0  0999 V2000
  192.1020  174.3290  143.7470 N   0  0  2  0  0  0  0  0  0  0  0  0
  193.0710  172.2700  144.8540 C   0  0  0  0  0  2  0  0  0  0  0  0
  191.8530  173.1730  144.6380 C   0  0  2  0  0  3  0  0  0  0  0  0
  193.4960  174.4260  143.2800 C   0  0  0  0  0  2  0  0  0  0  0  0
  194.5170  174.3200  144.4340 C   0  0  2  0  0  3  0  0  0  0  0  0
  195.4650  173.1120  144.3500 C   0  0  1  0  0  3  0  0  0  0  0  0
  194.2730  173.0950  145.3200 C   0  0  2  0  0  3  0  0  0  0  0  0
  184.3760  178.3330  143.7480 C   0  0  1  0  0  3  0  0  0  0  0  0
  191.7450  175.5810  144.4270 C   0  0  1  0  0  3  0  0  0  0  0  0
  188.0170  177.4060  145.4330 C   0  0  0  0  0  0  0  0  0  0  0  0
  189.7500  175.7240  145.2480 C   0  0  2  0  0  3  0  0  0  0  0  0
  193.1060  176.2120  147.0430 O   0  0  0  0  0  1  0  0  0  0  0  0
  186.4910  178.1090  142.5000 C   0  0  0  0  0  2  0  0  0  0  0  0
  190.3920  176.0690  143.9160 C   0  0  0  0  0  2  0  0  0  0  0  0
  186.9000  177.8700  144.9500 C   0  0  0  0  0  0  0  0  0  0  0  0
  191.7380  176.2690  146.8050 C   0  0  0  0  0  0  0  0  0  0  0  0
  189.5260  177.2660  147.3050 C   0  0  0  0  0  2  0  0  0  0  0  0
  185.6790  177.7720  145.7580 C   0  0  0  0  0  3  0  0  0  0  0  0
  184.4990  178.0440  145.2140 C   0  0  0  0  0  3  0  0  0  0  0  0
  189.1370  176.9300  145.9050 C   0  0  0  0  0  0  0  0  0  0  0  0
  183.2020  179.0250  143.5110 F   0  0  0  0  0  0  0  0  0  0  0  0
  191.1260  175.3180  145.8000 C   0  0  2  0  0  3  0  0  0  0  0  0
  185.5650  179.1100  143.1670 C   0  0  2  0  0  3  0  0  0  0  0  0
  186.9480  178.7970  143.7670 C   0  0  2  0  0  3  0  0  0  0  0  0
  191.0080  177.1640  147.4710 C   0  0  0  0  0  3  0  0  0  0  0  0
  190.7040  172.3520  144.0780 C   0  0  0  0  0  2  0  0  0  0  0  0
  191.2050  171.3420  143.1600 N   0  0  0  0  0  2  0  0  0  0  0  0
  190.4100  171.4250  141.9430 C   0  0  0  0  0  2  0  0  0  0  0  0
  188.3280  173.9790  138.7510 C   0  0  0  0  0  1  0  0  0  0  0  0
  189.3570  171.9130  137.1410 O   0  0  0  0  0  0  0  0  0  0  0  0
  189.8650  174.3740  141.0790 O   0  0  0  0  0  0  0  0  0  0  0  0
  189.4510  173.1370  139.1370 N   0  0  0  0  0  0  0  0  0  0  0  0
  191.1290  171.3400  138.6130 C   0  0  0  0  0  0  0  0  0  0  0  0
  191.6750  171.4680  139.8250 C   0  0  0  0  0  3  0  0  0  0  0  0
  191.0880  172.3250  140.9150 C   0  0  1  0  0  3  0  0  0  0  0  0
  189.9320  172.1200  138.2480 C   0  0  0  0  0  0  0  0  0  0  0  0
  190.1190  173.3490  140.3870 C   0  0  0  0  0  0  0  0  0  0  0  0
  191.7490  170.3990  137.6400 C   0  0  0  0  0  2  0  0  0  0  0  0
  192.6200  171.0990  136.8040 O   0  0  0  0  0  1  0  0  0  0  0  0
  195.3080  172.2480  143.0780 C   0  0  1  0  0  3  0  0  0  0  0  0
  197.5080  173.4150  142.4390 C   0  0  0  0  0  1  0  0  0  0  0  0
  196.3640  172.5070  141.9910 C   0  0  2  0  0  3  0  0  0  0  0  0
  195.6830  173.0540  140.7360 C   0  0  2  0  0  3  0  0  0  0  0  0
  195.4680  171.3830  138.9110 C   0  0  0  0  0  2  0  0  0  0  0  0
  196.3320  172.4930  139.4800 C   0  0  0  0  0  3  0  0  0  0  0  0
  196.7030  171.0430  139.7230 C   0  0  0  0  0  2  0  0  0  0  0  0
  195.7190  174.4550  140.7200 O   0  0  0  0  0  0  0  0  0  0  0  0
  195.1680  174.8150  139.4870 C   0  0  0  0  0  2  0  0  0  0  0  0
  193.6480  174.7000  139.5450 C   0  0  0  0  0  2  0  0  0  0  0  0
  193.0810  174.5120  138.1410 C   0  0  0  0  0  1  0  0  0  0  0  0
  194.1690  170.0030  142.1120 C   0  0  0  0  0  1  0  0  0  0  0  0
  195.2540  170.4670  143.4970 S   0  0  0  0  0  0  0  0  0  0  0  0
  1  4  1  1  0  0  0
  1  9  1  0  0  0  0
  1  3  1  0  0  0  0
  3 26  1  6  0  0  0
  3  2  1  0  0  0  0
  5  4  1  6  0  0  0
  5  7  1  0  0  0  0
  6 40  1  6  0  0  0
  6  5  1  0  0  0  0
  6  7  1  0  0  0  0
  7  2  1  6  0  0  0
  8 21  1  1  0  0  0
  8 19  1  0  0  0  0
  9 14  1  6  0  0  0
  9 22  1  0  0  0  0
 10 20  2  0  0  0  0
 11 14  1  6  0  0  0
 11 22  1  0  0  0  0
 11 20  1  0  0  0  0
 15 10  2  0  0  0  0
 15 18  1  0  0  0  0
 16 12  1  0  0  0  0
 16 25  2  0  0  0  0
 17 25  1  0  0  0  0
 19 18  2  0  0  0  0
 20 17  1  0  0  0  0
 22 16  1  1  0  0  0
 23 13  1  6  0  0  0
 23  8  1  0  0  0  0
 23 24  1  0  0  0  0
 24 13  1  6  0  0  0
 24 15  1  0  0  0  0
 27 26  1  0  0  0  0
 28 27  1  0  0  0  0
 29 32  1  0  0  0  0
 30 36  2  0  0  0  0
 32 37  1  0  0  0  0
 33 34  2  0  0  0  0
 34 35  1  0  0  0  0
 35 28  1  1  0  0  0
 36 33  1  0  0  0  0
 36 32  1  0  0  0  0
 37 35  1  0  0  0  0
 37 31  2  0  0  0  0
 38 33  1  0  0  0  0
 39 38  1  0  0  0  0
 40 52  1  1  0  0  0
 42 41  1  1  0  0  0
 42 40  1  0  0  0  0
 43 47  1  6  0  0  0
 43 42  1  0  0  0  0
 44 45  1  0  0  0  0
 44 46  1  0  0  0  0
 45 46  1  0  0  0  0
 45 43  1  0  0  0  0
 48 49  1  0  0  0  0
 48 47  1  0  0  0  0
 50 49  1  0  0  0  0
 51 52  1  0  0  0  0
M  END
>  <MODEL>
4

>  <REMARK>
 VINA RESULT:      -6.7      1.225      1.808
  Name = 
  14 active torsions:
  status: ('A' for Active; 'I' for Inactive)
    1  A    between atoms: C_2  and  C_19
    2  A    between atoms: N_3  and  C_6
    3  A    between atoms: O_4  and  C_7
    4  A    between atoms: O_4  and  C_19
    5  A    between atoms: C_7  and  C_15
    6  A    between atoms: C_7  and  C_22
    7  A    between atoms: C_8  and  C_34
    8  A    between atoms: C_8  and  N_43
    9  A    between atoms: C_15  and  C_51
   10  A    between atoms: C_24  and  C_28
   11  A    between atoms: C_31  and  C_35
   12  A    between atoms: C_31  and  N_43
   13  A    between atoms: S_41  and  C_51
   14  A    between atoms: C_48  and  C_51
                            x       y       z     vdW  Elec       q    Type
                         _______ _______ _______ _____ _____    ______ ____

>  <TORSDO>
F 14

$$$$
=
 OpenBabel11042414283D

 52 59  0  0  1  0  0  0  0  0999 V2000
  193.8720  174.1490  142.1280 N   0  0  2  0  0  0  0  0  0  0  0  0
  195.9130  173.7990  140.6740 C   0  0  0  0  0  2  0  0  0  0  0  0
  195.3050  173.7820  142.0810 C   0  0  2  0  0  3  0  0  0  0  0  0
  193.3120  174.5210  140.8170 C   0  0  0  0  0  2  0  0  0  0  0  0
  194.1800  175.5620  140.0750 C   0  0  2  0  0  3  0  0  0  0  0  0
  194.7680  175.0790  138.7390 C   0  0  1  0  0  3  0  0  0  0  0  0
  195.6520  175.1460  139.9950 C   0  0  2  0  0  3  0  0  0  0  0  0
  186.3540  176.8000  145.6210 C   0  0  1  0  0  3  0  0  0  0  0  0
  193.6640  175.2640  143.0620 C   0  0  1  0  0  3  0  0  0  0  0  0
  190.4490  176.3550  145.6520 C   0  0  0  0  0  0  0  0  0  0  0  0
  192.1560  175.0060  144.5900 C   0  0  2  0  0  3  0  0  0  0  0  0
  195.8630  175.8940  145.0280 O   0  0  0  0  0  1  0  0  0  0  0  0
  187.8130  177.0340  143.6470 C   0  0  0  0  0  2  0  0  0  0  0  0
  192.1720  175.5610  143.1760 C   0  0  0  0  0  2  0  0  0  0  0  0
  189.1840  176.6650  145.6990 C   0  0  0  0  0  0  0  0  0  0  0  0
  194.5160  175.7430  145.3370 C   0  0  0  0  0  0  0  0  0  0  0  0
  192.5800  176.3140  146.7730 C   0  0  0  0  0  2  0  0  0  0  0  0
  188.4040  176.3000  146.8860 C   0  0  0  0  0  3  0  0  0  0  0  0
  187.0820  176.4160  146.8740 C   0  0  0  0  0  3  0  0  0  0  0  0
  191.7120  176.0340  145.5920 C   0  0  0  0  0  0  0  0  0  0  0  0
  185.1090  177.3050  145.9460 F   0  0  0  0  0  0  0  0  0  0  0  0
  193.6760  174.7890  144.5150 C   0  0  2  0  0  3  0  0  0  0  0  0
  187.1130  177.8090  144.7480 C   0  0  2  0  0  3  0  0  0  0  0  0
  188.6470  177.6820  144.7290 C   0  0  2  0  0  3  0  0  0  0  0  0
  194.0070  176.4460  146.3480 C   0  0  0  0  0  3  0  0  0  0  0  0
  195.4870  172.4040  142.6960 C   0  0  0  0  0  2  0  0  0  0  0  0
  194.2320  171.6710  142.6710 N   0  0  0  0  0  2  0  0  0  0  0  0
  194.0170  171.1270  144.0040 C   0  0  0  0  0  2  0  0  0  0  0  0
  192.0640  168.6540  140.6700 C   0  0  0  0  0  1  0  0  0  0  0  0
  190.4290  170.9440  140.6110 O   0  0  0  0  0  0  0  0  0  0  0  0
  193.1940  168.2220  143.2140 O   0  0  0  0  0  0  0  0  0  0  0  0
  191.9190  169.5710  141.7910 N   0  0  0  0  0  0  0  0  0  0  0  0
  190.8350  171.5690  142.8660 C   0  0  0  0  0  0  0  0  0  0  0  0
  191.5640  171.3950  143.9710 C   0  0  0  0  0  3  0  0  0  0  0  0
  192.6830  170.3930  144.0800 C   0  0  1  0  0  3  0  0  0  0  0  0
  191.0450  170.7040  141.6900 C   0  0  0  0  0  0  0  0  0  0  0  0
  192.6060  169.3240  143.0240 C   0  0  0  0  0  0  0  0  0  0  0  0
  189.8090  172.6480  142.8420 C   0  0  0  0  0  2  0  0  0  0  0  0
  189.4720  173.0000  144.1500 O   0  0  0  0  0  1  0  0  0  0  0  0
  194.3240  173.6630  138.3060 C   0  0  1  0  0  3  0  0  0  0  0  0
  192.7690  175.0150  136.7680 C   0  0  0  0  0  1  0  0  0  0  0  0
  193.1790  173.6350  137.2800 C   0  0  2  0  0  3  0  0  0  0  0  0
  191.9830  172.8870  137.8700 C   0  0  2  0  0  3  0  0  0  0  0  0
  191.8790  170.4520  137.3900 C   0  0  0  0  0  2  0  0  0  0  0  0
  191.4740  171.8300  136.9010 C   0  0  0  0  0  3  0  0  0  0  0  0
  192.6610  171.1230  136.2770 C   0  0  0  0  0  2  0  0  0  0  0  0
  190.9530  173.7770  138.2050 O   0  0  0  0  0  0  0  0  0  0  0  0
  189.8340  173.3120  137.5100 C   0  0  0  0  0  2  0  0  0  0  0  0
  188.5600  173.7400  138.2300 C   0  0  0  0  0  2  0  0  0  0  0  0
  188.8810  174.1590  139.6620 C   0  0  0  0  0  1  0  0  0  0  0  0
  196.3130  173.9470  136.5070 C   0  0  0  0  0  1  0  0  0  0  0  0
  195.7470  172.6880  137.6930 S   0  0  0  0  0  0  0  0  0  0  0  0
  1  4  1  6  0  0  0
  1  9  1  0  0  0  0
  2  3  1  0  0  0  0
  3  1  1  0  0  0  0
  3 26  1  6  0  0  0
  5  4  1  1  0  0  0
  6 40  1  1  0  0  0
  6  7  1  0  0  0  0
  6  5  1  0  0  0  0
  7  5  1  0  0  0  0
  7  2  1  1  0  0  0
  8 21  1  1  0  0  0
  8 19  1  0  0  0  0
  9 14  1  6  0  0  0
  9 22  1  0  0  0  0
 10 15  2  0  0  0  0
 11 14  1  6  0  0  0
 11 20  1  0  0  0  0
 12 16  1  0  0  0  0
 15 18  1  0  0  0  0
 16 25  2  0  0  0  0
 19 18  2  0  0  0  0
 20 10  2  0  0  0  0
 20 17  1  0  0  0  0
 22 11  1  0  0  0  0
 22 16  1  1  0  0  0
 23 13  1  6  0  0  0
 23  8  1  0  0  0  0
 24 13  1  6  0  0  0
 24 23  1  0  0  0  0
 24 15  1  0  0  0  0
 25 17  1  0  0  0  0
 27 26  1  0  0  0  0
 27 28  1  0  0  0  0
 29 32  1  0  0  0  0
 30 36  2  0  0  0  0
 32 37  1  0  0  0  0
 33 34  2  0  0  0  0
 34 35  1  0  0  0  0
 35 28  1  6  0  0  0
 36 32  1  0  0  0  0
 36 33  1  0  0  0  0
 37 31  2  0  0  0  0
 37 35  1  0  0  0  0
 38 33  1  0  0  0  0
 38 39  1  0  0  0  0
 40 52  1  6  0  0  0
 42 41  1  1  0  0  0
 42 43  1  0  0  0  0
 42 40  1  0  0  0  0
 43 47  1  6  0  0  0
 45 44  1  0  0  0  0
 45 43  1  0  0  0  0
 46 45  1  0  0  0  0
 46 44  1  0  0  0  0
 48 47  1  0  0  0  0
 48 49  1  0  0  0  0
 49 50  1  0  0  0  0
 51 52  1  0  0  0  0
M  END
>  <MODEL>
5

>  <REMARK>
 VINA RESULT:      -6.4      2.081      4.675
  Name = 
  14 active torsions:
  status: ('A' for Active; 'I' for Inactive)
    1  A    between atoms: C_2  and  C_19
    2  A    between atoms: N_3  and  C_6
    3  A    between atoms: O_4  and  C_7
    4  A    between atoms: O_4  and  C_19
    5  A    between atoms: C_7  and  C_15
    6  A    between atoms: C_7  and  C_22
    7  A    between atoms: C_8  and  C_34
    8  A    between atoms: C_8  and  N_43
    9  A    between atoms: C_15  and  C_51
   10  A    between atoms: C_24  and  C_28
   11  A    between atoms: C_31  and  C_35
   12  A    between atoms: C_31  and  N_43
   13  A    between atoms: S_41  and  C_51
   14  A    between atoms: C_48  and  C_51
                            x       y       z     vdW  Elec       q    Type
                         _______ _______ _______ _____ _____    ______ ____

>  <TORSDO>
F 14

$$$$
=
 OpenBabel11042414283D

 52 59  0  0  1  0  0  0  0  0999 V2000
  192.3780  171.5880  141.2610 N   0  0  2  0  0  0  0  0  0  0  0  0
  193.8180  169.6500  140.5010 C   0  0  0  0  0  2  0  0  0  0  0  0
  193.0510  170.9220  140.1230 C   0  0  2  0  0  3  0  0  0  0  0  0
  192.5220  170.8670  142.5380 C   0  0  0  0  0  2  0  0  0  0  0  0
  192.1680  169.3690  142.4170 C   0  0  2  0  0  3  0  0  0  0  0  0
  193.3270  168.4040  142.7150 C   0  0  1  0  0  3  0  0  0  0  0  0
  192.9070  168.6840  141.2630 C   0  0  2  0  0  3  0  0  0  0  0  0
  187.2530  178.2080  143.6360 C   0  0  1  0  0  3  0  0  0  0  0  0
  190.9470  171.7570  140.9740 C   0  0  1  0  0  3  0  0  0  0  0  0
  188.3050  175.1090  141.1360 C   0  0  0  0  0  0  0  0  0  0  0  0
  190.2470  173.7670  140.5940 C   0  0  2  0  0  3  0  0  0  0  0  0
  189.8800  170.6560  138.3770 O   0  0  0  0  0  1  0  0  0  0  0  0
  188.1650  176.0420  144.3820 C   0  0  0  0  0  2  0  0  0  0  0  0
  190.3880  172.8930  141.8270 C   0  0  0  0  0  2  0  0  0  0  0  0
  187.8030  176.0260  141.9130 C   0  0  0  0  0  0  0  0  0  0  0  0
  189.6540  171.9360  138.8700 C   0  0  0  0  0  0  0  0  0  0  0  0
  188.1940  173.9300  139.0380 C   0  0  0  0  0  2  0  0  0  0  0  0
  187.4680  177.3360  141.3450 C   0  0  0  0  0  3  0  0  0  0  0  0
  187.1540  178.3470  142.1470 C   0  0  0  0  0  3  0  0  0  0  0  0
  188.8220  174.1910  140.3660 C   0  0  0  0  0  0  0  0  0  0  0  0
  186.4580  179.1630  144.2430 F   0  0  0  0  0  0  0  0  0  0  0  0
  190.7210  172.5970  139.7170 C   0  0  2  0  0  3  0  0  0  0  0  0
  186.8770  176.8130  144.1550 C   0  0  2  0  0  3  0  0  0  0  0  0
  187.2500  175.6230  143.2530 C   0  0  2  0  0  3  0  0  0  0  0  0
  188.5020  172.5400  138.5820 C   0  0  0  0  0  3  0  0  0  0  0  0
  193.9990  171.9070  139.4590 C   0  0  0  0  0  2  0  0  0  0  0  0
  194.3480  172.9730  140.3850 N   0  0  0  0  0  2  0  0  0  0  0  0
  195.4480  173.7210  139.7940 C   0  0  0  0  0  2  0  0  0  0  0  0
  197.6050  176.2890  142.9250 C   0  0  0  0  0  1  0  0  0  0  0  0
  195.0460  176.1340  144.0870 O   0  0  0  0  0  0  0  0  0  0  0  0
  197.5120  176.0390  140.1200 O   0  0  0  0  0  0  0  0  0  0  0  0
  196.3930  175.9930  142.1740 N   0  0  0  0  0  0  0  0  0  0  0  0
  193.8940  175.7520  142.0460 C   0  0  0  0  0  0  0  0  0  0  0  0
  193.9690  175.4510  140.7480 C   0  0  0  0  0  3  0  0  0  0  0  0
  195.2670  175.2180  140.0220 C   0  0  1  0  0  3  0  0  0  0  0  0
  195.1220  175.9580  142.8370 C   0  0  0  0  0  0  0  0  0  0  0  0
  196.4510  175.7880  140.7570 C   0  0  0  0  0  0  0  0  0  0  0  0
  192.5520  175.8780  142.6800 C   0  0  0  0  0  2  0  0  0  0  0  0
  192.1990  177.2260  142.7620 O   0  0  0  0  0  1  0  0  0  0  0  0
  194.6370  169.0830  143.1770 C   0  0  1  0  0  3  0  0  0  0  0  0
  193.6130  168.6510  145.4960 C   0  0  0  0  0  1  0  0  0  0  0  0
  194.8090  169.1750  144.7030 C   0  0  2  0  0  3  0  0  0  0  0  0
  195.1430  170.6160  145.0930 C   0  0  2  0  0  3  0  0  0  0  0  0
  197.5720  171.0380  145.3870 C   0  0  0  0  0  2  0  0  0  0  0  0
  196.2870  170.6540  146.0950 C   0  0  0  0  0  3  0  0  0  0  0  0
  197.2980  169.5860  145.7260 C   0  0  0  0  0  2  0  0  0  0  0  0
  194.0160  171.2650  145.6150 O   0  0  0  0  0  0  0  0  0  0  0  0
  194.2510  172.6260  145.3980 C   0  0  0  0  0  2  0  0  0  0  0  0
  192.9270  173.3590  145.2150 C   0  0  0  0  0  2  0  0  0  0  0  0
  192.8400  174.5380  146.1790 C   0  0  0  0  0  1  0  0  0  0  0  0
  196.9530  169.8270  142.0150 C   0  0  0  0  0  1  0  0  0  0  0  0
  196.0960  168.2750  142.4240 S   0  0  0  0  0  0  0  0  0  0  0  0
  1  4  1  1  0  0  0
  3 26  1  1  0  0  0
  3  2  1  0  0  0  0
  3  1  1  0  0  0  0
  5  4  1  6  0  0  0
  5  6  1  0  0  0  0
  6 40  1  6  0  0  0
  7  2  1  6  0  0  0
  7  5  1  0  0  0  0
  7  6  1  0  0  0  0
  8 23  1  0  0  0  0
  8 21  1  1  0  0  0
  9  1  1  0  0  0  0
  9 14  1  1  0  0  0
 10 15  2  0  0  0  0
 11 14  1  1  0  0  0
 12 16  1  0  0  0  0
 15 24  1  0  0  0  0
 17 20  1  0  0  0  0
 18 15  1  0  0  0  0
 18 19  2  0  0  0  0
 19  8  1  0  0  0  0
 20 11  1  0  0  0  0
 20 10  2  0  0  0  0
 22 16  1  6  0  0  0
 22 11  1  0  0  0  0
 22  9  1  0  0  0  0
 23 13  1  1  0  0  0
 24 23  1  0  0  0  0
 24 13  1  1  0  0  0
 25 16  2  0  0  0  0
 25 17  1  0  0  0  0
 26 27  1  0  0  0  0
 28 27  1  0  0  0  0
 31 37  2  0  0  0  0
 32 36  1  0  0  0  0
 32 29  1  0  0  0  0
 33 38  1  0  0  0  0
 33 36  1  0  0  0  0
 34 33  2  0  0  0  0
 35 28  1  1  0  0  0
 35 34  1  0  0  0  0
 35 37  1  0  0  0  0
 36 30  2  0  0  0  0
 37 32  1  0  0  0  0
 38 39  1  0  0  0  0
 40 52  1  1  0  0  0
 40 42  1  0  0  0  0
 42 43  1  0  0  0  0
 42 41  1  1  0  0  0
 43 47  1  1  0  0  0
 43 45  1  0  0  0  0
 44 46  1  0  0  0  0
 44 45  1  0  0  0  0
 46 45  1  0  0  0  0
 48 47  1  0  0  0  0
 49 48  1  0  0  0  0
 49 50  1  0  0  0  0
 51 52  1  0  0  0  0
M  END
>  <MODEL>
6

>  <REMARK>
 VINA RESULT:      -6.2      2.305      6.295
  Name = 
  14 active torsions:
  status: ('A' for Active; 'I' for Inactive)
    1  A    between atoms: C_2  and  C_19
    2  A    between atoms: N_3  and  C_6
    3  A    between atoms: O_4  and  C_7
    4  A    between atoms: O_4  and  C_19
    5  A    between atoms: C_7  and  C_15
    6  A    between atoms: C_7  and  C_22
    7  A    between atoms: C_8  and  C_34
    8  A    between atoms: C_8  and  N_43
    9  A    between atoms: C_15  and  C_51
   10  A    between atoms: C_24  and  C_28
   11  A    between atoms: C_31  and  C_35
   12  A    between atoms: C_31  and  N_43
   13  A    between atoms: S_41  and  C_51
   14  A    between atoms: C_48  and  C_51
                            x       y       z     vdW  Elec       q    Type
                         _______ _______ _______ _____ _____    ______ ____

>  <TORSDO>
F 14

$$$$
=
 OpenBabel11042414283D

 52 59  0  0  1  0  0  0  0  0999 V2000
  191.8140  173.6140  142.2920 N   0  0  2  0  0  0  0  0  0  0  0  0
  194.0050  172.4460  141.8030 C   0  0  0  0  0  2  0  0  0  0  0  0
  193.0010  172.9330  142.8540 C   0  0  2  0  0  3  0  0  0  0  0  0
  191.8470  173.7490  140.8250 C   0  0  0  0  0  2  0  0  0  0  0  0
  193.1810  174.3370  140.3140 C   0  0  2  0  0  3  0  0  0  0  0  0
  193.9900  173.4030  139.4000 C   0  0  1  0  0  3  0  0  0  0  0  0
  194.3990  173.5930  140.8690 C   0  0  2  0  0  3  0  0  0  0  0  0
  184.4510  178.0980  143.4850 C   0  0  1  0  0  3  0  0  0  0  0  0
  191.6670  174.9500  142.8850 C   0  0  1  0  0  3  0  0  0  0  0  0
  188.3320  177.1110  144.4480 C   0  0  0  0  0  0  0  0  0  0  0  0
  189.9090  175.3080  144.0920 C   0  0  2  0  0  3  0  0  0  0  0  0
  193.5950  175.7550  145.0600 O   0  0  0  0  0  1  0  0  0  0  0  0
  186.2290  177.6080  141.8480 C   0  0  0  0  0  2  0  0  0  0  0  0
  190.2570  175.4720  142.6220 C   0  0  0  0  0  2  0  0  0  0  0  0
  187.1560  177.5960  144.1650 C   0  0  0  0  0  0  0  0  0  0  0  0
  192.2110  175.8780  145.1150 C   0  0  0  0  0  0  0  0  0  0  0  0
  190.2070  177.0650  145.9580 C   0  0  0  0  0  2  0  0  0  0  0  0
  186.1390  177.6620  145.2200 C   0  0  0  0  0  3  0  0  0  0  0  0
  184.8810  177.9540  144.9130 C   0  0  0  0  0  3  0  0  0  0  0  0
  189.5060  176.6130  144.7210 C   0  0  0  0  0  0  0  0  0  0  0  0
  183.2840  178.8380  143.4250 F   0  0  0  0  0  0  0  0  0  0  0  0
  191.3540  174.8710  144.3790 C   0  0  2  0  0  3  0  0  0  0  0  0
  185.5150  178.7310  142.5780 C   0  0  2  0  0  3  0  0  0  0  0  0
  186.9810  178.3910  142.9000 C   0  0  2  0  0  3  0  0  0  0  0  0
  191.6840  176.8830  145.8140 C   0  0  0  0  0  3  0  0  0  0  0  0
  192.5460  171.7580  143.7040 C   0  0  0  0  0  2  0  0  0  0  0  0
  193.6650  171.2190  144.4610 N   0  0  0  0  0  2  0  0  0  0  0  0
  194.0800  172.2390  145.4130 C   0  0  0  0  0  2  0  0  0  0  0  0
  197.3900  174.9690  143.7890 C   0  0  0  0  0  1  0  0  0  0  0  0
  197.8540  172.6590  142.2510 O   0  0  0  0  0  0  0  0  0  0  0  0
  196.1930  174.3700  146.2680 O   0  0  0  0  0  0  0  0  0  0  0  0
  196.9520  173.6370  144.1800 N   0  0  0  0  0  0  0  0  0  0  0  0
  196.8840  171.1520  143.8090 C   0  0  0  0  0  0  0  0  0  0  0  0
  196.1460  170.9870  144.9100 C   0  0  0  0  0  3  0  0  0  0  0  0
  195.5730  172.1300  145.7050 C   0  0  1  0  0  3  0  0  0  0  0  0
  197.2500  172.5050  143.3520 C   0  0  0  0  0  0  0  0  0  0  0  0
  196.2640  173.4360  145.4220 C   0  0  0  0  0  0  0  0  0  0  0  0
  197.3290  169.9480  143.0530 C   0  0  0  0  0  2  0  0  0  0  0  0
  196.5150  168.8630  143.3820 O   0  0  0  0  0  1  0  0  0  0  0  0
  193.3000  172.0620  139.0620 C   0  0  1  0  0  3  0  0  0  0  0  0
  192.4340  173.4110  137.0520 C   0  0  0  0  0  1  0  0  0  0  0  0
  192.5700  172.0380  137.7090 C   0  0  2  0  0  3  0  0  0  0  0  0
  191.2050  171.3690  137.8780 C   0  0  2  0  0  3  0  0  0  0  0  0
  190.8030  169.0500  137.0830 C   0  0  0  0  0  2  0  0  0  0  0  0
  190.8720  170.5080  136.6680 C   0  0  0  0  0  3  0  0  0  0  0  0
  192.0390  169.5830  136.3860 C   0  0  0  0  0  2  0  0  0  0  0  0
  190.2030  172.3250  138.0870 O   0  0  0  0  0  0  0  0  0  0  0  0
  189.4240  171.8100  139.1270 C   0  0  0  0  0  2  0  0  0  0  0  0
  188.1860  172.6780  139.3270 C   0  0  0  0  0  2  0  0  0  0  0  0
  188.5750  174.1530  139.3500 C   0  0  0  0  0  1  0  0  0  0  0  0
  193.3010  169.5000  139.9020 C   0  0  0  0  0  1  0  0  0  0  0  0
  194.4850  170.6700  139.1670 S   0  0  0  0  0  0  0  0  0  0  0  0
  1  4  1  6  0  0  0
  1  3  1  0  0  0  0
  1  9  1  0  0  0  0
  2  3  1  0  0  0  0
  3 26  1  6  0  0  0
  5  4  1  1  0  0  0
  5  7  1  0  0  0  0
  6 40  1  1  0  0  0
  6  5  1  0  0  0  0
  6  7  1  0  0  0  0
  7  2  1  1  0  0  0
  8 21  1  1  0  0  0
  8 19  1  0  0  0  0
  9 14  1  6  0  0  0
  9 22  1  0  0  0  0
 10 20  2  0  0  0  0
 11 14  1  6  0  0  0
 11 22  1  0  0  0  0
 11 20  1  0  0  0  0
 12 16  1  0  0  0  0
 15 10  2  0  0  0  0
 15 18  1  0  0  0  0
 16 25  2  0  0  0  0
 19 18  2  0  0  0  0
 20 17  1  0  0  0  0
 22 16  1  1  0  0  0
 23 13  1  6  0  0  0
 23 24  1  0  0  0  0
 23  8  1  0  0  0  0
 24 13  1  6  0  0  0
 24 15  1  0  0  0  0
 25 17  1  0  0  0  0
 26 27  1  0  0  0  0
 27 28  1  0  0  0  0
 29 32  1  0  0  0  0
 30 36  2  0  0  0  0
 32 37  1  0  0  0  0
 33 34  2  0  0  0  0
 34 35  1  0  0  0  0
 35 28  1  6  0  0  0
 36 33  1  0  0  0  0
 36 32  1  0  0  0  0
 37 35  1  0  0  0  0
 37 31  2  0  0  0  0
 38 39  1  0  0  0  0
 38 33  1  0  0  0  0
 40 52  1  6  0  0  0
 42 41  1  1  0  0  0
 42 43  1  0  0  0  0
 42 40  1  0  0  0  0
 43 47  1  6  0  0  0
 45 44  1  0  0  0  0
 45 43  1  0  0  0  0
 46 45  1  0  0  0  0
 46 44  1  0  0  0  0
 47 48  1  0  0  0  0
 48 49  1  0  0  0  0
 49 50  1  0  0  0  0
 52 51  1  0  0  0  0
M  END
>  <MODEL>
7

>  <REMARK>
 VINA RESULT:      -6.1      1.976      5.441
  Name = 
  14 active torsions:
  status: ('A' for Active; 'I' for Inactive)
    1  A    between atoms: C_2  and  C_19
    2  A    between atoms: N_3  and  C_6
    3  A    between atoms: O_4  and  C_7
    4  A    between atoms: O_4  and  C_19
    5  A    between atoms: C_7  and  C_15
    6  A    between atoms: C_7  and  C_22
    7  A    between atoms: C_8  and  C_34
    8  A    between atoms: C_8  and  N_43
    9  A    between atoms: C_15  and  C_51
   10  A    between atoms: C_24  and  C_28
   11  A    between atoms: C_31  and  C_35
   12  A    between atoms: C_31  and  N_43
   13  A    between atoms: S_41  and  C_51
   14  A    between atoms: C_48  and  C_51
                            x       y       z     vdW  Elec       q    Type
                         _______ _______ _______ _____ _____    ______ ____

>  <TORSDO>
F 14

$$$$
=
 OpenBabel11042414283D

 52 59  0  0  1  0  0  0  0  0999 V2000
  191.9060  174.1280  142.9230 N   0  0  2  0  0  0  0  0  0  0  0  0
  193.7310  174.8320  141.3180 C   0  0  0  0  0  2  0  0  0  0  0  0
  192.5620  175.2510  142.2170 C   0  0  2  0  0  3  0  0  0  0  0  0
  192.4630  172.8070  142.5830 C   0  0  0  0  0  2  0  0  0  0  0  0
  192.5700  172.5840  141.0580 C   0  0  2  0  0  3  0  0  0  0  0  0
  194.0010  172.3820  140.5340 C   0  0  1  0  0  3  0  0  0  0  0  0
  193.2920  173.7320  140.3480 C   0  0  2  0  0  3  0  0  0  0  0  0
  185.6950  178.7920  146.8480 C   0  0  1  0  0  3  0  0  0  0  0  0
  190.4650  174.1200  142.6340 C   0  0  1  0  0  3  0  0  0  0  0  0
  187.2660  176.7710  143.6220 C   0  0  0  0  0  0  0  0  0  0  0  0
  189.4120  176.0010  142.8080 C   0  0  2  0  0  3  0  0  0  0  0  0
  189.5920  173.6400  139.7880 O   0  0  0  0  0  1  0  0  0  0  0  0
  186.9870  176.6960  146.9900 C   0  0  0  0  0  2  0  0  0  0  0  0
  189.7190  174.8480  143.7480 C   0  0  0  0  0  2  0  0  0  0  0  0
  186.6130  177.3250  144.6040 C   0  0  0  0  0  0  0  0  0  0  0  0
  189.1450  174.6660  140.6130 C   0  0  0  0  0  0  0  0  0  0  0  0
  187.3520  176.2420  141.2740 C   0  0  0  0  0  2  0  0  0  0  0  0
  186.0450  178.6640  144.4160 C   0  0  0  0  0  3  0  0  0  0  0  0
  185.5600  179.3320  145.4560 C   0  0  0  0  0  3  0  0  0  0  0  0
  187.9330  176.2170  142.6470 C   0  0  0  0  0  0  0  0  0  0  0  0
  184.7470  179.3800  147.6660 F   0  0  0  0  0  0  0  0  0  0  0  0
  190.0820  175.2310  141.6580 C   0  0  2  0  0  3  0  0  0  0  0  0
  185.5800  177.2640  146.9340 C   0  0  2  0  0  3  0  0  0  0  0  0
  186.1530  176.4650  145.7500 C   0  0  2  0  0  3  0  0  0  0  0  0
  187.9000  175.1160  140.4570 C   0  0  0  0  0  3  0  0  0  0  0  0
  193.0450  176.2670  143.2380 C   0  0  0  0  0  2  0  0  0  0  0  0
  194.4400  176.0240  143.5710 N   0  0  0  0  0  2  0  0  0  0  0  0
  194.8310  177.0170  144.5610 C   0  0  0  0  0  2  0  0  0  0  0  0
  194.0080  172.6390  145.6570 C   0  0  0  0  0  1  0  0  0  0  0  0
  191.5850  173.8180  146.4700 O   0  0  0  0  0  0  0  0  0  0  0  0
  196.1580  174.4570  145.7550 O   0  0  0  0  0  0  0  0  0  0  0  0
  193.8640  174.0520  145.9740 N   0  0  0  0  0  0  0  0  0  0  0  0
  192.4940  175.9850  146.8160 C   0  0  0  0  0  0  0  0  0  0  0  0
  193.5240  176.8170  146.6440 C   0  0  0  0  0  3  0  0  0  0  0  0
  194.8080  176.4210  145.9640 C   0  0  1  0  0  3  0  0  0  0  0  0
  192.5990  174.5720  146.4070 C   0  0  0  0  0  0  0  0  0  0  0  0
  194.9960  174.9280  145.9080 C   0  0  0  0  0  0  0  0  0  0  0  0
  191.2400  176.5070  147.4270 C   0  0  0  0  0  2  0  0  0  0  0  0
  191.5560  177.3270  148.5120 O   0  0  0  0  0  1  0  0  0  0  0  0
  195.0950  172.3420  141.6240 C   0  0  1  0  0  3  0  0  0  0  0  0
  195.4450  169.9780  140.6770 C   0  0  0  0  0  1  0  0  0  0  0  0
  195.8360  171.0000  141.7430 C   0  0  2  0  0  3  0  0  0  0  0  0
  195.6430  170.4320  143.1500 C   0  0  2  0  0  3  0  0  0  0  0  0
  197.1090  170.9760  145.0800 C   0  0  0  0  0  2  0  0  0  0  0  0
  196.9850  170.1550  143.8100 C   0  0  0  0  0  3  0  0  0  0  0  0
  197.8050  171.4300  143.8120 C   0  0  0  0  0  2  0  0  0  0  0  0
  194.8670  169.2660  143.1150 O   0  0  0  0  0  0  0  0  0  0  0  0
  193.9070  169.4420  144.1160 C   0  0  0  0  0  2  0  0  0  0  0  0
  193.8510  168.2050  145.0060 C   0  0  0  0  0  2  0  0  0  0  0  0
  194.5560  168.4790  146.3310 C   0  0  0  0  0  1  0  0  0  0  0  0
  197.0900  172.9930  139.9310 C   0  0  0  0  0  1  0  0  0  0  0  0
  196.2930  173.7080  141.4020 S   0  0  0  0  0  0  0  0  0  0  0  0
  1  4  1  6  0  0  0
  2  3  1  0  0  0  0
  3  1  1  0  0  0  0
  3 26  1  1  0  0  0
  5  4  1  1  0  0  0
  6  5  1  0  0  0  0
  6 40  1  1  0  0  0
  7  6  1  0  0  0  0
  7  5  1  0  0  0  0
  7  2  1  1  0  0  0
  8 23  1  0  0  0  0
  8 21  1  1  0  0  0
  9  1  1  0  0  0  0
  9 14  1  1  0  0  0
 10 15  2  0  0  0  0
 11 14  1  1  0  0  0
 12 16  1  0  0  0  0
 15 24  1  0  0  0  0
 17 20  1  0  0  0  0
 18 15  1  0  0  0  0
 18 19  2  0  0  0  0
 19  8  1  0  0  0  0
 20 11  1  0  0  0  0
 20 10  2  0  0  0  0
 22 16  1  6  0  0  0
 22  9  1  0  0  0  0
 22 11  1  0  0  0  0
 23 13  1  1  0  0  0
 24 23  1  0  0  0  0
 24 13  1  1  0  0  0
 25 16  2  0  0  0  0
 25 17  1  0  0  0  0
 26 27  1  0  0  0  0
 27 28  1  0  0  0  0
 29 32  1  0  0  0  0
 31 37  2  0  0  0  0
 32 36  1  0  0  0  0
 33 38  1  0  0  0  0
 34 33  2  0  0  0  0
 35 28  1  6  0  0  0
 35 34  1  0  0  0  0
 36 30  2  0  0  0  0
 36 33  1  0  0  0  0
 37 35  1  0  0  0  0
 37 32  1  0  0  0  0
 38 39  1  0  0  0  0
 40 52  1  6  0  0  0
 40 42  1  0  0  0  0
 42 41  1  6  0  0  0
 42 43  1  0  0  0  0
 43 47  1  6  0  0  0
 43 45  1  0  0  0  0
 45 46  1  0  0  0  0
 45 44  1  0  0  0  0
 46 44  1  0  0  0  0
 47 48  1  0  0  0  0
 48 49  1  0  0  0  0
 49 50  1  0  0  0  0
 51 52  1  0  0  0  0
M  END
>  <MODEL>
8

>  <REMARK>
 VINA RESULT:      -6.1      2.371      6.237
  Name = 
  14 active torsions:
  status: ('A' for Active; 'I' for Inactive)
    1  A    between atoms: C_2  and  C_19
    2  A    between atoms: N_3  and  C_6
    3  A    between atoms: O_4  and  C_7
    4  A    between atoms: O_4  and  C_19
    5  A    between atoms: C_7  and  C_15
    6  A    between atoms: C_7  and  C_22
    7  A    between atoms: C_8  and  C_34
    8  A    between atoms: C_8  and  N_43
    9  A    between atoms: C_15  and  C_51
   10  A    between atoms: C_24  and  C_28
   11  A    between atoms: C_31  and  C_35
   12  A    between atoms: C_31  and  N_43
   13  A    between atoms: S_41  and  C_51
   14  A    between atoms: C_48  and  C_51
                            x       y       z     vdW  Elec       q    Type
                         _______ _______ _______ _____ _____    ______ ____

>  <TORSDO>
F 14

$$$$
=
 OpenBabel11042414283D

 52 59  0  0  1  0  0  0  0  0999 V2000
  191.9450  173.7390  143.1860 N   0  0  2  0  0  0  0  0  0  0  0  0
  194.0990  172.8100  142.2350 C   0  0  0  0  0  2  0  0  0  0  0  0
  193.1960  172.9970  143.4600 C   0  0  2  0  0  3  0  0  0  0  0  0
  191.8290  174.2120  141.7960 C   0  0  0  0  0  2  0  0  0  0  0  0
  193.0940  174.9590  141.3160 C   0  0  2  0  0  3  0  0  0  0  0  0
  193.8260  174.2990  140.1370 C   0  0  1  0  0  3  0  0  0  0  0  0
  194.3760  174.1590  141.5650 C   0  0  2  0  0  3  0  0  0  0  0  0
  184.6920  177.9370  145.5320 C   0  0  1  0  0  3  0  0  0  0  0  0
  191.8330  174.8940  144.0880 C   0  0  1  0  0  3  0  0  0  0  0  0
  188.5580  176.6720  146.1740 C   0  0  0  0  0  0  0  0  0  0  0  0
  190.0930  174.9810  145.3690 C   0  0  2  0  0  3  0  0  0  0  0  0
  193.7960  175.1090  146.3660 O   0  0  0  0  0  1  0  0  0  0  0  0
  186.4450  177.8260  143.8010 C   0  0  0  0  0  2  0  0  0  0  0  0
  190.4320  175.4900  143.9790 C   0  0  0  0  0  2  0  0  0  0  0  0
  187.3910  177.2330  146.0330 C   0  0  0  0  0  0  0  0  0  0  0  0
  192.4160  175.2410  146.4680 C   0  0  0  0  0  0  0  0  0  0  0  0
  190.4460  176.2250  147.6020 C   0  0  0  0  0  2  0  0  0  0  0  0
  186.3850  177.0600  147.0870 C   0  0  0  0  0  3  0  0  0  0  0  0
  185.1310  177.4420  146.8770 C   0  0  0  0  0  3  0  0  0  0  0  0
  189.7240  176.1000  146.3020 C   0  0  0  0  0  0  0  0  0  0  0  0
  183.5410  178.6910  145.6700 F   0  0  0  0  0  0  0  0  0  0  0  0
  191.5310  174.4590  145.5220 C   0  0  2  0  0  3  0  0  0  0  0  0
  185.7610  178.7510  144.7920 C   0  0  2  0  0  3  0  0  0  0  0  0
  187.2230  178.3160  145.0020 C   0  0  2  0  0  3  0  0  0  0  0  0
  191.9170  176.0560  147.3980 C   0  0  0  0  0  3  0  0  0  0  0  0
  192.8510  171.6390  144.0480 C   0  0  0  0  0  2  0  0  0  0  0  0
  194.0460  170.9960  144.5700 N   0  0  0  0  0  2  0  0  0  0  0  0
  194.6070  171.8760  145.5850 C   0  0  0  0  0  2  0  0  0  0  0  0
  197.7100  174.6770  143.6950 C   0  0  0  0  0  1  0  0  0  0  0  0
  197.8980  172.4780  141.9500 O   0  0  0  0  0  0  0  0  0  0  0  0
  196.8670  173.9150  146.2740 O   0  0  0  0  0  0  0  0  0  0  0  0
  197.3030  173.3260  144.0520 N   0  0  0  0  0  0  0  0  0  0  0  0
  197.1280  170.8740  143.5220 C   0  0  0  0  0  0  0  0  0  0  0  0
  196.5520  170.6390  144.7040 C   0  0  0  0  0  3  0  0  0  0  0  0
  196.1230  171.7280  145.6510 C   0  0  1  0  0  3  0  0  0  0  0  0
  197.4550  172.2530  143.1130 C   0  0  0  0  0  0  0  0  0  0  0  0
  196.7960  173.0430  145.3620 C   0  0  0  0  0  0  0  0  0  0  0  0
  197.4340  169.7230  142.6280 C   0  0  0  0  0  2  0  0  0  0  0  0
  196.2880  169.3680  141.9160 O   0  0  0  0  0  1  0  0  0  0  0  0
  193.1320  173.0440  139.5580 C   0  0  1  0  0  3  0  0  0  0  0  0
  190.7500  172.3180  138.9180 C   0  0  0  0  0  1  0  0  0  0  0  0
  191.8740  173.3340  138.7220 C   0  0  2  0  0  3  0  0  0  0  0  0
  192.2580  173.4570  137.2470 C   0  0  2  0  0  3  0  0  0  0  0  0
  193.0200  175.0020  135.4580 C   0  0  0  0  0  2  0  0  0  0  0  0
  192.4210  174.9160  136.8500 C   0  0  0  0  0  3  0  0  0  0  0  0
  193.8970  175.2160  136.6760 C   0  0  0  0  0  2  0  0  0  0  0  0
  191.3060  172.8320  136.4300 O   0  0  0  0  0  0  0  0  0  0  0  0
  191.9860  171.7680  135.8320 C   0  0  0  0  0  2  0  0  0  0  0  0
  191.0110  170.6390  135.5190 C   0  0  0  0  0  2  0  0  0  0  0  0
  189.5740  171.1450  135.6050 C   0  0  0  0  0  1  0  0  0  0  0  0
  193.9230  170.4690  139.4540 C   0  0  0  0  0  1  0  0  0  0  0  0
  194.3100  172.0260  138.5970 S   0  0  0  0  0  0  0  0  0  0  0  0
  1  4  1  6  0  0  0
  1  3  1  0  0  0  0
  1  9  1  0  0  0  0
  2  3  1  0  0  0  0
  3 26  1  6  0  0  0
  5  7  1  0  0  0  0
  5  4  1  1  0  0  0
  6 40  1  1  0  0  0
  6  5  1  0  0  0  0
  6  7  1  0  0  0  0
  7  2  1  1  0  0  0
  8 21  1  1  0  0  0
  8 19  1  0  0  0  0
  9 14  1  6  0  0  0
  9 22  1  0  0  0  0
 10 20  2  0  0  0  0
 11 14  1  6  0  0  0
 11 22  1  0  0  0  0
 11 20  1  0  0  0  0
 12 16  1  0  0  0  0
 15 10  2  0  0  0  0
 15 18  1  0  0  0  0
 16 25  2  0  0  0  0
 19 18  2  0  0  0  0
 20 17  1  0  0  0  0
 22 16  1  1  0  0  0
 23 13  1  6  0  0  0
 23 24  1  0  0  0  0
 23  8  1  0  0  0  0
 24 13  1  6  0  0  0
 24 15  1  0  0  0  0
 25 17  1  0  0  0  0
 26 27  1  0  0  0  0
 27 28  1  0  0  0  0
 29 32  1  0  0  0  0
 30 36  2  0  0  0  0
 32 37  1  0  0  0  0
 33 34  2  0  0  0  0
 34 35  1  0  0  0  0
 35 28  1  6  0  0  0
 36 33  1  0  0  0  0
 36 32  1  0  0  0  0
 37 35  1  0  0  0  0
 37 31  2  0  0  0  0
 38 33  1  0  0  0  0
 39 38  1  0  0  0  0
 40 52  1  6  0  0  0
 42 41  1  6  0  0  0
 42 40  1  0  0  0  0
 43 47  1  6  0  0  0
 43 42  1  0  0  0  0
 44 46  1  0  0  0  0
 44 45  1  0  0  0  0
 45 43  1  0  0  0  0
 46 45  1  0  0  0  0
 48 47  1  0  0  0  0
 49 50  1  0  0  0  0
 49 48  1  0  0  0  0
 52 51  1  0  0  0  0
M  END
>  <MODEL>
9

>  <REMARK>
 VINA RESULT:      -6.0      2.024      5.302
  Name = 
  14 active torsions:
  status: ('A' for Active; 'I' for Inactive)
    1  A    between atoms: C_2  and  C_19
    2  A    between atoms: N_3  and  C_6
    3  A    between atoms: O_4  and  C_7
    4  A    between atoms: O_4  and  C_19
    5  A    between atoms: C_7  and  C_15
    6  A    between atoms: C_7  and  C_22
    7  A    between atoms: C_8  and  C_34
    8  A    between atoms: C_8  and  N_43
    9  A    between atoms: C_15  and  C_51
   10  A    between atoms: C_24  and  C_28
   11  A    between atoms: C_31  and  C_35
   12  A    between atoms: C_31  and  N_43
   13  A    between atoms: S_41  and  C_51
   14  A    between atoms: C_48  and  C_51
                            x       y       z     vdW  Elec       q    Type
                         _______ _______ _______ _____ _____    ______ ____

>  <TORSDO>
F 14

$$$$
