=
 OpenBabel11042416493D

 29 31  0  0  1  0  0  0  0  0999 V2000
  189.0310  177.2040  147.1540 C   0  0  0  0  0  3  0  0  0  0  0  0
  191.3280  176.8390  144.1970 C   0  0  0  0  0  3  0  0  0  0  0  0
  191.4130  176.6500  146.9520 N   0  0  0  0  0  2  0  0  0  0  0  0
  192.5500  176.4250  146.2380 C   0  0  0  0  0  0  0  0  0  0  0  0
  192.5240  176.5120  144.8370 C   0  0  0  0  0  0  0  0  0  0  0  0
  188.9170  177.4070  144.3290 N   0  0  0  0  0  0  0  0  0  0  0  0
  190.2360  176.9630  146.3460 C   0  0  0  0  0  0  0  0  0  0  0  0
  187.8730  177.5240  146.5720 C   0  0  0  0  0  0  0  0  0  0  0  0
  187.7930  177.6370  145.1430 N   0  0  0  0  0  2  0  0  0  0  0  0
  190.1690  177.0650  144.9480 C   0  0  0  0  0  0  0  0  0  0  0  0
  193.6160  176.1400  146.8450 O   0  0  0  0  0  0  0  0  0  0  0  0
  187.5940  178.3150  142.4350 C   0  0  0  0  0  2  0  0  0  0  0  0
  187.4670  175.3270  142.4120 C   0  0  0  0  0  2  0  0  0  0  0  0
  186.3200  176.2050  142.7000 N   0  0  0  0  0  2  0  0  0  0  0  0
  188.7950  177.4670  142.8710 C   0  0  2  0  0  3  0  0  0  0  0  0
  188.8010  176.0720  142.2460 C   0  0  0  0  0  2  0  0  0  0  0  0
  186.3870  177.4850  141.9850 C   0  0  2  0  0  3  0  0  0  0  0  0
  186.3700  177.3060  140.4680 C   0  0  0  0  0  2  0  0  0  0  0  0
  185.1400  177.9520  139.8520 C   0  0  0  0  0  2  0  0  0  0  0  0
  184.1290  178.3140  140.9240 C   0  0  0  0  0  1  0  0  0  0  0  0
  193.7570  176.3060  144.0210 C   0  0  0  0  0  2  0  0  0  0  0  0
  193.3940  176.0830  142.6330 N   0  0  0  0  0  1  0  0  0  0  0  0
  186.7170  179.1530  148.0400 C   0  0  0  0  0  1  0  0  0  0  0  0
  186.6670  177.7680  147.4210 C   0  0  1  0  0  3  0  0  0  0  0  0
  185.4080  177.5760  146.6400 C   0  0  0  0  0  0  0  0  0  0  0  0
  185.0670  176.4110  146.2980 O   0  0  0  0  0  0  0  0  0  0  0  0
  184.6410  178.6820  146.2640 O   0  0  0  0  0  0  0  0  0  0  0  0
  184.3000  178.9270  144.9090 C   0  0  0  0  0  2  0  0  0  0  0  0
  185.1750  180.0350  144.3610 C   0  0  0  0  0  1  0  0  0  0  0  0
  2  5  2  0  0  0  0
  2 10  1  0  0  0  0
  4 11  2  0  0  0  0
  4  3  1  0  0  0  0
  5  4  1  0  0  0  0
  6 10  1  0  0  0  0
  6  9  1  0  0  0  0
  7  3  1  0  0  0  0
  7  1  1  0  0  0  0
  8  1  2  0  0  0  0
  8 24  1  0  0  0  0
  9  8  1  0  0  0  0
 10  7  2  0  0  0  0
 12 15  1  0  0  0  0
 13 14  1  0  0  0  0
 15 16  1  1  0  0  0
 15  6  1  0  0  0  0
 16 13  1  0  0  0  0
 17 18  1  6  0  0  0
 17 12  1  0  0  0  0
 17 14  1  0  0  0  0
 19 18  1  0  0  0  0
 19 20  1  0  0  0  0
 21  5  1  0  0  0  0
 22 21  1  0  0  0  0
 24 23  1  6  0  0  0
 25 24  1  0  0  0  0
 26 25  2  0  0  0  0
 27 25  1  0  0  0  0
 28 27  1  0  0  0  0
 29 28  1  0  0  0  0
M  END
>  <MODEL>
1

>  <REMARK>
 VINA RESULT:      -6.9      0.000      0.000
  Name = 
  8 active torsions:
  status: ('A' for Active; 'I' for Inactive)
    1  A    between atoms: C_1  and  C_5
    2  A    between atoms: C_1  and  C_25
    3  A    between atoms: C_6  and  C_15
    4  A    between atoms: O_9  and  C_10
    5  A    between atoms: O_9  and  C_16
    6  A    between atoms: C_10  and  C_18
    7  A    between atoms: C_14  and  N_19
    8  A    between atoms: C_18  and  C_21
                            x       y       z     vdW  Elec       q    Type
                         _______ _______ _______ _____ _____    ______ ____

>  <TORSDO>
F 8

$$$$
=
 OpenBabel11042416493D

 29 31  0  0  1  0  0  0  0  0999 V2000
  187.4950  175.6900  141.6980 C   0  0  0  0  0  3  0  0  0  0  0  0
  186.8860  177.9760  144.6230 C   0  0  0  0  0  3  0  0  0  0  0  0
  185.5700  177.0520  142.3760 N   0  0  0  0  0  2  0  0  0  0  0  0
  184.9310  177.9200  143.2070 C   0  0  0  0  0  0  0  0  0  0  0  0
  185.5820  178.3970  144.3560 C   0  0  0  0  0  0  0  0  0  0  0  0
  188.8690  176.6260  143.9940 N   0  0  0  0  0  0  0  0  0  0  0  0
  186.8380  176.6250  142.6230 C   0  0  0  0  0  0  0  0  0  0  0  0
  188.7430  175.2740  141.9220 C   0  0  0  0  0  0  0  0  0  0  0  0
  189.4600  175.7370  143.0770 N   0  0  0  0  0  2  0  0  0  0  0  0
  187.5260  177.0810  143.7580 C   0  0  0  0  0  0  0  0  0  0  0  0
  183.7570  178.2870  142.9350 O   0  0  0  0  0  0  0  0  0  0  0  0
  191.1120  177.0690  144.9600 C   0  0  0  0  0  2  0  0  0  0  0  0
  189.8240  174.7910  146.4080 C   0  0  0  0  0  2  0  0  0  0  0  0
  191.0100  174.6620  145.5450 N   0  0  0  0  0  2  0  0  0  0  0  0
  189.5970  177.0350  145.1960 C   0  0  2  0  0  3  0  0  0  0  0  0
  189.2000  176.1950  146.4110 C   0  0  0  0  0  2  0  0  0  0  0  0
  191.8530  175.8640  145.5490 C   0  0  2  0  0  3  0  0  0  0  0  0
  192.4120  176.1770  146.9350 C   0  0  0  0  0  2  0  0  0  0  0  0
  193.8680  176.6090  146.8560 C   0  0  0  0  0  2  0  0  0  0  0  0
  194.6980  175.5680  146.1270 C   0  0  0  0  0  1  0  0  0  0  0  0
  184.9280  179.3760  145.2730 C   0  0  0  0  0  2  0  0  0  0  0  0
  184.1910  178.6660  146.3030 N   0  0  0  0  0  1  0  0  0  0  0  0
  190.8340  174.0730  141.3440 C   0  0  0  0  0  1  0  0  0  0  0  0
  189.3870  174.3270  140.9610 C   0  0  1  0  0  3  0  0  0  0  0  0
  188.6240  173.0450  140.8710 C   0  0  0  0  0  0  0  0  0  0  0  0
  188.5340  172.3100  141.8910 O   0  0  0  0  0  0  0  0  0  0  0  0
  188.0520  172.6550  139.6580 O   0  0  0  0  0  0  0  0  0  0  0  0
  188.3030  173.3600  138.4520 C   0  0  0  0  0  2  0  0  0  0  0  0
  189.3260  172.6060  137.6300 C   0  0  0  0  0  1  0  0  0  0  0  0
  1  8  2  0  0  0  0
  1  7  1  0  0  0  0
  3  7  1  0  0  0  0
  3  4  1  0  0  0  0
  4  5  1  0  0  0  0
  5  2  2  0  0  0  0
  5 21  1  0  0  0  0
  7 10  2  0  0  0  0
  8  9  1  0  0  0  0
  9  6  1  0  0  0  0
 10  6  1  0  0  0  0
 10  2  1  0  0  0  0
 11  4  2  0  0  0  0
 12 15  1  0  0  0  0
 12 17  1  0  0  0  0
 13 16  1  0  0  0  0
 14 17  1  0  0  0  0
 14 13  1  0  0  0  0
 15  6  1  6  0  0  0
 15 16  1  0  0  0  0
 17 18  1  1  0  0  0
 19 18  1  0  0  0  0
 20 19  1  0  0  0  0
 21 22  1  0  0  0  0
 24 23  1  1  0  0  0
 24  8  1  0  0  0  0
 25 24  1  0  0  0  0
 25 26  2  0  0  0  0
 27 25  1  0  0  0  0
 28 27  1  0  0  0  0
 29 28  1  0  0  0  0
M  END
>  <MODEL>
2

>  <REMARK>
 VINA RESULT:      -6.6      3.030      7.592
  Name = 
  8 active torsions:
  status: ('A' for Active; 'I' for Inactive)
    1  A    between atoms: C_1  and  C_5
    2  A    between atoms: C_1  and  C_25
    3  A    between atoms: C_6  and  C_15
    4  A    between atoms: O_9  and  C_10
    5  A    between atoms: O_9  and  C_16
    6  A    between atoms: C_10  and  C_18
    7  A    between atoms: C_14  and  N_19
    8  A    between atoms: C_18  and  C_21
                            x       y       z     vdW  Elec       q    Type
                         _______ _______ _______ _____ _____    ______ ____

>  <TORSDO>
F 8

$$$$
=
 OpenBabel11042416493D

 29 31  0  0  1  0  0  0  0  0999 V2000
  187.5890  175.6880  141.7490 C   0  0  0  0  0  3  0  0  0  0  0  0
  187.0330  178.0560  144.6180 C   0  0  0  0  0  3  0  0  0  0  0  0
  185.6470  177.0000  142.4750 N   0  0  0  0  0  2  0  0  0  0  0  0
  185.0150  177.8740  143.3050 C   0  0  0  0  0  0  0  0  0  0  0  0
  185.7020  178.4170  144.4020 C   0  0  0  0  0  0  0  0  0  0  0  0
  189.0350  176.7590  143.9390 N   0  0  0  0  0  0  0  0  0  0  0  0
  186.9410  176.6310  142.6720 C   0  0  0  0  0  0  0  0  0  0  0  0
  188.8620  175.3270  141.9250 C   0  0  0  0  0  0  0  0  0  0  0  0
  189.6150  175.8600  143.0250 N   0  0  0  0  0  2  0  0  0  0  0  0
  187.6650  177.1550  143.7540 C   0  0  0  0  0  0  0  0  0  0  0  0
  183.8160  178.1870  143.0790 O   0  0  0  0  0  0  0  0  0  0  0  0
  191.3130  177.2060  144.8170 C   0  0  0  0  0  2  0  0  0  0  0  0
  189.9910  175.0960  146.4730 C   0  0  0  0  0  2  0  0  0  0  0  0
  191.1510  174.8580  145.5980 N   0  0  0  0  0  2  0  0  0  0  0  0
  189.8040  177.2400  145.0870 C   0  0  2  0  0  3  0  0  0  0  0  0
  189.4110  176.5150  146.3740 C   0  0  0  0  0  2  0  0  0  0  0  0
  192.0310  176.0280  145.4850 C   0  0  2  0  0  3  0  0  0  0  0  0
  192.6330  176.4340  146.8290 C   0  0  0  0  0  2  0  0  0  0  0  0
  194.1210  176.7190  146.7020 C   0  0  0  0  0  2  0  0  0  0  0  0
  194.8460  175.5280  146.1020 C   0  0  0  0  0  1  0  0  0  0  0  0
  185.0550  179.4050  145.3160 C   0  0  0  0  0  2  0  0  0  0  0  0
  184.3900  178.7060  146.4010 N   0  0  0  0  0  1  0  0  0  0  0  0
  190.9710  174.1960  141.2770 C   0  0  0  0  0  1  0  0  0  0  0  0
  189.4940  174.3700  140.9660 C   0  0  1  0  0  3  0  0  0  0  0  0
  188.7880  173.0540  140.9700 C   0  0  0  0  0  0  0  0  0  0  0  0
  188.4220  172.5480  139.8750 O   0  0  0  0  0  0  0  0  0  0  0  0
  188.5070  172.4130  142.1800 O   0  0  0  0  0  0  0  0  0  0  0  0
  189.4820  171.6360  142.8570 C   0  0  0  0  0  2  0  0  0  0  0  0
  189.5460  172.0590  144.3090 C   0  0  0  0  0  1  0  0  0  0  0  0
  1  8  2  0  0  0  0
  1  7  1  0  0  0  0
  3  7  1  0  0  0  0
  3  4  1  0  0  0  0
  4  5  1  0  0  0  0
  5  2  2  0  0  0  0
  5 21  1  0  0  0  0
  7 10  2  0  0  0  0
  8  9  1  0  0  0  0
  9  6  1  0  0  0  0
 10  6  1  0  0  0  0
 10  2  1  0  0  0  0
 11  4  2  0  0  0  0
 12 15  1  0  0  0  0
 12 17  1  0  0  0  0
 14 13  1  0  0  0  0
 15  6  1  6  0  0  0
 15 16  1  0  0  0  0
 16 13  1  0  0  0  0
 17 14  1  0  0  0  0
 17 18  1  1  0  0  0
 19 18  1  0  0  0  0
 20 19  1  0  0  0  0
 21 22  1  0  0  0  0
 24 25  1  0  0  0  0
 24 23  1  1  0  0  0
 24  8  1  0  0  0  0
 25 27  1  0  0  0  0
 26 25  2  0  0  0  0
 27 28  1  0  0  0  0
 28 29  1  0  0  0  0
M  END
>  <MODEL>
3

>  <REMARK>
 VINA RESULT:      -6.5      2.882      7.485
  Name = 
  8 active torsions:
  status: ('A' for Active; 'I' for Inactive)
    1  A    between atoms: C_1  and  C_5
    2  A    between atoms: C_1  and  C_25
    3  A    between atoms: C_6  and  C_15
    4  A    between atoms: O_9  and  C_10
    5  A    between atoms: O_9  and  C_16
    6  A    between atoms: C_10  and  C_18
    7  A    between atoms: C_14  and  N_19
    8  A    between atoms: C_18  and  C_21
                            x       y       z     vdW  Elec       q    Type
                         _______ _______ _______ _____ _____    ______ ____

>  <TORSDO>
F 8

$$$$
=
 OpenBabel11042416493D

 29 31  0  0  1  0  0  0  0  0999 V2000
  187.7560  175.7480  141.8040 C   0  0  0  0  0  3  0  0  0  0  0  0
  186.7300  177.9720  144.6600 C   0  0  0  0  0  3  0  0  0  0  0  0
  185.7180  177.0360  142.2650 N   0  0  0  0  0  2  0  0  0  0  0  0
  184.9570  177.8710  143.0240 C   0  0  0  0  0  0  0  0  0  0  0  0
  185.4520  178.3530  144.2460 C   0  0  0  0  0  0  0  0  0  0  0  0
  188.8180  176.6960  144.2560 N   0  0  0  0  0  0  0  0  0  0  0  0
  186.9630  176.6480  142.6550 C   0  0  0  0  0  0  0  0  0  0  0  0
  188.9820  175.3710  142.1690 C   0  0  0  0  0  0  0  0  0  0  0  0
  189.5430  175.8410  143.4050 N   0  0  0  0  0  2  0  0  0  0  0  0
  187.4970  177.1110  143.8670 C   0  0  0  0  0  0  0  0  0  0  0  0
  183.8110  178.2030  142.6190 O   0  0  0  0  0  0  0  0  0  0  0  0
  190.8030  176.5640  145.7390 C   0  0  0  0  0  2  0  0  0  0  0  0
  188.4520  175.3010  147.0880 C   0  0  0  0  0  2  0  0  0  0  0  0
  189.6390  174.5630  146.6250 N   0  0  0  0  0  2  0  0  0  0  0  0
  189.3860  177.1130  145.5390 C   0  0  2  0  0  3  0  0  0  0  0  0
  188.4490  176.7890  146.7030 C   0  0  0  0  0  2  0  0  0  0  0  0
  190.8690  175.3620  146.6870 C   0  0  2  0  0  3  0  0  0  0  0  0
  191.2090  175.7950  148.1120 C   0  0  0  0  0  2  0  0  0  0  0  0
  191.8740  177.1630  148.1260 C   0  0  0  0  0  2  0  0  0  0  0  0
  191.4830  177.9370  149.3720 C   0  0  0  0  0  1  0  0  0  0  0  0
  184.6620  179.2970  145.0900 C   0  0  0  0  0  2  0  0  0  0  0  0
  183.9970  178.5650  146.1530 N   0  0  0  0  0  1  0  0  0  0  0  0
  191.2300  174.4420  141.6860 C   0  0  0  0  0  1  0  0  0  0  0  0
  189.7660  174.4590  141.2810 C   0  0  1  0  0  3  0  0  0  0  0  0
  189.1950  173.0790  141.2820 C   0  0  0  0  0  0  0  0  0  0  0  0
  188.2130  172.8180  140.5360 O   0  0  0  0  0  0  0  0  0  0  0  0
  189.7250  172.1020  142.1290 O   0  0  0  0  0  0  0  0  0  0  0  0
  189.2340  171.9110  143.4460 C   0  0  0  0  0  2  0  0  0  0  0  0
  190.3640  172.0980  144.4370 C   0  0  0  0  0  1  0  0  0  0  0  0
  1  8  2  0  0  0  0
  1  7  1  0  0  0  0
  3  7  1  0  0  0  0
  3  4  1  0  0  0  0
  4  5  1  0  0  0  0
  5  2  2  0  0  0  0
  5 21  1  0  0  0  0
  7 10  2  0  0  0  0
  8  9  1  0  0  0  0
  9  6  1  0  0  0  0
 10  6  1  0  0  0  0
 10  2  1  0  0  0  0
 11  4  2  0  0  0  0
 12 17  1  0  0  0  0
 14 17  1  0  0  0  0
 14 13  1  0  0  0  0
 15  6  1  6  0  0  0
 15 12  1  0  0  0  0
 15 16  1  0  0  0  0
 16 13  1  0  0  0  0
 17 18  1  1  0  0  0
 18 19  1  0  0  0  0
 19 20  1  0  0  0  0
 21 22  1  0  0  0  0
 24 25  1  0  0  0  0
 24 23  1  1  0  0  0
 24  8  1  0  0  0  0
 25 27  1  0  0  0  0
 26 25  2  0  0  0  0
 27 28  1  0  0  0  0
 28 29  1  0  0  0  0
M  END
>  <MODEL>
4

>  <REMARK>
 VINA RESULT:      -6.5      3.006      7.443
  Name = 
  8 active torsions:
  status: ('A' for Active; 'I' for Inactive)
    1  A    between atoms: C_1  and  C_5
    2  A    between atoms: C_1  and  C_25
    3  A    between atoms: C_6  and  C_15
    4  A    between atoms: O_9  and  C_10
    5  A    between atoms: O_9  and  C_16
    6  A    between atoms: C_10  and  C_18
    7  A    between atoms: C_14  and  N_19
    8  A    between atoms: C_18  and  C_21
                            x       y       z     vdW  Elec       q    Type
                         _______ _______ _______ _____ _____    ______ ____

>  <TORSDO>
F 8

$$$$
=
 OpenBabel11042416493D

 29 31  0  0  1  0  0  0  0  0999 V2000
  187.6190  174.9180  142.1250 C   0  0  0  0  0  3  0  0  0  0  0  0
  187.3990  178.0080  144.2570 C   0  0  0  0  0  3  0  0  0  0  0  0
  185.8210  176.5370  142.5320 N   0  0  0  0  0  2  0  0  0  0  0  0
  185.3020  177.6530  143.1140 C   0  0  0  0  0  0  0  0  0  0  0  0
  186.0880  178.4100  143.9970 C   0  0  0  0  0  0  0  0  0  0  0  0
  189.2590  176.4110  143.8890 N   0  0  0  0  0  0  0  0  0  0  0  0
  187.0940  176.1260  142.7780 C   0  0  0  0  0  0  0  0  0  0  0  0
  188.8700  174.5110  142.3480 C   0  0  0  0  0  0  0  0  0  0  0  0
  189.7210  175.2530  143.2350 N   0  0  0  0  0  2  0  0  0  0  0  0
  187.9140  176.8580  143.6500 C   0  0  0  0  0  0  0  0  0  0  0  0
  184.1180  177.9940  142.8520 O   0  0  0  0  0  0  0  0  0  0  0  0
  191.5960  176.7160  144.6700 C   0  0  0  0  0  2  0  0  0  0  0  0
  189.9320  175.5950  146.8870 C   0  0  0  0  0  2  0  0  0  0  0  0
  191.0120  174.8610  146.2070 N   0  0  0  0  0  2  0  0  0  0  0  0
  190.1250  177.1160  144.8360 C   0  0  2  0  0  3  0  0  0  0  0  0
  189.6250  176.9700  146.2740 C   0  0  0  0  0  2  0  0  0  0  0  0
  192.0920  175.7380  145.7400 C   0  0  2  0  0  3  0  0  0  0  0  0
  192.7820  176.4720  146.8880 C   0  0  0  0  0  2  0  0  0  0  0  0
  194.2450  176.7390  146.5690 C   0  0  0  0  0  2  0  0  0  0  0  0
  194.9420  175.4640  146.1320 C   0  0  0  0  0  1  0  0  0  0  0  0
  185.5660  179.6580  144.6290 C   0  0  0  0  0  2  0  0  0  0  0  0
  185.2490  179.4060  146.0230 N   0  0  0  0  0  1  0  0  0  0  0  0
  190.5420  173.6160  140.7520 C   0  0  0  0  0  1  0  0  0  0  0  0
  189.3770  173.2810  141.6660 C   0  0  1  0  0  3  0  0  0  0  0  0
  189.7590  172.2300  142.6560 C   0  0  0  0  0  0  0  0  0  0  0  0
  188.9450  171.9180  143.5670 O   0  0  0  0  0  0  0  0  0  0  0  0
  191.0190  171.6310  142.5910 O   0  0  0  0  0  0  0  0  0  0  0  0
  191.9040  171.6310  143.7000 C   0  0  0  0  0  2  0  0  0  0  0  0
  192.8080  172.8430  143.6250 C   0  0  0  0  0  1  0  0  0  0  0  0
  1  8  2  0  0  0  0
  1  7  1  0  0  0  0
  3  7  1  0  0  0  0
  3  4  1  0  0  0  0
  4  5  1  0  0  0  0
  5  2  2  0  0  0  0
  5 21  1  0  0  0  0
  7 10  2  0  0  0  0
  8  9  1  0  0  0  0
  9  6  1  0  0  0  0
 10  6  1  0  0  0  0
 10  2  1  0  0  0  0
 11  4  2  0  0  0  0
 12 15  1  0  0  0  0
 12 17  1  0  0  0  0
 14 13  1  0  0  0  0
 15  6  1  6  0  0  0
 15 16  1  0  0  0  0
 16 13  1  0  0  0  0
 17 14  1  0  0  0  0
 17 18  1  1  0  0  0
 19 18  1  0  0  0  0
 20 19  1  0  0  0  0
 21 22  1  0  0  0  0
 24 23  1  1  0  0  0
 24  8  1  0  0  0  0
 24 25  1  0  0  0  0
 25 26  2  0  0  0  0
 27 25  1  0  0  0  0
 27 28  1  0  0  0  0
 29 28  1  0  0  0  0
M  END
>  <MODEL>
5

>  <REMARK>
 VINA RESULT:      -6.4      2.786      7.600
  Name = 
  8 active torsions:
  status: ('A' for Active; 'I' for Inactive)
    1  A    between atoms: C_1  and  C_5
    2  A    between atoms: C_1  and  C_25
    3  A    between atoms: C_6  and  C_15
    4  A    between atoms: O_9  and  C_10
    5  A    between atoms: O_9  and  C_16
    6  A    between atoms: C_10  and  C_18
    7  A    between atoms: C_14  and  N_19
    8  A    between atoms: C_18  and  C_21
                            x       y       z     vdW  Elec       q    Type
                         _______ _______ _______ _____ _____    ______ ____

>  <TORSDO>
F 8

$$$$
=
 OpenBabel11042416493D

 29 31  0  0  1  0  0  0  0  0999 V2000
  187.1120  176.7190  141.2530 C   0  0  0  0  0  3  0  0  0  0  0  0
  190.0310  174.5930  142.3050 C   0  0  0  0  0  3  0  0  0  0  0  0
  188.1660  174.7320  140.2720 N   0  0  0  0  0  2  0  0  0  0  0  0
  189.0940  173.7360  140.2520 C   0  0  0  0  0  0  0  0  0  0  0  0
  190.0520  173.6520  141.2740 C   0  0  0  0  0  0  0  0  0  0  0  0
  189.0130  176.5960  143.3520 N   0  0  0  0  0  0  0  0  0  0  0  0
  188.1340  175.6610  141.2650 C   0  0  0  0  0  0  0  0  0  0  0  0
  187.0620  177.6290  142.2280 C   0  0  0  0  0  0  0  0  0  0  0  0
  188.0120  177.5850  143.3030 N   0  0  0  0  0  2  0  0  0  0  0  0
  189.0710  175.6100  142.3080 C   0  0  0  0  0  0  0  0  0  0  0  0
  189.0820  172.8970  139.3120 O   0  0  0  0  0  0  0  0  0  0  0  0
  190.2000  175.2170  145.0410 C   0  0  0  0  0  2  0  0  0  0  0  0
  188.5560  177.3010  146.4180 C   0  0  0  0  0  2  0  0  0  0  0  0
  188.2820  175.8560  146.4770 N   0  0  0  0  0  2  0  0  0  0  0  0
  190.0070  176.6090  144.4260 C   0  0  2  0  0  3  0  0  0  0  0  0
  189.7010  177.6850  145.4680 C   0  0  0  0  0  2  0  0  0  0  0  0
  189.5010  175.0400  146.3920 C   0  0  2  0  0  3  0  0  0  0  0  0
  190.4580  175.3040  147.5530 C   0  0  0  0  0  2  0  0  0  0  0  0
  191.9050  175.1170  147.1250 C   0  0  0  0  0  2  0  0  0  0  0  0
  192.6790  176.4150  147.2620 C   0  0  0  0  0  1  0  0  0  0  0  0
  191.0650  172.5550  141.3050 C   0  0  0  0  0  2  0  0  0  0  0  0
  190.5380  171.4230  142.0460 N   0  0  0  0  0  1  0  0  0  0  0  0
  184.8660  178.2780  141.2780 C   0  0  0  0  0  1  0  0  0  0  0  0
  186.0080  178.6890  142.1900 C   0  0  1  0  0  3  0  0  0  0  0  0
  185.5090  179.0050  143.5630 C   0  0  0  0  0  0  0  0  0  0  0  0
  185.7500  180.1380  144.0590 O   0  0  0  0  0  0  0  0  0  0  0  0
  184.8170  178.0380  144.2960 O   0  0  0  0  0  0  0  0  0  0  0  0
  184.3810  178.2800  145.6250 C   0  0  0  0  0  2  0  0  0  0  0  0
  184.8680  177.1650  146.5260 C   0  0  0  0  0  1  0  0  0  0  0  0
  1  7  1  0  0  0  0
  1  8  2  0  0  0  0
  2 10  1  0  0  0  0
  3  7  1  0  0  0  0
  4  3  1  0  0  0  0
  4  5  1  0  0  0  0
  5 21  1  0  0  0  0
  5  2  2  0  0  0  0
  7 10  2  0  0  0  0
  8  9  1  0  0  0  0
  9  6  1  0  0  0  0
 10  6  1  0  0  0  0
 11  4  2  0  0  0  0
 12 17  1  0  0  0  0
 13 14  1  0  0  0  0
 15  6  1  6  0  0  0
 15 12  1  0  0  0  0
 15 16  1  0  0  0  0
 16 13  1  0  0  0  0
 17 14  1  0  0  0  0
 17 18  1  1  0  0  0
 19 20  1  0  0  0  0
 19 18  1  0  0  0  0
 21 22  1  0  0  0  0
 24 23  1  6  0  0  0
 24  8  1  0  0  0  0
 24 25  1  0  0  0  0
 25 26  2  0  0  0  0
 25 27  1  0  0  0  0
 27 28  1  0  0  0  0
 28 29  1  0  0  0  0
M  END
>  <MODEL>
6

>  <REMARK>
 VINA RESULT:      -6.2      2.674      5.698
  Name = 
  8 active torsions:
  status: ('A' for Active; 'I' for Inactive)
    1  A    between atoms: C_1  and  C_5
    2  A    between atoms: C_1  and  C_25
    3  A    between atoms: C_6  and  C_15
    4  A    between atoms: O_9  and  C_10
    5  A    between atoms: O_9  and  C_16
    6  A    between atoms: C_10  and  C_18
    7  A    between atoms: C_14  and  N_19
    8  A    between atoms: C_18  and  C_21
                            x       y       z     vdW  Elec       q    Type
                         _______ _______ _______ _____ _____    ______ ____

>  <TORSDO>
F 8

$$$$
=
 OpenBabel11042416493D

 29 31  0  0  1  0  0  0  0  0999 V2000
  187.8260  176.9770  146.1210 C   0  0  0  0  0  3  0  0  0  0  0  0
  191.3230  175.9810  145.1550 C   0  0  0  0  0  3  0  0  0  0  0  0
  189.9630  177.0120  147.3270 N   0  0  0  0  0  2  0  0  0  0  0  0
  191.3040  176.8000  147.4260 C   0  0  0  0  0  0  0  0  0  0  0  0
  192.0110  176.2720  146.3340 C   0  0  0  0  0  0  0  0  0  0  0  0
  189.1980  175.9200  143.8770 N   0  0  0  0  0  0  0  0  0  0  0  0
  189.2740  176.7280  146.1890 C   0  0  0  0  0  0  0  0  0  0  0  0
  187.1410  176.7140  145.0060 C   0  0  0  0  0  0  0  0  0  0  0  0
  187.8160  176.1830  143.8550 N   0  0  0  0  0  2  0  0  0  0  0  0
  189.9440  176.2040  145.0730 C   0  0  0  0  0  0  0  0  0  0  0  0
  191.8980  177.0810  148.5010 O   0  0  0  0  0  0  0  0  0  0  0  0
  188.9440  175.3410  141.4760 C   0  0  0  0  0  2  0  0  0  0  0  0
  189.3120  172.8450  143.0810 C   0  0  0  0  0  2  0  0  0  0  0  0
  188.0650  173.2100  142.3890 N   0  0  0  0  0  2  0  0  0  0  0  0
  189.8520  175.3200  142.7120 C   0  0  2  0  0  3  0  0  0  0  0  0
  190.4000  173.9280  143.0280 C   0  0  0  0  0  2  0  0  0  0  0  0
  188.2990  173.9870  141.1650 C   0  0  2  0  0  3  0  0  0  0  0  0
  189.1080  173.2100  140.1280 C   0  0  0  0  0  2  0  0  0  0  0  0
  188.2770  172.9150  138.8900 C   0  0  0  0  0  2  0  0  0  0  0  0
  188.2650  174.1100  137.9540 C   0  0  0  0  0  1  0  0  0  0  0  0
  193.4870  176.0560  146.3910 C   0  0  0  0  0  2  0  0  0  0  0  0
  194.1680  177.1480  145.7190 N   0  0  0  0  0  1  0  0  0  0  0  0
  185.1390  177.2650  146.3600 C   0  0  0  0  0  1  0  0  0  0  0  0
  185.6710  176.9820  144.9660 C   0  0  1  0  0  3  0  0  0  0  0  0
  185.3510  178.1040  144.0330 C   0  0  0  0  0  0  0  0  0  0  0  0
  185.9010  179.2250  144.2060 O   0  0  0  0  0  0  0  0  0  0  0  0
  184.4230  177.9170  143.0050 O   0  0  0  0  0  0  0  0  0  0  0  0
  184.7080  178.2910  141.6660 C   0  0  0  0  0  2  0  0  0  0  0  0
  185.9450  177.5590  141.1900 C   0  0  0  0  0  1  0  0  0  0  0  0
  1  7  1  0  0  0  0
  2  5  2  0  0  0  0
  3  4  1  0  0  0  0
  4 11  2  0  0  0  0
  5 21  1  0  0  0  0
  5  4  1  0  0  0  0
  6 10  1  0  0  0  0
  7  3  1  0  0  0  0
  8  1  2  0  0  0  0
  9  6  1  0  0  0  0
  9  8  1  0  0  0  0
 10  2  1  0  0  0  0
 10  7  2  0  0  0  0
 14 13  1  0  0  0  0
 15 12  1  6  0  0  0
 15 16  1  0  0  0  0
 15  6  1  0  0  0  0
 16 13  1  0  0  0  0
 17 18  1  6  0  0  0
 17 12  1  0  0  0  0
 17 14  1  0  0  0  0
 19 18  1  0  0  0  0
 20 19  1  0  0  0  0
 22 21  1  0  0  0  0
 24  8  1  0  0  0  0
 24 23  1  1  0  0  0
 25 26  2  0  0  0  0
 25 24  1  0  0  0  0
 27 25  1  0  0  0  0
 28 27  1  0  0  0  0
 29 28  1  0  0  0  0
M  END
>  <MODEL>
7

>  <REMARK>
 VINA RESULT:      -6.1      2.263      3.169
  Name = 
  8 active torsions:
  status: ('A' for Active; 'I' for Inactive)
    1  A    between atoms: C_1  and  C_5
    2  A    between atoms: C_1  and  C_25
    3  A    between atoms: C_6  and  C_15
    4  A    between atoms: O_9  and  C_10
    5  A    between atoms: O_9  and  C_16
    6  A    between atoms: C_10  and  C_18
    7  A    between atoms: C_14  and  N_19
    8  A    between atoms: C_18  and  C_21
                            x       y       z     vdW  Elec       q    Type
                         _______ _______ _______ _____ _____    ______ ____

>  <TORSDO>
F 8

$$$$
=
 OpenBabel11042416493D

 29 31  0  0  1  0  0  0  0  0999 V2000
  189.4660  176.4700  145.9760 C   0  0  0  0  0  3  0  0  0  0  0  0
  192.4590  175.5570  143.8890 C   0  0  0  0  0  3  0  0  0  0  0  0
  191.8830  176.6070  146.3780 N   0  0  0  0  0  2  0  0  0  0  0  0
  193.1840  176.4400  146.0160 C   0  0  0  0  0  0  0  0  0  0  0  0
  193.4960  175.9030  144.7560 C   0  0  0  0  0  0  0  0  0  0  0  0
  190.0310  175.3930  143.4160 N   0  0  0  0  0  0  0  0  0  0  0  0
  190.8590  176.2690  145.5490 C   0  0  0  0  0  0  0  0  0  0  0  0
  188.4530  176.1540  145.1670 C   0  0  0  0  0  0  0  0  0  0  0  0
  188.7140  175.6110  143.8640 N   0  0  0  0  0  2  0  0  0  0  0  0
  191.1280  175.7340  144.2800 C   0  0  0  0  0  0  0  0  0  0  0  0
  194.0980  176.7700  146.8180 O   0  0  0  0  0  0  0  0  0  0  0  0
  189.0260  174.8390  141.2140 C   0  0  0  0  0  2  0  0  0  0  0  0
  189.7910  172.3210  142.6350 C   0  0  0  0  0  2  0  0  0  0  0  0
  188.4040  172.7310  142.3610 N   0  0  0  0  0  2  0  0  0  0  0  0
  190.2710  174.7800  142.1080 C   0  0  2  0  0  3  0  0  0  0  0  0
  190.8440  173.3690  142.2420 C   0  0  0  0  0  2  0  0  0  0  0  0
  188.2710  173.5090  141.1230 C   0  0  2  0  0  3  0  0  0  0  0  0
  188.6930  172.7130  139.8890 C   0  0  0  0  0  2  0  0  0  0  0  0
  189.1360  173.6370  138.7650 C   0  0  0  0  0  2  0  0  0  0  0  0
  190.5010  173.2300  138.2410 C   0  0  0  0  0  1  0  0  0  0  0  0
  194.9110  175.7360  144.3090 C   0  0  0  0  0  2  0  0  0  0  0  0
  195.0130  176.0210  142.8890 N   0  0  0  0  0  1  0  0  0  0  0  0
  187.0280  176.9630  147.0280 C   0  0  0  0  0  1  0  0  0  0  0  0
  187.0480  176.3750  145.6280 C   0  0  1  0  0  3  0  0  0  0  0  0
  186.2950  177.2430  144.6730 C   0  0  0  0  0  0  0  0  0  0  0  0
  185.7110  176.7130  143.6890 O   0  0  0  0  0  0  0  0  0  0  0  0
  186.2720  178.6280  144.8530 O   0  0  0  0  0  0  0  0  0  0  0  0
  185.0650  179.3700  144.7790 C   0  0  0  0  0  2  0  0  0  0  0  0
  184.0670  178.8110  145.7710 C   0  0  0  0  0  1  0  0  0  0  0  0
  2 10  1  0  0  0  0
  2  5  2  0  0  0  0
  4  3  1  0  0  0  0
  4 11  2  0  0  0  0
  5  4  1  0  0  0  0
  6  9  1  0  0  0  0
  6 10  1  0  0  0  0
  7  1  1  0  0  0  0
  7  3  1  0  0  0  0
  8 24  1  0  0  0  0
  8  1  2  0  0  0  0
  9  8  1  0  0  0  0
 10  7  2  0  0  0  0
 14 13  1  0  0  0  0
 15 12  1  1  0  0  0
 15 16  1  0  0  0  0
 15  6  1  0  0  0  0
 16 13  1  0  0  0  0
 17 18  1  6  0  0  0
 17 12  1  0  0  0  0
 17 14  1  0  0  0  0
 19 18  1  0  0  0  0
 20 19  1  0  0  0  0
 21  5  1  0  0  0  0
 22 21  1  0  0  0  0
 24 23  1  1  0  0  0
 25 27  1  0  0  0  0
 25 24  1  0  0  0  0
 26 25  2  0  0  0  0
 28 27  1  0  0  0  0
 28 29  1  0  0  0  0
M  END
>  <MODEL>
8

>  <REMARK>
 VINA RESULT:      -5.9      2.365      3.173
  Name = 
  8 active torsions:
  status: ('A' for Active; 'I' for Inactive)
    1  A    between atoms: C_1  and  C_5
    2  A    between atoms: C_1  and  C_25
    3  A    between atoms: C_6  and  C_15
    4  A    between atoms: O_9  and  C_10
    5  A    between atoms: O_9  and  C_16
    6  A    between atoms: C_10  and  C_18
    7  A    between atoms: C_14  and  N_19
    8  A    between atoms: C_18  and  C_21
                            x       y       z     vdW  Elec       q    Type
                         _______ _______ _______ _____ _____    ______ ____

>  <TORSDO>
F 8

$$$$
=
 OpenBabel11042416493D

 29 31  0  0  1  0  0  0  0  0999 V2000
  193.3020  175.2220  143.0530 C   0  0  0  0  0  3  0  0  0  0  0  0
  189.8310  174.1290  142.1020 C   0  0  0  0  0  3  0  0  0  0  0  0
  192.3720  174.2070  141.0210 N   0  0  0  0  0  2  0  0  0  0  0  0
  191.3530  173.6990  140.2770 C   0  0  0  0  0  0  0  0  0  0  0  0
  190.0550  173.6470  140.8110 C   0  0  0  0  0  0  0  0  0  0  0  0
  190.7030  175.1550  144.1830 N   0  0  0  0  0  0  0  0  0  0  0  0
  192.1740  174.6760  142.2830 C   0  0  0  0  0  0  0  0  0  0  0  0
  193.1180  175.6960  144.2870 C   0  0  0  0  0  0  0  0  0  0  0  0
  191.8100  175.6760  144.8790 N   0  0  0  0  0  2  0  0  0  0  0  0
  190.8920  174.6460  142.8520 C   0  0  0  0  0  0  0  0  0  0  0  0
  191.5850  173.2790  139.1120 O   0  0  0  0  0  0  0  0  0  0  0  0
  188.6400  176.4220  144.7310 C   0  0  0  0  0  2  0  0  0  0  0  0
  190.0260  175.6150  147.2550 C   0  0  0  0  0  2  0  0  0  0  0  0
  189.8980  177.0050  146.7860 N   0  0  0  0  0  2  0  0  0  0  0  0
  189.3920  175.0890  144.8310 C   0  0  2  0  0  3  0  0  0  0  0  0
  189.4960  174.5670  146.2640 C   0  0  0  0  0  2  0  0  0  0  0  0
  188.6630  177.2400  146.0270 C   0  0  2  0  0  3  0  0  0  0  0  0
  187.4100  176.9930  146.8640 C   0  0  0  0  0  2  0  0  0  0  0  0
  186.2020  176.7250  145.9790 C   0  0  0  0  0  2  0  0  0  0  0  0
  184.9680  177.4140  146.5320 C   0  0  0  0  0  1  0  0  0  0  0  0
  188.9040  173.1280  140.0140 C   0  0  0  0  0  2  0  0  0  0  0  0
  188.3250  174.2040  139.2310 N   0  0  0  0  0  1  0  0  0  0  0  0
  193.8960  176.5520  146.4800 C   0  0  0  0  0  1  0  0  0  0  0  0
  194.2830  176.2500  145.0430 C   0  0  1  0  0  3  0  0  0  0  0  0
  195.4540  175.3230  144.9880 C   0  0  0  0  0  0  0  0  0  0  0  0
  195.4590  174.2940  145.7150 O   0  0  0  0  0  0  0  0  0  0  0  0
  196.5440  175.6200  144.1650 O   0  0  0  0  0  0  0  0  0  0  0  0
  196.6180  176.8340  143.4340 C   0  0  0  0  0  2  0  0  0  0  0  0
  196.5290  176.5360  141.9520 C   0  0  0  0  0  1  0  0  0  0  0  0
  1  8  2  0  0  0  0
  2 10  1  0  0  0  0
  3  7  1  0  0  0  0
  4  5  1  0  0  0  0
  4  3  1  0  0  0  0
  5  2  2  0  0  0  0
  6  9  1  0  0  0  0
  7 10  2  0  0  0  0
  7  1  1  0  0  0  0
  8  9  1  0  0  0  0
  8 24  1  0  0  0  0
 10  6  1  0  0  0  0
 11  4  2  0  0  0  0
 12 15  1  0  0  0  0
 12 17  1  0  0  0  0
 14 13  1  0  0  0  0
 15  6  1  1  0  0  0
 15 16  1  0  0  0  0
 16 13  1  0  0  0  0
 17 14  1  0  0  0  0
 17 18  1  1  0  0  0
 19 20  1  0  0  0  0
 19 18  1  0  0  0  0
 21  5  1  0  0  0  0
 22 21  1  0  0  0  0
 24 23  1  1  0  0  0
 25 24  1  0  0  0  0
 25 26  2  0  0  0  0
 27 25  1  0  0  0  0
 28 27  1  0  0  0  0
 29 28  1  0  0  0  0
M  END
>  <MODEL>
9

>  <REMARK>
 VINA RESULT:      -5.9      3.984      7.139
  Name = 
  8 active torsions:
  status: ('A' for Active; 'I' for Inactive)
    1  A    between atoms: C_1  and  C_5
    2  A    between atoms: C_1  and  C_25
    3  A    between atoms: C_6  and  C_15
    4  A    between atoms: O_9  and  C_10
    5  A    between atoms: O_9  and  C_16
    6  A    between atoms: C_10  and  C_18
    7  A    between atoms: C_14  and  N_19
    8  A    between atoms: C_18  and  C_21
                            x       y       z     vdW  Elec       q    Type
                         _______ _______ _______ _____ _____    ______ ____

>  <TORSDO>
F 8

$$$$
