=
 OpenBabel11042414143D

 45 49  0  0  1  0  0  0  0  0999 V2000
  190.2150  175.8990  144.5800 C   0  0  2  0  0  3  0  0  0  0  0  0
  191.3400  175.5470  147.4910 F   0  0  0  0  0  0  0  0  0  0  0  0
  195.2840  176.2550  142.3770 N   0  0  0  0  0  1  0  0  0  0  0  0
  193.4130  175.0250  146.5700 N   0  0  0  0  0  0  0  0  0  0  0  0
  196.1070  175.3660  144.5090 N   0  0  0  0  0  0  0  0  0  0  0  0
  191.6260  176.1460  145.1590 C   0  0  2  0  0  3  0  0  0  0  0  0
  192.6960  176.1460  144.0810 C   0  0  0  0  0  3  0  0  0  0  0  0
  195.5920  175.0470  145.6950 N   0  0  0  0  0  2  0  0  0  0  0  0
  191.9670  175.1590  146.3220 C   0  0  2  0  0  3  0  0  0  0  0  0
  195.1020  175.7850  143.7090 C   0  0  0  0  0  0  0  0  0  0  0  0
  194.2680  175.2730  145.6280 C   0  0  0  0  0  0  0  0  0  0  0  0
  193.9210  175.7590  144.4060 C   0  0  0  0  0  0  0  0  0  0  0  0
  189.7560  177.9180  145.8910 O   0  0  0  0  0  1  0  0  0  0  0  0
  189.1670  176.8510  145.2020 C   0  0  2  0  0  3  0  0  0  0  0  0
  188.2790  176.0790  146.1630 C   0  0  0  0  0  2  0  0  0  0  0  0
  187.5820  177.0000  147.0440 N   0  0  0  0  0  2  0  0  0  0  0  0
  185.8810  178.3470  145.9830 C   0  0  1  0  0  3  0  0  0  0  0  0
  185.4370  178.0620  147.4020 C   0  0  0  0  0  2  0  0  0  0  0  0
  186.1930  177.0090  146.6230 C   0  0  2  0  0  3  0  0  0  0  0  0
  184.7020  178.1720  145.0500 C   0  0  0  0  0  2  0  0  0  0  0  0
  185.1130  178.4800  143.6880 N   0  0  0  0  0  2  0  0  0  0  0  0
  187.0850  175.6070  142.3650 C   0  0  0  0  0  3  0  0  0  0  0  0
  186.1000  176.3470  143.0300 C   0  0  0  0  0  3  0  0  0  0  0  0
  188.1370  177.6630  141.6340 C   0  0  0  0  0  3  0  0  0  0  0  0
  186.1290  177.7460  143.0000 C   0  0  0  0  0  0  0  0  0  0  0  0
  187.1530  178.4020  142.2980 C   0  0  0  0  0  3  0  0  0  0  0  0
  188.1030  176.2660  141.6680 C   0  0  0  0  0  3  0  0  0  0  0  0
  189.8760  173.6060  143.7290 C   0  0  0  0  0  3  0  0  0  0  0  0
  189.8380  174.4540  144.7580 C   0  0  0  0  0  3  0  0  0  0  0  0
  189.5030  172.1700  143.9000 C   0  0  0  0  0  2  0  0  0  0  0  0
  190.2730  171.3010  142.9230 C   0  0  0  0  0  2  0  0  0  0  0  0
  191.4880  172.0730  142.3950 C   0  0  1  0  0  3  0  0  0  0  0  0
  193.3830  172.2740  143.8390 C   0  0  0  0  0  2  0  0  0  0  0  0
  192.7490  171.4320  142.8260 N   0  0  0  0  0  0  0  0  0  0  0  0
  193.5190  169.9960  144.5900 C   0  0  0  0  0  2  0  0  0  0  0  0
  192.4730  170.1720  143.5180 C   0  0  0  0  0  2  0  0  0  0  0  0
  193.8810  171.4000  144.9770 C   0  0  0  0  0  2  0  0  0  0  0  0
  191.3950  172.1470  140.8490 C   0  0  2  0  0  3  0  0  0  0  0  0
  191.4260  173.5760  140.3030 C   0  0  0  0  0  2  0  0  0  0  0  0
  192.6250  174.3570  140.8210 C   0  0  0  0  0  1  0  0  0  0  0  0
  190.2030  171.4670  140.3500 N   0  0  0  0  0  2  0  0  0  0  0  0
  190.6140  170.6330  139.2320 C   0  0  0  0  0  2  0  0  0  0  0  0
  189.6980  170.1260  137.0900 O   0  0  0  0  0  0  0  0  0  0  0  0
  189.7930  170.9570  138.0310 C   0  0  0  0  0  0  0  0  0  0  0  0
  189.1050  172.1630  137.9650 O   0  0  0  0  0  1  0  0  0  0  0  0
  1 29  1  1  0  0  0
  1 14  1  0  0  0  0
  3 10  1  0  0  0  0
  5  8  1  0  0  0  0
  6  1  1  6  0  0  0
  6  9  1  0  0  0  0
  7 12  2  0  0  0  0
  7  6  1  0  0  0  0
  9  4  1  0  0  0  0
  9  2  1  1  0  0  0
 10 12  1  0  0  0  0
 10  5  2  0  0  0  0
 11  8  1  0  0  0  0
 11  4  2  0  0  0  0
 12 11  1  0  0  0  0
 14 13  1  1  0  0  0
 14 15  1  0  0  0  0
 15 16  1  0  0  0  0
 17 20  1  6  0  0  0
 17 19  1  0  0  0  0
 17 18  1  0  0  0  0
 19 16  1  1  0  0  0
 19 18  1  0  0  0  0
 21 20  1  0  0  0  0
 22 23  1  0  0  0  0
 24 27  1  0  0  0  0
 24 26  2  0  0  0  0
 25 23  2  0  0  0  0
 25 21  1  0  0  0  0
 26 25  1  0  0  0  0
 27 22  2  0  0  0  0
 28 30  1  0  0  0  0
 28 29  2  0  0  0  0
 31 30  1  0  0  0  0
 32 34  1  0  0  0  0
 32 31  1  6  0  0  0
 33 37  1  0  0  0  0
 34 36  1  0  0  0  0
 34 33  1  0  0  0  0
 35 37  1  0  0  0  0
 36 35  1  0  0  0  0
 38 39  1  1  0  0  0
 38 32  1  0  0  0  0
 39 40  1  0  0  0  0
 41 38  1  0  0  0  0
 42 41  1  0  0  0  0
 43 44  2  0  0  0  0
 44 42  1  0  0  0  0
 45 44  1  0  0  0  0
M  END
>  <MODEL>
1

>  <REMARK>
 VINA RESULT:      -6.2      0.000      0.000
  Name = 
  18 active torsions:
  status: ('A' for Active; 'I' for Inactive)
    1  A    between atoms: C_6  and  C_12
    2  A    between atoms: C_6  and  C_17
    3  A    between atoms: C_6  and  C_30
    4  A    between atoms: N_8  and  C_23
    5  A    between atoms: N_8  and  C_44
    6  A    between atoms: C_9  and  C_13
    7  A    between atoms: C_10  and  C_39
    8  A    between atoms: C_13  and  C_45
    9  A    between atoms: N_14  and  C_21
   10  A    between atoms: N_14  and  C_39
   11  A    between atoms: C_18  and  C_44
   12  A    between atoms: C_20  and  C_21
   13  A    between atoms: C_22  and  N_27
   14  A    between atoms: C_22  and  C_39
   15  A    between atoms: C_22  and  C_45
   16  A    between atoms: C_30  and  C_41
   17  A    between atoms: C_38  and  N_40
   18  A    between atoms: N_40  and  C_41
                            x       y       z     vdW  Elec       q    Type
                         _______ _______ _______ _____ _____    ______ ____

>  <TORSDO>
F 18

$$$$
=
 OpenBabel11042414143D

 45 49  0  0  1  0  0  0  0  0999 V2000
  187.8590  177.4160  142.2310 C   0  0  2  0  0  3  0  0  0  0  0  0
  185.1390  178.7230  141.3620 F   0  0  0  0  0  0  0  0  0  0  0  0
  186.8300  178.2120  147.6140 N   0  0  0  0  0  1  0  0  0  0  0  0
  184.3810  178.4720  143.5490 N   0  0  0  0  0  0  0  0  0  0  0  0
  184.5060  178.6320  146.9510 N   0  0  0  0  0  0  0  0  0  0  0  0
  186.8560  178.2880  143.0180 C   0  0  2  0  0  3  0  0  0  0  0  0
  187.0080  178.1220  144.5200 C   0  0  0  0  0  3  0  0  0  0  0  0
  183.8210  178.7350  145.8140 N   0  0  0  0  0  2  0  0  0  0  0  0
  185.3820  178.0600  142.5500 C   0  0  2  0  0  3  0  0  0  0  0  0
  185.7920  178.3450  146.6490 C   0  0  0  0  0  0  0  0  0  0  0  0
  184.6860  178.5150  144.8080 C   0  0  0  0  0  0  0  0  0  0  0  0
  185.9390  178.2900  145.2860 C   0  0  0  0  0  0  0  0  0  0  0  0
  186.7860  175.3150  142.8930 O   0  0  0  0  0  1  0  0  0  0  0  0
  187.2310  176.0690  141.8010 C   0  0  2  0  0  3  0  0  0  0  0  0
  188.2510  175.2520  141.0260 C   0  0  0  0  0  2  0  0  0  0  0  0
  188.2040  173.8640  141.4520 N   0  0  0  0  0  2  0  0  0  0  0  0
  190.0110  172.2660  141.5710 C   0  0  1  0  0  3  0  0  0  0  0  0
  189.3480  172.3280  142.9320 C   0  0  0  0  0  2  0  0  0  0  0  0
  189.4740  173.5830  142.0950 C   0  0  2  0  0  3  0  0  0  0  0  0
  191.5140  172.2510  141.7530 C   0  0  0  0  0  2  0  0  0  0  0  0
  191.9260  170.9500  142.2590 N   0  0  0  0  0  2  0  0  0  0  0  0
  193.8050  169.3320  145.0420 C   0  0  0  0  0  3  0  0  0  0  0  0
  192.9950  169.5090  143.9140 C   0  0  0  0  0  3  0  0  0  0  0  0
  194.1500  171.7260  145.1720 C   0  0  0  0  0  3  0  0  0  0  0  0
  192.7590  170.7940  143.4110 C   0  0  0  0  0  0  0  0  0  0  0  0
  193.3400  171.9040  144.0450 C   0  0  0  0  0  3  0  0  0  0  0  0
  194.3820  170.4400  145.6700 C   0  0  0  0  0  3  0  0  0  0  0  0
  190.1810  177.9880  142.8430 C   0  0  0  0  0  3  0  0  0  0  0  0
  189.1090  177.2200  143.0420 C   0  0  0  0  0  3  0  0  0  0  0  0
  191.4260  177.7980  143.6460 C   0  0  0  0  0  2  0  0  0  0  0  0
  191.6200  176.3320  143.9860 C   0  0  0  0  0  2  0  0  0  0  0  0
  192.3040  176.2070  145.3530 C   0  0  1  0  0  3  0  0  0  0  0  0
  190.4540  176.2620  146.8670 C   0  0  0  0  0  2  0  0  0  0  0  0
  191.4830  175.4020  146.2830 N   0  0  0  0  0  0  0  0  0  0  0  0
  189.4140  174.1850  146.2550 C   0  0  0  0  0  2  0  0  0  0  0  0
  190.7340  174.3790  145.5530 C   0  0  0  0  0  2  0  0  0  0  0  0
  189.1250  175.5270  146.8620 C   0  0  0  0  0  2  0  0  0  0  0  0
  193.7050  175.5740  145.1490 C   0  0  2  0  0  3  0  0  0  0  0  0
  194.8500  176.4480  145.6670 C   0  0  0  0  0  2  0  0  0  0  0  0
  194.4030  177.3600  146.7990 C   0  0  0  0  0  1  0  0  0  0  0  0
  193.9460  175.2450  143.7470 N   0  0  0  0  0  2  0  0  0  0  0  0
  195.2610  175.7610  143.4000 C   0  0  0  0  0  2  0  0  0  0  0  0
  196.3970  173.6750  143.1870 O   0  0  0  0  0  1  0  0  0  0  0  0
  196.0170  174.7370  142.6260 C   0  0  0  0  0  0  0  0  0  0  0  0
  196.2750  174.9380  141.2750 O   0  0  0  0  0  0  0  0  0  0  0  0
  1 29  1  1  0  0  0
  4 11  2  0  0  0  0
  6  1  1  6  0  0  0
  6  7  1  0  0  0  0
  7 12  2  0  0  0  0
  8  5  1  0  0  0  0
  9  2  1  6  0  0  0
  9  6  1  0  0  0  0
  9  4  1  0  0  0  0
 10  5  2  0  0  0  0
 10  3  1  0  0  0  0
 11 12  1  0  0  0  0
 11  8  1  0  0  0  0
 12 10  1  0  0  0  0
 14  1  1  0  0  0  0
 14 13  1  1  0  0  0
 15 16  1  0  0  0  0
 15 14  1  0  0  0  0
 17 20  1  1  0  0  0
 17 19  1  0  0  0  0
 17 18  1  0  0  0  0
 19 16  1  6  0  0  0
 19 18  1  0  0  0  0
 20 21  1  0  0  0  0
 21 25  1  0  0  0  0
 22 27  1  0  0  0  0
 23 22  2  0  0  0  0
 24 27  2  0  0  0  0
 25 23  1  0  0  0  0
 25 26  2  0  0  0  0
 26 24  1  0  0  0  0
 28 29  2  0  0  0  0
 28 30  1  0  0  0  0
 30 31  1  0  0  0  0
 32 31  1  6  0  0  0
 32 34  1  0  0  0  0
 34 33  1  0  0  0  0
 35 37  1  0  0  0  0
 36 35  1  0  0  0  0
 36 34  1  0  0  0  0
 37 33  1  0  0  0  0
 38 32  1  0  0  0  0
 38 39  1  6  0  0  0
 39 40  1  0  0  0  0
 41 38  1  0  0  0  0
 42 41  1  0  0  0  0
 44 43  1  0  0  0  0
 44 42  1  0  0  0  0
 45 44  2  0  0  0  0
M  END
>  <MODEL>
2

>  <REMARK>
 VINA RESULT:      -6.2      2.773      7.904
  Name = 
  18 active torsions:
  status: ('A' for Active; 'I' for Inactive)
    1  A    between atoms: C_6  and  C_12
    2  A    between atoms: C_6  and  C_17
    3  A    between atoms: C_6  and  C_30
    4  A    between atoms: N_8  and  C_23
    5  A    between atoms: N_8  and  C_44
    6  A    between atoms: C_9  and  C_13
    7  A    between atoms: C_10  and  C_39
    8  A    between atoms: C_13  and  C_45
    9  A    between atoms: N_14  and  C_21
   10  A    between atoms: N_14  and  C_39
   11  A    between atoms: C_18  and  C_44
   12  A    between atoms: C_20  and  C_21
   13  A    between atoms: C_22  and  N_27
   14  A    between atoms: C_22  and  C_39
   15  A    between atoms: C_22  and  C_45
   16  A    between atoms: C_30  and  C_41
   17  A    between atoms: C_38  and  N_40
   18  A    between atoms: N_40  and  C_41
                            x       y       z     vdW  Elec       q    Type
                         _______ _______ _______ _____ _____    ______ ____

>  <TORSDO>
F 18

$$$$
=
 OpenBabel11042414143D

 45 49  0  0  1  0  0  0  0  0999 V2000
  187.6500  177.5800  142.1710 C   0  0  2  0  0  3  0  0  0  0  0  0
  184.8200  178.7180  141.4290 F   0  0  0  0  0  0  0  0  0  0  0  0
  186.8370  178.3580  147.5940 N   0  0  0  0  0  1  0  0  0  0  0  0
  184.1840  178.4410  143.6520 N   0  0  0  0  0  0  0  0  0  0  0  0
  184.4640  178.6360  147.0430 N   0  0  0  0  0  0  0  0  0  0  0  0
  186.6370  178.3980  143.0020 C   0  0  2  0  0  3  0  0  0  0  0  0
  186.8710  178.2530  144.4960 C   0  0  0  0  0  3  0  0  0  0  0  0
  183.7200  178.6890  145.9410 N   0  0  0  0  0  2  0  0  0  0  0  0
  185.1580  178.0800  142.6080 C   0  0  2  0  0  3  0  0  0  0  0  0
  185.7480  178.4220  146.6800 C   0  0  0  0  0  0  0  0  0  0  0  0
  184.5460  178.5120  144.8940 C   0  0  0  0  0  0  0  0  0  0  0  0
  185.8320  178.3650  145.3120 C   0  0  0  0  0  0  0  0  0  0  0  0
  187.0810  175.2730  142.7680 O   0  0  0  0  0  1  0  0  0  0  0  0
  187.0630  176.2170  141.7340 C   0  0  2  0  0  3  0  0  0  0  0  0
  187.8550  175.6710  140.5580 C   0  0  0  0  0  2  0  0  0  0  0  0
  188.3640  174.3470  140.8730 N   0  0  0  0  0  2  0  0  0  0  0  0
  189.5770  172.6030  139.7250 C   0  0  1  0  0  3  0  0  0  0  0  0
  189.8200  173.9060  138.9910 C   0  0  0  0  0  2  0  0  0  0  0  0
  188.4700  173.6320  139.6150 C   0  0  2  0  0  3  0  0  0  0  0  0
  189.3190  171.5070  138.7130 C   0  0  0  0  0  2  0  0  0  0  0  0
  190.0680  170.3170  139.0900 N   0  0  0  0  0  2  0  0  0  0  0  0
  191.9440  169.8780  142.2810 C   0  0  0  0  0  3  0  0  0  0  0  0
  190.9130  169.8630  141.3350 C   0  0  0  0  0  3  0  0  0  0  0  0
  193.4360  170.8490  140.6390 C   0  0  0  0  0  3  0  0  0  0  0  0
  191.1380  170.3410  140.0390 C   0  0  0  0  0  0  0  0  0  0  0  0
  192.4060  170.8350  139.6940 C   0  0  0  0  0  3  0  0  0  0  0  0
  193.2050  170.3720  141.9320 C   0  0  0  0  0  3  0  0  0  0  0  0
  190.0440  178.0450  142.5610 C   0  0  0  0  0  3  0  0  0  0  0  0
  188.9300  177.4190  142.9440 C   0  0  0  0  0  3  0  0  0  0  0  0
  191.3170  177.8890  143.3260 C   0  0  0  0  0  2  0  0  0  0  0  0
  191.1790  176.7970  144.3710 C   0  0  0  0  0  2  0  0  0  0  0  0
  192.1470  175.6520  144.0490 C   0  0  1  0  0  3  0  0  0  0  0  0
  194.3840  176.3820  144.4750 C   0  0  0  0  0  2  0  0  0  0  0  0
  193.2630  175.6160  145.0180 N   0  0  0  0  0  0  0  0  0  0  0  0
  194.1440  176.9750  146.7900 C   0  0  0  0  0  2  0  0  0  0  0  0
  192.8990  176.3220  146.2470 C   0  0  0  0  0  2  0  0  0  0  0  0
  194.9670  177.2600  145.5680 C   0  0  0  0  0  2  0  0  0  0  0  0
  191.3550  174.3200  144.0530 C   0  0  2  0  0  3  0  0  0  0  0  0
  191.4190  173.5680  142.7210 C   0  0  0  0  0  2  0  0  0  0  0  0
  192.2780  174.2950  141.6970 C   0  0  0  0  0  1  0  0  0  0  0  0
  189.9580  174.5260  144.4230 N   0  0  0  0  0  2  0  0  0  0  0  0
  189.7350  173.8330  145.6820 C   0  0  0  0  0  2  0  0  0  0  0  0
  188.2810  175.4710  146.6240 O   0  0  0  0  0  0  0  0  0  0  0  0
  189.3490  174.8130  146.7360 C   0  0  0  0  0  0  0  0  0  0  0  0
  190.1500  174.9770  147.8600 O   0  0  0  0  0  1  0  0  0  0  0  0
  1 29  1  1  0  0  0
  4 11  2  0  0  0  0
  6  1  1  6  0  0  0
  6  7  1  0  0  0  0
  7 12  2  0  0  0  0
  8  5  1  0  0  0  0
  9  2  1  6  0  0  0
  9  6  1  0  0  0  0
  9  4  1  0  0  0  0
 10  5  2  0  0  0  0
 10  3  1  0  0  0  0
 11 12  1  0  0  0  0
 11  8  1  0  0  0  0
 12 10  1  0  0  0  0
 14  1  1  0  0  0  0
 14 13  1  1  0  0  0
 15 16  1  0  0  0  0
 15 14  1  0  0  0  0
 17 20  1  6  0  0  0
 18 19  1  0  0  0  0
 18 17  1  0  0  0  0
 19 17  1  0  0  0  0
 19 16  1  1  0  0  0
 20 21  1  0  0  0  0
 21 25  1  0  0  0  0
 23 22  2  0  0  0  0
 24 27  2  0  0  0  0
 25 23  1  0  0  0  0
 26 25  2  0  0  0  0
 26 24  1  0  0  0  0
 27 22  1  0  0  0  0
 28 29  2  0  0  0  0
 28 30  1  0  0  0  0
 30 31  1  0  0  0  0
 32 38  1  0  0  0  0
 32 31  1  1  0  0  0
 32 34  1  0  0  0  0
 33 34  1  0  0  0  0
 33 37  1  0  0  0  0
 34 36  1  0  0  0  0
 36 35  1  0  0  0  0
 37 35  1  0  0  0  0
 38 39  1  6  0  0  0
 38 41  1  0  0  0  0
 40 39  1  0  0  0  0
 41 42  1  0  0  0  0
 42 44  1  0  0  0  0
 43 44  2  0  0  0  0
 44 45  1  0  0  0  0
M  END
>  <MODEL>
3

>  <REMARK>
 VINA RESULT:      -6.2      2.741      7.881
  Name = 
  18 active torsions:
  status: ('A' for Active; 'I' for Inactive)
    1  A    between atoms: C_6  and  C_12
    2  A    between atoms: C_6  and  C_17
    3  A    between atoms: C_6  and  C_30
    4  A    between atoms: N_8  and  C_23
    5  A    between atoms: N_8  and  C_44
    6  A    between atoms: C_9  and  C_13
    7  A    between atoms: C_10  and  C_39
    8  A    between atoms: C_13  and  C_45
    9  A    between atoms: N_14  and  C_21
   10  A    between atoms: N_14  and  C_39
   11  A    between atoms: C_18  and  C_44
   12  A    between atoms: C_20  and  C_21
   13  A    between atoms: C_22  and  N_27
   14  A    between atoms: C_22  and  C_39
   15  A    between atoms: C_22  and  C_45
   16  A    between atoms: C_30  and  C_41
   17  A    between atoms: C_38  and  N_40
   18  A    between atoms: N_40  and  C_41
                            x       y       z     vdW  Elec       q    Type
                         _______ _______ _______ _____ _____    ______ ____

>  <TORSDO>
F 18

$$$$
=
 OpenBabel11042414143D

 45 49  0  0  1  0  0  0  0  0999 V2000
  192.6430  173.0630  141.7340 C   0  0  2  0  0  3  0  0  0  0  0  0
  190.0420  171.4340  142.3970 F   0  0  0  0  0  0  0  0  0  0  0  0
  190.8330  174.4110  136.6770 N   0  0  0  0  0  1  0  0  0  0  0  0
  188.9850  172.4980  140.6160 N   0  0  0  0  0  0  0  0  0  0  0  0
  188.6180  173.6910  137.4440 N   0  0  0  0  0  0  0  0  0  0  0  0
  191.5150  172.5380  140.8190 C   0  0  2  0  0  3  0  0  0  0  0  0
  191.4550  173.2860  139.4980 C   0  0  0  0  0  3  0  0  0  0  0  0
  188.1000  173.1280  138.5340 N   0  0  0  0  0  2  0  0  0  0  0  0
  190.1300  172.5180  141.5430 C   0  0  2  0  0  3  0  0  0  0  0  0
  189.9410  173.8770  137.6490 C   0  0  0  0  0  0  0  0  0  0  0  0
  189.1060  172.9630  139.4120 C   0  0  0  0  0  0  0  0  0  0  0  0
  190.2830  173.3980  138.8880 C   0  0  0  0  0  0  0  0  0  0  0  0
  193.0700  171.8390  143.8130 O   0  0  0  0  0  1  0  0  0  0  0  0
  193.3820  171.9090  142.4510 C   0  0  2  0  0  3  0  0  0  0  0  0
  194.8840  172.0910  142.3010 C   0  0  0  0  0  2  0  0  0  0  0  0
  195.1660  173.0460  141.2440 N   0  0  0  0  0  2  0  0  0  0  0  0
  195.9870  175.2500  141.7910 C   0  0  1  0  0  3  0  0  0  0  0  0
  196.7310  174.7630  140.5650 C   0  0  0  0  0  2  0  0  0  0  0  0
  196.3460  173.7840  141.6530 C   0  0  2  0  0  3  0  0  0  0  0  0
  196.9710  175.9000  142.7410 C   0  0  0  0  0  2  0  0  0  0  0  0
  196.2530  176.7750  143.6560 N   0  0  0  0  0  2  0  0  0  0  0  0
  193.7780  176.7390  146.4430 C   0  0  0  0  0  3  0  0  0  0  0  0
  194.6720  177.1960  145.4680 C   0  0  0  0  0  3  0  0  0  0  0  0
  194.2140  174.4530  145.7740 C   0  0  0  0  0  3  0  0  0  0  0  0
  195.3420  176.2840  144.6440 C   0  0  0  0  0  0  0  0  0  0  0  0
  195.1090  174.9090  144.8000 C   0  0  0  0  0  3  0  0  0  0  0  0
  193.5490  175.3680  146.5950 C   0  0  0  0  0  3  0  0  0  0  0  0
  192.2370  175.3730  142.5080 C   0  0  0  0  0  3  0  0  0  0  0  0
  192.0850  174.0630  142.7090 C   0  0  0  0  0  3  0  0  0  0  0  0
  191.6840  176.3700  143.4720 C   0  0  0  0  0  2  0  0  0  0  0  0
  190.5240  175.7730  144.2470 C   0  0  0  0  0  2  0  0  0  0  0  0
  189.4850  176.8620  144.5380 C   0  0  1  0  0  3  0  0  0  0  0  0
  188.1690  177.8240  142.7890 C   0  0  0  0  0  2  0  0  0  0  0  0
  188.2820  176.6840  143.6960 N   0  0  0  0  0  0  0  0  0  0  0  0
  187.7270  175.8330  141.5210 C   0  0  0  0  0  2  0  0  0  0  0  0
  188.4430  175.5280  142.8120 C   0  0  0  0  0  2  0  0  0  0  0  0
  187.8220  177.3250  141.3970 C   0  0  0  0  0  2  0  0  0  0  0  0
  189.1270  176.8150  146.0460 C   0  0  2  0  0  3  0  0  0  0  0  0
  189.9670  175.8120  146.8410 C   0  0  0  0  0  2  0  0  0  0  0  0
  189.1360  174.6380  147.3360 C   0  0  0  0  0  1  0  0  0  0  0  0
  187.7110  176.5270  146.2530 N   0  0  0  0  0  2  0  0  0  0  0  0
  187.1340  177.6650  146.9510 C   0  0  0  0  0  2  0  0  0  0  0  0
  185.1070  176.8480  145.9970 O   0  0  0  0  0  0  0  0  0  0  0  0
  185.6520  177.6530  146.7990 C   0  0  0  0  0  0  0  0  0  0  0  0
  184.8670  178.5060  147.5650 O   0  0  0  0  0  1  0  0  0  0  0  0
  1 14  1  0  0  0  0
  1 29  1  1  0  0  0
  3 10  1  0  0  0  0
  4  9  1  0  0  0  0
  5 10  2  0  0  0  0
  5  8  1  0  0  0  0
  6  9  1  0  0  0  0
  6  1  1  1  0  0  0
  7  6  1  0  0  0  0
  8 11  1  0  0  0  0
  9  2  1  1  0  0  0
 10 12  1  0  0  0  0
 11  4  2  0  0  0  0
 12 11  1  0  0  0  0
 12  7  2  0  0  0  0
 14 13  1  1  0  0  0
 15 14  1  0  0  0  0
 16 15  1  0  0  0  0
 17 20  1  1  0  0  0
 18 19  1  0  0  0  0
 18 17  1  0  0  0  0
 19 16  1  6  0  0  0
 19 17  1  0  0  0  0
 20 21  1  0  0  0  0
 21 25  1  0  0  0  0
 22 27  1  0  0  0  0
 23 22  2  0  0  0  0
 24 27  2  0  0  0  0
 25 26  2  0  0  0  0
 25 23  1  0  0  0  0
 26 24  1  0  0  0  0
 28 29  2  0  0  0  0
 28 30  1  0  0  0  0
 30 31  1  0  0  0  0
 32 31  1  1  0  0  0
 32 38  1  0  0  0  0
 33 34  1  0  0  0  0
 34 32  1  0  0  0  0
 35 36  1  0  0  0  0
 36 34  1  0  0  0  0
 37 35  1  0  0  0  0
 37 33  1  0  0  0  0
 38 41  1  0  0  0  0
 38 39  1  1  0  0  0
 39 40  1  0  0  0  0
 41 42  1  0  0  0  0
 43 44  2  0  0  0  0
 44 42  1  0  0  0  0
 44 45  1  0  0  0  0
M  END
>  <MODEL>
4

>  <REMARK>
 VINA RESULT:      -5.9      2.701      8.609
  Name = 
  18 active torsions:
  status: ('A' for Active; 'I' for Inactive)
    1  A    between atoms: C_6  and  C_12
    2  A    between atoms: C_6  and  C_17
    3  A    between atoms: C_6  and  C_30
    4  A    between atoms: N_8  and  C_23
    5  A    between atoms: N_8  and  C_44
    6  A    between atoms: C_9  and  C_13
    7  A    between atoms: C_10  and  C_39
    8  A    between atoms: C_13  and  C_45
    9  A    between atoms: N_14  and  C_21
   10  A    between atoms: N_14  and  C_39
   11  A    between atoms: C_18  and  C_44
   12  A    between atoms: C_20  and  C_21
   13  A    between atoms: C_22  and  N_27
   14  A    between atoms: C_22  and  C_39
   15  A    between atoms: C_22  and  C_45
   16  A    between atoms: C_30  and  C_41
   17  A    between atoms: C_38  and  N_40
   18  A    between atoms: N_40  and  C_41
                            x       y       z     vdW  Elec       q    Type
                         _______ _______ _______ _____ _____    ______ ____

>  <TORSDO>
F 18

$$$$
=
 OpenBabel11042414143D

 45 49  0  0  1  0  0  0  0  0999 V2000
  191.2350  173.7350  142.5970 C   0  0  2  0  0  3  0  0  0  0  0  0
  189.6140  172.3650  140.2830 F   0  0  0  0  0  0  0  0  0  0  0  0
  195.3480  175.2200  139.2000 N   0  0  0  0  0  1  0  0  0  0  0  0
  190.9350  173.5150  138.7490 N   0  0  0  0  0  0  0  0  0  0  0  0
  193.8060  174.7190  137.3610 N   0  0  0  0  0  0  0  0  0  0  0  0
  191.6600  173.3150  141.1730 C   0  0  2  0  0  3  0  0  0  0  0  0
  192.8990  174.0570  140.7030 C   0  0  0  0  0  3  0  0  0  0  0  0
  192.5810  174.2150  137.2270 N   0  0  0  0  0  2  0  0  0  0  0  0
  190.4840  173.4300  140.1490 C   0  0  2  0  0  3  0  0  0  0  0  0
  194.0990  174.7790  138.6790 C   0  0  0  0  0  0  0  0  0  0  0  0
  192.1190  173.9590  138.4640 C   0  0  0  0  0  0  0  0  0  0  0  0
  193.0490  174.2770  139.4040 C   0  0  0  0  0  0  0  0  0  0  0  0
  189.5570  172.5490  143.9320 O   0  0  0  0  0  1  0  0  0  0  0  0
  190.8790  172.5110  143.4730 C   0  0  2  0  0  3  0  0  0  0  0  0
  191.8120  172.4470  144.6700 C   0  0  0  0  0  2  0  0  0  0  0  0
  192.9800  171.6460  144.3480 N   0  0  0  0  0  2  0  0  0  0  0  0
  195.3390  171.9180  144.7880 C   0  0  1  0  0  3  0  0  0  0  0  0
  194.8620  170.6850  145.5270 C   0  0  0  0  0  2  0  0  0  0  0  0
  193.9520  171.8870  145.3980 C   0  0  2  0  0  3  0  0  0  0  0  0
  196.2470  172.7190  145.6970 C   0  0  0  0  0  2  0  0  0  0  0  0
  196.4280  174.0530  145.1450 N   0  0  0  0  0  2  0  0  0  0  0  0
  193.8210  176.5470  146.0820 C   0  0  0  0  0  3  0  0  0  0  0  0
  194.8680  175.6240  146.1750 C   0  0  0  0  0  3  0  0  0  0  0  0
  193.7430  176.2190  143.6840 C   0  0  0  0  0  3  0  0  0  0  0  0
  195.3570  174.9950  145.0250 C   0  0  0  0  0  0  0  0  0  0  0  0
  194.7900  175.2960  143.7760 C   0  0  0  0  0  3  0  0  0  0  0  0
  193.2590  176.8440  144.8370 C   0  0  0  0  0  3  0  0  0  0  0  0
  190.2280  175.9480  143.0250 C   0  0  0  0  0  3  0  0  0  0  0  0
  190.1010  174.7200  142.5210 C   0  0  0  0  0  3  0  0  0  0  0  0
  189.1050  176.9310  142.9510 C   0  0  0  0  0  2  0  0  0  0  0  0
  188.9390  177.6470  144.2790 C   0  0  0  0  0  2  0  0  0  0  0  0
  187.9030  176.9090  145.1350 C   0  0  1  0  0  3  0  0  0  0  0  0
  188.8690  175.1930  146.4910 C   0  0  0  0  0  2  0  0  0  0  0  0
  188.4510  176.5940  146.4720 N   0  0  0  0  0  0  0  0  0  0  0  0
  190.5920  176.4860  147.5520 C   0  0  0  0  0  2  0  0  0  0  0  0
  189.6830  177.3460  146.7120 C   0  0  0  0  0  2  0  0  0  0  0  0
  190.2260  175.0830  147.1640 C   0  0  0  0  0  2  0  0  0  0  0  0
  186.6320  177.7900  145.2430 C   0  0  2  0  0  3  0  0  0  0  0  0
  186.1490  177.9910  146.6810 C   0  0  0  0  0  2  0  0  0  0  0  0
  184.6340  178.1130  146.7620 C   0  0  0  0  0  1  0  0  0  0  0  0
  185.5380  177.2550  144.4380 N   0  0  0  0  0  2  0  0  0  0  0  0
  185.5190  177.9920  143.1840 C   0  0  0  0  0  2  0  0  0  0  0  0
  183.6420  178.0330  141.7150 O   0  0  0  0  0  0  0  0  0  0  0  0
  184.1180  178.3600  142.8350 C   0  0  0  0  0  0  0  0  0  0  0  0
  183.3260  179.0330  143.7570 O   0  0  0  0  0  1  0  0  0  0  0  0
  1 29  1  6  0  0  0
  1 14  1  0  0  0  0
  4  9  1  0  0  0  0
  5 10  2  0  0  0  0
  6  1  1  1  0  0  0
  7  6  1  0  0  0  0
  8  5  1  0  0  0  0
  8 11  1  0  0  0  0
  9  2  1  6  0  0  0
  9  6  1  0  0  0  0
 10  3  1  0  0  0  0
 10 12  1  0  0  0  0
 11  4  2  0  0  0  0
 11 12  1  0  0  0  0
 12  7  2  0  0  0  0
 14 13  1  1  0  0  0
 14 15  1  0  0  0  0
 16 15  1  0  0  0  0
 17 19  1  0  0  0  0
 17 18  1  0  0  0  0
 17 20  1  1  0  0  0
 19 16  1  6  0  0  0
 19 18  1  0  0  0  0
 21 20  1  0  0  0  0
 22 23  1  0  0  0  0
 24 26  2  0  0  0  0
 24 27  1  0  0  0  0
 25 21  1  0  0  0  0
 25 23  2  0  0  0  0
 26 25  1  0  0  0  0
 27 22  2  0  0  0  0
 29 28  2  0  0  0  0
 30 28  1  0  0  0  0
 30 31  1  0  0  0  0
 32 31  1  6  0  0  0
 32 38  1  0  0  0  0
 32 34  1  0  0  0  0
 33 37  1  0  0  0  0
 34 33  1  0  0  0  0
 34 36  1  0  0  0  0
 36 35  1  0  0  0  0
 37 35  1  0  0  0  0
 38 39  1  1  0  0  0
 39 40  1  0  0  0  0
 41 38  1  0  0  0  0
 42 41  1  0  0  0  0
 43 44  2  0  0  0  0
 44 42  1  0  0  0  0
 44 45  1  0  0  0  0
M  END
>  <MODEL>
5

>  <REMARK>
 VINA RESULT:      -5.8      2.803      7.993
  Name = 
  18 active torsions:
  status: ('A' for Active; 'I' for Inactive)
    1  A    between atoms: C_6  and  C_12
    2  A    between atoms: C_6  and  C_17
    3  A    between atoms: C_6  and  C_30
    4  A    between atoms: N_8  and  C_23
    5  A    between atoms: N_8  and  C_44
    6  A    between atoms: C_9  and  C_13
    7  A    between atoms: C_10  and  C_39
    8  A    between atoms: C_13  and  C_45
    9  A    between atoms: N_14  and  C_21
   10  A    between atoms: N_14  and  C_39
   11  A    between atoms: C_18  and  C_44
   12  A    between atoms: C_20  and  C_21
   13  A    between atoms: C_22  and  N_27
   14  A    between atoms: C_22  and  C_39
   15  A    between atoms: C_22  and  C_45
   16  A    between atoms: C_30  and  C_41
   17  A    between atoms: C_38  and  N_40
   18  A    between atoms: N_40  and  C_41
                            x       y       z     vdW  Elec       q    Type
                         _______ _______ _______ _____ _____    ______ ____

>  <TORSDO>
F 18

$$$$
=
 OpenBabel11042414143D

 45 49  0  0  1  0  0  0  0  0999 V2000
  191.0250  173.7140  141.4210 C   0  0  2  0  0  3  0  0  0  0  0  0
  189.9330  171.0450  140.1790 F   0  0  0  0  0  0  0  0  0  0  0  0
  193.9980  171.0320  145.2470 N   0  0  0  0  0  1  0  0  0  0  0  0
  191.6320  169.8980  141.2840 N   0  0  0  0  0  0  0  0  0  0  0  0
  193.6430  169.0190  143.8920 N   0  0  0  0  0  0  0  0  0  0  0  0
  191.0280  172.2680  141.9630 C   0  0  2  0  0  3  0  0  0  0  0  0
  192.0790  172.0620  143.0400 C   0  0  0  0  0  3  0  0  0  0  0  0
  192.9580  168.6890  142.7990 N   0  0  0  0  0  2  0  0  0  0  0  0
  191.1470  171.2090  140.8190 C   0  0  2  0  0  3  0  0  0  0  0  0
  193.4570  170.3370  144.1290 C   0  0  0  0  0  0  0  0  0  0  0  0
  192.3450  169.8040  142.3620 C   0  0  0  0  0  0  0  0  0  0  0  0
  192.6120  170.8570  143.1810 C   0  0  0  0  0  0  0  0  0  0  0  0
  192.1980  175.7560  142.0980 O   0  0  0  0  0  1  0  0  0  0  0  0
  192.3700  174.4280  141.6880 C   0  0  2  0  0  3  0  0  0  0  0  0
  193.2200  174.4100  140.4290 C   0  0  0  0  0  2  0  0  0  0  0  0
  194.1380  175.5360  140.4330 N   0  0  0  0  0  2  0  0  0  0  0  0
  195.8570  176.3960  141.8970 C   0  0  1  0  0  3  0  0  0  0  0  0
  196.5340  175.7520  140.7050 C   0  0  0  0  0  2  0  0  0  0  0  0
  195.2630  175.1520  141.2660 C   0  0  2  0  0  3  0  0  0  0  0  0
  196.5900  175.9940  143.1590 C   0  0  0  0  0  2  0  0  0  0  0  0
  196.0300  176.7160  144.2920 N   0  0  0  0  0  2  0  0  0  0  0  0
  193.3210  176.5480  146.8460 C   0  0  0  0  0  3  0  0  0  0  0  0
  194.3830  177.0210  146.0680 C   0  0  0  0  0  3  0  0  0  0  0  0
  193.3700  174.4490  145.6390 C   0  0  0  0  0  3  0  0  0  0  0  0
  194.9440  176.2110  145.0740 C   0  0  0  0  0  0  0  0  0  0  0  0
  194.4320  174.9210  144.8620 C   0  0  0  0  0  3  0  0  0  0  0  0
  192.8150  175.2620  146.6320 C   0  0  0  0  0  3  0  0  0  0  0  0
  188.6070  174.0940  141.7480 C   0  0  0  0  0  3  0  0  0  0  0  0
  189.8620  174.4720  141.9980 C   0  0  0  0  0  3  0  0  0  0  0  0
  187.4480  174.8430  142.3190 C   0  0  0  0  0  2  0  0  0  0  0  0
  187.6690  176.3390  142.1920 C   0  0  0  0  0  2  0  0  0  0  0  0
  187.0520  177.0540  143.4010 C   0  0  1  0  0  3  0  0  0  0  0  0
  188.3100  177.1950  145.4280 C   0  0  0  0  0  2  0  0  0  0  0  0
  188.0740  177.8310  144.1340 N   0  0  0  0  0  0  0  0  0  0  0  0
  190.4460  177.7790  144.4980 C   0  0  0  0  0  2  0  0  0  0  0  0
  189.3650  177.7560  143.4480 C   0  0  0  0  0  2  0  0  0  0  0  0
  189.8040  177.1390  145.6950 C   0  0  0  0  0  2  0  0  0  0  0  0
  185.9020  177.9670  142.9020 C   0  0  2  0  0  3  0  0  0  0  0  0
  185.9530  178.2450  141.3970 C   0  0  0  0  0  2  0  0  0  0  0  0
  184.5680  178.2410  140.7700 C   0  0  0  0  0  1  0  0  0  0  0  0
  185.8710  179.2350  143.6250 N   0  0  0  0  0  2  0  0  0  0  0  0
  184.6380  179.2650  144.3960 C   0  0  0  0  0  2  0  0  0  0  0  0
  184.3650  177.6460  146.1250 O   0  0  0  0  0  0  0  0  0  0  0  0
  184.8860  178.7360  145.7670 C   0  0  0  0  0  0  0  0  0  0  0  0
  185.7180  179.4270  146.6380 O   0  0  0  0  0  1  0  0  0  0  0  0
  1 14  1  0  0  0  0
  1 29  1  1  0  0  0
  4 11  2  0  0  0  0
  5 10  2  0  0  0  0
  6  1  1  6  0  0  0
  6  7  1  0  0  0  0
  7 12  2  0  0  0  0
  8  5  1  0  0  0  0
  9  2  1  1  0  0  0
  9  4  1  0  0  0  0
  9  6  1  0  0  0  0
 10  3  1  0  0  0  0
 11  8  1  0  0  0  0
 11 12  1  0  0  0  0
 12 10  1  0  0  0  0
 14 13  1  6  0  0  0
 15 16  1  0  0  0  0
 15 14  1  0  0  0  0
 17 20  1  1  0  0  0
 18 19  1  0  0  0  0
 18 17  1  0  0  0  0
 19 16  1  6  0  0  0
 19 17  1  0  0  0  0
 20 21  1  0  0  0  0
 21 25  1  0  0  0  0
 23 22  2  0  0  0  0
 24 27  2  0  0  0  0
 25 23  1  0  0  0  0
 26 25  2  0  0  0  0
 26 24  1  0  0  0  0
 27 22  1  0  0  0  0
 28 29  2  0  0  0  0
 28 30  1  0  0  0  0
 31 30  1  0  0  0  0
 32 31  1  6  0  0  0
 32 34  1  0  0  0  0
 33 37  1  0  0  0  0
 34 33  1  0  0  0  0
 35 37  1  0  0  0  0
 36 34  1  0  0  0  0
 36 35  1  0  0  0  0
 38 39  1  6  0  0  0
 38 32  1  0  0  0  0
 38 41  1  0  0  0  0
 40 39  1  0  0  0  0
 41 42  1  0  0  0  0
 42 44  1  0  0  0  0
 44 43  2  0  0  0  0
 44 45  1  0  0  0  0
M  END
>  <MODEL>
6

>  <REMARK>
 VINA RESULT:      -5.8      2.686      8.231
  Name = 
  18 active torsions:
  status: ('A' for Active; 'I' for Inactive)
    1  A    between atoms: C_6  and  C_12
    2  A    between atoms: C_6  and  C_17
    3  A    between atoms: C_6  and  C_30
    4  A    between atoms: N_8  and  C_23
    5  A    between atoms: N_8  and  C_44
    6  A    between atoms: C_9  and  C_13
    7  A    between atoms: C_10  and  C_39
    8  A    between atoms: C_13  and  C_45
    9  A    between atoms: N_14  and  C_21
   10  A    between atoms: N_14  and  C_39
   11  A    between atoms: C_18  and  C_44
   12  A    between atoms: C_20  and  C_21
   13  A    between atoms: C_22  and  N_27
   14  A    between atoms: C_22  and  C_39
   15  A    between atoms: C_22  and  C_45
   16  A    between atoms: C_30  and  C_41
   17  A    between atoms: C_38  and  N_40
   18  A    between atoms: N_40  and  C_41
                            x       y       z     vdW  Elec       q    Type
                         _______ _______ _______ _____ _____    ______ ____

>  <TORSDO>
F 18

$$$$
=
 OpenBabel11042414143D

 45 49  0  0  1  0  0  0  0  0999 V2000
  189.7430  172.7620  141.0900 C   0  0  2  0  0  3  0  0  0  0  0  0
  188.2130  174.6370  139.0890 F   0  0  0  0  0  0  0  0  0  0  0  0
  190.8940  169.0470  137.1470 N   0  0  0  0  0  1  0  0  0  0  0  0
  189.2180  173.4910  137.3290 N   0  0  0  0  0  0  0  0  0  0  0  0
  190.2670  170.7880  135.5370 N   0  0  0  0  0  0  0  0  0  0  0  0
  189.2040  172.5010  139.6660 C   0  0  2  0  0  3  0  0  0  0  0  0
  189.8890  171.3180  139.0020 C   0  0  0  0  0  3  0  0  0  0  0  0
  189.7700  172.0220  135.5820 N   0  0  0  0  0  2  0  0  0  0  0  0
  189.2520  173.7820  138.7730 C   0  0  2  0  0  3  0  0  0  0  0  0
  190.4290  170.3480  136.8050 C   0  0  0  0  0  0  0  0  0  0  0  0
  189.6210  172.3440  136.8800 C   0  0  0  0  0  0  0  0  0  0  0  0
  190.0010  171.3130  137.6810 C   0  0  0  0  0  0  0  0  0  0  0  0
  187.3440  172.7070  141.5800 O   0  0  0  0  0  1  0  0  0  0  0  0
  188.6000  173.0530  142.0900 C   0  0  2  0  0  3  0  0  0  0  0  0
  188.5940  174.5300  142.4470 C   0  0  0  0  0  2  0  0  0  0  0  0
  187.3280  175.1290  142.0610 N   0  0  0  0  0  2  0  0  0  0  0  0
  186.1740  177.2490  141.9820 C   0  0  1  0  0  3  0  0  0  0  0  0
  187.0760  177.1600  140.7690 C   0  0  0  0  0  2  0  0  0  0  0  0
  187.5230  176.5670  142.0870 C   0  0  2  0  0  3  0  0  0  0  0  0
  186.2860  178.6350  142.5820 C   0  0  0  0  0  2  0  0  0  0  0  0
  185.2760  178.7970  143.6170 N   0  0  0  0  0  2  0  0  0  0  0  0
  185.9000  176.7250  146.6520 C   0  0  0  0  0  3  0  0  0  0  0  0
  185.6790  177.0960  145.3210 C   0  0  0  0  0  3  0  0  0  0  0  0
  185.7700  179.0490  147.3210 C   0  0  0  0  0  3  0  0  0  0  0  0
  185.5020  178.4430  144.9840 C   0  0  0  0  0  0  0  0  0  0  0  0
  185.5480  179.4200  145.9910 C   0  0  0  0  0  3  0  0  0  0  0  0
  185.9450  177.7020  147.6520 C   0  0  0  0  0  3  0  0  0  0  0  0
  192.0520  173.6240  141.2490 C   0  0  0  0  0  3  0  0  0  0  0  0
  190.7560  173.8730  141.0550 C   0  0  0  0  0  3  0  0  0  0  0  0
  193.0610  174.7240  141.2150 C   0  0  0  0  0  2  0  0  0  0  0  0
  192.9590  175.5780  142.4650 C   0  0  0  0  0  2  0  0  0  0  0  0
  193.3600  174.7470  143.6900 C   0  0  1  0  0  3  0  0  0  0  0  0
  194.7810  174.6680  145.6110 C   0  0  0  0  0  2  0  0  0  0  0  0
  194.6200  175.2500  144.2800 N   0  0  0  0  0  0  0  0  0  0  0  0
  196.9040  174.5460  144.4970 C   0  0  0  0  0  2  0  0  0  0  0  0
  195.7720  174.7580  143.5240 C   0  0  0  0  0  2  0  0  0  0  0  0
  196.2160  174.2050  145.7860 C   0  0  0  0  0  2  0  0  0  0  0  0
  192.2010  174.7900  144.7180 C   0  0  2  0  0  3  0  0  0  0  0  0
  191.3890  173.4940  144.7770 C   0  0  0  0  0  2  0  0  0  0  0  0
  192.2540  172.2680  144.5240 C   0  0  0  0  0  1  0  0  0  0  0  0
  191.3000  175.9110  144.4650 N   0  0  0  0  0  2  0  0  0  0  0  0
  190.1830  175.7880  145.3890 C   0  0  0  0  0  2  0  0  0  0  0  0
  189.1210  177.8940  145.0440 O   0  0  0  0  0  0  0  0  0  0  0  0
  189.7460  177.1400  145.8360 C   0  0  0  0  0  0  0  0  0  0  0  0
  189.9980  177.5570  147.1370 O   0  0  0  0  0  1  0  0  0  0  0  0
  1 29  1  6  0  0  0
  1 14  1  0  0  0  0
  4  9  1  0  0  0  0
  5  8  1  0  0  0  0
  5 10  2  0  0  0  0
  6  1  1  1  0  0  0
  7  6  1  0  0  0  0
  8 11  1  0  0  0  0
  9  2  1  1  0  0  0
  9  6  1  0  0  0  0
 10  3  1  0  0  0  0
 10 12  1  0  0  0  0
 11  4  2  0  0  0  0
 11 12  1  0  0  0  0
 12  7  2  0  0  0  0
 14 13  1  6  0  0  0
 14 15  1  0  0  0  0
 16 15  1  0  0  0  0
 17 19  1  0  0  0  0
 17 20  1  1  0  0  0
 18 17  1  0  0  0  0
 18 19  1  0  0  0  0
 19 16  1  6  0  0  0
 20 21  1  0  0  0  0
 21 25  1  0  0  0  0
 22 27  1  0  0  0  0
 23 22  2  0  0  0  0
 24 27  2  0  0  0  0
 25 23  1  0  0  0  0
 25 26  2  0  0  0  0
 26 24  1  0  0  0  0
 29 28  2  0  0  0  0
 30 28  1  0  0  0  0
 30 31  1  0  0  0  0
 32 31  1  6  0  0  0
 32 34  1  0  0  0  0
 32 38  1  0  0  0  0
 33 37  1  0  0  0  0
 34 33  1  0  0  0  0
 35 37  1  0  0  0  0
 36 34  1  0  0  0  0
 36 35  1  0  0  0  0
 38 39  1  6  0  0  0
 40 39  1  0  0  0  0
 41 38  1  0  0  0  0
 41 42  1  0  0  0  0
 42 44  1  0  0  0  0
 43 44  2  0  0  0  0
 44 45  1  0  0  0  0
M  END
>  <MODEL>
7

>  <REMARK>
 VINA RESULT:      -5.7      2.491      6.823
  Name = 
  18 active torsions:
  status: ('A' for Active; 'I' for Inactive)
    1  A    between atoms: C_6  and  C_12
    2  A    between atoms: C_6  and  C_17
    3  A    between atoms: C_6  and  C_30
    4  A    between atoms: N_8  and  C_23
    5  A    between atoms: N_8  and  C_44
    6  A    between atoms: C_9  and  C_13
    7  A    between atoms: C_10  and  C_39
    8  A    between atoms: C_13  and  C_45
    9  A    between atoms: N_14  and  C_21
   10  A    between atoms: N_14  and  C_39
   11  A    between atoms: C_18  and  C_44
   12  A    between atoms: C_20  and  C_21
   13  A    between atoms: C_22  and  N_27
   14  A    between atoms: C_22  and  C_39
   15  A    between atoms: C_22  and  C_45
   16  A    between atoms: C_30  and  C_41
   17  A    between atoms: C_38  and  N_40
   18  A    between atoms: N_40  and  C_41
                            x       y       z     vdW  Elec       q    Type
                         _______ _______ _______ _____ _____    ______ ____

>  <TORSDO>
F 18

$$$$
=
 OpenBabel11042414143D

 45 49  0  0  1  0  0  0  0  0999 V2000
  191.0730  174.4200  143.5920 C   0  0  2  0  0  3  0  0  0  0  0  0
  188.2590  175.6240  142.8940 F   0  0  0  0  0  0  0  0  0  0  0  0
  190.8250  170.7470  139.4550 N   0  0  0  0  0  1  0  0  0  0  0  0
  188.3980  174.6030  140.8070 N   0  0  0  0  0  0  0  0  0  0  0  0
  188.9750  172.0940  138.5730 N   0  0  0  0  0  0  0  0  0  0  0  0
  189.9360  173.8850  142.6940 C   0  0  2  0  0  3  0  0  0  0  0  0
  190.4330  172.8580  141.6910 C   0  0  0  0  0  3  0  0  0  0  0  0
  188.2730  173.1570  138.9610 N   0  0  0  0  0  2  0  0  0  0  0  0
  189.1380  175.0390  142.0030 C   0  0  2  0  0  3  0  0  0  0  0  0
  189.9180  171.8430  139.5090 C   0  0  0  0  0  0  0  0  0  0  0  0
  188.7800  173.5600  140.1400 C   0  0  0  0  0  0  0  0  0  0  0  0
  189.7990  172.7480  140.5320 C   0  0  0  0  0  0  0  0  0  0  0  0
  192.6800  175.8250  142.3910 O   0  0  0  0  0  1  0  0  0  0  0  0
  191.5170  175.8400  143.1690 C   0  0  2  0  0  3  0  0  0  0  0  0
  191.7640  176.6890  144.4050 C   0  0  0  0  0  2  0  0  0  0  0  0
  190.5650  177.4350  144.7430 N   0  0  0  0  0  2  0  0  0  0  0  0
  188.8040  177.4780  146.3960 C   0  0  1  0  0  3  0  0  0  0  0  0
  190.0840  177.0500  147.0840 C   0  0  0  0  0  2  0  0  0  0  0  0
  189.8060  176.6090  145.6630 C   0  0  2  0  0  3  0  0  0  0  0  0
  187.6670  176.6030  146.8780 C   0  0  0  0  0  2  0  0  0  0  0  0
  186.4170  177.3440  146.7920 N   0  0  0  0  0  2  0  0  0  0  0  0
  185.2590  177.6060  143.2590 C   0  0  0  0  0  3  0  0  0  0  0  0
  185.7300  177.0750  144.4650 C   0  0  0  0  0  3  0  0  0  0  0  0
  185.1860  179.8110  144.2570 C   0  0  0  0  0  3  0  0  0  0  0  0
  185.9330  177.9090  145.5710 C   0  0  0  0  0  0  0  0  0  0  0  0
  185.6580  179.2820  145.4620 C   0  0  0  0  0  3  0  0  0  0  0  0
  184.9870  178.9740  143.1560 C   0  0  0  0  0  3  0  0  0  0  0  0
  192.5090  172.7310  144.6790 C   0  0  0  0  0  3  0  0  0  0  0  0
  192.2210  173.4490  143.5920 C   0  0  0  0  0  3  0  0  0  0  0  0
  193.6480  171.7650  144.6850 C   0  0  0  0  0  2  0  0  0  0  0  0
  194.7920  172.2870  143.8360 C   0  0  0  0  0  2  0  0  0  0  0  0
  195.7790  173.0580  144.7210 C   0  0  1  0  0  3  0  0  0  0  0  0
  196.8060  171.4290  146.1380 C   0  0  0  0  0  2  0  0  0  0  0  0
  197.0060  172.2660  144.9570 N   0  0  0  0  0  0  0  0  0  0  0  0
  197.8530  170.0780  144.4510 C   0  0  0  0  0  2  0  0  0  0  0  0
  197.2200  171.3150  143.8660 C   0  0  0  0  0  2  0  0  0  0  0  0
  197.3260  170.0300  145.8560 C   0  0  0  0  0  2  0  0  0  0  0  0
  196.1060  174.4100  144.0370 C   0  0  2  0  0  3  0  0  0  0  0  0
  195.4050  175.6060  144.6840 C   0  0  0  0  0  2  0  0  0  0  0  0
  194.8880  175.2790  146.0770 C   0  0  0  0  0  1  0  0  0  0  0  0
  195.7910  174.3810  142.6110 N   0  0  0  0  0  2  0  0  0  0  0  0
  196.9470  174.9030  141.9000 C   0  0  0  0  0  2  0  0  0  0  0  0
  196.4860  175.5680  139.6570 O   0  0  0  0  0  0  0  0  0  0  0  0
  196.5060  175.8900  140.8750 C   0  0  0  0  0  0  0  0  0  0  0  0
  196.0830  177.1550  141.2650 O   0  0  0  0  0  1  0  0  0  0  0  0
  1 29  1  6  0  0  0
  3 10  1  0  0  0  0
  4  9  1  0  0  0  0
  5  8  1  0  0  0  0
  5 10  2  0  0  0  0
  6  1  1  6  0  0  0
  7  6  1  0  0  0  0
  8 11  1  0  0  0  0
  9  6  1  0  0  0  0
  9  2  1  1  0  0  0
 10 12  1  0  0  0  0
 11 12  1  0  0  0  0
 11  4  2  0  0  0  0
 12  7  2  0  0  0  0
 14 13  1  1  0  0  0
 14  1  1  0  0  0  0
 14 15  1  0  0  0  0
 15 16  1  0  0  0  0
 17 20  1  1  0  0  0
 17 18  1  0  0  0  0
 19 16  1  6  0  0  0
 19 17  1  0  0  0  0
 19 18  1  0  0  0  0
 21 20  1  0  0  0  0
 22 23  1  0  0  0  0
 23 25  2  0  0  0  0
 24 26  2  0  0  0  0
 25 21  1  0  0  0  0
 26 25  1  0  0  0  0
 27 22  2  0  0  0  0
 27 24  1  0  0  0  0
 28 30  1  0  0  0  0
 29 28  2  0  0  0  0
 31 30  1  0  0  0  0
 32 31  1  6  0  0  0
 32 34  1  0  0  0  0
 34 33  1  0  0  0  0
 35 37  1  0  0  0  0
 36 35  1  0  0  0  0
 36 34  1  0  0  0  0
 37 33  1  0  0  0  0
 38 39  1  1  0  0  0
 38 32  1  0  0  0  0
 39 40  1  0  0  0  0
 41 38  1  0  0  0  0
 42 41  1  0  0  0  0
 43 44  2  0  0  0  0
 44 45  1  0  0  0  0
 44 42  1  0  0  0  0
M  END
>  <MODEL>
8

>  <REMARK>
 VINA RESULT:      -5.7      2.899      5.641
  Name = 
  18 active torsions:
  status: ('A' for Active; 'I' for Inactive)
    1  A    between atoms: C_6  and  C_12
    2  A    between atoms: C_6  and  C_17
    3  A    between atoms: C_6  and  C_30
    4  A    between atoms: N_8  and  C_23
    5  A    between atoms: N_8  and  C_44
    6  A    between atoms: C_9  and  C_13
    7  A    between atoms: C_10  and  C_39
    8  A    between atoms: C_13  and  C_45
    9  A    between atoms: N_14  and  C_21
   10  A    between atoms: N_14  and  C_39
   11  A    between atoms: C_18  and  C_44
   12  A    between atoms: C_20  and  C_21
   13  A    between atoms: C_22  and  N_27
   14  A    between atoms: C_22  and  C_39
   15  A    between atoms: C_22  and  C_45
   16  A    between atoms: C_30  and  C_41
   17  A    between atoms: C_38  and  N_40
   18  A    between atoms: N_40  and  C_41
                            x       y       z     vdW  Elec       q    Type
                         _______ _______ _______ _____ _____    ______ ____

>  <TORSDO>
F 18

$$$$
=
 OpenBabel11042414143D

 45 49  0  0  1  0  0  0  0  0999 V2000
  189.2550  175.7930  142.6540 C   0  0  2  0  0  3  0  0  0  0  0  0
  188.4180  178.4600  141.2240 F   0  0  0  0  0  0  0  0  0  0  0  0
  186.4790  177.0820  147.2690 N   0  0  0  0  0  1  0  0  0  0  0  0
  186.7430  178.7260  142.8180 N   0  0  0  0  0  0  0  0  0  0  0  0
  185.3560  178.8020  145.9310 N   0  0  0  0  0  0  0  0  0  0  0  0
  188.6470  177.0960  143.2160 C   0  0  2  0  0  3  0  0  0  0  0  0
  187.9770  176.8820  144.5620 C   0  0  0  0  0  3  0  0  0  0  0  0
  185.4450  179.2870  144.6940 N   0  0  0  0  0  2  0  0  0  0  0  0
  187.6920  177.7910  142.1910 C   0  0  2  0  0  3  0  0  0  0  0  0
  186.2550  177.8020  146.0620 C   0  0  0  0  0  0  0  0  0  0  0  0
  186.4050  178.5870  144.0610 C   0  0  0  0  0  0  0  0  0  0  0  0
  186.9560  177.6610  144.8910 C   0  0  0  0  0  0  0  0  0  0  0  0
  189.3590  173.6410  143.8200 O   0  0  0  0  0  1  0  0  0  0  0  0
  188.5070  174.5420  143.1720 C   0  0  2  0  0  3  0  0  0  0  0  0
  187.8320  173.8310  142.0110 C   0  0  0  0  0  2  0  0  0  0  0  0
  188.2850  174.3950  140.7520 N   0  0  0  0  0  2  0  0  0  0  0  0
  190.0760  173.3790  139.4880 C   0  0  1  0  0  3  0  0  0  0  0  0
  188.9900  173.7900  138.5160 C   0  0  0  0  0  2  0  0  0  0  0  0
  188.6190  173.2760  139.8900 C   0  0  2  0  0  3  0  0  0  0  0  0
  190.5740  171.9980  139.1190 C   0  0  0  0  0  2  0  0  0  0  0  0
  191.8700  172.1100  138.4650 N   0  0  0  0  0  2  0  0  0  0  0  0
  194.6350  172.0950  140.9640 C   0  0  0  0  0  3  0  0  0  0  0  0
  193.4760  171.7390  140.2660 C   0  0  0  0  0  3  0  0  0  0  0  0
  194.9730  173.9590  139.4560 C   0  0  0  0  0  3  0  0  0  0  0  0
  193.0590  172.4920  139.1620 C   0  0  0  0  0  0  0  0  0  0  0  0
  193.8140  173.6050  138.7580 C   0  0  0  0  0  3  0  0  0  0  0  0
  195.3840  173.2050  140.5590 C   0  0  0  0  0  3  0  0  0  0  0  0
  191.6080  175.3460  142.0500 C   0  0  0  0  0  3  0  0  0  0  0  0
  190.7250  175.7390  142.9700 C   0  0  0  0  0  3  0  0  0  0  0  0
  193.0680  175.2910  142.3580 C   0  0  0  0  0  2  0  0  0  0  0  0
  193.3270  174.3800  143.5440 C   0  0  0  0  0  2  0  0  0  0  0  0
  194.3790  175.0150  144.4600 C   0  0  1  0  0  3  0  0  0  0  0  0
  193.9900  176.3190  146.4260 C   0  0  0  0  0  2  0  0  0  0  0  0
  193.9480  174.9670  145.8740 N   0  0  0  0  0  0  0  0  0  0  0  0
  191.9400  175.2970  147.1480 C   0  0  0  0  0  2  0  0  0  0  0  0
  192.5400  174.5770  145.9670 C   0  0  0  0  0  2  0  0  0  0  0  0
  192.7310  176.5700  147.2380 C   0  0  0  0  0  2  0  0  0  0  0  0
  195.7250  174.2720  144.2580 C   0  0  2  0  0  3  0  0  0  0  0  0
  195.9620  173.1520  145.2730 C   0  0  0  0  0  2  0  0  0  0  0  0
  197.1850  173.4160  146.1380 C   0  0  0  0  0  1  0  0  0  0  0  0
  196.8570  175.1950  144.2850 N   0  0  0  0  0  2  0  0  0  0  0  0
  196.4490  176.4040  143.5880 C   0  0  0  0  0  2  0  0  0  0  0  0
  197.8330  175.6670  141.7920 O   0  0  0  0  0  1  0  0  0  0  0  0
  196.8010  176.2980  142.1440 C   0  0  0  0  0  0  0  0  0  0  0  0
  195.9730  176.8650  141.1830 O   0  0  0  0  0  0  0  0  0  0  0  0
  1 29  1  1  0  0  0
  1 14  1  0  0  0  0
  4 11  2  0  0  0  0
  5 10  2  0  0  0  0
  6  1  1  6  0  0  0
  6  7  1  0  0  0  0
  7 12  2  0  0  0  0
  8  5  1  0  0  0  0
  9  2  1  6  0  0  0
  9  4  1  0  0  0  0
  9  6  1  0  0  0  0
 10  3  1  0  0  0  0
 11  8  1  0  0  0  0
 11 12  1  0  0  0  0
 12 10  1  0  0  0  0
 14 13  1  6  0  0  0
 15 14  1  0  0  0  0
 16 15  1  0  0  0  0
 17 20  1  6  0  0  0
 17 19  1  0  0  0  0
 18 17  1  0  0  0  0
 18 19  1  0  0  0  0
 19 16  1  1  0  0  0
 21 20  1  0  0  0  0
 21 25  1  0  0  0  0
 23 22  2  0  0  0  0
 24 27  2  0  0  0  0
 25 23  1  0  0  0  0
 26 25  2  0  0  0  0
 26 24  1  0  0  0  0
 27 22  1  0  0  0  0
 28 30  1  0  0  0  0
 28 29  2  0  0  0  0
 30 31  1  0  0  0  0
 32 31  1  6  0  0  0
 32 34  1  0  0  0  0
 33 37  1  0  0  0  0
 34 36  1  0  0  0  0
 34 33  1  0  0  0  0
 35 37  1  0  0  0  0
 36 35  1  0  0  0  0
 38 41  1  0  0  0  0
 38 32  1  0  0  0  0
 38 39  1  1  0  0  0
 39 40  1  0  0  0  0
 42 41  1  0  0  0  0
 43 44  1  0  0  0  0
 44 42  1  0  0  0  0
 45 44  2  0  0  0  0
M  END
>  <MODEL>
9

>  <REMARK>
 VINA RESULT:      -5.6      2.961      7.635
  Name = 
  18 active torsions:
  status: ('A' for Active; 'I' for Inactive)
    1  A    between atoms: C_6  and  C_12
    2  A    between atoms: C_6  and  C_17
    3  A    between atoms: C_6  and  C_30
    4  A    between atoms: N_8  and  C_23
    5  A    between atoms: N_8  and  C_44
    6  A    between atoms: C_9  and  C_13
    7  A    between atoms: C_10  and  C_39
    8  A    between atoms: C_13  and  C_45
    9  A    between atoms: N_14  and  C_21
   10  A    between atoms: N_14  and  C_39
   11  A    between atoms: C_18  and  C_44
   12  A    between atoms: C_20  and  C_21
   13  A    between atoms: C_22  and  N_27
   14  A    between atoms: C_22  and  C_39
   15  A    between atoms: C_22  and  C_45
   16  A    between atoms: C_30  and  C_41
   17  A    between atoms: C_38  and  N_40
   18  A    between atoms: N_40  and  C_41
                            x       y       z     vdW  Elec       q    Type
                         _______ _______ _______ _____ _____    ______ ____

>  <TORSDO>
F 18

$$$$
