=
 OpenBabel11042417083D

 38 40  0  0  1  0  0  0  0  0999 V2000
  187.8160  172.6870  139.6870 O   0  0  0  0  0  0  0  0  0  0  0  0
  188.7050  172.9270  140.5450 C   0  0  0  0  0  0  0  0  0  0  0  0
  188.5890  173.9350  141.6500 C   0  0  1  0  0  3  0  0  0  0  0  0
  190.4390  171.1470  139.8390 N   0  0  0  0  0  0  0  0  0  0  0  0
  189.9820  172.2460  140.6290 C   0  0  0  0  0  0  0  0  0  0  0  0
  190.2980  174.3040  143.4850 C   0  0  0  0  0  2  0  0  0  0  0  0
  191.7600  170.6780  140.0000 N   0  0  0  0  0  2  0  0  0  0  0  0
  189.9000  173.7050  142.3630 C   0  0  0  0  0  0  0  0  0  0  0  0
  190.6590  172.6650  141.6720 C   0  0  0  0  0  0  0  0  0  0  0  0
  192.0900  170.6500  141.4320 C   0  0  0  0  0  2  0  0  0  0  0  0
  191.9760  172.0570  142.0490 C   0  0  0  0  0  2  0  0  0  0  0  0
  189.4590  175.3220  144.1800 C   0  0  0  0  0  2  0  0  0  0  0  0
  189.6320  177.8090  144.0730 C   0  0  0  0  0  1  0  0  0  0  0  0
  190.3040  176.5340  144.5500 C   0  0  1  0  0  3  0  0  0  0  0  0
  190.5940  176.6220  146.0530 C   0  0  1  0  0  3  0  0  0  0  0  0
  189.4860  177.2810  146.8690 C   0  0  0  0  0  1  0  0  0  0  0  0
  191.0610  175.2990  146.6650 C   0  0  0  0  0  2  0  0  0  0  0  0
  192.5720  175.2170  146.8580 C   0  0  2  0  0  3  0  0  0  0  0  0
  194.5400  176.0350  144.7200 C   0  0  2  0  0  3  0  0  0  0  0  0
  194.5680  176.6120  146.1430 C   0  0  0  0  0  2  0  0  0  0  0  0
  193.5340  174.8860  144.5340 C   0  0  0  0  0  2  0  0  0  0  0  0
  193.1660  176.6280  146.7460 C   0  0  0  0  0  2  0  0  0  0  0  0
  193.1850  174.2170  145.8620 C   0  0  0  0  0  2  0  0  0  0  0  0
  196.6120  176.3600  143.2960 N   0  0  0  0  0  2  0  0  0  0  0  0
  196.4410  174.6100  144.8370 O   0  0  0  0  0  0  0  0  0  0  0  0
  195.9090  175.6170  144.2960 C   0  0  0  0  0  0  0  0  0  0  0  0
  197.9410  175.9810  142.8480 C   0  0  0  0  0  1  0  0  0  0  0  0
  188.5600  175.2820  141.0940 N   0  0  0  0  0  2  0  0  0  0  0  0
  186.1010  176.0320  143.5140 C   0  0  0  0  0  3  0  0  0  0  0  0
  187.4790  176.1900  141.3080 C   0  0  0  0  0  0  0  0  0  0  0  0
  186.7880  176.1120  142.4100 C   0  0  0  0  0  0  0  0  0  0  0  0
  187.1140  177.2180  140.2890 C   0  0  0  0  0  1  0  0  0  0  0  0
  185.5090  177.2000  144.0740 N   0  0  0  0  0  2  0  0  0  0  0  0
  186.0520  177.8030  145.2840 C   0  0  2  0  0  3  0  0  0  0  0  0
  185.9260  176.8150  146.4340 C   0  0  0  0  0  1  0  0  0  0  0  0
  183.8920  178.8100  146.0630 C   0  0  0  0  0  1  0  0  0  0  0  0
  185.2400  180.0030  144.3880 C   0  0  0  0  0  1  0  0  0  0  0  0
  185.3110  179.1010  145.6090 C   0  0  0  0  0  3  0  0  0  0  0  0
  1  2  2  0  0  0  0
  2  5  1  0  0  0  0
  2  3  1  0  0  0  0
  3 28  1  6  0  0  0
  3  8  1  0  0  0  0
  4  7  1  0  0  0  0
  4  5  2  0  0  0  0
  5  9  1  0  0  0  0
  6 12  1  0  0  0  0
  7 10  1  0  0  0  0
  8  6  1  0  0  0  0
  9 11  1  0  0  0  0
  9  8  2  0  0  0  0
 10 11  1  0  0  0  0
 12 14  1  0  0  0  0
 14 13  1  1  0  0  0
 14 15  1  0  0  0  0
 15 17  1  0  0  0  0
 15 16  1  1  0  0  0
 18 17  1  6  0  0  0
 19 26  1  1  0  0  0
 19 20  1  0  0  0  0
 20 22  1  0  0  0  0
 21 19  1  0  0  0  0
 21 23  1  0  0  0  0
 22 18  1  0  0  0  0
 23 18  1  0  0  0  0
 24 26  1  0  0  0  0
 26 25  2  0  0  0  0
 27 24  1  0  0  0  0
 28 30  1  0  0  0  0
 29 33  1  0  0  0  0
 30 31  2  0  0  0  0
 31 29  2  0  0  0  0
 32 30  1  0  0  0  0
 33 34  1  0  0  0  0
 34 38  1  0  0  0  0
 34 35  1  1  0  0  0
 37 38  1  0  0  0  0
 38 36  1  0  0  0  0
M  END
>  <MODEL>
1

>  <REMARK>
 VINA RESULT:      -7.7      0.000      0.000
  Name = 
  11 active torsions:
  status: ('A' for Active; 'I' for Inactive)
    1  A    between atoms: C_1  and  C_34
    2  A    between atoms: C_3  and  C_34
    3  A    between atoms: C_3  and  C_37
    4  A    between atoms: C_4  and  N_32
    5  A    between atoms: C_7  and  N_32
    6  A    between atoms: C_7  and  C_38
    7  A    between atoms: C_9  and  N_29
    8  A    between atoms: C_12  and  C_14
    9  A    between atoms: C_13  and  N_29
   10  A    between atoms: C_19  and  C_25
   11  A    between atoms: C_25  and  C_37
                            x       y       z     vdW  Elec       q    Type
                         _______ _______ _______ _____ _____    ______ ____

>  <TORSDO>
F 11

$$$$
=
 OpenBabel11042417083D

 38 40  0  0  1  0  0  0  0  0999 V2000
  187.0920  176.4200  140.7930 O   0  0  0  0  0  0  0  0  0  0  0  0
  187.0710  176.7960  141.9930 C   0  0  0  0  0  0  0  0  0  0  0  0
  188.2200  176.6900  142.9520 C   0  0  1  0  0  3  0  0  0  0  0  0
  184.6980  177.8140  142.0560 N   0  0  0  0  0  0  0  0  0  0  0  0
  185.9410  177.4280  142.6450 C   0  0  0  0  0  0  0  0  0  0  0  0
  188.2470  177.6000  145.3170 C   0  0  0  0  0  2  0  0  0  0  0  0
  183.6710  178.3290  142.8770 N   0  0  0  0  0  2  0  0  0  0  0  0
  187.6210  177.3590  144.1660 C   0  0  0  0  0  0  0  0  0  0  0  0
  186.2500  177.7710  143.8730 C   0  0  0  0  0  0  0  0  0  0  0  0
  184.2570  179.2520  143.8590 C   0  0  0  0  0  2  0  0  0  0  0  0
  185.2910  178.5280  144.7420 C   0  0  0  0  0  2  0  0  0  0  0  0
  189.6680  177.2050  145.5440 C   0  0  0  0  0  2  0  0  0  0  0  0
  189.2030  175.2530  147.0270 C   0  0  0  0  0  1  0  0  0  0  0  0
  189.8330  176.6320  146.9460 C   0  0  1  0  0  3  0  0  0  0  0  0
  191.2980  176.5690  147.3940 C   0  0  1  0  0  3  0  0  0  0  0  0
  191.5550  177.1470  148.7820 C   0  0  0  0  0  1  0  0  0  0  0  0
  191.9370  175.1910  147.2080 C   0  0  0  0  0  2  0  0  0  0  0  0
  192.6050  175.0070  145.8480 C   0  0  2  0  0  3  0  0  0  0  0  0
  195.4760  174.1260  145.5440 C   0  0  2  0  0  3  0  0  0  0  0  0
  194.3050  173.3980  144.8680 C   0  0  0  0  0  2  0  0  0  0  0  0
  195.0740  175.4350  146.2440 C   0  0  0  0  0  2  0  0  0  0  0  0
  193.0320  173.5400  145.6980 C   0  0  0  0  0  2  0  0  0  0  0  0
  193.7690  176.0000  145.6860 C   0  0  0  0  0  2  0  0  0  0  0  0
  196.6770  175.6120  143.8780 N   0  0  0  0  0  2  0  0  0  0  0  0
  197.4310  173.4540  144.3660 O   0  0  0  0  0  0  0  0  0  0  0  0
  196.5800  174.3630  144.5680 C   0  0  0  0  0  0  0  0  0  0  0  0
  197.7290  175.8800  142.9120 C   0  0  0  0  0  1  0  0  0  0  0  0
  188.4930  175.2880  143.2460 N   0  0  0  0  0  2  0  0  0  0  0  0
  190.1520  172.2290  143.8400 C   0  0  0  0  0  3  0  0  0  0  0  0
  189.7820  174.6950  143.0860 C   0  0  0  0  0  0  0  0  0  0  0  0
  189.9700  173.4630  143.4630 C   0  0  0  0  0  0  0  0  0  0  0  0
  190.9250  175.4640  142.5100 C   0  0  0  0  0  1  0  0  0  0  0  0
  191.1050  171.4100  143.1680 N   0  0  0  0  0  2  0  0  0  0  0  0
  190.8480  170.9220  141.8200 C   0  0  2  0  0  3  0  0  0  0  0  0
  190.9710  169.4050  141.8050 C   0  0  0  0  0  1  0  0  0  0  0  0
  193.0000  172.1840  141.5660 C   0  0  0  0  0  1  0  0  0  0  0  0
  191.1530  172.6270  140.0040 C   0  0  0  0  0  1  0  0  0  0  0  0
  191.8330  171.5490  140.8310 C   0  0  0  0  0  3  0  0  0  0  0  0
  1  2  2  0  0  0  0
  2  5  1  0  0  0  0
  2  3  1  0  0  0  0
  3 28  1  1  0  0  0
  3  8  1  0  0  0  0
  4  5  2  0  0  0  0
  4  7  1  0  0  0  0
  5  9  1  0  0  0  0
  6 12  1  0  0  0  0
  7 10  1  0  0  0  0
  8  6  1  0  0  0  0
  9  8  2  0  0  0  0
  9 11  1  0  0  0  0
 10 11  1  0  0  0  0
 12 14  1  0  0  0  0
 14 13  1  6  0  0  0
 14 15  1  0  0  0  0
 15 16  1  1  0  0  0
 17 15  1  0  0  0  0
 18 17  1  1  0  0  0
 19 26  1  6  0  0  0
 19 21  1  0  0  0  0
 20 19  1  0  0  0  0
 20 22  1  0  0  0  0
 22 18  1  0  0  0  0
 23 18  1  0  0  0  0
 23 21  1  0  0  0  0
 24 26  1  0  0  0  0
 25 26  2  0  0  0  0
 27 24  1  0  0  0  0
 30 28  1  0  0  0  0
 30 31  2  0  0  0  0
 31 29  2  0  0  0  0
 32 30  1  0  0  0  0
 33 29  1  0  0  0  0
 34 35  1  1  0  0  0
 34 33  1  0  0  0  0
 37 38  1  0  0  0  0
 38 36  1  0  0  0  0
 38 34  1  0  0  0  0
M  END
>  <MODEL>
2

>  <REMARK>
 VINA RESULT:      -7.5      1.721      6.133
  Name = 
  11 active torsions:
  status: ('A' for Active; 'I' for Inactive)
    1  A    between atoms: C_1  and  C_34
    2  A    between atoms: C_3  and  C_34
    3  A    between atoms: C_3  and  C_37
    4  A    between atoms: C_4  and  N_32
    5  A    between atoms: C_7  and  N_32
    6  A    between atoms: C_7  and  C_38
    7  A    between atoms: C_9  and  N_29
    8  A    between atoms: C_12  and  C_14
    9  A    between atoms: C_13  and  N_29
   10  A    between atoms: C_19  and  C_25
   11  A    between atoms: C_25  and  C_37
                            x       y       z     vdW  Elec       q    Type
                         _______ _______ _______ _____ _____    ______ ____

>  <TORSDO>
F 11

$$$$
=
 OpenBabel11042417083D

 38 40  0  0  1  0  0  0  0  0999 V2000
  188.2560  173.8770  140.3330 O   0  0  0  0  0  0  0  0  0  0  0  0
  188.9010  173.6790  141.3950 C   0  0  0  0  0  0  0  0  0  0  0  0
  188.7290  174.4550  142.6670 C   0  0  1  0  0  3  0  0  0  0  0  0
  190.2770  171.6220  140.6550 N   0  0  0  0  0  0  0  0  0  0  0  0
  189.8980  172.6440  141.5790 C   0  0  0  0  0  0  0  0  0  0  0  0
  189.8940  173.9540  144.8610 C   0  0  0  0  0  2  0  0  0  0  0  0
  191.3460  170.7580  140.9740 N   0  0  0  0  0  2  0  0  0  0  0  0
  189.6920  173.7170  143.5650 C   0  0  0  0  0  0  0  0  0  0  0  0
  190.3380  172.6430  142.8150 C   0  0  0  0  0  0  0  0  0  0  0  0
  191.2460  170.3710  142.3890 C   0  0  0  0  0  2  0  0  0  0  0  0
  191.3100  171.6100  143.3020 C   0  0  0  0  0  2  0  0  0  0  0  0
  189.1670  175.0320  145.5920 C   0  0  0  0  0  2  0  0  0  0  0  0
  190.6070  175.2910  147.6130 C   0  0  0  0  0  1  0  0  0  0  0  0
  190.1580  175.9350  146.3140 C   0  0  1  0  0  3  0  0  0  0  0  0
  191.3770  176.2900  145.4520 C   0  0  1  0  0  3  0  0  0  0  0  0
  191.2540  177.6140  144.7060 C   0  0  0  0  0  1  0  0  0  0  0  0
  192.7090  176.1590  146.1940 C   0  0  0  0  0  2  0  0  0  0  0  0
  193.6090  175.0580  145.6420 C   0  0  2  0  0  3  0  0  0  0  0  0
  195.9390  175.6180  143.8070 C   0  0  2  0  0  3  0  0  0  0  0  0
  196.0810  174.8320  145.1180 C   0  0  0  0  0  2  0  0  0  0  0  0
  194.4840  175.9440  143.4310 C   0  0  0  0  0  2  0  0  0  0  0  0
  195.0430  175.2910  146.1380 C   0  0  0  0  0  2  0  0  0  0  0  0
  193.4970  174.9940  144.1090 C   0  0  0  0  0  2  0  0  0  0  0  0
  196.2550  175.1590  141.3340 N   0  0  0  0  0  2  0  0  0  0  0  0
  197.5530  174.0900  142.9580 O   0  0  0  0  0  0  0  0  0  0  0  0
  196.6300  174.9070  142.6910 C   0  0  0  0  0  0  0  0  0  0  0  0
  196.8940  174.4800  140.2190 C   0  0  0  0  0  1  0  0  0  0  0  0
  189.1830  175.8270  142.4770 N   0  0  0  0  0  2  0  0  0  0  0  0
  185.9240  176.6640  143.5480 C   0  0  0  0  0  3  0  0  0  0  0  0
  188.3070  176.9530  142.5330 C   0  0  0  0  0  0  0  0  0  0  0  0
  187.1150  176.8110  143.0390 C   0  0  0  0  0  0  0  0  0  0  0  0
  188.7220  178.2880  142.0080 C   0  0  0  0  0  1  0  0  0  0  0  0
  185.2900  177.7550  144.2090 N   0  0  0  0  0  2  0  0  0  0  0  0
  184.9770  177.6850  145.6290 C   0  0  2  0  0  3  0  0  0  0  0  0
  183.8580  178.6660  145.9440 C   0  0  0  0  0  1  0  0  0  0  0  0
  186.6500  176.7900  147.2690 C   0  0  0  0  0  1  0  0  0  0  0  0
  185.9410  179.1400  147.4330 C   0  0  0  0  0  1  0  0  0  0  0  0
  186.2200  178.0030  146.4640 C   0  0  0  0  0  3  0  0  0  0  0  0
  1  2  2  0  0  0  0
  2  5  1  0  0  0  0
  2  3  1  0  0  0  0
  3 28  1  6  0  0  0
  3  8  1  0  0  0  0
  4  7  1  0  0  0  0
  4  5  2  0  0  0  0
  5  9  1  0  0  0  0
  6 12  1  0  0  0  0
  7 10  1  0  0  0  0
  8  6  1  0  0  0  0
  9 11  1  0  0  0  0
  9  8  2  0  0  0  0
 10 11  1  0  0  0  0
 12 14  1  0  0  0  0
 14 13  1  1  0  0  0
 15 16  1  1  0  0  0
 15 17  1  0  0  0  0
 15 14  1  0  0  0  0
 18 22  1  0  0  0  0
 18 17  1  6  0  0  0
 19 26  1  6  0  0  0
 19 20  1  0  0  0  0
 20 22  1  0  0  0  0
 21 19  1  0  0  0  0
 21 23  1  0  0  0  0
 23 18  1  0  0  0  0
 24 26  1  0  0  0  0
 26 25  2  0  0  0  0
 27 24  1  0  0  0  0
 28 30  1  0  0  0  0
 29 33  1  0  0  0  0
 30 31  2  0  0  0  0
 31 29  2  0  0  0  0
 32 30  1  0  0  0  0
 33 34  1  0  0  0  0
 34 35  1  6  0  0  0
 34 38  1  0  0  0  0
 38 36  1  0  0  0  0
 38 37  1  0  0  0  0
M  END
>  <MODEL>
3

>  <REMARK>
 VINA RESULT:      -7.5      1.381      2.010
  Name = 
  11 active torsions:
  status: ('A' for Active; 'I' for Inactive)
    1  A    between atoms: C_1  and  C_34
    2  A    between atoms: C_3  and  C_34
    3  A    between atoms: C_3  and  C_37
    4  A    between atoms: C_4  and  N_32
    5  A    between atoms: C_7  and  N_32
    6  A    between atoms: C_7  and  C_38
    7  A    between atoms: C_9  and  N_29
    8  A    between atoms: C_12  and  C_14
    9  A    between atoms: C_13  and  N_29
   10  A    between atoms: C_19  and  C_25
   11  A    between atoms: C_25  and  C_37
                            x       y       z     vdW  Elec       q    Type
                         _______ _______ _______ _____ _____    ______ ____

>  <TORSDO>
F 11

$$$$
=
 OpenBabel11042417083D

 38 40  0  0  1  0  0  0  0  0999 V2000
  188.4270  174.6030  140.6930 O   0  0  0  0  0  0  0  0  0  0  0  0
  189.4490  174.1470  141.2680 C   0  0  0  0  0  0  0  0  0  0  0  0
  189.8100  174.3840  142.7050 C   0  0  1  0  0  3  0  0  0  0  0  0
  190.4080  172.7360  139.3290 N   0  0  0  0  0  0  0  0  0  0  0  0
  190.4370  173.2890  140.6450 C   0  0  0  0  0  0  0  0  0  0  0  0
  191.7700  173.3330  143.9180 C   0  0  0  0  0  2  0  0  0  0  0  0
  191.5170  171.9990  138.8600 N   0  0  0  0  0  2  0  0  0  0  0  0
  191.0580  173.5410  142.8120 C   0  0  0  0  0  0  0  0  0  0  0  0
  191.3440  172.9210  141.5200 C   0  0  0  0  0  0  0  0  0  0  0  0
  192.0040  171.1250  139.9370 C   0  0  0  0  0  2  0  0  0  0  0  0
  192.4320  171.9540  141.1640 C   0  0  0  0  0  2  0  0  0  0  0  0
  191.4020  173.9490  145.2260 C   0  0  0  0  0  2  0  0  0  0  0  0
  193.7540  173.2310  145.6480 C   0  0  0  0  0  1  0  0  0  0  0  0
  192.6530  174.1920  146.0600 C   0  0  1  0  0  3  0  0  0  0  0  0
  193.1560  175.6390  145.9730 C   0  0  1  0  0  3  0  0  0  0  0  0
  192.7380  176.5200  147.1460 C   0  0  0  0  0  1  0  0  0  0  0  0
  194.6500  175.7490  145.6630 C   0  0  0  0  0  2  0  0  0  0  0  0
  194.9460  176.3470  144.2910 C   0  0  2  0  0  3  0  0  0  0  0  0
  194.5730  174.8050  141.7220 C   0  0  2  0  0  3  0  0  0  0  0  0
  193.9160  176.1700  141.9780 C   0  0  0  0  0  2  0  0  0  0  0  0
  195.5680  174.3790  142.8150 C   0  0  0  0  0  2  0  0  0  0  0  0
  193.6490  176.3680  143.4680 C   0  0  0  0  0  2  0  0  0  0  0  0
  196.0880  175.5780  143.6070 C   0  0  0  0  0  2  0  0  0  0  0  0
  196.5240  175.3340  140.1920 N   0  0  0  0  0  2  0  0  0  0  0  0
  194.6050  174.2530  139.4080 O   0  0  0  0  0  0  0  0  0  0  0  0
  195.2190  174.7790  140.3760 C   0  0  0  0  0  0  0  0  0  0  0  0
  197.1830  175.3370  138.8960 C   0  0  0  0  0  1  0  0  0  0  0  0
  190.1440  175.7880  142.9080 N   0  0  0  0  0  2  0  0  0  0  0  0
  186.7790  176.5110  143.6990 C   0  0  0  0  0  3  0  0  0  0  0  0
  189.3800  176.6580  143.7460 C   0  0  0  0  0  0  0  0  0  0  0  0
  188.0800  176.5870  143.7230 C   0  0  0  0  0  0  0  0  0  0  0  0
  190.0410  177.6570  144.6360 C   0  0  0  0  0  1  0  0  0  0  0  0
  186.0240  176.8160  144.8670 N   0  0  0  0  0  2  0  0  0  0  0  0
  186.4790  177.8340  145.8030 C   0  0  2  0  0  3  0  0  0  0  0  0
  186.5640  177.2300  147.1970 C   0  0  0  0  0  1  0  0  0  0  0  0
  184.0920  178.5740  146.0110 C   0  0  0  0  0  1  0  0  0  0  0  0
  185.5910  179.7640  144.4660 C   0  0  0  0  0  1  0  0  0  0  0  0
  185.5240  179.0300  145.7950 C   0  0  0  0  0  3  0  0  0  0  0  0
  1  2  2  0  0  0  0
  2  3  1  0  0  0  0
  3  8  1  0  0  0  0
  3 28  1  6  0  0  0
  4  5  2  0  0  0  0
  5  2  1  0  0  0  0
  5  9  1  0  0  0  0
  6 12  1  0  0  0  0
  7  4  1  0  0  0  0
  7 10  1  0  0  0  0
  8  6  1  0  0  0  0
  9  8  2  0  0  0  0
 10 11  1  0  0  0  0
 11  9  1  0  0  0  0
 12 14  1  0  0  0  0
 14 13  1  6  0  0  0
 15 14  1  0  0  0  0
 15 16  1  1  0  0  0
 17 15  1  0  0  0  0
 18 17  1  1  0  0  0
 19 26  1  6  0  0  0
 19 20  1  0  0  0  0
 19 21  1  0  0  0  0
 20 22  1  0  0  0  0
 21 23  1  0  0  0  0
 22 18  1  0  0  0  0
 23 18  1  0  0  0  0
 24 26  1  0  0  0  0
 25 26  2  0  0  0  0
 27 24  1  0  0  0  0
 28 30  1  0  0  0  0
 29 31  2  0  0  0  0
 29 33  1  0  0  0  0
 30 32  1  0  0  0  0
 31 30  2  0  0  0  0
 33 34  1  0  0  0  0
 34 35  1  1  0  0  0
 37 38  1  0  0  0  0
 38 34  1  0  0  0  0
 38 36  1  0  0  0  0
M  END
>  <MODEL>
4

>  <REMARK>
 VINA RESULT:      -7.3      1.955      2.916
  Name = 
  11 active torsions:
  status: ('A' for Active; 'I' for Inactive)
    1  A    between atoms: C_1  and  C_34
    2  A    between atoms: C_3  and  C_34
    3  A    between atoms: C_3  and  C_37
    4  A    between atoms: C_4  and  N_32
    5  A    between atoms: C_7  and  N_32
    6  A    between atoms: C_7  and  C_38
    7  A    between atoms: C_9  and  N_29
    8  A    between atoms: C_12  and  C_14
    9  A    between atoms: C_13  and  N_29
   10  A    between atoms: C_19  and  C_25
   11  A    between atoms: C_25  and  C_37
                            x       y       z     vdW  Elec       q    Type
                         _______ _______ _______ _____ _____    ______ ____

>  <TORSDO>
F 11

$$$$
=
 OpenBabel11042417083D

 38 40  0  0  1  0  0  0  0  0999 V2000
  194.5710  176.5880  146.4150 O   0  0  0  0  0  0  0  0  0  0  0  0
  194.3340  175.6320  145.6330 C   0  0  0  0  0  0  0  0  0  0  0  0
  193.1820  175.5650  144.6740 C   0  0  1  0  0  3  0  0  0  0  0  0
  196.3990  174.1680  146.1490 N   0  0  0  0  0  2  0  0  0  0  0  0
  195.1550  174.4450  145.5030 C   0  0  0  0  0  0  0  0  0  0  0  0
  192.7930  173.7270  142.9740 C   0  0  0  0  0  3  0  0  0  0  0  0
  197.0070  172.9060  145.9740 N   0  0  0  0  0  2  0  0  0  0  0  0
  193.4800  174.2550  143.9860 C   0  0  0  0  0  0  0  0  0  0  0  0
  194.6910  173.6660  144.5540 C   0  0  0  0  0  0  0  0  0  0  0  0
  196.8860  172.5050  144.5650 C   0  0  0  0  0  2  0  0  0  0  0  0
  195.4060  172.4130  144.1460 C   0  0  0  0  0  2  0  0  0  0  0  0
  191.5930  174.3980  142.3950 C   0  0  0  0  0  2  0  0  0  0  0  0
  189.8330  173.1440  143.6420 C   0  0  0  0  0  1  0  0  0  0  0  0
  190.4440  173.4050  142.2770 C   0  0  1  0  0  3  0  0  0  0  0  0
  189.3610  173.8620  141.2930 C   0  0  1  0  0  3  0  0  0  0  0  0
  188.0810  173.0330  141.3380 C   0  0  0  0  0  1  0  0  0  0  0  0
  189.0840  175.3670  141.3430 C   0  0  0  0  0  2  0  0  0  0  0  0
  187.6150  175.7100  141.5700 C   0  0  2  0  0  3  0  0  0  0  0  0
  186.6860  178.4700  142.3640 C   0  0  2  0  0  3  0  0  0  0  0  0
  186.1380  177.7270  141.1360 C   0  0  0  0  0  2  0  0  0  0  0  0
  187.6180  177.6180  143.2420 C   0  0  0  0  0  2  0  0  0  0  0  0
  187.1930  176.7870  140.5600 C   0  0  0  0  0  2  0  0  0  0  0  0
  187.3830  176.1230  143.0340 C   0  0  0  0  0  2  0  0  0  0  0  0
  184.2480  178.5080  143.0550 N   0  0  0  0  0  2  0  0  0  0  0  0
  185.8060  179.9940  143.9650 O   0  0  0  0  0  0  0  0  0  0  0  0
  185.5690  179.0420  143.1720 C   0  0  0  0  0  0  0  0  0  0  0  0
  183.1310  179.0420  143.8160 C   0  0  0  0  0  1  0  0  0  0  0  0
  191.9290  175.4610  145.4110 N   0  0  0  0  0  2  0  0  0  0  0  0
  188.6000  175.9420  146.4850 C   0  0  0  0  0  3  0  0  0  0  0  0
  190.8480  176.3810  145.2440 C   0  0  0  0  0  0  0  0  0  0  0  0
  189.7230  176.1630  145.8630 C   0  0  0  0  0  0  0  0  0  0  0  0
  190.9770  177.5790  144.3630 C   0  0  0  0  0  1  0  0  0  0  0  0
  187.7820  177.0350  146.8920 N   0  0  0  0  0  2  0  0  0  0  0  0
  186.3910  176.8250  147.2680 C   0  0  2  0  0  3  0  0  0  0  0  0
  185.5680  176.5620  146.0150 C   0  0  0  0  0  1  0  0  0  0  0  0
  184.7740  178.7400  147.2040 C   0  0  0  0  0  1  0  0  0  0  0  0
  186.9620  179.0480  148.2830 C   0  0  0  0  0  1  0  0  0  0  0  0
  185.8510  178.0460  148.0160 C   0  0  0  0  0  3  0  0  0  0  0  0
  2  1  2  0  0  0  0
  3 28  1  1  0  0  0
  3  2  1  0  0  0  0
  5  2  1  0  0  0  0
  5  4  1  0  0  0  0
  6  8  2  0  0  0  0
  7  4  1  0  0  0  0
  8  9  1  0  0  0  0
  8  3  1  0  0  0  0
  9  5  2  0  0  0  0
 10  7  1  0  0  0  0
 11  9  1  0  0  0  0
 11 10  1  0  0  0  0
 12  6  1  0  0  0  0
 14 12  1  0  0  0  0
 14 13  1  1  0  0  0
 15 16  1  1  0  0  0
 15 17  1  0  0  0  0
 15 14  1  0  0  0  0
 18 17  1  1  0  0  0
 18 23  1  0  0  0  0
 19 26  1  1  0  0  0
 19 21  1  0  0  0  0
 20 19  1  0  0  0  0
 22 20  1  0  0  0  0
 22 18  1  0  0  0  0
 23 21  1  0  0  0  0
 24 26  1  0  0  0  0
 24 27  1  0  0  0  0
 26 25  2  0  0  0  0
 29 33  1  0  0  0  0
 30 28  1  0  0  0  0
 30 31  2  0  0  0  0
 31 29  2  0  0  0  0
 32 30  1  0  0  0  0
 33 34  1  0  0  0  0
 34 35  1  6  0  0  0
 34 38  1  0  0  0  0
 36 38  1  0  0  0  0
 38 37  1  0  0  0  0
M  END
>  <MODEL>
5

>  <REMARK>
 VINA RESULT:      -7.3      2.904      7.035
  Name = 
  11 active torsions:
  status: ('A' for Active; 'I' for Inactive)
    1  A    between atoms: C_1  and  C_34
    2  A    between atoms: C_3  and  C_34
    3  A    between atoms: C_3  and  C_37
    4  A    between atoms: C_4  and  N_32
    5  A    between atoms: C_7  and  N_32
    6  A    between atoms: C_7  and  C_38
    7  A    between atoms: C_9  and  N_29
    8  A    between atoms: C_12  and  C_14
    9  A    between atoms: C_13  and  N_29
   10  A    between atoms: C_19  and  C_25
   11  A    between atoms: C_25  and  C_37
                            x       y       z     vdW  Elec       q    Type
                         _______ _______ _______ _____ _____    ______ ____

>  <TORSDO>
F 11

$$$$
=
 OpenBabel11042417083D

 38 40  0  0  1  0  0  0  0  0999 V2000
  188.4120  173.4140  140.7370 O   0  0  0  0  0  0  0  0  0  0  0  0
  188.9750  174.3420  141.3750 C   0  0  0  0  0  0  0  0  0  0  0  0
  190.3920  174.3150  141.8670 C   0  0  1  0  0  3  0  0  0  0  0  0
  187.0630  176.0780  141.3360 N   0  0  0  0  0  0  0  0  0  0  0  0
  188.3570  175.6080  141.7150 C   0  0  0  0  0  0  0  0  0  0  0  0
  191.5890  176.2400  142.9990 C   0  0  0  0  0  2  0  0  0  0  0  0
  186.5910  177.3050  141.8490 N   0  0  0  0  0  2  0  0  0  0  0  0
  190.4960  175.6970  142.4650 C   0  0  0  0  0  0  0  0  0  0  0  0
  189.2200  176.3940  142.3150 C   0  0  0  0  0  0  0  0  0  0  0  0
  187.6860  178.2860  141.8320 C   0  0  0  0  0  2  0  0  0  0  0  0
  188.8690  177.8020  142.6920 C   0  0  0  0  0  2  0  0  0  0  0  0
  192.8830  175.5020  143.0780 C   0  0  0  0  0  2  0  0  0  0  0  0
  193.3250  177.4170  144.6150 C   0  0  0  0  0  1  0  0  0  0  0  0
  193.6850  175.9800  144.2810 C   0  0  1  0  0  3  0  0  0  0  0  0
  193.4950  175.0890  145.5150 C   0  0  1  0  0  3  0  0  0  0  0  0
  194.6790  174.1760  145.8180 C   0  0  0  0  0  1  0  0  0  0  0  0
  193.0130  175.8510  146.7520 C   0  0  0  0  0  2  0  0  0  0  0  0
  191.6450  175.3970  147.2520 C   0  0  2  0  0  3  0  0  0  0  0  0
  189.0680  176.1580  145.8780 C   0  0  2  0  0  3  0  0  0  0  0  0
  189.4590  174.7010  146.1680 C   0  0  0  0  0  2  0  0  0  0  0  0
  190.0190  177.1930  146.4990 C   0  0  0  0  0  2  0  0  0  0  0  0
  190.9770  174.5410  146.1670 C   0  0  0  0  0  2  0  0  0  0  0  0
  190.8010  176.6110  147.6760 C   0  0  0  0  0  2  0  0  0  0  0  0
  186.7040  176.9050  145.3480 N   0  0  0  0  0  2  0  0  0  0  0  0
  187.3150  176.1850  147.4860 O   0  0  0  0  0  0  0  0  0  0  0  0
  187.6570  176.4150  146.2950 C   0  0  0  0  0  0  0  0  0  0  0  0
  185.3240  177.1770  145.7150 C   0  0  0  0  0  1  0  0  0  0  0  0
  190.5350  173.3120  142.9150 N   0  0  0  0  0  2  0  0  0  0  0  0
  193.6530  171.7380  143.4310 C   0  0  0  0  0  3  0  0  0  0  0  0
  191.1700  172.0500  142.7050 C   0  0  0  0  0  0  0  0  0  0  0  0
  192.4120  171.8920  143.0660 C   0  0  0  0  0  0  0  0  0  0  0  0
  190.4460  170.9120  142.0660 C   0  0  0  0  0  1  0  0  0  0  0  0
  194.1210  170.4600  143.8520 N   0  0  0  0  0  2  0  0  0  0  0  0
  194.5420  170.2370  145.2280 C   0  0  2  0  0  3  0  0  0  0  0  0
  195.9670  170.7430  145.4030 C   0  0  0  0  0  1  0  0  0  0  0  0
  193.1330  168.1670  145.1090 C   0  0  0  0  0  1  0  0  0  0  0  0
  194.5570  168.5420  147.0790 C   0  0  0  0  0  1  0  0  0  0  0  0
  194.4540  168.7500  145.5770 C   0  0  0  0  0  3  0  0  0  0  0  0
  1  2  2  0  0  0  0
  2  5  1  0  0  0  0
  2  3  1  0  0  0  0
  3  8  1  0  0  0  0
  3 28  1  1  0  0  0
  4  5  2  0  0  0  0
  4  7  1  0  0  0  0
  5  9  1  0  0  0  0
  6 12  1  0  0  0  0
  8  6  1  0  0  0  0
  9  8  2  0  0  0  0
  9 11  1  0  0  0  0
 10  7  1  0  0  0  0
 10 11  1  0  0  0  0
 12 14  1  0  0  0  0
 14 13  1  1  0  0  0
 14 15  1  0  0  0  0
 15 16  1  1  0  0  0
 15 17  1  0  0  0  0
 18 17  1  6  0  0  0
 18 23  1  0  0  0  0
 19 20  1  0  0  0  0
 19 26  1  1  0  0  0
 19 21  1  0  0  0  0
 21 23  1  0  0  0  0
 22 20  1  0  0  0  0
 22 18  1  0  0  0  0
 24 27  1  0  0  0  0
 24 26  1  0  0  0  0
 26 25  2  0  0  0  0
 29 33  1  0  0  0  0
 30 28  1  0  0  0  0
 30 31  2  0  0  0  0
 31 29  2  0  0  0  0
 32 30  1  0  0  0  0
 33 34  1  0  0  0  0
 34 35  1  6  0  0  0
 34 38  1  0  0  0  0
 36 38  1  0  0  0  0
 38 37  1  0  0  0  0
M  END
>  <MODEL>
6

>  <REMARK>
 VINA RESULT:      -7.2      2.790      7.515
  Name = 
  11 active torsions:
  status: ('A' for Active; 'I' for Inactive)
    1  A    between atoms: C_1  and  C_34
    2  A    between atoms: C_3  and  C_34
    3  A    between atoms: C_3  and  C_37
    4  A    between atoms: C_4  and  N_32
    5  A    between atoms: C_7  and  N_32
    6  A    between atoms: C_7  and  C_38
    7  A    between atoms: C_9  and  N_29
    8  A    between atoms: C_12  and  C_14
    9  A    between atoms: C_13  and  N_29
   10  A    between atoms: C_19  and  C_25
   11  A    between atoms: C_25  and  C_37
                            x       y       z     vdW  Elec       q    Type
                         _______ _______ _______ _____ _____    ______ ____

>  <TORSDO>
F 11

$$$$
=
 OpenBabel11042417083D

 38 40  0  0  1  0  0  0  0  0999 V2000
  187.0200  176.8590  140.6280 O   0  0  0  0  0  0  0  0  0  0  0  0
  187.1450  177.1110  141.8540 C   0  0  0  0  0  0  0  0  0  0  0  0
  188.3870  176.8730  142.6620 C   0  0  1  0  0  3  0  0  0  0  0  0
  184.8360  178.1850  142.2840 N   0  0  0  0  0  0  0  0  0  0  0  0
  186.1190  177.7040  142.6880 C   0  0  0  0  0  0  0  0  0  0  0  0
  188.7090  177.5360  145.0870 C   0  0  0  0  0  2  0  0  0  0  0  0
  183.9260  178.6420  143.2610 N   0  0  0  0  0  2  0  0  0  0  0  0
  187.9520  177.4320  143.9950 C   0  0  0  0  0  0  0  0  0  0  0  0
  186.5750  177.9120  143.9010 C   0  0  0  0  0  0  0  0  0  0  0  0
  184.6520  179.4430  144.2570 C   0  0  0  0  0  2  0  0  0  0  0  0
  185.7480  178.6030  144.9420 C   0  0  0  0  0  2  0  0  0  0  0  0
  190.1290  177.0790  145.1130 C   0  0  0  0  0  2  0  0  0  0  0  0
  190.2270  174.6730  145.7620 C   0  0  0  0  0  1  0  0  0  0  0  0
  190.3430  176.1020  146.2610 C   0  0  1  0  0  3  0  0  0  0  0  0
  191.6860  176.3040  146.9730 C   0  0  1  0  0  3  0  0  0  0  0  0
  191.5680  176.8550  148.3910 C   0  0  0  0  0  1  0  0  0  0  0  0
  192.6100  175.0870  146.8950 C   0  0  0  0  0  2  0  0  0  0  0  0
  194.0340  175.4290  146.4670 C   0  0  2  0  0  3  0  0  0  0  0  0
  194.7780  176.0460  143.6080 C   0  0  2  0  0  3  0  0  0  0  0  0
  195.0900  176.9960  144.7740 C   0  0  0  0  0  2  0  0  0  0  0  0
  194.2110  174.6860  144.0480 C   0  0  0  0  0  2  0  0  0  0  0  0
  194.0510  176.8480  145.8820 C   0  0  0  0  0  2  0  0  0  0  0  0
  194.5710  174.3630  145.4970 C   0  0  0  0  0  2  0  0  0  0  0  0
  195.8630  175.9340  141.3190 N   0  0  0  0  0  2  0  0  0  0  0  0
  197.1040  175.6620  143.2820 O   0  0  0  0  0  0  0  0  0  0  0  0
  195.9810  175.8650  142.7430 C   0  0  0  0  0  0  0  0  0  0  0  0
  197.0060  175.7530  140.4410 C   0  0  0  0  0  1  0  0  0  0  0  0
  188.6340  175.4420  142.7840 N   0  0  0  0  0  2  0  0  0  0  0  0
  188.6290  173.2650  140.0050 C   0  0  0  0  0  3  0  0  0  0  0  0
  189.5510  174.7360  141.9480 C   0  0  0  0  0  0  0  0  0  0  0  0
  189.0930  173.9990  140.9760 C   0  0  0  0  0  0  0  0  0  0  0  0
  191.0250  174.8110  142.1720 C   0  0  0  0  0  1  0  0  0  0  0  0
  189.3940  173.0870  138.8160 N   0  0  0  0  0  2  0  0  0  0  0  0
  190.4000  172.0390  138.7270 C   0  0  2  0  0  3  0  0  0  0  0  0
  191.7830  172.6600  138.8570 C   0  0  0  0  0  1  0  0  0  0  0  0
  189.3470  172.0320  136.4520 C   0  0  0  0  0  1  0  0  0  0  0  0
  189.7050  169.8970  137.6190 C   0  0  0  0  0  1  0  0  0  0  0  0
  190.2720  171.2890  137.4000 C   0  0  0  0  0  3  0  0  0  0  0  0
  1  2  2  0  0  0  0
  2  3  1  0  0  0  0
  2  5  1  0  0  0  0
  3 28  1  1  0  0  0
  3  8  1  0  0  0  0
  4  5  2  0  0  0  0
  4  7  1  0  0  0  0
  5  9  1  0  0  0  0
  6 12  1  0  0  0  0
  7 10  1  0  0  0  0
  8  6  1  0  0  0  0
  9  8  2  0  0  0  0
  9 11  1  0  0  0  0
 10 11  1  0  0  0  0
 12 14  1  0  0  0  0
 14 13  1  6  0  0  0
 14 15  1  0  0  0  0
 15 16  1  1  0  0  0
 17 15  1  0  0  0  0
 18 17  1  6  0  0  0
 19 26  1  1  0  0  0
 19 21  1  0  0  0  0
 19 20  1  0  0  0  0
 20 22  1  0  0  0  0
 21 23  1  0  0  0  0
 22 18  1  0  0  0  0
 23 18  1  0  0  0  0
 24 26  1  0  0  0  0
 26 25  2  0  0  0  0
 27 24  1  0  0  0  0
 29 31  2  0  0  0  0
 30 32  1  0  0  0  0
 30 28  1  0  0  0  0
 31 30  2  0  0  0  0
 33 29  1  0  0  0  0
 34 33  1  0  0  0  0
 34 35  1  6  0  0  0
 36 38  1  0  0  0  0
 38 37  1  0  0  0  0
 38 34  1  0  0  0  0
M  END
>  <MODEL>
7

>  <REMARK>
 VINA RESULT:      -7.1      1.974      6.330
  Name = 
  11 active torsions:
  status: ('A' for Active; 'I' for Inactive)
    1  A    between atoms: C_1  and  C_34
    2  A    between atoms: C_3  and  C_34
    3  A    between atoms: C_3  and  C_37
    4  A    between atoms: C_4  and  N_32
    5  A    between atoms: C_7  and  N_32
    6  A    between atoms: C_7  and  C_38
    7  A    between atoms: C_9  and  N_29
    8  A    between atoms: C_12  and  C_14
    9  A    between atoms: C_13  and  N_29
   10  A    between atoms: C_19  and  C_25
   11  A    between atoms: C_25  and  C_37
                            x       y       z     vdW  Elec       q    Type
                         _______ _______ _______ _____ _____    ______ ____

>  <TORSDO>
F 11

$$$$
=
 OpenBabel11042417083D

 38 40  0  0  1  0  0  0  0  0999 V2000
  196.1990  173.2530  145.1510 O   0  0  0  0  0  0  0  0  0  0  0  0
  195.3200  174.0610  144.7520 C   0  0  0  0  0  0  0  0  0  0  0  0
  194.2020  174.6040  145.5920 C   0  0  1  0  0  3  0  0  0  0  0  0
  196.1960  174.4600  142.3560 N   0  0  0  0  0  0  0  0  0  0  0  0
  195.2590  174.6280  143.4210 C   0  0  0  0  0  0  0  0  0  0  0  0
  192.5320  176.3610  144.8530 C   0  0  0  0  0  2  0  0  0  0  0  0
  195.9150  175.0140  141.0880 N   0  0  0  0  0  2  0  0  0  0  0  0
  193.5590  175.5490  144.6050 C   0  0  0  0  0  0  0  0  0  0  0  0
  194.2750  175.4920  143.3330 C   0  0  0  0  0  0  0  0  0  0  0  0
  195.3460  176.3570  141.2670 C   0  0  0  0  0  2  0  0  0  0  0  0
  194.0450  176.2970  142.0890 C   0  0  0  0  0  2  0  0  0  0  0  0
  191.8710  176.4180  146.1890 C   0  0  0  0  0  2  0  0  0  0  0  0
  190.3890  177.7740  144.7090 C   0  0  0  0  0  1  0  0  0  0  0  0
  190.5320  177.1350  146.0790 C   0  0  1  0  0  3  0  0  0  0  0  0
  189.3380  176.2140  146.3580 C   0  0  1  0  0  3  0  0  0  0  0  0
  189.6660  175.0100  147.2350 C   0  0  0  0  0  1  0  0  0  0  0  0
  188.0880  176.9590  146.8330 C   0  0  0  0  0  2  0  0  0  0  0  0
  186.8200  176.5620  146.0820 C   0  0  2  0  0  3  0  0  0  0  0  0
  185.7380  178.1450  143.7510 C   0  0  2  0  0  3  0  0  0  0  0  0
  186.0440  176.6420  143.6680 C   0  0  0  0  0  2  0  0  0  0  0  0
  185.8690  178.7290  145.1670 C   0  0  0  0  0  2  0  0  0  0  0  0
  187.1790  176.2700  144.6180 C   0  0  0  0  0  2  0  0  0  0  0  0
  185.7430  177.6490  146.2400 C   0  0  0  0  0  2  0  0  0  0  0  0
  184.0670  178.0200  141.8490 N   0  0  0  0  0  2  0  0  0  0  0  0
  183.5410  179.0480  143.8810 O   0  0  0  0  0  0  0  0  0  0  0  0
  184.3910  178.4380  143.1770 C   0  0  0  0  0  0  0  0  0  0  0  0
  182.7720  178.2940  141.2490 C   0  0  0  0  0  1  0  0  0  0  0  0
  193.2700  173.5350  145.9310 N   0  0  0  0  0  2  0  0  0  0  0  0
  190.3270  173.1570  144.0170 C   0  0  0  0  0  3  0  0  0  0  0  0
  192.7050  172.6560  144.9570 C   0  0  0  0  0  0  0  0  0  0  0  0
  191.5160  172.9040  144.4860 C   0  0  0  0  0  0  0  0  0  0  0  0
  193.4430  171.4500  144.4780 C   0  0  0  0  0  1  0  0  0  0  0  0
  189.9890  172.7770  142.6870 N   0  0  0  0  0  2  0  0  0  0  0  0
  190.0440  173.7430  141.5990 C   0  0  2  0  0  3  0  0  0  0  0  0
  190.5740  175.0660  142.1310 C   0  0  0  0  0  1  0  0  0  0  0  0
  188.1960  175.3710  141.1240 C   0  0  0  0  0  1  0  0  0  0  0  0
  187.6360  173.0390  141.6720 C   0  0  0  0  0  1  0  0  0  0  0  0
  188.6560  173.9300  140.9830 C   0  0  0  0  0  3  0  0  0  0  0  0
  2  1  2  0  0  0  0
  2  3  1  0  0  0  0
  3 28  1  6  0  0  0
  4  5  2  0  0  0  0
  5  2  1  0  0  0  0
  6 12  1  0  0  0  0
  7 10  1  0  0  0  0
  7  4  1  0  0  0  0
  8  6  1  0  0  0  0
  8  3  1  0  0  0  0
  9  5  1  0  0  0  0
  9  8  2  0  0  0  0
 10 11  1  0  0  0  0
 11  9  1  0  0  0  0
 14 13  1  6  0  0  0
 14 12  1  0  0  0  0
 14 15  1  0  0  0  0
 15 17  1  0  0  0  0
 15 16  1  1  0  0  0
 18 23  1  0  0  0  0
 18 17  1  1  0  0  0
 19 26  1  1  0  0  0
 19 21  1  0  0  0  0
 20 19  1  0  0  0  0
 20 22  1  0  0  0  0
 21 23  1  0  0  0  0
 22 18  1  0  0  0  0
 24 26  1  0  0  0  0
 26 25  2  0  0  0  0
 27 24  1  0  0  0  0
 29 31  2  0  0  0  0
 30 28  1  0  0  0  0
 31 30  2  0  0  0  0
 32 30  1  0  0  0  0
 33 29  1  0  0  0  0
 34 35  1  1  0  0  0
 34 33  1  0  0  0  0
 38 36  1  0  0  0  0
 38 34  1  0  0  0  0
 38 37  1  0  0  0  0
M  END
>  <MODEL>
8

>  <REMARK>
 VINA RESULT:      -7.1      2.451      7.550
  Name = 
  11 active torsions:
  status: ('A' for Active; 'I' for Inactive)
    1  A    between atoms: C_1  and  C_34
    2  A    between atoms: C_3  and  C_34
    3  A    between atoms: C_3  and  C_37
    4  A    between atoms: C_4  and  N_32
    5  A    between atoms: C_7  and  N_32
    6  A    between atoms: C_7  and  C_38
    7  A    between atoms: C_9  and  N_29
    8  A    between atoms: C_12  and  C_14
    9  A    between atoms: C_13  and  N_29
   10  A    between atoms: C_19  and  C_25
   11  A    between atoms: C_25  and  C_37
                            x       y       z     vdW  Elec       q    Type
                         _______ _______ _______ _____ _____    ______ ____

>  <TORSDO>
F 11

$$$$
=
 OpenBabel11042417083D

 38 40  0  0  1  0  0  0  0  0999 V2000
  192.8320  173.6940  142.1990 O   0  0  0  0  0  0  0  0  0  0  0  0
  191.8060  174.3700  142.4710 C   0  0  0  0  0  0  0  0  0  0  0  0
  191.7170  175.4050  143.5530 C   0  0  1  0  0  3  0  0  0  0  0  0
  190.2470  173.5100  140.6010 N   0  0  0  0  0  0  0  0  0  0  0  0
  190.5450  174.2860  141.7620 C   0  0  0  0  0  0  0  0  0  0  0  0
  189.7160  176.8950  143.9970 C   0  0  0  0  0  2  0  0  0  0  0  0
  188.9240  173.4790  140.1070 N   0  0  0  0  0  2  0  0  0  0  0  0
  190.3080  175.9020  143.3350 C   0  0  0  0  0  0  0  0  0  0  0  0
  189.6940  175.1680  142.2310 C   0  0  0  0  0  0  0  0  0  0  0  0
  188.3570  174.8330  140.1650 C   0  0  0  0  0  2  0  0  0  0  0  0
  188.3420  175.3590  141.6130 C   0  0  0  0  0  2  0  0  0  0  0  0
  190.4090  177.6490  145.0820 C   0  0  0  0  0  2  0  0  0  0  0  0
  190.3300  177.9410  147.5580 C   0  0  0  0  0  1  0  0  0  0  0  0
  190.2060  176.9460  146.4180 C   0  0  1  0  0  3  0  0  0  0  0  0
  188.8650  176.2080  146.5060 C   0  0  1  0  0  3  0  0  0  0  0  0
  188.9270  174.8810  147.2540 C   0  0  0  0  0  1  0  0  0  0  0  0
  187.7100  177.0930  146.9800 C   0  0  0  0  0  2  0  0  0  0  0  0
  186.3860  176.7940  146.2820 C   0  0  2  0  0  3  0  0  0  0  0  0
  185.5760  178.1030  143.6860 C   0  0  2  0  0  3  0  0  0  0  0  0
  185.6170  176.5790  143.8740 C   0  0  0  0  0  2  0  0  0  0  0  0
  185.8180  178.8970  144.9810 C   0  0  0  0  0  2  0  0  0  0  0  0
  186.6770  176.1910  144.9000 C   0  0  0  0  0  2  0  0  0  0  0  0
  185.5150  178.0600  146.2230 C   0  0  0  0  0  2  0  0  0  0  0  0
  183.8760  177.9080  141.8160 N   0  0  0  0  0  2  0  0  0  0  0  0
  183.5860  179.4040  143.5900 O   0  0  0  0  0  0  0  0  0  0  0  0
  184.2960  178.5180  143.0400 C   0  0  0  0  0  0  0  0  0  0  0  0
  182.6420  178.2900  141.1490 C   0  0  0  0  0  1  0  0  0  0  0  0
  191.8190  174.7680  144.8600 N   0  0  0  0  0  2  0  0  0  0  0  0
  194.0650  172.1580  145.6440 C   0  0  0  0  0  3  0  0  0  0  0  0
  193.0630  174.5610  145.5310 C   0  0  0  0  0  0  0  0  0  0  0  0
  193.5650  173.3600  145.5890 C   0  0  0  0  0  0  0  0  0  0  0  0
  193.7930  175.6900  146.1800 C   0  0  0  0  0  1  0  0  0  0  0  0
  195.4760  171.9720  145.6830 N   0  0  0  0  0  2  0  0  0  0  0  0
  196.3030  172.2920  144.5280 C   0  0  2  0  0  3  0  0  0  0  0  0
  197.1460  171.0800  144.1650 C   0  0  0  0  0  1  0  0  0  0  0  0
  197.2100  173.7940  146.3200 C   0  0  0  0  0  1  0  0  0  0  0  0
  196.6980  174.7350  144.1060 C   0  0  0  0  0  1  0  0  0  0  0  0
  197.1970  173.4960  144.8310 C   0  0  0  0  0  3  0  0  0  0  0  0
  1  2  2  0  0  0  0
  2  3  1  0  0  0  0
  3 28  1  1  0  0  0
  4  5  2  0  0  0  0
  5  9  1  0  0  0  0
  5  2  1  0  0  0  0
  6 12  1  0  0  0  0
  7 10  1  0  0  0  0
  7  4  1  0  0  0  0
  8  3  1  0  0  0  0
  8  6  1  0  0  0  0
  9  8  2  0  0  0  0
 10 11  1  0  0  0  0
 11  9  1  0  0  0  0
 12 14  1  0  0  0  0
 14 15  1  0  0  0  0
 14 13  1  1  0  0  0
 15 17  1  0  0  0  0
 15 16  1  1  0  0  0
 18 17  1  6  0  0  0
 19 26  1  1  0  0  0
 19 20  1  0  0  0  0
 19 21  1  0  0  0  0
 20 22  1  0  0  0  0
 21 23  1  0  0  0  0
 22 18  1  0  0  0  0
 23 18  1  0  0  0  0
 24 26  1  0  0  0  0
 26 25  2  0  0  0  0
 27 24  1  0  0  0  0
 28 30  1  0  0  0  0
 29 33  1  0  0  0  0
 30 31  2  0  0  0  0
 30 32  1  0  0  0  0
 31 29  2  0  0  0  0
 34 35  1  1  0  0  0
 34 38  1  0  0  0  0
 34 33  1  0  0  0  0
 37 38  1  0  0  0  0
 38 36  1  0  0  0  0
M  END
>  <MODEL>
9

>  <REMARK>
 VINA RESULT:      -7.1      2.767      8.331
  Name = 
  11 active torsions:
  status: ('A' for Active; 'I' for Inactive)
    1  A    between atoms: C_1  and  C_34
    2  A    between atoms: C_3  and  C_34
    3  A    between atoms: C_3  and  C_37
    4  A    between atoms: C_4  and  N_32
    5  A    between atoms: C_7  and  N_32
    6  A    between atoms: C_7  and  C_38
    7  A    between atoms: C_9  and  N_29
    8  A    between atoms: C_12  and  C_14
    9  A    between atoms: C_13  and  N_29
   10  A    between atoms: C_19  and  C_25
   11  A    between atoms: C_25  and  C_37
                            x       y       z     vdW  Elec       q    Type
                         _______ _______ _______ _____ _____    ______ ____

>  <TORSDO>
F 11

$$$$
