=
 OpenBabel11042418423D

 34 35  0  0  1  0  0  0  0  0999 V2000
  187.5460  177.2770  147.0150 C   0  0  0  0  0  2  0  0  0  0  0  0
  187.6630  176.5410  145.6950 C   0  0  2  0  0  3  0  0  0  0  0  0
  188.8590  177.2820  146.2490 C   0  0  2  0  0  3  0  0  0  0  0  0
  187.2190  178.2760  142.2910 N   0  0  0  0  0  0  0  0  0  0  0  0
  185.2200  178.4310  143.4970 C   0  0  0  0  0  0  0  0  0  0  0  0
  184.8100  177.3580  145.9950 Cl  0  0  0  0  0  0  0  0  0  0  0  0
  185.7790  177.6920  144.5510 C   0  0  0  0  0  0  0  0  0  0  0  0
  187.8170  177.5160  143.2480 C   0  0  0  0  0  0  0  0  0  0  0  0
  187.1100  177.2340  144.4540 C   0  0  0  0  0  0  0  0  0  0  0  0
  185.9710  178.7240  142.4120 N   0  0  0  0  0  0  0  0  0  0  0  0
  189.1430  176.9710  142.9110 C   0  0  0  0  0  0  0  0  0  0  0  0
  189.2670  175.6050  142.5000 N   0  0  0  0  0  2  0  0  0  0  0  0
  190.1510  177.7270  142.9200 O   0  0  0  0  0  0  0  0  0  0  0  0
  190.4980  175.0530  141.9600 C   0  0  0  0  0  2  0  0  0  0  0  0
  190.3030  173.6200  141.4840 C   0  0  0  0  0  2  0  0  0  0  0  0
  190.1410  173.5550  139.9700 C   0  0  0  0  0  2  0  0  0  0  0  0
  188.2980  172.7250  139.0520 C   0  0  0  0  0  1  0  0  0  0  0  0
  188.8340  173.8930  139.6010 O   0  0  0  0  0  0  0  0  0  0  0  0
  183.8030  178.9010  143.5390 C   0  0  0  0  0  2  0  0  0  0  0  0
  183.0800  178.3820  142.3900 N   0  0  0  0  0  1  0  0  0  0  0  0
  189.8200  176.2920  146.8780 C   0  0  0  0  0  2  0  0  0  0  0  0
  190.7070  175.6560  145.8150 C   0  0  1  0  0  3  0  0  0  0  0  0
  193.1100  174.9770  145.4600 N   0  0  0  0  0  2  0  0  0  0  0  0
  192.1410  175.6980  146.2270 C   0  0  0  0  0  0  0  0  0  0  0  0
  192.4980  176.3600  147.2420 O   0  0  0  0  0  0  0  0  0  0  0  0
  194.5390  174.9950  145.7580 C   0  0  1  0  0  3  0  0  0  0  0  0
  195.1460  173.6230  145.5120 C   0  0  0  0  0  1  0  0  0  0  0  0
  195.2400  176.0250  144.9830 N   0  0  0  0  0  2  0  0  0  0  0  0
  197.1580  175.7920  143.6740 O   0  0  0  0  0  1  0  0  0  0  0  0
  195.8050  175.4730  143.7560 C   0  0  2  0  0  3  0  0  0  0  0  0
  194.1240  175.0910  142.0870 O   0  0  0  0  0  1  0  0  0  0  0  0
  195.0670  176.0160  142.5430 C   0  0  0  0  0  2  0  0  0  0  0  0
  190.2950  174.2690  145.5470 C   0  0  0  0  0  0  0  0  0  0  0  0
  189.9590  173.1330  145.3200 C   0  0  0  0  0  3  0  0  0  0  0  0
  2  9  1  6  0  0  0
  2  3  1  0  0  0  0
  2  1  1  0  0  0  0
  3 21  1  1  0  0  0
  3  1  1  0  0  0  0
  4 10  2  0  0  0  0
  4  8  1  0  0  0  0
  5 19  1  0  0  0  0
  5  7  2  0  0  0  0
  7  6  1  0  0  0  0
  8  9  2  0  0  0  0
  9  7  1  0  0  0  0
 10  5  1  0  0  0  0
 11 13  2  0  0  0  0
 11  8  1  0  0  0  0
 12 11  1  0  0  0  0
 14 12  1  0  0  0  0
 15 14  1  0  0  0  0
 16 15  1  0  0  0  0
 17 18  1  0  0  0  0
 18 16  1  0  0  0  0
 20 19  1  0  0  0  0
 22 33  1  1  0  0  0
 22 24  1  0  0  0  0
 22 21  1  0  0  0  0
 23 26  1  0  0  0  0
 23 24  1  0  0  0  0
 24 25  2  0  0  0  0
 26 27  1  6  0  0  0
 28 26  1  0  0  0  0
 30 29  1  6  0  0  0
 30 28  1  0  0  0  0
 31 32  1  0  0  0  0
 32 30  1  0  0  0  0
 34 33  3  0  0  0  0
M  END
>  <MODEL>
1

>  <REMARK>
 VINA RESULT:      -5.7      0.000      0.000
  Name = 
  15 active torsions:
  status: ('A' for Active; 'I' for Inactive)
    1  A    between atoms: C_2  and  C_16
    2  A    between atoms: C_3  and  C_8
    3  A    between atoms: C_3  and  O_20
    4  A    between atoms: C_4  and  C_8
    5  A    between atoms: C_4  and  N_17
    6  A    between atoms: N_6  and  C_14
    7  A    between atoms: C_7  and  C_31
    8  A    between atoms: C_9  and  C_31
    9  A    between atoms: C_10  and  C_26
   10  A    between atoms: C_13  and  C_22
   11  A    between atoms: C_13  and  N_25
   12  A    between atoms: C_14  and  N_25
   13  A    between atoms: C_24  and  C_29
   14  A    between atoms: C_28  and  C_34
   15  A    between atoms: C_31  and  C_34
                            x       y       z     vdW  Elec       q    Type
                         _______ _______ _______ _____ _____    ______ ____

>  <TORSDO>
F 15

$$$$
=
 OpenBabel11042418423D

 34 35  0  0  1  0  0  0  0  0999 V2000
  192.9250  176.2090  146.9190 C   0  0  0  0  0  2  0  0  0  0  0  0
  192.5270  175.6690  145.5580 C   0  0  2  0  0  3  0  0  0  0  0  0
  191.5280  175.6560  146.6920 C   0  0  2  0  0  3  0  0  0  0  0  0
  192.6930  171.9370  144.6440 N   0  0  0  0  0  0  0  0  0  0  0  0
  194.8420  172.6900  145.1850 C   0  0  0  0  0  0  0  0  0  0  0  0
  195.4660  175.2750  145.8840 Cl  0  0  0  0  0  0  0  0  0  0  0  0
  194.3530  173.9900  145.3870 C   0  0  0  0  0  0  0  0  0  0  0  0
  192.1510  173.1780  144.7750 C   0  0  0  0  0  0  0  0  0  0  0  0
  192.9800  174.2560  145.2050 C   0  0  0  0  0  0  0  0  0  0  0  0
  193.9880  171.6980  144.8480 N   0  0  0  0  0  0  0  0  0  0  0  0
  190.7410  173.3170  144.3740 C   0  0  0  0  0  0  0  0  0  0  0  0
  190.4170  173.8880  143.1020 N   0  0  0  0  0  2  0  0  0  0  0  0
  189.8310  172.8690  145.1230 O   0  0  0  0  0  0  0  0  0  0  0  0
  189.0720  173.8730  142.5520 C   0  0  0  0  0  2  0  0  0  0  0  0
  188.8040  172.5930  141.7720 C   0  0  0  0  0  2  0  0  0  0  0  0
  188.3170  172.8950  140.3600 C   0  0  0  0  0  2  0  0  0  0  0  0
  188.6590  174.0490  138.4950 C   0  0  0  0  0  1  0  0  0  0  0  0
  188.9290  174.0530  139.8670 O   0  0  0  0  0  0  0  0  0  0  0  0
  196.2940  172.3710  145.3270 C   0  0  0  0  0  2  0  0  0  0  0  0
  196.4540  171.1480  146.0960 N   0  0  0  0  0  1  0  0  0  0  0  0
  190.5490  176.8010  146.5170 C   0  0  0  0  0  2  0  0  0  0  0  0
  189.4100  176.3960  145.5890 C   0  0  1  0  0  3  0  0  0  0  0  0
  187.2220  177.6200  145.8610 N   0  0  0  0  0  2  0  0  0  0  0  0
  188.0910  176.5590  146.2690 C   0  0  0  0  0  0  0  0  0  0  0  0
  187.7430  175.7720  147.1940 O   0  0  0  0  0  0  0  0  0  0  0  0
  185.8950  177.8310  146.4330 C   0  0  1  0  0  3  0  0  0  0  0  0
  185.9390  178.9430  147.4680 C   0  0  0  0  0  1  0  0  0  0  0  0
  184.8980  178.1180  145.3960 N   0  0  0  0  0  2  0  0  0  0  0  0
  185.2370  179.8350  143.8520 O   0  0  0  0  0  1  0  0  0  0  0  0
  185.5350  178.5050  144.1410 C   0  0  2  0  0  3  0  0  0  0  0  0
  185.8970  176.4940  142.8850 O   0  0  0  0  0  1  0  0  0  0  0  0
  185.0620  177.6070  143.0100 C   0  0  0  0  0  2  0  0  0  0  0  0
  189.4420  177.1780  144.3440 C   0  0  0  0  0  0  0  0  0  0  0  0
  189.4710  177.8140  143.3190 C   0  0  0  0  0  3  0  0  0  0  0  0
  2  9  1  1  0  0  0
  2  3  1  0  0  0  0
  2  1  1  0  0  0  0
  3 21  1  6  0  0  0
  3  1  1  0  0  0  0
  4  8  2  0  0  0  0
  4 10  1  0  0  0  0
  5 19  1  0  0  0  0
  5  7  1  0  0  0  0
  7  6  1  0  0  0  0
  8  9  1  0  0  0  0
  9  7  2  0  0  0  0
 10  5  2  0  0  0  0
 11  8  1  0  0  0  0
 11 13  2  0  0  0  0
 12 11  1  0  0  0  0
 14 12  1  0  0  0  0
 15 14  1  0  0  0  0
 16 15  1  0  0  0  0
 17 18  1  0  0  0  0
 18 16  1  0  0  0  0
 19 20  1  0  0  0  0
 22 33  1  6  0  0  0
 22 24  1  0  0  0  0
 22 21  1  0  0  0  0
 23 24  1  0  0  0  0
 23 26  1  0  0  0  0
 24 25  2  0  0  0  0
 26 27  1  1  0  0  0
 28 26  1  0  0  0  0
 30 29  1  6  0  0  0
 30 28  1  0  0  0  0
 31 32  1  0  0  0  0
 32 30  1  0  0  0  0
 34 33  3  0  0  0  0
M  END
>  <MODEL>
2

>  <REMARK>
 VINA RESULT:      -5.7      3.366      7.801
  Name = 
  15 active torsions:
  status: ('A' for Active; 'I' for Inactive)
    1  A    between atoms: C_2  and  C_16
    2  A    between atoms: C_3  and  C_8
    3  A    between atoms: C_3  and  O_20
    4  A    between atoms: C_4  and  C_8
    5  A    between atoms: C_4  and  N_17
    6  A    between atoms: N_6  and  C_14
    7  A    between atoms: C_7  and  C_31
    8  A    between atoms: C_9  and  C_31
    9  A    between atoms: C_10  and  C_26
   10  A    between atoms: C_13  and  C_22
   11  A    between atoms: C_13  and  N_25
   12  A    between atoms: C_14  and  N_25
   13  A    between atoms: C_24  and  C_29
   14  A    between atoms: C_28  and  C_34
   15  A    between atoms: C_31  and  C_34
                            x       y       z     vdW  Elec       q    Type
                         _______ _______ _______ _____ _____    ______ ____

>  <TORSDO>
F 15

$$$$
=
 OpenBabel11042418423D

 34 35  0  0  1  0  0  0  0  0999 V2000
  190.6100  176.8800  142.9980 C   0  0  0  0  0  2  0  0  0  0  0  0
  189.9380  177.3970  144.2560 C   0  0  2  0  0  3  0  0  0  0  0  0
  190.7690  176.1350  144.3130 C   0  0  2  0  0  3  0  0  0  0  0  0
  186.2110  176.6180  143.7150 N   0  0  0  0  0  0  0  0  0  0  0  0
  186.5720  177.1060  145.9750 C   0  0  0  0  0  0  0  0  0  0  0  0
  189.0190  177.7020  147.0770 Cl  0  0  0  0  0  0  0  0  0  0  0  0
  187.9460  177.2660  145.7380 C   0  0  0  0  0  0  0  0  0  0  0  0
  187.5340  176.7100  143.4130 C   0  0  0  0  0  0  0  0  0  0  0  0
  188.4550  177.0900  144.4340 C   0  0  0  0  0  0  0  0  0  0  0  0
  185.7440  176.8150  144.9470 N   0  0  0  0  0  0  0  0  0  0  0  0
  187.9170  176.3210  142.0460 C   0  0  0  0  0  0  0  0  0  0  0  0
  188.2780  174.9640  141.7670 N   0  0  0  0  0  2  0  0  0  0  0  0
  187.8600  177.1690  141.1150 O   0  0  0  0  0  0  0  0  0  0  0  0
  188.4690  174.4600  140.4170 C   0  0  0  0  0  2  0  0  0  0  0  0
  189.8190  173.7720  140.2660 C   0  0  0  0  0  2  0  0  0  0  0  0
  190.1380  172.9050  141.4790 C   0  0  0  0  0  2  0  0  0  0  0  0
  191.3850  172.6140  143.2920 C   0  0  0  0  0  1  0  0  0  0  0  0
  191.3070  173.3510  142.1060 O   0  0  0  0  0  0  0  0  0  0  0  0
  185.9950  177.2420  147.3460 C   0  0  0  0  0  2  0  0  0  0  0  0
  185.5410  178.6070  147.5530 N   0  0  0  0  0  1  0  0  0  0  0  0
  192.1250  176.4490  144.9160 C   0  0  0  0  0  2  0  0  0  0  0  0
  192.5920  175.3060  145.8100 C   0  0  1  0  0  3  0  0  0  0  0  0
  194.8860  174.2840  145.5790 N   0  0  0  0  0  2  0  0  0  0  0  0
  194.0680  175.3710  146.0230 C   0  0  0  0  0  0  0  0  0  0  0  0
  194.5910  176.3710  146.5900 O   0  0  0  0  0  0  0  0  0  0  0  0
  196.3410  174.2770  145.7010 C   0  0  1  0  0  3  0  0  0  0  0  0
  196.8330  172.8800  146.0450 C   0  0  0  0  0  1  0  0  0  0  0  0
  196.9880  174.7780  144.4840 N   0  0  0  0  0  2  0  0  0  0  0  0
  196.5300  173.8720  142.3830 O   0  0  0  0  0  1  0  0  0  0  0  0
  196.0700  174.7620  143.3500 C   0  0  2  0  0  3  0  0  0  0  0  0
  196.6840  177.0760  143.5000 O   0  0  0  0  0  1  0  0  0  0  0  0
  195.9400  176.1550  142.7560 C   0  0  0  0  0  2  0  0  0  0  0  0
  191.8890  175.3280  147.1020 C   0  0  0  0  0  0  0  0  0  0  0  0
  191.3060  175.3430  148.1580 C   0  0  0  0  0  3  0  0  0  0  0  0
  1  2  1  0  0  0  0
  1  3  1  0  0  0  0
  2  3  1  0  0  0  0
  2  9  1  6  0  0  0
  3 21  1  1  0  0  0
  4 10  1  0  0  0  0
  5 19  1  0  0  0  0
  7  5  1  0  0  0  0
  7  6  1  0  0  0  0
  8  4  2  0  0  0  0
  8  9  1  0  0  0  0
  9  7  2  0  0  0  0
 10  5  2  0  0  0  0
 11  8  1  0  0  0  0
 12 11  1  0  0  0  0
 13 11  2  0  0  0  0
 14 12  1  0  0  0  0
 15 14  1  0  0  0  0
 15 16  1  0  0  0  0
 16 18  1  0  0  0  0
 18 17  1  0  0  0  0
 19 20  1  0  0  0  0
 22 21  1  6  0  0  0
 22 24  1  0  0  0  0
 22 33  1  0  0  0  0
 23 26  1  0  0  0  0
 23 24  1  0  0  0  0
 24 25  2  0  0  0  0
 26 27  1  6  0  0  0
 28 26  1  0  0  0  0
 30 29  1  6  0  0  0
 30 28  1  0  0  0  0
 32 30  1  0  0  0  0
 32 31  1  0  0  0  0
 33 34  3  0  0  0  0
M  END
>  <MODEL>
3

>  <REMARK>
 VINA RESULT:      -5.7      2.168      2.939
  Name = 
  15 active torsions:
  status: ('A' for Active; 'I' for Inactive)
    1  A    between atoms: C_2  and  C_16
    2  A    between atoms: C_3  and  C_8
    3  A    between atoms: C_3  and  O_20
    4  A    between atoms: C_4  and  C_8
    5  A    between atoms: C_4  and  N_17
    6  A    between atoms: N_6  and  C_14
    7  A    between atoms: C_7  and  C_31
    8  A    between atoms: C_9  and  C_31
    9  A    between atoms: C_10  and  C_26
   10  A    between atoms: C_13  and  C_22
   11  A    between atoms: C_13  and  N_25
   12  A    between atoms: C_14  and  N_25
   13  A    between atoms: C_24  and  C_29
   14  A    between atoms: C_28  and  C_34
   15  A    between atoms: C_31  and  C_34
                            x       y       z     vdW  Elec       q    Type
                         _______ _______ _______ _____ _____    ______ ____

>  <TORSDO>
F 15

$$$$
=
 OpenBabel11042418423D

 34 35  0  0  1  0  0  0  0  0999 V2000
  193.5430  174.1210  146.1220 C   0  0  0  0  0  2  0  0  0  0  0  0
  193.3690  175.5630  145.6860 C   0  0  2  0  0  3  0  0  0  0  0  0
  192.1710  174.6430  145.7300 C   0  0  2  0  0  3  0  0  0  0  0  0
  193.3360  176.5150  141.9600 N   0  0  0  0  0  0  0  0  0  0  0  0
  195.4990  175.8570  142.5630 C   0  0  0  0  0  0  0  0  0  0  0  0
  196.2550  175.0960  145.0950 Cl  0  0  0  0  0  0  0  0  0  0  0  0
  195.0870  175.6630  143.8910 C   0  0  0  0  0  0  0  0  0  0  0  0
  192.8710  176.3960  143.2320 C   0  0  0  0  0  0  0  0  0  0  0  0
  193.7460  175.9110  144.2500 C   0  0  0  0  0  0  0  0  0  0  0  0
  194.6000  176.2500  141.6330 N   0  0  0  0  0  0  0  0  0  0  0  0
  191.4950  176.8650  143.4680 C   0  0  0  0  0  0  0  0  0  0  0  0
  190.3900  176.1100  142.9600 N   0  0  0  0  0  2  0  0  0  0  0  0
  191.2960  177.8900  144.1740 O   0  0  0  0  0  0  0  0  0  0  0  0
  189.0110  176.3920  143.3210 C   0  0  0  0  0  2  0  0  0  0  0  0
  188.0520  175.4060  142.6670 C   0  0  0  0  0  2  0  0  0  0  0  0
  187.7100  175.8270  141.2420 C   0  0  0  0  0  2  0  0  0  0  0  0
  186.7640  177.3280  139.9090 C   0  0  0  0  0  1  0  0  0  0  0  0
  187.1810  177.1220  141.2270 O   0  0  0  0  0  0  0  0  0  0  0  0
  196.9180  175.6470  142.1480 C   0  0  0  0  0  2  0  0  0  0  0  0
  197.0510  175.8870  140.7200 N   0  0  0  0  0  1  0  0  0  0  0  0
  191.3580  174.9290  146.9790 C   0  0  0  0  0  2  0  0  0  0  0  0
  190.7900  176.3420  146.9360 C   0  0  1  0  0  3  0  0  0  0  0  0
  188.5690  177.5370  146.8990 N   0  0  0  0  0  2  0  0  0  0  0  0
  189.3020  176.3100  146.8240 C   0  0  0  0  0  0  0  0  0  0  0  0
  188.6930  175.2140  146.6660 O   0  0  0  0  0  0  0  0  0  0  0  0
  187.1180  177.6110  146.7540 C   0  0  1  0  0  3  0  0  0  0  0  0
  186.5230  178.4810  147.8500 C   0  0  0  0  0  1  0  0  0  0  0  0
  186.7320  178.1010  145.4270 N   0  0  0  0  0  2  0  0  0  0  0  0
  184.4050  177.9630  145.3080 O   0  0  0  0  0  1  0  0  0  0  0  0
  185.4730  178.8400  145.4800 C   0  0  2  0  0  3  0  0  0  0  0  0
  185.9630  179.4170  143.2040 O   0  0  0  0  0  1  0  0  0  0  0  0
  185.4450  179.9130  144.4030 C   0  0  0  0  0  2  0  0  0  0  0  0
  191.1950  177.1090  148.1240 C   0  0  0  0  0  0  0  0  0  0  0  0
  191.5310  177.7420  149.0950 C   0  0  0  0  0  3  0  0  0  0  0  0
  2  9  1  6  0  0  0
  2  3  1  0  0  0  0
  2  1  1  0  0  0  0
  3  1  1  0  0  0  0
  3 21  1  1  0  0  0
  4  8  1  0  0  0  0
  5  7  2  0  0  0  0
  7  9  1  0  0  0  0
  7  6  1  0  0  0  0
  8 11  1  0  0  0  0
  8  9  2  0  0  0  0
 10  4  2  0  0  0  0
 10  5  1  0  0  0  0
 11 13  2  0  0  0  0
 12 14  1  0  0  0  0
 12 11  1  0  0  0  0
 15 14  1  0  0  0  0
 16 15  1  0  0  0  0
 17 18  1  0  0  0  0
 18 16  1  0  0  0  0
 19  5  1  0  0  0  0
 20 19  1  0  0  0  0
 22 21  1  1  0  0  0
 22 33  1  0  0  0  0
 24 23  1  0  0  0  0
 24 22  1  0  0  0  0
 25 24  2  0  0  0  0
 26 23  1  0  0  0  0
 26 27  1  1  0  0  0
 28 30  1  0  0  0  0
 28 26  1  0  0  0  0
 30 29  1  6  0  0  0
 31 32  1  0  0  0  0
 32 30  1  0  0  0  0
 33 34  3  0  0  0  0
M  END
>  <MODEL>
4

>  <REMARK>
 VINA RESULT:      -5.7      3.364      7.568
  Name = 
  15 active torsions:
  status: ('A' for Active; 'I' for Inactive)
    1  A    between atoms: C_2  and  C_16
    2  A    between atoms: C_3  and  C_8
    3  A    between atoms: C_3  and  O_20
    4  A    between atoms: C_4  and  C_8
    5  A    between atoms: C_4  and  N_17
    6  A    between atoms: N_6  and  C_14
    7  A    between atoms: C_7  and  C_31
    8  A    between atoms: C_9  and  C_31
    9  A    between atoms: C_10  and  C_26
   10  A    between atoms: C_13  and  C_22
   11  A    between atoms: C_13  and  N_25
   12  A    between atoms: C_14  and  N_25
   13  A    between atoms: C_24  and  C_29
   14  A    between atoms: C_28  and  C_34
   15  A    between atoms: C_31  and  C_34
                            x       y       z     vdW  Elec       q    Type
                         _______ _______ _______ _____ _____    ______ ____

>  <TORSDO>
F 15

$$$$
=
 OpenBabel11042418423D

 34 35  0  0  1  0  0  0  0  0999 V2000
  187.8730  176.7340  147.2650 C   0  0  0  0  0  2  0  0  0  0  0  0
  187.8060  175.9620  145.9610 C   0  0  2  0  0  3  0  0  0  0  0  0
  189.1510  176.3230  146.5510 C   0  0  2  0  0  3  0  0  0  0  0  0
  188.0590  177.7570  142.5690 N   0  0  0  0  0  0  0  0  0  0  0  0
  186.0270  178.3170  143.5830 C   0  0  0  0  0  0  0  0  0  0  0  0
  185.1660  177.3470  146.0080 Cl  0  0  0  0  0  0  0  0  0  0  0  0
  186.3180  177.4770  144.6700 C   0  0  0  0  0  0  0  0  0  0  0  0
  188.3930  176.8880  143.5620 C   0  0  0  0  0  0  0  0  0  0  0  0
  187.5300  176.7560  144.6900 C   0  0  0  0  0  0  0  0  0  0  0  0
  186.9230  178.4510  142.5810 N   0  0  0  0  0  0  0  0  0  0  0  0
  189.6060  176.0830  143.3400 C   0  0  0  0  0  0  0  0  0  0  0  0
  189.4880  174.6930  143.0200 N   0  0  0  0  0  2  0  0  0  0  0  0
  190.7380  176.6370  143.3660 O   0  0  0  0  0  0  0  0  0  0  0  0
  190.6170  173.8840  142.5900 C   0  0  0  0  0  2  0  0  0  0  0  0
  190.4260  173.3740  141.1680 C   0  0  0  0  0  2  0  0  0  0  0  0
  189.0590  172.7230  140.9910 C   0  0  0  0  0  2  0  0  0  0  0  0
  188.6000  173.9040  139.1690 C   0  0  0  0  0  1  0  0  0  0  0  0
  188.7490  172.5940  139.6330 O   0  0  0  0  0  0  0  0  0  0  0  0
  184.7380  179.0680  143.5010 C   0  0  0  0  0  2  0  0  0  0  0  0
  183.7900  178.3260  142.6880 N   0  0  0  0  0  1  0  0  0  0  0  0
  189.7480  175.1070  147.2340 C   0  0  0  0  0  2  0  0  0  0  0  0
  191.1440  175.4180  147.7570 C   0  0  1  0  0  3  0  0  0  0  0  0
  193.2910  176.1960  146.6870 N   0  0  0  0  0  2  0  0  0  0  0  0
  192.1520  175.3300  146.6600 C   0  0  0  0  0  0  0  0  0  0  0  0
  192.0030  174.5040  145.7160 O   0  0  0  0  0  0  0  0  0  0  0  0
  194.3520  176.1510  145.6850 C   0  0  1  0  0  3  0  0  0  0  0  0
  194.9460  177.5360  145.4850 C   0  0  0  0  0  1  0  0  0  0  0  0
  195.3920  175.1800  146.0410 N   0  0  0  0  0  2  0  0  0  0  0  0
  195.0490  172.9380  145.4920 O   0  0  0  0  0  1  0  0  0  0  0  0
  195.5320  174.1520  145.0130 C   0  0  2  0  0  3  0  0  0  0  0  0
  197.4210  175.1500  143.9210 O   0  0  0  0  0  1  0  0  0  0  0  0
  196.9900  174.0100  144.6050 C   0  0  0  0  0  2  0  0  0  0  0  0
  191.1870  176.7490  148.3830 C   0  0  0  0  0  0  0  0  0  0  0  0
  191.2220  177.8440  148.8890 C   0  0  0  0  0  3  0  0  0  0  0  0
  2  9  1  6  0  0  0
  2  3  1  0  0  0  0
  2  1  1  0  0  0  0
  3 21  1  1  0  0  0
  3  1  1  0  0  0  0
  4 10  2  0  0  0  0
  4  8  1  0  0  0  0
  5  7  2  0  0  0  0
  7  9  1  0  0  0  0
  7  6  1  0  0  0  0
  8  9  2  0  0  0  0
 10  5  1  0  0  0  0
 11 13  2  0  0  0  0
 11  8  1  0  0  0  0
 12 11  1  0  0  0  0
 14 12  1  0  0  0  0
 15 14  1  0  0  0  0
 16 15  1  0  0  0  0
 17 18  1  0  0  0  0
 18 16  1  0  0  0  0
 19  5  1  0  0  0  0
 20 19  1  0  0  0  0
 22 21  1  6  0  0  0
 22 33  1  0  0  0  0
 24 23  1  0  0  0  0
 24 22  1  0  0  0  0
 25 24  2  0  0  0  0
 26 27  1  1  0  0  0
 26 28  1  0  0  0  0
 26 23  1  0  0  0  0
 30 29  1  1  0  0  0
 30 28  1  0  0  0  0
 31 32  1  0  0  0  0
 32 30  1  0  0  0  0
 33 34  3  0  0  0  0
M  END
>  <MODEL>
5

>  <REMARK>
 VINA RESULT:      -5.5      1.496      2.105
  Name = 
  15 active torsions:
  status: ('A' for Active; 'I' for Inactive)
    1  A    between atoms: C_2  and  C_16
    2  A    between atoms: C_3  and  C_8
    3  A    between atoms: C_3  and  O_20
    4  A    between atoms: C_4  and  C_8
    5  A    between atoms: C_4  and  N_17
    6  A    between atoms: N_6  and  C_14
    7  A    between atoms: C_7  and  C_31
    8  A    between atoms: C_9  and  C_31
    9  A    between atoms: C_10  and  C_26
   10  A    between atoms: C_13  and  C_22
   11  A    between atoms: C_13  and  N_25
   12  A    between atoms: C_14  and  N_25
   13  A    between atoms: C_24  and  C_29
   14  A    between atoms: C_28  and  C_34
   15  A    between atoms: C_31  and  C_34
                            x       y       z     vdW  Elec       q    Type
                         _______ _______ _______ _____ _____    ______ ____

>  <TORSDO>
F 15

$$$$
=
 OpenBabel11042418423D

 34 35  0  0  1  0  0  0  0  0999 V2000
  189.1850  177.7020  144.2340 C   0  0  0  0  0  2  0  0  0  0  0  0
  189.4920  176.2160  144.2310 C   0  0  2  0  0  3  0  0  0  0  0  0
  190.5990  177.2120  143.9680 C   0  0  2  0  0  3  0  0  0  0  0  0
  187.9240  174.9420  140.9590 N   0  0  0  0  0  0  0  0  0  0  0  0
  189.4000  173.3240  141.7820 C   0  0  0  0  0  0  0  0  0  0  0  0
  190.9080  173.5970  144.0640 Cl  0  0  0  0  0  0  0  0  0  0  0  0
  189.7420  174.1590  142.8570 C   0  0  0  0  0  0  0  0  0  0  0  0
  188.2360  175.8270  141.9430 C   0  0  0  0  0  0  0  0  0  0  0  0
  189.1440  175.4310  142.9710 C   0  0  0  0  0  0  0  0  0  0  0  0
  188.4780  173.7330  140.8820 N   0  0  0  0  0  0  0  0  0  0  0  0
  187.6580  177.1750  141.8140 C   0  0  0  0  0  0  0  0  0  0  0  0
  186.4280  177.4870  142.4770 N   0  0  0  0  0  2  0  0  0  0  0  0
  188.2820  178.0660  141.1780 O   0  0  0  0  0  0  0  0  0  0  0  0
  185.9010  178.8390  142.5660 C   0  0  0  0  0  2  0  0  0  0  0  0
  185.7000  179.2620  144.0150 C   0  0  0  0  0  2  0  0  0  0  0  0
  184.4120  178.6840  144.5880 C   0  0  0  0  0  2  0  0  0  0  0  0
  184.3320  178.2530  146.7640 C   0  0  0  0  0  1  0  0  0  0  0  0
  184.6970  177.6940  145.5350 O   0  0  0  0  0  0  0  0  0  0  0  0
  190.0380  171.9860  141.5990 C   0  0  0  0  0  2  0  0  0  0  0  0
  190.2510  171.7340  140.1840 N   0  0  0  0  0  1  0  0  0  0  0  0
  191.4400  177.3770  145.2190 C   0  0  0  0  0  2  0  0  0  0  0  0
  192.1170  176.0620  145.5870 C   0  0  1  0  0  3  0  0  0  0  0  0
  194.3430  175.1460  144.8340 N   0  0  0  0  0  2  0  0  0  0  0  0
  193.6010  176.1840  145.4820 C   0  0  0  0  0  0  0  0  0  0  0  0
  194.1980  177.1890  145.9600 O   0  0  0  0  0  0  0  0  0  0  0  0
  195.7890  175.1980  144.6420 C   0  0  1  0  0  3  0  0  0  0  0  0
  196.4760  174.1880  145.5460 C   0  0  0  0  0  1  0  0  0  0  0  0
  196.1560  174.9810  143.2380 N   0  0  0  0  0  2  0  0  0  0  0  0
  196.7970  177.1950  143.6080 O   0  0  0  0  0  1  0  0  0  0  0  0
  196.7600  176.1770  142.6580 C   0  0  2  0  0  3  0  0  0  0  0  0
  194.6340  176.2340  141.5480 O   0  0  0  0  0  1  0  0  0  0  0  0
  195.9700  176.6290  141.4400 C   0  0  0  0  0  2  0  0  0  0  0  0
  191.7350  175.6350  146.9420 C   0  0  0  0  0  0  0  0  0  0  0  0
  191.4270  175.2910  148.0560 C   0  0  0  0  0  3  0  0  0  0  0  0
  2  9  1  6  0  0  0
  2  1  1  0  0  0  0
  3  2  1  0  0  0  0
  3  1  1  0  0  0  0
  3 21  1  1  0  0  0
  4  8  1  0  0  0  0
  5  7  2  0  0  0  0
  7  9  1  0  0  0  0
  7  6  1  0  0  0  0
  8  9  2  0  0  0  0
 10  4  2  0  0  0  0
 10  5  1  0  0  0  0
 11  8  1  0  0  0  0
 11 12  1  0  0  0  0
 12 14  1  0  0  0  0
 13 11  2  0  0  0  0
 14 15  1  0  0  0  0
 15 16  1  0  0  0  0
 16 18  1  0  0  0  0
 18 17  1  0  0  0  0
 19  5  1  0  0  0  0
 20 19  1  0  0  0  0
 22 21  1  1  0  0  0
 22 33  1  0  0  0  0
 23 24  1  0  0  0  0
 24 22  1  0  0  0  0
 24 25  2  0  0  0  0
 26 23  1  0  0  0  0
 26 27  1  1  0  0  0
 28 26  1  0  0  0  0
 30 28  1  0  0  0  0
 30 29  1  1  0  0  0
 32 31  1  0  0  0  0
 32 30  1  0  0  0  0
 33 34  3  0  0  0  0
M  END
>  <MODEL>
6

>  <REMARK>
 VINA RESULT:      -5.5      2.429      4.962
  Name = 
  15 active torsions:
  status: ('A' for Active; 'I' for Inactive)
    1  A    between atoms: C_2  and  C_16
    2  A    between atoms: C_3  and  C_8
    3  A    between atoms: C_3  and  O_20
    4  A    between atoms: C_4  and  C_8
    5  A    between atoms: C_4  and  N_17
    6  A    between atoms: N_6  and  C_14
    7  A    between atoms: C_7  and  C_31
    8  A    between atoms: C_9  and  C_31
    9  A    between atoms: C_10  and  C_26
   10  A    between atoms: C_13  and  C_22
   11  A    between atoms: C_13  and  N_25
   12  A    between atoms: C_14  and  N_25
   13  A    between atoms: C_24  and  C_29
   14  A    between atoms: C_28  and  C_34
   15  A    between atoms: C_31  and  C_34
                            x       y       z     vdW  Elec       q    Type
                         _______ _______ _______ _____ _____    ______ ____

>  <TORSDO>
F 15

$$$$
=
 OpenBabel11042418423D

 34 35  0  0  1  0  0  0  0  0999 V2000
  191.9720  175.2930  146.9530 C   0  0  0  0  0  2  0  0  0  0  0  0
  191.7600  176.3710  145.9070 C   0  0  2  0  0  3  0  0  0  0  0  0
  190.8080  175.1990  145.9800 C   0  0  2  0  0  3  0  0  0  0  0  0
  193.0960  175.8600  142.3370 N   0  0  0  0  0  0  0  0  0  0  0  0
  194.8870  176.3380  143.7650 C   0  0  0  0  0  0  0  0  0  0  0  0
  194.6500  176.8680  146.4520 Cl  0  0  0  0  0  0  0  0  0  0  0  0
  194.0070  176.4820  144.8490 C   0  0  0  0  0  0  0  0  0  0  0  0
  192.1760  176.0280  143.3250 C   0  0  0  0  0  0  0  0  0  0  0  0
  192.6220  176.3070  144.6510 C   0  0  0  0  0  0  0  0  0  0  0  0
  194.4040  176.0020  142.5480 N   0  0  0  0  0  0  0  0  0  0  0  0
  190.7630  175.9850  142.9100 C   0  0  0  0  0  0  0  0  0  0  0  0
  190.1660  174.7360  142.5470 N   0  0  0  0  0  2  0  0  0  0  0  0
  190.0690  177.0370  142.9440 O   0  0  0  0  0  0  0  0  0  0  0  0
  188.7380  174.5790  142.3260 C   0  0  0  0  0  2  0  0  0  0  0  0
  188.4550  173.8640  141.0130 C   0  0  0  0  0  2  0  0  0  0  0  0
  189.7070  173.7730  140.1490 C   0  0  0  0  0  2  0  0  0  0  0  0
  188.2010  172.6690  138.9480 C   0  0  0  0  0  1  0  0  0  0  0  0
  189.3730  173.4220  138.8360 O   0  0  0  0  0  0  0  0  0  0  0  0
  196.3570  176.5540  143.9200 C   0  0  0  0  0  2  0  0  0  0  0  0
  197.0340  176.2300  142.6750 N   0  0  0  0  0  1  0  0  0  0  0  0
  189.5280  175.6280  146.6710 C   0  0  0  0  0  2  0  0  0  0  0  0
  189.1900  177.0720  146.3240 C   0  0  1  0  0  3  0  0  0  0  0  0
  187.4150  178.2100  144.9400 N   0  0  0  0  0  2  0  0  0  0  0  0
  187.7700  177.1910  145.8790 C   0  0  0  0  0  0  0  0  0  0  0  0
  186.8890  176.4030  146.3260 O   0  0  0  0  0  0  0  0  0  0  0  0
  186.0640  178.3750  144.4120 C   0  0  1  0  0  3  0  0  0  0  0  0
  185.2980  179.3990  145.2330 C   0  0  0  0  0  1  0  0  0  0  0  0
  186.0790  178.7450  142.9920 N   0  0  0  0  0  2  0  0  0  0  0  0
  185.8810  176.4310  142.7570 O   0  0  0  0  0  1  0  0  0  0  0  0
  185.5930  177.6530  142.1540 C   0  0  2  0  0  3  0  0  0  0  0  0
  187.6270  177.7470  140.8860 O   0  0  0  0  0  1  0  0  0  0  0  0
  186.2330  177.7190  140.7770 C   0  0  0  0  0  2  0  0  0  0  0  0
  189.4410  177.9610  147.4690 C   0  0  0  0  0  0  0  0  0  0  0  0
  189.6530  178.6870  148.4100 C   0  0  0  0  0  3  0  0  0  0  0  0
  2  9  1  6  0  0  0
  2  3  1  0  0  0  0
  2  1  1  0  0  0  0
  3 21  1  1  0  0  0
  3  1  1  0  0  0  0
  4 10  2  0  0  0  0
  4  8  1  0  0  0  0
  5 19  1  0  0  0  0
  5  7  2  0  0  0  0
  7  6  1  0  0  0  0
  8  9  2  0  0  0  0
  9  7  1  0  0  0  0
 10  5  1  0  0  0  0
 11 13  2  0  0  0  0
 11  8  1  0  0  0  0
 12 11  1  0  0  0  0
 14 12  1  0  0  0  0
 15 14  1  0  0  0  0
 16 15  1  0  0  0  0
 18 17  1  0  0  0  0
 18 16  1  0  0  0  0
 20 19  1  0  0  0  0
 22 21  1  1  0  0  0
 22 33  1  0  0  0  0
 23 24  1  0  0  0  0
 24 22  1  0  0  0  0
 24 25  2  0  0  0  0
 26 23  1  0  0  0  0
 26 27  1  1  0  0  0
 28 26  1  0  0  0  0
 30 29  1  1  0  0  0
 30 28  1  0  0  0  0
 32 31  1  0  0  0  0
 32 30  1  0  0  0  0
 33 34  3  0  0  0  0
M  END
>  <MODEL>
7

>  <REMARK>
 VINA RESULT:      -5.4      2.855      7.087
  Name = 
  15 active torsions:
  status: ('A' for Active; 'I' for Inactive)
    1  A    between atoms: C_2  and  C_16
    2  A    between atoms: C_3  and  C_8
    3  A    between atoms: C_3  and  O_20
    4  A    between atoms: C_4  and  C_8
    5  A    between atoms: C_4  and  N_17
    6  A    between atoms: N_6  and  C_14
    7  A    between atoms: C_7  and  C_31
    8  A    between atoms: C_9  and  C_31
    9  A    between atoms: C_10  and  C_26
   10  A    between atoms: C_13  and  C_22
   11  A    between atoms: C_13  and  N_25
   12  A    between atoms: C_14  and  N_25
   13  A    between atoms: C_24  and  C_29
   14  A    between atoms: C_28  and  C_34
   15  A    between atoms: C_31  and  C_34
                            x       y       z     vdW  Elec       q    Type
                         _______ _______ _______ _____ _____    ______ ____

>  <TORSDO>
F 15

$$$$
=
 OpenBabel11042418423D

 34 35  0  0  1  0  0  0  0  0999 V2000
  188.2050  176.0050  142.4540 C   0  0  0  0  0  2  0  0  0  0  0  0
  188.7910  176.8860  143.5410 C   0  0  2  0  0  3  0  0  0  0  0  0
  188.9150  175.3830  143.6460 C   0  0  2  0  0  3  0  0  0  0  0  0
  186.8020  177.5860  146.7570 N   0  0  0  0  0  0  0  0  0  0  0  0
  185.8310  178.7630  144.9840 C   0  0  0  0  0  0  0  0  0  0  0  0
  186.7740  178.7640  142.4010 Cl  0  0  0  0  0  0  0  0  0  0  0  0
  186.8200  178.2910  144.1070 C   0  0  0  0  0  0  0  0  0  0  0  0
  187.8200  177.1240  145.9830 C   0  0  0  0  0  0  0  0  0  0  0  0
  187.8310  177.4360  144.5900 C   0  0  0  0  0  0  0  0  0  0  0  0
  185.8390  178.3700  146.2770 N   0  0  0  0  0  0  0  0  0  0  0  0
  188.8890  176.3920  146.6830 C   0  0  0  0  0  0  0  0  0  0  0  0
  190.1870  176.9810  146.8120 N   0  0  0  0  0  2  0  0  0  0  0  0
  188.6370  175.2810  147.2230 O   0  0  0  0  0  0  0  0  0  0  0  0
  191.2280  176.4180  147.6570 C   0  0  0  0  0  2  0  0  0  0  0  0
  192.3100  175.7390  146.8280 C   0  0  0  0  0  2  0  0  0  0  0  0
  192.5910  176.5120  145.5440 C   0  0  0  0  0  2  0  0  0  0  0  0
  194.5540  175.6600  146.1360 C   0  0  0  0  0  1  0  0  0  0  0  0
  193.9700  176.6590  145.3530 O   0  0  0  0  0  0  0  0  0  0  0  0
  184.7640  179.7030  144.5250 C   0  0  0  0  0  2  0  0  0  0  0  0
  183.6980  178.9560  143.8800 N   0  0  0  0  0  1  0  0  0  0  0  0
  190.3150  174.9600  143.2420 C   0  0  0  0  0  2  0  0  0  0  0  0
  190.5530  173.4960  143.5880 C   0  0  1  0  0  3  0  0  0  0  0  0
  190.0920  172.9370  141.1720 N   0  0  0  0  0  2  0  0  0  0  0  0
  189.9470  172.6030  142.5560 C   0  0  0  0  0  0  0  0  0  0  0  0
  189.3120  171.5660  142.8970 O   0  0  0  0  0  0  0  0  0  0  0  0
  189.5750  172.1040  140.0910 C   0  0  1  0  0  3  0  0  0  0  0  0
  188.3930  172.7840  139.4200 C   0  0  0  0  0  1  0  0  0  0  0  0
  190.6190  171.7800  139.1120 N   0  0  0  0  0  2  0  0  0  0  0  0
  189.6900  169.8220  138.2460 O   0  0  0  0  0  1  0  0  0  0  0  0
  190.7710  170.3360  138.9570 C   0  0  2  0  0  3  0  0  0  0  0  0
  192.0920  169.9590  140.9240 O   0  0  0  0  0  1  0  0  0  0  0  0
  190.8660  169.6670  140.3190 C   0  0  0  0  0  2  0  0  0  0  0  0
  191.9910  173.2150  143.7240 C   0  0  0  0  0  0  0  0  0  0  0  0
  193.1710  172.9910  143.8390 C   0  0  0  0  0  3  0  0  0  0  0  0
  1  2  1  0  0  0  0
  1  3  1  0  0  0  0
  2  3  1  0  0  0  0
  2  9  1  1  0  0  0
  3 21  1  6  0  0  0
  5 10  2  0  0  0  0
  6  7  1  0  0  0  0
  7  9  2  0  0  0  0
  7  5  1  0  0  0  0
  8 11  1  0  0  0  0
  8  4  2  0  0  0  0
  9  8  1  0  0  0  0
 10  4  1  0  0  0  0
 11 12  1  0  0  0  0
 11 13  2  0  0  0  0
 12 14  1  0  0  0  0
 15 14  1  0  0  0  0
 16 15  1  0  0  0  0
 18 16  1  0  0  0  0
 18 17  1  0  0  0  0
 19  5  1  0  0  0  0
 20 19  1  0  0  0  0
 22 21  1  6  0  0  0
 22 33  1  0  0  0  0
 23 24  1  0  0  0  0
 24 25  2  0  0  0  0
 24 22  1  0  0  0  0
 26 27  1  6  0  0  0
 26 23  1  0  0  0  0
 28 26  1  0  0  0  0
 30 29  1  1  0  0  0
 30 28  1  0  0  0  0
 30 32  1  0  0  0  0
 32 31  1  0  0  0  0
 33 34  3  0  0  0  0
M  END
>  <MODEL>
8

>  <REMARK>
 VINA RESULT:      -5.4      2.785      5.756
  Name = 
  15 active torsions:
  status: ('A' for Active; 'I' for Inactive)
    1  A    between atoms: C_2  and  C_16
    2  A    between atoms: C_3  and  C_8
    3  A    between atoms: C_3  and  O_20
    4  A    between atoms: C_4  and  C_8
    5  A    between atoms: C_4  and  N_17
    6  A    between atoms: N_6  and  C_14
    7  A    between atoms: C_7  and  C_31
    8  A    between atoms: C_9  and  C_31
    9  A    between atoms: C_10  and  C_26
   10  A    between atoms: C_13  and  C_22
   11  A    between atoms: C_13  and  N_25
   12  A    between atoms: C_14  and  N_25
   13  A    between atoms: C_24  and  C_29
   14  A    between atoms: C_28  and  C_34
   15  A    between atoms: C_31  and  C_34
                            x       y       z     vdW  Elec       q    Type
                         _______ _______ _______ _____ _____    ______ ____

>  <TORSDO>
F 15

$$$$
=
 OpenBabel11042418423D

 34 35  0  0  1  0  0  0  0  0999 V2000
  188.4980  176.2870  142.2040 C   0  0  0  0  0  2  0  0  0  0  0  0
  188.8550  176.8520  143.5660 C   0  0  2  0  0  3  0  0  0  0  0  0
  189.0450  175.3780  143.2930 C   0  0  2  0  0  3  0  0  0  0  0  0
  186.4730  176.7890  146.5850 N   0  0  0  0  0  0  0  0  0  0  0  0
  185.4670  177.9780  144.8390 C   0  0  0  0  0  0  0  0  0  0  0  0
  186.6320  178.4600  142.3960 Cl  0  0  0  0  0  0  0  0  0  0  0  0
  186.6070  177.8010  144.0390 C   0  0  0  0  0  0  0  0  0  0  0  0
  187.6300  176.6150  145.8910 C   0  0  0  0  0  0  0  0  0  0  0  0
  187.7130  177.0900  144.5470 C   0  0  0  0  0  0  0  0  0  0  0  0
  185.4270  177.4400  146.0780 N   0  0  0  0  0  0  0  0  0  0  0  0
  188.7480  176.0090  146.6320 C   0  0  0  0  0  0  0  0  0  0  0  0
  189.9880  176.7150  146.7510 N   0  0  0  0  0  2  0  0  0  0  0  0
  188.5860  174.9030  147.2150 O   0  0  0  0  0  0  0  0  0  0  0  0
  191.0610  176.2800  147.6300 C   0  0  0  0  0  2  0  0  0  0  0  0
  192.0130  175.3300  146.9170 C   0  0  0  0  0  2  0  0  0  0  0  0
  192.9020  176.0750  145.9280 C   0  0  0  0  0  2  0  0  0  0  0  0
  194.5680  177.5410  145.8570 C   0  0  0  0  0  1  0  0  0  0  0  0
  194.1350  176.3850  146.5140 O   0  0  0  0  0  0  0  0  0  0  0  0
  184.2880  178.7590  144.3560 C   0  0  0  0  0  2  0  0  0  0  0  0
  184.6380  180.1660  144.2630 N   0  0  0  0  0  1  0  0  0  0  0  0
  190.5130  175.0950  143.0320 C   0  0  0  0  0  2  0  0  0  0  0  0
  190.7590  173.5960  142.9250 C   0  0  1  0  0  3  0  0  0  0  0  0
  193.1300  174.3780  142.5680 N   0  0  0  0  0  2  0  0  0  0  0  0
  192.2200  173.3060  142.8320 C   0  0  0  0  0  0  0  0  0  0  0  0
  192.6520  172.1280  142.9820 O   0  0  0  0  0  0  0  0  0  0  0  0
  194.5780  174.2010  142.5050 C   0  0  1  0  0  3  0  0  0  0  0  0
  195.0490  174.2290  141.0600 C   0  0  0  0  0  1  0  0  0  0  0  0
  195.2810  175.2090  143.3060 N   0  0  0  0  0  2  0  0  0  0  0  0
  196.7650  174.5460  144.9810 O   0  0  0  0  0  1  0  0  0  0  0  0
  196.6440  174.7850  143.6140 C   0  0  2  0  0  3  0  0  0  0  0  0
  197.0260  177.1040  143.1370 O   0  0  0  0  0  1  0  0  0  0  0  0
  197.6390  175.8490  143.1800 C   0  0  0  0  0  2  0  0  0  0  0  0
  190.1700  172.8830  144.0690 C   0  0  0  0  0  0  0  0  0  0  0  0
  189.6920  172.3020  145.0130 C   0  0  0  0  0  3  0  0  0  0  0  0
  1  3  1  0  0  0  0
  1  2  1  0  0  0  0
  2  9  1  1  0  0  0
  3 21  1  6  0  0  0
  3  2  1  0  0  0  0
  5 10  2  0  0  0  0
  6  7  1  0  0  0  0
  7  9  2  0  0  0  0
  7  5  1  0  0  0  0
  8  4  2  0  0  0  0
  8 11  1  0  0  0  0
  9  8  1  0  0  0  0
 10  4  1  0  0  0  0
 11 12  1  0  0  0  0
 11 13  2  0  0  0  0
 12 14  1  0  0  0  0
 15 14  1  0  0  0  0
 16 18  1  0  0  0  0
 16 15  1  0  0  0  0
 17 18  1  0  0  0  0
 19  5  1  0  0  0  0
 20 19  1  0  0  0  0
 22 21  1  1  0  0  0
 22 33  1  0  0  0  0
 23 24  1  0  0  0  0
 24 22  1  0  0  0  0
 24 25  2  0  0  0  0
 26 27  1  6  0  0  0
 26 23  1  0  0  0  0
 26 28  1  0  0  0  0
 28 30  1  0  0  0  0
 30 29  1  1  0  0  0
 31 32  1  0  0  0  0
 32 30  1  0  0  0  0
 33 34  3  0  0  0  0
M  END
>  <MODEL>
9

>  <REMARK>
 VINA RESULT:      -5.3      2.548      4.368
  Name = 
  15 active torsions:
  status: ('A' for Active; 'I' for Inactive)
    1  A    between atoms: C_2  and  C_16
    2  A    between atoms: C_3  and  C_8
    3  A    between atoms: C_3  and  O_20
    4  A    between atoms: C_4  and  C_8
    5  A    between atoms: C_4  and  N_17
    6  A    between atoms: N_6  and  C_14
    7  A    between atoms: C_7  and  C_31
    8  A    between atoms: C_9  and  C_31
    9  A    between atoms: C_10  and  C_26
   10  A    between atoms: C_13  and  C_22
   11  A    between atoms: C_13  and  N_25
   12  A    between atoms: C_14  and  N_25
   13  A    between atoms: C_24  and  C_29
   14  A    between atoms: C_28  and  C_34
   15  A    between atoms: C_31  and  C_34
                            x       y       z     vdW  Elec       q    Type
                         _______ _______ _______ _____ _____    ______ ____

>  <TORSDO>
F 15

$$$$
