=
 OpenBabel11042415413D

 46 50  0  0  1  0  0  0  0  0999 V2000
  190.9010  177.4080  144.3950 C   0  0  2  0  0  3  0  0  0  0  0  0
  189.2010  174.2250  143.6780 C   0  0  0  0  0  3  0  0  0  0  0  0
  191.2020  178.5510  143.4460 C   0  0  0  0  0  1  0  0  0  0  0  0
  192.0470  176.4030  144.3870 C   0  0  2  0  0  3  0  0  0  0  0  0
  189.6630  176.6510  143.9290 C   0  0  1  0  0  3  0  0  0  0  0  0
  191.4280  175.0070  144.5280 C   0  0  1  0  0  3  0  0  0  0  0  0
  191.3990  174.5100  145.9710 C   0  0  0  0  0  1  0  0  0  0  0  0
  190.0290  175.2100  144.0530 C   0  0  0  0  0  0  0  0  0  0  0  0
  186.1020  177.6320  144.9510 C   0  0  0  0  0  0  0  0  0  0  0  0
  187.2330  177.3290  144.1440 C   0  0  0  0  0  0  0  0  0  0  0  0
  186.2810  177.5590  139.7260 C   0  0  0  0  0  1  0  0  0  0  0  0
  185.1190  177.9100  147.1460 O   0  0  0  0  0  1  0  0  0  0  0  0
  186.2150  177.6100  146.3470 C   0  0  0  0  0  0  0  0  0  0  0  0
  188.5430  176.9830  146.1630 C   0  0  0  0  0  3  0  0  0  0  0  0
  187.4310  177.2860  146.9470 C   0  0  0  0  0  3  0  0  0  0  0  0
  188.4570  177.0050  144.7620 C   0  0  0  0  0  0  0  0  0  0  0  0
  184.6890  178.0030  143.0660 C   0  0  0  0  0  0  0  0  0  0  0  0
  184.8370  177.9650  144.3520 N   0  0  0  0  0  0  0  0  0  0  0  0
  185.7670  177.7170  142.1510 C   0  0  0  0  0  0  0  0  0  0  0  0
  183.4620  178.3210  142.4360 N   0  0  0  0  0  2  0  0  0  0  0  0
  183.6480  178.2670  140.6740 S   0  0  0  0  0  0  0  0  0  0  0  0
  185.3800  177.8120  140.8870 C   0  0  0  0  0  0  0  0  0  0  0  0
  187.1330  177.3330  142.6320 C   0  0  0  0  0  2  0  0  0  0  0  0
  189.5800  172.7810  143.7590 C   0  0  0  0  0  2  0  0  0  0  0  0
  190.4550  172.0250  141.6040 C   0  0  1  0  0  3  0  0  0  0  0  0
  189.2470  172.0900  142.4520 C   0  0  1  0  0  3  0  0  0  0  0  0
  190.0090  170.9110  142.3410 O   0  0  0  0  0  0  0  0  0  0  0  0
  190.0510  171.8590  140.1510 C   0  0  0  0  0  2  0  0  0  0  0  0
  190.5300  173.0430  139.3320 C   0  0  0  0  0  2  0  0  0  0  0  0
  189.5360  174.0220  139.2760 O   0  0  0  0  0  0  0  0  0  0  0  0
  188.6480  173.5640  138.3030 C   0  0  0  0  0  2  0  0  0  0  0  0
  187.7980  174.6580  137.8670 N   0  0  0  0  0  1  0  0  0  0  0  0
  193.0140  176.7090  145.4320 N   0  0  0  0  0  2  0  0  0  0  0  0
  194.7120  174.5020  145.5840 O   0  0  0  0  0  0  0  0  0  0  0  0
  194.2810  176.6690  144.8360 N   0  0  0  0  0  2  0  0  0  0  0  0
  195.1120  175.5160  144.9530 C   0  0  0  0  0  0  0  0  0  0  0  0
  196.4780  175.5290  144.3580 C   0  0  0  0  0  2  0  0  0  0  0  0
  196.5720  174.5210  143.2650 C   0  0  0  0  0  0  0  0  0  0  0  0
  197.3990  173.5770  143.3610 O   0  0  0  0  0  0  0  0  0  0  0  0
  195.7480  174.6550  142.1050 N   0  0  0  0  0  2  0  0  0  0  0  0
  195.8170  173.7290  140.9850 C   0  0  1  0  0  3  0  0  0  0  0  0
  194.3620  171.7850  141.9700 O   0  0  0  0  0  0  0  0  0  0  0  0
  194.2650  172.8160  140.8540 S   0  0  0  0  0  3  0  0  0  0  0  0
  196.0680  174.5120  139.7090 C   0  0  0  0  0  2  0  0  0  0  0  0
  196.6450  175.7450  140.0100 O   0  0  0  0  0  0  0  0  0  0  0  0
  197.9410  175.6560  139.5060 C   0  0  0  0  0  1  0  0  0  0  0  0
  1  3  1  6  0  0  0
  2 24  1  0  0  0  0
  2  8  2  0  0  0  0
  4  1  1  0  0  0  0
  4  6  1  0  0  0  0
  4 33  1  1  0  0  0
  5  8  1  0  0  0  0
  5  1  1  0  0  0  0
  5 16  1  1  0  0  0
  6  7  1  1  0  0  0
  8  6  1  0  0  0  0
  9 13  1  0  0  0  0
 10 16  1  0  0  0  0
 10  9  2  0  0  0  0
 11 22  1  0  0  0  0
 13 15  2  0  0  0  0
 13 12  1  0  0  0  0
 14 15  1  0  0  0  0
 16 14  2  0  0  0  0
 17 18  2  0  0  0  0
 18  9  1  0  0  0  0
 19 23  1  0  0  0  0
 19 17  1  0  0  0  0
 20 17  1  0  0  0  0
 21 22  1  0  0  0  0
 21 20  1  0  0  0  0
 22 19  2  0  0  0  0
 23 10  1  0  0  0  0
 25 28  1  6  0  0  0
 25 27  1  0  0  0  0
 25 26  1  0  0  0  0
 26 24  1  1  0  0  0
 27 26  1  0  0  0  0
 29 28  1  0  0  0  0
 30 29  1  0  0  0  0
 31 30  1  0  0  0  0
 32 31  1  0  0  0  0
 35 36  1  0  0  0  0
 35 33  1  0  0  0  0
 36 34  2  0  0  0  0
 37 36  1  0  0  0  0
 38 39  2  0  0  0  0
 38 37  1  0  0  0  0
 40 38  1  0  0  0  0
 41 44  1  6  0  0  0
 41 40  1  0  0  0  0
 43 41  1  0  0  0  0
 43 42  2  0  0  0  0
 44 45  1  0  0  0  0
 46 45  1  0  0  0  0
M  END
>  <MODEL>
1

>  <REMARK>
 VINA RESULT:      -7.0      0.000      0.000
  Name = 
  15 active torsions:
  status: ('A' for Active; 'I' for Inactive)
    1  A    between atoms: C_1  and  C_10
    2  A    between atoms: C_1  and  N_34
    3  A    between atoms: C_1  and  S_36
    4  A    between atoms: C_2  and  O_37
    5  A    between atoms: O_3  and  C_10
    6  A    between atoms: C_8  and  C_16
    7  A    between atoms: C_8  and  C_19
    8  A    between atoms: C_9  and  C_11
    9  A    between atoms: C_11  and  C_21
   10  A    between atoms: C_13  and  C_15
   11  A    between atoms: C_13  and  C_45
   12  A    between atoms: C_21  and  O_37
   13  A    between atoms: N_24  and  N_25
   14  A    between atoms: N_25  and  C_35
   15  A    between atoms: C_26  and  C_38
                            x       y       z     vdW  Elec       q    Type
                         _______ _______ _______ _____ _____    ______ ____

>  <TORSDO>
F 15

$$$$
=
 OpenBabel11042415413D

 46 50  0  0  1  0  0  0  0  0999 V2000
  191.0050  177.1440  144.0010 C   0  0  2  0  0  3  0  0  0  0  0  0
  189.4070  173.8540  143.5990 C   0  0  0  0  0  3  0  0  0  0  0  0
  191.1850  178.2370  142.9660 C   0  0  0  0  0  1  0  0  0  0  0  0
  192.1920  176.1900  143.9700 C   0  0  2  0  0  3  0  0  0  0  0  0
  189.7730  176.3090  143.6710 C   0  0  1  0  0  3  0  0  0  0  0  0
  191.6500  174.7800  144.2380 C   0  0  1  0  0  3  0  0  0  0  0  0
  191.7440  174.3740  145.7060 C   0  0  0  0  0  1  0  0  0  0  0  0
  190.2130  174.8950  143.8540 C   0  0  0  0  0  0  0  0  0  0  0  0
  186.2920  177.3640  144.8780 C   0  0  0  0  0  0  0  0  0  0  0  0
  187.3800  177.0620  144.0130 C   0  0  0  0  0  0  0  0  0  0  0  0
  186.2760  177.5500  139.6520 C   0  0  0  0  0  1  0  0  0  0  0  0
  185.4010  177.5660  147.1200 O   0  0  0  0  0  1  0  0  0  0  0  0
  186.4560  177.2670  146.2650 C   0  0  0  0  0  0  0  0  0  0  0  0
  188.7490  176.5670  145.9600 C   0  0  0  0  0  3  0  0  0  0  0  0
  187.6790  176.8690  146.8010 C   0  0  0  0  0  3  0  0  0  0  0  0
  188.6130  176.6630  144.5670 C   0  0  0  0  0  0  0  0  0  0  0  0
  184.8250  177.8810  143.0690 C   0  0  0  0  0  0  0  0  0  0  0  0
  185.0190  177.7720  144.3450 N   0  0  0  0  0  0  0  0  0  0  0  0
  185.8570  177.6030  142.1000 C   0  0  0  0  0  0  0  0  0  0  0  0
  183.5900  178.2750  142.5020 N   0  0  0  0  0  2  0  0  0  0  0  0
  183.7080  178.3030  140.7340 S   0  0  0  0  0  0  0  0  0  0  0  0
  185.4280  177.7760  140.8580 C   0  0  0  0  0  0  0  0  0  0  0  0
  187.2250  177.1470  142.5080 C   0  0  0  0  0  2  0  0  0  0  0  0
  189.8580  172.4360  143.7380 C   0  0  0  0  0  2  0  0  0  0  0  0
  190.8300  171.6190  141.6470 C   0  0  1  0  0  3  0  0  0  0  0  0
  189.5900  171.6840  142.4490 C   0  0  1  0  0  3  0  0  0  0  0  0
  190.3860  170.5240  142.4120 O   0  0  0  0  0  0  0  0  0  0  0  0
  190.4830  171.3850  140.1890 C   0  0  0  0  0  2  0  0  0  0  0  0
  191.0380  172.5060  139.3290 C   0  0  0  0  0  2  0  0  0  0  0  0
  190.5640  173.7390  139.7820 O   0  0  0  0  0  0  0  0  0  0  0  0
  189.2840  173.8440  139.2370 C   0  0  0  0  0  2  0  0  0  0  0  0
  188.4200  174.5560  140.1610 N   0  0  0  0  0  1  0  0  0  0  0  0
  193.2140  176.6000  144.9220 N   0  0  0  0  0  2  0  0  0  0  0  0
  194.9250  175.2730  146.6790 O   0  0  0  0  0  0  0  0  0  0  0  0
  194.4100  175.9920  144.5210 N   0  0  0  0  0  2  0  0  0  0  0  0
  195.2520  175.3330  145.4640 C   0  0  0  0  0  0  0  0  0  0  0  0
  196.5460  174.7480  145.0150 C   0  0  0  0  0  2  0  0  0  0  0  0
  196.3470  173.3410  144.5680 C   0  0  0  0  0  0  0  0  0  0  0  0
  196.2800  173.0830  143.3380 O   0  0  0  0  0  0  0  0  0  0  0  0
  196.1990  172.3030  145.5410 N   0  0  0  0  0  2  0  0  0  0  0  0
  195.9640  170.9150  145.1740 C   0  0  1  0  0  3  0  0  0  0  0  0
  196.1070  169.1960  147.1460 O   0  0  0  0  0  0  0  0  0  0  0  0
  197.0470  169.8390  146.1370 S   0  0  0  0  0  3  0  0  0  0  0  0
  194.5110  170.5700  145.4480 C   0  0  0  0  0  2  0  0  0  0  0  0
  194.0570  169.6390  144.5140 O   0  0  0  0  0  0  0  0  0  0  0  0
  194.0600  170.3290  143.3040 C   0  0  0  0  0  1  0  0  0  0  0  0
  1  3  1  6  0  0  0
  2 24  1  0  0  0  0
  2  8  2  0  0  0  0
  4  1  1  0  0  0  0
  4  6  1  0  0  0  0
  4 33  1  1  0  0  0
  5  8  1  0  0  0  0
  5  1  1  0  0  0  0
  5 16  1  1  0  0  0
  6  7  1  1  0  0  0
  8  6  1  0  0  0  0
  9 13  1  0  0  0  0
 10 16  1  0  0  0  0
 10  9  2  0  0  0  0
 11 22  1  0  0  0  0
 13 15  2  0  0  0  0
 13 12  1  0  0  0  0
 14 15  1  0  0  0  0
 16 14  2  0  0  0  0
 17 18  2  0  0  0  0
 18  9  1  0  0  0  0
 19 23  1  0  0  0  0
 19 17  1  0  0  0  0
 20 17  1  0  0  0  0
 21 22  1  0  0  0  0
 21 20  1  0  0  0  0
 22 19  2  0  0  0  0
 23 10  1  0  0  0  0
 25 28  1  6  0  0  0
 25 27  1  0  0  0  0
 25 26  1  0  0  0  0
 26 24  1  1  0  0  0
 27 26  1  0  0  0  0
 29 30  1  0  0  0  0
 29 28  1  0  0  0  0
 31 30  1  0  0  0  0
 31 32  1  0  0  0  0
 35 33  1  0  0  0  0
 35 36  1  0  0  0  0
 36 34  2  0  0  0  0
 37 36  1  0  0  0  0
 38 37  1  0  0  0  0
 38 40  1  0  0  0  0
 39 38  2  0  0  0  0
 41 44  1  1  0  0  0
 41 40  1  0  0  0  0
 41 43  1  0  0  0  0
 43 42  2  0  0  0  0
 45 44  1  0  0  0  0
 46 45  1  0  0  0  0
M  END
>  <MODEL>
2

>  <REMARK>
 VINA RESULT:      -7.0      2.025      2.636
  Name = 
  15 active torsions:
  status: ('A' for Active; 'I' for Inactive)
    1  A    between atoms: C_1  and  C_10
    2  A    between atoms: C_1  and  N_34
    3  A    between atoms: C_1  and  S_36
    4  A    between atoms: C_2  and  O_37
    5  A    between atoms: O_3  and  C_10
    6  A    between atoms: C_8  and  C_16
    7  A    between atoms: C_8  and  C_19
    8  A    between atoms: C_9  and  C_11
    9  A    between atoms: C_11  and  C_21
   10  A    between atoms: C_13  and  C_15
   11  A    between atoms: C_13  and  C_45
   12  A    between atoms: C_21  and  O_37
   13  A    between atoms: N_24  and  N_25
   14  A    between atoms: N_25  and  C_35
   15  A    between atoms: C_26  and  C_38
                            x       y       z     vdW  Elec       q    Type
                         _______ _______ _______ _____ _____    ______ ____

>  <TORSDO>
F 15

$$$$
=
 OpenBabel11042415413D

 46 50  0  0  1  0  0  0  0  0999 V2000
  190.8860  177.1980  144.5060 C   0  0  2  0  0  3  0  0  0  0  0  0
  189.2640  173.9710  143.8050 C   0  0  0  0  0  3  0  0  0  0  0  0
  191.2030  178.3230  143.5410 C   0  0  0  0  0  1  0  0  0  0  0  0
  192.0470  176.2130  144.5650 C   0  0  2  0  0  3  0  0  0  0  0  0
  189.6780  176.4100  144.0130 C   0  0  1  0  0  3  0  0  0  0  0  0
  191.4450  174.8100  144.7170 C   0  0  1  0  0  3  0  0  0  0  0  0
  191.3700  174.3480  146.1700 C   0  0  0  0  0  1  0  0  0  0  0  0
  190.0620  174.9790  144.1860 C   0  0  0  0  0  0  0  0  0  0  0  0
  186.0870  177.4340  144.8770 C   0  0  0  0  0  0  0  0  0  0  0  0
  187.2530  177.1320  144.1210 C   0  0  0  0  0  0  0  0  0  0  0  0
  186.5440  177.5190  139.6690 C   0  0  0  0  0  1  0  0  0  0  0  0
  184.9930  177.6650  147.0250 O   0  0  0  0  0  1  0  0  0  0  0  0
  186.1250  177.3660  146.2750 C   0  0  0  0  0  0  0  0  0  0  0  0
  188.4460  176.6960  146.1940 C   0  0  0  0  0  3  0  0  0  0  0  0
  187.3010  176.9980  146.9280 C   0  0  0  0  0  3  0  0  0  0  0  0
  188.4360  176.7630  144.7920 C   0  0  0  0  0  0  0  0  0  0  0  0
  184.7840  177.8920  142.9320 C   0  0  0  0  0  0  0  0  0  0  0  0
  184.8630  177.8120  144.2230 N   0  0  0  0  0  0  0  0  0  0  0  0
  185.9040  177.6120  142.0670 C   0  0  0  0  0  0  0  0  0  0  0  0
  183.6000  178.2560  142.2480 N   0  0  0  0  0  2  0  0  0  0  0  0
  183.8780  178.2520  140.4980 S   0  0  0  0  0  0  0  0  0  0  0  0
  185.5870  177.7540  140.7880 C   0  0  0  0  0  0  0  0  0  0  0  0
  187.2350  177.1850  142.6070 C   0  0  0  0  0  2  0  0  0  0  0  0
  189.6630  172.5360  143.9350 C   0  0  0  0  0  2  0  0  0  0  0  0
  191.7080  171.2020  143.7940 C   0  0  1  0  0  3  0  0  0  0  0  0
  190.9350  172.2840  143.1500 C   0  0  1  0  0  3  0  0  0  0  0  0
  190.9210  170.9680  142.6500 O   0  0  0  0  0  0  0  0  0  0  0  0
  193.1660  171.3040  143.3860 C   0  0  0  0  0  2  0  0  0  0  0  0
  194.0580  170.7240  144.4690 C   0  0  0  0  0  2  0  0  0  0  0  0
  195.3770  171.1400  144.2790 O   0  0  0  0  0  0  0  0  0  0  0  0
  195.9260  171.1560  145.5610 C   0  0  0  0  0  2  0  0  0  0  0  0
  197.2050  171.8450  145.5330 N   0  0  0  0  0  1  0  0  0  0  0  0
  192.9690  176.5600  145.6370 N   0  0  0  0  0  2  0  0  0  0  0  0
  194.6270  174.3210  145.7630 O   0  0  0  0  0  0  0  0  0  0  0  0
  194.2580  176.5230  145.0900 N   0  0  0  0  0  2  0  0  0  0  0  0
  195.0670  175.3530  145.1910 C   0  0  0  0  0  0  0  0  0  0  0  0
  196.4550  175.3680  144.6520 C   0  0  0  0  0  2  0  0  0  0  0  0
  196.4820  176.0330  143.3190 C   0  0  0  0  0  0  0  0  0  0  0  0
  196.9510  177.1960  143.2150 O   0  0  0  0  0  0  0  0  0  0  0  0
  195.9430  175.3590  142.1800 N   0  0  0  0  0  2  0  0  0  0  0  0
  195.9030  175.9650  140.8580 C   0  0  1  0  0  3  0  0  0  0  0  0
  197.9390  174.3200  140.7440 O   0  0  0  0  0  0  0  0  0  0  0  0
  197.3400  175.4360  139.9010 S   0  0  0  0  0  3  0  0  0  0  0  0
  194.6260  175.5390  140.1560 C   0  0  0  0  0  2  0  0  0  0  0  0
  194.9300  174.7460  139.0500 O   0  0  0  0  0  0  0  0  0  0  0  0
  193.8920  174.9880  138.1520 C   0  0  0  0  0  1  0  0  0  0  0  0
  1  3  1  6  0  0  0
  1  4  1  0  0  0  0
  2 24  1  0  0  0  0
  2  8  2  0  0  0  0
  4  6  1  0  0  0  0
  4 33  1  1  0  0  0
  5  8  1  0  0  0  0
  5  1  1  0  0  0  0
  5 16  1  1  0  0  0
  6  7  1  1  0  0  0
  8  6  1  0  0  0  0
  9 13  1  0  0  0  0
 10 16  1  0  0  0  0
 10  9  2  0  0  0  0
 11 22  1  0  0  0  0
 13 15  2  0  0  0  0
 13 12  1  0  0  0  0
 14 15  1  0  0  0  0
 16 14  2  0  0  0  0
 17 18  2  0  0  0  0
 18  9  1  0  0  0  0
 19 23  1  0  0  0  0
 19 17  1  0  0  0  0
 20 17  1  0  0  0  0
 21 22  1  0  0  0  0
 21 20  1  0  0  0  0
 22 19  2  0  0  0  0
 23 10  1  0  0  0  0
 25 28  1  6  0  0  0
 26 25  1  0  0  0  0
 26 24  1  1  0  0  0
 27 26  1  0  0  0  0
 27 25  1  0  0  0  0
 28 29  1  0  0  0  0
 30 29  1  0  0  0  0
 30 31  1  0  0  0  0
 32 31  1  0  0  0  0
 35 36  1  0  0  0  0
 35 33  1  0  0  0  0
 36 34  2  0  0  0  0
 37 36  1  0  0  0  0
 38 37  1  0  0  0  0
 39 38  2  0  0  0  0
 40 38  1  0  0  0  0
 41 44  1  6  0  0  0
 41 40  1  0  0  0  0
 43 42  2  0  0  0  0
 43 41  1  0  0  0  0
 45 44  1  0  0  0  0
 46 45  1  0  0  0  0
M  END
>  <MODEL>
3

>  <REMARK>
 VINA RESULT:      -6.9      1.984      3.291
  Name = 
  15 active torsions:
  status: ('A' for Active; 'I' for Inactive)
    1  A    between atoms: C_1  and  C_10
    2  A    between atoms: C_1  and  N_34
    3  A    between atoms: C_1  and  S_36
    4  A    between atoms: C_2  and  O_37
    5  A    between atoms: O_3  and  C_10
    6  A    between atoms: C_8  and  C_16
    7  A    between atoms: C_8  and  C_19
    8  A    between atoms: C_9  and  C_11
    9  A    between atoms: C_11  and  C_21
   10  A    between atoms: C_13  and  C_15
   11  A    between atoms: C_13  and  C_45
   12  A    between atoms: C_21  and  O_37
   13  A    between atoms: N_24  and  N_25
   14  A    between atoms: N_25  and  C_35
   15  A    between atoms: C_26  and  C_38
                            x       y       z     vdW  Elec       q    Type
                         _______ _______ _______ _____ _____    ______ ____

>  <TORSDO>
F 15

$$$$
=
 OpenBabel11042415413D

 46 50  0  0  1  0  0  0  0  0999 V2000
  191.0170  175.5890  146.8890 C   0  0  2  0  0  3  0  0  0  0  0  0
  190.9010  173.4460  143.9010 C   0  0  0  0  0  3  0  0  0  0  0  0
  191.2780  175.1890  148.3270 C   0  0  0  0  0  1  0  0  0  0  0  0
  189.5260  175.5090  146.5830 C   0  0  2  0  0  3  0  0  0  0  0  0
  191.7030  174.6130  145.9400 C   0  0  1  0  0  3  0  0  0  0  0  0
  189.3840  175.0140  145.1390 C   0  0  1  0  0  3  0  0  0  0  0  0
  189.2250  176.1490  144.1310 C   0  0  0  0  0  1  0  0  0  0  0  0
  190.6810  174.3200  144.8930 C   0  0  0  0  0  0  0  0  0  0  0  0
  195.2760  174.9850  144.6050 C   0  0  0  0  0  0  0  0  0  0  0  0
  194.1110  174.4110  145.1840 C   0  0  0  0  0  0  0  0  0  0  0  0
  194.7060  170.0510  146.2380 C   0  0  0  0  0  1  0  0  0  0  0  0
  196.4070  176.9050  143.6570 O   0  0  0  0  0  1  0  0  0  0  0  0
  195.2710  176.3310  144.2180 C   0  0  0  0  0  0  0  0  0  0  0  0
  192.9790  176.5500  144.9530 C   0  0  0  0  0  3  0  0  0  0  0  0
  194.1270  177.1070  144.3920 C   0  0  0  0  0  3  0  0  0  0  0  0
  192.9600  175.2060  145.3560 C   0  0  0  0  0  0  0  0  0  0  0  0
  196.5170  172.9540  144.7630 C   0  0  0  0  0  0  0  0  0  0  0  0
  196.4670  174.2010  144.4140 N   0  0  0  0  0  0  0  0  0  0  0  0
  195.3970  172.2700  145.3610 C   0  0  0  0  0  0  0  0  0  0  0  0
  197.6660  172.1460  144.5890 N   0  0  0  0  0  2  0  0  0  0  0  0
  197.3530  170.5040  145.1790 S   0  0  0  0  0  0  0  0  0  0  0  0
  195.6790  171.0020  145.6280 C   0  0  0  0  0  0  0  0  0  0  0  0
  194.0860  172.9540  145.6000 C   0  0  0  0  0  2  0  0  0  0  0  0
  189.8650  173.1150  142.8750 C   0  0  0  0  0  2  0  0  0  0  0  0
  189.3550  173.1780  140.4840 C   0  0  1  0  0  3  0  0  0  0  0  0
  190.2900  173.6550  141.5250 C   0  0  1  0  0  3  0  0  0  0  0  0
  189.2720  174.4800  141.0110 O   0  0  0  0  0  0  0  0  0  0  0  0
  190.0330  173.2290  139.1270 C   0  0  0  0  0  2  0  0  0  0  0  0
  189.3000  172.3420  138.1380 C   0  0  0  0  0  2  0  0  0  0  0  0
  189.5900  172.7380  136.8310 O   0  0  0  0  0  0  0  0  0  0  0  0
  189.9980  174.0660  136.9500 C   0  0  0  0  0  2  0  0  0  0  0  0
  189.9850  174.6980  135.6420 N   0  0  0  0  0  1  0  0  0  0  0  0
  188.8790  176.7930  146.8140 N   0  0  0  0  0  2  0  0  0  0  0  0
  186.7970  178.3560  147.8150 O   0  0  0  0  0  0  0  0  0  0  0  0
  187.5460  176.6540  146.4060 N   0  0  0  0  0  2  0  0  0  0  0  0
  186.5190  177.4750  146.9580 C   0  0  0  0  0  0  0  0  0  0  0  0
  185.1040  177.2600  146.5470 C   0  0  0  0  0  2  0  0  0  0  0  0
  184.7760  178.1120  145.3700 C   0  0  0  0  0  0  0  0  0  0  0  0
  184.0760  179.1470  145.5260 O   0  0  0  0  0  0  0  0  0  0  0  0
  185.2280  177.7270  144.0690 N   0  0  0  0  0  2  0  0  0  0  0  0
  184.9120  178.4920  142.8730 C   0  0  1  0  0  3  0  0  0  0  0  0
  186.4730  176.7700  141.6640 O   0  0  0  0  0  0  0  0  0  0  0  0
  186.2170  178.2700  141.6450 S   0  0  0  0  0  3  0  0  0  0  0  0
  183.5850  178.0110  142.3130 C   0  0  0  0  0  2  0  0  0  0  0  0
  183.4830  178.3490  140.9640 O   0  0  0  0  0  0  0  0  0  0  0  0
  182.1380  178.1520  140.6560 C   0  0  0  0  0  1  0  0  0  0  0  0
  1  3  1  1  0  0  0
  2  8  2  0  0  0  0
  4 33  1  6  0  0  0
  4  1  1  0  0  0  0
  5 16  1  6  0  0  0
  5  1  1  0  0  0  0
  6  7  1  6  0  0  0
  6  4  1  0  0  0  0
  8  6  1  0  0  0  0
  8  5  1  0  0  0  0
  9 10  1  0  0  0  0
 10 16  2  0  0  0  0
 10 23  1  0  0  0  0
 12 13  1  0  0  0  0
 13 15  1  0  0  0  0
 13  9  2  0  0  0  0
 14 16  1  0  0  0  0
 15 14  2  0  0  0  0
 17 19  1  0  0  0  0
 18  9  1  0  0  0  0
 18 17  2  0  0  0  0
 19 23  1  0  0  0  0
 19 22  2  0  0  0  0
 20 17  1  0  0  0  0
 20 21  1  0  0  0  0
 21 22  1  0  0  0  0
 22 11  1  0  0  0  0
 24  2  1  0  0  0  0
 25 28  1  6  0  0  0
 25 27  1  0  0  0  0
 25 26  1  0  0  0  0
 26 24  1  1  0  0  0
 27 26  1  0  0  0  0
 29 28  1  0  0  0  0
 30 31  1  0  0  0  0
 30 29  1  0  0  0  0
 32 31  1  0  0  0  0
 35 33  1  0  0  0  0
 35 36  1  0  0  0  0
 36 34  2  0  0  0  0
 37 36  1  0  0  0  0
 38 39  2  0  0  0  0
 38 37  1  0  0  0  0
 40 38  1  0  0  0  0
 41 44  1  6  0  0  0
 41 40  1  0  0  0  0
 43 42  2  0  0  0  0
 43 41  1  0  0  0  0
 45 44  1  0  0  0  0
 46 45  1  0  0  0  0
M  END
>  <MODEL>
4

>  <REMARK>
 VINA RESULT:      -6.7      2.690      9.091
  Name = 
  15 active torsions:
  status: ('A' for Active; 'I' for Inactive)
    1  A    between atoms: C_1  and  C_10
    2  A    between atoms: C_1  and  N_34
    3  A    between atoms: C_1  and  S_36
    4  A    between atoms: C_2  and  O_37
    5  A    between atoms: O_3  and  C_10
    6  A    between atoms: C_8  and  C_16
    7  A    between atoms: C_8  and  C_19
    8  A    between atoms: C_9  and  C_11
    9  A    between atoms: C_11  and  C_21
   10  A    between atoms: C_13  and  C_15
   11  A    between atoms: C_13  and  C_45
   12  A    between atoms: C_21  and  O_37
   13  A    between atoms: N_24  and  N_25
   14  A    between atoms: N_25  and  C_35
   15  A    between atoms: C_26  and  C_38
                            x       y       z     vdW  Elec       q    Type
                         _______ _______ _______ _____ _____    ______ ____

>  <TORSDO>
F 15

$$$$
=
 OpenBabel11042415413D

 46 50  0  0  1  0  0  0  0  0999 V2000
  189.4170  175.3910  146.5780 C   0  0  2  0  0  3  0  0  0  0  0  0
  190.0290  174.7290  143.0110 C   0  0  0  0  0  3  0  0  0  0  0  0
  188.8500  174.4550  147.6270 C   0  0  0  0  0  1  0  0  0  0  0  0
  188.2910  176.1540  145.8910 C   0  0  2  0  0  3  0  0  0  0  0  0
  190.1220  174.5920  145.4880 C   0  0  1  0  0  3  0  0  0  0  0  0
  188.6830  176.3120  144.4160 C   0  0  1  0  0  3  0  0  0  0  0  0
  189.3650  177.6450  144.1190 C   0  0  0  0  0  1  0  0  0  0  0  0
  189.6610  175.2060  144.2090 C   0  0  0  0  0  0  0  0  0  0  0  0
  193.8540  173.7740  145.1810 C   0  0  0  0  0  0  0  0  0  0  0  0
  192.4420  173.6770  145.0460 C   0  0  0  0  0  0  0  0  0  0  0  0
  191.2090  170.0640  142.6160 C   0  0  0  0  0  1  0  0  0  0  0  0
  195.7920  174.9360  146.0500 O   0  0  0  0  0  1  0  0  0  0  0  0
  194.4140  174.8340  145.9050 C   0  0  0  0  0  0  0  0  0  0  0  0
  192.2070  175.7110  146.3560 C   0  0  0  0  0  3  0  0  0  0  0  0
  193.5910  175.7970  146.4880 C   0  0  0  0  0  3  0  0  0  0  0  0
  191.6200  174.6550  145.6410 C   0  0  0  0  0  0  0  0  0  0  0  0
  194.2450  171.7940  143.9110 C   0  0  0  0  0  0  0  0  0  0  0  0
  194.7200  172.7930  144.5840 N   0  0  0  0  0  0  0  0  0  0  0  0
  192.8310  171.5940  143.7120 C   0  0  0  0  0  0  0  0  0  0  0  0
  195.0610  170.8090  143.3050 N   0  0  0  0  0  2  0  0  0  0  0  0
  194.0560  169.6100  142.4720 S   0  0  0  0  0  0  0  0  0  0  0  0
  192.5810  170.5110  142.9890 C   0  0  0  0  0  0  0  0  0  0  0  0
  191.8110  172.5470  144.2570 C   0  0  0  0  0  2  0  0  0  0  0  0
  189.5350  175.3130  141.7260 C   0  0  0  0  0  2  0  0  0  0  0  0
  189.3340  173.8290  139.7920 C   0  0  1  0  0  3  0  0  0  0  0  0
  188.6530  174.3090  141.0130 C   0  0  1  0  0  3  0  0  0  0  0  0
  189.3040  173.0620  140.9720 O   0  0  0  0  0  0  0  0  0  0  0  0
  188.3090  173.2860  138.8150 C   0  0  0  0  0  2  0  0  0  0  0  0
  188.3440  174.0770  137.5200 C   0  0  0  0  0  2  0  0  0  0  0  0
  189.1660  173.4380  136.5890 O   0  0  0  0  0  0  0  0  0  0  0  0
  189.5440  174.4490  135.7050 C   0  0  0  0  0  2  0  0  0  0  0  0
  188.4830  175.4360  135.6130 N   0  0  0  0  0  1  0  0  0  0  0  0
  188.0440  177.4260  146.5560 N   0  0  0  0  0  2  0  0  0  0  0  0
  185.6780  177.8850  147.9580 O   0  0  0  0  0  0  0  0  0  0  0  0
  186.8960  177.9720  145.9710 N   0  0  0  0  0  2  0  0  0  0  0  0
  185.7080  178.1780  146.7340 C   0  0  0  0  0  0  0  0  0  0  0  0
  184.4850  178.7050  146.0660 C   0  0  0  0  0  2  0  0  0  0  0  0
  184.7830  179.0550  144.6490 C   0  0  0  0  0  0  0  0  0  0  0  0
  185.4020  180.1200  144.3880 O   0  0  0  0  0  0  0  0  0  0  0  0
  184.3350  178.1950  143.5990 N   0  0  0  0  0  2  0  0  0  0  0  0
  184.5590  178.4950  142.1930 C   0  0  1  0  0  3  0  0  0  0  0  0
  186.1810  176.4410  142.3040 O   0  0  0  0  0  0  0  0  0  0  0  0
  186.1530  177.8250  141.6730 S   0  0  0  0  0  3  0  0  0  0  0  0
  183.4420  177.8770  141.3700 C   0  0  0  0  0  2  0  0  0  0  0  0
  182.8140  178.8580  140.6030 O   0  0  0  0  0  0  0  0  0  0  0  0
  181.4540  178.6690  140.8410 C   0  0  0  0  0  1  0  0  0  0  0  0
  1  3  1  1  0  0  0
  2  8  2  0  0  0  0
  4 33  1  1  0  0  0
  4  1  1  0  0  0  0
  5 16  1  1  0  0  0
  5  1  1  0  0  0  0
  6  7  1  1  0  0  0
  6  4  1  0  0  0  0
  8  6  1  0  0  0  0
  8  5  1  0  0  0  0
  9 13  1  0  0  0  0
 10  9  2  0  0  0  0
 10 16  1  0  0  0  0
 11 22  1  0  0  0  0
 13 12  1  0  0  0  0
 13 15  2  0  0  0  0
 14 15  1  0  0  0  0
 16 14  2  0  0  0  0
 17 18  2  0  0  0  0
 18  9  1  0  0  0  0
 19 17  1  0  0  0  0
 19 23  1  0  0  0  0
 20 17  1  0  0  0  0
 21 22  1  0  0  0  0
 21 20  1  0  0  0  0
 22 19  2  0  0  0  0
 23 10  1  0  0  0  0
 24  2  1  0  0  0  0
 25 28  1  6  0  0  0
 25 27  1  0  0  0  0
 25 26  1  0  0  0  0
 26 24  1  1  0  0  0
 27 26  1  0  0  0  0
 29 28  1  0  0  0  0
 30 29  1  0  0  0  0
 31 30  1  0  0  0  0
 32 31  1  0  0  0  0
 35 33  1  0  0  0  0
 35 36  1  0  0  0  0
 36 34  2  0  0  0  0
 37 36  1  0  0  0  0
 38 37  1  0  0  0  0
 39 38  2  0  0  0  0
 40 38  1  0  0  0  0
 41 44  1  6  0  0  0
 41 40  1  0  0  0  0
 43 41  1  0  0  0  0
 43 42  2  0  0  0  0
 45 46  1  0  0  0  0
 45 44  1  0  0  0  0
M  END
>  <MODEL>
5

>  <REMARK>
 VINA RESULT:      -6.3      2.768      8.661
  Name = 
  15 active torsions:
  status: ('A' for Active; 'I' for Inactive)
    1  A    between atoms: C_1  and  C_10
    2  A    between atoms: C_1  and  N_34
    3  A    between atoms: C_1  and  S_36
    4  A    between atoms: C_2  and  O_37
    5  A    between atoms: O_3  and  C_10
    6  A    between atoms: C_8  and  C_16
    7  A    between atoms: C_8  and  C_19
    8  A    between atoms: C_9  and  C_11
    9  A    between atoms: C_11  and  C_21
   10  A    between atoms: C_13  and  C_15
   11  A    between atoms: C_13  and  C_45
   12  A    between atoms: C_21  and  O_37
   13  A    between atoms: N_24  and  N_25
   14  A    between atoms: N_25  and  C_35
   15  A    between atoms: C_26  and  C_38
                            x       y       z     vdW  Elec       q    Type
                         _______ _______ _______ _____ _____    ______ ____

>  <TORSDO>
F 15

$$$$
=
 OpenBabel11042415413D

 46 50  0  0  1  0  0  0  0  0999 V2000
  189.7200  173.2760  142.9660 C   0  0  2  0  0  3  0  0  0  0  0  0
  190.9370  176.5460  144.1320 C   0  0  0  0  0  3  0  0  0  0  0  0
  188.9520  172.2240  143.7410 C   0  0  0  0  0  1  0  0  0  0  0  0
  191.2200  173.0490  143.1160 C   0  0  2  0  0  3  0  0  0  0  0  0
  189.4360  174.6600  143.5370 C   0  0  1  0  0  3  0  0  0  0  0  0
  191.8850  174.4300  143.1760 C   0  0  1  0  0  3  0  0  0  0  0  0
  192.3950  174.9070  141.8190 C   0  0  0  0  0  1  0  0  0  0  0  0
  190.7720  175.3190  143.6190 C   0  0  0  0  0  0  0  0  0  0  0  0
  186.5880  176.9580  142.3970 C   0  0  0  0  0  0  0  0  0  0  0  0
  187.4630  176.2200  143.2410 C   0  0  0  0  0  0  0  0  0  0  0  0
  186.5110  176.8220  147.6230 C   0  0  0  0  0  1  0  0  0  0  0  0
  185.8840  177.6010  140.1710 O   0  0  0  0  0  1  0  0  0  0  0  0
  186.7380  176.8890  141.0060 C   0  0  0  0  0  0  0  0  0  0  0  0
  188.6100  175.3820  141.2670 C   0  0  0  0  0  3  0  0  0  0  0  0
  187.7450  176.1040  140.4470 C   0  0  0  0  0  3  0  0  0  0  0  0
  188.4770  175.4290  142.6640 C   0  0  0  0  0  0  0  0  0  0  0  0
  185.3670  177.8650  144.2340 C   0  0  0  0  0  0  0  0  0  0  0  0
  185.5450  177.7770  142.9540 N   0  0  0  0  0  0  0  0  0  0  0  0
  186.1920  177.1590  145.1830 C   0  0  0  0  0  0  0  0  0  0  0  0
  184.3560  178.6610  144.8230 N   0  0  0  0  0  2  0  0  0  0  0  0
  184.4280  178.5320  146.5900 S   0  0  0  0  0  0  0  0  0  0  0  0
  185.8290  177.4070  146.4340 C   0  0  0  0  0  0  0  0  0  0  0  0
  187.3310  176.2880  144.7490 C   0  0  0  0  0  2  0  0  0  0  0  0
  192.2790  177.1930  144.2580 C   0  0  0  0  0  2  0  0  0  0  0  0
  194.3750  176.2930  145.1400 C   0  0  1  0  0  3  0  0  0  0  0  0
  192.9880  176.6660  145.4890 C   0  0  1  0  0  3  0  0  0  0  0  0
  194.0780  177.5040  145.7940 O   0  0  0  0  0  0  0  0  0  0  0  0
  194.9050  175.2940  146.1520 C   0  0  0  0  0  2  0  0  0  0  0  0
  195.8520  174.3160  145.4810 C   0  0  0  0  0  2  0  0  0  0  0  0
  195.1330  173.2560  144.9250 O   0  0  0  0  0  0  0  0  0  0  0  0
  195.8300  172.1150  145.3240 C   0  0  0  0  0  2  0  0  0  0  0  0
  194.8890  171.0960  145.7540 N   0  0  0  0  0  1  0  0  0  0  0  0
  191.7300  172.2150  142.0360 N   0  0  0  0  0  2  0  0  0  0  0  0
  193.5030  170.9010  140.3330 O   0  0  0  0  0  0  0  0  0  0  0  0
  192.9870  171.7520  142.4420 N   0  0  0  0  0  2  0  0  0  0  0  0
  193.8520  171.0770  141.5300 C   0  0  0  0  0  0  0  0  0  0  0  0
  195.1570  170.5440  142.0090 C   0  0  0  0  0  2  0  0  0  0  0  0
  196.2510  171.5050  141.6970 C   0  0  0  0  0  0  0  0  0  0  0  0
  197.4280  171.0820  141.5500 O   0  0  0  0  0  0  0  0  0  0  0  0
  195.9610  172.9020  141.6020 N   0  0  0  0  0  2  0  0  0  0  0  0
  196.9880  173.8980  141.3380 C   0  0  1  0  0  3  0  0  0  0  0  0
  197.6090  175.5670  139.4160 O   0  0  0  0  0  0  0  0  0  0  0  0
  197.1850  174.1120  139.5560 S   0  0  0  0  0  3  0  0  0  0  0  0
  196.5790  175.2130  141.9770 C   0  0  0  0  0  2  0  0  0  0  0  0
  197.6270  175.7190  142.7450 O   0  0  0  0  0  0  0  0  0  0  0  0
  197.1930  176.9830  143.1380 C   0  0  0  0  0  1  0  0  0  0  0  0
  1  4  1  0  0  0  0
  1  5  1  0  0  0  0
  1  3  1  1  0  0  0
  2 24  1  0  0  0  0
  4 33  1  6  0  0  0
  4  6  1  0  0  0  0
  5 16  1  6  0  0  0
  5  8  1  0  0  0  0
  6  7  1  6  0  0  0
  6  8  1  0  0  0  0
  8  2  2  0  0  0  0
  9 18  1  0  0  0  0
  9 10  1  0  0  0  0
 10 23  1  0  0  0  0
 12 13  1  0  0  0  0
 13  9  2  0  0  0  0
 14 16  1  0  0  0  0
 15 13  1  0  0  0  0
 15 14  2  0  0  0  0
 16 10  2  0  0  0  0
 17 20  1  0  0  0  0
 17 19  1  0  0  0  0
 18 17  2  0  0  0  0
 19 22  2  0  0  0  0
 20 21  1  0  0  0  0
 22 21  1  0  0  0  0
 22 11  1  0  0  0  0
 23 19  1  0  0  0  0
 25 26  1  0  0  0  0
 25 27  1  0  0  0  0
 25 28  1  1  0  0  0
 26 24  1  6  0  0  0
 26 27  1  0  0  0  0
 29 28  1  0  0  0  0
 30 31  1  0  0  0  0
 30 29  1  0  0  0  0
 31 32  1  0  0  0  0
 33 35  1  0  0  0  0
 34 36  2  0  0  0  0
 36 37  1  0  0  0  0
 36 35  1  0  0  0  0
 38 37  1  0  0  0  0
 39 38  2  0  0  0  0
 40 38  1  0  0  0  0
 41 40  1  0  0  0  0
 41 44  1  1  0  0  0
 42 43  2  0  0  0  0
 43 41  1  0  0  0  0
 44 45  1  0  0  0  0
 45 46  1  0  0  0  0
M  END
>  <MODEL>
6

>  <REMARK>
 VINA RESULT:      -6.1      2.779      5.370
  Name = 
  15 active torsions:
  status: ('A' for Active; 'I' for Inactive)
    1  A    between atoms: C_1  and  C_10
    2  A    between atoms: C_1  and  N_34
    3  A    between atoms: C_1  and  S_36
    4  A    between atoms: C_2  and  O_37
    5  A    between atoms: O_3  and  C_10
    6  A    between atoms: C_8  and  C_16
    7  A    between atoms: C_8  and  C_19
    8  A    between atoms: C_9  and  C_11
    9  A    between atoms: C_11  and  C_21
   10  A    between atoms: C_13  and  C_15
   11  A    between atoms: C_13  and  C_45
   12  A    between atoms: C_21  and  O_37
   13  A    between atoms: N_24  and  N_25
   14  A    between atoms: N_25  and  C_35
   15  A    between atoms: C_26  and  C_38
                            x       y       z     vdW  Elec       q    Type
                         _______ _______ _______ _____ _____    ______ ____

>  <TORSDO>
F 15

$$$$
=
 OpenBabel11042415413D

 46 50  0  0  1  0  0  0  0  0999 V2000
  189.5840  177.3330  143.2180 C   0  0  2  0  0  3  0  0  0  0  0  0
  188.6980  174.1790  141.5450 C   0  0  0  0  0  3  0  0  0  0  0  0
  190.5590  178.4010  142.7620 C   0  0  0  0  0  1  0  0  0  0  0  0
  190.3060  176.2870  144.0580 C   0  0  2  0  0  3  0  0  0  0  0  0
  189.0120  176.5960  142.0130 C   0  0  1  0  0  3  0  0  0  0  0  0
  189.6750  174.9270  143.7310 C   0  0  1  0  0  3  0  0  0  0  0  0
  188.5780  174.5260  144.7130 C   0  0  0  0  0  1  0  0  0  0  0  0
  189.0690  175.1540  142.3870 C   0  0  0  0  0  0  0  0  0  0  0  0
  185.4320  177.8980  142.4320 C   0  0  0  0  0  0  0  0  0  0  0  0
  186.7430  177.4480  142.7480 C   0  0  0  0  0  0  0  0  0  0  0  0
  187.5490  177.5360  147.2000 C   0  0  0  0  0  1  0  0  0  0  0  0
  183.7280  178.3680  140.7780 O   0  0  0  0  0  1  0  0  0  0  0  0
  185.0100  177.9360  141.0970 C   0  0  0  0  0  0  0  0  0  0  0  0
  187.1610  177.1030  140.3780 C   0  0  0  0  0  3  0  0  0  0  0  0
  185.8730  177.5410  140.0770 C   0  0  0  0  0  3  0  0  0  0  0  0
  187.6070  177.0490  141.7080 C   0  0  0  0  0  0  0  0  0  0  0  0
  184.8730  178.2900  144.7180 C   0  0  0  0  0  0  0  0  0  0  0  0
  184.5270  178.3140  143.4710 N   0  0  0  0  0  0  0  0  0  0  0  0
  186.1760  177.8500  145.1530 C   0  0  0  0  0  0  0  0  0  0  0  0
  184.0160  178.6940  145.7700 N   0  0  0  0  0  2  0  0  0  0  0  0
  184.8410  178.5250  147.3300 S   0  0  0  0  0  0  0  0  0  0  0  0
  186.3060  177.9170  146.4710 C   0  0  0  0  0  0  0  0  0  0  0  0
  187.2290  177.4100  144.1830 C   0  0  0  0  0  2  0  0  0  0  0  0
  188.7950  172.7300  141.8990 C   0  0  0  0  0  2  0  0  0  0  0  0
  190.6670  171.5180  142.9030 C   0  0  1  0  0  3  0  0  0  0  0  0
  190.2180  172.2470  141.6990 C   0  0  1  0  0  3  0  0  0  0  0  0
  190.2440  170.8410  141.7440 O   0  0  0  0  0  0  0  0  0  0  0  0
  192.1830  171.5130  142.9600 C   0  0  0  0  0  2  0  0  0  0  0  0
  192.6940  170.1270  143.3080 C   0  0  0  0  0  2  0  0  0  0  0  0
  193.1190  170.0910  144.6380 O   0  0  0  0  0  0  0  0  0  0  0  0
  193.8630  171.2600  144.7980 C   0  0  0  0  0  2  0  0  0  0  0  0
  195.1890  170.9280  145.2900 N   0  0  0  0  0  1  0  0  0  0  0  0
  190.2400  176.6220  145.4740 N   0  0  0  0  0  2  0  0  0  0  0  0
  191.8920  174.9160  146.9360 O   0  0  0  0  0  0  0  0  0  0  0  0
  191.5400  176.9610  145.8700 N   0  0  0  0  0  2  0  0  0  0  0  0
  192.3390  176.0520  146.6260 C   0  0  0  0  0  0  0  0  0  0  0  0
  193.6940  176.4670  147.0830 C   0  0  0  0  0  2  0  0  0  0  0  0
  194.5520  176.7990  145.9120 C   0  0  0  0  0  0  0  0  0  0  0  0
  194.9720  177.9770  145.7620 O   0  0  0  0  0  0  0  0  0  0  0  0
  194.8630  175.7870  144.9510 N   0  0  0  0  0  2  0  0  0  0  0  0
  195.6640  176.0520  143.7660 C   0  0  1  0  0  3  0  0  0  0  0  0
  196.4390  173.5970  143.2810 O   0  0  0  0  0  0  0  0  0  0  0  0
  197.0660  174.9150  143.7110 S   0  0  0  0  0  3  0  0  0  0  0  0
  194.7980  175.8690  142.5320 C   0  0  0  0  0  2  0  0  0  0  0  0
  193.5540  175.3520  142.8930 O   0  0  0  0  0  0  0  0  0  0  0  0
  192.9530  175.0140  141.6820 C   0  0  0  0  0  1  0  0  0  0  0  0
  1  3  1  6  0  0  0
  1  4  1  0  0  0  0
  2 24  1  0  0  0  0
  2  8  2  0  0  0  0
  4 33  1  1  0  0  0
  5 16  1  1  0  0  0
  5  8  1  0  0  0  0
  5  1  1  0  0  0  0
  6  4  1  0  0  0  0
  6  7  1  1  0  0  0
  8  6  1  0  0  0  0
  9 10  1  0  0  0  0
  9 18  1  0  0  0  0
 10 23  1  0  0  0  0
 12 13  1  0  0  0  0
 13  9  2  0  0  0  0
 14 16  1  0  0  0  0
 15 14  2  0  0  0  0
 15 13  1  0  0  0  0
 16 10  2  0  0  0  0
 17 19  1  0  0  0  0
 17 20  1  0  0  0  0
 18 17  2  0  0  0  0
 19 22  2  0  0  0  0
 20 21  1  0  0  0  0
 22 11  1  0  0  0  0
 22 21  1  0  0  0  0
 23 19  1  0  0  0  0
 25 28  1  6  0  0  0
 26 27  1  0  0  0  0
 26 24  1  1  0  0  0
 26 25  1  0  0  0  0
 27 25  1  0  0  0  0
 28 29  1  0  0  0  0
 29 30  1  0  0  0  0
 30 31  1  0  0  0  0
 31 32  1  0  0  0  0
 33 35  1  0  0  0  0
 35 36  1  0  0  0  0
 36 34  2  0  0  0  0
 36 37  1  0  0  0  0
 38 37  1  0  0  0  0
 39 38  2  0  0  0  0
 40 38  1  0  0  0  0
 41 44  1  6  0  0  0
 41 40  1  0  0  0  0
 42 43  2  0  0  0  0
 43 41  1  0  0  0  0
 44 45  1  0  0  0  0
 46 45  1  0  0  0  0
M  END
>  <MODEL>
7

>  <REMARK>
 VINA RESULT:      -5.9      2.652      4.397
  Name = 
  15 active torsions:
  status: ('A' for Active; 'I' for Inactive)
    1  A    between atoms: C_1  and  C_10
    2  A    between atoms: C_1  and  N_34
    3  A    between atoms: C_1  and  S_36
    4  A    between atoms: C_2  and  O_37
    5  A    between atoms: O_3  and  C_10
    6  A    between atoms: C_8  and  C_16
    7  A    between atoms: C_8  and  C_19
    8  A    between atoms: C_9  and  C_11
    9  A    between atoms: C_11  and  C_21
   10  A    between atoms: C_13  and  C_15
   11  A    between atoms: C_13  and  C_45
   12  A    between atoms: C_21  and  O_37
   13  A    between atoms: N_24  and  N_25
   14  A    between atoms: N_25  and  C_35
   15  A    between atoms: C_26  and  C_38
                            x       y       z     vdW  Elec       q    Type
                         _______ _______ _______ _____ _____    ______ ____

>  <TORSDO>
F 15

$$$$
=
 OpenBabel11042415413D

 46 50  0  0  1  0  0  0  0  0999 V2000
  191.0870  174.2860  145.0520 C   0  0  2  0  0  3  0  0  0  0  0  0
  194.3530  175.1600  143.6010 C   0  0  0  0  0  3  0  0  0  0  0  0
  189.7520  174.1360  144.3490 C   0  0  0  0  0  1  0  0  0  0  0  0
  191.2850  175.7280  145.5020 C   0  0  2  0  0  3  0  0  0  0  0  0
  192.2260  173.9760  144.0870 C   0  0  1  0  0  3  0  0  0  0  0  0
  192.7740  176.0560  145.3320 C   0  0  1  0  0  3  0  0  0  0  0  0
  193.5790  175.8600  146.6140 C   0  0  0  0  0  1  0  0  0  0  0  0
  193.2230  175.0610  144.3170 C   0  0  0  0  0  0  0  0  0  0  0  0
  193.1180  170.2690  143.7040 C   0  0  0  0  0  0  0  0  0  0  0  0
  192.5370  171.5430  143.4580 C   0  0  0  0  0  0  0  0  0  0  0  0
  189.9720  171.5530  139.7310 C   0  0  0  0  0  1  0  0  0  0  0  0
  194.5120  168.8400  145.0740 O   0  0  0  0  0  1  0  0  0  0  0  0
  193.9440  170.0820  144.8200 C   0  0  0  0  0  0  0  0  0  0  0  0
  193.6420  172.3970  145.4490 C   0  0  0  0  0  3  0  0  0  0  0  0
  194.2030  171.1440  145.6860 C   0  0  0  0  0  3  0  0  0  0  0  0
  192.8050  172.6080  144.3420 C   0  0  0  0  0  0  0  0  0  0  0  0
  192.1050  169.2880  141.7810 C   0  0  0  0  0  0  0  0  0  0  0  0
  192.8660  169.1620  142.8210 N   0  0  0  0  0  0  0  0  0  0  0  0
  191.4620  170.5320  141.4360 C   0  0  0  0  0  0  0  0  0  0  0  0
  191.8340  168.2270  140.8840 N   0  0  0  0  0  2  0  0  0  0  0  0
  190.7600  168.7800  139.5870 S   0  0  0  0  0  0  0  0  0  0  0  0
  190.7380  170.4240  140.3300 C   0  0  0  0  0  0  0  0  0  0  0  0
  191.6510  171.7740  142.2510 C   0  0  0  0  0  2  0  0  0  0  0  0
  195.3350  176.2700  143.7970 C   0  0  0  0  0  2  0  0  0  0  0  0
  196.8810  176.2930  141.9020 C   0  0  1  0  0  3  0  0  0  0  0  0
  196.7000  175.8410  143.2970 C   0  0  1  0  0  3  0  0  0  0  0  0
  197.4610  176.9830  142.9830 O   0  0  0  0  0  0  0  0  0  0  0  0
  197.9400  175.4440  141.2240 C   0  0  0  0  0  2  0  0  0  0  0  0
  197.5700  175.2000  139.7720 C   0  0  0  0  0  2  0  0  0  0  0  0
  197.0800  173.9030  139.6120 O   0  0  0  0  0  0  0  0  0  0  0  0
  196.1700  174.0000  138.5600 C   0  0  0  0  0  2  0  0  0  0  0  0
  195.0590  174.8490  138.9540 N   0  0  0  0  0  1  0  0  0  0  0  0
  190.8100  175.9170  146.8650 N   0  0  0  0  0  2  0  0  0  0  0  0
  188.0840  175.4120  147.1630 O   0  0  0  0  0  0  0  0  0  0  0  0
  189.8310  176.9180  146.8170 N   0  0  0  0  0  2  0  0  0  0  0  0
  188.4480  176.6020  146.9670 C   0  0  0  0  0  0  0  0  0  0  0  0
  187.4290  177.6810  146.8510 C   0  0  0  0  0  2  0  0  0  0  0  0
  186.5610  177.4420  145.6640 C   0  0  0  0  0  0  0  0  0  0  0  0
  185.5210  176.7420  145.7850 O   0  0  0  0  0  0  0  0  0  0  0  0
  186.9340  177.9810  144.3940 N   0  0  0  0  0  2  0  0  0  0  0  0
  186.1530  177.7550  143.1880 C   0  0  1  0  0  3  0  0  0  0  0  0
  183.6070  178.0430  142.6370 O   0  0  0  0  0  0  0  0  0  0  0  0
  184.7590  178.9020  143.1400 S   0  0  0  0  0  3  0  0  0  0  0  0
  187.0410  177.9660  141.9750 C   0  0  0  0  0  2  0  0  0  0  0  0
  186.9150  176.8900  141.0960 O   0  0  0  0  0  0  0  0  0  0  0  0
  188.0220  176.0880  141.3660 C   0  0  0  0  0  1  0  0  0  0  0  0
  1  3  1  6  0  0  0
  1  4  1  0  0  0  0
  2 24  1  0  0  0  0
  2  8  2  0  0  0  0
  4 33  1  1  0  0  0
  5  8  1  0  0  0  0
  5 16  1  1  0  0  0
  5  1  1  0  0  0  0
  6  4  1  0  0  0  0
  6  7  1  1  0  0  0
  8  6  1  0  0  0  0
  9 13  1  0  0  0  0
 10  9  2  0  0  0  0
 10 16  1  0  0  0  0
 11 22  1  0  0  0  0
 13 12  1  0  0  0  0
 13 15  2  0  0  0  0
 14 15  1  0  0  0  0
 16 14  2  0  0  0  0
 17 18  2  0  0  0  0
 18  9  1  0  0  0  0
 19 17  1  0  0  0  0
 19 23  1  0  0  0  0
 20 17  1  0  0  0  0
 21 22  1  0  0  0  0
 21 20  1  0  0  0  0
 22 19  2  0  0  0  0
 23 10  1  0  0  0  0
 25 28  1  6  0  0  0
 25 27  1  0  0  0  0
 25 26  1  0  0  0  0
 26 24  1  1  0  0  0
 27 26  1  0  0  0  0
 29 28  1  0  0  0  0
 30 29  1  0  0  0  0
 31 32  1  0  0  0  0
 31 30  1  0  0  0  0
 35 33  1  0  0  0  0
 35 36  1  0  0  0  0
 36 34  2  0  0  0  0
 37 36  1  0  0  0  0
 38 39  2  0  0  0  0
 38 37  1  0  0  0  0
 40 38  1  0  0  0  0
 41 44  1  6  0  0  0
 41 40  1  0  0  0  0
 42 43  2  0  0  0  0
 43 41  1  0  0  0  0
 45 46  1  0  0  0  0
 45 44  1  0  0  0  0
M  END
>  <MODEL>
8

>  <REMARK>
 VINA RESULT:      -5.9      2.965      8.653
  Name = 
  15 active torsions:
  status: ('A' for Active; 'I' for Inactive)
    1  A    between atoms: C_1  and  C_10
    2  A    between atoms: C_1  and  N_34
    3  A    between atoms: C_1  and  S_36
    4  A    between atoms: C_2  and  O_37
    5  A    between atoms: O_3  and  C_10
    6  A    between atoms: C_8  and  C_16
    7  A    between atoms: C_8  and  C_19
    8  A    between atoms: C_9  and  C_11
    9  A    between atoms: C_11  and  C_21
   10  A    between atoms: C_13  and  C_15
   11  A    between atoms: C_13  and  C_45
   12  A    between atoms: C_21  and  O_37
   13  A    between atoms: N_24  and  N_25
   14  A    between atoms: N_25  and  C_35
   15  A    between atoms: C_26  and  C_38
                            x       y       z     vdW  Elec       q    Type
                         _______ _______ _______ _____ _____    ______ ____

>  <TORSDO>
F 15

$$$$
=
 OpenBabel11042415413D

 46 50  0  0  1  0  0  0  0  0999 V2000
  190.2760  174.1720  141.7480 C   0  0  2  0  0  3  0  0  0  0  0  0
  188.9390  177.4750  142.6610 C   0  0  0  0  0  3  0  0  0  0  0  0
  191.5120  173.8480  140.9320 C   0  0  0  0  0  1  0  0  0  0  0  0
  189.0660  174.3150  140.8330 C   0  0  2  0  0  3  0  0  0  0  0  0
  190.4470  175.5150  142.4470 C   0  0  1  0  0  3  0  0  0  0  0  0
  188.1890  175.4340  141.4110 C   0  0  1  0  0  3  0  0  0  0  0  0
  187.0730  174.9130  142.3110 C   0  0  0  0  0  1  0  0  0  0  0  0
  189.1520  176.2230  142.2320 C   0  0  0  0  0  0  0  0  0  0  0  0
  192.3640  175.0080  145.7270 C   0  0  0  0  0  0  0  0  0  0  0  0
  192.0900  175.1460  144.3390 C   0  0  0  0  0  0  0  0  0  0  0  0
  195.8480  174.9010  141.8290 C   0  0  0  0  0  1  0  0  0  0  0  0
  191.5700  174.9190  148.0130 O   0  0  0  0  0  1  0  0  0  0  0  0
  191.3150  175.0590  146.6530 C   0  0  0  0  0  0  0  0  0  0  0  0
  189.7280  175.3900  144.8600 C   0  0  0  0  0  3  0  0  0  0  0  0
  190.0040  175.2500  146.2190 C   0  0  0  0  0  3  0  0  0  0  0  0
  190.7610  175.3370  143.9110 C   0  0  0  0  0  0  0  0  0  0  0  0
  194.7100  174.7560  145.3750 C   0  0  0  0  0  0  0  0  0  0  0  0
  193.7100  174.8140  146.1960 N   0  0  0  0  0  0  0  0  0  0  0  0
  194.5490  174.8800  143.9470 C   0  0  0  0  0  0  0  0  0  0  0  0
  196.0490  174.5700  145.7940 N   0  0  0  0  0  2  0  0  0  0  0  0
  197.1310  174.5490  144.3910 S   0  0  0  0  0  0  0  0  0  0  0  0
  195.7090  174.7950  143.3100 C   0  0  0  0  0  0  0  0  0  0  0  0
  193.2090  175.1080  143.3170 C   0  0  0  0  0  2  0  0  0  0  0  0
  187.6580  178.2050  142.4090 C   0  0  0  0  0  2  0  0  0  0  0  0
  185.6580  179.1210  143.4790 C   0  0  1  0  0  3  0  0  0  0  0  0
  186.8340  178.2490  143.6810 C   0  0  1  0  0  3  0  0  0  0  0  0
  185.5560  177.7180  143.4270 O   0  0  0  0  0  0  0  0  0  0  0  0
  185.1500  179.6100  144.8220 C   0  0  0  0  0  2  0  0  0  0  0  0
  184.0670  178.6840  145.3450 C   0  0  0  0  0  2  0  0  0  0  0  0
  184.0870  178.6610  146.7410 O   0  0  0  0  0  0  0  0  0  0  0  0
  185.4410  178.5960  147.0690 C   0  0  0  0  0  2  0  0  0  0  0  0
  185.8310  177.2090  147.2520 N   0  0  0  0  0  1  0  0  0  0  0  0
  188.3620  173.0470  140.7020 N   0  0  0  0  0  2  0  0  0  0  0  0
  190.1100  171.1840  139.5840 O   0  0  0  0  0  0  0  0  0  0  0  0
  188.3710  172.7190  139.3400 N   0  0  0  0  0  2  0  0  0  0  0  0
  189.2930  171.7630  138.8200 C   0  0  0  0  0  0  0  0  0  0  0  0
  189.3170  171.4810  137.3580 C   0  0  0  0  0  2  0  0  0  0  0  0
  190.5500  172.0490  136.7450 C   0  0  0  0  0  0  0  0  0  0  0  0
  191.2140  171.3570  135.9290 O   0  0  0  0  0  0  0  0  0  0  0  0
  190.9860  173.3600  137.1140 N   0  0  0  0  0  2  0  0  0  0  0  0
  192.2000  173.9590  136.5820 C   0  0  1  0  0  3  0  0  0  0  0  0
  193.1130  175.8550  135.0220 O   0  0  0  0  0  0  0  0  0  0  0  0
  191.7860  175.4420  135.6390 S   0  0  0  0  0  3  0  0  0  0  0  0
  193.1220  174.3160  137.7340 C   0  0  0  0  0  2  0  0  0  0  0  0
  194.4070  173.8360  137.4860 O   0  0  0  0  0  0  0  0  0  0  0  0
  195.2440  174.9130  137.7720 C   0  0  0  0  0  1  0  0  0  0  0  0
  1  3  1  6  0  0  0
  1  5  1  0  0  0  0
  4 33  1  1  0  0  0
  4  6  1  0  0  0  0
  4  1  1  0  0  0  0
  5 16  1  1  0  0  0
  6  8  1  0  0  0  0
  6  7  1  1  0  0  0
  8  5  1  0  0  0  0
  8  2  2  0  0  0  0
  9 18  1  0  0  0  0
  9 13  1  0  0  0  0
 10  9  2  0  0  0  0
 11 22  1  0  0  0  0
 13 12  1  0  0  0  0
 14 15  1  0  0  0  0
 15 13  2  0  0  0  0
 16 10  1  0  0  0  0
 16 14  2  0  0  0  0
 17 20  1  0  0  0  0
 17 18  2  0  0  0  0
 19 17  1  0  0  0  0
 21 20  1  0  0  0  0
 22 19  2  0  0  0  0
 22 21  1  0  0  0  0
 23 19  1  0  0  0  0
 23 10  1  0  0  0  0
 24  2  1  0  0  0  0
 25 26  1  0  0  0  0
 25 28  1  1  0  0  0
 26 24  1  6  0  0  0
 27 25  1  0  0  0  0
 27 26  1  0  0  0  0
 28 29  1  0  0  0  0
 29 30  1  0  0  0  0
 30 31  1  0  0  0  0
 31 32  1  0  0  0  0
 35 33  1  0  0  0  0
 36 35  1  0  0  0  0
 36 34  2  0  0  0  0
 37 36  1  0  0  0  0
 38 40  1  0  0  0  0
 38 37  1  0  0  0  0
 39 38  2  0  0  0  0
 41 40  1  0  0  0  0
 41 44  1  1  0  0  0
 42 43  2  0  0  0  0
 43 41  1  0  0  0  0
 45 44  1  0  0  0  0
 45 46  1  0  0  0  0
M  END
>  <MODEL>
9

>  <REMARK>
 VINA RESULT:      -5.7      3.034      7.891
  Name = 
  15 active torsions:
  status: ('A' for Active; 'I' for Inactive)
    1  A    between atoms: C_1  and  C_10
    2  A    between atoms: C_1  and  N_34
    3  A    between atoms: C_1  and  S_36
    4  A    between atoms: C_2  and  O_37
    5  A    between atoms: O_3  and  C_10
    6  A    between atoms: C_8  and  C_16
    7  A    between atoms: C_8  and  C_19
    8  A    between atoms: C_9  and  C_11
    9  A    between atoms: C_11  and  C_21
   10  A    between atoms: C_13  and  C_15
   11  A    between atoms: C_13  and  C_45
   12  A    between atoms: C_21  and  O_37
   13  A    between atoms: N_24  and  N_25
   14  A    between atoms: N_25  and  C_35
   15  A    between atoms: C_26  and  C_38
                            x       y       z     vdW  Elec       q    Type
                         _______ _______ _______ _____ _____    ______ ____

>  <TORSDO>
F 15

$$$$
