=
 OpenBabel11042413443D

 30 34  0  0  1  0  0  0  0  0999 V2000
  190.7330  176.1360  147.1020 C   0  0  0  0  0  0  0  0  0  0  0  0
  191.6800  176.4070  144.7940 C   0  0  0  0  0  2  0  0  0  0  0  0
  185.5480  178.8980  146.4410 N   0  0  0  0  0  0  0  0  0  0  0  0
  187.6510  177.8970  146.8690 C   0  0  0  0  0  0  0  0  0  0  0  0
  184.3740  177.9930  143.0800 C   0  0  0  0  0  0  0  0  0  0  0  0
  186.5940  178.6960  147.2940 C   0  0  0  0  0  2  0  0  0  0  0  0
  191.6420  175.7060  146.0750 N   0  0  0  0  0  0  0  0  0  0  0  0
  188.7460  177.5640  147.5800 N   0  0  0  0  0  0  0  0  0  0  0  0
  183.2860  178.2250  142.2510 O   0  0  0  0  0  1  0  0  0  0  0  0
  188.8100  176.5980  145.5250 C   0  0  0  0  0  0  0  0  0  0  0  0
  189.4530  176.7650  146.7440 C   0  0  0  0  0  0  0  0  0  0  0  0
  187.6450  177.3250  145.6210 C   0  0  0  0  0  0  0  0  0  0  0  0
  191.0310  175.9850  148.3170 O   0  0  0  0  0  0  0  0  0  0  0  0
  185.5090  178.3380  145.1930 C   0  0  0  0  0  0  0  0  0  0  0  0
  184.4150  178.5680  144.3550 C   0  0  0  0  0  3  0  0  0  0  0  0
  186.5750  177.5170  144.7430 C   0  0  0  0  0  0  0  0  0  0  0  0
  186.5290  176.9460  143.4650 C   0  0  0  0  0  3  0  0  0  0  0  0
  189.2100  175.6350  144.4520 C   0  0  0  0  0  2  0  0  0  0  0  0
  190.5740  175.9570  143.8260 C   0  0  2  0  0  3  0  0  0  0  0  0
  192.7560  174.8320  146.4080 C   0  0  0  0  0  1  0  0  0  0  0  0
  185.4280  177.1850  142.6380 C   0  0  0  0  0  3  0  0  0  0  0  0
  191.8090  175.3870  141.8290 O   0  0  0  0  0  1  0  0  0  0  0  0
  191.0670  174.8520  142.8870 C   0  0  2  0  0  3  0  0  0  0  0  0
  189.9570  173.9150  142.3870 C   0  0  2  0  0  3  0  0  0  0  0  0
  190.8830  172.3210  143.9880 C   0  0  2  0  0  3  0  0  0  0  0  0
  190.3480  172.4650  142.6380 C   0  0  1  0  0  3  0  0  0  0  0  0
  191.7330  171.1460  144.0450 N   0  0  0  0  0  1  0  0  0  0  0  0
  189.5020  171.9050  143.7030 N   0  0  0  0  0  2  0  0  0  0  0  0
  189.6430  174.1330  140.9110 C   0  0  0  0  0  2  0  0  0  0  0  0
  188.5040  174.9270  140.7740 O   0  0  0  0  0  1  0  0  0  0  0  0
  1 13  2  0  0  0  0
  2  7  1  0  0  0  0
  3  6  1  0  0  0  0
  4  6  1  0  0  0  0
  4  8  2  0  0  0  0
  5 15  2  0  0  0  0
  7 20  1  0  0  0  0
  7  1  1  0  0  0  0
  9  5  1  0  0  0  0
 10 12  1  0  0  0  0
 10 11  2  0  0  0  0
 11  1  1  0  0  0  0
 11  8  1  0  0  0  0
 12  4  1  0  0  0  0
 14  3  2  0  0  0  0
 15 14  1  0  0  0  0
 16 14  1  0  0  0  0
 16 12  2  0  0  0  0
 17 16  1  0  0  0  0
 18 10  1  0  0  0  0
 19 23  1  1  0  0  0
 19 18  1  0  0  0  0
 19  2  1  0  0  0  0
 21  5  1  0  0  0  0
 21 17  2  0  0  0  0
 23 22  1  6  0  0  0
 24 29  1  6  0  0  0
 24 23  1  0  0  0  0
 25 27  1  6  0  0  0
 26 24  1  1  0  0  0
 26 28  1  0  0  0  0
 26 25  1  0  0  0  0
 28 25  1  0  0  0  0
 30 29  1  0  0  0  0
M  END
>  <MODEL>
1

>  <REMARK>
 VINA RESULT:      -7.2      0.000      0.000
  Name = 
  4 active torsions:
  status: ('A' for Active; 'I' for Inactive)
    1  A    between atoms: C_11  and  C_20
    2  A    between atoms: C_17  and  C_20
    3  A    between atoms: C_20  and  C_22
    4  A    between atoms: C_22  and  C_28
                            x       y       z     vdW  Elec       q    Type
                         _______ _______ _______ _____ _____    ______ ____

>  <TORSDO>
F 4

$$$$
=
 OpenBabel11042413443D

 30 34  0  0  1  0  0  0  0  0999 V2000
  186.9830  177.1120  141.2230 C   0  0  0  0  0  0  0  0  0  0  0  0
  188.6310  178.0260  142.8800 C   0  0  0  0  0  2  0  0  0  0  0  0
  189.7700  172.1610  139.5900 N   0  0  0  0  0  0  0  0  0  0  0  0
  188.6280  174.1820  140.0540 C   0  0  0  0  0  0  0  0  0  0  0  0
  191.3040  170.8400  142.6550 C   0  0  0  0  0  0  0  0  0  0  0  0
  189.0150  173.2060  139.1420 C   0  0  0  0  0  3  0  0  0  0  0  0
  187.2720  177.9580  142.3480 N   0  0  0  0  0  0  0  0  0  0  0  0
  187.8620  175.2610  139.8020 N   0  0  0  0  0  0  0  0  0  0  0  0
  192.0690  169.7560  143.0630 O   0  0  0  0  0  1  0  0  0  0  0  0
  188.4470  175.1990  141.9960 C   0  0  0  0  0  0  0  0  0  0  0  0
  187.7570  175.8810  141.0030 C   0  0  0  0  0  0  0  0  0  0  0  0
  188.9970  174.1010  141.3730 C   0  0  0  0  0  0  0  0  0  0  0  0
  186.0700  177.4240  140.4130 O   0  0  0  0  0  0  0  0  0  0  0  0
  190.1500  172.0470  140.9000 C   0  0  2  0  0  3  0  0  0  0  0  0
  190.9200  170.9570  141.3150 C   0  0  0  0  0  3  0  0  0  0  0  0
  189.7610  173.0310  141.8460 C   0  0  0  0  0  0  0  0  0  0  0  0
  190.1520  172.9080  143.1850 C   0  0  0  0  0  3  0  0  0  0  0  0
  188.3840  175.4930  143.4610 C   0  0  0  0  0  2  0  0  0  0  0  0
  188.9660  176.8640  143.8300 C   0  0  2  0  0  3  0  0  0  0  0  0
  186.3360  179.0030  142.7330 C   0  0  0  0  0  1  0  0  0  0  0  0
  190.9210  171.8130  143.5860 C   0  0  0  0  0  3  0  0  0  0  0  0
  189.8810  177.6620  145.9190 O   0  0  0  0  0  1  0  0  0  0  0  0
  188.7040  177.2430  145.2910 C   0  0  2  0  0  3  0  0  0  0  0  0
  187.9840  176.1520  146.1000 C   0  0  2  0  0  3  0  0  0  0  0  0
  186.3080  177.9270  146.1500 C   0  0  2  0  0  3  0  0  0  0  0  0
  186.8140  176.7570  146.8620 C   0  0  1  0  0  3  0  0  0  0  0  0
  185.6120  178.7940  147.0830 N   0  0  0  0  0  1  0  0  0  0  0  0
  185.5910  176.6470  146.0510 N   0  0  0  0  0  2  0  0  0  0  0  0
  188.9270  175.4320  147.0580 C   0  0  0  0  0  2  0  0  0  0  0  0
  189.3590  174.2310  146.4950 O   0  0  0  0  0  1  0  0  0  0  0  0
  1  7  1  0  0  0  0
  2 19  1  0  0  0  0
  3 14  1  0  0  0  0
  4 12  1  0  0  0  0
  5  9  1  0  0  0  0
  5 21  1  0  0  0  0
  6  3  2  0  0  0  0
  6  4  1  0  0  0  0
  7 20  1  0  0  0  0
  7  2  1  0  0  0  0
  8  4  2  0  0  0  0
  8 11  1  0  0  0  0
 10 18  1  0  0  0  0
 11  1  1  0  0  0  0
 11 10  2  0  0  0  0
 12 16  2  0  0  0  0
 12 10  1  0  0  0  0
 13  1  2  0  0  0  0
 14 15  1  1  0  0  0
 14 16  1  0  0  0  0
 15  5  2  0  0  0  0
 16 17  1  0  0  0  0
 17 21  2  0  0  0  0
 18 19  1  0  0  0  0
 19 23  1  1  0  0  0
 23 22  1  1  0  0  0
 23 24  1  0  0  0  0
 24 29  1  1  0  0  0
 25 26  1  0  0  0  0
 25 27  1  1  0  0  0
 26 24  1  6  0  0  0
 28 25  1  0  0  0  0
 28 26  1  0  0  0  0
 30 29  1  0  0  0  0
M  END
>  <MODEL>
2

>  <REMARK>
 VINA RESULT:      -7.1      2.724      7.419
  Name = 
  4 active torsions:
  status: ('A' for Active; 'I' for Inactive)
    1  A    between atoms: C_11  and  C_20
    2  A    between atoms: C_17  and  C_20
    3  A    between atoms: C_20  and  C_22
    4  A    between atoms: C_22  and  C_28
                            x       y       z     vdW  Elec       q    Type
                         _______ _______ _______ _____ _____    ______ ____

>  <TORSDO>
F 4

$$$$
=
 OpenBabel11042413443D

 30 34  0  0  1  0  0  0  0  0999 V2000
  186.9680  177.9840  146.9610 C   0  0  0  0  0  0  0  0  0  0  0  0
  186.1310  176.5960  145.0460 C   0  0  0  0  0  2  0  0  0  0  0  0
  192.6690  176.4190  146.9800 N   0  0  0  0  0  0  0  0  0  0  0  0
  190.3840  177.0130  147.1660 C   0  0  0  0  0  0  0  0  0  0  0  0
  193.6160  176.1160  143.4440 C   0  0  0  0  0  0  0  0  0  0  0  0
  191.5980  176.7130  147.7750 C   0  0  0  0  0  2  0  0  0  0  0  0
  185.9900  177.7470  145.9350 N   0  0  0  0  0  0  0  0  0  0  0  0
  189.2360  177.3540  147.7830 N   0  0  0  0  0  0  0  0  0  0  0  0
  194.7340  175.8150  142.6800 O   0  0  0  0  0  1  0  0  0  0  0  0
  188.9570  177.3610  145.5290 C   0  0  0  0  0  0  0  0  0  0  0  0
  188.3640  177.5660  146.7670 C   0  0  0  0  0  0  0  0  0  0  0  0
  190.2620  177.0140  145.7990 C   0  0  0  0  0  0  0  0  0  0  0  0
  186.6330  178.5460  148.0390 O   0  0  0  0  0  0  0  0  0  0  0  0
  192.5820  176.4170  145.6140 C   0  0  0  0  0  0  0  0  0  0  0  0
  193.7050  176.1150  144.8400 C   0  0  0  0  0  3  0  0  0  0  0  0
  191.3530  176.7250  144.9750 C   0  0  0  0  0  0  0  0  0  0  0  0
  191.2700  176.7220  143.5780 C   0  0  0  0  0  3  0  0  0  0  0  0
  188.3460  177.6900  144.2030 C   0  0  0  0  0  2  0  0  0  0  0  0
  187.1040  176.8480  143.8830 C   0  0  2  0  0  3  0  0  0  0  0  0
  184.6960  178.4090  145.9950 C   0  0  0  0  0  1  0  0  0  0  0  0
  192.4020  176.4190  142.8160 C   0  0  0  0  0  3  0  0  0  0  0  0
  184.9810  177.2730  142.8100 O   0  0  0  0  0  1  0  0  0  0  0  0
  186.3670  177.3350  142.6320 C   0  0  2  0  0  3  0  0  0  0  0  0
  186.8070  176.6380  141.3360 C   0  0  2  0  0  3  0  0  0  0  0  0
  187.8980  174.5290  141.9040 C   0  0  2  0  0  3  0  0  0  0  0  0
  188.1340  175.9260  141.5530 C   0  0  1  0  0  3  0  0  0  0  0  0
  189.0470  174.0120  142.6240 N   0  0  0  0  0  1  0  0  0  0  0  0
  188.3030  174.8770  140.5340 N   0  0  0  0  0  2  0  0  0  0  0  0
  186.9110  177.6120  140.1670 C   0  0  0  0  0  2  0  0  0  0  0  0
  186.1490  177.1550  139.0910 O   0  0  0  0  0  1  0  0  0  0  0  0
  1 13  2  0  0  0  0
  2  7  1  0  0  0  0
  3  6  1  0  0  0  0
  4  6  1  0  0  0  0
  4  8  2  0  0  0  0
  5 15  2  0  0  0  0
  7 20  1  0  0  0  0
  7  1  1  0  0  0  0
  9  5  1  0  0  0  0
 10 12  1  0  0  0  0
 10 11  2  0  0  0  0
 11  1  1  0  0  0  0
 11  8  1  0  0  0  0
 12  4  1  0  0  0  0
 14  3  2  0  0  0  0
 15 14  1  0  0  0  0
 16 14  1  0  0  0  0
 16 12  2  0  0  0  0
 17 16  1  0  0  0  0
 18 10  1  0  0  0  0
 19 23  1  6  0  0  0
 19 18  1  0  0  0  0
 19  2  1  0  0  0  0
 21  5  1  0  0  0  0
 21 17  2  0  0  0  0
 23 22  1  1  0  0  0
 24 29  1  6  0  0  0
 24 23  1  0  0  0  0
 25 27  1  1  0  0  0
 26 24  1  6  0  0  0
 26 25  1  0  0  0  0
 28 26  1  0  0  0  0
 28 25  1  0  0  0  0
 30 29  1  0  0  0  0
M  END
>  <MODEL>
3

>  <REMARK>
 VINA RESULT:      -6.9      2.223      5.727
  Name = 
  4 active torsions:
  status: ('A' for Active; 'I' for Inactive)
    1  A    between atoms: C_11  and  C_20
    2  A    between atoms: C_17  and  C_20
    3  A    between atoms: C_20  and  C_22
    4  A    between atoms: C_22  and  C_28
                            x       y       z     vdW  Elec       q    Type
                         _______ _______ _______ _____ _____    ______ ____

>  <TORSDO>
F 4

$$$$
=
 OpenBabel11042413443D

 30 34  0  0  1  0  0  0  0  0999 V2000
  189.9700  174.0900  141.2000 C   0  0  0  0  0  0  0  0  0  0  0  0
  191.0360  172.9110  143.1410 C   0  0  0  0  0  2  0  0  0  0  0  0
  185.6540  177.0160  143.9860 N   0  0  0  0  0  0  0  0  0  0  0  0
  187.2480  175.7840  142.7410 C   0  0  0  0  0  0  0  0  0  0  0  0
  187.1210  178.1410  147.1600 C   0  0  0  0  0  0  0  0  0  0  0  0
  185.9680  176.3150  142.8570 C   0  0  0  0  0  3  0  0  0  0  0  0
  191.1100  173.4340  141.7790 N   0  0  0  0  0  0  0  0  0  0  0  0
  187.7430  175.0950  141.6940 N   0  0  0  0  0  0  0  0  0  0  0  0
  186.7550  178.8640  148.2870 O   0  0  0  0  0  1  0  0  0  0  0  0
  189.3240  175.3300  143.3080 C   0  0  0  0  0  0  0  0  0  0  0  0
  189.0200  174.8200  142.0530 C   0  0  0  0  0  0  0  0  0  0  0  0
  188.1760  175.9570  143.7370 C   0  0  0  0  0  0  0  0  0  0  0  0
  189.7730  174.0370  139.9560 O   0  0  0  0  0  0  0  0  0  0  0  0
  186.5580  177.2110  144.9950 C   0  0  2  0  0  3  0  0  0  0  0  0
  186.1950  177.9390  146.1310 C   0  0  0  0  0  3  0  0  0  0  0  0
  187.8710  176.6810  144.8930 C   0  0  0  0  0  0  0  0  0  0  0  0
  188.7910  176.8840  145.9280 C   0  0  0  0  0  3  0  0  0  0  0  0
  190.6860  175.3770  143.9240 C   0  0  0  0  0  2  0  0  0  0  0  0
  191.2690  173.9870  144.2140 C   0  0  2  0  0  3  0  0  0  0  0  0
  192.1940  172.9690  140.9280 C   0  0  0  0  0  1  0  0  0  0  0  0
  188.4140  177.6150  147.0580 C   0  0  0  0  0  3  0  0  0  0  0  0
  193.1370  172.8310  145.2200 O   0  0  0  0  0  1  0  0  0  0  0  0
  192.7380  174.0400  144.6440 C   0  0  2  0  0  3  0  0  0  0  0  0
  193.0840  175.2400  145.5400 C   0  0  2  0  0  3  0  0  0  0  0  0
  195.1350  175.6500  144.2810 C   0  0  2  0  0  3  0  0  0  0  0  0
  194.5940  175.4150  145.6160 C   0  0  1  0  0  3  0  0  0  0  0  0
  196.5370  175.2750  144.2580 N   0  0  0  0  0  1  0  0  0  0  0  0
  194.9520  176.7800  145.2020 N   0  0  0  0  0  2  0  0  0  0  0  0
  192.4940  175.0990  146.9390 C   0  0  0  0  0  2  0  0  0  0  0  0
  192.0010  176.3290  147.3790 O   0  0  0  0  0  1  0  0  0  0  0  0
  1  7  1  0  0  0  0
  1 11  1  0  0  0  0
  2 19  1  0  0  0  0
  3 14  1  0  0  0  0
  4  6  1  0  0  0  0
  4 12  1  0  0  0  0
  5  9  1  0  0  0  0
  6  3  2  0  0  0  0
  7  2  1  0  0  0  0
  8 11  1  0  0  0  0
  8  4  2  0  0  0  0
 10 12  1  0  0  0  0
 10 18  1  0  0  0  0
 11 10  2  0  0  0  0
 12 16  2  0  0  0  0
 13  1  2  0  0  0  0
 14 15  1  6  0  0  0
 15  5  2  0  0  0  0
 16 14  1  0  0  0  0
 16 17  1  0  0  0  0
 17 21  2  0  0  0  0
 18 19  1  0  0  0  0
 19 23  1  6  0  0  0
 20  7  1  0  0  0  0
 21  5  1  0  0  0  0
 23 22  1  1  0  0  0
 23 24  1  0  0  0  0
 24 29  1  1  0  0  0
 25 27  1  1  0  0  0
 25 28  1  0  0  0  0
 25 26  1  0  0  0  0
 26 24  1  6  0  0  0
 28 26  1  0  0  0  0
 29 30  1  0  0  0  0
M  END
>  <MODEL>
4

>  <REMARK>
 VINA RESULT:      -6.8      2.385      5.061
  Name = 
  4 active torsions:
  status: ('A' for Active; 'I' for Inactive)
    1  A    between atoms: C_11  and  C_20
    2  A    between atoms: C_17  and  C_20
    3  A    between atoms: C_20  and  C_22
    4  A    between atoms: C_22  and  C_28
                            x       y       z     vdW  Elec       q    Type
                         _______ _______ _______ _____ _____    ______ ____

>  <TORSDO>
F 4

$$$$
=
 OpenBabel11042413443D

 30 34  0  0  1  0  0  0  0  0999 V2000
  191.8060  175.8630  146.2380 C   0  0  0  0  0  0  0  0  0  0  0  0
  189.3720  175.6410  146.8050 C   0  0  0  0  0  2  0  0  0  0  0  0
  191.9570  172.9530  141.0940 N   0  0  0  0  0  0  0  0  0  0  0  0
  192.0510  174.0120  143.2100 C   0  0  0  0  0  0  0  0  0  0  0  0
  188.8430  173.8520  139.3660 C   0  0  0  0  0  0  0  0  0  0  0  0
  192.6320  173.1790  142.2590 C   0  0  0  0  0  2  0  0  0  0  0  0
  190.6520  176.3290  146.9560 N   0  0  0  0  0  0  0  0  0  0  0  0
  192.5800  174.3720  144.3960 N   0  0  0  0  0  0  0  0  0  0  0  0
  188.1980  173.5950  138.1640 O   0  0  0  0  0  1  0  0  0  0  0  0
  190.5560  175.3570  144.0980 C   0  0  0  0  0  0  0  0  0  0  0  0
  191.6520  175.1990  144.9350 C   0  0  0  0  0  0  0  0  0  0  0  0
  190.8290  174.5950  142.9850 C   0  0  0  0  0  0  0  0  0  0  0  0
  192.9590  176.0120  146.7250 O   0  0  0  0  0  0  0  0  0  0  0  0
  190.7390  173.5230  140.8370 C   0  0  0  0  0  0  0  0  0  0  0  0
  190.0860  173.2670  139.6290 C   0  0  0  0  0  3  0  0  0  0  0  0
  190.1330  174.3790  141.7930 C   0  0  0  0  0  0  0  0  0  0  0  0
  188.8880  174.9590  141.5240 C   0  0  0  0  0  3  0  0  0  0  0  0
  189.4450  176.3410  144.2910 C   0  0  0  0  0  2  0  0  0  0  0  0
  188.6030  176.0670  145.5450 C   0  0  2  0  0  3  0  0  0  0  0  0
  190.8120  177.2330  148.0840 C   0  0  0  0  0  1  0  0  0  0  0  0
  188.2470  174.6950  140.3110 C   0  0  0  0  0  3  0  0  0  0  0  0
  187.6540  177.5510  147.1990 O   0  0  0  0  0  1  0  0  0  0  0  0
  187.6110  177.1940  145.8480 C   0  0  2  0  0  3  0  0  0  0  0  0
  186.1750  176.9050  145.3800 C   0  0  2  0  0  3  0  0  0  0  0  0
  186.5100  177.7000  143.0960 C   0  0  2  0  0  3  0  0  0  0  0  0
  185.7570  177.9210  144.3270 C   0  0  1  0  0  3  0  0  0  0  0  0
  186.5390  178.9280  142.3230 N   0  0  0  0  0  1  0  0  0  0  0  0
  185.1220  177.2250  143.1970 N   0  0  0  0  0  2  0  0  0  0  0  0
  185.1850  176.9030  146.5400 C   0  0  0  0  0  2  0  0  0  0  0  0
  184.3150  177.9890  146.4300 O   0  0  0  0  0  1  0  0  0  0  0  0
  1 13  2  0  0  0  0
  1  7  1  0  0  0  0
  2  7  1  0  0  0  0
  3  6  1  0  0  0  0
  4  8  2  0  0  0  0
  5 15  2  0  0  0  0
  5 21  1  0  0  0  0
  6  4  1  0  0  0  0
  7 20  1  0  0  0  0
  8 11  1  0  0  0  0
  9  5  1  0  0  0  0
 10 18  1  0  0  0  0
 10 11  2  0  0  0  0
 11  1  1  0  0  0  0
 12  4  1  0  0  0  0
 12 10  1  0  0  0  0
 14  3  2  0  0  0  0
 14 16  1  0  0  0  0
 15 14  1  0  0  0  0
 16 12  2  0  0  0  0
 17 16  1  0  0  0  0
 18 19  1  0  0  0  0
 19 23  1  1  0  0  0
 19  2  1  0  0  0  0
 21 17  2  0  0  0  0
 23 22  1  1  0  0  0
 24 23  1  0  0  0  0
 24 29  1  1  0  0  0
 25 27  1  6  0  0  0
 25 28  1  0  0  0  0
 25 26  1  0  0  0  0
 26 24  1  1  0  0  0
 28 26  1  0  0  0  0
 30 29  1  0  0  0  0
M  END
>  <MODEL>
5

>  <REMARK>
 VINA RESULT:      -6.7      2.173      6.217
  Name = 
  4 active torsions:
  status: ('A' for Active; 'I' for Inactive)
    1  A    between atoms: C_11  and  C_20
    2  A    between atoms: C_17  and  C_20
    3  A    between atoms: C_20  and  C_22
    4  A    between atoms: C_22  and  C_28
                            x       y       z     vdW  Elec       q    Type
                         _______ _______ _______ _____ _____    ______ ____

>  <TORSDO>
F 4

$$$$
=
 OpenBabel11042413443D

 30 34  0  0  1  0  0  0  0  0999 V2000
  187.1440  177.9090  144.8530 C   0  0  0  0  0  0  0  0  0  0  0  0
  189.5700  177.3630  145.1870 C   0  0  0  0  0  2  0  0  0  0  0  0
  186.6000  176.7890  139.0730 N   0  0  0  0  0  0  0  0  0  0  0  0
  186.7280  177.4080  141.3550 C   0  0  0  0  0  0  0  0  0  0  0  0
  188.6510  173.8050  138.4540 C   0  0  0  0  0  0  0  0  0  0  0  0
  186.2260  177.6350  140.0770 C   0  0  0  0  0  2  0  0  0  0  0  0
  188.2240  177.5410  145.7260 N   0  0  0  0  0  0  0  0  0  0  0  0
  186.4470  178.1160  142.4670 N   0  0  0  0  0  0  0  0  0  0  0  0
  188.9980  172.9700  137.4010 O   0  0  0  0  0  1  0  0  0  0  0  0
  187.8690  176.4110  142.9480 C   0  0  0  0  0  0  0  0  0  0  0  0
  187.1550  177.4940  143.4420 C   0  0  0  0  0  0  0  0  0  0  0  0
  187.5780  176.3600  141.6040 C   0  0  0  0  0  0  0  0  0  0  0  0
  186.1820  178.5980  145.2880 O   0  0  0  0  0  0  0  0  0  0  0  0
  187.4420  175.7310  139.2890 C   0  0  0  0  0  0  0  0  0  0  0  0
  187.7930  174.8880  138.2320 C   0  0  0  0  0  3  0  0  0  0  0  0
  187.9590  175.4810  140.5870 C   0  0  0  0  0  0  0  0  0  0  0  0
  188.8190  174.3980  140.8010 C   0  0  0  0  0  3  0  0  0  0  0  0
  188.5960  175.3960  143.7730 C   0  0  0  0  0  2  0  0  0  0  0  0
  189.7850  175.9820  144.5460 C   0  0  2  0  0  3  0  0  0  0  0  0
  188.0800  177.6920  147.1660 C   0  0  0  0  0  1  0  0  0  0  0  0
  189.1620  173.5620  139.7340 C   0  0  0  0  0  3  0  0  0  0  0  0
  189.3910  174.4040  146.3330 O   0  0  0  0  0  1  0  0  0  0  0  0
  190.3870  174.9890  145.5450 C   0  0  2  0  0  3  0  0  0  0  0  0
  191.5210  175.5750  146.4020 C   0  0  2  0  0  3  0  0  0  0  0  0
  193.2730  175.0760  144.7770 C   0  0  2  0  0  3  0  0  0  0  0  0
  192.8150  174.8190  146.1390 C   0  0  1  0  0  3  0  0  0  0  0  0
  194.1350  173.9900  144.3460 N   0  0  0  0  0  1  0  0  0  0  0  0
  193.9050  175.7790  145.9020 N   0  0  0  0  0  2  0  0  0  0  0  0
  191.1850  175.5520  147.8890 C   0  0  0  0  0  2  0  0  0  0  0  0
  191.2780  176.8390  148.4220 O   0  0  0  0  0  1  0  0  0  0  0  0
  1 13  2  0  0  0  0
  1  7  1  0  0  0  0
  2  7  1  0  0  0  0
  3 14  2  0  0  0  0
  3  6  1  0  0  0  0
  4 12  1  0  0  0  0
  4  8  2  0  0  0  0
  5 21  1  0  0  0  0
  6  4  1  0  0  0  0
  7 20  1  0  0  0  0
  8 11  1  0  0  0  0
  9  5  1  0  0  0  0
 10 11  2  0  0  0  0
 10 18  1  0  0  0  0
 11  1  1  0  0  0  0
 12 10  1  0  0  0  0
 14 16  1  0  0  0  0
 15  5  2  0  0  0  0
 15 14  1  0  0  0  0
 16 17  1  0  0  0  0
 16 12  2  0  0  0  0
 18 19  1  0  0  0  0
 19  2  1  0  0  0  0
 19 23  1  1  0  0  0
 21 17  2  0  0  0  0
 23 22  1  1  0  0  0
 23 24  1  0  0  0  0
 24 29  1  1  0  0  0
 25 27  1  1  0  0  0
 25 28  1  0  0  0  0
 25 26  1  0  0  0  0
 26 24  1  6  0  0  0
 28 26  1  0  0  0  0
 29 30  1  0  0  0  0
M  END
>  <MODEL>
6

>  <REMARK>
 VINA RESULT:      -6.6      2.593      5.562
  Name = 
  4 active torsions:
  status: ('A' for Active; 'I' for Inactive)
    1  A    between atoms: C_11  and  C_20
    2  A    between atoms: C_17  and  C_20
    3  A    between atoms: C_20  and  C_22
    4  A    between atoms: C_22  and  C_28
                            x       y       z     vdW  Elec       q    Type
                         _______ _______ _______ _____ _____    ______ ____

>  <TORSDO>
F 4

$$$$
=
 OpenBabel11042413443D

 30 34  0  0  1  0  0  0  0  0999 V2000
  189.2500  177.6780  147.2690 C   0  0  0  0  0  0  0  0  0  0  0  0
  187.6760  176.1630  146.0350 C   0  0  0  0  0  2  0  0  0  0  0  0
  194.4400  175.5210  145.4360 N   0  0  0  0  0  0  0  0  0  0  0  0
  192.4310  176.3770  146.3530 C   0  0  0  0  0  0  0  0  0  0  0  0
  193.9590  174.6830  141.8920 C   0  0  0  0  0  0  0  0  0  0  0  0
  193.7680  176.0250  146.5130 C   0  0  0  0  0  2  0  0  0  0  0  0
  187.9450  177.4230  146.7240 N   0  0  0  0  0  0  0  0  0  0  0  0
  191.6230  176.9130  147.2880 N   0  0  0  0  0  0  0  0  0  0  0  0
  194.6860  174.1710  140.8270 O   0  0  0  0  0  1  0  0  0  0  0  0
  190.5120  176.6720  145.3220 C   0  0  0  0  0  0  0  0  0  0  0  0
  190.4440  177.0900  146.6440 C   0  0  0  0  0  0  0  0  0  0  0  0
  191.8010  176.2220  145.1440 C   0  0  0  0  0  0  0  0  0  0  0  0
  189.3790  178.4010  148.2930 O   0  0  0  0  0  0  0  0  0  0  0  0
  193.8420  175.3600  144.2160 C   0  0  0  0  0  0  0  0  0  0  0  0
  194.5700  174.8450  143.1400 C   0  0  0  0  0  3  0  0  0  0  0  0
  192.4810  175.7180  144.0330 C   0  0  0  0  0  0  0  0  0  0  0  0
  191.8750  175.5510  142.7820 C   0  0  0  0  0  3  0  0  0  0  0  0
  189.4620  176.8980  144.2800 C   0  0  0  0  0  2  0  0  0  0  0  0
  188.1480  176.1630  144.5730 C   0  0  2  0  0  3  0  0  0  0  0  0
  186.8080  178.2230  147.1510 C   0  0  0  0  0  1  0  0  0  0  0  0
  192.6160  175.0350  141.7150 C   0  0  0  0  0  3  0  0  0  0  0  0
  186.7080  175.5290  142.7380 O   0  0  0  0  0  1  0  0  0  0  0  0
  187.0190  176.5690  143.6200 C   0  0  2  0  0  3  0  0  0  0  0  0
  187.2730  177.8900  142.8770 C   0  0  2  0  0  3  0  0  0  0  0  0
  185.1110  178.3520  143.9120 C   0  0  2  0  0  3  0  0  0  0  0  0
  185.9860  178.6980  142.7960 C   0  0  1  0  0  3  0  0  0  0  0  0
  183.7380  178.6660  143.5630 N   0  0  0  0  0  1  0  0  0  0  0  0
  185.8950  179.5940  143.9590 N   0  0  0  0  0  2  0  0  0  0  0  0
  187.8460  177.6620  141.4820 C   0  0  0  0  0  2  0  0  0  0  0  0
  186.8720  177.9160  140.5150 O   0  0  0  0  0  1  0  0  0  0  0  0
  1 13  2  0  0  0  0
  2  7  1  0  0  0  0
  3  6  1  0  0  0  0
  4  6  1  0  0  0  0
  4  8  2  0  0  0  0
  5 15  2  0  0  0  0
  7 20  1  0  0  0  0
  7  1  1  0  0  0  0
  9  5  1  0  0  0  0
 10 11  2  0  0  0  0
 11  1  1  0  0  0  0
 11  8  1  0  0  0  0
 12 10  1  0  0  0  0
 12  4  1  0  0  0  0
 14  3  2  0  0  0  0
 15 14  1  0  0  0  0
 16 14  1  0  0  0  0
 16 12  2  0  0  0  0
 17 16  1  0  0  0  0
 18 19  1  0  0  0  0
 18 10  1  0  0  0  0
 19 23  1  6  0  0  0
 19  2  1  0  0  0  0
 21  5  1  0  0  0  0
 21 17  2  0  0  0  0
 23 22  1  6  0  0  0
 24 29  1  6  0  0  0
 24 23  1  0  0  0  0
 25 27  1  6  0  0  0
 25 28  1  0  0  0  0
 26 24  1  1  0  0  0
 26 25  1  0  0  0  0
 26 28  1  0  0  0  0
 30 29  1  0  0  0  0
M  END
>  <MODEL>
7

>  <REMARK>
 VINA RESULT:      -6.5      2.501      6.599
  Name = 
  4 active torsions:
  status: ('A' for Active; 'I' for Inactive)
    1  A    between atoms: C_11  and  C_20
    2  A    between atoms: C_17  and  C_20
    3  A    between atoms: C_20  and  C_22
    4  A    between atoms: C_22  and  C_28
                            x       y       z     vdW  Elec       q    Type
                         _______ _______ _______ _____ _____    ______ ____

>  <TORSDO>
F 4

$$$$
=
 OpenBabel11042413443D

 30 34  0  0  1  0  0  0  0  0999 V2000
  190.7840  176.0730  146.7710 C   0  0  0  0  0  0  0  0  0  0  0  0
  192.2850  176.8630  144.9220 C   0  0  0  0  0  2  0  0  0  0  0  0
  185.6820  178.5590  145.1150 N   0  0  0  0  0  0  0  0  0  0  0  0
  187.6930  177.6360  145.9570 C   0  0  0  0  0  0  0  0  0  0  0  0
  185.5900  178.2690  141.4540 C   0  0  0  0  0  0  0  0  0  0  0  0
  186.4710  178.2600  146.1880 C   0  0  0  0  0  2  0  0  0  0  0  0
  191.9840  175.9190  145.9950 N   0  0  0  0  0  0  0  0  0  0  0  0
  188.5830  177.2410  146.8880 N   0  0  0  0  0  0  0  0  0  0  0  0
  184.7500  178.5890  140.3970 O   0  0  0  0  0  1  0  0  0  0  0  0
  189.3240  176.7120  144.8060 C   0  0  0  0  0  0  0  0  0  0  0  0
  189.5840  176.6750  146.1700 C   0  0  0  0  0  0  0  0  0  0  0  0
  188.0970  177.3260  144.6830 C   0  0  0  0  0  0  0  0  0  0  0  0
  190.7540  175.7020  147.9750 O   0  0  0  0  0  0  0  0  0  0  0  0
  186.0530  178.2590  143.8320 C   0  0  0  0  0  0  0  0  0  0  0  0
  185.2110  178.5790  142.7650 C   0  0  0  0  0  3  0  0  0  0  0  0
  187.2930  177.6170  143.5780 C   0  0  0  0  0  0  0  0  0  0  0  0
  187.6670  177.3120  142.2640 C   0  0  0  0  0  3  0  0  0  0  0  0
  190.1150  176.0120  143.7470 C   0  0  0  0  0  2  0  0  0  0  0  0
  191.5490  176.5430  143.6120 C   0  0  2  0  0  3  0  0  0  0  0  0
  193.0620  175.0720  146.4820 C   0  0  0  0  0  1  0  0  0  0  0  0
  186.8140  177.6380  141.2060 C   0  0  0  0  0  3  0  0  0  0  0  0
  191.6130  174.9170  141.8260 O   0  0  0  0  0  1  0  0  0  0  0  0
  192.4100  175.6840  142.6810 C   0  0  2  0  0  3  0  0  0  0  0  0
  193.4540  174.8250  143.4110 C   0  0  2  0  0  3  0  0  0  0  0  0
  194.9920  176.4150  142.3790 C   0  0  2  0  0  3  0  0  0  0  0  0
  194.8250  175.0210  142.7790 C   0  0  1  0  0  3  0  0  0  0  0  0
  195.9930  176.4980  141.3310 N   0  0  0  0  0  1  0  0  0  0  0  0
  195.6250  175.9310  143.6140 N   0  0  0  0  0  2  0  0  0  0  0  0
  193.0780  173.3470  143.4160 C   0  0  0  0  0  2  0  0  0  0  0  0
  194.0810  172.5980  144.0330 O   0  0  0  0  0  1  0  0  0  0  0  0
  1 13  2  0  0  0  0
  2  7  1  0  0  0  0
  3  6  1  0  0  0  0
  4  6  1  0  0  0  0
  4  8  2  0  0  0  0
  5 15  2  0  0  0  0
  7 20  1  0  0  0  0
  7  1  1  0  0  0  0
  9  5  1  0  0  0  0
 10 11  2  0  0  0  0
 11  1  1  0  0  0  0
 11  8  1  0  0  0  0
 12 10  1  0  0  0  0
 12  4  1  0  0  0  0
 14  3  2  0  0  0  0
 15 14  1  0  0  0  0
 16 14  1  0  0  0  0
 16 12  2  0  0  0  0
 17 16  1  0  0  0  0
 18 10  1  0  0  0  0
 19 23  1  1  0  0  0
 19 18  1  0  0  0  0
 19  2  1  0  0  0  0
 21  5  1  0  0  0  0
 21 17  2  0  0  0  0
 23 22  1  1  0  0  0
 23 24  1  0  0  0  0
 24 29  1  6  0  0  0
 25 27  1  6  0  0  0
 25 26  1  0  0  0  0
 25 28  1  0  0  0  0
 26 24  1  1  0  0  0
 26 28  1  0  0  0  0
 29 30  1  0  0  0  0
M  END
>  <MODEL>
8

>  <REMARK>
 VINA RESULT:      -6.4      2.282      3.103
  Name = 
  4 active torsions:
  status: ('A' for Active; 'I' for Inactive)
    1  A    between atoms: C_11  and  C_20
    2  A    between atoms: C_17  and  C_20
    3  A    between atoms: C_20  and  C_22
    4  A    between atoms: C_22  and  C_28
                            x       y       z     vdW  Elec       q    Type
                         _______ _______ _______ _____ _____    ______ ____

>  <TORSDO>
F 4

$$$$
=
 OpenBabel11042413443D

 30 34  0  0  1  0  0  0  0  0999 V2000
  190.9760  176.1680  146.2770 C   0  0  0  0  0  0  0  0  0  0  0  0
  190.0890  174.0590  145.2470 C   0  0  0  0  0  2  0  0  0  0  0  0
  196.2270  176.5250  143.5850 N   0  0  0  0  0  0  0  0  0  0  0  0
  194.2180  176.4130  144.8320 C   0  0  0  0  0  0  0  0  0  0  0  0
  195.6360  175.4260  140.1300 C   0  0  0  0  0  0  0  0  0  0  0  0
  195.5750  176.7100  144.7700 C   0  0  0  0  0  2  0  0  0  0  0  0
  189.8610  175.3290  145.9320 N   0  0  0  0  0  0  0  0  0  0  0  0
  193.4090  176.5610  145.9000 N   0  0  0  0  0  0  0  0  0  0  0  0
  196.3420  175.2590  138.9470 O   0  0  0  0  0  1  0  0  0  0  0  0
  192.2390  175.7680  144.1220 C   0  0  0  0  0  0  0  0  0  0  0  0
  192.1940  176.1600  145.4530 C   0  0  0  0  0  0  0  0  0  0  0  0
  193.5470  175.9440  143.7310 C   0  0  0  0  0  0  0  0  0  0  0  0
  190.9210  176.9090  147.2950 O   0  0  0  0  0  0  0  0  0  0  0  0
  195.5860  176.0640  142.4660 C   0  0  0  0  0  0  0  0  0  0  0  0
  196.2930  175.8940  141.2730 C   0  0  0  0  0  3  0  0  0  0  0  0
  194.2010  175.7600  142.5100 C   0  0  0  0  0  0  0  0  0  0  0  0
  193.5510  175.2900  141.3620 C   0  0  0  0  0  3  0  0  0  0  0  0
  191.0540  175.4560  143.2640 C   0  0  0  0  0  2  0  0  0  0  0  0
  190.2780  174.2160  143.7300 C   0  0  2  0  0  3  0  0  0  0  0  0
  188.5670  175.5440  146.5590 C   0  0  0  0  0  1  0  0  0  0  0  0
  194.2700  175.1250  140.1750 C   0  0  0  0  0  3  0  0  0  0  0  0
  188.6910  172.6770  142.7550 O   0  0  0  0  0  1  0  0  0  0  0  0
  188.9550  174.0310  142.9790 C   0  0  2  0  0  3  0  0  0  0  0  0
  188.8510  174.8540  141.6860 C   0  0  2  0  0  3  0  0  0  0  0  0
  187.3530  176.2620  143.0030 C   0  0  2  0  0  3  0  0  0  0  0  0
  187.5630  175.6660  141.6880 C   0  0  1  0  0  3  0  0  0  0  0  0
  185.9410  176.5470  143.1830 N   0  0  0  0  0  1  0  0  0  0  0  0
  187.8780  177.0860  141.9050 N   0  0  0  0  0  2  0  0  0  0  0  0
  188.9240  173.9770  140.4400 C   0  0  0  0  0  2  0  0  0  0  0  0
  190.2540  173.7910  140.0620 O   0  0  0  0  0  1  0  0  0  0  0  0
  1 13  2  0  0  0  0
  2  7  1  0  0  0  0
  3  6  1  0  0  0  0
  4  8  2  0  0  0  0
  5 21  1  0  0  0  0
  5 15  2  0  0  0  0
  6  4  1  0  0  0  0
  7  1  1  0  0  0  0
  7 20  1  0  0  0  0
  9  5  1  0  0  0  0
 10 11  2  0  0  0  0
 11  8  1  0  0  0  0
 11  1  1  0  0  0  0
 12 10  1  0  0  0  0
 12  4  1  0  0  0  0
 14 16  1  0  0  0  0
 14  3  2  0  0  0  0
 15 14  1  0  0  0  0
 16 12  2  0  0  0  0
 17 16  1  0  0  0  0
 18 19  1  0  0  0  0
 18 10  1  0  0  0  0
 19 23  1  6  0  0  0
 19  2  1  0  0  0  0
 21 17  2  0  0  0  0
 23 22  1  6  0  0  0
 24 29  1  6  0  0  0
 24 23  1  0  0  0  0
 25 27  1  6  0  0  0
 26 24  1  1  0  0  0
 26 28  1  0  0  0  0
 26 25  1  0  0  0  0
 28 25  1  0  0  0  0
 30 29  1  0  0  0  0
M  END
>  <MODEL>
9

>  <REMARK>
 VINA RESULT:      -6.4      3.113      6.805
  Name = 
  4 active torsions:
  status: ('A' for Active; 'I' for Inactive)
    1  A    between atoms: C_11  and  C_20
    2  A    between atoms: C_17  and  C_20
    3  A    between atoms: C_20  and  C_22
    4  A    between atoms: C_22  and  C_28
                            x       y       z     vdW  Elec       q    Type
                         _______ _______ _______ _____ _____    ______ ____

>  <TORSDO>
F 4

$$$$
