=
 OpenBabel11042417313D

 39 43  0  0  1  0  0  0  0  0999 V2000
  183.7340  177.9840  141.0090 O   0  0  0  0  0  0  0  0  0  0  0  0
  184.4150  178.2390  143.2130 N   0  0  0  0  0  0  0  0  0  0  0  0
  187.0580  177.0820  142.2380 C   0  0  1  0  0  3  0  0  0  0  0  0
  187.4310  175.6420  142.2760 C   0  0  0  0  0  2  0  0  0  0  0  0
  188.6330  177.6370  144.0850 C   0  0  0  0  0  3  0  0  0  0  0  0
  186.1390  179.3260  146.4080 C   0  0  0  0  0  3  0  0  0  0  0  0
  185.9550  177.4250  141.3920 N   0  0  0  0  0  2  0  0  0  0  0  0
  184.6720  177.9090  141.8380 C   0  0  0  0  0  0  0  0  0  0  0  0
  186.7430  179.1750  143.4910 C   0  0  0  0  0  2  0  0  0  0  0  0
  188.8800  175.4160  142.0000 C   0  0  0  0  0  3  0  0  0  0  0  0
  184.0700  178.2980  146.1270 C   0  0  0  0  0  3  0  0  0  0  0  0
  189.8760  175.9120  142.7410 C   0  0  0  0  0  0  0  0  0  0  0  0
  184.2760  178.4510  147.3910 N   0  0  0  0  0  0  0  0  0  0  0  0
  185.4250  178.7620  144.0800 C   0  0  0  0  0  0  0  0  0  0  0  0
  187.5100  177.9300  143.1780 C   0  0  2  0  0  3  0  0  0  0  0  0
  185.5480  179.0840  147.5710 C   0  0  0  0  0  2  0  0  0  0  0  0
  189.6600  176.7840  143.9360 C   0  0  0  0  0  0  0  0  0  0  0  0
  185.2190  178.8190  145.4000 C   0  0  0  0  0  0  0  0  0  0  0  0
  190.8360  175.7750  145.8800 C   0  0  0  0  0  0  0  0  0  0  0  0
  190.6660  176.8460  144.9490 N   0  0  0  0  0  2  0  0  0  0  0  0
  189.8270  175.1890  146.3700 O   0  0  0  0  0  0  0  0  0  0  0  0
  193.2500  175.9720  145.7630 C   0  0  0  0  0  3  0  0  0  0  0  0
  192.1850  175.2950  146.1930 C   0  0  0  0  0  3  0  0  0  0  0  0
  194.6490  175.6300  146.1930 C   0  0  0  0  0  2  0  0  0  0  0  0
  195.6870  175.5720  143.8630 C   0  0  1  0  0  3  0  0  0  0  0  0
  196.6410  174.2620  145.6070 N   0  0  0  0  0  2  0  0  0  0  0  0
  196.8890  174.8660  143.2960 C   0  0  0  0  0  2  0  0  0  0  0  0
  195.3740  174.7970  145.1310 C   0  0  1  0  0  3  0  0  0  0  0  0
  197.3530  173.9180  144.3830 C   0  0  0  0  0  2  0  0  0  0  0  0
  196.0380  176.8950  144.1480 O   0  0  0  0  0  1  0  0  0  0  0  0
  191.2510  175.3650  142.4990 C   0  0  0  0  0  2  0  0  0  0  0  0
  191.2730  174.0130  141.7650 C   0  0  0  0  0  2  0  0  0  0  0  0
  190.8120  171.6390  142.7500 C   0  0  0  0  0  2  0  0  0  0  0  0
  193.3310  171.9520  144.3550 C   0  0  0  0  0  2  0  0  0  0  0  0
  192.3210  169.8870  143.5050 N   0  0  0  0  0  2  0  0  0  0  0  0
  191.6200  170.4100  142.3390 C   0  0  0  0  0  2  0  0  0  0  0  0
  191.6560  172.8840  142.6810 C   0  0  0  0  0  0  0  0  0  0  0  0
  193.5760  170.6130  143.6480 C   0  0  0  0  0  2  0  0  0  0  0  0
  192.7880  173.0120  143.4050 C   0  0  0  0  0  3  0  0  0  0  0  0
  1  8  2  0  0  0  0
  2 14  2  0  0  0  0
  3  4  1  1  0  0  0
  3 15  1  0  0  0  0
  6 16  1  0  0  0  0
  7  8  1  0  0  0  0
  7  3  1  0  0  0  0
  8  2  1  0  0  0  0
  9 14  1  0  0  0  0
 10  4  1  0  0  0  0
 10 12  2  0  0  0  0
 11 13  2  0  0  0  0
 12 17  1  0  0  0  0
 13 16  1  0  0  0  0
 14 18  1  0  0  0  0
 15  9  1  1  0  0  0
 15  5  1  0  0  0  0
 17  5  2  0  0  0  0
 17 20  1  0  0  0  0
 18 11  1  0  0  0  0
 18  6  2  0  0  0  0
 19 23  1  0  0  0  0
 19 21  2  0  0  0  0
 20 19  1  0  0  0  0
 22 24  1  0  0  0  0
 22 23  2  0  0  0  0
 25 30  1  1  0  0  0
 25 28  1  0  0  0  0
 27 25  1  0  0  0  0
 27 29  1  0  0  0  0
 28 26  1  0  0  0  0
 28 24  1  1  0  0  0
 29 26  1  0  0  0  0
 31 12  1  0  0  0  0
 32 31  1  0  0  0  0
 32 37  1  0  0  0  0
 35 38  1  0  0  0  0
 36 33  1  0  0  0  0
 36 35  1  0  0  0  0
 37 33  1  0  0  0  0
 37 39  2  0  0  0  0
 38 34  1  0  0  0  0
 39 34  1  0  0  0  0
M  END
>  <MODEL>
1

>  <REMARK>
 VINA RESULT:      -8.0      0.000      0.000
  Name = 
  7 active torsions:
  status: ('A' for Active; 'I' for Inactive)
    1  A    between atoms: C_11  and  C_23
    2  A    between atoms: C_11  and  C_35
    3  A    between atoms: C_12  and  C_28
    4  A    between atoms: C_12  and  C_30
    5  A    between atoms: C_17  and  C_37
    6  A    between atoms: N_18  and  C_32
    7  A    between atoms: C_22  and  C_35
                            x       y       z     vdW  Elec       q    Type
                         _______ _______ _______ _____ _____    ______ ____

>  <TORSDO>
F 7

$$$$
=
 OpenBabel11042417313D

 39 43  0  0  1  0  0  0  0  0999 V2000
  196.7910  173.7990  146.5130 O   0  0  0  0  0  0  0  0  0  0  0  0
  196.1480  174.2970  144.3390 N   0  0  0  0  0  2  0  0  0  0  0  0
  193.6270  175.4090  145.6360 C   0  0  1  0  0  3  0  0  0  0  0  0
  192.3650  174.6500  145.8490 C   0  0  0  0  0  2  0  0  0  0  0  0
  192.6120  176.7730  143.8160 C   0  0  0  0  0  3  0  0  0  0  0  0
  195.1890  176.0440  141.1160 C   0  0  0  0  0  3  0  0  0  0  0  0
  194.7740  174.9370  146.3520 N   0  0  0  0  0  2  0  0  0  0  0  0
  195.9490  174.3450  145.7620 C   0  0  0  0  0  0  0  0  0  0  0  0
  195.1010  176.5750  144.0500 C   0  0  0  0  0  2  0  0  0  0  0  0
  191.2250  175.5290  146.2390 C   0  0  0  0  0  3  0  0  0  0  0  0
  195.9900  173.8820  141.4380 C   0  0  0  0  0  3  0  0  0  0  0  0
  190.7480  176.5260  145.4880 C   0  0  0  0  0  0  0  0  0  0  0  0
  195.7560  174.0420  140.1790 N   0  0  0  0  0  0  0  0  0  0  0  0
  195.6610  175.3130  143.4590 C   0  0  0  0  0  0  0  0  0  0  0  0
  193.7480  176.2580  144.6000 C   0  0  2  0  0  3  0  0  0  0  0  0
  195.2630  175.3720  139.9750 C   0  0  0  0  0  3  0  0  0  0  0  0
  191.3190  176.9030  144.1590 C   0  0  0  0  0  0  0  0  0  0  0  0
  195.6460  175.1120  142.1370 C   0  0  0  0  0  0  0  0  0  0  0  0
  189.5030  176.8720  142.4620 C   0  0  0  0  0  0  0  0  0  0  0  0
  190.4940  177.5810  143.2070 N   0  0  0  0  0  2  0  0  0  0  0  0
  189.7500  175.7160  142.0080 O   0  0  0  0  0  0  0  0  0  0  0  0
  187.6250  178.1610  143.2940 C   0  0  0  0  0  3  0  0  0  0  0  0
  188.1650  177.4500  142.3040 C   0  0  0  0  0  3  0  0  0  0  0  0
  186.3380  178.9190  143.1310 C   0  0  0  0  0  2  0  0  0  0  0  0
  183.9220  178.1700  142.7970 C   0  0  1  0  0  3  0  0  0  0  0  0
  185.2700  178.6720  140.9000 N   0  0  0  0  0  2  0  0  0  0  0  0
  183.0670  177.9900  141.5720 C   0  0  0  0  0  2  0  0  0  0  0  0
  185.3410  178.1510  142.2570 C   0  0  1  0  0  3  0  0  0  0  0  0
  184.0080  178.1470  140.3940 C   0  0  0  0  0  2  0  0  0  0  0  0
  183.6150  179.4030  143.3790 O   0  0  0  0  0  1  0  0  0  0  0  0
  189.4340  177.1250  145.8910 C   0  0  0  0  0  2  0  0  0  0  0  0
  188.3610  176.0910  146.2780 C   0  0  0  0  0  2  0  0  0  0  0  0
  187.1140  177.6040  148.0020 C   0  0  0  0  0  2  0  0  0  0  0  0
  184.6220  177.1860  146.3780 C   0  0  0  0  0  2  0  0  0  0  0  0
  185.2330  179.1260  147.7450 N   0  0  0  0  0  2  0  0  0  0  0  0
  186.6860  179.0350  147.6780 C   0  0  0  0  0  2  0  0  0  0  0  0
  187.1000  176.7470  146.7640 C   0  0  0  0  0  0  0  0  0  0  0  0
  184.6890  178.7160  146.4580 C   0  0  0  0  0  2  0  0  0  0  0  0
  185.9730  176.5690  146.0410 C   0  0  0  0  0  3  0  0  0  0  0  0
  2  8  1  0  0  0  0
  3  4  1  6  0  0  0
  3  7  1  0  0  0  0
  4 10  1  0  0  0  0
  5 17  2  0  0  0  0
  6 18  1  0  0  0  0
  8  7  1  0  0  0  0
  8  1  2  0  0  0  0
  9 15  1  0  0  0  0
 11 18  1  0  0  0  0
 12 31  1  0  0  0  0
 12 10  2  0  0  0  0
 13 11  2  0  0  0  0
 14  9  1  0  0  0  0
 14  2  1  0  0  0  0
 15  5  1  6  0  0  0
 15  3  1  0  0  0  0
 16 13  1  0  0  0  0
 16  6  2  0  0  0  0
 17 12  1  0  0  0  0
 18 14  2  0  0  0  0
 19 20  1  0  0  0  0
 20 17  1  0  0  0  0
 21 19  2  0  0  0  0
 23 19  1  0  0  0  0
 23 22  2  0  0  0  0
 24 22  1  0  0  0  0
 25 30  1  6  0  0  0
 26 28  1  0  0  0  0
 27 25  1  0  0  0  0
 28 25  1  0  0  0  0
 28 24  1  1  0  0  0
 29 26  1  0  0  0  0
 29 27  1  0  0  0  0
 31 32  1  0  0  0  0
 32 37  1  0  0  0  0
 34 38  1  0  0  0  0
 36 35  1  0  0  0  0
 36 33  1  0  0  0  0
 37 33  1  0  0  0  0
 38 35  1  0  0  0  0
 39 34  1  0  0  0  0
 39 37  2  0  0  0  0
M  END
>  <MODEL>
2

>  <REMARK>
 VINA RESULT:      -7.9      2.518      9.916
  Name = 
  7 active torsions:
  status: ('A' for Active; 'I' for Inactive)
    1  A    between atoms: C_11  and  C_23
    2  A    between atoms: C_11  and  C_35
    3  A    between atoms: C_12  and  C_28
    4  A    between atoms: C_12  and  C_30
    5  A    between atoms: C_17  and  C_37
    6  A    between atoms: N_18  and  C_32
    7  A    between atoms: C_22  and  C_35
                            x       y       z     vdW  Elec       q    Type
                         _______ _______ _______ _____ _____    ______ ____

>  <TORSDO>
F 7

$$$$
=
 OpenBabel11042417313D

 39 43  0  0  1  0  0  0  0  0999 V2000
  196.8220  174.0930  146.2860 O   0  0  0  0  0  0  0  0  0  0  0  0
  195.2450  172.8270  145.1490 N   0  0  0  0  0  2  0  0  0  0  0  0
  193.3840  175.1790  145.6760 C   0  0  1  0  0  3  0  0  0  0  0  0
  192.4650  175.3040  146.8400 C   0  0  0  0  0  2  0  0  0  0  0  0
  191.4950  174.7680  144.1060 C   0  0  0  0  0  3  0  0  0  0  0  0
  192.7470  171.4940  142.6300 C   0  0  0  0  0  3  0  0  0  0  0  0
  194.7830  175.1610  145.9780 N   0  0  0  0  0  2  0  0  0  0  0  0
  195.6680  174.0360  145.8000 C   0  0  0  0  0  0  0  0  0  0  0  0
  193.8430  174.1270  143.5010 C   0  0  0  0  0  2  0  0  0  0  0  0
  191.4830  176.4150  146.6810 C   0  0  0  0  0  3  0  0  0  0  0  0
  193.9250  170.3520  144.2820 C   0  0  0  0  0  3  0  0  0  0  0  0
  190.5860  176.4950  145.6930 C   0  0  0  0  0  0  0  0  0  0  0  0
  193.1540  169.5100  143.6810 N   0  0  0  0  0  0  0  0  0  0  0  0
  194.2800  172.8190  144.0930 C   0  0  0  0  0  0  0  0  0  0  0  0
  192.9210  174.7820  144.4780 C   0  0  2  0  0  3  0  0  0  0  0  0
  192.4260  170.2070  142.6630 C   0  0  0  0  0  3  0  0  0  0  0  0
  190.4700  175.4810  144.6010 C   0  0  0  0  0  0  0  0  0  0  0  0
  193.7320  171.6680  143.6880 C   0  0  0  0  0  0  0  0  0  0  0  0
  189.0290  175.9090  142.6200 C   0  0  0  0  0  0  0  0  0  0  0  0
  189.2250  175.3320  143.9120 N   0  0  0  0  0  2  0  0  0  0  0  0
  189.4800  177.0630  142.3610 O   0  0  0  0  0  0  0  0  0  0  0  0
  188.9470  173.9870  141.1440 C   0  0  0  0  0  3  0  0  0  0  0  0
  188.3850  175.1210  141.5650 C   0  0  0  0  0  3  0  0  0  0  0  0
  188.2540  173.0510  140.1940 C   0  0  0  0  0  2  0  0  0  0  0  0
  188.3670  173.5520  137.6940 C   0  0  1  0  0  3  0  0  0  0  0  0
  190.3780  173.4640  138.9670 N   0  0  0  0  0  2  0  0  0  0  0  0
  189.5080  173.8660  136.7640 C   0  0  0  0  0  2  0  0  0  0  0  0
  189.0400  172.8950  138.8880 C   0  0  1  0  0  3  0  0  0  0  0  0
  190.7680  173.6260  137.5730 C   0  0  0  0  0  2  0  0  0  0  0  0
  187.7430  174.7480  138.0560 O   0  0  0  0  0  1  0  0  0  0  0  0
  189.4970  177.5160  145.8330 C   0  0  0  0  0  2  0  0  0  0  0  0
  188.3080  177.0570  146.6960 C   0  0  0  0  0  2  0  0  0  0  0  0
  185.6970  177.0580  146.7550 C   0  0  0  0  0  2  0  0  0  0  0  0
  185.7620  178.4420  144.0900 C   0  0  0  0  0  2  0  0  0  0  0  0
  184.0670  178.6200  145.8510 N   0  0  0  0  0  2  0  0  0  0  0  0
  184.8840  178.3230  147.0200 C   0  0  0  0  0  2  0  0  0  0  0  0
  186.9900  177.3870  146.0550 C   0  0  0  0  0  0  0  0  0  0  0  0
  184.8730  179.3860  144.9100 C   0  0  0  0  0  2  0  0  0  0  0  0
  187.0060  178.0130  144.8580 C   0  0  0  0  0  3  0  0  0  0  0  0
  2  8  1  0  0  0  0
  3  7  1  0  0  0  0
  3  4  1  1  0  0  0
  5 15  1  0  0  0  0
  5 17  2  0  0  0  0
  6 16  2  0  0  0  0
  6 18  1  0  0  0  0
  8  7  1  0  0  0  0
  8  1  2  0  0  0  0
  9 14  1  0  0  0  0
 10  4  1  0  0  0  0
 12 31  1  0  0  0  0
 12 10  2  0  0  0  0
 13 11  2  0  0  0  0
 14  2  1  0  0  0  0
 15  9  1  1  0  0  0
 15  3  1  0  0  0  0
 16 13  1  0  0  0  0
 17 12  1  0  0  0  0
 18 14  2  0  0  0  0
 18 11  1  0  0  0  0
 19 20  1  0  0  0  0
 20 17  1  0  0  0  0
 21 19  2  0  0  0  0
 22 23  2  0  0  0  0
 23 19  1  0  0  0  0
 24 22  1  0  0  0  0
 25 30  1  1  0  0  0
 25 28  1  0  0  0  0
 27 29  1  0  0  0  0
 27 25  1  0  0  0  0
 28 26  1  0  0  0  0
 28 24  1  1  0  0  0
 29 26  1  0  0  0  0
 31 32  1  0  0  0  0
 33 36  1  0  0  0  0
 34 39  1  0  0  0  0
 34 38  1  0  0  0  0
 35 36  1  0  0  0  0
 37 32  1  0  0  0  0
 37 33  1  0  0  0  0
 38 35  1  0  0  0  0
 39 37  2  0  0  0  0
M  END
>  <MODEL>
3

>  <REMARK>
 VINA RESULT:      -7.9      2.608      9.180
  Name = 
  7 active torsions:
  status: ('A' for Active; 'I' for Inactive)
    1  A    between atoms: C_11  and  C_23
    2  A    between atoms: C_11  and  C_35
    3  A    between atoms: C_12  and  C_28
    4  A    between atoms: C_12  and  C_30
    5  A    between atoms: C_17  and  C_37
    6  A    between atoms: N_18  and  C_32
    7  A    between atoms: C_22  and  C_35
                            x       y       z     vdW  Elec       q    Type
                         _______ _______ _______ _____ _____    ______ ____

>  <TORSDO>
F 7

$$$$
=
 OpenBabel11042417313D

 39 43  0  0  1  0  0  0  0  0999 V2000
  183.5540  178.0940  141.0320 O   0  0  0  0  0  0  0  0  0  0  0  0
  184.2930  178.2880  143.2240 N   0  0  0  0  0  0  0  0  0  0  0  0
  186.8830  177.0900  142.1630 C   0  0  1  0  0  3  0  0  0  0  0  0
  187.2230  175.6410  142.1620 C   0  0  0  0  0  2  0  0  0  0  0  0
  188.5140  177.5690  143.9830 C   0  0  0  0  0  3  0  0  0  0  0  0
  186.1170  179.2680  146.3980 C   0  0  0  0  0  3  0  0  0  0  0  0
  185.7700  177.4750  141.3510 N   0  0  0  0  0  2  0  0  0  0  0  0
  184.5090  177.9810  141.8370 C   0  0  0  0  0  0  0  0  0  0  0  0
  186.6490  179.1630  143.4650 C   0  0  0  0  0  2  0  0  0  0  0  0
  188.6590  175.3870  141.8470 C   0  0  0  0  0  3  0  0  0  0  0  0
  184.0180  178.2950  146.1460 C   0  0  0  0  0  3  0  0  0  0  0  0
  189.6840  175.8440  142.5740 C   0  0  0  0  0  0  0  0  0  0  0  0
  184.2580  178.4160  147.4080 N   0  0  0  0  0  0  0  0  0  0  0  0
  185.3350  178.7690  144.0770 C   0  0  0  0  0  0  0  0  0  0  0  0
  187.3780  177.9080  143.1080 C   0  0  2  0  0  3  0  0  0  0  0  0
  185.5490  179.0150  147.5700 C   0  0  0  0  0  2  0  0  0  0  0  0
  189.5170  176.6950  143.7910 C   0  0  0  0  0  0  0  0  0  0  0  0
  185.1620  178.8040  145.4020 C   0  0  0  0  0  0  0  0  0  0  0  0
  190.6490  175.6690  145.7520 C   0  0  0  0  0  0  0  0  0  0  0  0
  190.5480  176.7130  144.7810 N   0  0  0  0  0  2  0  0  0  0  0  0
  189.6060  175.1900  146.2860 O   0  0  0  0  0  0  0  0  0  0  0  0
  193.0730  175.7320  145.7000 C   0  0  0  0  0  3  0  0  0  0  0  0
  191.9610  175.0890  146.0580 C   0  0  0  0  0  3  0  0  0  0  0  0
  194.4380  175.2790  146.1330 C   0  0  0  0  0  2  0  0  0  0  0  0
  196.4370  174.6400  144.6810 C   0  0  1  0  0  3  0  0  0  0  0  0
  194.9690  176.3710  143.9630 N   0  0  0  0  0  2  0  0  0  0  0  0
  196.9250  175.1230  143.3420 C   0  0  0  0  0  2  0  0  0  0  0  0
  195.5220  175.7540  145.1600 C   0  0  1  0  0  3  0  0  0  0  0  0
  196.0720  176.3320  143.0120 C   0  0  0  0  0  2  0  0  0  0  0  0
  195.7330  173.4460  144.4970 O   0  0  0  0  0  1  0  0  0  0  0  0
  191.0390  175.2700  142.2880 C   0  0  0  0  0  2  0  0  0  0  0  0
  191.0920  173.7320  142.3140 C   0  0  0  0  0  2  0  0  0  0  0  0
  190.1120  172.0770  140.5480 C   0  0  0  0  0  2  0  0  0  0  0  0
  192.1090  173.1760  138.5930 C   0  0  0  0  0  2  0  0  0  0  0  0
  189.8890  172.2460  138.1310 N   0  0  0  0  0  2  0  0  0  0  0  0
  189.2240  172.5410  139.3940 C   0  0  0  0  0  2  0  0  0  0  0  0
  191.0990  173.1480  140.9290 C   0  0  0  0  0  0  0  0  0  0  0  0
  190.7940  173.3450  137.8220 C   0  0  0  0  0  2  0  0  0  0  0  0
  191.9910  173.6360  140.0400 C   0  0  0  0  0  3  0  0  0  0  0  0
  1  8  2  0  0  0  0
  2 14  2  0  0  0  0
  3  4  1  1  0  0  0
  3 15  1  0  0  0  0
  6 16  1  0  0  0  0
  7  8  1  0  0  0  0
  7  3  1  0  0  0  0
  8  2  1  0  0  0  0
  9 14  1  0  0  0  0
 10  4  1  0  0  0  0
 10 12  2  0  0  0  0
 11 13  2  0  0  0  0
 12 17  1  0  0  0  0
 13 16  1  0  0  0  0
 14 18  1  0  0  0  0
 15  9  1  1  0  0  0
 15  5  1  0  0  0  0
 17  5  2  0  0  0  0
 17 20  1  0  0  0  0
 18 11  1  0  0  0  0
 18  6  2  0  0  0  0
 19 23  1  0  0  0  0
 19 21  2  0  0  0  0
 20 19  1  0  0  0  0
 22 23  2  0  0  0  0
 22 24  1  0  0  0  0
 25 30  1  6  0  0  0
 25 28  1  0  0  0  0
 26 28  1  0  0  0  0
 27 25  1  0  0  0  0
 28 24  1  1  0  0  0
 29 27  1  0  0  0  0
 29 26  1  0  0  0  0
 31 32  1  0  0  0  0
 31 12  1  0  0  0  0
 33 37  1  0  0  0  0
 34 39  1  0  0  0  0
 35 36  1  0  0  0  0
 36 33  1  0  0  0  0
 37 32  1  0  0  0  0
 38 35  1  0  0  0  0
 38 34  1  0  0  0  0
 39 37  2  0  0  0  0
M  END
>  <MODEL>
4

>  <REMARK>
 VINA RESULT:      -7.8      1.740      2.276
  Name = 
  7 active torsions:
  status: ('A' for Active; 'I' for Inactive)
    1  A    between atoms: C_11  and  C_23
    2  A    between atoms: C_11  and  C_35
    3  A    between atoms: C_12  and  C_28
    4  A    between atoms: C_12  and  C_30
    5  A    between atoms: C_17  and  C_37
    6  A    between atoms: N_18  and  C_32
    7  A    between atoms: C_22  and  C_35
                            x       y       z     vdW  Elec       q    Type
                         _______ _______ _______ _____ _____    ______ ____

>  <TORSDO>
F 7

$$$$
=
 OpenBabel11042417313D

 39 43  0  0  1  0  0  0  0  0999 V2000
  185.6290  179.4030  147.9100 O   0  0  0  0  0  0  0  0  0  0  0  0
  185.9510  178.6920  145.7240 N   0  0  0  0  0  2  0  0  0  0  0  0
  188.3590  177.2110  146.8570 C   0  0  1  0  0  3  0  0  0  0  0  0
  189.7490  177.7400  146.9040 C   0  0  0  0  0  2  0  0  0  0  0  0
  188.9320  175.5990  145.0480 C   0  0  0  0  0  3  0  0  0  0  0  0
  186.2610  176.6450  142.5500 C   0  0  0  0  0  3  0  0  0  0  0  0
  187.3910  177.9150  147.6420 N   0  0  0  0  0  2  0  0  0  0  0  0
  186.2830  178.6790  147.1230 C   0  0  0  0  0  0  0  0  0  0  0  0
  186.5520  176.2510  145.4920 C   0  0  0  0  0  2  0  0  0  0  0  0
  190.7530  176.6910  147.2470 C   0  0  0  0  0  3  0  0  0  0  0  0
  185.8850  178.9290  142.7990 C   0  0  0  0  0  3  0  0  0  0  0  0
  190.9700  175.5890  146.5220 C   0  0  0  0  0  0  0  0  0  0  0  0
  185.9600  178.6670  141.5380 N   0  0  0  0  0  0  0  0  0  0  0  0
  186.1630  177.5630  144.8730 C   0  0  0  0  0  0  0  0  0  0  0  0
  187.9880  176.3480  145.8950 C   0  0  2  0  0  3  0  0  0  0  0  0
  186.1900  177.2630  141.3780 C   0  0  0  0  0  3  0  0  0  0  0  0
  190.2110  175.2560  145.2790 C   0  0  0  0  0  0  0  0  0  0  0  0
  186.0800  177.6930  143.5450 C   0  0  0  0  0  0  0  0  0  0  0  0
  191.2680  174.9140  143.0550 C   0  0  0  0  0  0  0  0  0  0  0  0
  190.8050  174.3950  144.3030 N   0  0  0  0  0  2  0  0  0  0  0  0
  190.5980  175.7930  142.4400 O   0  0  0  0  0  0  0  0  0  0  0  0
  193.5020  175.4020  142.2480 C   0  0  0  0  0  3  0  0  0  0  0  0
  192.5720  174.4910  142.5350 C   0  0  0  0  0  3  0  0  0  0  0  0
  194.9090  175.0260  141.8780 C   0  0  0  0  0  2  0  0  0  0  0  0
  196.7440  175.4820  140.1640 C   0  0  1  0  0  3  0  0  0  0  0  0
  194.6430  174.6310  139.4370 N   0  0  0  0  0  2  0  0  0  0  0  0
  196.8230  175.2880  138.6730 C   0  0  0  0  0  2  0  0  0  0  0  0
  195.2530  175.4750  140.4540 C   0  0  1  0  0  3  0  0  0  0  0  0
  195.4200  174.9160  138.2380 C   0  0  0  0  0  2  0  0  0  0  0  0
  197.3890  174.4120  140.7900 O   0  0  0  0  0  1  0  0  0  0  0  0
  192.1950  174.7850  146.8440 C   0  0  0  0  0  2  0  0  0  0  0  0
  193.5100  175.4120  146.3480 C   0  0  0  0  0  2  0  0  0  0  0  0
  195.8470  174.7400  145.3960 C   0  0  0  0  0  2  0  0  0  0  0  0
  194.7300  171.9900  144.9370 C   0  0  0  0  0  2  0  0  0  0  0  0
  197.0480  172.6250  145.4190 N   0  0  0  0  0  2  0  0  0  0  0  0
  196.8220  173.8540  146.1680 C   0  0  0  0  0  2  0  0  0  0  0  0
  194.4210  174.3880  145.7320 C   0  0  0  0  0  0  0  0  0  0  0  0
  195.9900  171.6820  145.7570 C   0  0  0  0  0  2  0  0  0  0  0  0
  193.9320  173.1470  145.5230 C   0  0  0  0  0  3  0  0  0  0  0  0
  2  8  1  0  0  0  0
  3  4  1  6  0  0  0
  3  7  1  0  0  0  0
  4 10  1  0  0  0  0
  5 17  2  0  0  0  0
  6 18  1  0  0  0  0
  8  7  1  0  0  0  0
  8  1  2  0  0  0  0
  9 15  1  0  0  0  0
 11 18  1  0  0  0  0
 12 31  1  0  0  0  0
 12 10  2  0  0  0  0
 13 11  2  0  0  0  0
 14  9  1  0  0  0  0
 14  2  1  0  0  0  0
 15  5  1  6  0  0  0
 15  3  1  0  0  0  0
 16 13  1  0  0  0  0
 16  6  2  0  0  0  0
 17 12  1  0  0  0  0
 18 14  2  0  0  0  0
 19 20  1  0  0  0  0
 20 17  1  0  0  0  0
 21 19  2  0  0  0  0
 22 23  2  0  0  0  0
 23 19  1  0  0  0  0
 24 22  1  0  0  0  0
 25 28  1  0  0  0  0
 25 30  1  1  0  0  0
 26 28  1  0  0  0  0
 27 25  1  0  0  0  0
 28 24  1  1  0  0  0
 29 27  1  0  0  0  0
 29 26  1  0  0  0  0
 32 31  1  0  0  0  0
 33 37  1  0  0  0  0
 33 36  1  0  0  0  0
 34 39  1  0  0  0  0
 34 38  1  0  0  0  0
 35 38  1  0  0  0  0
 35 36  1  0  0  0  0
 37 32  1  0  0  0  0
 39 37  2  0  0  0  0
M  END
>  <MODEL>
5

>  <REMARK>
 VINA RESULT:      -7.8      2.730      4.668
  Name = 
  7 active torsions:
  status: ('A' for Active; 'I' for Inactive)
    1  A    between atoms: C_11  and  C_23
    2  A    between atoms: C_11  and  C_35
    3  A    between atoms: C_12  and  C_28
    4  A    between atoms: C_12  and  C_30
    5  A    between atoms: C_17  and  C_37
    6  A    between atoms: N_18  and  C_32
    7  A    between atoms: C_22  and  C_35
                            x       y       z     vdW  Elec       q    Type
                         _______ _______ _______ _____ _____    ______ ____

>  <TORSDO>
F 7

$$$$
=
 OpenBabel11042417313D

 39 43  0  0  1  0  0  0  0  0999 V2000
  185.6580  179.7090  148.0020 O   0  0  0  0  0  0  0  0  0  0  0  0
  185.8730  178.8860  145.8430 N   0  0  0  0  0  2  0  0  0  0  0  0
  188.2760  177.3810  146.9540 C   0  0  1  0  0  3  0  0  0  0  0  0
  189.6830  177.8660  146.9240 C   0  0  0  0  0  2  0  0  0  0  0  0
  188.7290  175.6690  145.2040 C   0  0  0  0  0  3  0  0  0  0  0  0
  185.9960  176.6840  142.7610 C   0  0  0  0  0  3  0  0  0  0  0  0
  187.3610  178.1520  147.7400 N   0  0  0  0  0  2  0  0  0  0  0  0
  186.2580  178.9270  147.2270 C   0  0  0  0  0  0  0  0  0  0  0  0
  186.3890  176.4180  145.7060 C   0  0  0  0  0  2  0  0  0  0  0  0
  190.6660  176.8020  147.2780 C   0  0  0  0  0  3  0  0  0  0  0  0
  185.7010  178.9880  142.9150 C   0  0  0  0  0  3  0  0  0  0  0  0
  190.8210  175.6610  146.6000 C   0  0  0  0  0  0  0  0  0  0  0  0
  185.7180  178.6660  141.6650 N   0  0  0  0  0  0  0  0  0  0  0  0
  186.0170  177.7120  145.0390 C   0  0  0  0  0  0  0  0  0  0  0  0
  187.8420  176.4870  146.0490 C   0  0  2  0  0  3  0  0  0  0  0  0
  185.8990  177.2490  141.5640 C   0  0  0  0  0  3  0  0  0  0  0  0
  190.0040  175.2950  145.4030 C   0  0  0  0  0  0  0  0  0  0  0  0
  185.8860  177.7830  143.7110 C   0  0  0  0  0  0  0  0  0  0  0  0
  190.0030  173.0490  144.3390 C   0  0  0  0  0  0  0  0  0  0  0  0
  190.5330  174.3710  144.4480 N   0  0  0  0  0  2  0  0  0  0  0  0
  189.6910  172.3970  145.3780 O   0  0  0  0  0  0  0  0  0  0  0  0
  190.2470  173.0620  141.9260 C   0  0  0  0  0  3  0  0  0  0  0  0
  189.7350  172.4840  143.0130 C   0  0  0  0  0  3  0  0  0  0  0  0
  190.1520  172.4380  140.5630 C   0  0  0  0  0  2  0  0  0  0  0  0
  190.4250  173.2610  138.1630 C   0  0  1  0  0  3  0  0  0  0  0  0
  188.3090  173.4540  139.2380 N   0  0  0  0  0  2  0  0  0  0  0  0
  189.4640  173.8610  137.1710 C   0  0  0  0  0  2  0  0  0  0  0  0
  189.7410  173.4650  139.5030 C   0  0  1  0  0  3  0  0  0  0  0  0
  188.1910  174.1260  137.9500 C   0  0  0  0  0  2  0  0  0  0  0  0
  190.5780  171.9030  137.8710 O   0  0  0  0  0  1  0  0  0  0  0  0
  192.0320  174.8330  146.9130 C   0  0  0  0  0  2  0  0  0  0  0  0
  193.3600  175.4570  146.4510 C   0  0  0  0  0  2  0  0  0  0  0  0
  195.6740  174.7810  145.4470 C   0  0  0  0  0  2  0  0  0  0  0  0
  194.4510  172.1310  144.7370 C   0  0  0  0  0  2  0  0  0  0  0  0
  196.7900  172.6260  145.2800 N   0  0  0  0  0  2  0  0  0  0  0  0
  196.6090  173.7900  146.1380 C   0  0  0  0  0  2  0  0  0  0  0  0
  194.2340  174.4580  145.7460 C   0  0  0  0  0  0  0  0  0  0  0  0
  195.6930  171.7000  145.5280 C   0  0  0  0  0  2  0  0  0  0  0  0
  193.6970  173.2620  145.4240 C   0  0  0  0  0  3  0  0  0  0  0  0
  2  8  1  0  0  0  0
  3  4  1  6  0  0  0
  3  7  1  0  0  0  0
  4 10  1  0  0  0  0
  5 17  2  0  0  0  0
  6 18  1  0  0  0  0
  8  7  1  0  0  0  0
  8  1  2  0  0  0  0
  9 15  1  0  0  0  0
 11 18  1  0  0  0  0
 12 31  1  0  0  0  0
 12 10  2  0  0  0  0
 13 11  2  0  0  0  0
 14  9  1  0  0  0  0
 14  2  1  0  0  0  0
 15  5  1  6  0  0  0
 15  3  1  0  0  0  0
 16 13  1  0  0  0  0
 16  6  2  0  0  0  0
 17 12  1  0  0  0  0
 18 14  2  0  0  0  0
 19 20  1  0  0  0  0
 19 21  2  0  0  0  0
 20 17  1  0  0  0  0
 22 23  2  0  0  0  0
 23 19  1  0  0  0  0
 24 22  1  0  0  0  0
 25 30  1  6  0  0  0
 25 28  1  0  0  0  0
 26 28  1  0  0  0  0
 27 29  1  0  0  0  0
 27 25  1  0  0  0  0
 28 24  1  1  0  0  0
 29 26  1  0  0  0  0
 32 31  1  0  0  0  0
 33 37  1  0  0  0  0
 33 36  1  0  0  0  0
 34 39  1  0  0  0  0
 34 38  1  0  0  0  0
 35 38  1  0  0  0  0
 35 36  1  0  0  0  0
 37 32  1  0  0  0  0
 39 37  2  0  0  0  0
M  END
>  <MODEL>
6

>  <REMARK>
 VINA RESULT:      -7.8      2.899      5.764
  Name = 
  7 active torsions:
  status: ('A' for Active; 'I' for Inactive)
    1  A    between atoms: C_11  and  C_23
    2  A    between atoms: C_11  and  C_35
    3  A    between atoms: C_12  and  C_28
    4  A    between atoms: C_12  and  C_30
    5  A    between atoms: C_17  and  C_37
    6  A    between atoms: N_18  and  C_32
    7  A    between atoms: C_22  and  C_35
                            x       y       z     vdW  Elec       q    Type
                         _______ _______ _______ _____ _____    ______ ____

>  <TORSDO>
F 7

$$$$
=
 OpenBabel11042417313D

 39 43  0  0  1  0  0  0  0  0999 V2000
  191.6930  168.4720  141.6200 O   0  0  0  0  0  0  0  0  0  0  0  0
  191.0240  170.1940  140.2150 N   0  0  0  0  0  2  0  0  0  0  0  0
  190.7910  171.8220  142.7780 C   0  0  1  0  0  3  0  0  0  0  0  0
  189.5510  171.9810  143.5840 C   0  0  0  0  0  2  0  0  0  0  0  0
  190.6660  174.1660  141.9470 C   0  0  0  0  0  3  0  0  0  0  0  0
  190.7860  173.4080  138.2220 C   0  0  0  0  0  3  0  0  0  0  0  0
  191.3250  170.4960  142.6980 N   0  0  0  0  0  2  0  0  0  0  0  0
  191.3820  169.6820  141.5090 C   0  0  0  0  0  0  0  0  0  0  0  0
  192.0390  172.4420  140.7510 C   0  0  0  0  0  2  0  0  0  0  0  0
  189.6680  173.0540  144.6140 C   0  0  0  0  0  3  0  0  0  0  0  0
  189.7260  171.3680  137.8590 C   0  0  0  0  0  3  0  0  0  0  0  0
  189.9090  174.3400  144.3400 C   0  0  0  0  0  0  0  0  0  0  0  0
  189.3220  172.1990  136.9580 N   0  0  0  0  0  0  0  0  0  0  0  0
  191.2340  171.5580  139.8420 C   0  0  0  0  0  0  0  0  0  0  0  0
  191.1810  172.7860  141.9260 C   0  0  2  0  0  3  0  0  0  0  0  0
  189.9720  173.4570  137.1760 C   0  0  0  0  0  3  0  0  0  0  0  0
  190.1160  174.8640  142.9550 C   0  0  0  0  0  0  0  0  0  0  0  0
  190.6660  172.0510  138.7360 C   0  0  0  0  0  0  0  0  0  0  0  0
  188.6380  176.6420  142.0420 C   0  0  0  0  0  0  0  0  0  0  0  0
  189.8520  176.2420  142.6800 N   0  0  0  0  0  2  0  0  0  0  0  0
  188.1610  175.9570  141.0900 O   0  0  0  0  0  0  0  0  0  0  0  0
  186.8960  177.6150  143.4190 C   0  0  0  0  0  3  0  0  0  0  0  0
  187.8960  177.7960  142.5570 C   0  0  0  0  0  3  0  0  0  0  0  0
  186.2130  178.7610  144.1120 C   0  0  0  0  0  2  0  0  0  0  0  0
  185.0320  179.0420  146.3560 C   0  0  1  0  0  3  0  0  0  0  0  0
  186.5920  177.2680  146.0650 N   0  0  0  0  0  2  0  0  0  0  0  0
  185.0710  178.2570  147.6390 C   0  0  0  0  0  2  0  0  0  0  0  0
  186.3030  178.6290  145.6360 C   0  0  1  0  0  3  0  0  0  0  0  0
  186.1970  177.2560  147.4670 C   0  0  0  0  0  2  0  0  0  0  0  0
  183.8940  178.6670  145.6370 O   0  0  0  0  0  1  0  0  0  0  0  0
  189.7180  175.3280  145.4520 C   0  0  0  0  0  2  0  0  0  0  0  0
  190.5270  175.0130  146.7220 C   0  0  0  0  0  2  0  0  0  0  0  0
  192.8510  174.2800  145.7830 C   0  0  0  0  0  2  0  0  0  0  0  0
  193.9630  176.8460  146.8770 C   0  0  0  0  0  2  0  0  0  0  0  0
  194.7230  175.5750  144.9250 N   0  0  0  0  0  2  0  0  0  0  0  0
  193.4750  174.9230  144.5460 C   0  0  0  0  0  2  0  0  0  0  0  0
  191.9960  175.2700  146.5290 C   0  0  0  0  0  0  0  0  0  0  0  0
  194.4120  176.9120  145.4120 C   0  0  0  0  0  2  0  0  0  0  0  0
  192.5070  176.4210  147.0140 C   0  0  0  0  0  3  0  0  0  0  0  0
  2  8  1  0  0  0  0
  3  4  1  6  0  0  0
  4 10  1  0  0  0  0
  5 17  2  0  0  0  0
  6 18  1  0  0  0  0
  7  3  1  0  0  0  0
  8  1  2  0  0  0  0
  8  7  1  0  0  0  0
 11 18  1  0  0  0  0
 12 10  2  0  0  0  0
 12 31  1  0  0  0  0
 13 16  1  0  0  0  0
 13 11  2  0  0  0  0
 14  2  1  0  0  0  0
 14  9  1  0  0  0  0
 15  9  1  6  0  0  0
 15  5  1  0  0  0  0
 15  3  1  0  0  0  0
 16  6  2  0  0  0  0
 17 12  1  0  0  0  0
 18 14  2  0  0  0  0
 19 23  1  0  0  0  0
 19 20  1  0  0  0  0
 20 17  1  0  0  0  0
 21 19  2  0  0  0  0
 22 24  1  0  0  0  0
 23 22  2  0  0  0  0
 25 30  1  6  0  0  0
 25 27  1  0  0  0  0
 26 29  1  0  0  0  0
 28 24  1  6  0  0  0
 28 26  1  0  0  0  0
 28 25  1  0  0  0  0
 29 27  1  0  0  0  0
 31 32  1  0  0  0  0
 33 37  1  0  0  0  0
 34 39  1  0  0  0  0
 35 38  1  0  0  0  0
 36 35  1  0  0  0  0
 36 33  1  0  0  0  0
 37 32  1  0  0  0  0
 37 39  2  0  0  0  0
 38 34  1  0  0  0  0
M  END
>  <MODEL>
7

>  <REMARK>
 VINA RESULT:      -7.7      2.941      8.475
  Name = 
  7 active torsions:
  status: ('A' for Active; 'I' for Inactive)
    1  A    between atoms: C_11  and  C_23
    2  A    between atoms: C_11  and  C_35
    3  A    between atoms: C_12  and  C_28
    4  A    between atoms: C_12  and  C_30
    5  A    between atoms: C_17  and  C_37
    6  A    between atoms: N_18  and  C_32
    7  A    between atoms: C_22  and  C_35
                            x       y       z     vdW  Elec       q    Type
                         _______ _______ _______ _____ _____    ______ ____

>  <TORSDO>
F 7

$$$$
=
 OpenBabel11042417313D

 39 43  0  0  1  0  0  0  0  0999 V2000
  184.8400  178.7730  147.6400 O   0  0  0  0  0  0  0  0  0  0  0  0
  185.4640  178.3190  145.4510 N   0  0  0  0  0  2  0  0  0  0  0  0
  187.9860  177.1600  146.7040 C   0  0  1  0  0  3  0  0  0  0  0  0
  189.2560  177.9040  146.9260 C   0  0  0  0  0  2  0  0  0  0  0  0
  188.9780  175.8300  144.8480 C   0  0  0  0  0  3  0  0  0  0  0  0
  186.3880  176.6390  142.1820 C   0  0  0  0  0  3  0  0  0  0  0  0
  186.8480  177.6230  147.4390 N   0  0  0  0  0  2  0  0  0  0  0  0
  185.6730  178.2370  146.8710 C   0  0  0  0  0  0  0  0  0  0  0  0
  186.4930  176.0400  145.1030 C   0  0  0  0  0  2  0  0  0  0  0  0
  190.3920  177.0080  147.2880 C   0  0  0  0  0  3  0  0  0  0  0  0
  185.6060  178.7990  142.5590 C   0  0  0  0  0  3  0  0  0  0  0  0
  190.8560  176.0250  146.5110 C   0  0  0  0  0  0  0  0  0  0  0  0
  185.8310  178.6660  141.2950 N   0  0  0  0  0  0  0  0  0  0  0  0
  185.9380  177.3200  144.5450 C   0  0  0  0  0  0  0  0  0  0  0  0
  187.8520  176.3360  145.6500 C   0  0  2  0  0  3  0  0  0  0  0  0
  186.3120  177.3380  141.0570 C   0  0  0  0  0  3  0  0  0  0  0  0
  190.2730  175.6820  145.1780 C   0  0  0  0  0  0  0  0  0  0  0  0
  185.9460  177.5510  143.2280 C   0  0  0  0  0  0  0  0  0  0  0  0
  190.8430  173.6570  143.8540 C   0  0  0  0  0  0  0  0  0  0  0  0
  191.0860  175.0200  144.2050 N   0  0  0  0  0  2  0  0  0  0  0  0
  190.5390  172.8120  144.7460 O   0  0  0  0  0  0  0  0  0  0  0  0
  190.2850  172.1160  142.0680 C   0  0  0  0  0  3  0  0  0  0  0  0
  190.8570  173.2600  142.4430 C   0  0  0  0  0  3  0  0  0  0  0  0
  190.1140  171.7370  140.6230 C   0  0  0  0  0  2  0  0  0  0  0  0
  190.4470  173.0320  138.4500 C   0  0  1  0  0  3  0  0  0  0  0  0
  188.2860  172.9450  139.4460 N   0  0  0  0  0  2  0  0  0  0  0  0
  189.5040  173.7900  137.5560 C   0  0  0  0  0  2  0  0  0  0  0  0
  189.7050  172.9440  139.7720 C   0  0  1  0  0  3  0  0  0  0  0  0
  188.1920  173.8560  138.3140 C   0  0  0  0  0  2  0  0  0  0  0  0
  190.6620  171.7650  137.9010 O   0  0  0  0  0  1  0  0  0  0  0  0
  192.1680  175.4080  146.8920 C   0  0  0  0  0  2  0  0  0  0  0  0
  193.3670  176.3690  146.8060 C   0  0  0  0  0  2  0  0  0  0  0  0
  194.7760  174.4340  145.7640 C   0  0  0  0  0  2  0  0  0  0  0  0
  195.9860  176.4740  143.9210 C   0  0  0  0  0  2  0  0  0  0  0  0
  195.6160  174.0870  143.5080 N   0  0  0  0  0  2  0  0  0  0  0  0
  194.4760  173.8520  144.3840 C   0  0  0  0  0  2  0  0  0  0  0  0
  194.4000  175.8910  145.8260 C   0  0  0  0  0  0  0  0  0  0  0  0
  195.4830  175.4170  142.9300 C   0  0  0  0  0  2  0  0  0  0  0  0
  194.9490  176.7980  144.9900 C   0  0  0  0  0  3  0  0  0  0  0  0
  2  8  1  0  0  0  0
  3  4  1  6  0  0  0
  3  7  1  0  0  0  0
  4 10  1  0  0  0  0
  5 17  2  0  0  0  0
  6 18  1  0  0  0  0
  8  7  1  0  0  0  0
  8  1  2  0  0  0  0
  9 15  1  0  0  0  0
 11 18  1  0  0  0  0
 12 31  1  0  0  0  0
 12 10  2  0  0  0  0
 13 11  2  0  0  0  0
 14  9  1  0  0  0  0
 14  2  1  0  0  0  0
 15  5  1  6  0  0  0
 15  3  1  0  0  0  0
 16 13  1  0  0  0  0
 16  6  2  0  0  0  0
 17 12  1  0  0  0  0
 18 14  2  0  0  0  0
 19 20  1  0  0  0  0
 19 21  2  0  0  0  0
 20 17  1  0  0  0  0
 22 23  2  0  0  0  0
 23 19  1  0  0  0  0
 24 22  1  0  0  0  0
 25 30  1  6  0  0  0
 25 28  1  0  0  0  0
 26 28  1  0  0  0  0
 27 29  1  0  0  0  0
 27 25  1  0  0  0  0
 28 24  1  6  0  0  0
 29 26  1  0  0  0  0
 32 31  1  0  0  0  0
 33 37  1  0  0  0  0
 34 39  1  0  0  0  0
 35 36  1  0  0  0  0
 36 33  1  0  0  0  0
 37 32  1  0  0  0  0
 38 35  1  0  0  0  0
 38 34  1  0  0  0  0
 39 37  2  0  0  0  0
M  END
>  <MODEL>
8

>  <REMARK>
 VINA RESULT:      -7.7      2.815      5.792
  Name = 
  7 active torsions:
  status: ('A' for Active; 'I' for Inactive)
    1  A    between atoms: C_11  and  C_23
    2  A    between atoms: C_11  and  C_35
    3  A    between atoms: C_12  and  C_28
    4  A    between atoms: C_12  and  C_30
    5  A    between atoms: C_17  and  C_37
    6  A    between atoms: N_18  and  C_32
    7  A    between atoms: C_22  and  C_35
                            x       y       z     vdW  Elec       q    Type
                         _______ _______ _______ _____ _____    ______ ____

>  <TORSDO>
F 7

$$$$
=
 OpenBabel11042417313D

 39 43  0  0  1  0  0  0  0  0999 V2000
  187.7690  172.3530  139.5680 O   0  0  0  0  0  0  0  0  0  0  0  0
  190.0250  172.8370  139.8230 N   0  0  0  0  0  2  0  0  0  0  0  0
  189.0920  174.6700  142.0690 C   0  0  1  0  0  3  0  0  0  0  0  0
  188.7840  176.1190  141.9240 C   0  0  0  0  0  2  0  0  0  0  0  0
  191.1920  175.1440  143.3190 C   0  0  0  0  0  3  0  0  0  0  0  0
  193.5740  173.1680  141.1090 C   0  0  0  0  0  3  0  0  0  0  0  0
  188.2460  173.7700  141.3450 N   0  0  0  0  0  2  0  0  0  0  0  0
  188.6520  172.9450  140.2340 C   0  0  0  0  0  0  0  0  0  0  0  0
  190.8160  172.9230  142.2180 C   0  0  0  0  0  2  0  0  0  0  0  0
  188.6290  176.8080  143.2370 C   0  0  0  0  0  3  0  0  0  0  0  0
  192.7850  173.2620  138.9210 C   0  0  0  0  0  3  0  0  0  0  0  0
  189.5880  176.8880  144.1650 C   0  0  0  0  0  0  0  0  0  0  0  0
  194.0590  173.4660  138.9000 N   0  0  0  0  0  0  0  0  0  0  0  0
  191.1130  172.9240  140.7460 C   0  0  0  0  0  0  0  0  0  0  0  0
  190.2720  174.2690  142.5730 C   0  0  2  0  0  3  0  0  0  0  0  0
  194.5510  173.4090  140.2440 C   0  0  0  0  0  3  0  0  0  0  0  0
  190.9400  176.2690  144.0100 C   0  0  0  0  0  0  0  0  0  0  0  0
  192.3660  173.0710  140.3020 C   0  0  0  0  0  0  0  0  0  0  0  0
  192.6200  176.0730  145.8310 C   0  0  0  0  0  0  0  0  0  0  0  0
  192.0440  176.8020  144.7460 N   0  0  0  0  0  2  0  0  0  0  0  0
  191.8800  175.4430  146.6430 O   0  0  0  0  0  0  0  0  0  0  0  0
  194.7590  175.1570  145.1480 C   0  0  0  0  0  3  0  0  0  0  0  0
  194.0790  175.9790  145.9470 C   0  0  0  0  0  3  0  0  0  0  0  0
  196.2610  175.1430  145.0990 C   0  0  0  0  0  2  0  0  0  0  0  0
  197.7060  174.9630  143.0030 C   0  0  1  0  0  3  0  0  0  0  0  0
  195.7200  176.2750  142.9520 N   0  0  0  0  0  2  0  0  0  0  0  0
  197.5620  175.5150  141.6110 C   0  0  0  0  0  2  0  0  0  0  0  0
  196.7880  175.8380  143.8390 C   0  0  1  0  0  3  0  0  0  0  0  0
  196.3910  176.4760  141.6750 C   0  0  0  0  0  2  0  0  0  0  0  0
  197.2800  173.6320  143.0040 O   0  0  0  0  0  1  0  0  0  0  0  0
  189.3720  177.8470  145.2980 C   0  0  0  0  0  2  0  0  0  0  0  0
  188.9080  177.1840  146.6060 C   0  0  0  0  0  2  0  0  0  0  0  0
  186.9250  178.4030  147.7920 C   0  0  0  0  0  2  0  0  0  0  0  0
  185.0670  176.6510  146.2110 C   0  0  0  0  0  2  0  0  0  0  0  0
  184.6720  178.9250  147.0360 N   0  0  0  0  0  2  0  0  0  0  0  0
  186.0420  179.4220  147.0730 C   0  0  0  0  0  2  0  0  0  0  0  0
  187.4320  177.3600  146.8310 C   0  0  0  0  0  0  0  0  0  0  0  0
  184.5330  178.0500  145.8800 C   0  0  0  0  0  2  0  0  0  0  0  0
  186.5860  176.5800  146.1240 C   0  0  0  0  0  3  0  0  0  0  0  0
  1  8  2  0  0  0  0
  2  8  1  0  0  0  0
  2 14  1  0  0  0  0
  3  4  1  6  0  0  0
  3 15  1  0  0  0  0
  4 10  1  0  0  0  0
  5 17  2  0  0  0  0
  7  3  1  0  0  0  0
  8  7  1  0  0  0  0
 10 12  2  0  0  0  0
 11 18  1  0  0  0  0
 12 31  1  0  0  0  0
 13 11  2  0  0  0  0
 13 16  1  0  0  0  0
 14  9  1  0  0  0  0
 15  9  1  6  0  0  0
 15  5  1  0  0  0  0
 16  6  2  0  0  0  0
 17 12  1  0  0  0  0
 17 20  1  0  0  0  0
 18 14  2  0  0  0  0
 18  6  1  0  0  0  0
 19 23  1  0  0  0  0
 19 21  2  0  0  0  0
 20 19  1  0  0  0  0
 22 23  2  0  0  0  0
 24 22  1  0  0  0  0
 25 30  1  6  0  0  0
 25 28  1  0  0  0  0
 26 28  1  0  0  0  0
 27 29  1  0  0  0  0
 27 25  1  0  0  0  0
 28 24  1  1  0  0  0
 29 26  1  0  0  0  0
 31 32  1  0  0  0  0
 32 37  1  0  0  0  0
 35 36  1  0  0  0  0
 36 33  1  0  0  0  0
 37 33  1  0  0  0  0
 38 34  1  0  0  0  0
 38 35  1  0  0  0  0
 39 34  1  0  0  0  0
 39 37  2  0  0  0  0
M  END
>  <MODEL>
9

>  <REMARK>
 VINA RESULT:      -7.3      2.587      7.113
  Name = 
  7 active torsions:
  status: ('A' for Active; 'I' for Inactive)
    1  A    between atoms: C_11  and  C_23
    2  A    between atoms: C_11  and  C_35
    3  A    between atoms: C_12  and  C_28
    4  A    between atoms: C_12  and  C_30
    5  A    between atoms: C_17  and  C_37
    6  A    between atoms: N_18  and  C_32
    7  A    between atoms: C_22  and  C_35
                            x       y       z     vdW  Elec       q    Type
                         _______ _______ _______ _____ _____    ______ ____

>  <TORSDO>
F 7

$$$$
