=
 OpenBabel11042415183D

 45 49  0  0  1  0  0  0  0  0999 V2000
  191.1940  170.8150  143.7260 O   0  0  0  0  0  0  0  0  0  0  0  0
  193.7760  177.1390  145.1240 O   0  0  0  0  0  1  0  0  0  0  0  0
  191.1890  176.1330  146.1590 C   0  0  0  0  0  2  0  0  0  0  0  0
  194.4910  171.3240  140.7340 C   0  0  0  0  0  0  0  0  0  0  0  0
  191.7590  176.4900  144.0580 N   0  0  1  0  0  0  0  0  0  0  0  0
  190.1670  173.3670  145.5710 C   0  0  0  0  0  0  0  0  0  0  0  0
  193.9080  175.9820  143.0270 C   0  0  0  0  0  3  0  0  0  0  0  0
  192.1730  171.6090  143.7260 C   0  0  0  0  0  0  0  0  0  0  0  0
  195.0720  175.4390  143.4120 C   0  0  0  0  0  3  0  0  0  0  0  0
  192.3960  172.7630  144.6150 C   0  0  0  0  0  0  0  0  0  0  0  0
  193.1440  176.9650  143.8830 C   0  0  2  0  0  3  0  0  0  0  0  0
  193.5260  173.3200  144.3190 N   0  0  0  0  0  0  0  0  0  0  0  0
  193.2850  171.4830  142.8520 N   0  0  0  0  0  0  0  0  0  0  0  0
  194.7960  170.6380  139.4500 C   0  0  0  0  0  1  0  0  0  0  0  0
  191.4480  173.5090  145.3900 N   0  0  0  0  0  0  0  0  0  0  0  0
  195.2480  172.3670  141.1150 C   0  0  0  0  0  3  0  0  0  0  0  0
  193.2680  170.9010  141.5130 C   0  0  0  0  0  2  0  0  0  0  0  0
  189.8010  175.6400  146.4540 C   0  0  0  0  0  0  0  0  0  0  0  0
  191.1860  177.0970  145.1390 O   0  0  0  0  0  0  0  0  0  0  0  0
  194.9870  173.1150  142.3610 C   0  0  0  0  0  0  0  0  0  0  0  0
  189.4540  172.2440  145.0530 N   0  0  0  0  0  1  0  0  0  0  0  0
  189.4120  174.4190  146.1960 N   0  0  0  0  0  0  0  0  0  0  0  0
  194.0710  172.6150  143.2080 C   0  0  0  0  0  0  0  0  0  0  0  0
  195.7770  174.3870  142.5990 C   0  0  0  0  0  2  0  0  0  0  0  0
  190.1870  178.1660  143.0670 C   0  0  0  0  0  2  0  0  0  0  0  0
  190.1770  175.6900  142.3460 C   0  0  0  0  0  0  0  0  0  0  0  0
  188.0800  177.1330  142.3760 C   0  0  1  0  0  3  0  0  0  0  0  0
  190.9900  176.8630  142.8590 C   0  0  2  0  0  3  0  0  0  0  0  0
  188.7180  175.8060  141.9740 C   0  0  0  0  0  2  0  0  0  0  0  0
  189.0300  178.2820  142.0950 C   0  0  0  0  0  2  0  0  0  0  0  0
  190.8230  174.5990  141.9460 C   0  0  0  0  0  2  0  0  0  0  0  0
  186.5230  177.3620  141.4630 S   0  0  0  0  0  0  0  0  0  0  0  0
  187.1240  176.4830  139.9830 C   0  0  0  0  0  2  0  0  0  0  0  0
  186.7080  176.1770  137.6580 O   0  0  0  0  0  1  0  0  0  0  0  0
  186.3720  176.9660  138.7590 C   0  0  0  0  0  2  0  0  0  0  0  0
  188.8380  176.5840  147.0970 C   0  0  0  0  0  2  0  0  0  0  0  0
  186.3010  179.4590  144.1110 F   0  0  0  0  0  0  0  0  0  0  0  0
  185.8990  179.5500  146.3220 F   0  0  0  0  0  0  0  0  0  0  0  0
  185.1490  177.6310  145.1160 C   0  0  1  0  0  3  0  0  0  0  0  0
  187.6060  178.0850  145.5400 C   0  0  0  0  0  2  0  0  0  0  0  0
  183.9180  178.2020  144.8460 F   0  0  0  0  0  0  0  0  0  0  0  0
  186.3220  176.6590  147.1790 C   0  0  0  0  0  2  0  0  0  0  0  0
  186.2280  178.7100  145.2710 C   0  0  0  0  0  0  0  0  0  0  0  0
  187.5580  176.7420  146.2840 C   0  0  2  0  0  3  0  0  0  0  0  0
  185.0380  176.7200  146.3470 C   0  0  0  0  0  2  0  0  0  0  0  0
  1  8  2  0  0  0  0
  3 18  1  0  0  0  0
  4 16  2  0  0  0  0
  4 17  1  0  0  0  0
  5 19  1  1  0  0  0
  6 22  1  0  0  0  0
  7  9  2  0  0  0  0
  7 11  1  0  0  0  0
  8 10  1  0  0  0  0
 10 15  1  0  0  0  0
 11  5  1  0  0  0  0
 11  2  1  1  0  0  0
 12 10  2  0  0  0  0
 13 23  1  0  0  0  0
 13  8  1  0  0  0  0
 14  4  1  0  0  0  0
 15  6  2  0  0  0  0
 16 20  1  0  0  0  0
 17 13  1  0  0  0  0
 18 36  1  0  0  0  0
 19  3  1  0  0  0  0
 20 24  1  0  0  0  0
 20 23  2  0  0  0  0
 21  6  1  0  0  0  0
 22 18  2  0  0  0  0
 23 12  1  0  0  0  0
 24  9  1  0  0  0  0
 26 28  1  0  0  0  0
 27 32  1  6  0  0  0
 28 25  1  1  0  0  0
 28  5  1  0  0  0  0
 29 26  1  0  0  0  0
 29 27  1  0  0  0  0
 30 27  1  0  0  0  0
 30 25  1  0  0  0  0
 31 26  2  0  0  0  0
 33 32  1  0  0  0  0
 34 35  1  0  0  0  0
 35 33  1  0  0  0  0
 37 43  1  0  0  0  0
 39 41  1  1  0  0  0
 39 43  1  0  0  0  0
 39 45  1  0  0  0  0
 40 44  1  0  0  0  0
 43 40  1  0  0  0  0
 43 38  1  0  0  0  0
 44 36  1  1  0  0  0
 44 42  1  0  0  0  0
 45 42  1  0  0  0  0
M  END
>  <MODEL>
1

>  <REMARK>
 VINA RESULT:      -8.2      0.000      0.000
  Name = 
  6 active torsions:
  status: ('A' for Active; 'I' for Inactive)
    1  A    between atoms: C_1  and  C_34
    2  A    between atoms: C_1  and  C_36
    3  A    between atoms: N_8  and  C_16
    4  A    between atoms: C_14  and  S_23
    5  A    between atoms: S_23  and  C_39
    6  A    between atoms: C_39  and  C_40
                            x       y       z     vdW  Elec       q    Type
                         _______ _______ _______ _____ _____    ______ ____

>  <TORSDO>
F 6

$$$$
=
 OpenBabel11042415183D

 45 49  0  0  1  0  0  0  0  0999 V2000
  194.9130  170.1830  142.5340 O   0  0  0  0  0  0  0  0  0  0  0  0
  196.4290  176.9250  143.4580 O   0  0  0  0  0  1  0  0  0  0  0  0
  194.6470  175.3640  145.2360 C   0  0  0  0  0  2  0  0  0  0  0  0
  196.7560  171.4220  138.6420 C   0  0  0  0  0  0  0  0  0  0  0  0
  194.3510  175.8400  143.1030 N   0  0  1  0  0  0  0  0  0  0  0  0
  194.0900  172.4390  144.8170 C   0  0  0  0  0  0  0  0  0  0  0  0
  196.0530  175.8290  141.3590 C   0  0  0  0  0  3  0  0  0  0  0  0
  195.6370  171.1770  142.2610 C   0  0  0  0  0  0  0  0  0  0  0  0
  197.3640  175.5610  141.2760 C   0  0  0  0  0  3  0  0  0  0  0  0
  195.9120  172.3520  143.1080 C   0  0  0  0  0  0  0  0  0  0  0  0
  195.4510  176.6140  142.5010 C   0  0  2  0  0  3  0  0  0  0  0  0
  196.7210  173.1490  142.4870 N   0  0  0  0  0  0  0  0  0  0  0  0
  196.3690  171.3050  141.0510 N   0  0  0  0  0  0  0  0  0  0  0  0
  196.7250  170.8230  137.2820 C   0  0  0  0  0  1  0  0  0  0  0  0
  195.1640  172.8650  144.2180 N   0  0  0  0  0  0  0  0  0  0  0  0
  197.3600  172.6080  138.8220 C   0  0  0  0  0  3  0  0  0  0  0  0
  196.0040  170.7340  139.7570 C   0  0  0  0  0  2  0  0  0  0  0  0
  193.5890  174.5710  145.9500 C   0  0  0  0  0  0  0  0  0  0  0  0
  194.0810  176.3020  144.3600 O   0  0  0  0  0  0  0  0  0  0  0  0
  197.4050  173.2780  140.1370 C   0  0  0  0  0  0  0  0  0  0  0  0
  193.4930  171.1840  144.4880 N   0  0  0  0  0  1  0  0  0  0  0  0
  193.4010  173.2930  145.7450 N   0  0  0  0  0  0  0  0  0  0  0  0
  196.9740  172.5850  141.2050 C   0  0  0  0  0  0  0  0  0  0  0  0
  197.9410  174.6950  140.1890 C   0  0  0  0  0  2  0  0  0  0  0  0
  192.1660  177.0450  142.9020 C   0  0  0  0  0  2  0  0  0  0  0  0
  192.5290  174.6980  141.8970 C   0  0  0  0  0  0  0  0  0  0  0  0
  190.2810  175.4890  142.7900 C   0  0  1  0  0  3  0  0  0  0  0  0
  193.1480  176.0310  142.2740 C   0  0  2  0  0  3  0  0  0  0  0  0
  191.0520  174.4140  142.0310 C   0  0  0  0  0  2  0  0  0  0  0  0
  190.7550  176.8710  142.3770 C   0  0  0  0  0  2  0  0  0  0  0  0
  193.2500  173.8500  141.1670 C   0  0  0  0  0  2  0  0  0  0  0  0
  188.5010  175.3080  142.4630 S   0  0  0  0  0  0  0  0  0  0  0  0
  188.2900  177.0550  141.9850 C   0  0  0  0  0  2  0  0  0  0  0  0
  186.1710  177.9270  141.3370 O   0  0  0  0  0  1  0  0  0  0  0  0
  187.2500  177.1650  140.8880 C   0  0  0  0  0  2  0  0  0  0  0  0
  192.7390  175.2730  146.9580 C   0  0  0  0  0  2  0  0  0  0  0  0
  189.1470  178.0100  145.1630 F   0  0  0  0  0  0  0  0  0  0  0  0
  189.3770  177.8310  147.3930 F   0  0  0  0  0  0  0  0  0  0  0  0
  188.5460  175.9450  146.1880 C   0  0  1  0  0  3  0  0  0  0  0  0
  190.9530  176.7150  145.9980 C   0  0  0  0  0  2  0  0  0  0  0  0
  187.2320  176.3500  146.3340 F   0  0  0  0  0  0  0  0  0  0  0  0
  190.3580  174.9670  147.7160 C   0  0  0  0  0  2  0  0  0  0  0  0
  189.4910  177.1520  146.1900 C   0  0  0  0  0  0  0  0  0  0  0  0
  191.2730  175.3160  146.5430 C   0  0  2  0  0  3  0  0  0  0  0  0
  188.8930  174.9150  147.2730 C   0  0  0  0  0  2  0  0  0  0  0  0
  3 18  1  0  0  0  0
  4 16  2  0  0  0  0
  4 17  1  0  0  0  0
  5 19  1  1  0  0  0
  6 22  1  0  0  0  0
  7 11  1  0  0  0  0
  8  1  2  0  0  0  0
  8 10  1  0  0  0  0
  9  7  2  0  0  0  0
 10 15  1  0  0  0  0
 11  5  1  0  0  0  0
 11  2  1  1  0  0  0
 12 10  2  0  0  0  0
 13 23  1  0  0  0  0
 13  8  1  0  0  0  0
 14  4  1  0  0  0  0
 15  6  2  0  0  0  0
 16 20  1  0  0  0  0
 17 13  1  0  0  0  0
 18 36  1  0  0  0  0
 19  3  1  0  0  0  0
 20 24  1  0  0  0  0
 20 23  2  0  0  0  0
 21  6  1  0  0  0  0
 22 18  2  0  0  0  0
 23 12  1  0  0  0  0
 24  9  1  0  0  0  0
 26 29  1  0  0  0  0
 26 28  1  0  0  0  0
 27 32  1  6  0  0  0
 28 25  1  1  0  0  0
 28  5  1  0  0  0  0
 29 27  1  0  0  0  0
 30 27  1  0  0  0  0
 30 25  1  0  0  0  0
 31 26  2  0  0  0  0
 33 32  1  0  0  0  0
 35 34  1  0  0  0  0
 35 33  1  0  0  0  0
 37 43  1  0  0  0  0
 39 43  1  0  0  0  0
 39 41  1  1  0  0  0
 39 45  1  0  0  0  0
 40 43  1  0  0  0  0
 40 44  1  0  0  0  0
 43 38  1  0  0  0  0
 44 36  1  1  0  0  0
 44 42  1  0  0  0  0
 45 42  1  0  0  0  0
M  END
>  <MODEL>
2

>  <REMARK>
 VINA RESULT:      -7.5      2.399      3.439
  Name = 
  6 active torsions:
  status: ('A' for Active; 'I' for Inactive)
    1  A    between atoms: C_1  and  C_34
    2  A    between atoms: C_1  and  C_36
    3  A    between atoms: N_8  and  C_16
    4  A    between atoms: C_14  and  S_23
    5  A    between atoms: S_23  and  C_39
    6  A    between atoms: C_39  and  C_40
                            x       y       z     vdW  Elec       q    Type
                         _______ _______ _______ _____ _____    ______ ____

>  <TORSDO>
F 6

$$$$
=
 OpenBabel11042415183D

 45 49  0  0  1  0  0  0  0  0999 V2000
  190.3880  171.4210  140.9230 O   0  0  0  0  0  0  0  0  0  0  0  0
  192.6430  174.4220  146.7980 O   0  0  0  0  0  1  0  0  0  0  0  0
  190.3680  175.4240  145.1870 C   0  0  0  0  0  2  0  0  0  0  0  0
  194.3920  169.5400  141.6320 C   0  0  0  0  0  0  0  0  0  0  0  0
  192.4850  175.2690  144.5880 N   0  0  1  0  0  0  0  0  0  0  0  0
  189.4040  174.0400  142.6980 C   0  0  0  0  0  0  0  0  0  0  0  0
  194.0090  173.4350  145.0920 C   0  0  0  0  0  3  0  0  0  0  0  0
  191.0780  171.3570  141.9760 C   0  0  0  0  0  0  0  0  0  0  0  0
  193.9450  172.2610  145.7350 C   0  0  0  0  0  3  0  0  0  0  0  0
  190.8620  172.0820  143.2400 C   0  0  0  0  0  0  0  0  0  0  0  0
  193.3620  174.6930  145.6240 C   0  0  2  0  0  3  0  0  0  0  0  0
  191.7690  171.7350  144.0950 N   0  0  0  0  0  0  0  0  0  0  0  0
  192.2030  170.5040  142.1250 N   0  0  0  0  0  0  0  0  0  0  0  0
  195.3260  168.8020  140.7400 C   0  0  0  0  0  1  0  0  0  0  0  0
  190.1190  173.2850  143.4810 N   0  0  0  0  0  0  0  0  0  0  0  0
  194.7700  169.8160  142.8910 C   0  0  0  0  0  3  0  0  0  0  0  0
  193.0950  170.0570  141.0580 C   0  0  0  0  0  2  0  0  0  0  0  0
  189.3820  175.9910  144.2050 C   0  0  0  0  0  0  0  0  0  0  0  0
  191.5840  176.1230  145.1560 O   0  0  0  0  0  0  0  0  0  0  0  0
  193.9090  170.5700  143.8240 C   0  0  0  0  0  0  0  0  0  0  0  0
  189.1280  173.6720  141.3460 N   0  0  0  0  0  1  0  0  0  0  0  0
  188.9800  175.3370  143.1470 N   0  0  0  0  0  0  0  0  0  0  0  0
  192.6470  170.8270  143.4380 C   0  0  0  0  0  0  0  0  0  0  0  0
  194.5070  170.9920  145.1520 C   0  0  0  0  0  2  0  0  0  0  0  0
  193.4750  175.3240  142.2910 C   0  0  0  0  0  2  0  0  0  0  0  0
  194.6280  176.4520  144.3030 C   0  0  0  0  0  0  0  0  0  0  0  0
  195.9190  175.4320  142.3600 C   0  0  1  0  0  3  0  0  0  0  0  0
  193.3230  176.0380  143.6520 C   0  0  2  0  0  3  0  0  0  0  0  0
  195.9700  176.2720  143.6330 C   0  0  0  0  0  2  0  0  0  0  0  0
  194.7000  175.7990  141.5340 C   0  0  0  0  0  2  0  0  0  0  0  0
  194.5800  177.2490  145.3670 C   0  0  0  0  0  2  0  0  0  0  0  0
  197.4380  175.6950  141.3960 S   0  0  0  0  0  0  0  0  0  0  0  0
  196.5930  175.5110  139.7910 C   0  0  0  0  0  2  0  0  0  0  0  0
  197.8960  173.9300  138.5770 O   0  0  0  0  0  1  0  0  0  0  0  0
  197.6160  175.2920  138.6940 C   0  0  0  0  0  2  0  0  0  0  0  0
  188.8190  177.3480  144.4740 C   0  0  0  0  0  2  0  0  0  0  0  0
  184.6180  179.7880  144.5680 F   0  0  0  0  0  0  0  0  0  0  0  0
  185.9160  179.7730  146.4040 F   0  0  0  0  0  0  0  0  0  0  0  0
  184.7440  177.7730  145.8330 C   0  0  1  0  0  3  0  0  0  0  0  0
  186.6900  178.6380  144.4590 C   0  0  0  0  0  2  0  0  0  0  0  0
  183.6410  178.1260  146.5880 F   0  0  0  0  0  0  0  0  0  0  0  0
  187.1370  176.9860  146.3120 C   0  0  0  0  0  2  0  0  0  0  0  0
  185.4800  179.0200  145.3260 C   0  0  0  0  0  0  0  0  0  0  0  0
  187.3370  177.2950  144.8300 C   0  0  2  0  0  3  0  0  0  0  0  0
  185.6500  176.8360  146.6460 C   0  0  0  0  0  2  0  0  0  0  0  0
  1  8  2  0  0  0  0
  4 16  2  0  0  0  0
  5 19  1  1  0  0  0
  5 11  1  0  0  0  0
  6 22  1  0  0  0  0
  6 15  2  0  0  0  0
  7 11  1  0  0  0  0
  7  9  2  0  0  0  0
  8 13  1  0  0  0  0
  8 10  1  0  0  0  0
 10 15  1  0  0  0  0
 10 12  2  0  0  0  0
 11  2  1  1  0  0  0
 13 23  1  0  0  0  0
 14  4  1  0  0  0  0
 16 20  1  0  0  0  0
 17  4  1  0  0  0  0
 17 13  1  0  0  0  0
 18 36  1  0  0  0  0
 18  3  1  0  0  0  0
 19  3  1  0  0  0  0
 20 24  1  0  0  0  0
 21  6  1  0  0  0  0
 22 18  2  0  0  0  0
 23 20  2  0  0  0  0
 23 12  1  0  0  0  0
 24  9  1  0  0  0  0
 26 31  2  0  0  0  0
 27 32  1  6  0  0  0
 27 29  1  0  0  0  0
 28 25  1  6  0  0  0
 28 26  1  0  0  0  0
 28  5  1  0  0  0  0
 29 26  1  0  0  0  0
 30 25  1  0  0  0  0
 30 27  1  0  0  0  0
 33 32  1  0  0  0  0
 34 35  1  0  0  0  0
 35 33  1  0  0  0  0
 37 43  1  0  0  0  0
 39 41  1  1  0  0  0
 39 45  1  0  0  0  0
 40 44  1  0  0  0  0
 40 43  1  0  0  0  0
 42 45  1  0  0  0  0
 43 39  1  0  0  0  0
 43 38  1  0  0  0  0
 44 36  1  1  0  0  0
 44 42  1  0  0  0  0
M  END
>  <MODEL>
3

>  <REMARK>
 VINA RESULT:      -7.2      2.842      4.514
  Name = 
  6 active torsions:
  status: ('A' for Active; 'I' for Inactive)
    1  A    between atoms: C_1  and  C_34
    2  A    between atoms: C_1  and  C_36
    3  A    between atoms: N_8  and  C_16
    4  A    between atoms: C_14  and  S_23
    5  A    between atoms: S_23  and  C_39
    6  A    between atoms: C_39  and  C_40
                            x       y       z     vdW  Elec       q    Type
                         _______ _______ _______ _____ _____    ______ ____

>  <TORSDO>
F 6

$$$$
=
 OpenBabel11042415183D

 45 49  0  0  1  0  0  0  0  0999 V2000
  188.9580  174.1500  138.7100 O   0  0  0  0  0  0  0  0  0  0  0  0
  191.8640  172.4970  144.8290 O   0  0  0  0  0  1  0  0  0  0  0  0
  189.6420  174.4300  144.5120 C   0  0  0  0  0  2  0  0  0  0  0  0
  192.7430  172.0350  137.5760 C   0  0  0  0  0  0  0  0  0  0  0  0
  191.6910  174.5800  143.7090 N   0  0  1  0  0  0  0  0  0  0  0  0
  188.3890  175.0460  141.8490 C   0  0  0  0  0  0  0  0  0  0  0  0
  193.0110  172.7750  142.7410 C   0  0  0  0  0  3  0  0  0  0  0  0
  189.6910  173.3810  139.3890 C   0  0  0  0  0  0  0  0  0  0  0  0
  192.8410  171.4700  142.4860 C   0  0  0  0  0  3  0  0  0  0  0  0
  189.6300  173.1250  140.8380 C   0  0  0  0  0  0  0  0  0  0  0  0
  192.5470  173.4230  144.0250 C   0  0  2  0  0  3  0  0  0  0  0  0
  190.5340  172.2560  141.1600 N   0  0  0  0  0  0  0  0  0  0  0  0
  190.7130  172.5720  138.8250 N   0  0  0  0  0  0  0  0  0  0  0  0
  193.5330  171.9990  136.3170 C   0  0  0  0  0  1  0  0  0  0  0  0
  189.0500  173.9250  141.8780 N   0  0  0  0  0  0  0  0  0  0  0  0
  193.2170  171.4080  138.6660 C   0  0  0  0  0  3  0  0  0  0  0  0
  191.4870  172.8730  137.6230 C   0  0  0  0  0  2  0  0  0  0  0  0
  188.6800  175.5530  144.2440 C   0  0  0  0  0  0  0  0  0  0  0  0
  190.9290  174.9130  144.7930 O   0  0  0  0  0  0  0  0  0  0  0  0
  192.5020  171.4250  139.9580 C   0  0  0  0  0  0  0  0  0  0  0  0
  188.0000  175.6580  140.6190 N   0  0  0  0  0  1  0  0  0  0  0  0
  188.1470  175.7650  143.0690 N   0  0  0  0  0  0  0  0  0  0  0  0
  191.2610  171.9410  139.9770 C   0  0  0  0  0  0  0  0  0  0  0  0
  193.2160  170.8520  141.1660 C   0  0  0  0  0  2  0  0  0  0  0  0
  193.2790  175.5470  142.0340 C   0  0  0  0  0  2  0  0  0  0  0  0
  193.4790  176.0520  144.5540 C   0  0  0  0  0  0  0  0  0  0  0  0
  195.4920  175.9330  143.0020 C   0  0  1  0  0  3  0  0  0  0  0  0
  192.5630  175.7240  143.3910 C   0  0  2  0  0  3  0  0  0  0  0  0
  194.9620  176.2840  144.3890 C   0  0  0  0  0  2  0  0  0  0  0  0
  194.5250  176.4040  141.9320 C   0  0  0  0  0  2  0  0  0  0  0  0
  192.9290  176.4220  145.7080 C   0  0  0  0  0  2  0  0  0  0  0  0
  197.1240  176.7020  142.7610 S   0  0  0  0  0  0  0  0  0  0  0  0
  197.8850  175.1700  142.1310 C   0  0  0  0  0  2  0  0  0  0  0  0
  196.9150  174.3860  140.1020 O   0  0  0  0  0  1  0  0  0  0  0  0
  197.9240  175.2020  140.6170 C   0  0  0  0  0  2  0  0  0  0  0  0
  188.2980  176.4420  145.3820 C   0  0  0  0  0  2  0  0  0  0  0  0
  185.3270  180.1350  144.3090 F   0  0  0  0  0  0  0  0  0  0  0  0
  185.9600  179.8250  146.4450 F   0  0  0  0  0  0  0  0  0  0  0  0
  184.3980  178.2890  145.4950 C   0  0  1  0  0  3  0  0  0  0  0  0
  186.8290  178.3590  144.7810 C   0  0  0  0  0  2  0  0  0  0  0  0
  183.3120  179.0410  145.9040 F   0  0  0  0  0  0  0  0  0  0  0  0
  186.1410  176.7910  146.6340 C   0  0  0  0  0  2  0  0  0  0  0  0
  185.6240  179.1820  145.2650 C   0  0  0  0  0  0  0  0  0  0  0  0
  186.8490  176.9090  145.2850 C   0  0  2  0  0  3  0  0  0  0  0  0
  184.6610  177.1670  146.5110 C   0  0  0  0  0  2  0  0  0  0  0  0
  1  8  2  0  0  0  0
  3 19  1  0  0  0  0
  4 17  1  0  0  0  0
  4 16  2  0  0  0  0
  5 11  1  0  0  0  0
  5 19  1  1  0  0  0
  6 15  2  0  0  0  0
  6 22  1  0  0  0  0
  7 11  1  0  0  0  0
  8 10  1  0  0  0  0
  9  7  2  0  0  0  0
 10 12  2  0  0  0  0
 10 15  1  0  0  0  0
 11  2  1  1  0  0  0
 13  8  1  0  0  0  0
 13 23  1  0  0  0  0
 14  4  1  0  0  0  0
 16 20  1  0  0  0  0
 17 13  1  0  0  0  0
 18  3  1  0  0  0  0
 18 36  1  0  0  0  0
 20 23  2  0  0  0  0
 20 24  1  0  0  0  0
 21  6  1  0  0  0  0
 22 18  2  0  0  0  0
 23 12  1  0  0  0  0
 24  9  1  0  0  0  0
 26 31  2  0  0  0  0
 27 32  1  6  0  0  0
 27 29  1  0  0  0  0
 28 25  1  6  0  0  0
 28  5  1  0  0  0  0
 28 26  1  0  0  0  0
 29 26  1  0  0  0  0
 30 25  1  0  0  0  0
 30 27  1  0  0  0  0
 33 32  1  0  0  0  0
 34 35  1  0  0  0  0
 35 33  1  0  0  0  0
 37 43  1  0  0  0  0
 39 41  1  1  0  0  0
 39 45  1  0  0  0  0
 40 43  1  0  0  0  0
 40 44  1  0  0  0  0
 43 39  1  0  0  0  0
 43 38  1  0  0  0  0
 44 36  1  1  0  0  0
 44 42  1  0  0  0  0
 45 42  1  0  0  0  0
M  END
>  <MODEL>
4

>  <REMARK>
 VINA RESULT:      -7.2      2.937      5.002
  Name = 
  6 active torsions:
  status: ('A' for Active; 'I' for Inactive)
    1  A    between atoms: C_1  and  C_34
    2  A    between atoms: C_1  and  C_36
    3  A    between atoms: N_8  and  C_16
    4  A    between atoms: C_14  and  S_23
    5  A    between atoms: S_23  and  C_39
    6  A    between atoms: C_39  and  C_40
                            x       y       z     vdW  Elec       q    Type
                         _______ _______ _______ _____ _____    ______ ____

>  <TORSDO>
F 6

$$$$
=
 OpenBabel11042415183D

 45 49  0  0  1  0  0  0  0  0999 V2000
  189.7090  171.9010  138.6110 O   0  0  0  0  0  0  0  0  0  0  0  0
  190.4770  173.7340  145.2940 O   0  0  0  0  0  1  0  0  0  0  0  0
  188.8460  175.2420  143.3340 C   0  0  0  0  0  2  0  0  0  0  0  0
  193.1670  169.4250  140.0230 C   0  0  0  0  0  0  0  0  0  0  0  0
  191.0240  174.8920  143.2980 N   0  0  1  0  0  0  0  0  0  0  0  0
  188.5030  174.3570  140.4810 C   0  0  0  0  0  0  0  0  0  0  0  0
  192.1740  172.8200  143.8680 C   0  0  0  0  0  3  0  0  0  0  0  0
  190.0660  171.6020  139.7820 C   0  0  0  0  0  0  0  0  0  0  0  0
  191.8270  171.5870  144.2620 C   0  0  0  0  0  3  0  0  0  0  0  0
  189.5680  172.1670  141.0490 C   0  0  0  0  0  0  0  0  0  0  0  0
  191.5190  174.0670  144.4150 C   0  0  2  0  0  3  0  0  0  0  0  0
  190.1630  171.5870  142.0410 N   0  0  0  0  0  0  0  0  0  0  0  0
  191.0220  170.5940  140.0760 N   0  0  0  0  0  0  0  0  0  0  0  0
  194.2440  168.7010  139.2980 C   0  0  0  0  0  1  0  0  0  0  0  0
  188.8990  173.4130  141.2850 N   0  0  0  0  0  0  0  0  0  0  0  0
  193.1970  169.4720  141.3650 C   0  0  0  0  0  3  0  0  0  0  0  0
  192.1350  170.1850  139.2230 C   0  0  0  0  0  2  0  0  0  0  0  0
  188.2320  176.0650  142.2370 C   0  0  0  0  0  0  0  0  0  0  0  0
  190.0790  175.7720  143.7440 O   0  0  0  0  0  0  0  0  0  0  0  0
  192.1790  170.1970  142.1520 C   0  0  0  0  0  0  0  0  0  0  0  0
  188.5870  174.2190  139.0620 N   0  0  0  0  0  1  0  0  0  0  0  0
  188.0880  175.6240  141.0150 N   0  0  0  0  0  0  0  0  0  0  0  0
  191.1050  170.6700  141.4950 C   0  0  0  0  0  0  0  0  0  0  0  0
  192.4140  170.3480  143.6410 C   0  0  0  0  0  2  0  0  0  0  0  0
  192.8970  174.9050  141.6390 C   0  0  0  0  0  2  0  0  0  0  0  0
  193.0470  176.1750  143.8780 C   0  0  0  0  0  0  0  0  0  0  0  0
  195.0730  175.1450  142.7310 C   0  0  1  0  0  3  0  0  0  0  0  0
  192.1570  175.6650  142.7610 C   0  0  2  0  0  3  0  0  0  0  0  0
  194.5510  176.0390  143.8520 C   0  0  0  0  0  2  0  0  0  0  0  0
  194.3120  175.4130  141.4450 C   0  0  0  0  0  2  0  0  0  0  0  0
  192.5260  177.0110  144.7710 C   0  0  0  0  0  2  0  0  0  0  0  0
  196.8500  175.4490  142.4880 S   0  0  0  0  0  0  0  0  0  0  0  0
  196.6360  176.0410  140.7770 C   0  0  0  0  0  2  0  0  0  0  0  0
  197.7770  174.1820  139.8210 O   0  0  0  0  0  1  0  0  0  0  0  0
  197.7970  175.5730  139.9230 C   0  0  0  0  0  2  0  0  0  0  0  0
  187.7400  177.4350  142.5740 C   0  0  0  0  0  2  0  0  0  0  0  0
  183.3850  179.0420  144.0120 F   0  0  0  0  0  0  0  0  0  0  0  0
  185.2280  180.1660  144.6400 F   0  0  0  0  0  0  0  0  0  0  0  0
  184.7900  178.0540  145.6630 C   0  0  1  0  0  3  0  0  0  0  0  0
  185.4870  178.2600  143.2360 C   0  0  0  0  0  2  0  0  0  0  0  0
  184.0630  178.6300  146.6890 F   0  0  0  0  0  0  0  0  0  0  0  0
  187.2630  177.9290  144.9960 C   0  0  0  0  0  2  0  0  0  0  0  0
  184.7070  178.9070  144.3910 C   0  0  0  0  0  0  0  0  0  0  0  0
  186.6890  177.4130  143.6780 C   0  0  2  0  0  3  0  0  0  0  0  0
  186.2350  177.8140  146.1250 C   0  0  0  0  0  2  0  0  0  0  0  0
  1  8  2  0  0  0  0
  3 19  1  0  0  0  0
  4 16  2  0  0  0  0
  5 19  1  1  0  0  0
  5 11  1  0  0  0  0
  6 22  1  0  0  0  0
  6 15  2  0  0  0  0
  7  9  2  0  0  0  0
  7 11  1  0  0  0  0
  8 13  1  0  0  0  0
  8 10  1  0  0  0  0
 10 15  1  0  0  0  0
 10 12  2  0  0  0  0
 11  2  1  1  0  0  0
 13 23  1  0  0  0  0
 14  4  1  0  0  0  0
 16 20  1  0  0  0  0
 17  4  1  0  0  0  0
 17 13  1  0  0  0  0
 18 36  1  0  0  0  0
 18  3  1  0  0  0  0
 20 24  1  0  0  0  0
 21  6  1  0  0  0  0
 22 18  2  0  0  0  0
 23 12  1  0  0  0  0
 23 20  2  0  0  0  0
 24  9  1  0  0  0  0
 26 31  2  0  0  0  0
 27 32  1  6  0  0  0
 27 29  1  0  0  0  0
 28 25  1  6  0  0  0
 28  5  1  0  0  0  0
 28 26  1  0  0  0  0
 29 26  1  0  0  0  0
 30 25  1  0  0  0  0
 30 27  1  0  0  0  0
 33 32  1  0  0  0  0
 34 35  1  0  0  0  0
 35 33  1  0  0  0  0
 37 43  1  0  0  0  0
 39 45  1  0  0  0  0
 39 41  1  1  0  0  0
 40 44  1  0  0  0  0
 40 43  1  0  0  0  0
 42 45  1  0  0  0  0
 43 38  1  0  0  0  0
 43 39  1  0  0  0  0
 44 36  1  6  0  0  0
 44 42  1  0  0  0  0
M  END
>  <MODEL>
5

>  <REMARK>
 VINA RESULT:      -7.1      3.080      5.054
  Name = 
  6 active torsions:
  status: ('A' for Active; 'I' for Inactive)
    1  A    between atoms: C_1  and  C_34
    2  A    between atoms: C_1  and  C_36
    3  A    between atoms: N_8  and  C_16
    4  A    between atoms: C_14  and  S_23
    5  A    between atoms: S_23  and  C_39
    6  A    between atoms: C_39  and  C_40
                            x       y       z     vdW  Elec       q    Type
                         _______ _______ _______ _____ _____    ______ ____

>  <TORSDO>
F 6

$$$$
=
 OpenBabel11042415183D

 45 49  0  0  1  0  0  0  0  0999 V2000
  192.6100  169.7350  144.2510 O   0  0  0  0  0  0  0  0  0  0  0  0
  194.8430  176.2890  145.0680 O   0  0  0  0  0  1  0  0  0  0  0  0
  192.2340  175.5590  143.8710 C   0  0  0  0  0  2  0  0  0  0  0  0
  196.9790  169.2870  145.1400 C   0  0  0  0  0  0  0  0  0  0  0  0
  194.2500  175.0870  143.1110 N   0  0  1  0  0  0  0  0  0  0  0  0
  191.3030  172.7110  143.6110 C   0  0  0  0  0  0  0  0  0  0  0  0
  196.1790  174.4010  144.4330 C   0  0  0  0  0  3  0  0  0  0  0  0
  193.4160  170.5460  144.7810 C   0  0  0  0  0  0  0  0  0  0  0  0
  196.4430  174.1670  145.7260 C   0  0  0  0  0  3  0  0  0  0  0  0
  193.1990  171.9750  145.0660 C   0  0  0  0  0  0  0  0  0  0  0  0
  195.3450  175.5730  143.9700 C   0  0  2  0  0  3  0  0  0  0  0  0
  194.2530  172.4650  145.6340 N   0  0  0  0  0  0  0  0  0  0  0  0
  194.7070  170.1790  145.2440 N   0  0  0  0  0  0  0  0  0  0  0  0
  197.9380  168.1720  144.9220 C   0  0  0  0  0  1  0  0  0  0  0  0
  192.2500  172.8820  144.4880 N   0  0  0  0  0  0  0  0  0  0  0  0
  197.4330  170.4590  145.6160 C   0  0  0  0  0  3  0  0  0  0  0  0
  195.5430  169.1060  144.7100 C   0  0  0  0  0  2  0  0  0  0  0  0
  191.0420  175.1040  143.0770 C   0  0  0  0  0  0  0  0  0  0  0  0
  193.2600  176.0240  143.0340 O   0  0  0  0  0  0  0  0  0  0  0  0
  196.5460  171.6190  145.8300 C   0  0  0  0  0  0  0  0  0  0  0  0
  190.9560  171.4150  143.1220 N   0  0  0  0  0  1  0  0  0  0  0  0
  190.6670  173.8530  143.0130 N   0  0  0  0  0  0  0  0  0  0  0  0
  195.2220  171.4240  145.7030 C   0  0  0  0  0  0  0  0  0  0  0  0
  197.1910  172.9440  146.1860 C   0  0  0  0  0  2  0  0  0  0  0  0
  194.4500  176.0440  140.8070 C   0  0  0  0  0  2  0  0  0  0  0  0
  194.4150  173.5010  141.2320 C   0  0  0  0  0  0  0  0  0  0  0  0
  193.4650  174.5660  139.1250 C   0  0  1  0  0  3  0  0  0  0  0  0
  194.7880  174.8740  141.7570 C   0  0  2  0  0  3  0  0  0  0  0  0
  193.8460  173.2790  139.8510 C   0  0  0  0  0  2  0  0  0  0  0  0
  194.5210  175.6320  139.3500 C   0  0  0  0  0  2  0  0  0  0  0  0
  194.8550  172.4310  141.8890 C   0  0  0  0  0  2  0  0  0  0  0  0
  193.2760  174.2290  137.3470 S   0  0  0  0  0  0  0  0  0  0  0  0
  191.7530  173.2530  137.5720 C   0  0  0  0  0  2  0  0  0  0  0  0
  189.6320  174.2480  137.1440 O   0  0  0  0  0  1  0  0  0  0  0  0
  190.7310  173.6480  136.5260 C   0  0  0  0  0  2  0  0  0  0  0  0
  190.2370  176.1370  142.3570 C   0  0  0  0  0  2  0  0  0  0  0  0
  185.6770  177.2020  141.0580 F   0  0  0  0  0  0  0  0  0  0  0  0
  186.8510  178.6990  142.2560 F   0  0  0  0  0  0  0  0  0  0  0  0
  186.0790  176.7270  143.3580 C   0  0  1  0  0  3  0  0  0  0  0  0
  187.9210  176.6690  141.6170 C   0  0  0  0  0  2  0  0  0  0  0  0
  184.8910  177.3240  143.7340 F   0  0  0  0  0  0  0  0  0  0  0  0
  188.5420  176.9120  144.0510 C   0  0  0  0  0  2  0  0  0  0  0  0
  186.6150  177.3480  142.0620 C   0  0  0  0  0  0  0  0  0  0  0  0
  188.7690  176.1100  142.7690 C   0  0  2  0  0  3  0  0  0  0  0  0
  187.0860  176.8020  144.5150 C   0  0  0  0  0  2  0  0  0  0  0  0
  1  8  2  0  0  0  0
  4 16  2  0  0  0  0
  5 19  1  6  0  0  0
  5 11  1  0  0  0  0
  6 15  2  0  0  0  0
  7  9  2  0  0  0  0
  8 10  1  0  0  0  0
  8 13  1  0  0  0  0
  9 24  1  0  0  0  0
 10 12  2  0  0  0  0
 11  7  1  0  0  0  0
 11  2  1  1  0  0  0
 12 23  1  0  0  0  0
 13 23  1  0  0  0  0
 14  4  1  0  0  0  0
 15 10  1  0  0  0  0
 16 20  1  0  0  0  0
 17  4  1  0  0  0  0
 17 13  1  0  0  0  0
 18  3  1  0  0  0  0
 19  3  1  0  0  0  0
 20 24  1  0  0  0  0
 21  6  1  0  0  0  0
 22 18  2  0  0  0  0
 22  6  1  0  0  0  0
 23 20  2  0  0  0  0
 26 28  1  0  0  0  0
 26 31  2  0  0  0  0
 27 32  1  6  0  0  0
 27 30  1  0  0  0  0
 27 29  1  0  0  0  0
 28 25  1  6  0  0  0
 28  5  1  0  0  0  0
 29 26  1  0  0  0  0
 30 25  1  0  0  0  0
 32 33  1  0  0  0  0
 35 34  1  0  0  0  0
 35 33  1  0  0  0  0
 36 18  1  0  0  0  0
 37 43  1  0  0  0  0
 39 41  1  1  0  0  0
 39 45  1  0  0  0  0
 40 43  1  0  0  0  0
 40 44  1  0  0  0  0
 42 45  1  0  0  0  0
 43 38  1  0  0  0  0
 43 39  1  0  0  0  0
 44 36  1  6  0  0  0
 44 42  1  0  0  0  0
M  END
>  <MODEL>
6

>  <REMARK>
 VINA RESULT:      -6.8      3.045      4.186
  Name = 
  6 active torsions:
  status: ('A' for Active; 'I' for Inactive)
    1  A    between atoms: C_1  and  C_34
    2  A    between atoms: C_1  and  C_36
    3  A    between atoms: N_8  and  C_16
    4  A    between atoms: C_14  and  S_23
    5  A    between atoms: S_23  and  C_39
    6  A    between atoms: C_39  and  C_40
                            x       y       z     vdW  Elec       q    Type
                         _______ _______ _______ _____ _____    ______ ____

>  <TORSDO>
F 6

$$$$
=
 OpenBabel11042415183D

 45 49  0  0  1  0  0  0  0  0999 V2000
  196.6070  174.3490  144.1410 O   0  0  0  0  0  0  0  0  0  0  0  0
  190.1040  172.2670  142.7300 O   0  0  0  0  0  1  0  0  0  0  0  0
  191.0460  175.0640  142.4760 C   0  0  0  0  0  2  0  0  0  0  0  0
  196.3640  170.2550  145.9470 C   0  0  0  0  0  0  0  0  0  0  0  0
  190.9190  173.8410  144.3060 N   0  0  1  0  0  0  0  0  0  0  0  0
  193.8850  175.8810  143.0360 C   0  0  0  0  0  0  0  0  0  0  0  0
  191.4900  171.4820  144.5230 C   0  0  0  0  0  3  0  0  0  0  0  0
  195.7940  173.4120  143.9180 C   0  0  0  0  0  0  0  0  0  0  0  0
  191.9570  170.5130  143.7230 C   0  0  0  0  0  3  0  0  0  0  0  0
  194.5410  173.4710  143.1450 C   0  0  0  0  0  0  0  0  0  0  0  0
  190.4340  172.4680  144.0800 C   0  0  2  0  0  3  0  0  0  0  0  0
  193.9950  172.2990  143.1230 N   0  0  0  0  0  0  0  0  0  0  0  0
  195.9930  172.0790  144.3660 N   0  0  0  0  0  0  0  0  0  0  0  0
  197.1850  169.5620  146.9750 C   0  0  0  0  0  1  0  0  0  0  0  0
  193.7340  174.6080  142.8100 N   0  0  0  0  0  0  0  0  0  0  0  0
  195.2670  169.6480  145.4660 C   0  0  0  0  0  3  0  0  0  0  0  0
  196.7250  171.6700  145.5610 C   0  0  0  0  0  2  0  0  0  0  0  0
  191.5360  176.4800  142.5890 C   0  0  0  0  0  0  0  0  0  0  0  0
  190.2070  174.7240  143.5470 O   0  0  0  0  0  0  0  0  0  0  0  0
  194.3870  170.2860  144.4670 C   0  0  0  0  0  0  0  0  0  0  0  0
  195.0780  176.4040  143.6230 N   0  0  0  0  0  1  0  0  0  0  0  0
  192.7880  176.7820  142.8150 N   0  0  0  0  0  0  0  0  0  0  0  0
  194.8090  171.4340  143.9090 C   0  0  0  0  0  0  0  0  0  0  0  0
  193.0780  169.5970  144.1370 C   0  0  0  0  0  2  0  0  0  0  0  0
  189.2780  174.7050  145.9870 C   0  0  0  0  0  2  0  0  0  0  0  0
  191.8180  175.0620  146.2500 C   0  0  0  0  0  0  0  0  0  0  0  0
  190.0900  176.7340  147.0850 C   0  0  1  0  0  3  0  0  0  0  0  0
  190.7050  174.1760  145.7250 C   0  0  2  0  0  3  0  0  0  0  0  0
  191.5570  176.3150  147.0510 C   0  0  0  0  0  2  0  0  0  0  0  0
  189.1980  175.5200  147.2620 C   0  0  0  0  0  2  0  0  0  0  0  0
  193.0590  174.5850  146.2520 C   0  0  0  0  0  2  0  0  0  0  0  0
  189.8260  177.9150  148.4430 S   0  0  0  0  0  0  0  0  0  0  0  0
  191.4920  177.6710  149.1400 C   0  0  0  0  0  2  0  0  0  0  0  0
  191.6940  177.2810  151.4800 O   0  0  0  0  0  1  0  0  0  0  0  0
  191.5670  178.2870  150.5220 C   0  0  0  0  0  2  0  0  0  0  0  0
  190.5480  177.5860  142.4050 C   0  0  0  0  0  2  0  0  0  0  0  0
  185.8860  177.3430  141.0560 F   0  0  0  0  0  0  0  0  0  0  0  0
  186.5950  179.1270  142.2260 F   0  0  0  0  0  0  0  0  0  0  0  0
  186.3760  177.0420  143.3680 C   0  0  1  0  0  3  0  0  0  0  0  0
  188.1830  177.4530  141.6400 C   0  0  0  0  0  2  0  0  0  0  0  0
  185.0650  177.3010  143.7240 F   0  0  0  0  0  0  0  0  0  0  0  0
  188.6860  177.9050  144.0710 C   0  0  0  0  0  2  0  0  0  0  0  0
  186.7370  177.7590  142.0620 C   0  0  0  0  0  0  0  0  0  0  0  0
  189.1380  177.1700  142.8100 C   0  0  2  0  0  3  0  0  0  0  0  0
  187.3100  177.4130  144.5290 C   0  0  0  0  0  2  0  0  0  0  0  0
  3 18  1  0  0  0  0
  3 19  1  0  0  0  0
  4 14  1  0  0  0  0
  5 19  1  6  0  0  0
  5 28  1  0  0  0  0
  6 21  1  0  0  0  0
  8  1  2  0  0  0  0
  8 13  1  0  0  0  0
  9 24  1  0  0  0  0
  9  7  2  0  0  0  0
 10  8  1  0  0  0  0
 11  2  1  6  0  0  0
 11  5  1  0  0  0  0
 11  7  1  0  0  0  0
 12 10  2  0  0  0  0
 12 23  1  0  0  0  0
 13 17  1  0  0  0  0
 15  6  2  0  0  0  0
 15 10  1  0  0  0  0
 16  4  2  0  0  0  0
 17  4  1  0  0  0  0
 18 22  2  0  0  0  0
 20 16  1  0  0  0  0
 22  6  1  0  0  0  0
 23 13  1  0  0  0  0
 23 20  2  0  0  0  0
 24 20  1  0  0  0  0
 25 30  1  0  0  0  0
 26 31  2  0  0  0  0
 26 29  1  0  0  0  0
 27 30  1  0  0  0  0
 27 32  1  1  0  0  0
 28 25  1  6  0  0  0
 28 26  1  0  0  0  0
 29 27  1  0  0  0  0
 32 33  1  0  0  0  0
 33 35  1  0  0  0  0
 35 34  1  0  0  0  0
 36 18  1  0  0  0  0
 37 43  1  0  0  0  0
 39 41  1  1  0  0  0
 39 45  1  0  0  0  0
 40 43  1  0  0  0  0
 40 44  1  0  0  0  0
 42 45  1  0  0  0  0
 43 38  1  0  0  0  0
 43 39  1  0  0  0  0
 44 36  1  6  0  0  0
 44 42  1  0  0  0  0
M  END
>  <MODEL>
7

>  <REMARK>
 VINA RESULT:      -6.7      2.772      5.646
  Name = 
  6 active torsions:
  status: ('A' for Active; 'I' for Inactive)
    1  A    between atoms: C_1  and  C_34
    2  A    between atoms: C_1  and  C_36
    3  A    between atoms: N_8  and  C_16
    4  A    between atoms: C_14  and  S_23
    5  A    between atoms: S_23  and  C_39
    6  A    between atoms: C_39  and  C_40
                            x       y       z     vdW  Elec       q    Type
                         _______ _______ _______ _____ _____    ______ ____

>  <TORSDO>
F 6

$$$$
=
 OpenBabel11042415183D

 45 49  0  0  1  0  0  0  0  0999 V2000
  197.5700  175.7020  140.9310 O   0  0  0  0  0  0  0  0  0  0  0  0
  190.8070  174.0050  141.0070 O   0  0  0  0  0  1  0  0  0  0  0  0
  192.3140  174.9380  143.3810 C   0  0  0  0  0  2  0  0  0  0  0  0
  196.9550  173.5250  137.0630 C   0  0  0  0  0  0  0  0  0  0  0  0
  192.6440  173.1020  142.2040 N   0  0  1  0  0  0  0  0  0  0  0  0
  195.2150  175.7180  143.2620 C   0  0  0  0  0  0  0  0  0  0  0  0
  192.5380  172.8890  139.7790 C   0  0  0  0  0  3  0  0  0  0  0  0
  196.5070  175.4580  140.2980 C   0  0  0  0  0  0  0  0  0  0  0  0
  192.3070  173.7000  138.7370 C   0  0  0  0  0  3  0  0  0  0  0  0
  195.1200  175.6320  140.7650 C   0  0  0  0  0  0  0  0  0  0  0  0
  191.7320  172.9510  141.0560 C   0  0  2  0  0  3  0  0  0  0  0  0
  194.3040  175.2940  139.8210 N   0  0  0  0  0  0  0  0  0  0  0  0
  196.4830  174.9920  138.9570 N   0  0  0  0  0  0  0  0  0  0  0  0
  197.8990  172.8690  136.1200 C   0  0  0  0  0  1  0  0  0  0  0  0
  194.6180  175.7190  142.1060 N   0  0  0  0  0  0  0  0  0  0  0  0
  195.6340  173.4290  136.8390 C   0  0  0  0  0  3  0  0  0  0  0  0
  197.5070  174.1790  138.3070 C   0  0  0  0  0  2  0  0  0  0  0  0
  193.1930  175.1970  144.5720 C   0  0  0  0  0  0  0  0  0  0  0  0
  191.9640  173.5830  143.2870 O   0  0  0  0  0  0  0  0  0  0  0  0
  194.6360  174.0280  137.7480 C   0  0  0  0  0  0  0  0  0  0  0  0
  196.6390  175.7500  143.3730 N   0  0  0  0  0  1  0  0  0  0  0  0
  194.4460  175.5540  144.4650 N   0  0  0  0  0  0  0  0  0  0  0  0
  195.0870  174.8340  138.7240 C   0  0  0  0  0  0  0  0  0  0  0  0
  193.1760  173.6990  137.5080 C   0  0  0  0  0  2  0  0  0  0  0  0
  192.2590  171.0190  143.5380 C   0  0  0  0  0  2  0  0  0  0  0  0
  194.6300  171.8560  142.9660 C   0  0  0  0  0  0  0  0  0  0  0  0
  194.0840  170.6020  145.1130 C   0  0  1  0  0  3  0  0  0  0  0  0
  193.1750  171.7710  142.5480 C   0  0  2  0  0  3  0  0  0  0  0  0
  195.1660  171.1780  144.2050 C   0  0  0  0  0  2  0  0  0  0  0  0
  193.0020  169.9310  144.2870 C   0  0  0  0  0  2  0  0  0  0  0  0
  195.5180  172.3000  142.0820 C   0  0  0  0  0  2  0  0  0  0  0  0
  194.8280  169.4100  146.2670 S   0  0  0  0  0  0  0  0  0  0  0  0
  196.5010  170.1140  146.1030 C   0  0  0  0  0  2  0  0  0  0  0  0
  197.5990  168.5180  147.4890 O   0  0  0  0  0  1  0  0  0  0  0  0
  197.5340  169.0080  146.1840 C   0  0  0  0  0  2  0  0  0  0  0  0
  192.5930  175.0680  145.9340 C   0  0  0  0  0  2  0  0  0  0  0  0
  188.8670  178.0830  145.1360 F   0  0  0  0  0  0  0  0  0  0  0  0
  189.6450  177.8360  147.2320 F   0  0  0  0  0  0  0  0  0  0  0  0
  188.4010  176.0400  146.2700 C   0  0  1  0  0  3  0  0  0  0  0  0
  190.7280  176.6500  145.4730 C   0  0  0  0  0  2  0  0  0  0  0  0
  187.2000  176.5290  146.7510 F   0  0  0  0  0  0  0  0  0  0  0  0
  190.4680  174.9050  147.2770 C   0  0  0  0  0  2  0  0  0  0  0  0
  189.3990  177.1800  146.0360 C   0  0  0  0  0  0  0  0  0  0  0  0
  191.0760  175.2190  145.9100 C   0  0  2  0  0  3  0  0  0  0  0  0
  188.9390  174.9630  147.2240 C   0  0  0  0  0  2  0  0  0  0  0  0
  3 18  1  0  0  0  0
  4 17  1  0  0  0  0
  5 28  1  0  0  0  0
  5 19  1  1  0  0  0
  6 21  1  0  0  0  0
  6 22  1  0  0  0  0
  7 11  1  0  0  0  0
  8 10  1  0  0  0  0
  8  1  2  0  0  0  0
  9  7  2  0  0  0  0
 10 15  1  0  0  0  0
 11  2  1  6  0  0  0
 11  5  1  0  0  0  0
 12 10  2  0  0  0  0
 13  8  1  0  0  0  0
 14  4  1  0  0  0  0
 15  6  2  0  0  0  0
 16  4  2  0  0  0  0
 16 20  1  0  0  0  0
 17 13  1  0  0  0  0
 18 36  1  0  0  0  0
 19  3  1  0  0  0  0
 20 23  2  0  0  0  0
 22 18  2  0  0  0  0
 23 13  1  0  0  0  0
 23 12  1  0  0  0  0
 24 20  1  0  0  0  0
 24  9  1  0  0  0  0
 25 30  1  0  0  0  0
 26 29  1  0  0  0  0
 27 32  1  1  0  0  0
 28 26  1  0  0  0  0
 28 25  1  1  0  0  0
 29 27  1  0  0  0  0
 30 27  1  0  0  0  0
 31 26  2  0  0  0  0
 33 35  1  0  0  0  0
 33 32  1  0  0  0  0
 35 34  1  0  0  0  0
 37 43  1  0  0  0  0
 39 41  1  1  0  0  0
 39 45  1  0  0  0  0
 40 44  1  0  0  0  0
 40 43  1  0  0  0  0
 43 39  1  0  0  0  0
 43 38  1  0  0  0  0
 44 36  1  1  0  0  0
 44 42  1  0  0  0  0
 45 42  1  0  0  0  0
M  END
>  <MODEL>
8

>  <REMARK>
 VINA RESULT:      -6.7      3.834      6.864
  Name = 
  6 active torsions:
  status: ('A' for Active; 'I' for Inactive)
    1  A    between atoms: C_1  and  C_34
    2  A    between atoms: C_1  and  C_36
    3  A    between atoms: N_8  and  C_16
    4  A    between atoms: C_14  and  S_23
    5  A    between atoms: S_23  and  C_39
    6  A    between atoms: C_39  and  C_40
                            x       y       z     vdW  Elec       q    Type
                         _______ _______ _______ _____ _____    ______ ____

>  <TORSDO>
F 6

$$$$
=
 OpenBabel11042415183D

 45 49  0  0  1  0  0  0  0  0999 V2000
  189.6910  178.6650  141.9080 O   0  0  0  0  0  0  0  0  0  0  0  0
  190.4420  175.0750  147.8370 O   0  0  0  0  0  1  0  0  0  0  0  0
  192.6240  175.5400  145.8880 C   0  0  0  0  0  2  0  0  0  0  0  0
  185.4850  177.8840  143.2410 C   0  0  0  0  0  0  0  0  0  0  0  0
  190.7500  174.4180  145.5790 N   0  0  1  0  0  0  0  0  0  0  0  0
  192.2470  177.1570  143.3810 C   0  0  0  0  0  0  0  0  0  0  0  0
  188.5340  175.0350  146.3840 C   0  0  0  0  0  3  0  0  0  0  0  0
  189.2480  178.3440  143.0430 C   0  0  0  0  0  0  0  0  0  0  0  0
  187.9950  176.0450  147.0820 C   0  0  0  0  0  3  0  0  0  0  0  0
  190.0180  177.9160  144.2230 C   0  0  0  0  0  0  0  0  0  0  0  0
  189.8570  174.4040  146.7520 C   0  0  2  0  0  3  0  0  0  0  0  0
  189.2080  177.6930  145.2080 N   0  0  0  0  0  0  0  0  0  0  0  0
  187.8710  178.3870  143.3870 N   0  0  0  0  0  0  0  0  0  0  0  0
  184.1830  177.9160  142.5230 C   0  0  0  0  0  1  0  0  0  0  0  0
  191.3450  177.3760  144.2940 N   0  0  0  0  0  0  0  0  0  0  0  0
  185.5180  177.4740  144.5200 C   0  0  0  0  0  3  0  0  0  0  0  0
  186.7460  178.2030  142.4740 C   0  0  0  0  0  2  0  0  0  0  0  0
  193.6060  175.6260  144.7550 C   0  0  0  0  0  0  0  0  0  0  0  0
  192.0480  174.2630  145.9730 O   0  0  0  0  0  0  0  0  0  0  0  0
  186.7770  177.3880  145.2870 C   0  0  0  0  0  0  0  0  0  0  0  0
  192.0660  177.5800  142.0300 N   0  0  0  0  0  1  0  0  0  0  0  0
  193.4020  176.3620  143.6930 N   0  0  0  0  0  0  0  0  0  0  0  0
  187.8850  177.9030  144.7260 C   0  0  0  0  0  0  0  0  0  0  0  0
  186.7270  176.7340  146.6530 C   0  0  0  0  0  2  0  0  0  0  0  0
  191.4600  172.1650  144.7540 C   0  0  0  0  0  2  0  0  0  0  0  0
  190.0130  173.7500  143.3240 C   0  0  0  0  0  0  0  0  0  0  0  0
  191.6950  172.1260  142.3190 C   0  0  1  0  0  3  0  0  0  0  0  0
  190.3920  173.2800  144.7150 C   0  0  2  0  0  3  0  0  0  0  0  0
  190.5610  173.1150  142.0680 C   0  0  0  0  0  2  0  0  0  0  0  0
  191.3900  171.2680  143.5330 C   0  0  0  0  0  2  0  0  0  0  0  0
  188.9610  174.5530  143.1920 C   0  0  0  0  0  2  0  0  0  0  0  0
  191.9260  171.0790  140.8490 S   0  0  0  0  0  0  0  0  0  0  0  0
  190.4420  171.7230  140.0100 C   0  0  0  0  0  2  0  0  0  0  0  0
  191.5050  173.2340  138.5070 O   0  0  0  0  0  1  0  0  0  0  0  0
  190.7690  172.0500  138.5670 C   0  0  0  0  0  2  0  0  0  0  0  0
  194.8820  174.8570  144.8670 C   0  0  0  0  0  2  0  0  0  0  0  0
  195.2430  170.2440  146.3520 F   0  0  0  0  0  0  0  0  0  0  0  0
  196.9760  171.1840  145.2690 F   0  0  0  0  0  0  0  0  0  0  0  0
  195.0240  170.6290  144.0110 C   0  0  1  0  0  3  0  0  0  0  0  0
  195.0500  172.5180  145.7000 C   0  0  0  0  0  2  0  0  0  0  0  0
  195.4970  169.3640  143.7140 F   0  0  0  0  0  0  0  0  0  0  0  0
  195.5800  173.0250  143.2860 C   0  0  0  0  0  2  0  0  0  0  0  0
  195.5940  171.1240  145.3460 C   0  0  0  0  0  0  0  0  0  0  0  0
  194.7060  173.3920  144.4850 C   0  0  2  0  0  3  0  0  0  0  0  0
  195.3270  171.5810  142.8440 C   0  0  0  0  0  2  0  0  0  0  0  0
  1  8  2  0  0  0  0
  3 19  1  0  0  0  0
  4 16  2  0  0  0  0
  5 19  1  1  0  0  0
  5 11  1  0  0  0  0
  6 22  1  0  0  0  0
  6 15  2  0  0  0  0
  7 11  1  0  0  0  0
  7  9  2  0  0  0  0
  8 13  1  0  0  0  0
  8 10  1  0  0  0  0
 10 15  1  0  0  0  0
 10 12  2  0  0  0  0
 11  2  1  1  0  0  0
 13 23  1  0  0  0  0
 14  4  1  0  0  0  0
 16 20  1  0  0  0  0
 17  4  1  0  0  0  0
 17 13  1  0  0  0  0
 18 36  1  0  0  0  0
 18  3  1  0  0  0  0
 20 24  1  0  0  0  0
 21  6  1  0  0  0  0
 22 18  2  0  0  0  0
 23 12  1  0  0  0  0
 23 20  2  0  0  0  0
 24  9  1  0  0  0  0
 26 28  1  0  0  0  0
 27 32  1  6  0  0  0
 27 30  1  0  0  0  0
 28 25  1  6  0  0  0
 28  5  1  0  0  0  0
 29 27  1  0  0  0  0
 29 26  1  0  0  0  0
 30 25  1  0  0  0  0
 31 26  2  0  0  0  0
 33 32  1  0  0  0  0
 34 35  1  0  0  0  0
 35 33  1  0  0  0  0
 38 43  1  0  0  0  0
 39 41  1  6  0  0  0
 39 43  1  0  0  0  0
 42 44  1  0  0  0  0
 43 40  1  0  0  0  0
 43 37  1  0  0  0  0
 44 36  1  1  0  0  0
 44 40  1  0  0  0  0
 45 42  1  0  0  0  0
 45 39  1  0  0  0  0
M  END
>  <MODEL>
9

>  <REMARK>
 VINA RESULT:      -6.7      4.268      8.230
  Name = 
  6 active torsions:
  status: ('A' for Active; 'I' for Inactive)
    1  A    between atoms: C_1  and  C_34
    2  A    between atoms: C_1  and  C_36
    3  A    between atoms: N_8  and  C_16
    4  A    between atoms: C_14  and  S_23
    5  A    between atoms: S_23  and  C_39
    6  A    between atoms: C_39  and  C_40
                            x       y       z     vdW  Elec       q    Type
                         _______ _______ _______ _____ _____    ______ ____

>  <TORSDO>
F 6

$$$$
