=
 OpenBabel11042417493D

 57 62  0  0  1  0  0  0  0  0999 V2000
  186.4520  177.4190  142.3630 N   0  0  0  0  0  0  0  0  0  0  0  0
  183.7710  178.2380  141.3710 C   0  0  0  0  0  0  0  0  0  0  0  0
  183.6450  178.2510  142.7060 C   0  0  0  0  0  3  0  0  0  0  0  0
  186.2440  178.0610  141.1070 C   0  0  0  0  0  3  0  0  0  0  0  0
  184.1490  179.0730  145.2610 Cl  0  0  0  0  0  0  0  0  0  0  0  0
  184.6950  178.4130  143.7260 C   0  0  0  0  0  0  0  0  0  0  0  0
  185.0510  178.4320  140.6670 C   0  0  0  0  0  3  0  0  0  0  0  0
  185.9770  178.0460  143.5810 C   0  0  0  0  0  0  0  0  0  0  0  0
  189.7340  175.4680  142.1880 C   0  0  0  0  0  2  0  0  0  0  0  0
  188.7610  176.6180  142.2330 C   0  0  0  0  0  0  0  0  0  0  0  0
  189.8310  173.3560  140.7860 N   0  0  0  0  0  2  0  0  0  0  0  0
  187.8100  174.0390  141.8010 N   0  0  0  0  0  0  0  0  0  0  0  0
  187.0070  174.9440  142.6230 C   0  0  0  0  0  2  0  0  0  0  0  0
  187.4440  176.3740  142.4070 C   0  0  0  0  0  0  0  0  0  0  0  0
  189.3030  178.0060  142.1350 C   0  0  0  0  0  1  0  0  0  0  0  0
  189.0780  174.2500  141.6010 C   0  0  0  0  0  0  0  0  0  0  0  0
  189.1860  172.3610  140.0440 N   0  0  0  0  0  2  0  0  0  0  0  0
  189.4190  172.5240  136.3240 C   0  0  0  0  0  3  0  0  0  0  0  0
  188.1410  174.2700  137.9640 Cl  0  0  0  0  0  0  0  0  0  0  0  0
  189.5440  172.0040  138.7010 C   0  0  0  0  0  0  0  0  0  0  0  0
  190.6050  170.5520  137.0620 C   0  0  0  0  0  3  0  0  0  0  0  0
  190.3060  170.8490  138.3970 C   0  0  0  0  0  0  0  0  0  0  0  0
  189.0960  172.8280  137.6480 C   0  0  0  0  0  0  0  0  0  0  0  0
  190.1710  171.3890  136.0290 C   0  0  0  0  0  3  0  0  0  0  0  0
  190.7240  169.8680  139.4330 C   0  0  0  0  0  2  0  0  0  0  0  0
  192.1240  170.1850  139.9130 C   0  0  0  0  0  1  0  0  0  0  0  0
  181.4230  178.9570  140.8300 N   0  0  0  0  0  2  0  0  0  0  0  0
  182.5490  178.1280  140.5490 C   0  0  0  0  0  0  0  0  0  0  0  0
  182.4910  177.3040  139.5950 O   0  0  0  0  0  0  0  0  0  0  0  0
  180.2460  178.8730  140.0700 N   0  0  0  0  0  2  0  0  0  0  0  0
  178.3330  180.3160  140.7630 C   0  0  0  0  0  1  0  0  0  0  0  0
  178.2620  177.8700  140.9420 C   0  0  0  0  0  2  0  0  0  0  0  0
  178.5470  177.5370  142.3240 N   0  0  0  0  0  0  0  0  0  0  0  0
  178.1400  176.4900  143.2420 C   0  0  0  0  0  1  0  0  0  0  0  0
  179.4250  178.7200  142.3950 C   0  0  0  0  0  0  0  0  0  0  0  0
  179.1060  179.0220  140.9660 C   0  0  1  0  0  0  0  0  0  0  0  0
  180.1310  179.2540  143.2910 O   0  0  0  0  0  0  0  0  0  0  0  0
  186.8390  178.2890  144.6610 O   0  0  0  0  0  0  0  0  0  0  0  0
  187.9310  175.5750  146.7870 N   0  0  0  0  0  2  0  0  0  0  0  0
  188.6790  176.7770  146.6920 C   0  0  2  0  0  0  0  0  0  0  0  0
  186.9340  177.4710  145.8180 C   0  0  2  0  0  3  0  0  0  0  0  0
  187.8650  178.3410  147.1030 S   0  0  0  0  0  0  0  0  0  0  0  0
  187.8640  176.3760  145.5940 N   0  0  2  0  0  0  0  0  0  0  0  0
  190.0830  176.6790  146.3200 N   0  0  0  0  0  2  0  0  0  0  0  0
  190.5080  175.2990  146.5160 C   0  0  2  0  0  3  0  0  0  0  0  0
  191.7790  175.2660  147.3530 C   0  0  0  0  0  2  0  0  0  0  0  0
  192.9910  175.3030  146.4760 C   0  0  0  0  0  0  0  0  0  0  0  0
  193.4780  174.1670  146.0620 N   0  0  0  0  0  0  0  0  0  0  0  0
  194.5820  173.2580  144.1750 C   0  0  0  0  0  2  0  0  0  0  0  0
  194.6710  173.9460  145.2990 C   0  0  0  0  0  0  0  0  0  0  0  0
  196.0180  174.0730  145.9330 C   0  0  0  0  0  1  0  0  0  0  0  0
  194.3690  177.3610  146.8380 O   0  0  0  0  0  1  0  0  0  0  0  0
  193.4980  176.6270  146.0390 C   0  0  0  0  0  0  0  0  0  0  0  0
  193.1960  177.0670  144.8980 O   0  0  0  0  0  0  0  0  0  0  0  0
  190.7400  174.6940  145.2790 O   0  0  0  0  0  0  0  0  0  0  0  0
  190.7050  172.4580  144.4630 C   0  0  0  0  0  1  0  0  0  0  0  0
  190.0250  173.4920  145.3350 C   0  0  0  0  0  2  0  0  0  0  0  0
  1 14  1  0  0  0  0
  1  8  1  0  0  0  0
  2  3  2  0  0  0  0
  3  6  1  0  0  0  0
  4  1  1  0  0  0  0
  6  5  1  0  0  0  0
  7  4  2  0  0  0  0
  7  2  1  0  0  0  0
  8  6  2  0  0  0  0
  8 38  1  0  0  0  0
  9 10  1  0  0  0  0
 10 14  2  0  0  0  0
 11 16  1  0  0  0  0
 12 13  1  0  0  0  0
 14 13  1  0  0  0  0
 15 10  1  0  0  0  0
 16 12  2  0  0  0  0
 16  9  1  0  0  0  0
 17 11  1  0  0  0  0
 18 23  1  0  0  0  0
 20 17  1  0  0  0  0
 21 22  2  0  0  0  0
 22 20  1  0  0  0  0
 22 25  1  0  0  0  0
 23 19  1  0  0  0  0
 23 20  2  0  0  0  0
 24 18  2  0  0  0  0
 24 21  1  0  0  0  0
 25 26  1  0  0  0  0
 28 27  1  0  0  0  0
 28  2  1  0  0  0  0
 29 28  2  0  0  0  0
 30 27  1  0  0  0  0
 30 36  1  0  0  0  0
 32 36  1  0  0  0  0
 32 33  1  0  0  0  0
 33 35  1  0  0  0  0
 33 34  1  0  0  0  0
 35 37  2  0  0  0  0
 36 31  1  6  0  0  0
 36 35  1  0  0  0  0
 40 44  1  6  0  0  0
 40 39  1  0  0  0  0
 40 42  1  0  0  0  0
 41 38  1  6  0  0  0
 41 42  1  0  0  0  0
 43 41  1  0  0  0  0
 43 40  1  0  0  0  0
 43 39  1  1  0  0  0
 44 45  1  0  0  0  0
 45 46  1  1  0  0  0
 47 46  1  0  0  0  0
 48 47  2  0  0  0  0
 49 50  2  0  0  0  0
 50 51  1  0  0  0  0
 50 48  1  0  0  0  0
 53 47  1  0  0  0  0
 53 52  1  0  0  0  0
 54 53  2  0  0  0  0
 55 57  1  0  0  0  0
 55 45  1  0  0  0  0
 56 57  1  0  0  0  0
M  END
>  <MODEL>
1

>  <REMARK>
 VINA RESULT:      -8.0      0.000      0.000
  Name = 
  17 active torsions:
  status: ('A' for Active; 'I' for Inactive)
    1  A    between atoms: N_2  and  N_30
    2  A    between atoms: C_7  and  N_32
    3  A    between atoms: CA_8  and  C_27
    4  A    between atoms: CA_8  and  C_29
    5  A    between atoms: C_9  and  C_45
    6  A    between atoms: N_10  and  C_40
    7  A    between atoms: C_11  and  C_23
    8  A    between atoms: C_12  and  O_14
    9  A    between atoms: C_12  and  N_19
   10  A    between atoms: C_12  and  C_27
   11  A    between atoms: N_13  and  C_26
   12  A    between atoms: N_13  and  N_28
   13  A    between atoms: O_14  and  C_53
   14  A    between atoms: N_19  and  C_24
   15  A    between atoms: C_25  and  O_50
   16  A    between atoms: N_30  and  C_46
   17  A    between atoms: O_50  and  C_56
                            x       y       z     vdW  Elec       q    Type
                         _______ _______ _______ _____ _____    ______ ____

>  <TORSDO>
F 17

$$$$
=
 OpenBabel11042417493D

 57 62  0  0  1  0  0  0  0  0999 V2000
  186.3630  177.4390  142.2960 N   0  0  0  0  0  0  0  0  0  0  0  0
  183.6510  178.1720  141.3210 C   0  0  0  0  0  0  0  0  0  0  0  0
  183.5290  178.1670  142.6550 C   0  0  0  0  0  3  0  0  0  0  0  0
  186.1280  178.0860  141.0470 C   0  0  0  0  0  3  0  0  0  0  0  0
  184.0140  178.9820  145.2170 Cl  0  0  0  0  0  0  0  0  0  0  0  0
  184.5770  178.3570  143.6740 C   0  0  0  0  0  0  0  0  0  0  0  0
  184.9210  178.4180  140.6140 C   0  0  0  0  0  3  0  0  0  0  0  0
  185.8700  178.0370  143.5210 C   0  0  0  0  0  0  0  0  0  0  0  0
  189.7110  175.6070  142.0860 C   0  0  0  0  0  2  0  0  0  0  0  0
  188.6980  176.7210  142.1450 C   0  0  0  0  0  0  0  0  0  0  0  0
  189.8730  173.5090  140.6690 N   0  0  0  0  0  0  0  0  0  0  0  0
  187.8360  174.1130  141.7010 N   0  0  0  0  0  0  0  0  0  0  0  0
  187.0070  174.9830  142.5350 C   0  0  0  0  0  2  0  0  0  0  0  0
  187.3920  176.4290  142.3260 C   0  0  0  0  0  0  0  0  0  0  0  0
  189.1890  178.1280  142.0530 C   0  0  0  0  0  1  0  0  0  0  0  0
  189.0940  174.3700  141.4950 C   0  0  0  0  0  0  0  0  0  0  0  0
  189.2590  172.4970  139.9230 N   0  0  0  0  0  0  0  0  0  0  0  0
  191.3870  169.5950  138.9390 C   0  0  0  0  0  3  0  0  0  0  0  0
  190.6850  170.3330  141.4560 Cl  0  0  0  0  0  0  0  0  0  0  0  0
  189.9710  171.5720  139.0890 C   0  0  0  0  0  0  0  0  0  0  0  0
  190.7290  170.7580  136.9250 C   0  0  0  0  0  3  0  0  0  0  0  0
  190.0010  171.6880  137.6770 C   0  0  0  0  0  0  0  0  0  0  0  0
  190.6810  170.5230  139.7080 C   0  0  0  0  0  0  0  0  0  0  0  0
  191.4120  169.7110  137.5510 C   0  0  0  0  0  3  0  0  0  0  0  0
  189.3730  172.8230  136.9510 C   0  0  0  0  0  2  0  0  0  0  0  0
  190.3240  173.9990  136.9020 C   0  0  0  0  0  1  0  0  0  0  0  0
  181.2060  178.6160  140.9340 N   0  0  0  0  0  2  0  0  0  0  0  0
  182.4300  178.0260  140.5010 C   0  0  0  0  0  0  0  0  0  0  0  0
  182.4610  177.3830  139.4160 O   0  0  0  0  0  0  0  0  0  0  0  0
  180.0290  178.4920  140.1810 N   0  0  0  0  0  2  0  0  0  0  0  0
  177.8960  177.2310  140.4660 C   0  0  0  0  0  1  0  0  0  0  0  0
  179.4180  177.6730  142.3390 C   0  0  0  0  0  2  0  0  0  0  0  0
  178.8780  178.8040  143.0670 N   0  0  0  0  0  0  0  0  0  0  0  0
  178.8580  179.2280  144.4550 C   0  0  0  0  0  1  0  0  0  0  0  0
  178.3570  179.3350  141.7940 C   0  0  0  0  0  0  0  0  0  0  0  0
  178.9360  178.1530  141.0830 C   0  0  1  0  0  0  0  0  0  0  0  0
  177.6930  180.3500  141.4560 O   0  0  0  0  0  0  0  0  0  0  0  0
  186.7280  178.3000  144.6000 O   0  0  0  0  0  0  0  0  0  0  0  0
  188.3630  175.5410  146.2710 N   0  0  0  0  0  2  0  0  0  0  0  0
  188.9290  176.8420  146.2810 C   0  0  2  0  0  0  0  0  0  0  0  0
  187.0350  177.3720  145.6320 C   0  0  2  0  0  3  0  0  0  0  0  0
  187.9490  178.2100  146.9490 S   0  0  0  0  0  0  0  0  0  0  0  0
  188.0820  176.4600  145.2000 N   0  0  2  0  0  0  0  0  0  0  0  0
  190.2950  176.9960  145.8010 N   0  0  0  0  0  2  0  0  0  0  0  0
  191.1990  176.6320  146.8840 C   0  0  2  0  0  3  0  0  0  0  0  0
  191.4180  175.1250  146.8870 C   0  0  0  0  0  2  0  0  0  0  0  0
  192.4630  174.7400  145.8880 C   0  0  0  0  0  0  0  0  0  0  0  0
  192.2550  173.6730  145.1690 N   0  0  0  0  0  0  0  0  0  0  0  0
  192.8170  173.0890  142.9440 C   0  0  0  0  0  2  0  0  0  0  0  0
  193.1420  173.0600  144.2250 C   0  0  0  0  0  0  0  0  0  0  0  0
  194.1440  172.0450  144.6660 C   0  0  0  0  0  1  0  0  0  0  0  0
  194.6980  175.6360  146.5710 O   0  0  0  0  0  1  0  0  0  0  0  0
  193.6170  175.6530  145.6960 C   0  0  0  0  0  0  0  0  0  0  0  0
  193.6570  176.4060  144.6870 O   0  0  0  0  0  0  0  0  0  0  0  0
  190.6590  177.0340  148.1070 O   0  0  0  0  0  0  0  0  0  0  0  0
  191.4450  178.2980  149.9650 C   0  0  0  0  0  1  0  0  0  0  0  0
  191.7710  177.2400  148.9330 C   0  0  0  0  0  2  0  0  0  0  0  0
  1 14  1  0  0  0  0
  1  8  1  0  0  0  0
  2  3  2  0  0  0  0
  3  6  1  0  0  0  0
  4  1  1  0  0  0  0
  6  5  1  0  0  0  0
  7  4  2  0  0  0  0
  7  2  1  0  0  0  0
  8  6  2  0  0  0  0
  8 38  1  0  0  0  0
  9 10  1  0  0  0  0
 10 14  2  0  0  0  0
 11 16  1  0  0  0  0
 12 13  1  0  0  0  0
 14 13  1  0  0  0  0
 15 10  1  0  0  0  0
 16 12  2  0  0  0  0
 16  9  1  0  0  0  0
 17 11  2  0  0  0  0
 18 23  1  0  0  0  0
 20 23  2  0  0  0  0
 20 17  1  0  0  0  0
 21 24  1  0  0  0  0
 21 22  2  0  0  0  0
 22 20  1  0  0  0  0
 23 19  1  0  0  0  0
 24 18  2  0  0  0  0
 25 22  1  0  0  0  0
 26 25  1  0  0  0  0
 28 27  1  0  0  0  0
 28  2  1  0  0  0  0
 29 28  2  0  0  0  0
 30 27  1  0  0  0  0
 30 36  1  0  0  0  0
 32 33  1  0  0  0  0
 33 34  1  0  0  0  0
 35 33  1  0  0  0  0
 36 31  1  6  0  0  0
 36 35  1  0  0  0  0
 36 32  1  0  0  0  0
 37 35  2  0  0  0  0
 39 40  1  0  0  0  0
 40 44  1  6  0  0  0
 40 42  1  0  0  0  0
 41 38  1  6  0  0  0
 41 42  1  0  0  0  0
 43 41  1  0  0  0  0
 43 39  1  1  0  0  0
 43 40  1  0  0  0  0
 44 45  1  0  0  0  0
 45 46  1  1  0  0  0
 45 55  1  0  0  0  0
 47 46  1  0  0  0  0
 48 47  2  0  0  0  0
 49 50  2  0  0  0  0
 50 51  1  0  0  0  0
 50 48  1  0  0  0  0
 53 47  1  0  0  0  0
 53 52  1  0  0  0  0
 54 53  2  0  0  0  0
 55 57  1  0  0  0  0
 57 56  1  0  0  0  0
M  END
>  <MODEL>
2

>  <REMARK>
 VINA RESULT:      -7.6      1.464      2.278
  Name = 
  17 active torsions:
  status: ('A' for Active; 'I' for Inactive)
    1  A    between atoms: N_2  and  N_30
    2  A    between atoms: C_7  and  N_32
    3  A    between atoms: CA_8  and  C_27
    4  A    between atoms: CA_8  and  C_29
    5  A    between atoms: C_9  and  C_45
    6  A    between atoms: N_10  and  C_40
    7  A    between atoms: C_11  and  C_23
    8  A    between atoms: C_12  and  O_14
    9  A    between atoms: C_12  and  N_19
   10  A    between atoms: C_12  and  C_27
   11  A    between atoms: N_13  and  C_26
   12  A    between atoms: N_13  and  N_28
   13  A    between atoms: O_14  and  C_53
   14  A    between atoms: N_19  and  C_24
   15  A    between atoms: C_25  and  O_50
   16  A    between atoms: N_30  and  C_46
   17  A    between atoms: O_50  and  C_56
                            x       y       z     vdW  Elec       q    Type
                         _______ _______ _______ _____ _____    ______ ____

>  <TORSDO>
F 17

$$$$
=
 OpenBabel11042417493D

 57 62  0  0  1  0  0  0  0  0999 V2000
  190.7730  173.4310  140.6860 N   0  0  0  0  0  0  0  0  0  0  0  0
  190.6120  173.8310  137.7440 C   0  0  0  0  0  0  0  0  0  0  0  0
  191.9230  173.6820  137.9840 C   0  0  0  0  0  3  0  0  0  0  0  0
  189.6230  173.0950  139.9120 C   0  0  0  0  0  3  0  0  0  0  0  0
  194.1920  172.3850  138.7770 Cl  0  0  0  0  0  0  0  0  0  0  0  0
  192.5780  172.9950  139.1110 C   0  0  0  0  0  0  0  0  0  0  0  0
  189.5530  173.2680  138.6000 C   0  0  0  0  0  3  0  0  0  0  0  0
  192.0630  172.8670  140.3430 C   0  0  0  0  0  0  0  0  0  0  0  0
  189.5260  174.0770  144.2410 C   0  0  0  0  0  2  0  0  0  0  0  0
  189.8190  173.3750  142.9400 C   0  0  0  0  0  0  0  0  0  0  0  0
  188.4730  176.3210  144.7820 N   0  0  0  0  0  2  0  0  0  0  0  0
  190.1260  176.1360  143.1040 N   0  0  0  0  0  0  0  0  0  0  0  0
  191.0860  175.3800  142.3000 C   0  0  0  0  0  2  0  0  0  0  0  0
  190.5390  174.0070  141.9870 C   0  0  0  0  0  0  0  0  0  0  0  0
  189.3420  171.9710  142.7710 C   0  0  0  0  0  1  0  0  0  0  0  0
  189.4070  175.5590  144.0220 C   0  0  0  0  0  0  0  0  0  0  0  0
  188.1810  177.6420  144.4270 N   0  0  0  0  0  2  0  0  0  0  0  0
  184.8510  178.9330  145.5060 C   0  0  0  0  0  3  0  0  0  0  0  0
  186.8780  178.0890  147.1040 Cl  0  0  0  0  0  0  0  0  0  0  0  0
  186.8510  178.1740  144.3400 C   0  0  0  0  0  0  0  0  0  0  0  0
  184.9140  178.9490  143.0890 C   0  0  0  0  0  3  0  0  0  0  0  0
  186.2200  178.4450  143.1010 C   0  0  0  0  0  0  0  0  0  0  0  0
  186.1470  178.4130  145.5380 C   0  0  0  0  0  0  0  0  0  0  0  0
  184.2340  179.2000  144.2860 C   0  0  0  0  0  3  0  0  0  0  0  0
  186.8460  178.1210  141.7920 C   0  0  0  0  0  2  0  0  0  0  0  0
  185.7830  178.0140  140.7200 C   0  0  0  0  0  1  0  0  0  0  0  0
  188.8130  174.5980  136.1630 N   0  0  0  0  0  2  0  0  0  0  0  0
  190.1970  174.5070  136.4980 C   0  0  0  0  0  0  0  0  0  0  0  0
  191.0580  175.0100  135.7250 O   0  0  0  0  0  0  0  0  0  0  0  0
  188.3870  175.2300  134.9850 N   0  0  0  0  0  2  0  0  0  0  0  0
  188.1500  177.6830  135.3680 C   0  0  0  0  0  1  0  0  0  0  0  0
  186.2960  176.2980  134.5530 C   0  0  0  0  0  2  0  0  0  0  0  0
  185.4480  176.0110  135.6930 N   0  0  0  0  0  0  0  0  0  0  0  0
  184.0270  175.8020  135.9000 C   0  0  0  0  0  1  0  0  0  0  0  0
  186.6480  176.0250  136.5500 C   0  0  0  0  0  0  0  0  0  0  0  0
  187.4840  176.3160  135.3450 C   0  0  1  0  0  0  0  0  0  0  0  0
  186.8670  175.8700  137.7800 O   0  0  0  0  0  0  0  0  0  0  0  0
  192.8300  172.1700  141.2890 O   0  0  0  0  0  0  0  0  0  0  0  0
  193.4550  168.6460  141.8070 N   0  0  0  0  0  2  0  0  0  0  0  0
  193.8930  169.6130  142.7480 C   0  0  2  0  0  0  0  0  0  0  0  0
  192.5900  170.8290  141.6920 C   0  0  2  0  0  3  0  0  0  0  0  0
  192.6670  170.7140  143.4960 S   0  0  0  0  0  0  0  0  0  0  0  0
  193.7380  169.9910  141.3820 N   0  0  2  0  0  0  0  0  0  0  0  0
  195.3060  169.6300  143.1020 N   0  0  0  0  0  2  0  0  0  0  0  0
  195.4110  169.9070  144.5280 C   0  0  2  0  0  3  0  0  0  0  0  0
  196.5170  170.9240  144.7740 C   0  0  0  0  0  2  0  0  0  0  0  0
  196.0100  172.3170  144.5730 C   0  0  0  0  0  0  0  0  0  0  0  0
  195.2670  172.8370  145.5100 N   0  0  0  0  0  0  0  0  0  0  0  0
  195.1800  175.1290  146.0980 C   0  0  0  0  0  2  0  0  0  0  0  0
  194.5970  174.1040  145.5010 C   0  0  0  0  0  0  0  0  0  0  0  0
  193.1280  174.1890  145.2480 C   0  0  0  0  0  1  0  0  0  0  0  0
  197.5370  173.9540  143.4540 O   0  0  0  0  0  1  0  0  0  0  0  0
  196.4710  173.0630  143.3770 C   0  0  0  0  0  0  0  0  0  0  0  0
  195.9410  172.8390  142.2560 O   0  0  0  0  0  0  0  0  0  0  0  0
  195.6900  168.7270  145.2210 O   0  0  0  0  0  0  0  0  0  0  0  0
  195.2330  168.6440  147.5560 C   0  0  0  0  0  1  0  0  0  0  0  0
  194.6550  168.6150  146.1580 C   0  0  0  0  0  2  0  0  0  0  0  0
  1 14  1  0  0  0  0
  2  3  2  0  0  0  0
  2  7  1  0  0  0  0
  3  6  1  0  0  0  0
  4  1  1  0  0  0  0
  5  6  1  0  0  0  0
  6  8  2  0  0  0  0
  7  4  2  0  0  0  0
  8  1  1  0  0  0  0
  8 38  1  0  0  0  0
 10  9  1  0  0  0  0
 12 16  2  0  0  0  0
 13 12  1  0  0  0  0
 14 13  1  0  0  0  0
 14 10  2  0  0  0  0
 15 10  1  0  0  0  0
 16  9  1  0  0  0  0
 16 11  1  0  0  0  0
 17 11  1  0  0  0  0
 18 23  1  0  0  0  0
 20 17  1  0  0  0  0
 20 23  2  0  0  0  0
 21 22  2  0  0  0  0
 21 24  1  0  0  0  0
 22 20  1  0  0  0  0
 23 19  1  0  0  0  0
 24 18  2  0  0  0  0
 25 22  1  0  0  0  0
 26 25  1  0  0  0  0
 27 28  1  0  0  0  0
 28  2  1  0  0  0  0
 29 28  2  0  0  0  0
 30 36  1  0  0  0  0
 30 27  1  0  0  0  0
 32 36  1  0  0  0  0
 32 33  1  0  0  0  0
 33 34  1  0  0  0  0
 33 35  1  0  0  0  0
 35 37  2  0  0  0  0
 36 31  1  1  0  0  0
 36 35  1  0  0  0  0
 39 40  1  0  0  0  0
 40 44  1  1  0  0  0
 40 42  1  0  0  0  0
 41 38  1  1  0  0  0
 41 42  1  0  0  0  0
 43 41  1  0  0  0  0
 43 39  1  6  0  0  0
 43 40  1  0  0  0  0
 44 45  1  0  0  0  0
 45 46  1  6  0  0  0
 45 55  1  0  0  0  0
 47 46  1  0  0  0  0
 47 48  2  0  0  0  0
 50 48  1  0  0  0  0
 50 49  2  0  0  0  0
 51 50  1  0  0  0  0
 53 52  1  0  0  0  0
 53 47  1  0  0  0  0
 54 53  2  0  0  0  0
 55 57  1  0  0  0  0
 57 56  1  0  0  0  0
M  END
>  <MODEL>
3

>  <REMARK>
 VINA RESULT:      -7.5      4.157      8.406
  Name = 
  17 active torsions:
  status: ('A' for Active; 'I' for Inactive)
    1  A    between atoms: N_2  and  N_30
    2  A    between atoms: C_7  and  N_32
    3  A    between atoms: CA_8  and  C_27
    4  A    between atoms: CA_8  and  C_29
    5  A    between atoms: C_9  and  C_45
    6  A    between atoms: N_10  and  C_40
    7  A    between atoms: C_11  and  C_23
    8  A    between atoms: C_12  and  O_14
    9  A    between atoms: C_12  and  N_19
   10  A    between atoms: C_12  and  C_27
   11  A    between atoms: N_13  and  C_26
   12  A    between atoms: N_13  and  N_28
   13  A    between atoms: O_14  and  C_53
   14  A    between atoms: N_19  and  C_24
   15  A    between atoms: C_25  and  O_50
   16  A    between atoms: N_30  and  C_46
   17  A    between atoms: O_50  and  C_56
                            x       y       z     vdW  Elec       q    Type
                         _______ _______ _______ _____ _____    ______ ____

>  <TORSDO>
F 17

$$$$
=
 OpenBabel11042417493D

 57 62  0  0  1  0  0  0  0  0999 V2000
  191.7300  173.7790  140.0890 N   0  0  0  0  0  0  0  0  0  0  0  0
  191.2770  174.2040  137.1820 C   0  0  0  0  0  0  0  0  0  0  0  0
  192.4980  174.7110  137.4010 C   0  0  0  0  0  3  0  0  0  0  0  0
  190.8660  172.9600  139.3040 C   0  0  0  0  0  3  0  0  0  0  0  0
  195.1410  174.6670  138.0880 Cl  0  0  0  0  0  0  0  0  0  0  0  0
  193.4510  174.3790  138.4750 C   0  0  0  0  0  0  0  0  0  0  0  0
  190.6680  173.1450  138.0070 C   0  0  0  0  0  3  0  0  0  0  0  0
  193.1160  173.9480  139.6990 C   0  0  0  0  0  0  0  0  0  0  0  0
  190.0150  173.6890  143.5040 C   0  0  0  0  0  2  0  0  0  0  0  0
  190.5210  173.2560  142.1520 C   0  0  0  0  0  0  0  0  0  0  0  0
  188.7200  175.7280  144.2790 N   0  0  0  0  0  2  0  0  0  0  0  0
  190.5720  175.9540  142.8310 N   0  0  0  0  0  0  0  0  0  0  0  0
  191.6820  175.4180  142.0420 C   0  0  0  0  0  2  0  0  0  0  0  0
  191.2940  174.0930  141.4270 C   0  0  0  0  0  0  0  0  0  0  0  0
  190.1880  171.8780  141.6810 C   0  0  0  0  0  1  0  0  0  0  0  0
  189.7990  175.1760  143.5300 C   0  0  0  0  0  0  0  0  0  0  0  0
  188.3620  177.0710  144.1220 N   0  0  0  0  0  2  0  0  0  0  0  0
  185.2210  178.1240  142.4080 C   0  0  0  0  0  3  0  0  0  0  0  0
  187.5330  177.3150  141.2380 Cl  0  0  0  0  0  0  0  0  0  0  0  0
  187.0140  177.5270  143.9460 C   0  0  0  0  0  0  0  0  0  0  0  0
  184.8670  178.2990  144.7930 C   0  0  0  0  0  3  0  0  0  0  0  0
  186.1680  177.8440  145.0380 C   0  0  0  0  0  0  0  0  0  0  0  0
  186.5270  177.6850  142.6320 C   0  0  0  0  0  0  0  0  0  0  0  0
  184.3910  178.4310  143.4850 C   0  0  0  0  0  3  0  0  0  0  0  0
  186.6340  177.8120  146.4500 C   0  0  0  0  0  2  0  0  0  0  0  0
  185.5560  178.3510  147.3640 C   0  0  0  0  0  1  0  0  0  0  0  0
  189.1060  174.6740  136.0010 N   0  0  0  0  0  2  0  0  0  0  0  0
  190.5320  174.6510  135.9870 C   0  0  0  0  0  0  0  0  0  0  0  0
  191.1490  175.0160  134.9480 O   0  0  0  0  0  0  0  0  0  0  0  0
  188.3700  175.0900  134.8810 N   0  0  0  0  0  2  0  0  0  0  0  0
  188.2540  177.5490  135.2800 C   0  0  0  0  0  1  0  0  0  0  0  0
  186.3160  176.2510  134.5190 C   0  0  0  0  0  2  0  0  0  0  0  0
  185.4920  175.9960  135.6840 N   0  0  0  0  0  0  0  0  0  0  0  0
  184.0700  175.8490  135.9340 C   0  0  0  0  0  1  0  0  0  0  0  0
  186.7180  175.9530  136.5030 C   0  0  0  0  0  0  0  0  0  0  0  0
  187.5280  176.2130  135.2730 C   0  0  1  0  0  0  0  0  0  0  0  0
  186.9680  175.7830  137.7250 O   0  0  0  0  0  0  0  0  0  0  0  0
  194.1640  173.6720  140.5910 O   0  0  0  0  0  0  0  0  0  0  0  0
  196.2560  170.8760  141.5300 N   0  0  0  0  0  2  0  0  0  0  0  0
  195.9710  171.9180  142.4490 C   0  0  2  0  0  0  0  0  0  0  0  0
  194.5080  172.3750  141.0570 C   0  0  2  0  0  3  0  0  0  0  0  0
  194.2410  172.2800  142.8430 S   0  0  0  0  0  0  0  0  0  0  0  0
  195.9510  172.1980  141.0520 N   0  0  2  0  0  0  0  0  0  0  0  0
  197.0940  172.6070  143.0690 N   0  0  0  0  0  2  0  0  0  0  0  0
  196.8870  172.6010  144.5110 C   0  0  2  0  0  3  0  0  0  0  0  0
  197.2660  173.9570  145.0910 C   0  0  0  0  0  2  0  0  0  0  0  0
  196.1130  174.9070  145.0130 C   0  0  0  0  0  0  0  0  0  0  0  0
  195.2910  174.9520  146.0250 N   0  0  0  0  0  0  0  0  0  0  0  0
  194.1170  176.8740  146.7560 C   0  0  0  0  0  2  0  0  0  0  0  0
  194.0780  175.7050  146.1410 C   0  0  0  0  0  0  0  0  0  0  0  0
  192.7490  175.0390  145.9970 C   0  0  0  0  0  1  0  0  0  0  0  0
  197.1030  176.6380  143.5010 O   0  0  0  0  0  1  0  0  0  0  0  0
  196.0330  175.8170  143.8450 C   0  0  0  0  0  0  0  0  0  0  0  0
  195.0130  175.8010  143.1070 O   0  0  0  0  0  0  0  0  0  0  0  0
  197.6660  171.6020  145.0990 O   0  0  0  0  0  0  0  0  0  0  0  0
  197.3370  169.4920  146.1520 C   0  0  0  0  0  1  0  0  0  0  0  0
  196.7670  170.8680  145.8810 C   0  0  0  0  0  2  0  0  0  0  0  0
  1 14  1  0  0  0  0
  2  3  2  0  0  0  0
  2  7  1  0  0  0  0
  3  6  1  0  0  0  0
  4  1  1  0  0  0  0
  5  6  1  0  0  0  0
  6  8  2  0  0  0  0
  7  4  2  0  0  0  0
  8  1  1  0  0  0  0
  8 38  1  0  0  0  0
  9 16  1  0  0  0  0
 10  9  1  0  0  0  0
 12 16  2  0  0  0  0
 13 12  1  0  0  0  0
 14 13  1  0  0  0  0
 14 10  2  0  0  0  0
 15 10  1  0  0  0  0
 16 11  1  0  0  0  0
 17 11  1  0  0  0  0
 18 23  2  0  0  0  0
 18 24  1  0  0  0  0
 19 23  1  0  0  0  0
 20 17  1  0  0  0  0
 20 22  2  0  0  0  0
 21 22  1  0  0  0  0
 22 25  1  0  0  0  0
 23 20  1  0  0  0  0
 24 21  2  0  0  0  0
 25 26  1  0  0  0  0
 28 27  1  0  0  0  0
 28  2  1  0  0  0  0
 29 28  2  0  0  0  0
 30 36  1  0  0  0  0
 30 27  1  0  0  0  0
 32 36  1  0  0  0  0
 32 33  1  0  0  0  0
 33 34  1  0  0  0  0
 33 35  1  0  0  0  0
 35 37  2  0  0  0  0
 36 31  1  1  0  0  0
 36 35  1  0  0  0  0
 39 40  1  0  0  0  0
 40 42  1  0  0  0  0
 40 44  1  1  0  0  0
 41 38  1  1  0  0  0
 41 42  1  0  0  0  0
 43 41  1  0  0  0  0
 43 39  1  6  0  0  0
 43 40  1  0  0  0  0
 44 45  1  0  0  0  0
 45 46  1  1  0  0  0
 45 55  1  0  0  0  0
 47 46  1  0  0  0  0
 47 48  2  0  0  0  0
 48 50  1  0  0  0  0
 50 49  2  0  0  0  0
 51 50  1  0  0  0  0
 52 53  1  0  0  0  0
 53 47  1  0  0  0  0
 54 53  2  0  0  0  0
 55 57  1  0  0  0  0
 57 56  1  0  0  0  0
M  END
>  <MODEL>
4

>  <REMARK>
 VINA RESULT:      -7.4      4.073      8.409
  Name = 
  17 active torsions:
  status: ('A' for Active; 'I' for Inactive)
    1  A    between atoms: N_2  and  N_30
    2  A    between atoms: C_7  and  N_32
    3  A    between atoms: CA_8  and  C_27
    4  A    between atoms: CA_8  and  C_29
    5  A    between atoms: C_9  and  C_45
    6  A    between atoms: N_10  and  C_40
    7  A    between atoms: C_11  and  C_23
    8  A    between atoms: C_12  and  O_14
    9  A    between atoms: C_12  and  N_19
   10  A    between atoms: C_12  and  C_27
   11  A    between atoms: N_13  and  C_26
   12  A    between atoms: N_13  and  N_28
   13  A    between atoms: O_14  and  C_53
   14  A    between atoms: N_19  and  C_24
   15  A    between atoms: C_25  and  O_50
   16  A    between atoms: N_30  and  C_46
   17  A    between atoms: O_50  and  C_56
                            x       y       z     vdW  Elec       q    Type
                         _______ _______ _______ _____ _____    ______ ____

>  <TORSDO>
F 17

$$$$
=
 OpenBabel11042417493D

 57 62  0  0  1  0  0  0  0  0999 V2000
  186.7810  177.2580  142.2400 N   0  0  0  0  0  0  0  0  0  0  0  0
  184.0500  177.9790  141.3120 C   0  0  0  0  0  0  0  0  0  0  0  0
  183.9340  177.9020  142.6460 C   0  0  0  0  0  3  0  0  0  0  0  0
  186.5270  177.9630  141.0270 C   0  0  0  0  0  3  0  0  0  0  0  0
  184.4100  178.5930  145.2440 Cl  0  0  0  0  0  0  0  0  0  0  0  0
  184.9810  178.0620  143.6690 C   0  0  0  0  0  0  0  0  0  0  0  0
  185.3110  178.2900  140.6160 C   0  0  0  0  0  3  0  0  0  0  0  0
  186.2800  177.7800  143.4960 C   0  0  0  0  0  0  0  0  0  0  0  0
  190.1870  175.5310  142.0850 C   0  0  0  0  0  2  0  0  0  0  0  0
  189.1400  176.6070  142.2160 C   0  0  0  0  0  0  0  0  0  0  0  0
  190.5520  173.6900  140.3770 N   0  0  0  0  0  2  0  0  0  0  0  0
  188.4060  174.0920  141.2800 N   0  0  0  0  0  0  0  0  0  0  0  0
  187.4730  174.8050  142.1520 C   0  0  0  0  0  2  0  0  0  0  0  0
  187.8320  176.2710  142.2140 C   0  0  0  0  0  0  0  0  0  0  0  0
  189.5950  178.0180  142.3980 C   0  0  0  0  0  1  0  0  0  0  0  0
  189.6700  174.3970  141.2450 C   0  0  0  0  0  0  0  0  0  0  0  0
  190.0450  172.8030  139.4220 N   0  0  0  0  0  2  0  0  0  0  0  0
  190.8280  169.6380  137.6080 C   0  0  0  0  0  3  0  0  0  0  0  0
  189.2920  171.6960  136.7260 Cl  0  0  0  0  0  0  0  0  0  0  0  0
  190.6050  171.5090  139.1530 C   0  0  0  0  0  0  0  0  0  0  0  0
  191.9210  169.5560  139.7630 C   0  0  0  0  0  3  0  0  0  0  0  0
  191.4210  170.8240  140.0850 C   0  0  0  0  0  0  0  0  0  0  0  0
  190.3060  170.8960  137.9180 C   0  0  0  0  0  0  0  0  0  0  0  0
  191.6330  168.9680  138.5270 C   0  0  0  0  0  3  0  0  0  0  0  0
  191.6960  171.3470  141.4490 C   0  0  0  0  0  2  0  0  0  0  0  0
  190.6870  170.7920  142.4310 C   0  0  0  0  0  1  0  0  0  0  0  0
  181.6010  178.4180  140.9410 N   0  0  0  0  0  2  0  0  0  0  0  0
  182.8290  177.8490  140.4900 C   0  0  0  0  0  0  0  0  0  0  0  0
  182.8620  177.2370  139.3880 O   0  0  0  0  0  0  0  0  0  0  0  0
  180.4240  178.3080  140.1850 N   0  0  0  0  0  2  0  0  0  0  0  0
  178.7580  179.0410  141.8900 C   0  0  0  0  0  1  0  0  0  0  0  0
  180.1450  180.6350  140.6430 C   0  0  0  0  0  2  0  0  0  0  0  0
  179.3240  181.1660  139.5730 N   0  0  0  0  0  0  0  0  0  0  0  0
  179.2260  182.4340  138.8750 C   0  0  0  0  0  1  0  0  0  0  0  0
  178.6320  179.8660  139.5010 C   0  0  0  0  0  0  0  0  0  0  0  0
  179.5050  179.3590  140.6050 C   0  0  1  0  0  0  0  0  0  0  0  0
  177.6920  179.3930  138.8100 O   0  0  0  0  0  0  0  0  0  0  0  0
  187.1360  178.0050  144.5850 O   0  0  0  0  0  0  0  0  0  0  0  0
  188.7940  175.3320  146.3690 N   0  0  0  0  0  2  0  0  0  0  0  0
  189.2290  176.6750  146.4950 C   0  0  2  0  0  0  0  0  0  0  0  0
  187.3940  177.0640  145.6180 C   0  0  2  0  0  3  0  0  0  0  0  0
  188.0480  177.9210  147.0710 S   0  0  0  0  0  0  0  0  0  0  0  0
  188.5670  176.2670  145.3000 N   0  0  2  0  0  0  0  0  0  0  0  0
  190.6250  176.9700  146.2040 N   0  0  0  0  0  2  0  0  0  0  0  0
  191.3980  176.7380  147.4170 C   0  0  2  0  0  3  0  0  0  0  0  0
  191.9830  175.3320  147.3930 C   0  0  0  0  0  2  0  0  0  0  0  0
  192.7840  175.1130  146.1490 C   0  0  0  0  0  0  0  0  0  0  0  0
  193.6480  176.0290  145.8110 N   0  0  0  0  0  0  0  0  0  0  0  0
  193.8780  176.4280  143.4880 C   0  0  0  0  0  2  0  0  0  0  0  0
  194.4540  176.0860  144.6270 C   0  0  0  0  0  0  0  0  0  0  0  0
  195.7610  175.3660  144.5580 C   0  0  0  0  0  1  0  0  0  0  0  0
  191.6720  173.6620  144.4390 O   0  0  0  0  0  0  0  0  0  0  0  0
  192.6300  173.8210  145.4360 C   0  0  0  0  0  0  0  0  0  0  0  0
  193.4210  172.8730  145.6810 O   0  0  0  0  0  1  0  0  0  0  0  0
  190.5800  176.8910  148.5380 O   0  0  0  0  0  0  0  0  0  0  0  0
  191.9390  177.9130  150.2030 C   0  0  0  0  0  1  0  0  0  0  0  0
  190.9490  178.1280  149.0790 C   0  0  0  0  0  2  0  0  0  0  0  0
  1  8  1  0  0  0  0
  2  3  2  0  0  0  0
  3  6  1  0  0  0  0
  4  1  1  0  0  0  0
  6  5  1  0  0  0  0
  7  4  2  0  0  0  0
  7  2  1  0  0  0  0
  8  6  2  0  0  0  0
  8 38  1  0  0  0  0
  9 10  1  0  0  0  0
 10 15  1  0  0  0  0
 11 16  1  0  0  0  0
 12 13  1  0  0  0  0
 13 14  1  0  0  0  0
 14 10  2  0  0  0  0
 14  1  1  0  0  0  0
 16 12  2  0  0  0  0
 16  9  1  0  0  0  0
 17 11  1  0  0  0  0
 18 23  2  0  0  0  0
 18 24  1  0  0  0  0
 19 23  1  0  0  0  0
 20 17  1  0  0  0  0
 20 22  2  0  0  0  0
 21 22  1  0  0  0  0
 22 25  1  0  0  0  0
 23 20  1  0  0  0  0
 24 21  2  0  0  0  0
 25 26  1  0  0  0  0
 28 27  1  0  0  0  0
 28  2  1  0  0  0  0
 29 28  2  0  0  0  0
 30 36  1  0  0  0  0
 30 27  1  0  0  0  0
 33 32  1  0  0  0  0
 34 33  1  0  0  0  0
 35 33  1  0  0  0  0
 35 36  1  0  0  0  0
 36 32  1  0  0  0  0
 36 31  1  1  0  0  0
 37 35  2  0  0  0  0
 39 40  1  0  0  0  0
 40 44  1  6  0  0  0
 40 42  1  0  0  0  0
 41 38  1  6  0  0  0
 41 42  1  0  0  0  0
 43 41  1  0  0  0  0
 43 39  1  1  0  0  0
 43 40  1  0  0  0  0
 44 45  1  0  0  0  0
 45 46  1  6  0  0  0
 45 55  1  0  0  0  0
 47 46  1  0  0  0  0
 48 47  2  0  0  0  0
 49 50  2  0  0  0  0
 50 48  1  0  0  0  0
 51 50  1  0  0  0  0
 52 53  2  0  0  0  0
 53 54  1  0  0  0  0
 53 47  1  0  0  0  0
 55 57  1  0  0  0  0
 57 56  1  0  0  0  0
M  END
>  <MODEL>
5

>  <REMARK>
 VINA RESULT:      -6.7      1.692      2.675
  Name = 
  17 active torsions:
  status: ('A' for Active; 'I' for Inactive)
    1  A    between atoms: N_2  and  N_30
    2  A    between atoms: C_7  and  N_32
    3  A    between atoms: CA_8  and  C_27
    4  A    between atoms: CA_8  and  C_29
    5  A    between atoms: C_9  and  C_45
    6  A    between atoms: N_10  and  C_40
    7  A    between atoms: C_11  and  C_23
    8  A    between atoms: C_12  and  O_14
    9  A    between atoms: C_12  and  N_19
   10  A    between atoms: C_12  and  C_27
   11  A    between atoms: N_13  and  C_26
   12  A    between atoms: N_13  and  N_28
   13  A    between atoms: O_14  and  C_53
   14  A    between atoms: N_19  and  C_24
   15  A    between atoms: C_25  and  O_50
   16  A    between atoms: N_30  and  C_46
   17  A    between atoms: O_50  and  C_56
                            x       y       z     vdW  Elec       q    Type
                         _______ _______ _______ _____ _____    ______ ____

>  <TORSDO>
F 17

$$$$
=
 OpenBabel11042417493D

 57 62  0  0  1  0  0  0  0  0999 V2000
  192.7820  175.0780  144.6380 N   0  0  0  0  0  0  0  0  0  0  0  0
  195.2320  173.4330  145.0050 C   0  0  0  0  0  0  0  0  0  0  0  0
  194.5790  172.8300  144.0010 C   0  0  0  0  0  3  0  0  0  0  0  0
  193.9990  175.5940  145.1730 C   0  0  0  0  0  3  0  0  0  0  0  0
  193.4840  172.5960  141.5110 Cl  0  0  0  0  0  0  0  0  0  0  0  0
  193.5990  173.4080  143.0650 C   0  0  0  0  0  0  0  0  0  0  0  0
  195.0930  174.8640  145.3310 C   0  0  0  0  0  3  0  0  0  0  0  0
  192.7810  174.4340  143.3390 C   0  0  0  0  0  0  0  0  0  0  0  0
  189.2630  175.2760  146.1160 C   0  0  0  0  0  2  0  0  0  0  0  0
  190.5590  174.7110  145.5940 C   0  0  0  0  0  0  0  0  0  0  0  0
  187.6350  176.9830  145.1810 N   0  0  0  0  0  2  0  0  0  0  0  0
  189.9610  177.3930  145.1560 N   0  0  0  0  0  0  0  0  0  0  0  0
  191.3500  177.0310  145.4370 C   0  0  0  0  0  2  0  0  0  0  0  0
  191.5560  175.5480  145.2330 C   0  0  0  0  0  0  0  0  0  0  0  0
  190.7150  173.2270  145.5450 C   0  0  0  0  0  1  0  0  0  0  0  0
  188.9770  176.6060  145.4780 C   0  0  0  0  0  0  0  0  0  0  0  0
  187.3730  178.0970  144.3780 N   0  0  0  0  0  2  0  0  0  0  0  0
  186.9200  177.9610  140.6780 C   0  0  0  0  0  3  0  0  0  0  0  0
  189.2670  178.0740  142.0380 Cl  0  0  0  0  0  0  0  0  0  0  0  0
  186.7160  178.0330  143.1040 C   0  0  0  0  0  0  0  0  0  0  0  0
  184.7300  177.9520  141.7010 C   0  0  0  0  0  3  0  0  0  0  0  0
  185.3060  177.9990  142.9760 C   0  0  0  0  0  0  0  0  0  0  0  0
  187.5130  178.0260  141.9400 C   0  0  0  0  0  0  0  0  0  0  0  0
  185.5330  177.9250  140.5560 C   0  0  0  0  0  3  0  0  0  0  0  0
  184.3900  178.1130  144.1420 C   0  0  0  0  0  2  0  0  0  0  0  0
  183.9670  179.5540  144.3300 C   0  0  0  0  0  1  0  0  0  0  0  0
  196.1630  171.2270  145.7740 N   0  0  0  0  0  2  0  0  0  0  0  0
  196.2270  172.6520  145.7690 C   0  0  0  0  0  0  0  0  0  0  0  0
  197.1380  173.2360  146.4170 O   0  0  0  0  0  0  0  0  0  0  0  0
  197.0900  170.4570  146.4930 N   0  0  0  0  0  2  0  0  0  0  0  0
  197.4760  168.1660  147.3990 C   0  0  0  0  0  1  0  0  0  0  0  0
  195.2240  169.0900  147.0870 C   0  0  0  0  0  2  0  0  0  0  0  0
  194.7090  168.5420  145.8480 N   0  0  0  0  0  0  0  0  0  0  0  0
  193.4000  168.1660  145.3480 C   0  0  0  0  0  1  0  0  0  0  0  0
  196.0850  168.5300  145.3170 C   0  0  0  0  0  0  0  0  0  0  0  0
  196.5710  169.1000  146.6120 C   0  0  1  0  0  0  0  0  0  0  0  0
  196.6200  168.1740  144.2340 O   0  0  0  0  0  0  0  0  0  0  0  0
  191.9180  174.8560  142.3170 O   0  0  0  0  0  0  0  0  0  0  0  0
  188.5860  174.6360  140.9270 N   0  0  0  0  0  2  0  0  0  0  0  0
  189.6030  173.7270  140.5380 C   0  0  2  0  0  0  0  0  0  0  0  0
  190.5480  174.4930  142.2150 C   0  0  2  0  0  3  0  0  0  0  0  0
  190.4140  172.7340  141.8160 S   0  0  0  0  0  0  0  0  0  0  0  0
  189.9690  175.0280  140.9920 N   0  0  2  0  0  0  0  0  0  0  0  0
  189.9010  173.6030  139.1190 N   0  0  0  0  0  2  0  0  0  0  0  0
  188.8380  172.8220  138.5000 C   0  0  2  0  0  3  0  0  0  0  0  0
  189.3680  172.1270  137.2540 C   0  0  0  0  0  2  0  0  0  0  0  0
  190.3940  171.1010  137.6170 C   0  0  0  0  0  0  0  0  0  0  0  0
  190.2220  170.4300  138.7210 N   0  0  0  0  0  0  0  0  0  0  0  0
  190.7300  168.2070  139.3600 C   0  0  0  0  0  2  0  0  0  0  0  0
  191.1060  169.4730  139.3180 C   0  0  0  0  0  0  0  0  0  0  0  0
  192.1850  169.9100  140.2550 C   0  0  0  0  0  1  0  0  0  0  0  0
  191.3210  169.8950  135.6290 O   0  0  0  0  0  0  0  0  0  0  0  0
  191.4840  170.8280  136.6480 C   0  0  0  0  0  0  0  0  0  0  0  0
  192.5500  171.4980  136.7000 O   0  0  0  0  0  1  0  0  0  0  0  0
  187.7720  173.6580  138.1590 O   0  0  0  0  0  0  0  0  0  0  0  0
  187.4500  175.7220  137.0190 C   0  0  0  0  0  1  0  0  0  0  0  0
  188.2650  174.4510  137.1160 C   0  0  0  0  0  2  0  0  0  0  0  0
  1  4  1  0  0  0  0
  1 14  1  0  0  0  0
  2  7  1  0  0  0  0
  2 28  1  0  0  0  0
  3  2  2  0  0  0  0
  4  7  2  0  0  0  0
  5  6  1  0  0  0  0
  6  8  2  0  0  0  0
  6  3  1  0  0  0  0
  8  1  1  0  0  0  0
 10  9  1  0  0  0  0
 11 16  1  0  0  0  0
 12 13  1  0  0  0  0
 12 16  2  0  0  0  0
 14 13  1  0  0  0  0
 14 10  2  0  0  0  0
 15 10  1  0  0  0  0
 16  9  1  0  0  0  0
 17 11  1  0  0  0  0
 18 23  1  0  0  0  0
 20 17  1  0  0  0  0
 21 22  2  0  0  0  0
 22 20  1  0  0  0  0
 22 25  1  0  0  0  0
 23 19  1  0  0  0  0
 23 20  2  0  0  0  0
 24 18  2  0  0  0  0
 24 21  1  0  0  0  0
 25 26  1  0  0  0  0
 27 30  1  0  0  0  0
 28 27  1  0  0  0  0
 28 29  2  0  0  0  0
 30 36  1  0  0  0  0
 33 32  1  0  0  0  0
 34 33  1  0  0  0  0
 35 33  1  0  0  0  0
 35 36  1  0  0  0  0
 36 32  1  0  0  0  0
 36 31  1  1  0  0  0
 37 35  2  0  0  0  0
 38  8  1  0  0  0  0
 40 44  1  6  0  0  0
 40 39  1  0  0  0  0
 40 43  1  0  0  0  0
 40 42  1  0  0  0  0
 41 38  1  6  0  0  0
 42 41  1  0  0  0  0
 43 39  1  1  0  0  0
 43 41  1  0  0  0  0
 45 46  1  6  0  0  0
 45 44  1  0  0  0  0
 46 47  1  0  0  0  0
 47 48  2  0  0  0  0
 48 50  1  0  0  0  0
 50 49  2  0  0  0  0
 50 51  1  0  0  0  0
 52 53  2  0  0  0  0
 53 54  1  0  0  0  0
 53 47  1  0  0  0  0
 55 45  1  0  0  0  0
 56 57  1  0  0  0  0
 57 55  1  0  0  0  0
M  END
>  <MODEL>
6

>  <REMARK>
 VINA RESULT:      -6.6      3.892     11.492
  Name = 
  17 active torsions:
  status: ('A' for Active; 'I' for Inactive)
    1  A    between atoms: N_2  and  N_30
    2  A    between atoms: C_7  and  N_32
    3  A    between atoms: CA_8  and  C_27
    4  A    between atoms: CA_8  and  C_29
    5  A    between atoms: C_9  and  C_45
    6  A    between atoms: N_10  and  C_40
    7  A    between atoms: C_11  and  C_23
    8  A    between atoms: C_12  and  O_14
    9  A    between atoms: C_12  and  N_19
   10  A    between atoms: C_12  and  C_27
   11  A    between atoms: N_13  and  C_26
   12  A    between atoms: N_13  and  N_28
   13  A    between atoms: O_14  and  C_53
   14  A    between atoms: N_19  and  C_24
   15  A    between atoms: C_25  and  O_50
   16  A    between atoms: N_30  and  C_46
   17  A    between atoms: O_50  and  C_56
                            x       y       z     vdW  Elec       q    Type
                         _______ _______ _______ _____ _____    ______ ____

>  <TORSDO>
F 17

$$$$
=
 OpenBabel11042417493D

 57 62  0  0  1  0  0  0  0  0999 V2000
  186.4250  177.3850  142.0110 N   0  0  0  0  0  0  0  0  0  0  0  0
  183.7220  177.9320  140.9000 C   0  0  0  0  0  0  0  0  0  0  0  0
  183.5950  178.1830  142.2110 C   0  0  0  0  0  3  0  0  0  0  0  0
  186.1990  177.7810  140.6600 C   0  0  0  0  0  3  0  0  0  0  0  0
  184.0750  179.4710  144.5710 Cl  0  0  0  0  0  0  0  0  0  0  0  0
  184.6400  178.5590  143.1790 C   0  0  0  0  0  0  0  0  0  0  0  0
  184.9960  178.0310  140.1660 C   0  0  0  0  0  3  0  0  0  0  0  0
  185.9320  178.2090  143.0970 C   0  0  0  0  0  0  0  0  0  0  0  0
  189.7820  175.5850  142.3340 C   0  0  0  0  0  2  0  0  0  0  0  0
  188.7650  176.6880  142.1880 C   0  0  0  0  0  0  0  0  0  0  0  0
  190.1160  173.3860  141.1140 N   0  0  0  0  0  2  0  0  0  0  0  0
  187.9710  174.0420  141.8530 N   0  0  0  0  0  0  0  0  0  0  0  0
  187.0470  174.9630  142.5140 C   0  0  0  0  0  2  0  0  0  0  0  0
  187.4480  176.3940  142.2390 C   0  0  0  0  0  0  0  0  0  0  0  0
  189.2580  178.0900  142.0440 C   0  0  0  0  0  1  0  0  0  0  0  0
  189.2430  174.2990  141.7740 C   0  0  0  0  0  0  0  0  0  0  0  0
  189.5980  172.3120  140.3840 N   0  0  0  0  0  2  0  0  0  0  0  0
  190.5230  171.3200  136.9090 C   0  0  0  0  0  3  0  0  0  0  0  0
  188.5570  173.0380  137.6540 Cl  0  0  0  0  0  0  0  0  0  0  0  0
  190.2920  171.6620  139.3100 C   0  0  0  0  0  0  0  0  0  0  0  0
  191.9800  170.1420  138.4370 C   0  0  0  0  0  3  0  0  0  0  0  0
  191.3570  170.7540  139.5310 C   0  0  0  0  0  0  0  0  0  0  0  0
  189.8770  171.9260  137.9880 C   0  0  0  0  0  0  0  0  0  0  0  0
  191.5710  170.4290  137.1300 C   0  0  0  0  0  3  0  0  0  0  0  0
  191.7850  170.3350  140.8910 C   0  0  0  0  0  2  0  0  0  0  0  0
  190.8460  169.2780  141.4290 C   0  0  0  0  0  1  0  0  0  0  0  0
  182.5630  176.7370  139.0150 N   0  0  0  0  0  2  0  0  0  0  0  0
  182.5030  177.6390  140.1180 C   0  0  0  0  0  0  0  0  0  0  0  0
  181.4040  178.1790  140.4200 O   0  0  0  0  0  0  0  0  0  0  0  0
  181.4240  176.4410  138.2500 N   0  0  0  0  0  2  0  0  0  0  0  0
  183.2770  175.6670  136.7710 C   0  0  0  0  0  1  0  0  0  0  0  0
  181.4260  174.1980  137.4310 C   0  0  0  0  0  2  0  0  0  0  0  0
  180.4920  174.1680  136.3220 N   0  0  0  0  0  0  0  0  0  0  0  0
  179.5820  173.1860  135.7620 C   0  0  0  0  0  1  0  0  0  0  0  0
  180.8660  175.5600  136.0100 C   0  0  0  0  0  0  0  0  0  0  0  0
  181.8140  175.5470  137.1670 C   0  0  1  0  0  0  0  0  0  0  0  0
  180.5340  176.3960  135.1300 O   0  0  0  0  0  0  0  0  0  0  0  0
  186.7870  178.6690  144.1100 O   0  0  0  0  0  0  0  0  0  0  0  0
  186.6430  176.2750  146.8170 N   0  0  0  0  0  2  0  0  0  0  0  0
  187.8590  176.5380  146.1370 C   0  0  2  0  0  0  0  0  0  0  0  0
  186.7980  178.1760  145.4420 C   0  0  2  0  0  3  0  0  0  0  0  0
  188.4830  178.2370  146.0990 S   0  0  0  0  0  0  0  0  0  0  0  0
  186.6230  176.7320  145.4530 N   0  0  2  0  0  0  0  0  0  0  0  0
  188.5700  175.4110  145.5500 N   0  0  0  0  0  2  0  0  0  0  0  0
  189.8880  175.3380  146.1680 C   0  0  2  0  0  3  0  0  0  0  0  0
  190.5990  174.0710  145.7140 C   0  0  0  0  0  2  0  0  0  0  0  0
  191.8520  174.4050  144.9680 C   0  0  0  0  0  0  0  0  0  0  0  0
  192.1780  175.6630  144.8580 N   0  0  0  0  0  0  0  0  0  0  0  0
  193.1320  176.3890  142.8150 C   0  0  0  0  0  2  0  0  0  0  0  0
  193.2690  176.2280  144.1200 C   0  0  0  0  0  0  0  0  0  0  0  0
  194.6540  176.2210  144.6780 C   0  0  0  0  0  1  0  0  0  0  0  0
  193.5020  172.5700  145.3860 O   0  0  0  0  0  1  0  0  0  0  0  0
  192.7060  173.2870  144.4980 C   0  0  0  0  0  0  0  0  0  0  0  0
  192.6620  172.9310  143.2910 O   0  0  0  0  0  0  0  0  0  0  0  0
  189.7610  175.3370  147.5580 O   0  0  0  0  0  0  0  0  0  0  0  0
  191.1890  177.0500  148.3890 C   0  0  0  0  0  1  0  0  0  0  0  0
  191.0550  175.5860  148.0310 C   0  0  0  0  0  2  0  0  0  0  0  0
  1 14  1  0  0  0  0
  1  8  1  0  0  0  0
  2  3  2  0  0  0  0
  3  6  1  0  0  0  0
  4  1  1  0  0  0  0
  6  5  1  0  0  0  0
  7  4  2  0  0  0  0
  7  2  1  0  0  0  0
  8  6  2  0  0  0  0
  8 38  1  0  0  0  0
 10 14  2  0  0  0  0
 10  9  1  0  0  0  0
 11 16  1  0  0  0  0
 12 13  1  0  0  0  0
 14 13  1  0  0  0  0
 15 10  1  0  0  0  0
 16 12  2  0  0  0  0
 16  9  1  0  0  0  0
 17 11  1  0  0  0  0
 18 24  2  0  0  0  0
 18 23  1  0  0  0  0
 19 23  1  0  0  0  0
 20 22  1  0  0  0  0
 20 17  1  0  0  0  0
 21 22  2  0  0  0  0
 22 25  1  0  0  0  0
 23 20  2  0  0  0  0
 24 21  1  0  0  0  0
 25 26  1  0  0  0  0
 27 28  1  0  0  0  0
 28 29  2  0  0  0  0
 28  2  1  0  0  0  0
 30 27  1  0  0  0  0
 33 32  1  0  0  0  0
 34 33  1  0  0  0  0
 35 33  1  0  0  0  0
 35 36  1  0  0  0  0
 36 31  1  6  0  0  0
 36 32  1  0  0  0  0
 36 30  1  0  0  0  0
 37 35  2  0  0  0  0
 40 44  1  6  0  0  0
 40 39  1  0  0  0  0
 41 38  1  6  0  0  0
 41 43  1  0  0  0  0
 41 42  1  0  0  0  0
 42 40  1  0  0  0  0
 43 40  1  0  0  0  0
 43 39  1  1  0  0  0
 44 45  1  0  0  0  0
 45 46  1  6  0  0  0
 45 55  1  0  0  0  0
 47 46  1  0  0  0  0
 48 47  2  0  0  0  0
 49 50  2  0  0  0  0
 50 51  1  0  0  0  0
 50 48  1  0  0  0  0
 53 47  1  0  0  0  0
 53 52  1  0  0  0  0
 54 53  2  0  0  0  0
 55 57  1  0  0  0  0
 57 56  1  0  0  0  0
M  END
>  <MODEL>
7

>  <REMARK>
 VINA RESULT:      -6.6      2.384      3.261
  Name = 
  17 active torsions:
  status: ('A' for Active; 'I' for Inactive)
    1  A    between atoms: N_2  and  N_30
    2  A    between atoms: C_7  and  N_32
    3  A    between atoms: CA_8  and  C_27
    4  A    between atoms: CA_8  and  C_29
    5  A    between atoms: C_9  and  C_45
    6  A    between atoms: N_10  and  C_40
    7  A    between atoms: C_11  and  C_23
    8  A    between atoms: C_12  and  O_14
    9  A    between atoms: C_12  and  N_19
   10  A    between atoms: C_12  and  C_27
   11  A    between atoms: N_13  and  C_26
   12  A    between atoms: N_13  and  N_28
   13  A    between atoms: O_14  and  C_53
   14  A    between atoms: N_19  and  C_24
   15  A    between atoms: C_25  and  O_50
   16  A    between atoms: N_30  and  C_46
   17  A    between atoms: O_50  and  C_56
                            x       y       z     vdW  Elec       q    Type
                         _______ _______ _______ _____ _____    ______ ____

>  <TORSDO>
F 17

$$$$
=
 OpenBabel11042417493D

 57 62  0  0  1  0  0  0  0  0999 V2000
  191.1520  175.2330  142.9020 N   0  0  0  0  0  0  0  0  0  0  0  0
  190.2350  176.6840  145.3300 C   0  0  0  0  0  0  0  0  0  0  0  0
  190.9560  175.6620  145.8120 C   0  0  0  0  0  3  0  0  0  0  0  0
  190.8410  176.6240  142.9120 C   0  0  0  0  0  3  0  0  0  0  0  0
  193.1960  174.1580  146.2340 Cl  0  0  0  0  0  0  0  0  0  0  0  0
  192.0320  174.9040  145.1490 C   0  0  0  0  0  0  0  0  0  0  0  0
  190.4380  177.2730  143.9940 C   0  0  0  0  0  3  0  0  0  0  0  0
  192.1370  174.7070  143.8270 C   0  0  0  0  0  0  0  0  0  0  0  0
  189.1760  173.1670  140.3650 C   0  0  0  0  0  2  0  0  0  0  0  0
  189.4970  174.0320  141.5570 C   0  0  0  0  0  0  0  0  0  0  0  0
  190.1870  171.0120  139.4860 N   0  0  0  0  0  2  0  0  0  0  0  0
  191.5680  172.8070  140.1590 N   0  0  0  0  0  0  0  0  0  0  0  0
  191.7880  174.1550  140.6810 C   0  0  0  0  0  2  0  0  0  0  0  0
  190.7580  174.4830  141.7360 C   0  0  0  0  0  0  0  0  0  0  0  0
  188.3840  174.4060  142.4790 C   0  0  0  0  0  1  0  0  0  0  0  0
  190.3680  172.3340  139.9860 C   0  0  0  0  0  0  0  0  0  0  0  0
  191.2780  170.1470  139.3580 N   0  0  0  0  0  2  0  0  0  0  0  0
  193.8480  168.9690  136.9240 C   0  0  0  0  0  3  0  0  0  0  0  0
  194.0930  169.1140  139.6240 Cl  0  0  0  0  0  0  0  0  0  0  0  0
  191.8880  169.8040  138.1060 C   0  0  0  0  0  0  0  0  0  0  0  0
  191.8800  169.6180  135.6790 C   0  0  0  0  0  3  0  0  0  0  0  0
  191.2190  169.9580  136.8660 C   0  0  0  0  0  0  0  0  0  0  0  0
  193.2120  169.3180  138.1170 C   0  0  0  0  0  0  0  0  0  0  0  0
  193.1860  169.1190  135.7070 C   0  0  0  0  0  3  0  0  0  0  0  0
  189.8660  170.5640  136.7530 C   0  0  0  0  0  2  0  0  0  0  0  0
  189.7470  171.3280  135.4520 C   0  0  0  0  0  1  0  0  0  0  0  0
  187.8680  177.3470  145.8610 N   0  0  0  0  0  2  0  0  0  0  0  0
  189.2480  177.3310  146.2190 C   0  0  0  0  0  0  0  0  0  0  0  0
  189.6170  177.8720  147.2980 O   0  0  0  0  0  0  0  0  0  0  0  0
  186.9070  177.9570  146.6830 N   0  0  0  0  0  2  0  0  0  0  0  0
  184.4250  178.2010  146.6800 C   0  0  0  0  0  1  0  0  0  0  0  0
  185.8640  179.4190  145.1090 C   0  0  0  0  0  2  0  0  0  0  0  0
  185.8210  178.7020  143.8510 N   0  0  0  0  0  0  0  0  0  0  0  0
  185.8980  179.0660  142.4480 C   0  0  0  0  0  1  0  0  0  0  0  0
  185.6660  177.4460  144.6080 C   0  0  0  0  0  0  0  0  0  0  0  0
  185.7190  178.2270  145.8820 C   0  0  1  0  0  0  0  0  0  0  0  0
  185.5310  176.2320  144.3030 O   0  0  0  0  0  0  0  0  0  0  0  0
  193.2390  173.9650  143.3750 O   0  0  0  0  0  0  0  0  0  0  0  0
  196.7430  174.0520  142.4850 N   0  0  0  0  0  2  0  0  0  0  0  0
  195.7390  174.3790  141.5380 C   0  0  2  0  0  0  0  0  0  0  0  0
  194.5560  174.4790  143.2350 C   0  0  2  0  0  3  0  0  0  0  0  0
  194.5870  175.7220  141.9220 S   0  0  0  0  0  0  0  0  0  0  0  0
  195.4230  173.4930  142.6090 N   0  0  2  0  0  0  0  0  0  0  0  0
  195.7240  173.6480  140.2790 N   0  0  0  0  0  2  0  0  0  0  0  0
  196.9560  173.9550  139.5640 C   0  0  2  0  0  3  0  0  0  0  0  0
  196.8220  175.2980  138.8610 C   0  0  0  0  0  2  0  0  0  0  0  0
  195.9790  175.1710  137.6320 C   0  0  0  0  0  0  0  0  0  0  0  0
  194.6950  175.0080  137.7880 N   0  0  0  0  0  0  0  0  0  0  0  0
  192.8280  175.7250  136.5190 C   0  0  0  0  0  2  0  0  0  0  0  0
  193.7070  174.7720  136.7760 C   0  0  0  0  0  0  0  0  0  0  0  0
  193.3740  173.3820  136.3430 C   0  0  0  0  0  1  0  0  0  0  0  0
  196.7200  176.6050  135.7190 O   0  0  0  0  0  0  0  0  0  0  0  0
  196.6330  175.3500  136.3130 C   0  0  0  0  0  0  0  0  0  0  0  0
  197.1830  174.3670  135.7490 O   0  0  0  0  0  1  0  0  0  0  0  0
  197.2220  172.9550  138.6250 O   0  0  0  0  0  0  0  0  0  0  0  0
  197.0750  170.5840  138.4690 C   0  0  0  0  0  1  0  0  0  0  0  0
  196.5010  171.8440  139.0790 C   0  0  0  0  0  2  0  0  0  0  0  0
  1  4  1  0  0  0  0
  1  8  1  0  0  0  0
  2  3  2  0  0  0  0
  2 28  1  0  0  0  0
  4  7  2  0  0  0  0
  6  3  1  0  0  0  0
  6  5  1  0  0  0  0
  7  2  1  0  0  0  0
  8  6  2  0  0  0  0
  9 10  1  0  0  0  0
 10 14  2  0  0  0  0
 10 15  1  0  0  0  0
 11 16  1  0  0  0  0
 12 13  1  0  0  0  0
 13 14  1  0  0  0  0
 14  1  1  0  0  0  0
 16 12  2  0  0  0  0
 16  9  1  0  0  0  0
 17 11  1  0  0  0  0
 18 23  1  0  0  0  0
 20 23  2  0  0  0  0
 20 17  1  0  0  0  0
 21 24  1  0  0  0  0
 21 22  2  0  0  0  0
 22 20  1  0  0  0  0
 23 19  1  0  0  0  0
 24 18  2  0  0  0  0
 25 22  1  0  0  0  0
 26 25  1  0  0  0  0
 27 28  1  0  0  0  0
 27 30  1  0  0  0  0
 28 29  2  0  0  0  0
 32 36  1  0  0  0  0
 33 35  1  0  0  0  0
 33 32  1  0  0  0  0
 34 33  1  0  0  0  0
 35 36  1  0  0  0  0
 36 31  1  1  0  0  0
 36 30  1  0  0  0  0
 37 35  2  0  0  0  0
 38  8  1  0  0  0  0
 40 44  1  6  0  0  0
 40 42  1  0  0  0  0
 40 39  1  0  0  0  0
 40 43  1  0  0  0  0
 41 38  1  6  0  0  0
 42 41  1  0  0  0  0
 43 39  1  1  0  0  0
 43 41  1  0  0  0  0
 45 46  1  6  0  0  0
 45 44  1  0  0  0  0
 47 48  2  0  0  0  0
 47 46  1  0  0  0  0
 49 50  2  0  0  0  0
 50 48  1  0  0  0  0
 51 50  1  0  0  0  0
 52 53  2  0  0  0  0
 53 47  1  0  0  0  0
 54 53  1  0  0  0  0
 55 57  1  0  0  0  0
 55 45  1  0  0  0  0
 56 57  1  0  0  0  0
M  END
>  <MODEL>
8

>  <REMARK>
 VINA RESULT:      -6.6      4.346      7.573
  Name = 
  17 active torsions:
  status: ('A' for Active; 'I' for Inactive)
    1  A    between atoms: N_2  and  N_30
    2  A    between atoms: C_7  and  N_32
    3  A    between atoms: CA_8  and  C_27
    4  A    between atoms: CA_8  and  C_29
    5  A    between atoms: C_9  and  C_45
    6  A    between atoms: N_10  and  C_40
    7  A    between atoms: C_11  and  C_23
    8  A    between atoms: C_12  and  O_14
    9  A    between atoms: C_12  and  N_19
   10  A    between atoms: C_12  and  C_27
   11  A    between atoms: N_13  and  C_26
   12  A    between atoms: N_13  and  N_28
   13  A    between atoms: O_14  and  C_53
   14  A    between atoms: N_19  and  C_24
   15  A    between atoms: C_25  and  O_50
   16  A    between atoms: N_30  and  C_46
   17  A    between atoms: O_50  and  C_56
                            x       y       z     vdW  Elec       q    Type
                         _______ _______ _______ _____ _____    ______ ____

>  <TORSDO>
F 17

$$$$
=
 OpenBabel11042417493D

 57 62  0  0  1  0  0  0  0  0999 V2000
  190.4910  172.5570  139.8530 N   0  0  0  0  0  0  0  0  0  0  0  0
  189.9080  172.8880  136.9570 C   0  0  0  0  0  0  0  0  0  0  0  0
  191.2350  172.7010  137.0050 C   0  0  0  0  0  3  0  0  0  0  0  0
  189.2300  172.2410  139.2670 C   0  0  0  0  0  3  0  0  0  0  0  0
  193.5570  171.3500  137.4930 Cl  0  0  0  0  0  0  0  0  0  0  0  0
  192.0290  172.0220  138.0430 C   0  0  0  0  0  0  0  0  0  0  0  0
  188.9710  172.3820  137.9760 C   0  0  0  0  0  3  0  0  0  0  0  0
  191.6990  171.9430  139.3400 C   0  0  0  0  0  0  0  0  0  0  0  0
  190.1170  173.1950  143.6040 C   0  0  0  0  0  2  0  0  0  0  0  0
  190.2260  172.4730  142.2850 C   0  0  0  0  0  0  0  0  0  0  0  0
  188.6900  175.1450  144.3790 N   0  0  0  0  0  0  0  0  0  0  0  0
  189.8220  175.2260  142.3060 N   0  0  0  0  0  0  0  0  0  0  0  0
  190.6960  174.6630  141.2770 C   0  0  0  0  0  2  0  0  0  0  0  0
  190.4700  173.1740  141.1570 C   0  0  0  0  0  0  0  0  0  0  0  0
  190.1120  170.9840  142.2830 C   0  0  0  0  0  1  0  0  0  0  0  0
  189.5540  174.5740  143.4000 C   0  0  0  0  0  0  0  0  0  0  0  0
  187.9740  176.3130  144.0970 N   0  0  0  0  0  0  0  0  0  0  0  0
  186.2740  177.3140  147.2630 C   0  0  0  0  0  3  0  0  0  0  0  0
  188.6180  175.9670  147.0170 Cl  0  0  0  0  0  0  0  0  0  0  0  0
  186.9960  176.8860  144.9760 C   0  0  0  0  0  0  0  0  0  0  0  0
  184.9100  178.0600  145.4120 C   0  0  0  0  0  3  0  0  0  0  0  0
  185.8320  177.5370  144.4970 C   0  0  0  0  0  0  0  0  0  0  0  0
  187.1970  176.7710  146.3670 C   0  0  0  0  0  0  0  0  0  0  0  0
  185.1320  177.9570  146.7890 C   0  0  0  0  0  3  0  0  0  0  0  0
  185.4860  177.6060  143.0530 C   0  0  0  0  0  2  0  0  0  0  0  0
  184.1090  178.2090  142.8770 C   0  0  0  0  0  1  0  0  0  0  0  0
  188.7730  174.8540  135.8740 N   0  0  0  0  0  2  0  0  0  0  0  0
  189.3320  173.5460  135.7660 C   0  0  0  0  0  0  0  0  0  0  0  0
  189.3320  172.9610  134.6490 O   0  0  0  0  0  0  0  0  0  0  0  0
  188.2150  175.5040  134.7630 N   0  0  0  0  0  2  0  0  0  0  0  0
  187.8370  177.9110  135.2950 C   0  0  0  0  0  1  0  0  0  0  0  0
  186.0300  176.4380  134.5280 C   0  0  0  0  0  2  0  0  0  0  0  0
  185.2850  176.0340  135.7030 N   0  0  0  0  0  0  0  0  0  0  0  0
  183.8990  175.7130  135.9910 C   0  0  0  0  0  1  0  0  0  0  0  0
  186.5380  176.0920  136.4790 C   0  0  0  0  0  0  0  0  0  0  0  0
  187.2670  176.5030  135.2400 C   0  0  1  0  0  0  0  0  0  0  0  0
  186.8510  175.8920  137.6820 O   0  0  0  0  0  0  0  0  0  0  0  0
  192.5770  171.2440  140.1840 O   0  0  0  0  0  0  0  0  0  0  0  0
  195.1590  173.4860  141.3580 N   0  0  0  0  0  2  0  0  0  0  0  0
  194.3770  172.7300  142.2680 C   0  0  2  0  0  0  0  0  0  0  0  0
  193.8750  171.6920  140.5480 C   0  0  2  0  0  3  0  0  0  0  0  0
  194.3650  170.9270  142.1120 S   0  0  0  0  0  0  0  0  0  0  0  0
  193.8290  173.0740  140.9980 N   0  0  2  0  0  0  0  0  0  0  0  0
  193.6670  173.4480  143.3170 N   0  0  0  0  0  2  0  0  0  0  0  0
  194.6440  173.8870  144.3050 C   0  0  2  0  0  3  0  0  0  0  0  0
  194.3720  173.2030  145.6370 C   0  0  0  0  0  2  0  0  0  0  0  0
  195.1900  171.9570  145.7690 C   0  0  0  0  0  0  0  0  0  0  0  0
  194.5620  170.8140  145.7810 N   0  0  0  0  0  0  0  0  0  0  0  0
  195.3830  168.7620  144.9300 C   0  0  0  0  0  2  0  0  0  0  0  0
  195.1150  169.5080  145.9880 C   0  0  0  0  0  0  0  0  0  0  0  0
  194.9800  168.8210  147.3070 C   0  0  0  0  0  1  0  0  0  0  0  0
  197.4820  171.0000  145.4570 O   0  0  0  0  0  0  0  0  0  0  0  0
  196.6680  172.0860  145.7640 C   0  0  0  0  0  0  0  0  0  0  0  0
  197.1980  173.2100  145.9710 O   0  0  0  0  0  1  0  0  0  0  0  0
  194.5700  175.2730  144.4620 O   0  0  0  0  0  0  0  0  0  0  0  0
  192.5900  176.5850  144.3110 C   0  0  0  0  0  1  0  0  0  0  0  0
  193.5550  175.6730  143.5850 C   0  0  0  0  0  2  0  0  0  0  0  0
  1 14  1  0  0  0  0
  2  3  2  0  0  0  0
  2  7  1  0  0  0  0
  3  6  1  0  0  0  0
  4  1  1  0  0  0  0
  5  6  1  0  0  0  0
  6  8  2  0  0  0  0
  7  4  2  0  0  0  0
  8  1  1  0  0  0  0
  8 38  1  0  0  0  0
 10  9  1  0  0  0  0
 12 16  2  0  0  0  0
 13 12  1  0  0  0  0
 14 13  1  0  0  0  0
 14 10  2  0  0  0  0
 15 10  1  0  0  0  0
 16  9  1  0  0  0  0
 16 11  1  0  0  0  0
 17 11  2  0  0  0  0
 17 20  1  0  0  0  0
 20 23  1  0  0  0  0
 21 24  2  0  0  0  0
 22 20  2  0  0  0  0
 22 21  1  0  0  0  0
 23 19  1  0  0  0  0
 23 18  2  0  0  0  0
 24 18  1  0  0  0  0
 25 22  1  0  0  0  0
 26 25  1  0  0  0  0
 28 27  1  0  0  0  0
 28  2  1  0  0  0  0
 29 28  2  0  0  0  0
 30 36  1  0  0  0  0
 30 27  1  0  0  0  0
 32 36  1  0  0  0  0
 32 33  1  0  0  0  0
 33 34  1  0  0  0  0
 33 35  1  0  0  0  0
 35 37  2  0  0  0  0
 36 31  1  1  0  0  0
 36 35  1  0  0  0  0
 39 40  1  0  0  0  0
 40 44  1  1  0  0  0
 41 38  1  1  0  0  0
 41 43  1  0  0  0  0
 41 42  1  0  0  0  0
 42 40  1  0  0  0  0
 43 39  1  6  0  0  0
 43 40  1  0  0  0  0
 44 45  1  0  0  0  0
 45 55  1  0  0  0  0
 45 46  1  1  0  0  0
 46 47  1  0  0  0  0
 47 48  2  0  0  0  0
 48 50  1  0  0  0  0
 49 50  2  0  0  0  0
 50 51  1  0  0  0  0
 52 53  2  0  0  0  0
 53 47  1  0  0  0  0
 53 54  1  0  0  0  0
 57 56  1  0  0  0  0
 57 55  1  0  0  0  0
M  END
>  <MODEL>
9

>  <REMARK>
 VINA RESULT:      -6.5      4.028      8.389
  Name = 
  17 active torsions:
  status: ('A' for Active; 'I' for Inactive)
    1  A    between atoms: N_2  and  N_30
    2  A    between atoms: C_7  and  N_32
    3  A    between atoms: CA_8  and  C_27
    4  A    between atoms: CA_8  and  C_29
    5  A    between atoms: C_9  and  C_45
    6  A    between atoms: N_10  and  C_40
    7  A    between atoms: C_11  and  C_23
    8  A    between atoms: C_12  and  O_14
    9  A    between atoms: C_12  and  N_19
   10  A    between atoms: C_12  and  C_27
   11  A    between atoms: N_13  and  C_26
   12  A    between atoms: N_13  and  N_28
   13  A    between atoms: O_14  and  C_53
   14  A    between atoms: N_19  and  C_24
   15  A    between atoms: C_25  and  O_50
   16  A    between atoms: N_30  and  C_46
   17  A    between atoms: O_50  and  C_56
                            x       y       z     vdW  Elec       q    Type
                         _______ _______ _______ _____ _____    ______ ____

>  <TORSDO>
F 17

$$$$
