=
 OpenBabel11042415473D

 54 57  0  0  1  0  0  0  0  0999 V2000
  188.2340  176.1000  146.4420 C   0  0  0  0  0  0  0  0  0  0  0  0
  186.0350  177.0740  146.4750 C   0  0  0  0  0  0  0  0  0  0  0  0
  187.3200  176.7910  145.7980 C   0  0  0  0  0  0  0  0  0  0  0  0
  187.2210  178.5350  144.0650 C   0  0  0  0  0  3  0  0  0  0  0  0
  184.9140  177.6590  145.7980 N   0  0  0  0  0  0  0  0  0  0  0  0
  187.4500  177.0810  144.3240 C   0  0  1  0  0  3  0  0  0  0  0  0
  188.7510  174.2000  147.6260 F   0  0  0  0  0  0  0  0  0  0  0  0
  189.1240  175.3900  147.0890 C   0  0  0  0  0  0  0  0  0  0  0  0
  184.8950  178.5080  144.8090 C   0  0  0  0  0  0  0  0  0  0  0  0
  186.0810  179.1160  144.2750 N   0  0  0  0  0  0  0  0  0  0  0  0
  185.8810  176.7210  147.6760 O   0  0  0  0  0  0  0  0  0  0  0  0
  183.6350  178.9890  144.3600 N   0  0  0  0  0  1  0  0  0  0  0  0
  188.7550  175.5210  142.9310 C   0  0  0  0  0  0  0  0  0  0  0  0
  189.9510  177.4450  143.7650 C   0  0  0  0  0  1  0  0  0  0  0  0
  188.7280  176.5970  143.6760 C   0  0  0  0  0  0  0  0  0  0  0  0
  188.7590  174.4380  142.2060 C   0  0  0  0  0  3  0  0  0  0  0  0
  189.1800  173.1440  142.8100 C   0  0  0  0  0  2  0  0  0  0  0  0
  190.3030  172.5190  141.9870 C   0  0  2  0  0  3  0  0  0  0  0  0
  189.9040  172.4290  140.5180 C   0  0  0  0  0  2  0  0  0  0  0  0
  190.7100  173.4140  139.6930 C   0  0  0  0  0  2  0  0  0  0  0  0
  191.9730  173.7830  140.4380 C   0  0  0  0  0  1  0  0  0  0  0  0
  190.6860  171.1480  142.5360 C   0  0  0  0  0  2  0  0  0  0  0  0
  191.8800  171.2260  143.3650 N   0  0  0  0  0  2  0  0  0  0  0  0
  193.0130  171.2280  142.4560 C   0  0  0  0  0  2  0  0  0  0  0  0
  194.1580  172.0270  143.0610 C   0  0  0  0  0  2  0  0  0  0  0  0
  195.1960  171.1040  143.6980 C   0  0  0  0  0  2  0  0  0  0  0  0
  195.2820  171.2480  145.2220 C   0  0  2  0  0  3  0  0  0  0  0  0
  194.3150  172.2970  145.7480 C   0  0  0  0  0  1  0  0  0  0  0  0
  196.6970  171.5490  145.6950 C   0  0  0  0  0  2  0  0  0  0  0  0
  196.8360  173.0060  146.1140 C   0  0  0  0  0  2  0  0  0  0  0  0
  197.5290  173.7190  145.1330 O   0  0  0  0  0  1  0  0  0  0  0  0
  190.5130  175.8470  147.2380 C   0  0  0  0  0  0  0  0  0  0  0  0
  190.7980  176.8080  148.0050 O   0  0  0  0  0  0  0  0  0  0  0  0
  191.5430  175.1790  146.5090 N   0  0  0  0  0  2  0  0  0  0  0  0
  193.0230  175.6080  144.1250 C   0  0  0  0  0  3  0  0  0  0  0  0
  193.6230  175.7960  145.4640 C   0  0  0  0  0  0  0  0  0  0  0  0
  193.7580  175.7440  143.0210 C   0  0  0  0  0  3  0  0  0  0  0  0
  195.2360  176.0240  143.0980 C   0  0  2  0  0  3  0  0  0  0  0  0
  192.9140  175.5780  146.5690 C   0  0  0  0  0  3  0  0  0  0  0  0
  195.5570  176.8880  144.3170 C   0  0  0  0  0  2  0  0  0  0  0  0
  195.0690  176.1910  145.5900 C   0  0  0  0  0  2  0  0  0  0  0  0
  195.6570  176.6680  141.9330 O   0  0  0  0  0  0  0  0  0  0  0  0
  195.0650  175.9560  140.8880 C   0  0  0  0  0  2  0  0  0  0  0  0
  196.1360  175.2460  140.0860 C   0  0  0  0  0  2  0  0  0  0  0  0
  197.3790  175.0610  136.9620 O   0  0  0  0  0  0  0  0  0  0  0  0
  197.6310  173.6910  136.7700 C   0  0  0  0  0  2  0  0  0  0  0  0
  195.5700  173.9470  139.5030 C   0  0  2  0  0  3  0  0  0  0  0  0
  196.0080  175.1460  137.2470 C   0  0  0  0  0  2  0  0  0  0  0  0
  196.4190  172.7400  139.8680 C   0  0  2  0  0  3  0  0  0  0  0  0
  196.6950  172.9020  137.6600 C   0  0  2  0  0  3  0  0  0  0  0  0
  195.5960  173.8780  137.9800 C   0  0  1  0  0  0  0  0  0  0  0  0
  197.0580  172.8860  141.1010 O   0  0  0  0  0  1  0  0  0  0  0  0
  197.3620  172.5510  138.8480 O   0  0  0  0  0  0  0  0  0  0  0  0
  194.2650  173.3720  137.4540 C   0  0  0  0  0  1  0  0  0  0  0  0
  1  8  2  0  0  0  0
  2 11  2  0  0  0  0
  3  1  2  0  0  0  0
  3  2  1  0  0  0  0
  4 10  2  0  0  0  0
  4  6  1  0  0  0  0
  5  2  1  0  0  0  0
  6 15  1  1  0  0  0
  6  3  1  0  0  0  0
  8 32  1  0  0  0  0
  8  7  1  0  0  0  0
  9  5  2  0  0  0  0
 10  9  1  0  0  0  0
 12  9  1  0  0  0  0
 13 15  2  0  0  0  0
 15 14  1  0  0  0  0
 16 17  1  0  0  0  0
 16 13  2  0  0  0  0
 18 19  1  6  0  0  0
 18 22  1  0  0  0  0
 18 17  1  0  0  0  0
 20 21  1  0  0  0  0
 20 19  1  0  0  0  0
 22 23  1  0  0  0  0
 24 25  1  0  0  0  0
 24 23  1  0  0  0  0
 25 26  1  0  0  0  0
 26 27  1  0  0  0  0
 27 29  1  0  0  0  0
 27 28  1  6  0  0  0
 29 30  1  0  0  0  0
 31 30  1  0  0  0  0
 32 33  2  0  0  0  0
 34 39  1  0  0  0  0
 34 32  1  0  0  0  0
 35 36  1  0  0  0  0
 36 41  1  0  0  0  0
 36 39  2  0  0  0  0
 37 38  1  0  0  0  0
 37 35  2  0  0  0  0
 38 42  1  6  0  0  0
 38 40  1  0  0  0  0
 40 41  1  0  0  0  0
 43 42  1  0  0  0  0
 44 43  1  0  0  0  0
 45 48  1  0  0  0  0
 46 45  1  0  0  0  0
 47 49  1  0  0  0  0
 47 44  1  6  0  0  0
 48 51  1  0  0  0  0
 49 52  1  1  0  0  0
 50 46  1  6  0  0  0
 50 51  1  0  0  0  0
 50 53  1  0  0  0  0
 51 54  1  6  0  0  0
 51 47  1  0  0  0  0
 53 49  1  0  0  0  0
M  END
>  <MODEL>
1

>  <REMARK>
 VINA RESULT:      -6.6      0.000      0.000
  Name = 
  19 active torsions:
  status: ('A' for Active; 'I' for Inactive)
    1  A    between atoms: C_1  and  C_42
    2  A    between atoms: C_1  and  C_44
    3  A    between atoms: C_5  and  N_7
    4  A    between atoms: C_5  and  C_32
    5  A    between atoms: N_7  and  C_54
    6  A    between atoms: C_8  and  C_25
    7  A    between atoms: C_9  and  C_39
    8  A    between atoms: C_10  and  C_19
    9  A    between atoms: C_13  and  C_43
   10  A    between atoms: C_18  and  C_39
   11  A    between atoms: C_18  and  C_51
   12  A    between atoms: C_25  and  C_42
   13  A    between atoms: O_28  and  C_33
   14  A    between atoms: O_28  and  C_45
   15  A    between atoms: C_30  and  C_37
   16  A    between atoms: C_32  and  C_51
   17  A    between atoms: C_34  and  N_40
   18  A    between atoms: C_37  and  C_45
   19  A    between atoms: C_42  and  C_54
                            x       y       z     vdW  Elec       q    Type
                         _______ _______ _______ _____ _____    ______ ____

>  <TORSDO>
F 19

$$$$
=
 OpenBabel11042415473D

 54 57  0  0  1  0  0  0  0  0999 V2000
  188.2070  176.0300  146.5680 C   0  0  0  0  0  0  0  0  0  0  0  0
  186.0190  177.0050  146.7870 C   0  0  0  0  0  0  0  0  0  0  0  0
  187.2580  176.7540  146.0180 C   0  0  0  0  0  0  0  0  0  0  0  0
  187.0600  178.5840  144.3830 C   0  0  0  0  0  3  0  0  0  0  0  0
  184.8610  177.6250  146.2110 N   0  0  0  0  0  0  0  0  0  0  0  0
  187.2980  177.1170  144.5550 C   0  0  1  0  0  3  0  0  0  0  0  0
  188.7870  174.0720  147.6200 F   0  0  0  0  0  0  0  0  0  0  0  0
  189.1320  175.2870  147.1210 C   0  0  0  0  0  0  0  0  0  0  0  0
  184.7850  178.5230  145.2690 C   0  0  0  0  0  0  0  0  0  0  0  0
  185.9390  179.1550  144.6940 N   0  0  0  0  0  0  0  0  0  0  0  0
  185.9380  176.5920  147.9750 O   0  0  0  0  0  0  0  0  0  0  0  0
  183.5020  179.0290  144.9240 N   0  0  0  0  0  1  0  0  0  0  0  0
  188.4770  175.7120  142.9080 C   0  0  0  0  0  0  0  0  0  0  0  0
  189.8040  177.4190  143.9810 C   0  0  0  0  0  1  0  0  0  0  0  0
  188.5310  176.6650  143.8050 C   0  0  0  0  0  0  0  0  0  0  0  0
  188.4000  174.7510  142.0320 C   0  0  0  0  0  3  0  0  0  0  0  0
  188.7560  173.3600  142.4250 C   0  0  0  0  0  2  0  0  0  0  0  0
  189.6800  172.7370  141.3830 C   0  0  2  0  0  3  0  0  0  0  0  0
  191.1380  172.8840  141.8040 C   0  0  0  0  0  2  0  0  0  0  0  0
  191.3860  172.1510  143.1080 C   0  0  0  0  0  2  0  0  0  0  0  0
  192.2380  170.9290  142.8470 C   0  0  0  0  0  1  0  0  0  0  0  0
  189.4430  173.3480  140.0040 C   0  0  0  0  0  2  0  0  0  0  0  0
  188.4700  172.5770  139.2460 N   0  0  0  0  0  2  0  0  0  0  0  0
  188.2970  173.2650  137.9780 C   0  0  0  0  0  2  0  0  0  0  0  0
  189.5170  173.0360  137.0970 C   0  0  0  0  0  2  0  0  0  0  0  0
  189.4160  171.7060  136.3530 C   0  0  0  0  0  2  0  0  0  0  0  0
  190.4410  170.6680  136.8230 C   0  0  2  0  0  3  0  0  0  0  0  0
  191.2000  170.0530  135.6580 C   0  0  0  0  0  1  0  0  0  0  0  0
  189.8100  169.5770  137.6780 C   0  0  0  0  0  2  0  0  0  0  0  0
  190.4850  169.4890  139.0390 C   0  0  0  0  0  2  0  0  0  0  0  0
  191.4310  170.5090  139.1680 O   0  0  0  0  0  1  0  0  0  0  0  0
  190.5300  175.7320  147.2060 C   0  0  0  0  0  0  0  0  0  0  0  0
  190.8290  176.8120  147.7870 O   0  0  0  0  0  0  0  0  0  0  0  0
  191.5510  174.9180  146.6290 N   0  0  0  0  0  2  0  0  0  0  0  0
  192.9240  175.4090  144.1930 C   0  0  0  0  0  3  0  0  0  0  0  0
  193.5900  175.5380  145.5070 C   0  0  0  0  0  0  0  0  0  0  0  0
  193.6070  175.5730  143.0600 C   0  0  0  0  0  3  0  0  0  0  0  0
  195.0910  175.8250  143.0750 C   0  0  2  0  0  3  0  0  0  0  0  0
  192.9310  175.2920  146.6370 C   0  0  0  0  0  3  0  0  0  0  0  0
  195.4870  176.6380  144.3060 C   0  0  0  0  0  2  0  0  0  0  0  0
  195.0480  175.9040  145.5760 C   0  0  0  0  0  2  0  0  0  0  0  0
  195.4690  176.5030  141.9140 O   0  0  0  0  0  0  0  0  0  0  0  0
  194.7000  175.9380  140.8950 C   0  0  0  0  0  2  0  0  0  0  0  0
  195.4310  174.7490  140.3070 C   0  0  0  0  0  2  0  0  0  0  0  0
  196.5340  173.6520  137.3190 O   0  0  0  0  0  0  0  0  0  0  0  0
  196.2510  172.2750  137.3300 C   0  0  0  0  0  2  0  0  0  0  0  0
  194.4210  173.6830  139.8700 C   0  0  2  0  0  3  0  0  0  0  0  0
  195.2940  174.2830  137.5050 C   0  0  0  0  0  2  0  0  0  0  0  0
  194.7480  172.3160  140.4460 C   0  0  2  0  0  3  0  0  0  0  0  0
  195.0800  172.0330  138.2580 C   0  0  2  0  0  3  0  0  0  0  0  0
  194.4300  173.3840  138.3750 C   0  0  1  0  0  0  0  0  0  0  0  0
  195.3870  172.3940  141.6860 O   0  0  0  0  0  1  0  0  0  0  0  0
  195.5570  171.6390  139.5220 O   0  0  0  0  0  0  0  0  0  0  0  0
  193.0090  173.3390  137.8400 C   0  0  0  0  0  1  0  0  0  0  0  0
  1  8  2  0  0  0  0
  2 11  2  0  0  0  0
  3  1  2  0  0  0  0
  3  2  1  0  0  0  0
  4  6  1  0  0  0  0
  4 10  2  0  0  0  0
  5  2  1  0  0  0  0
  6 15  1  1  0  0  0
  6  3  1  0  0  0  0
  8 32  1  0  0  0  0
  8  7  1  0  0  0  0
  9  5  2  0  0  0  0
 10  9  1  0  0  0  0
 12  9  1  0  0  0  0
 13 15  2  0  0  0  0
 15 14  1  0  0  0  0
 16 17  1  0  0  0  0
 16 13  2  0  0  0  0
 18 22  1  6  0  0  0
 18 19  1  0  0  0  0
 18 17  1  0  0  0  0
 19 20  1  0  0  0  0
 21 20  1  0  0  0  0
 23 22  1  0  0  0  0
 24 23  1  0  0  0  0
 25 24  1  0  0  0  0
 26 27  1  0  0  0  0
 26 25  1  0  0  0  0
 27 28  1  6  0  0  0
 27 29  1  0  0  0  0
 29 30  1  0  0  0  0
 30 31  1  0  0  0  0
 32 33  2  0  0  0  0
 34 39  1  0  0  0  0
 34 32  1  0  0  0  0
 35 36  1  0  0  0  0
 36 41  1  0  0  0  0
 36 39  2  0  0  0  0
 37 38  1  0  0  0  0
 37 35  2  0  0  0  0
 38 42  1  6  0  0  0
 38 40  1  0  0  0  0
 40 41  1  0  0  0  0
 43 42  1  0  0  0  0
 44 43  1  0  0  0  0
 45 46  1  0  0  0  0
 45 48  1  0  0  0  0
 47 44  1  6  0  0  0
 47 49  1  0  0  0  0
 48 51  1  0  0  0  0
 49 52  1  1  0  0  0
 50 46  1  6  0  0  0
 50 51  1  0  0  0  0
 50 53  1  0  0  0  0
 51 54  1  6  0  0  0
 51 47  1  0  0  0  0
 53 49  1  0  0  0  0
M  END
>  <MODEL>
2

>  <REMARK>
 VINA RESULT:      -6.4      1.932      3.878
  Name = 
  19 active torsions:
  status: ('A' for Active; 'I' for Inactive)
    1  A    between atoms: C_1  and  C_42
    2  A    between atoms: C_1  and  C_44
    3  A    between atoms: C_5  and  N_7
    4  A    between atoms: C_5  and  C_32
    5  A    between atoms: N_7  and  C_54
    6  A    between atoms: C_8  and  C_25
    7  A    between atoms: C_9  and  C_39
    8  A    between atoms: C_10  and  C_19
    9  A    between atoms: C_13  and  C_43
   10  A    between atoms: C_18  and  C_39
   11  A    between atoms: C_18  and  C_51
   12  A    between atoms: C_25  and  C_42
   13  A    between atoms: O_28  and  C_33
   14  A    between atoms: O_28  and  C_45
   15  A    between atoms: C_30  and  C_37
   16  A    between atoms: C_32  and  C_51
   17  A    between atoms: C_34  and  N_40
   18  A    between atoms: C_37  and  C_45
   19  A    between atoms: C_42  and  C_54
                            x       y       z     vdW  Elec       q    Type
                         _______ _______ _______ _____ _____    ______ ____

>  <TORSDO>
F 19

$$$$
=
 OpenBabel11042415473D

 54 57  0  0  1  0  0  0  0  0999 V2000
  188.0150  176.2640  146.1120 C   0  0  0  0  0  0  0  0  0  0  0  0
  185.8230  177.2370  145.9330 C   0  0  0  0  0  0  0  0  0  0  0  0
  187.1210  176.8420  145.3420 C   0  0  0  0  0  0  0  0  0  0  0  0
  187.0740  178.2770  143.3430 C   0  0  0  0  0  3  0  0  0  0  0  0
  184.7220  177.7060  145.1420 N   0  0  0  0  0  0  0  0  0  0  0  0
  187.2870  176.8850  143.8440 C   0  0  1  0  0  3  0  0  0  0  0  0
  188.4920  174.5830  147.6040 F   0  0  0  0  0  0  0  0  0  0  0  0
  188.8850  175.6670  146.8880 C   0  0  0  0  0  0  0  0  0  0  0  0
  184.7320  178.3810  144.0270 C   0  0  0  0  0  0  0  0  0  0  0  0
  185.9340  178.8890  143.4280 N   0  0  0  0  0  0  0  0  0  0  0  0
  185.6390  177.0870  147.1710 O   0  0  0  0  0  0  0  0  0  0  0  0
  183.4860  178.7860  143.4750 N   0  0  0  0  0  1  0  0  0  0  0  0
  188.6090  175.1170  142.7470 C   0  0  0  0  0  0  0  0  0  0  0  0
  189.8050  177.1390  143.3030 C   0  0  0  0  0  1  0  0  0  0  0  0
  188.5750  176.2960  143.3140 C   0  0  0  0  0  0  0  0  0  0  0  0
  188.6190  173.9340  142.2020 C   0  0  0  0  0  3  0  0  0  0  0  0
  189.0110  172.7470  143.0120 C   0  0  0  0  0  2  0  0  0  0  0  0
  190.4520  172.3510  142.7050 C   0  0  2  0  0  3  0  0  0  0  0  0
  191.1440  173.4370  141.8880 C   0  0  0  0  0  2  0  0  0  0  0  0
  192.3390  173.9840  142.6450 C   0  0  0  0  0  2  0  0  0  0  0  0
  192.7510  175.3110  142.0480 C   0  0  0  0  0  1  0  0  0  0  0  0
  190.5090  171.0050  141.9870 C   0  0  0  0  0  2  0  0  0  0  0  0
  191.2540  171.1030  140.7410 N   0  0  0  0  0  2  0  0  0  0  0  0
  190.5810  170.2340  139.7900 C   0  0  0  0  0  2  0  0  0  0  0  0
  190.2950  170.9980  138.5060 C   0  0  0  0  0  2  0  0  0  0  0  0
  189.1000  171.9340  138.6790 C   0  0  0  0  0  2  0  0  0  0  0  0
  189.4710  173.4180  138.5770 C   0  0  2  0  0  3  0  0  0  0  0  0
  188.2390  174.3060  138.4930 C   0  0  0  0  0  1  0  0  0  0  0  0
  190.4070  173.7010  137.4090 C   0  0  0  0  0  2  0  0  0  0  0  0
  189.6250  174.0940  136.1640 C   0  0  0  0  0  2  0  0  0  0  0  0
  190.1790  175.2450  135.5990 O   0  0  0  0  0  1  0  0  0  0  0  0
  190.2740  176.1370  146.9920 C   0  0  0  0  0  0  0  0  0  0  0  0
  190.5530  177.1880  147.6330 O   0  0  0  0  0  0  0  0  0  0  0  0
  191.3090  175.3790  146.3660 N   0  0  0  0  0  2  0  0  0  0  0  0
  193.3610  173.5400  145.6810 C   0  0  0  0  0  3  0  0  0  0  0  0
  193.6570  174.9380  146.0610 C   0  0  0  0  0  0  0  0  0  0  0  0
  194.3450  172.6740  145.4350 C   0  0  0  0  0  3  0  0  0  0  0  0
  195.7880  173.0670  145.6020 C   0  0  2  0  0  3  0  0  0  0  0  0
  192.6810  175.7810  146.3900 C   0  0  0  0  0  3  0  0  0  0  0  0
  195.9890  174.5410  145.2510 C   0  0  0  0  0  2  0  0  0  0  0  0
  195.0840  175.4110  146.1280 C   0  0  0  0  0  2  0  0  0  0  0  0
  196.5940  172.2700  144.7880 O   0  0  0  0  0  0  0  0  0  0  0  0
  196.5230  172.8520  143.5210 C   0  0  0  0  0  2  0  0  0  0  0  0
  196.5050  171.7680  142.4630 C   0  0  0  0  0  2  0  0  0  0  0  0
  197.0960  170.7450  139.3090 O   0  0  0  0  0  0  0  0  0  0  0  0
  196.0000  169.9190  139.0030 C   0  0  0  0  0  2  0  0  0  0  0  0
  195.1310  171.7260  141.7880 C   0  0  2  0  0  3  0  0  0  0  0  0
  196.5370  171.9920  139.6280 C   0  0  0  0  0  2  0  0  0  0  0  0
  194.4130  170.4090  142.0380 C   0  0  2  0  0  3  0  0  0  0  0  0
  194.8210  170.3540  139.8440 C   0  0  2  0  0  3  0  0  0  0  0  0
  195.1770  171.7540  140.2650 C   0  0  1  0  0  0  0  0  0  0  0  0
  194.7520  169.8370  143.2650 O   0  0  0  0  0  1  0  0  0  0  0  0
  194.7320  169.5370  140.9870 O   0  0  0  0  0  0  0  0  0  0  0  0
  194.1610  172.7460  139.7270 C   0  0  0  0  0  1  0  0  0  0  0  0
  1  8  2  0  0  0  0
  2 11  2  0  0  0  0
  3  2  1  0  0  0  0
  3  1  2  0  0  0  0
  4 10  2  0  0  0  0
  4  6  1  0  0  0  0
  5  2  1  0  0  0  0
  6 15  1  1  0  0  0
  6  3  1  0  0  0  0
  8 32  1  0  0  0  0
  8  7  1  0  0  0  0
  9  5  2  0  0  0  0
 10  9  1  0  0  0  0
 12  9  1  0  0  0  0
 13 15  2  0  0  0  0
 14 15  1  0  0  0  0
 16 13  2  0  0  0  0
 16 17  1  0  0  0  0
 18 19  1  6  0  0  0
 18 17  1  0  0  0  0
 19 20  1  0  0  0  0
 21 20  1  0  0  0  0
 22 18  1  0  0  0  0
 23 22  1  0  0  0  0
 24 23  1  0  0  0  0
 25 26  1  0  0  0  0
 25 24  1  0  0  0  0
 27 28  1  6  0  0  0
 27 26  1  0  0  0  0
 29 27  1  0  0  0  0
 30 29  1  0  0  0  0
 31 30  1  0  0  0  0
 32 33  2  0  0  0  0
 34 39  1  0  0  0  0
 34 32  1  0  0  0  0
 35 36  1  0  0  0  0
 36 41  1  0  0  0  0
 36 39  2  0  0  0  0
 37 38  1  0  0  0  0
 37 35  2  0  0  0  0
 38 42  1  6  0  0  0
 40 38  1  0  0  0  0
 40 41  1  0  0  0  0
 43 42  1  0  0  0  0
 44 43  1  0  0  0  0
 45 48  1  0  0  0  0
 46 45  1  0  0  0  0
 47 49  1  0  0  0  0
 47 44  1  1  0  0  0
 48 51  1  0  0  0  0
 49 52  1  1  0  0  0
 50 46  1  6  0  0  0
 50 51  1  0  0  0  0
 50 53  1  0  0  0  0
 51 54  1  6  0  0  0
 51 47  1  0  0  0  0
 53 49  1  0  0  0  0
M  END
>  <MODEL>
3

>  <REMARK>
 VINA RESULT:      -6.4      1.996      4.319
  Name = 
  19 active torsions:
  status: ('A' for Active; 'I' for Inactive)
    1  A    between atoms: C_1  and  C_42
    2  A    between atoms: C_1  and  C_44
    3  A    between atoms: C_5  and  N_7
    4  A    between atoms: C_5  and  C_32
    5  A    between atoms: N_7  and  C_54
    6  A    between atoms: C_8  and  C_25
    7  A    between atoms: C_9  and  C_39
    8  A    between atoms: C_10  and  C_19
    9  A    between atoms: C_13  and  C_43
   10  A    between atoms: C_18  and  C_39
   11  A    between atoms: C_18  and  C_51
   12  A    between atoms: C_25  and  C_42
   13  A    between atoms: O_28  and  C_33
   14  A    between atoms: O_28  and  C_45
   15  A    between atoms: C_30  and  C_37
   16  A    between atoms: C_32  and  C_51
   17  A    between atoms: C_34  and  N_40
   18  A    between atoms: C_37  and  C_45
   19  A    between atoms: C_42  and  C_54
                            x       y       z     vdW  Elec       q    Type
                         _______ _______ _______ _____ _____    ______ ____

>  <TORSDO>
F 19

$$$$
=
 OpenBabel11042415473D

 54 57  0  0  1  0  0  0  0  0999 V2000
  188.1030  176.2730  145.5840 C   0  0  0  0  0  0  0  0  0  0  0  0
  185.9160  177.2740  145.5660 C   0  0  0  0  0  0  0  0  0  0  0  0
  187.1410  176.8170  144.8730 C   0  0  0  0  0  0  0  0  0  0  0  0
  186.9060  178.1220  142.8000 C   0  0  0  0  0  3  0  0  0  0  0  0
  184.7450  177.7120  144.8620 N   0  0  0  0  0  0  0  0  0  0  0  0
  187.1530  176.7610  143.3660 C   0  0  1  0  0  3  0  0  0  0  0  0
  188.7090  174.6820  147.1270 F   0  0  0  0  0  0  0  0  0  0  0  0
  189.0400  175.7100  146.3050 C   0  0  0  0  0  0  0  0  0  0  0  0
  184.6490  178.3130  143.7100 C   0  0  0  0  0  0  0  0  0  0  0  0
  185.7890  178.7600  142.9610 N   0  0  0  0  0  0  0  0  0  0  0  0
  185.8590  177.2070  146.8240 O   0  0  0  0  0  0  0  0  0  0  0  0
  183.3580  178.7060  143.2630 N   0  0  0  0  0  1  0  0  0  0  0  0
  188.3590  174.8720  142.3400 C   0  0  0  0  0  0  0  0  0  0  0  0
  189.5700  176.9560  142.4610 C   0  0  0  0  0  1  0  0  0  0  0  0
  188.3730  176.1160  142.7480 C   0  0  0  0  0  0  0  0  0  0  0  0
  188.3240  173.6270  141.9560 C   0  0  0  0  0  3  0  0  0  0  0  0
  188.8480  172.5600  142.8530 C   0  0  0  0  0  2  0  0  0  0  0  0
  189.9530  171.7770  142.1510 C   0  0  2  0  0  3  0  0  0  0  0  0
  191.2630  171.8900  142.9220 C   0  0  0  0  0  2  0  0  0  0  0  0
  191.6560  170.5400  143.4920 C   0  0  0  0  0  2  0  0  0  0  0  0
  192.4060  169.7480  142.4440 C   0  0  0  0  0  1  0  0  0  0  0  0
  190.1240  172.2430  140.7070 C   0  0  0  0  0  2  0  0  0  0  0  0
  190.3030  171.1150  139.8060 N   0  0  0  0  0  2  0  0  0  0  0  0
  190.6090  171.6760  138.5010 C   0  0  0  0  0  2  0  0  0  0  0  0
  190.2780  173.1610  138.4870 C   0  0  0  0  0  2  0  0  0  0  0  0
  189.3730  173.5100  137.3060 C   0  0  0  0  0  2  0  0  0  0  0  0
  190.0330  174.4550  136.2950 C   0  0  2  0  0  3  0  0  0  0  0  0
  189.0080  175.1270  135.3950 C   0  0  0  0  0  1  0  0  0  0  0  0
  191.0950  173.7550  135.4570 C   0  0  0  0  0  2  0  0  0  0  0  0
  192.4710  174.3550  135.7060 C   0  0  0  0  0  2  0  0  0  0  0  0
  192.3700  175.4250  136.5980 O   0  0  0  0  0  1  0  0  0  0  0  0
  190.4380  176.1590  146.2370 C   0  0  0  0  0  0  0  0  0  0  0  0
  190.7310  177.2860  145.7500 O   0  0  0  0  0  0  0  0  0  0  0  0
  191.4650  175.3050  146.7400 N   0  0  0  0  0  2  0  0  0  0  0  0
  193.3380  173.5340  145.5490 C   0  0  0  0  0  3  0  0  0  0  0  0
  193.7440  174.8380  146.1180 C   0  0  0  0  0  0  0  0  0  0  0  0
  194.2450  172.6880  145.0610 C   0  0  0  0  0  3  0  0  0  0  0  0
  195.7170  172.9960  145.1350 C   0  0  2  0  0  3  0  0  0  0  0  0
  192.8510  175.6480  146.6830 C   0  0  0  0  0  3  0  0  0  0  0  0
  195.9600  174.5000  145.0100 C   0  0  0  0  0  2  0  0  0  0  0  0
  195.1940  175.2420  146.1090 C   0  0  0  0  0  2  0  0  0  0  0  0
  196.3940  172.3190  144.1200 O   0  0  0  0  0  0  0  0  0  0  0  0
  195.3960  171.8520  143.2620 C   0  0  0  0  0  2  0  0  0  0  0  0
  195.5190  172.5390  141.9180 C   0  0  0  0  0  2  0  0  0  0  0  0
  195.9350  175.4820  140.3340 O   0  0  0  0  0  0  0  0  0  0  0  0
  195.0670  175.4070  139.2300 C   0  0  0  0  0  2  0  0  0  0  0  0
  194.1280  172.9210  141.4020 C   0  0  2  0  0  3  0  0  0  0  0  0
  195.1130  175.3170  141.4600 C   0  0  0  0  0  2  0  0  0  0  0  0
  193.8240  172.2850  140.0550 C   0  0  2  0  0  3  0  0  0  0  0  0
  193.9370  174.4610  139.5730 C   0  0  2  0  0  3  0  0  0  0  0  0
  193.9620  174.4000  141.0750 C   0  0  1  0  0  0  0  0  0  0  0  0
  194.4630  171.0550  139.8850 O   0  0  0  0  0  1  0  0  0  0  0  0
  194.2210  173.1840  139.0540 O   0  0  0  0  0  0  0  0  0  0  0  0
  192.6570  174.9230  141.6510 C   0  0  0  0  0  1  0  0  0  0  0  0
  1  8  2  0  0  0  0
  2 11  2  0  0  0  0
  3  2  1  0  0  0  0
  3  1  2  0  0  0  0
  4 10  2  0  0  0  0
  4  6  1  0  0  0  0
  5  2  1  0  0  0  0
  6 15  1  1  0  0  0
  6  3  1  0  0  0  0
  8  7  1  0  0  0  0
  9  5  2  0  0  0  0
 10  9  1  0  0  0  0
 12  9  1  0  0  0  0
 13 15  2  0  0  0  0
 14 15  1  0  0  0  0
 16 13  2  0  0  0  0
 16 17  1  0  0  0  0
 18 22  1  6  0  0  0
 18 17  1  0  0  0  0
 18 19  1  0  0  0  0
 19 20  1  0  0  0  0
 21 20  1  0  0  0  0
 23 22  1  0  0  0  0
 24 23  1  0  0  0  0
 25 24  1  0  0  0  0
 26 25  1  0  0  0  0
 27 28  1  6  0  0  0
 27 26  1  0  0  0  0
 29 30  1  0  0  0  0
 29 27  1  0  0  0  0
 30 31  1  0  0  0  0
 32  8  1  0  0  0  0
 32 34  1  0  0  0  0
 33 32  2  0  0  0  0
 35 36  1  0  0  0  0
 36 39  2  0  0  0  0
 37 38  1  0  0  0  0
 37 35  2  0  0  0  0
 38 42  1  6  0  0  0
 39 34  1  0  0  0  0
 40 38  1  0  0  0  0
 40 41  1  0  0  0  0
 41 36  1  0  0  0  0
 43 42  1  0  0  0  0
 44 43  1  0  0  0  0
 45 48  1  0  0  0  0
 46 45  1  0  0  0  0
 47 44  1  6  0  0  0
 49 52  1  6  0  0  0
 49 47  1  0  0  0  0
 50 46  1  6  0  0  0
 50 51  1  0  0  0  0
 51 47  1  0  0  0  0
 51 48  1  0  0  0  0
 51 54  1  1  0  0  0
 53 50  1  0  0  0  0
 53 49  1  0  0  0  0
M  END
>  <MODEL>
4

>  <REMARK>
 VINA RESULT:      -6.4      1.979      4.521
  Name = 
  19 active torsions:
  status: ('A' for Active; 'I' for Inactive)
    1  A    between atoms: C_1  and  C_42
    2  A    between atoms: C_1  and  C_44
    3  A    between atoms: C_5  and  N_7
    4  A    between atoms: C_5  and  C_32
    5  A    between atoms: N_7  and  C_54
    6  A    between atoms: C_8  and  C_25
    7  A    between atoms: C_9  and  C_39
    8  A    between atoms: C_10  and  C_19
    9  A    between atoms: C_13  and  C_43
   10  A    between atoms: C_18  and  C_39
   11  A    between atoms: C_18  and  C_51
   12  A    between atoms: C_25  and  C_42
   13  A    between atoms: O_28  and  C_33
   14  A    between atoms: O_28  and  C_45
   15  A    between atoms: C_30  and  C_37
   16  A    between atoms: C_32  and  C_51
   17  A    between atoms: C_34  and  N_40
   18  A    between atoms: C_37  and  C_45
   19  A    between atoms: C_42  and  C_54
                            x       y       z     vdW  Elec       q    Type
                         _______ _______ _______ _____ _____    ______ ____

>  <TORSDO>
F 19

$$$$
=
 OpenBabel11042415473D

 54 57  0  0  1  0  0  0  0  0999 V2000
  186.9710  177.0300  142.4320 C   0  0  0  0  0  0  0  0  0  0  0  0
  185.2080  178.0000  143.7480 C   0  0  0  0  0  0  0  0  0  0  0  0
  186.5470  177.3840  143.6240 C   0  0  0  0  0  0  0  0  0  0  0  0
  186.8530  176.6820  145.9630 C   0  0  0  0  0  3  0  0  0  0  0  0
  184.7320  178.5810  144.9710 N   0  0  0  0  0  0  0  0  0  0  0  0
  187.4760  177.4040  144.8120 C   0  0  1  0  0  3  0  0  0  0  0  0
  187.3490  177.6410  140.2500 F   0  0  0  0  0  0  0  0  0  0  0  0
  187.3870  176.7060  141.2330 C   0  0  0  0  0  0  0  0  0  0  0  0
  184.9950  178.2480  146.2030 C   0  0  0  0  0  0  0  0  0  0  0  0
  185.7750  177.0940  146.5540 N   0  0  0  0  0  0  0  0  0  0  0  0
  184.4760  178.0950  142.7260 O   0  0  0  0  0  0  0  0  0  0  0  0
  184.3310  178.9500  147.2460 N   0  0  0  0  0  1  0  0  0  0  0  0
  189.2760  175.7240  144.9160 C   0  0  0  0  0  0  0  0  0  0  0  0
  189.7950  177.7540  143.7180 C   0  0  0  0  0  1  0  0  0  0  0  0
  188.8820  176.9170  144.5470 C   0  0  0  0  0  0  0  0  0  0  0  0
  189.6480  174.5380  145.3070 C   0  0  0  0  0  3  0  0  0  0  0  0
  190.3830  174.3780  146.5910 C   0  0  0  0  0  2  0  0  0  0  0  0
  191.8070  174.9100  146.4540 C   0  0  2  0  0  3  0  0  0  0  0  0
  191.8220  176.4310  146.5530 C   0  0  0  0  0  2  0  0  0  0  0  0
  191.3200  176.8750  147.9130 C   0  0  0  0  0  2  0  0  0  0  0  0
  190.2020  177.8790  147.7360 C   0  0  0  0  0  1  0  0  0  0  0  0
  192.4450  174.4390  145.1490 C   0  0  0  0  0  2  0  0  0  0  0  0
  193.1010  175.5370  144.4560 N   0  0  0  0  0  2  0  0  0  0  0  0
  194.5180  175.2180  144.4270 C   0  0  0  0  0  2  0  0  0  0  0  0
  195.3240  176.4780  144.1490 C   0  0  0  0  0  2  0  0  0  0  0  0
  196.2910  176.2660  142.9860 C   0  0  0  0  0  2  0  0  0  0  0  0
  196.5240  174.7880  142.6520 C   0  0  2  0  0  3  0  0  0  0  0  0
  197.9370  174.3450  142.9940 C   0  0  0  0  0  1  0  0  0  0  0  0
  196.2060  174.4670  141.1970 C   0  0  0  0  0  2  0  0  0  0  0  0
  196.1580  175.7340  140.3550 C   0  0  0  0  0  2  0  0  0  0  0  0
  197.4550  176.1290  140.0180 O   0  0  0  0  0  1  0  0  0  0  0  0
  187.9020  175.3630  140.9330 C   0  0  0  0  0  0  0  0  0  0  0  0
  188.2100  175.0380  139.7530 O   0  0  0  0  0  0  0  0  0  0  0  0
  188.0600  174.4280  142.0010 N   0  0  0  0  0  2  0  0  0  0  0  0
  190.8410  173.8650  141.8950 C   0  0  0  0  0  3  0  0  0  0  0  0
  189.8210  172.8040  141.7520 C   0  0  0  0  0  0  0  0  0  0  0  0
  192.1390  173.5880  141.7680 C   0  0  0  0  0  3  0  0  0  0  0  0
  192.6090  172.2040  141.4070 C   0  0  2  0  0  3  0  0  0  0  0  0
  188.5210  173.0910  141.7930 C   0  0  0  0  0  3  0  0  0  0  0  0
  191.6770  171.1480  142.0000 C   0  0  0  0  0  2  0  0  0  0  0  0
  190.2470  171.3820  141.5060 C   0  0  0  0  0  2  0  0  0  0  0  0
  193.9090  172.0090  141.8750 O   0  0  0  0  0  0  0  0  0  0  0  0
  193.7630  171.5950  143.2000 C   0  0  0  0  0  2  0  0  0  0  0  0
  194.8370  170.5820  143.5370 C   0  0  0  0  0  2  0  0  0  0  0  0
  195.5560  169.2700  146.5550 O   0  0  0  0  0  0  0  0  0  0  0  0
  196.9600  169.2090  146.5800 C   0  0  0  0  0  2  0  0  0  0  0  0
  196.1050  171.3050  144.0010 C   0  0  2  0  0  3  0  0  0  0  0  0
  195.2500  170.6240  146.3510 C   0  0  0  0  0  2  0  0  0  0  0  0
  197.3660  170.6510  143.4620 C   0  0  2  0  0  3  0  0  0  0  0  0
  197.5030  170.2770  145.6580 C   0  0  2  0  0  3  0  0  0  0  0  0
  196.3550  171.2370  145.5030 C   0  0  1  0  0  0  0  0  0  0  0  0
  197.1660  170.0400  142.2220 O   0  0  0  0  0  1  0  0  0  0  0  0
  197.8010  169.7090  144.4050 O   0  0  0  0  0  0  0  0  0  0  0  0
  196.7310  172.6080  146.0370 C   0  0  0  0  0  1  0  0  0  0  0  0
  1  3  2  0  0  0  0
  2  5  1  0  0  0  0
  3  2  1  0  0  0  0
  3  6  1  0  0  0  0
  4 10  2  0  0  0  0
  5  9  2  0  0  0  0
  6 15  1  6  0  0  0
  6  4  1  0  0  0  0
  7  8  1  0  0  0  0
  8  1  2  0  0  0  0
  9 10  1  0  0  0  0
  9 12  1  0  0  0  0
 11  2  2  0  0  0  0
 13 16  2  0  0  0  0
 14 15  1  0  0  0  0
 15 13  2  0  0  0  0
 16 17  1  0  0  0  0
 18 22  1  6  0  0  0
 18 19  1  0  0  0  0
 18 17  1  0  0  0  0
 19 20  1  0  0  0  0
 21 20  1  0  0  0  0
 23 22  1  0  0  0  0
 24 23  1  0  0  0  0
 25 24  1  0  0  0  0
 26 25  1  0  0  0  0
 27 26  1  0  0  0  0
 27 28  1  6  0  0  0
 29 27  1  0  0  0  0
 30 29  1  0  0  0  0
 31 30  1  0  0  0  0
 32  8  1  0  0  0  0
 32 34  1  0  0  0  0
 33 32  2  0  0  0  0
 36 39  2  0  0  0  0
 36 35  1  0  0  0  0
 37 35  2  0  0  0  0
 38 37  1  0  0  0  0
 38 42  1  1  0  0  0
 38 40  1  0  0  0  0
 39 34  1  0  0  0  0
 41 36  1  0  0  0  0
 41 40  1  0  0  0  0
 42 43  1  0  0  0  0
 43 44  1  0  0  0  0
 45 46  1  0  0  0  0
 47 44  1  1  0  0  0
 47 51  1  0  0  0  0
 48 45  1  0  0  0  0
 49 52  1  6  0  0  0
 49 47  1  0  0  0  0
 49 53  1  0  0  0  0
 50 46  1  1  0  0  0
 51 50  1  0  0  0  0
 51 54  1  1  0  0  0
 51 48  1  0  0  0  0
 53 50  1  0  0  0  0
M  END
>  <MODEL>
5

>  <REMARK>
 VINA RESULT:      -6.3      2.693      5.904
  Name = 
  19 active torsions:
  status: ('A' for Active; 'I' for Inactive)
    1  A    between atoms: C_1  and  C_42
    2  A    between atoms: C_1  and  C_44
    3  A    between atoms: C_5  and  N_7
    4  A    between atoms: C_5  and  C_32
    5  A    between atoms: N_7  and  C_54
    6  A    between atoms: C_8  and  C_25
    7  A    between atoms: C_9  and  C_39
    8  A    between atoms: C_10  and  C_19
    9  A    between atoms: C_13  and  C_43
   10  A    between atoms: C_18  and  C_39
   11  A    between atoms: C_18  and  C_51
   12  A    between atoms: C_25  and  C_42
   13  A    between atoms: O_28  and  C_33
   14  A    between atoms: O_28  and  C_45
   15  A    between atoms: C_30  and  C_37
   16  A    between atoms: C_32  and  C_51
   17  A    between atoms: C_34  and  N_40
   18  A    between atoms: C_37  and  C_45
   19  A    between atoms: C_42  and  C_54
                            x       y       z     vdW  Elec       q    Type
                         _______ _______ _______ _____ _____    ______ ____

>  <TORSDO>
F 19

$$$$
=
 OpenBabel11042415473D

 54 57  0  0  1  0  0  0  0  0999 V2000
  188.2300  176.1580  146.0120 C   0  0  0  0  0  0  0  0  0  0  0  0
  186.0440  177.1110  146.3240 C   0  0  0  0  0  0  0  0  0  0  0  0
  187.2260  176.8210  145.4830 C   0  0  0  0  0  0  0  0  0  0  0  0
  186.8650  178.5130  143.7330 C   0  0  0  0  0  3  0  0  0  0  0  0
  184.8320  177.6650  145.7920 N   0  0  0  0  0  0  0  0  0  0  0  0
  187.1480  177.0690  143.9980 C   0  0  1  0  0  3  0  0  0  0  0  0
  188.9310  174.2980  147.1640 F   0  0  0  0  0  0  0  0  0  0  0  0
  189.2100  175.4750  146.5490 C   0  0  0  0  0  0  0  0  0  0  0  0
  184.6650  178.4850  144.7930 C   0  0  0  0  0  0  0  0  0  0  0  0
  185.7580  179.0890  144.0840 N   0  0  0  0  0  0  0  0  0  0  0  0
  186.0620  176.7910  147.5430 O   0  0  0  0  0  0  0  0  0  0  0  0
  183.3490  178.9410  144.5100 N   0  0  0  0  0  1  0  0  0  0  0  0
  188.3430  175.3880  142.6480 C   0  0  0  0  0  0  0  0  0  0  0  0
  189.4400  177.5250  142.8850 C   0  0  0  0  0  1  0  0  0  0  0  0
  188.3300  176.5790  143.1920 C   0  0  0  0  0  0  0  0  0  0  0  0
  188.3390  174.1930  142.1300 C   0  0  0  0  0  3  0  0  0  0  0  0
  189.0140  173.0740  142.8420 C   0  0  0  0  0  2  0  0  0  0  0  0
  190.0330  172.4030  141.9250 C   0  0  2  0  0  3  0  0  0  0  0  0
  191.3970  172.3300  142.6020 C   0  0  0  0  0  2  0  0  0  0  0  0
  191.6950  170.9060  143.0320 C   0  0  0  0  0  2  0  0  0  0  0  0
  192.1570  170.1030  141.8360 C   0  0  0  0  0  1  0  0  0  0  0  0
  190.1250  173.1280  140.5850 C   0  0  0  0  0  2  0  0  0  0  0  0
  190.2550  172.1850  139.4830 N   0  0  0  0  0  2  0  0  0  0  0  0
  191.5860  172.3740  138.9340 C   0  0  0  0  0  2  0  0  0  0  0  0
  192.0460  171.0990  138.2440 C   0  0  0  0  0  2  0  0  0  0  0  0
  190.9290  170.0570  138.2150 C   0  0  0  0  0  2  0  0  0  0  0  0
  190.6330  169.5240  136.8080 C   0  0  2  0  0  3  0  0  0  0  0  0
  191.5630  168.3820  136.4290 C   0  0  0  0  0  1  0  0  0  0  0  0
  190.6820  170.6190  135.7520 C   0  0  0  0  0  2  0  0  0  0  0  0
  189.4010  171.4410  135.7560 C   0  0  0  0  0  2  0  0  0  0  0  0
  189.7050  172.7950  135.9170 O   0  0  0  0  0  1  0  0  0  0  0  0
  190.6010  175.9480  146.4910 C   0  0  0  0  0  0  0  0  0  0  0  0
  190.8590  177.1670  146.2890 O   0  0  0  0  0  0  0  0  0  0  0  0
  191.6600  175.0090  146.6770 N   0  0  0  0  0  2  0  0  0  0  0  0
  193.5380  173.3080  145.3970 C   0  0  0  0  0  3  0  0  0  0  0  0
  193.9340  174.6000  145.9970 C   0  0  0  0  0  0  0  0  0  0  0  0
  194.4490  172.4920  144.8660 C   0  0  0  0  0  3  0  0  0  0  0  0
  195.9170  172.8230  144.9210 C   0  0  2  0  0  3  0  0  0  0  0  0
  193.0390  175.3780  146.6030 C   0  0  0  0  0  3  0  0  0  0  0  0
  196.1320  174.3330  144.8370 C   0  0  0  0  0  2  0  0  0  0  0  0
  195.3760  175.0290  145.9730 C   0  0  0  0  0  2  0  0  0  0  0  0
  196.5850  172.1870  143.8730 O   0  0  0  0  0  0  0  0  0  0  0  0
  197.2630  173.2060  143.2010 C   0  0  0  0  0  2  0  0  0  0  0  0
  197.0550  173.0560  141.7080 C   0  0  0  0  0  2  0  0  0  0  0  0
  196.6730  175.5150  139.4390 O   0  0  0  0  0  0  0  0  0  0  0  0
  195.6840  175.0290  138.5650 C   0  0  0  0  0  2  0  0  0  0  0  0
  195.5570  173.0810  141.3880 C   0  0  2  0  0  3  0  0  0  0  0  0
  196.0700  175.5280  140.7060 C   0  0  0  0  0  2  0  0  0  0  0  0
  195.1870  172.0810  140.3060 C   0  0  2  0  0  3  0  0  0  0  0  0
  194.8150  174.0490  139.3220 C   0  0  2  0  0  3  0  0  0  0  0  0
  195.0690  174.3840  140.7660 C   0  0  1  0  0  0  0  0  0  0  0  0
  196.0150  170.9570  140.3080 O   0  0  0  0  0  1  0  0  0  0  0  0
  195.2570  172.7370  139.0690 O   0  0  0  0  0  0  0  0  0  0  0  0
  193.7870  174.8410  141.4400 C   0  0  0  0  0  1  0  0  0  0  0  0
  1  8  2  0  0  0  0
  2 11  2  0  0  0  0
  3  1  2  0  0  0  0
  3  2  1  0  0  0  0
  4  6  1  0  0  0  0
  4 10  2  0  0  0  0
  5  2  1  0  0  0  0
  6 15  1  6  0  0  0
  6  3  1  0  0  0  0
  8  7  1  0  0  0  0
  9  5  2  0  0  0  0
 10  9  1  0  0  0  0
 12  9  1  0  0  0  0
 13 15  2  0  0  0  0
 14 15  1  0  0  0  0
 16 13  2  0  0  0  0
 16 17  1  0  0  0  0
 18 22  1  6  0  0  0
 18 19  1  0  0  0  0
 18 17  1  0  0  0  0
 19 20  1  0  0  0  0
 21 20  1  0  0  0  0
 23 22  1  0  0  0  0
 24 23  1  0  0  0  0
 25 24  1  0  0  0  0
 26 25  1  0  0  0  0
 27 28  1  6  0  0  0
 27 26  1  0  0  0  0
 29 30  1  0  0  0  0
 29 27  1  0  0  0  0
 30 31  1  0  0  0  0
 32  8  1  0  0  0  0
 32 34  1  0  0  0  0
 33 32  2  0  0  0  0
 35 36  1  0  0  0  0
 36 39  2  0  0  0  0
 37 38  1  0  0  0  0
 37 35  2  0  0  0  0
 38 42  1  6  0  0  0
 39 34  1  0  0  0  0
 40 38  1  0  0  0  0
 40 41  1  0  0  0  0
 41 36  1  0  0  0  0
 43 42  1  0  0  0  0
 44 43  1  0  0  0  0
 45 48  1  0  0  0  0
 46 45  1  0  0  0  0
 47 44  1  6  0  0  0
 48 51  1  0  0  0  0
 49 52  1  6  0  0  0
 49 47  1  0  0  0  0
 50 46  1  6  0  0  0
 50 51  1  0  0  0  0
 51 47  1  0  0  0  0
 51 54  1  1  0  0  0
 53 50  1  0  0  0  0
 53 49  1  0  0  0  0
M  END
>  <MODEL>
6

>  <REMARK>
 VINA RESULT:      -6.2      2.281      4.296
  Name = 
  19 active torsions:
  status: ('A' for Active; 'I' for Inactive)
    1  A    between atoms: C_1  and  C_42
    2  A    between atoms: C_1  and  C_44
    3  A    between atoms: C_5  and  N_7
    4  A    between atoms: C_5  and  C_32
    5  A    between atoms: N_7  and  C_54
    6  A    between atoms: C_8  and  C_25
    7  A    between atoms: C_9  and  C_39
    8  A    between atoms: C_10  and  C_19
    9  A    between atoms: C_13  and  C_43
   10  A    between atoms: C_18  and  C_39
   11  A    between atoms: C_18  and  C_51
   12  A    between atoms: C_25  and  C_42
   13  A    between atoms: O_28  and  C_33
   14  A    between atoms: O_28  and  C_45
   15  A    between atoms: C_30  and  C_37
   16  A    between atoms: C_32  and  C_51
   17  A    between atoms: C_34  and  N_40
   18  A    between atoms: C_37  and  C_45
   19  A    between atoms: C_42  and  C_54
                            x       y       z     vdW  Elec       q    Type
                         _______ _______ _______ _____ _____    ______ ____

>  <TORSDO>
F 19

$$$$
=
 OpenBabel11042415473D

 54 57  0  0  1  0  0  0  0  0999 V2000
  187.9110  176.4350  146.0200 C   0  0  0  0  0  0  0  0  0  0  0  0
  185.6840  177.3450  146.0220 C   0  0  0  0  0  0  0  0  0  0  0  0
  186.9710  177.0620  145.3480 C   0  0  0  0  0  0  0  0  0  0  0  0
  186.8050  178.7040  143.5220 C   0  0  0  0  0  3  0  0  0  0  0  0
  184.5400  177.8580  145.3240 N   0  0  0  0  0  0  0  0  0  0  0  0
  187.0800  177.2730  143.8590 C   0  0  1  0  0  3  0  0  0  0  0  0
  188.4940  174.6200  147.3020 F   0  0  0  0  0  0  0  0  0  0  0  0
  188.8270  175.7890  146.6960 C   0  0  0  0  0  0  0  0  0  0  0  0
  184.4880  178.6500  144.2900 C   0  0  0  0  0  0  0  0  0  0  0  0
  185.6510  179.2620  143.7120 N   0  0  0  0  0  0  0  0  0  0  0  0
  185.5510  177.0550  147.2410 O   0  0  0  0  0  0  0  0  0  0  0  0
  183.2110  179.0690  143.8280 N   0  0  0  0  0  1  0  0  0  0  0  0
  188.5390  175.5380  142.8910 C   0  0  0  0  0  0  0  0  0  0  0  0
  189.4010  177.7920  142.8370 C   0  0  0  0  0  1  0  0  0  0  0  0
  188.3660  176.7920  143.2260 C   0  0  0  0  0  0  0  0  0  0  0  0
  188.6920  174.2810  142.5830 C   0  0  0  0  0  3  0  0  0  0  0  0
  189.4120  173.3710  143.5150 C   0  0  0  0  0  2  0  0  0  0  0  0
  190.6320  172.7670  142.8260 C   0  0  2  0  0  3  0  0  0  0  0  0
  191.1950  173.7320  141.7900 C   0  0  0  0  0  2  0  0  0  0  0  0
  192.5740  174.2070  142.2080 C   0  0  0  0  0  2  0  0  0  0  0  0
  192.5220  175.6840  142.5330 C   0  0  0  0  0  1  0  0  0  0  0  0
  190.2920  171.4200  142.1930 C   0  0  0  0  0  2  0  0  0  0  0  0
  191.4430  170.5300  142.1970 N   0  0  0  0  0  2  0  0  0  0  0  0
  191.1890  169.5230  141.1800 C   0  0  0  0  0  2  0  0  0  0  0  0
  191.8050  169.9580  139.8590 C   0  0  0  0  0  2  0  0  0  0  0  0
  191.0450  169.3610  138.6760 C   0  0  0  0  0  2  0  0  0  0  0  0
  190.3820  170.4180  137.7840 C   0  0  2  0  0  3  0  0  0  0  0  0
  190.8630  170.3270  136.3450 C   0  0  0  0  0  1  0  0  0  0  0  0
  190.5780  171.8300  138.3190 C   0  0  0  0  0  2  0  0  0  0  0  0
  189.7260  172.8290  137.5490 C   0  0  0  0  0  2  0  0  0  0  0  0
  190.3490  174.0790  137.5420 O   0  0  0  0  0  1  0  0  0  0  0  0
  190.2030  176.2920  146.8050 C   0  0  0  0  0  0  0  0  0  0  0  0
  190.4270  177.5040  147.0780 O   0  0  0  0  0  0  0  0  0  0  0  0
  191.2890  175.3870  146.6090 N   0  0  0  0  0  2  0  0  0  0  0  0
  193.3350  173.7340  145.5390 C   0  0  0  0  0  3  0  0  0  0  0  0
  193.6300  175.0450  146.1580 C   0  0  0  0  0  0  0  0  0  0  0  0
  194.3190  172.9430  145.1100 C   0  0  0  0  0  3  0  0  0  0  0  0
  195.7630  173.3220  145.3030 C   0  0  2  0  0  3  0  0  0  0  0  0
  192.6560  175.7990  146.6640 C   0  0  0  0  0  3  0  0  0  0  0  0
  195.9380  174.8380  145.2190 C   0  0  0  0  0  2  0  0  0  0  0  0
  195.0540  175.5200  146.2670 C   0  0  0  0  0  2  0  0  0  0  0  0
  196.5500  172.6980  144.3330 O   0  0  0  0  0  0  0  0  0  0  0  0
  195.8090  172.7830  143.1520 C   0  0  0  0  0  2  0  0  0  0  0  0
  196.7270  173.1390  142.0010 C   0  0  0  0  0  2  0  0  0  0  0  0
  197.7220  175.4130  139.7240 O   0  0  0  0  0  0  0  0  0  0  0  0
  197.9390  174.6610  138.5560 C   0  0  0  0  0  2  0  0  0  0  0  0
  196.0990  172.6880  140.6790 C   0  0  2  0  0  3  0  0  0  0  0  0
  196.3790  175.1890  140.0620 C   0  0  0  0  0  2  0  0  0  0  0  0
  196.9550  171.6570  139.9620 C   0  0  2  0  0  3  0  0  0  0  0  0
  197.0630  173.4280  138.6100 C   0  0  2  0  0  3  0  0  0  0  0  0
  196.0070  173.7820  139.6210 C   0  0  1  0  0  0  0  0  0  0  0  0
  197.6900  170.8620  140.8450 O   0  0  0  0  0  1  0  0  0  0  0  0
  197.8150  172.3390  139.0890 O   0  0  0  0  0  0  0  0  0  0  0  0
  194.6310  173.7770  138.9780 C   0  0  0  0  0  1  0  0  0  0  0  0
  1  8  2  0  0  0  0
  2 11  2  0  0  0  0
  3  1  2  0  0  0  0
  3  2  1  0  0  0  0
  4 10  2  0  0  0  0
  4  6  1  0  0  0  0
  5  2  1  0  0  0  0
  6 15  1  1  0  0  0
  6  3  1  0  0  0  0
  8 32  1  0  0  0  0
  8  7  1  0  0  0  0
  9  5  2  0  0  0  0
 10  9  1  0  0  0  0
 12  9  1  0  0  0  0
 13 15  2  0  0  0  0
 14 15  1  0  0  0  0
 16 13  2  0  0  0  0
 16 17  1  0  0  0  0
 18 19  1  6  0  0  0
 18 17  1  0  0  0  0
 19 20  1  0  0  0  0
 20 21  1  0  0  0  0
 22 23  1  0  0  0  0
 22 18  1  0  0  0  0
 24 23  1  0  0  0  0
 25 24  1  0  0  0  0
 26 25  1  0  0  0  0
 27 28  1  6  0  0  0
 27 29  1  0  0  0  0
 27 26  1  0  0  0  0
 30 29  1  0  0  0  0
 31 30  1  0  0  0  0
 32 33  2  0  0  0  0
 34 39  1  0  0  0  0
 34 32  1  0  0  0  0
 35 36  1  0  0  0  0
 36 41  1  0  0  0  0
 36 39  2  0  0  0  0
 37 38  1  0  0  0  0
 37 35  2  0  0  0  0
 38 42  1  6  0  0  0
 40 38  1  0  0  0  0
 40 41  1  0  0  0  0
 43 42  1  0  0  0  0
 44 43  1  0  0  0  0
 45 48  1  0  0  0  0
 46 45  1  0  0  0  0
 47 44  1  1  0  0  0
 49 47  1  0  0  0  0
 49 52  1  1  0  0  0
 50 46  1  1  0  0  0
 50 53  1  0  0  0  0
 50 51  1  0  0  0  0
 51 54  1  6  0  0  0
 51 48  1  0  0  0  0
 51 47  1  0  0  0  0
 53 49  1  0  0  0  0
M  END
>  <MODEL>
7

>  <REMARK>
 VINA RESULT:      -6.1      1.857      3.703
  Name = 
  19 active torsions:
  status: ('A' for Active; 'I' for Inactive)
    1  A    between atoms: C_1  and  C_42
    2  A    between atoms: C_1  and  C_44
    3  A    between atoms: C_5  and  N_7
    4  A    between atoms: C_5  and  C_32
    5  A    between atoms: N_7  and  C_54
    6  A    between atoms: C_8  and  C_25
    7  A    between atoms: C_9  and  C_39
    8  A    between atoms: C_10  and  C_19
    9  A    between atoms: C_13  and  C_43
   10  A    between atoms: C_18  and  C_39
   11  A    between atoms: C_18  and  C_51
   12  A    between atoms: C_25  and  C_42
   13  A    between atoms: O_28  and  C_33
   14  A    between atoms: O_28  and  C_45
   15  A    between atoms: C_30  and  C_37
   16  A    between atoms: C_32  and  C_51
   17  A    between atoms: C_34  and  N_40
   18  A    between atoms: C_37  and  C_45
   19  A    between atoms: C_42  and  C_54
                            x       y       z     vdW  Elec       q    Type
                         _______ _______ _______ _____ _____    ______ ____

>  <TORSDO>
F 19

$$$$
=
 OpenBabel11042415473D

 54 57  0  0  1  0  0  0  0  0999 V2000
  187.8040  175.9610  142.5810 C   0  0  0  0  0  0  0  0  0  0  0  0
  186.4900  177.0120  144.3000 C   0  0  0  0  0  0  0  0  0  0  0  0
  187.7520  176.4110  143.8150 C   0  0  0  0  0  0  0  0  0  0  0  0
  188.7940  175.9220  145.9910 C   0  0  0  0  0  3  0  0  0  0  0  0
  186.3890  177.6890  145.5610 N   0  0  0  0  0  0  0  0  0  0  0  0
  189.0000  176.5520  144.6500 C   0  0  1  0  0  3  0  0  0  0  0  0
  187.4630  176.3840  140.3490 F   0  0  0  0  0  0  0  0  0  0  0  0
  187.8440  175.5410  141.3420 C   0  0  0  0  0  0  0  0  0  0  0  0
  187.0340  177.4700  146.6730 C   0  0  0  0  0  0  0  0  0  0  0  0
  187.9340  176.3660  146.8520 N   0  0  0  0  0  0  0  0  0  0  0  0
  185.4760  177.0030  143.5520 O   0  0  0  0  0  0  0  0  0  0  0  0
  186.6930  178.2490  147.8120 N   0  0  0  0  0  1  0  0  0  0  0  0
  190.5310  174.7930  143.8530 C   0  0  0  0  0  0  0  0  0  0  0  0
  191.1960  177.0640  143.3800 C   0  0  0  0  0  1  0  0  0  0  0  0
  190.2770  176.0680  144.0000 C   0  0  0  0  0  0  0  0  0  0  0  0
  190.7690  173.5170  143.7340 C   0  0  0  0  0  3  0  0  0  0  0  0
  191.6230  172.8250  144.7370 C   0  0  0  0  0  2  0  0  0  0  0  0
  192.6350  171.9230  144.0370 C   0  0  2  0  0  3  0  0  0  0  0  0
  191.9380  170.7180  143.4150 C   0  0  0  0  0  2  0  0  0  0  0  0
  192.2740  170.6200  141.9390 C   0  0  0  0  0  2  0  0  0  0  0  0
  193.1040  171.8150  141.5290 C   0  0  0  0  0  1  0  0  0  0  0  0
  193.7350  171.4830  144.9990 C   0  0  0  0  0  2  0  0  0  0  0  0
  195.0500  171.8720  144.5090 N   0  0  0  0  0  2  0  0  0  0  0  0
  195.6370  172.7170  145.5350 C   0  0  0  0  0  2  0  0  0  0  0  0
  195.9500  174.0890  144.9560 C   0  0  0  0  0  2  0  0  0  0  0  0
  194.7320  174.6750  144.2440 C   0  0  0  0  0  2  0  0  0  0  0  0
  194.7070  176.2080  144.2480 C   0  0  2  0  0  3  0  0  0  0  0  0
  196.0550  176.7980  143.8660 C   0  0  0  0  0  1  0  0  0  0  0  0
  194.2400  176.7750  145.5820 C   0  0  0  0  0  2  0  0  0  0  0  0
  193.2470  175.8400  146.2570 C   0  0  0  0  0  2  0  0  0  0  0  0
  192.2790  176.5840  146.9350 O   0  0  0  0  0  1  0  0  0  0  0  0
  188.3000  174.1850  141.0030 C   0  0  0  0  0  0  0  0  0  0  0  0
  188.0220  173.2050  141.7480 O   0  0  0  0  0  0  0  0  0  0  0  0
  189.0570  173.9880  139.8080 N   0  0  0  0  0  2  0  0  0  0  0  0
  191.5000  173.7890  138.3760 C   0  0  0  0  0  3  0  0  0  0  0  0
  190.7170  172.5940  138.7590 C   0  0  0  0  0  0  0  0  0  0  0  0
  192.6060  173.6740  137.6400 C   0  0  0  0  0  3  0  0  0  0  0  0
  193.0580  172.3380  137.1150 C   0  0  2  0  0  3  0  0  0  0  0  0
  189.5670  172.7110  139.4210 C   0  0  0  0  0  3  0  0  0  0  0  0
  192.7010  171.2240  138.0980 C   0  0  0  0  0  2  0  0  0  0  0  0
  191.1920  171.2240  138.3560 C   0  0  0  0  0  2  0  0  0  0  0  0
  194.4370  172.3570  136.8960 O   0  0  0  0  0  0  0  0  0  0  0  0
  195.0060  172.0070  138.1220 C   0  0  0  0  0  2  0  0  0  0  0  0
  196.2420  172.8470  138.3670 C   0  0  0  0  0  2  0  0  0  0  0  0
  197.5300  173.5800  141.3910 O   0  0  0  0  0  0  0  0  0  0  0  0
  197.9400  174.9190  141.2780 C   0  0  0  0  0  2  0  0  0  0  0  0
  195.8360  174.2990  138.6380 C   0  0  2  0  0  3  0  0  0  0  0  0
  196.1550  173.5910  141.1100 C   0  0  0  0  0  2  0  0  0  0  0  0
  196.8130  175.2890  138.0280 C   0  0  2  0  0  3  0  0  0  0  0  0
  197.0920  175.5920  140.2210 C   0  0  2  0  0  3  0  0  0  0  0  0
  195.8850  174.7020  140.1080 C   0  0  1  0  0  0  0  0  0  0  0  0
  197.4190  174.8010  136.8680 O   0  0  0  0  0  1  0  0  0  0  0  0
  197.7830  175.5920  138.9940 O   0  0  0  0  0  0  0  0  0  0  0  0
  194.6260  175.4610  140.4880 C   0  0  0  0  0  1  0  0  0  0  0  0
  1  3  2  0  0  0  0
  2  5  1  0  0  0  0
  3  2  1  0  0  0  0
  3  6  1  0  0  0  0
  4 10  2  0  0  0  0
  5  9  2  0  0  0  0
  6 15  1  6  0  0  0
  6  4  1  0  0  0  0
  7  8  1  0  0  0  0
  8  1  2  0  0  0  0
  9 10  1  0  0  0  0
  9 12  1  0  0  0  0
 11  2  2  0  0  0  0
 13 15  2  0  0  0  0
 14 15  1  0  0  0  0
 16 13  2  0  0  0  0
 16 17  1  0  0  0  0
 18 19  1  1  0  0  0
 18 17  1  0  0  0  0
 18 22  1  0  0  0  0
 20 19  1  0  0  0  0
 21 20  1  0  0  0  0
 23 22  1  0  0  0  0
 23 24  1  0  0  0  0
 25 24  1  0  0  0  0
 26 27  1  0  0  0  0
 26 25  1  0  0  0  0
 27 28  1  1  0  0  0
 27 29  1  0  0  0  0
 29 30  1  0  0  0  0
 30 31  1  0  0  0  0
 32  8  1  0  0  0  0
 32 33  2  0  0  0  0
 34 32  1  0  0  0  0
 35 36  1  0  0  0  0
 36 39  2  0  0  0  0
 37 35  2  0  0  0  0
 38 42  1  1  0  0  0
 38 37  1  0  0  0  0
 38 40  1  0  0  0  0
 39 34  1  0  0  0  0
 40 41  1  0  0  0  0
 41 36  1  0  0  0  0
 42 43  1  0  0  0  0
 43 44  1  0  0  0  0
 46 45  1  0  0  0  0
 47 44  1  1  0  0  0
 47 51  1  0  0  0  0
 48 45  1  0  0  0  0
 49 52  1  6  0  0  0
 49 47  1  0  0  0  0
 49 53  1  0  0  0  0
 50 46  1  1  0  0  0
 51 50  1  0  0  0  0
 51 54  1  1  0  0  0
 51 48  1  0  0  0  0
 53 50  1  0  0  0  0
M  END
>  <MODEL>
8

>  <REMARK>
 VINA RESULT:      -6.0      2.370      4.900
  Name = 
  19 active torsions:
  status: ('A' for Active; 'I' for Inactive)
    1  A    between atoms: C_1  and  C_42
    2  A    between atoms: C_1  and  C_44
    3  A    between atoms: C_5  and  N_7
    4  A    between atoms: C_5  and  C_32
    5  A    between atoms: N_7  and  C_54
    6  A    between atoms: C_8  and  C_25
    7  A    between atoms: C_9  and  C_39
    8  A    between atoms: C_10  and  C_19
    9  A    between atoms: C_13  and  C_43
   10  A    between atoms: C_18  and  C_39
   11  A    between atoms: C_18  and  C_51
   12  A    between atoms: C_25  and  C_42
   13  A    between atoms: O_28  and  C_33
   14  A    between atoms: O_28  and  C_45
   15  A    between atoms: C_30  and  C_37
   16  A    between atoms: C_32  and  C_51
   17  A    between atoms: C_34  and  N_40
   18  A    between atoms: C_37  and  C_45
   19  A    between atoms: C_42  and  C_54
                            x       y       z     vdW  Elec       q    Type
                         _______ _______ _______ _____ _____    ______ ____

>  <TORSDO>
F 19

$$$$
=
 OpenBabel11042415473D

 54 57  0  0  1  0  0  0  0  0999 V2000
  188.1790  176.1110  146.4630 C   0  0  0  0  0  0  0  0  0  0  0  0
  185.9980  177.1240  146.4670 C   0  0  0  0  0  0  0  0  0  0  0  0
  187.2750  176.7950  145.7980 C   0  0  0  0  0  0  0  0  0  0  0  0
  187.2030  178.4790  144.0050 C   0  0  0  0  0  3  0  0  0  0  0  0
  184.8850  177.7050  145.7710 N   0  0  0  0  0  0  0  0  0  0  0  0
  187.4070  177.0310  144.3140 C   0  0  1  0  0  3  0  0  0  0  0  0
  188.6650  174.2440  147.7120 F   0  0  0  0  0  0  0  0  0  0  0  0
  189.0570  175.4080  147.1330 C   0  0  0  0  0  0  0  0  0  0  0  0
  184.8790  178.5190  144.7540 C   0  0  0  0  0  0  0  0  0  0  0  0
  186.0750  179.0870  144.1970 N   0  0  0  0  0  0  0  0  0  0  0  0
  185.8400  176.8160  147.6790 O   0  0  0  0  0  0  0  0  0  0  0  0
  183.6270  179.0070  144.2900 N   0  0  0  0  0  1  0  0  0  0  0  0
  188.6640  175.4570  142.8930 C   0  0  0  0  0  0  0  0  0  0  0  0
  189.9400  177.2750  143.8370 C   0  0  0  0  0  1  0  0  0  0  0  0
  188.6750  176.5020  143.6810 C   0  0  0  0  0  0  0  0  0  0  0  0
  188.6290  174.4050  142.1250 C   0  0  0  0  0  3  0  0  0  0  0  0
  188.9610  173.0670  142.6850 C   0  0  0  0  0  2  0  0  0  0  0  0
  189.7940  172.2680  141.6870 C   0  0  2  0  0  3  0  0  0  0  0  0
  191.2760  172.5850  141.8520 C   0  0  0  0  0  2  0  0  0  0  0  0
  192.0060  171.3950  142.4450 C   0  0  0  0  0  2  0  0  0  0  0  0
  192.9730  171.8730  143.5060 C   0  0  0  0  0  1  0  0  0  0  0  0
  189.3340  172.5300  140.2560 C   0  0  0  0  0  2  0  0  0  0  0  0
  190.0390  171.6760  139.3110 N   0  0  0  0  0  2  0  0  0  0  0  0
  189.7970  172.2360  137.9920 C   0  0  0  0  0  2  0  0  0  0  0  0
  189.6940  173.7510  138.0850 C   0  0  0  0  0  2  0  0  0  0  0  0
  188.6980  174.2970  137.0630 C   0  0  0  0  0  2  0  0  0  0  0  0
  189.3090  174.5110  135.6740 C   0  0  2  0  0  3  0  0  0  0  0  0
  190.6890  175.1450  135.7540 C   0  0  0  0  0  1  0  0  0  0  0  0
  188.4030  175.3300  134.7640 C   0  0  0  0  0  2  0  0  0  0  0  0
  188.7260  176.8140  134.8620 C   0  0  0  0  0  2  0  0  0  0  0  0
  187.8020  177.4470  135.6970 O   0  0  0  0  0  1  0  0  0  0  0  0
  190.4550  175.8440  147.2640 C   0  0  0  0  0  0  0  0  0  0  0  0
  190.7600  176.8190  148.0050 O   0  0  0  0  0  0  0  0  0  0  0  0
  191.4690  175.1410  146.5460 N   0  0  0  0  0  2  0  0  0  0  0  0
  192.9540  175.4480  144.1460 C   0  0  0  0  0  3  0  0  0  0  0  0
  193.5590  175.6790  145.4760 C   0  0  0  0  0  0  0  0  0  0  0  0
  193.6900  175.5260  143.0370 C   0  0  0  0  0  3  0  0  0  0  0  0
  195.1720  175.7830  143.1020 C   0  0  2  0  0  3  0  0  0  0  0  0
  192.8470  175.5190  146.5900 C   0  0  0  0  0  3  0  0  0  0  0  0
  195.5100  176.6900  144.2840 C   0  0  0  0  0  2  0  0  0  0  0  0
  195.0120  176.0540  145.5850 C   0  0  0  0  0  2  0  0  0  0  0  0
  195.6030  176.3720  141.9120 O   0  0  0  0  0  0  0  0  0  0  0  0
  194.8630  175.7470  140.9060 C   0  0  0  0  0  2  0  0  0  0  0  0
  195.6200  174.5380  140.3950 C   0  0  0  0  0  2  0  0  0  0  0  0
  197.4380  174.4890  137.5610 O   0  0  0  0  0  0  0  0  0  0  0  0
  197.1770  173.2240  137.0040 C   0  0  0  0  0  2  0  0  0  0  0  0
  194.7610  173.7810  139.3780 C   0  0  2  0  0  3  0  0  0  0  0  0
  196.1840  175.1090  137.6670 C   0  0  0  0  0  2  0  0  0  0  0  0
  194.9510  172.2760  139.4770 C   0  0  2  0  0  3  0  0  0  0  0  0
  195.8170  172.7630  137.4790 C   0  0  2  0  0  3  0  0  0  0  0  0
  195.1420  174.0320  137.9230 C   0  0  1  0  0  0  0  0  0  0  0  0
  195.2630  171.8590  140.7730 O   0  0  0  0  0  1  0  0  0  0  0  0
  195.9710  171.9090  138.5870 O   0  0  0  0  0  0  0  0  0  0  0  0
  193.8980  174.2920  137.0920 C   0  0  0  0  0  1  0  0  0  0  0  0
  1  8  2  0  0  0  0
  2 11  2  0  0  0  0
  3  1  2  0  0  0  0
  3  2  1  0  0  0  0
  4 10  2  0  0  0  0
  4  6  1  0  0  0  0
  5  2  1  0  0  0  0
  6 15  1  1  0  0  0
  6  3  1  0  0  0  0
  8 32  1  0  0  0  0
  8  7  1  0  0  0  0
  9  5  2  0  0  0  0
 10  9  1  0  0  0  0
 12  9  1  0  0  0  0
 13 15  2  0  0  0  0
 15 14  1  0  0  0  0
 16 17  1  0  0  0  0
 16 13  2  0  0  0  0
 18 22  1  6  0  0  0
 18 19  1  0  0  0  0
 18 17  1  0  0  0  0
 19 20  1  0  0  0  0
 20 21  1  0  0  0  0
 23 22  1  0  0  0  0
 24 25  1  0  0  0  0
 24 23  1  0  0  0  0
 26 25  1  0  0  0  0
 27 28  1  1  0  0  0
 27 26  1  0  0  0  0
 29 30  1  0  0  0  0
 29 27  1  0  0  0  0
 30 31  1  0  0  0  0
 32 33  2  0  0  0  0
 34 39  1  0  0  0  0
 34 32  1  0  0  0  0
 35 36  1  0  0  0  0
 36 41  1  0  0  0  0
 36 39  2  0  0  0  0
 37 38  1  0  0  0  0
 37 35  2  0  0  0  0
 38 42  1  6  0  0  0
 38 40  1  0  0  0  0
 40 41  1  0  0  0  0
 43 42  1  0  0  0  0
 44 43  1  0  0  0  0
 45 48  1  0  0  0  0
 46 45  1  0  0  0  0
 47 49  1  0  0  0  0
 47 44  1  1  0  0  0
 48 51  1  0  0  0  0
 49 52  1  1  0  0  0
 50 46  1  1  0  0  0
 50 51  1  0  0  0  0
 50 53  1  0  0  0  0
 51 54  1  6  0  0  0
 51 47  1  0  0  0  0
 53 49  1  0  0  0  0
M  END
>  <MODEL>
9

>  <REMARK>
 VINA RESULT:      -6.0      2.232      4.547
  Name = 
  19 active torsions:
  status: ('A' for Active; 'I' for Inactive)
    1  A    between atoms: C_1  and  C_42
    2  A    between atoms: C_1  and  C_44
    3  A    between atoms: C_5  and  N_7
    4  A    between atoms: C_5  and  C_32
    5  A    between atoms: N_7  and  C_54
    6  A    between atoms: C_8  and  C_25
    7  A    between atoms: C_9  and  C_39
    8  A    between atoms: C_10  and  C_19
    9  A    between atoms: C_13  and  C_43
   10  A    between atoms: C_18  and  C_39
   11  A    between atoms: C_18  and  C_51
   12  A    between atoms: C_25  and  C_42
   13  A    between atoms: O_28  and  C_33
   14  A    between atoms: O_28  and  C_45
   15  A    between atoms: C_30  and  C_37
   16  A    between atoms: C_32  and  C_51
   17  A    between atoms: C_34  and  N_40
   18  A    between atoms: C_37  and  C_45
   19  A    between atoms: C_42  and  C_54
                            x       y       z     vdW  Elec       q    Type
                         _______ _______ _______ _____ _____    ______ ____

>  <TORSDO>
F 19

$$$$
