=
 OpenBabel11042417283D

 39 43  0  0  1  0  0  0  0  0999 V2000
  189.8180  174.5430  144.4940 C   0  0  0  0  0  0  0  0  0  0  0  0
  189.0700  175.6360  144.8220 C   0  0  0  0  0  0  0  0  0  0  0  0
  190.2210  174.9510  146.7930 C   0  0  1  0  0  3  0  0  0  0  0  0
  187.4860  176.3140  141.5320 C   0  0  0  0  0  3  0  0  0  0  0  0
  189.8630  172.9670  140.6170 C   0  0  0  0  0  3  0  0  0  0  0  0
  187.4960  175.7850  140.2410 C   0  0  0  0  0  3  0  0  0  0  0  0
  188.2730  176.2770  143.8680 C   0  0  0  0  0  0  0  0  0  0  0  0
  189.2470  176.0060  146.2480 C   0  0  0  0  0  2  0  0  0  0  0  0
  188.2860  174.6750  139.9450 C   0  0  0  0  0  0  0  0  0  0  0  0
  188.2930  174.1680  138.6820 N   0  0  0  0  0  0  0  0  0  0  0  0
  189.0520  173.0890  138.3500 C   0  0  0  0  0  0  0  0  0  0  0  0
  189.0700  174.6060  142.2550 C   0  0  0  0  0  0  0  0  0  0  0  0
  189.0320  172.5920  137.0180 N   0  0  0  0  0  1  0  0  0  0  0  0
  190.5910  174.0110  145.6320 C   0  0  0  0  0  2  0  0  0  0  0  0
  189.8260  174.0360  143.2370 N   0  0  0  0  0  0  0  0  0  0  0  0
  188.2630  175.7440  142.5520 C   0  0  0  0  0  0  0  0  0  0  0  0
  189.8510  172.4690  139.3140 C   0  0  0  0  0  3  0  0  0  0  0  0
  189.0790  174.0780  140.9520 C   0  0  0  0  0  0  0  0  0  0  0  0
  185.9280  179.3030  143.5310 C   0  0  0  0  0  2  0  0  0  0  0  0
  184.7320  178.3960  143.8360 C   0  0  2  0  0  3  0  0  0  0  0  0
  186.3470  177.1160  145.1140 O   0  0  0  0  0  0  0  0  0  0  0  0
  185.1840  177.0130  144.3260 C   0  0  0  0  0  2  0  0  0  0  0  0
  187.4510  177.4690  144.2940 C   0  0  2  0  0  3  0  0  0  0  0  0
  187.1620  178.4850  143.1720 C   0  0  0  0  0  2  0  0  0  0  0  0
  183.8710  178.2540  142.5910 C   0  0  0  0  0  2  0  0  0  0  0  0
  184.6290  178.5300  141.4550 O   0  0  0  0  0  0  0  0  0  0  0  0
  183.7790  178.2410  140.3880 C   0  0  0  0  0  2  0  0  0  0  0  0
  182.5000  177.9710  140.8710 O   0  0  0  0  0  1  0  0  0  0  0  0
  191.4440  175.6260  147.3240 C   0  0  0  0  0  3  0  0  0  0  0  0
  192.4270  175.9920  146.5060 C   0  0  0  0  0  3  0  0  0  0  0  0
  193.6340  176.6730  147.0500 C   0  0  0  0  0  2  0  0  0  0  0  0
  194.5990  176.9390  145.9530 C   0  0  0  0  0  0  0  0  0  0  0  0
  195.0390  175.8610  145.1250 N   0  0  0  0  0  2  0  0  0  0  0  0
  195.0080  178.1130  145.7510 O   0  0  0  0  0  0  0  0  0  0  0  0
  195.9420  176.0590  144.0010 C   0  0  0  0  0  2  0  0  0  0  0  0
  195.0410  175.8740  142.4340 P   0  0  0  0  0  0  0  0  0  0  0  0
  195.7210  176.8760  141.2520 O   0  0  0  0  0  0  0  0  0  0  0  0
  193.4190  176.2960  142.6640 O   0  0  0  0  0  1  0  0  0  0  0  0
  195.1250  174.4340  141.9800 O   0  0  0  0  0  1  0  0  0  0  0  0
  1  2  1  0  0  0  0
  1 14  1  0  0  0  0
  2  8  1  0  0  0  0
  3 29  1  6  0  0  0
  4 16  1  0  0  0  0
  5 18  1  0  0  0  0
  6  4  2  0  0  0  0
  7  2  2  0  0  0  0
  8  3  1  0  0  0  0
  9  6  1  0  0  0  0
  9 18  2  0  0  0  0
 10  9  1  0  0  0  0
 11 10  2  0  0  0  0
 11 17  1  0  0  0  0
 12 16  2  0  0  0  0
 12 15  1  0  0  0  0
 13 11  1  0  0  0  0
 14  3  1  0  0  0  0
 15  1  2  0  0  0  0
 16  7  1  0  0  0  0
 17  5  2  0  0  0  0
 18 12  1  0  0  0  0
 19 20  1  0  0  0  0
 20 25  1  6  0  0  0
 20 22  1  0  0  0  0
 22 21  1  0  0  0  0
 23  7  1  6  0  0  0
 23 21  1  0  0  0  0
 24 19  1  0  0  0  0
 24 23  1  0  0  0  0
 26 25  1  0  0  0  0
 27 28  1  0  0  0  0
 27 26  1  0  0  0  0
 30 31  1  0  0  0  0
 30 29  2  0  0  0  0
 32 31  1  0  0  0  0
 33 32  1  0  0  0  0
 34 32  2  0  0  0  0
 35 33  1  0  0  0  0
 36 38  1  0  0  0  0
 36 35  1  0  0  0  0
 37 36  2  0  0  0  0
 39 36  1  0  0  0  0
M  END
>  <MODEL>
1

>  <REMARK>
 VINA RESULT:      -7.9      0.000      0.000
  Name = 
  9 active torsions:
  status: ('A' for Active; 'I' for Inactive)
    1  A    between atoms: C_3  and  P_4
    2  A    between atoms: C_3  and  N_27
    3  A    between atoms: C_5  and  C_6
    4  A    between atoms: C_6  and  C_14
    5  A    between atoms: C_8  and  C_9
    6  A    between atoms: C_10  and  C_30
    7  A    between atoms: C_17  and  C_26
    8  A    between atoms: C_18  and  O_20
    9  A    between atoms: O_20  and  C_30
                            x       y       z     vdW  Elec       q    Type
                         _______ _______ _______ _____ _____    ______ ____

>  <TORSDO>
F 9

$$$$
=
 OpenBabel11042417283D

 39 43  0  0  1  0  0  0  0  0999 V2000
  190.6700  176.1290  145.7580 C   0  0  0  0  0  0  0  0  0  0  0  0
  189.7480  175.5720  144.9210 C   0  0  0  0  0  0  0  0  0  0  0  0
  188.6030  176.2010  146.9140 C   0  0  1  0  0  3  0  0  0  0  0  0
  191.9400  174.7540  142.0380 C   0  0  0  0  0  3  0  0  0  0  0  0
  194.6940  176.5270  144.6770 C   0  0  0  0  0  3  0  0  0  0  0  0
  193.2830  174.8810  141.6790 C   0  0  0  0  0  3  0  0  0  0  0  0
  190.1140  175.0990  143.6560 C   0  0  0  0  0  0  0  0  0  0  0  0
  188.3950  175.5700  145.5300 C   0  0  0  0  0  2  0  0  0  0  0  0
  194.1910  175.4690  142.5600 C   0  0  0  0  0  0  0  0  0  0  0  0
  195.4970  175.5930  142.2000 N   0  0  0  0  0  0  0  0  0  0  0  0
  196.4140  176.1640  143.0270 C   0  0  0  0  0  0  0  0  0  0  0  0
  192.4040  175.8090  144.1870 C   0  0  0  0  0  0  0  0  0  0  0  0
  197.7690  176.2760  142.6130 N   0  0  0  0  0  1  0  0  0  0  0  0
  190.0920  176.5690  147.0420 C   0  0  0  0  0  2  0  0  0  0  0  0
  191.9730  176.2530  145.4030 N   0  0  0  0  0  0  0  0  0  0  0  0
  191.4790  175.2110  143.2810 C   0  0  0  0  0  0  0  0  0  0  0  0
  196.0280  176.6410  144.2830 C   0  0  0  0  0  3  0  0  0  0  0  0
  193.7550  175.9380  143.8200 C   0  0  0  0  0  0  0  0  0  0  0  0
  188.3350  174.0030  140.4310 C   0  0  0  0  0  2  0  0  0  0  0  0
  189.0320  172.6420  140.5230 C   0  0  2  0  0  3  0  0  0  0  0  0
  188.9930  173.0620  142.9110 O   0  0  0  0  0  0  0  0  0  0  0  0
  189.7330  172.4580  141.8760 C   0  0  0  0  0  2  0  0  0  0  0  0
  189.0550  174.4750  142.7820 C   0  0  2  0  0  3  0  0  0  0  0  0
  189.0010  175.0250  141.3440 C   0  0  0  0  0  2  0  0  0  0  0  0
  190.0380  172.5090  139.3910 C   0  0  0  0  0  2  0  0  0  0  0  0
  189.5970  173.2220  138.2770 O   0  0  0  0  0  0  0  0  0  0  0  0
  190.7660  173.6660  137.6610 C   0  0  0  0  0  2  0  0  0  0  0  0
  191.7820  173.7700  138.6080 O   0  0  0  0  0  1  0  0  0  0  0  0
  187.7540  177.4230  147.0400 C   0  0  0  0  0  3  0  0  0  0  0  0
  186.4390  177.3220  147.2140 C   0  0  0  0  0  3  0  0  0  0  0  0
  185.6090  178.5510  147.3490 C   0  0  0  0  0  2  0  0  0  0  0  0
  185.0120  178.9010  146.0350 C   0  0  0  0  0  0  0  0  0  0  0  0
  185.8640  179.2660  144.9480 N   0  0  0  0  0  2  0  0  0  0  0  0
  183.7620  178.8570  145.8850 O   0  0  0  0  0  0  0  0  0  0  0  0
  185.3490  179.5700  143.6220 C   0  0  0  0  0  2  0  0  0  0  0  0
  185.8690  178.2910  142.4400 P   0  0  0  0  0  0  0  0  0  0  0  0
  184.9730  178.4240  141.0100 O   0  0  0  0  0  0  0  0  0  0  0  0
  185.6190  176.7620  143.1200 O   0  0  0  0  0  1  0  0  0  0  0  0
  187.3380  178.4680  142.1300 O   0  0  0  0  0  1  0  0  0  0  0  0
  1 14  1  0  0  0  0
  2  8  1  0  0  0  0
  2  1  2  0  0  0  0
  3 29  1  6  0  0  0
  3 14  1  0  0  0  0
  4 16  1  0  0  0  0
  6  4  2  0  0  0  0
  6  9  1  0  0  0  0
  7  2  1  0  0  0  0
  8  3  1  0  0  0  0
  9 18  1  0  0  0  0
 10  9  2  0  0  0  0
 10 11  1  0  0  0  0
 11 17  2  0  0  0  0
 12 15  2  0  0  0  0
 13 11  1  0  0  0  0
 15  1  1  0  0  0  0
 16  7  2  0  0  0  0
 16 12  1  0  0  0  0
 17  5  1  0  0  0  0
 18 12  1  0  0  0  0
 18  5  2  0  0  0  0
 19 20  1  0  0  0  0
 19 24  1  0  0  0  0
 20 25  1  6  0  0  0
 20 22  1  0  0  0  0
 22 21  1  0  0  0  0
 23 21  1  0  0  0  0
 23  7  1  6  0  0  0
 24 23  1  0  0  0  0
 26 25  1  0  0  0  0
 27 26  1  0  0  0  0
 27 28  1  0  0  0  0
 29 30  2  0  0  0  0
 30 31  1  0  0  0  0
 32 31  1  0  0  0  0
 33 32  1  0  0  0  0
 34 32  2  0  0  0  0
 35 33  1  0  0  0  0
 36 38  1  0  0  0  0
 36 35  1  0  0  0  0
 37 36  2  0  0  0  0
 39 36  1  0  0  0  0
M  END
>  <MODEL>
2

>  <REMARK>
 VINA RESULT:      -7.9      3.571      7.275
  Name = 
  9 active torsions:
  status: ('A' for Active; 'I' for Inactive)
    1  A    between atoms: C_3  and  P_4
    2  A    between atoms: C_3  and  N_27
    3  A    between atoms: C_5  and  C_6
    4  A    between atoms: C_6  and  C_14
    5  A    between atoms: C_8  and  C_9
    6  A    between atoms: C_10  and  C_30
    7  A    between atoms: C_17  and  C_26
    8  A    between atoms: C_18  and  O_20
    9  A    between atoms: O_20  and  C_30
                            x       y       z     vdW  Elec       q    Type
                         _______ _______ _______ _____ _____    ______ ____

>  <TORSDO>
F 9

$$$$
=
 OpenBabel11042417283D

 39 43  0  0  1  0  0  0  0  0999 V2000
  188.8660  175.8210  142.2890 C   0  0  0  0  0  0  0  0  0  0  0  0
  189.1080  175.7290  143.6300 C   0  0  0  0  0  0  0  0  0  0  0  0
  191.0010  174.8170  142.5060 C   0  0  1  0  0  3  0  0  0  0  0  0
  185.9630  177.2140  144.9310 C   0  0  0  0  0  3  0  0  0  0  0  0
  185.3360  177.4880  140.7810 C   0  0  0  0  0  3  0  0  0  0  0  0
  184.7830  177.7640  144.4290 C   0  0  0  0  0  3  0  0  0  0  0  0
  188.1730  176.1870  144.5640 C   0  0  0  0  0  0  0  0  0  0  0  0
  190.4350  175.1230  143.9000 C   0  0  0  0  0  2  0  0  0  0  0  0
  184.5820  177.8510  143.0520 C   0  0  0  0  0  0  0  0  0  0  0  0
  183.4310  178.3940  142.5710 N   0  0  0  0  0  0  0  0  0  0  0  0
  183.1960  178.5020  141.2350 C   0  0  0  0  0  0  0  0  0  0  0  0
  186.7600  176.8220  142.6600 C   0  0  0  0  0  0  0  0  0  0  0  0
  181.9800  179.0760  140.7730 N   0  0  0  0  0  1  0  0  0  0  0  0
  189.9690  175.2880  141.4670 C   0  0  0  0  0  2  0  0  0  0  0  0
  187.7190  176.3600  141.8070 N   0  0  0  0  0  0  0  0  0  0  0  0
  186.9630  176.7400  144.0690 C   0  0  0  0  0  0  0  0  0  0  0  0
  184.1460  178.0490  140.3160 C   0  0  0  0  0  3  0  0  0  0  0  0
  185.5700  177.3810  142.1580 C   0  0  0  0  0  0  0  0  0  0  0  0
  189.9710  174.9440  147.7260 C   0  0  0  0  0  2  0  0  0  0  0  0
  190.8880  176.1700  147.6720 C   0  0  2  0  0  3  0  0  0  0  0  0
  188.9850  177.2380  146.6140 O   0  0  0  0  0  0  0  0  0  0  0  0
  190.3920  177.2010  146.6470 C   0  0  0  0  0  2  0  0  0  0  0  0
  188.4880  176.0410  146.0330 C   0  0  2  0  0  3  0  0  0  0  0  0
  189.2380  174.7480  146.4040 C   0  0  0  0  0  2  0  0  0  0  0  0
  192.3030  175.7320  147.3310 C   0  0  0  0  0  2  0  0  0  0  0  0
  192.7650  176.4420  146.2240 O   0  0  0  0  0  0  0  0  0  0  0  0
  194.0750  176.7890  146.5530 C   0  0  0  0  0  2  0  0  0  0  0  0
  194.8880  175.6590  146.4860 O   0  0  0  0  0  1  0  0  0  0  0  0
  192.2930  175.5440  142.3200 C   0  0  0  0  0  3  0  0  0  0  0  0
  193.3560  175.2420  143.0600 C   0  0  0  0  0  3  0  0  0  0  0  0
  194.6390  175.9690  142.8540 C   0  0  0  0  0  2  0  0  0  0  0  0
  195.7760  175.1110  143.2750 C   0  0  0  0  0  0  0  0  0  0  0  0
  195.5950  173.6980  143.3670 N   0  0  0  0  0  2  0  0  0  0  0  0
  196.8920  175.6350  143.5320 O   0  0  0  0  0  0  0  0  0  0  0  0
  196.6790  172.7940  143.7230 C   0  0  0  0  0  2  0  0  0  0  0  0
  196.4830  172.2240  145.4370 P   0  0  0  0  0  0  0  0  0  0  0  0
  194.8410  172.0170  145.7950 O   0  0  0  0  0  1  0  0  0  0  0  0
  197.1480  173.3680  146.4910 O   0  0  0  0  0  1  0  0  0  0  0  0
  197.2030  170.9060  145.6090 O   0  0  0  0  0  0  0  0  0  0  0  0
  1  2  1  0  0  0  0
  2  8  1  0  0  0  0
  2  7  2  0  0  0  0
  3 29  1  6  0  0  0
  3  8  1  0  0  0  0
  5 18  1  0  0  0  0
  6  4  1  0  0  0  0
  9  6  2  0  0  0  0
 10  9  1  0  0  0  0
 11 10  2  0  0  0  0
 12 16  1  0  0  0  0
 13 11  1  0  0  0  0
 14  1  1  0  0  0  0
 14  3  1  0  0  0  0
 15  1  2  0  0  0  0
 15 12  1  0  0  0  0
 16  7  1  0  0  0  0
 16  4  2  0  0  0  0
 17  5  2  0  0  0  0
 17 11  1  0  0  0  0
 18 12  2  0  0  0  0
 18  9  1  0  0  0  0
 20 25  1  6  0  0  0
 20 19  1  0  0  0  0
 21 22  1  0  0  0  0
 22 20  1  0  0  0  0
 23  7  1  6  0  0  0
 23 24  1  0  0  0  0
 23 21  1  0  0  0  0
 24 19  1  0  0  0  0
 26 27  1  0  0  0  0
 26 25  1  0  0  0  0
 28 27  1  0  0  0  0
 29 30  2  0  0  0  0
 31 30  1  0  0  0  0
 31 32  1  0  0  0  0
 32 33  1  0  0  0  0
 32 34  2  0  0  0  0
 33 35  1  0  0  0  0
 35 36  1  0  0  0  0
 36 39  2  0  0  0  0
 36 37  1  0  0  0  0
 36 38  1  0  0  0  0
M  END
>  <MODEL>
3

>  <REMARK>
 VINA RESULT:      -7.6      2.959      6.164
  Name = 
  9 active torsions:
  status: ('A' for Active; 'I' for Inactive)
    1  A    between atoms: C_3  and  P_4
    2  A    between atoms: C_3  and  N_27
    3  A    between atoms: C_5  and  C_6
    4  A    between atoms: C_6  and  C_14
    5  A    between atoms: C_8  and  C_9
    6  A    between atoms: C_10  and  C_30
    7  A    between atoms: C_17  and  C_26
    8  A    between atoms: C_18  and  O_20
    9  A    between atoms: O_20  and  C_30
                            x       y       z     vdW  Elec       q    Type
                         _______ _______ _______ _____ _____    ______ ____

>  <TORSDO>
F 9

$$$$
=
 OpenBabel11042417283D

 39 43  0  0  1  0  0  0  0  0999 V2000
  189.9900  173.5170  143.5970 C   0  0  0  0  0  0  0  0  0  0  0  0
  189.1220  174.5460  143.3700 C   0  0  0  0  0  0  0  0  0  0  0  0
  189.7780  174.6650  145.6590 C   0  0  1  0  0  3  0  0  0  0  0  0
  188.3810  173.9550  139.7800 C   0  0  0  0  0  3  0  0  0  0  0  0
  191.0970  170.8430  140.5730 C   0  0  0  0  0  3  0  0  0  0  0  0
  188.7440  173.0600  138.7740 C   0  0  0  0  0  3  0  0  0  0  0  0
  188.5560  174.7470  142.1080 C   0  0  0  0  0  0  0  0  0  0  0  0
  188.9150  175.3570  144.5950 C   0  0  0  0  0  2  0  0  0  0  0  0
  189.6450  172.0300  139.0430 C   0  0  0  0  0  0  0  0  0  0  0  0
  189.9980  171.1650  138.0540 N   0  0  0  0  0  0  0  0  0  0  0  0
  190.8760  170.1490  138.2740 C   0  0  0  0  0  0  0  0  0  0  0  0
  189.8260  172.7840  141.3580 C   0  0  0  0  0  0  0  0  0  0  0  0
  191.2190  169.2670  137.2140 N   0  0  0  0  0  1  0  0  0  0  0  0
  190.4810  173.4710  144.9870 C   0  0  0  0  0  2  0  0  0  0  0  0
  190.3430  172.6530  142.6130 N   0  0  0  0  0  0  0  0  0  0  0  0
  188.9080  173.8380  141.0750 C   0  0  0  0  0  0  0  0  0  0  0  0
  191.4410  169.9700  139.5400 C   0  0  0  0  0  3  0  0  0  0  0  0
  190.1920  171.8860  140.3390 C   0  0  0  0  0  0  0  0  0  0  0  0
  185.7830  177.2580  142.9910 C   0  0  0  0  0  2  0  0  0  0  0  0
  186.8510  178.2610  143.4380 C   0  0  2  0  0  3  0  0  0  0  0  0
  188.2350  177.1470  141.7880 O   0  0  0  0  0  0  0  0  0  0  0  0
  188.2600  177.8050  143.0330 C   0  0  0  0  0  2  0  0  0  0  0  0
  187.5880  175.8900  141.9230 C   0  0  2  0  0  3  0  0  0  0  0  0
  186.3670  175.8560  142.8620 C   0  0  0  0  0  2  0  0  0  0  0  0
  186.7750  178.4470  144.9450 C   0  0  0  0  0  2  0  0  0  0  0  0
  185.7760  179.3660  145.2610 O   0  0  0  0  0  0  0  0  0  0  0  0
  185.2710  178.9280  146.4850 C   0  0  0  0  0  2  0  0  0  0  0  0
  184.4050  177.8560  146.2750 O   0  0  0  0  0  1  0  0  0  0  0  0
  190.7880  175.6290  146.1890 C   0  0  0  0  0  3  0  0  0  0  0  0
  192.0790  175.3090  146.2290 C   0  0  0  0  0  3  0  0  0  0  0  0
  193.0730  176.2870  146.7500 C   0  0  0  0  0  2  0  0  0  0  0  0
  194.0990  176.5620  145.7120 C   0  0  0  0  0  0  0  0  0  0  0  0
  194.3460  175.5950  144.6910 N   0  0  0  0  0  2  0  0  0  0  0  0
  194.7320  177.6520  145.7320 O   0  0  0  0  0  0  0  0  0  0  0  0
  195.2990  175.8220  143.6140 C   0  0  0  0  0  2  0  0  0  0  0  0
  194.4950  175.5720  142.0040 P   0  0  0  0  0  0  0  0  0  0  0  0
  192.8190  175.4520  142.2040 O   0  0  0  0  0  1  0  0  0  0  0  0
  195.0800  174.1510  141.2970 O   0  0  0  0  0  1  0  0  0  0  0  0
  194.8100  176.7460  141.1040 O   0  0  0  0  0  0  0  0  0  0  0  0
  1 14  1  0  0  0  0
  2  1  1  0  0  0  0
  2  8  1  0  0  0  0
  3 29  1  6  0  0  0
  4 16  1  0  0  0  0
  6  9  1  0  0  0  0
  6  4  2  0  0  0  0
  7  2  2  0  0  0  0
  8  3  1  0  0  0  0
  9 18  2  0  0  0  0
 10 11  2  0  0  0  0
 10  9  1  0  0  0  0
 11 17  1  0  0  0  0
 12 15  1  0  0  0  0
 13 11  1  0  0  0  0
 14  3  1  0  0  0  0
 15  1  2  0  0  0  0
 16 12  2  0  0  0  0
 16  7  1  0  0  0  0
 17  5  2  0  0  0  0
 18  5  1  0  0  0  0
 18 12  1  0  0  0  0
 19 20  1  0  0  0  0
 20 25  1  1  0  0  0
 21 23  1  0  0  0  0
 21 22  1  0  0  0  0
 22 20  1  0  0  0  0
 23  7  1  1  0  0  0
 23 24  1  0  0  0  0
 24 19  1  0  0  0  0
 25 26  1  0  0  0  0
 26 27  1  0  0  0  0
 28 27  1  0  0  0  0
 29 30  2  0  0  0  0
 30 31  1  0  0  0  0
 32 34  2  0  0  0  0
 32 31  1  0  0  0  0
 33 32  1  0  0  0  0
 35 33  1  0  0  0  0
 36 37  1  0  0  0  0
 36 35  1  0  0  0  0
 38 36  1  0  0  0  0
 39 36  2  0  0  0  0
M  END
>  <MODEL>
4

>  <REMARK>
 VINA RESULT:      -7.5      1.747      2.812
  Name = 
  9 active torsions:
  status: ('A' for Active; 'I' for Inactive)
    1  A    between atoms: C_3  and  P_4
    2  A    between atoms: C_3  and  N_27
    3  A    between atoms: C_5  and  C_6
    4  A    between atoms: C_6  and  C_14
    5  A    between atoms: C_8  and  C_9
    6  A    between atoms: C_10  and  C_30
    7  A    between atoms: C_17  and  C_26
    8  A    between atoms: C_18  and  O_20
    9  A    between atoms: O_20  and  C_30
                            x       y       z     vdW  Elec       q    Type
                         _______ _______ _______ _____ _____    ______ ____

>  <TORSDO>
F 9

$$$$
=
 OpenBabel11042417283D

 39 43  0  0  1  0  0  0  0  0999 V2000
  187.9350  176.1350  141.0720 C   0  0  0  0  0  0  0  0  0  0  0  0
  188.7740  176.6420  142.0210 C   0  0  0  0  0  0  0  0  0  0  0  0
  186.9640  178.1740  141.7870 C   0  0  1  0  0  3  0  0  0  0  0  0
  191.3790  173.9960  142.0250 C   0  0  0  0  0  3  0  0  0  0  0  0
  188.7040  172.4990  139.1460 C   0  0  0  0  0  3  0  0  0  0  0  0
  191.6390  172.7870  141.3790 C   0  0  0  0  0  3  0  0  0  0  0  0
  189.9420  175.9650  142.3870 C   0  0  0  0  0  0  0  0  0  0  0  0
  188.2650  177.9260  142.5630 C   0  0  0  0  0  2  0  0  0  0  0  0
  190.7480  172.2970  140.4250 C   0  0  0  0  0  0  0  0  0  0  0  0
  191.0070  171.1150  139.8030 N   0  0  0  0  0  0  0  0  0  0  0  0
  190.1620  170.5990  138.8690 C   0  0  0  0  0  0  0  0  0  0  0  0
  189.3140  174.2440  140.7530 C   0  0  0  0  0  0  0  0  0  0  0  0
  190.4680  169.3600  138.2430 N   0  0  0  0  0  1  0  0  0  0  0  0
  186.7590  176.9900  140.8250 C   0  0  0  0  0  2  0  0  0  0  0  0
  188.1910  174.9570  140.4500 N   0  0  0  0  0  0  0  0  0  0  0  0
  190.2260  174.7390  141.7300 C   0  0  0  0  0  0  0  0  0  0  0  0
  188.9940  171.2840  138.5240 C   0  0  0  0  0  3  0  0  0  0  0  0
  189.5780  173.0240  140.1060 C   0  0  0  0  0  0  0  0  0  0  0  0
  192.5310  176.1430  145.2220 C   0  0  0  0  0  2  0  0  0  0  0  0
  193.6400  176.3300  144.1810 C   0  0  2  0  0  3  0  0  0  0  0  0
  191.8860  177.3640  142.8630 O   0  0  0  0  0  0  0  0  0  0  0  0
  193.0630  176.5940  142.7830 C   0  0  0  0  0  2  0  0  0  0  0  0
  190.8410  176.5850  143.4280 C   0  0  2  0  0  3  0  0  0  0  0  0
  191.2480  175.6380  144.5730 C   0  0  0  0  0  2  0  0  0  0  0  0
  194.5270  175.0960  144.1560 C   0  0  0  0  0  2  0  0  0  0  0  0
  195.4340  175.1850  143.1010 O   0  0  0  0  0  0  0  0  0  0  0  0
  196.6280  175.5860  143.6980 C   0  0  0  0  0  2  0  0  0  0  0  0
  197.0440  176.7940  143.1420 O   0  0  0  0  0  1  0  0  0  0  0  0
  185.8200  178.2690  142.7440 C   0  0  0  0  0  3  0  0  0  0  0  0
  185.6810  179.3310  143.5320 C   0  0  0  0  0  3  0  0  0  0  0  0
  184.5290  179.4140  144.4730 C   0  0  0  0  0  2  0  0  0  0  0  0
  184.8330  178.6480  145.7080 C   0  0  0  0  0  0  0  0  0  0  0  0
  186.1860  178.3080  146.0120 N   0  0  0  0  0  2  0  0  0  0  0  0
  183.8970  178.3180  146.4850 O   0  0  0  0  0  0  0  0  0  0  0  0
  186.5590  177.6040  147.2300 C   0  0  0  0  0  2  0  0  0  0  0  0
  187.9520  176.4850  146.9050 P   0  0  0  0  0  0  0  0  0  0  0  0
  189.4170  177.2880  147.1770 O   0  0  0  0  0  1  0  0  0  0  0  0
  187.8890  175.9590  145.2980 O   0  0  0  0  0  0  0  0  0  0  0  0
  187.8570  175.2900  147.8280 O   0  0  0  0  0  1  0  0  0  0  0  0
  1  2  1  0  0  0  0
  2  7  2  0  0  0  0
  2  8  1  0  0  0  0
  3  8  1  0  0  0  0
  3 29  1  1  0  0  0
  5 18  1  0  0  0  0
  6  4  2  0  0  0  0
  9  6  1  0  0  0  0
 10  9  1  0  0  0  0
 11 10  2  0  0  0  0
 12 16  2  0  0  0  0
 13 11  1  0  0  0  0
 14  1  1  0  0  0  0
 14  3  1  0  0  0  0
 15 12  1  0  0  0  0
 15  1  2  0  0  0  0
 16  4  1  0  0  0  0
 16  7  1  0  0  0  0
 17 11  1  0  0  0  0
 17  5  2  0  0  0  0
 18  9  2  0  0  0  0
 18 12  1  0  0  0  0
 20 25  1  6  0  0  0
 20 19  1  0  0  0  0
 21 23  1  0  0  0  0
 22 21  1  0  0  0  0
 22 20  1  0  0  0  0
 23  7  1  6  0  0  0
 23 24  1  0  0  0  0
 24 19  1  0  0  0  0
 26 27  1  0  0  0  0
 26 25  1  0  0  0  0
 28 27  1  0  0  0  0
 29 30  2  0  0  0  0
 30 31  1  0  0  0  0
 31 32  1  0  0  0  0
 32 33  1  0  0  0  0
 32 34  2  0  0  0  0
 33 35  1  0  0  0  0
 36 37  1  0  0  0  0
 36 35  1  0  0  0  0
 36 39  1  0  0  0  0
 38 36  2  0  0  0  0
M  END
>  <MODEL>
5

>  <REMARK>
 VINA RESULT:      -7.2      2.929      7.356
  Name = 
  9 active torsions:
  status: ('A' for Active; 'I' for Inactive)
    1  A    between atoms: C_3  and  P_4
    2  A    between atoms: C_3  and  N_27
    3  A    between atoms: C_5  and  C_6
    4  A    between atoms: C_6  and  C_14
    5  A    between atoms: C_8  and  C_9
    6  A    between atoms: C_10  and  C_30
    7  A    between atoms: C_17  and  C_26
    8  A    between atoms: C_18  and  O_20
    9  A    between atoms: O_20  and  C_30
                            x       y       z     vdW  Elec       q    Type
                         _______ _______ _______ _____ _____    ______ ____

>  <TORSDO>
F 9

$$$$
=
 OpenBabel11042417283D

 39 43  0  0  1  0  0  0  0  0999 V2000
  188.8090  174.1410  141.0760 C   0  0  0  0  0  0  0  0  0  0  0  0
  190.0750  174.0810  141.5840 C   0  0  0  0  0  0  0  0  0  0  0  0
  189.9470  172.4870  139.8170 C   0  0  1  0  0  3  0  0  0  0  0  0
  189.7960  176.6540  144.2470 C   0  0  0  0  0  3  0  0  0  0  0  0
  185.9380  176.7900  142.5780 C   0  0  0  0  0  3  0  0  0  0  0  0
  188.8370  177.5330  144.7520 C   0  0  0  0  0  3  0  0  0  0  0  0
  190.4660  174.9050  142.6440 C   0  0  0  0  0  0  0  0  0  0  0  0
  190.9000  173.0810  140.8640 C   0  0  0  0  0  2  0  0  0  0  0  0
  187.5600  177.5720  144.1950 C   0  0  0  0  0  0  0  0  0  0  0  0
  186.6330  178.4350  144.6900 N   0  0  0  0  0  0  0  0  0  0  0  0
  185.3770  178.5080  144.1730 C   0  0  0  0  0  0  0  0  0  0  0  0
  188.1920  175.8300  142.6060 C   0  0  0  0  0  0  0  0  0  0  0  0
  184.4370  179.4250  144.7190 N   0  0  0  0  0  1  0  0  0  0  0  0
  188.5900  173.1980  139.9630 C   0  0  0  0  0  2  0  0  0  0  0  0
  187.8830  174.9990  141.5690 N   0  0  0  0  0  0  0  0  0  0  0  0
  189.4980  175.7980  143.1770 C   0  0  0  0  0  0  0  0  0  0  0  0
  185.0070  177.6850  143.1060 C   0  0  0  0  0  3  0  0  0  0  0  0
  187.2290  176.7200  143.1160 C   0  0  0  0  0  0  0  0  0  0  0  0
  193.6590  175.8640  144.5560 C   0  0  0  0  0  2  0  0  0  0  0  0
  193.1500  175.0860  145.7730 C   0  0  2  0  0  3  0  0  0  0  0  0
  192.0150  173.7250  144.1170 O   0  0  0  0  0  0  0  0  0  0  0  0
  191.9180  174.2370  145.4260 C   0  0  0  0  0  2  0  0  0  0  0  0
  191.8720  174.7800  143.1780 C   0  0  2  0  0  3  0  0  0  0  0  0
  192.5370  176.1170  143.5570 C   0  0  0  0  0  2  0  0  0  0  0  0
  192.8160  176.0570  146.8940 C   0  0  0  0  0  2  0  0  0  0  0  0
  191.6830  175.6200  147.5790 O   0  0  0  0  0  0  0  0  0  0  0  0
  190.9890  176.7890  147.8870 C   0  0  0  0  0  2  0  0  0  0  0  0
  191.7270  177.5450  148.7950 O   0  0  0  0  0  1  0  0  0  0  0  0
  190.5050  172.7100  138.4490 C   0  0  0  0  0  3  0  0  0  0  0  0
  191.2460  173.7810  138.1840 C   0  0  0  0  0  3  0  0  0  0  0  0
  191.8030  173.9820  136.8180 C   0  0  0  0  0  2  0  0  0  0  0  0
  190.6970  174.0430  135.8280 C   0  0  0  0  0  0  0  0  0  0  0  0
  189.7740  175.1320  135.8690 N   0  0  0  0  0  2  0  0  0  0  0  0
  190.5930  173.1440  134.9520 O   0  0  0  0  0  0  0  0  0  0  0  0
  188.7000  175.2810  134.8990 C   0  0  0  0  0  2  0  0  0  0  0  0
  187.3560  176.2830  135.6010 P   0  0  0  0  0  0  0  0  0  0  0  0
  187.8140  177.9110  135.6530 O   0  0  0  0  0  1  0  0  0  0  0  0
  187.0120  175.7450  137.1680 O   0  0  0  0  0  1  0  0  0  0  0  0
  186.1230  176.1350  134.7390 O   0  0  0  0  0  0  0  0  0  0  0  0
  1 15  2  0  0  0  0
  1  2  1  0  0  0  0
  2  7  2  0  0  0  0
  3 29  1  6  0  0  0
  3 14  1  0  0  0  0
  3  8  1  0  0  0  0
  4  6  1  0  0  0  0
  5 17  2  0  0  0  0
  5 18  1  0  0  0  0
  7 16  1  0  0  0  0
  8  2  1  0  0  0  0
  9 10  1  0  0  0  0
  9  6  2  0  0  0  0
 11 10  2  0  0  0  0
 11 13  1  0  0  0  0
 12 18  2  0  0  0  0
 12 16  1  0  0  0  0
 14  1  1  0  0  0  0
 15 12  1  0  0  0  0
 16  4  2  0  0  0  0
 17 11  1  0  0  0  0
 18  9  1  0  0  0  0
 19 20  1  0  0  0  0
 20 25  1  1  0  0  0
 21 22  1  0  0  0  0
 22 20  1  0  0  0  0
 23  7  1  1  0  0  0
 23 24  1  0  0  0  0
 23 21  1  0  0  0  0
 24 19  1  0  0  0  0
 25 26  1  0  0  0  0
 26 27  1  0  0  0  0
 27 28  1  0  0  0  0
 30 29  2  0  0  0  0
 31 30  1  0  0  0  0
 32 33  1  0  0  0  0
 32 31  1  0  0  0  0
 34 32  2  0  0  0  0
 35 36  1  0  0  0  0
 35 33  1  0  0  0  0
 36 37  1  0  0  0  0
 36 38  1  0  0  0  0
 39 36  2  0  0  0  0
M  END
>  <MODEL>
6

>  <REMARK>
 VINA RESULT:      -7.1      3.771      8.197
  Name = 
  9 active torsions:
  status: ('A' for Active; 'I' for Inactive)
    1  A    between atoms: C_3  and  P_4
    2  A    between atoms: C_3  and  N_27
    3  A    between atoms: C_5  and  C_6
    4  A    between atoms: C_6  and  C_14
    5  A    between atoms: C_8  and  C_9
    6  A    between atoms: C_10  and  C_30
    7  A    between atoms: C_17  and  C_26
    8  A    between atoms: C_18  and  O_20
    9  A    between atoms: O_20  and  C_30
                            x       y       z     vdW  Elec       q    Type
                         _______ _______ _______ _____ _____    ______ ____

>  <TORSDO>
F 9

$$$$
=
 OpenBabel11042417283D

 39 43  0  0  1  0  0  0  0  0999 V2000
  189.7700  175.6560  142.3620 C   0  0  0  0  0  0  0  0  0  0  0  0
  190.9090  175.7050  143.1130 C   0  0  0  0  0  0  0  0  0  0  0  0
  189.5370  177.5320  143.7900 C   0  0  1  0  0  3  0  0  0  0  0  0
  192.6930  172.7570  141.7270 C   0  0  0  0  0  3  0  0  0  0  0  0
  189.1270  172.6720  139.4970 C   0  0  0  0  0  3  0  0  0  0  0  0
  192.4810  171.7660  140.7680 C   0  0  0  0  0  3  0  0  0  0  0  0
  191.9220  174.7540  142.9490 C   0  0  0  0  0  0  0  0  0  0  0  0
  190.8800  176.8400  144.0660 C   0  0  0  0  0  2  0  0  0  0  0  0
  191.2970  171.7440  140.0320 C   0  0  0  0  0  0  0  0  0  0  0  0
  191.0970  170.7710  139.1020 N   0  0  0  0  0  0  0  0  0  0  0  0
  189.9550  170.7120  138.3650 C   0  0  0  0  0  0  0  0  0  0  0  0
  190.5150  173.7300  141.2160 C   0  0  0  0  0  0  0  0  0  0  0  0
  189.7850  169.6780  137.4040 N   0  0  0  0  0  1  0  0  0  0  0  0
  188.8220  176.7390  142.6820 C   0  0  0  0  0  2  0  0  0  0  0  0
  189.5690  174.6880  141.4340 N   0  0  0  0  0  0  0  0  0  0  0  0
  191.7270  173.7450  141.9680 C   0  0  0  0  0  0  0  0  0  0  0  0
  188.9480  171.6630  138.5510 C   0  0  0  0  0  3  0  0  0  0  0  0
  190.3060  172.7280  140.2520 C   0  0  0  0  0  0  0  0  0  0  0  0
  194.4920  176.3470  145.3210 C   0  0  0  0  0  2  0  0  0  0  0  0
  193.7680  175.7120  146.5120 C   0  0  2  0  0  3  0  0  0  0  0  0
  193.1620  173.9950  144.9100 O   0  0  0  0  0  0  0  0  0  0  0  0
  192.7200  174.6870  146.0550 C   0  0  0  0  0  2  0  0  0  0  0  0
  193.1670  174.8710  143.7930 C   0  0  2  0  0  3  0  0  0  0  0  0
  193.6220  176.3170  144.0700 C   0  0  0  0  0  2  0  0  0  0  0  0
  193.1080  176.7990  147.3440 C   0  0  0  0  0  2  0  0  0  0  0  0
  191.9530  176.3010  147.9460 O   0  0  0  0  0  0  0  0  0  0  0  0
  191.2000  177.4340  148.2500 C   0  0  0  0  0  2  0  0  0  0  0  0
  191.5670  177.9150  149.5050 O   0  0  0  0  0  1  0  0  0  0  0  0
  188.7130  177.5420  145.0360 C   0  0  0  0  0  3  0  0  0  0  0  0
  188.5880  176.4440  145.7760 C   0  0  0  0  0  3  0  0  0  0  0  0
  187.7710  176.4740  147.0210 C   0  0  0  0  0  2  0  0  0  0  0  0
  186.6170  177.3910  146.8430 C   0  0  0  0  0  0  0  0  0  0  0  0
  185.6240  177.0920  145.8610 N   0  0  0  0  0  2  0  0  0  0  0  0
  186.5160  178.4160  147.5690 O   0  0  0  0  0  0  0  0  0  0  0  0
  184.4420  177.9190  145.6700 C   0  0  0  0  0  2  0  0  0  0  0  0
  184.4600  178.6640  144.0130 P   0  0  0  0  0  0  0  0  0  0  0  0
  185.0780  177.5600  142.8880 O   0  0  0  0  0  0  0  0  0  0  0  0
  185.4280  180.0510  144.0290 O   0  0  0  0  0  1  0  0  0  0  0  0
  183.0490  179.0420  143.6220 O   0  0  0  0  0  1  0  0  0  0  0  0
  1 14  1  0  0  0  0
  1  2  1  0  0  0  0
  2  8  1  0  0  0  0
  3  8  1  0  0  0  0
  3 29  1  1  0  0  0
  4 16  1  0  0  0  0
  5 18  1  0  0  0  0
  6  4  2  0  0  0  0
  7  2  2  0  0  0  0
  9 18  2  0  0  0  0
  9  6  1  0  0  0  0
 10  9  1  0  0  0  0
 11 17  1  0  0  0  0
 11 10  2  0  0  0  0
 12 15  1  0  0  0  0
 12 16  2  0  0  0  0
 13 11  1  0  0  0  0
 14  3  1  0  0  0  0
 15  1  2  0  0  0  0
 16  7  1  0  0  0  0
 17  5  2  0  0  0  0
 18 12  1  0  0  0  0
 19 20  1  0  0  0  0
 20 25  1  6  0  0  0
 21 22  1  0  0  0  0
 22 20  1  0  0  0  0
 23  7  1  1  0  0  0
 23 24  1  0  0  0  0
 23 21  1  0  0  0  0
 24 19  1  0  0  0  0
 25 26  1  0  0  0  0
 26 27  1  0  0  0  0
 27 28  1  0  0  0  0
 29 30  2  0  0  0  0
 30 31  1  0  0  0  0
 32 31  1  0  0  0  0
 32 34  2  0  0  0  0
 33 32  1  0  0  0  0
 35 33  1  0  0  0  0
 36 38  1  0  0  0  0
 36 35  1  0  0  0  0
 37 36  2  0  0  0  0
 39 36  1  0  0  0  0
M  END
>  <MODEL>
7

>  <REMARK>
 VINA RESULT:      -7.1      3.182      7.226
  Name = 
  9 active torsions:
  status: ('A' for Active; 'I' for Inactive)
    1  A    between atoms: C_3  and  P_4
    2  A    between atoms: C_3  and  N_27
    3  A    between atoms: C_5  and  C_6
    4  A    between atoms: C_6  and  C_14
    5  A    between atoms: C_8  and  C_9
    6  A    between atoms: C_10  and  C_30
    7  A    between atoms: C_17  and  C_26
    8  A    between atoms: C_18  and  O_20
    9  A    between atoms: O_20  and  C_30
                            x       y       z     vdW  Elec       q    Type
                         _______ _______ _______ _____ _____    ______ ____

>  <TORSDO>
F 9

$$$$
=
 OpenBabel11042417283D

 39 43  0  0  1  0  0  0  0  0999 V2000
  188.8140  174.4390  140.9670 C   0  0  0  0  0  0  0  0  0  0  0  0
  190.0780  174.3530  141.4760 C   0  0  0  0  0  0  0  0  0  0  0  0
  190.0090  172.9920  139.5200 C   0  0  1  0  0  3  0  0  0  0  0  0
  189.7060  176.5590  144.4390 C   0  0  0  0  0  3  0  0  0  0  0  0
  185.8540  176.7890  142.7650 C   0  0  0  0  0  3  0  0  0  0  0  0
  188.7180  177.3380  145.0420 C   0  0  0  0  0  3  0  0  0  0  0  0
  190.4380  175.0480  142.6340 C   0  0  0  0  0  0  0  0  0  0  0  0
  190.9380  173.4770  140.6430 C   0  0  0  0  0  2  0  0  0  0  0  0
  187.4430  177.4090  144.4820 C   0  0  0  0  0  0  0  0  0  0  0  0
  186.4860  178.1750  145.0740 N   0  0  0  0  0  0  0  0  0  0  0  0
  185.2320  178.2750  144.5580 C   0  0  0  0  0  0  0  0  0  0  0  0
  188.1360  175.9020  142.6920 C   0  0  0  0  0  0  0  0  0  0  0  0
  184.2610  179.0870  145.2070 N   0  0  0  0  0  1  0  0  0  0  0  0
  188.6300  173.6380  139.7420 C   0  0  0  0  0  2  0  0  0  0  0  0
  187.8590  175.2000  141.5560 N   0  0  0  0  0  0  0  0  0  0  0  0
  189.4400  175.8360  143.2670 C   0  0  0  0  0  0  0  0  0  0  0  0
  184.8930  177.5820  143.3930 C   0  0  0  0  0  3  0  0  0  0  0  0
  187.1440  176.6910  143.3020 C   0  0  0  0  0  0  0  0  0  0  0  0
  193.6480  175.9400  144.5500 C   0  0  0  0  0  2  0  0  0  0  0  0
  193.1340  175.1480  145.7560 C   0  0  2  0  0  3  0  0  0  0  0  0
  191.9790  173.8270  144.0820 O   0  0  0  0  0  0  0  0  0  0  0  0
  191.8920  174.3190  145.4000 C   0  0  0  0  0  2  0  0  0  0  0  0
  191.8440  174.8990  143.1610 C   0  0  2  0  0  3  0  0  0  0  0  0
  192.5250  176.2220  143.5590 C   0  0  0  0  0  2  0  0  0  0  0  0
  192.8150  176.1040  146.8940 C   0  0  0  0  0  2  0  0  0  0  0  0
  191.7480  175.6110  147.6440 O   0  0  0  0  0  0  0  0  0  0  0  0
  191.0060  176.7420  147.9820 C   0  0  0  0  0  2  0  0  0  0  0  0
  191.7460  177.5410  148.8510 O   0  0  0  0  0  1  0  0  0  0  0  0
  190.5670  173.4020  138.1960 C   0  0  0  0  0  3  0  0  0  0  0  0
  191.6910  174.1080  138.1220 C   0  0  0  0  0  3  0  0  0  0  0  0
  192.2400  174.4990  136.7940 C   0  0  0  0  0  2  0  0  0  0  0  0
  193.6010  175.0680  136.9610 C   0  0  0  0  0  0  0  0  0  0  0  0
  194.3880  174.6950  138.0930 N   0  0  0  0  0  2  0  0  0  0  0  0
  194.0570  175.8620  136.0950 O   0  0  0  0  0  0  0  0  0  0  0  0
  195.7470  175.1750  138.2910 C   0  0  0  0  0  2  0  0  0  0  0  0
  196.1440  175.2190  140.0630 P   0  0  0  0  0  0  0  0  0  0  0  0
  195.1500  176.3390  140.8520 O   0  0  0  0  0  1  0  0  0  0  0  0
  197.7640  175.6650  140.2670 O   0  0  0  0  0  0  0  0  0  0  0  0
  195.9240  173.8470  140.6570 O   0  0  0  0  0  1  0  0  0  0  0  0
  1  2  2  0  0  0  0
  1 15  1  0  0  0  0
  2  7  1  0  0  0  0
  3 29  1  6  0  0  0
  3 14  1  0  0  0  0
  3  8  1  0  0  0  0
  4  6  2  0  0  0  0
  5 18  2  0  0  0  0
  5 17  1  0  0  0  0
  7 16  2  0  0  0  0
  8  2  1  0  0  0  0
  9  6  1  0  0  0  0
  9 10  2  0  0  0  0
 11 10  1  0  0  0  0
 11 13  1  0  0  0  0
 12 16  1  0  0  0  0
 12 18  1  0  0  0  0
 14  1  1  0  0  0  0
 15 12  2  0  0  0  0
 16  4  1  0  0  0  0
 17 11  2  0  0  0  0
 18  9  1  0  0  0  0
 19 20  1  0  0  0  0
 20 25  1  1  0  0  0
 21 22  1  0  0  0  0
 22 20  1  0  0  0  0
 23  7  1  1  0  0  0
 23 24  1  0  0  0  0
 23 21  1  0  0  0  0
 24 19  1  0  0  0  0
 25 26  1  0  0  0  0
 26 27  1  0  0  0  0
 27 28  1  0  0  0  0
 30 29  2  0  0  0  0
 31 32  1  0  0  0  0
 31 30  1  0  0  0  0
 32 33  1  0  0  0  0
 33 35  1  0  0  0  0
 34 32  2  0  0  0  0
 35 36  1  0  0  0  0
 36 38  2  0  0  0  0
 36 39  1  0  0  0  0
 36 37  1  0  0  0  0
M  END
>  <MODEL>
8

>  <REMARK>
 VINA RESULT:      -7.0      3.345      7.164
  Name = 
  9 active torsions:
  status: ('A' for Active; 'I' for Inactive)
    1  A    between atoms: C_3  and  P_4
    2  A    between atoms: C_3  and  N_27
    3  A    between atoms: C_5  and  C_6
    4  A    between atoms: C_6  and  C_14
    5  A    between atoms: C_8  and  C_9
    6  A    between atoms: C_10  and  C_30
    7  A    between atoms: C_17  and  C_26
    8  A    between atoms: C_18  and  O_20
    9  A    between atoms: O_20  and  C_30
                            x       y       z     vdW  Elec       q    Type
                         _______ _______ _______ _____ _____    ______ ____

>  <TORSDO>
F 9

$$$$
=
 OpenBabel11042417283D

 39 43  0  0  1  0  0  0  0  0999 V2000
  192.5340  176.3460  145.6850 C   0  0  0  0  0  0  0  0  0  0  0  0
  192.9360  175.9860  144.4310 C   0  0  0  0  0  0  0  0  0  0  0  0
  194.8870  176.0940  145.7960 C   0  0  1  0  0  3  0  0  0  0  0  0
  189.6480  175.9660  142.7060 C   0  0  0  0  0  3  0  0  0  0  0  0
  188.5100  177.0310  146.6120 C   0  0  0  0  0  3  0  0  0  0  0  0
  188.3070  176.2010  143.0130 C   0  0  0  0  0  3  0  0  0  0  0  0
  192.0110  175.8360  143.3930 C   0  0  0  0  0  0  0  0  0  0  0  0
  194.4040  175.7820  144.3720 C   0  0  0  0  0  2  0  0  0  0  0  0
  187.9370  176.5540  144.3100 C   0  0  0  0  0  0  0  0  0  0  0  0
  186.6270  176.7750  144.6020 N   0  0  0  0  0  0  0  0  0  0  0  0
  186.2230  177.1180  145.8550 C   0  0  0  0  0  0  0  0  0  0  0  0
  190.2720  176.4470  145.0140 C   0  0  0  0  0  0  0  0  0  0  0  0
  184.8440  177.3400  146.1190 N   0  0  0  0  0  1  0  0  0  0  0  0
  193.6510  176.4510  146.6420 C   0  0  0  0  0  2  0  0  0  0  0  0
  191.2290  176.5690  145.9780 N   0  0  0  0  0  0  0  0  0  0  0  0
  190.6440  176.0820  143.6870 C   0  0  0  0  0  0  0  0  0  0  0  0
  187.1590  177.2520  146.8840 C   0  0  0  0  0  3  0  0  0  0  0  0
  188.9180  176.6790  145.3190 C   0  0  0  0  0  0  0  0  0  0  0  0
  194.5190  175.3370  140.5230 C   0  0  0  0  0  2  0  0  0  0  0  0
  194.7420  173.8940  140.9840 C   0  0  2  0  0  3  0  0  0  0  0  0
  192.4570  174.0570  141.7800 O   0  0  0  0  0  0  0  0  0  0  0  0
  193.7120  173.4740  142.0430 C   0  0  0  0  0  2  0  0  0  0  0  0
  192.5180  175.4550  142.0230 C   0  0  2  0  0  3  0  0  0  0  0  0
  193.8220  176.1580  141.6010 C   0  0  0  0  0  2  0  0  0  0  0  0
  196.1500  173.7500  141.5400 C   0  0  0  0  0  2  0  0  0  0  0  0
  196.8710  174.9220  141.3170 O   0  0  0  0  0  0  0  0  0  0  0  0
  197.7130  175.0300  142.4230 C   0  0  0  0  0  2  0  0  0  0  0  0
  197.6040  176.3070  142.9700 O   0  0  0  0  0  1  0  0  0  0  0  0
  195.5760  174.8970  146.3650 C   0  0  0  0  0  3  0  0  0  0  0  0
  196.1200  173.9830  145.5660 C   0  0  0  0  0  3  0  0  0  0  0  0
  196.8140  172.8020  146.1490 C   0  0  0  0  0  2  0  0  0  0  0  0
  196.5110  171.5920  145.3420 C   0  0  0  0  0  0  0  0  0  0  0  0
  195.4020  171.6050  144.4420 N   0  0  0  0  0  2  0  0  0  0  0  0
  197.2420  170.5710  145.4470 O   0  0  0  0  0  0  0  0  0  0  0  0
  195.0800  170.4740  143.5840 C   0  0  0  0  0  2  0  0  0  0  0  0
  193.4090  169.8640  143.9530 P   0  0  0  0  0  0  0  0  0  0  0  0
  192.4030  171.1550  144.3850 O   0  0  0  0  0  1  0  0  0  0  0  0
  193.4820  168.7570  145.2290 O   0  0  0  0  0  1  0  0  0  0  0  0
  192.8480  169.1800  142.7270 O   0  0  0  0  0  0  0  0  0  0  0  0
  1 15  1  0  0  0  0
  1 14  1  0  0  0  0
  2  1  2  0  0  0  0
  3 29  1  1  0  0  0
  3 14  1  0  0  0  0
  4  6  2  0  0  0  0
  4 16  1  0  0  0  0
  5 17  1  0  0  0  0
  6  9  1  0  0  0  0
  7 16  2  0  0  0  0
  7  2  1  0  0  0  0
  8  2  1  0  0  0  0
  8  3  1  0  0  0  0
  9 10  2  0  0  0  0
  9 18  1  0  0  0  0
 10 11  1  0  0  0  0
 11 13  1  0  0  0  0
 11 17  2  0  0  0  0
 12 18  1  0  0  0  0
 12 15  2  0  0  0  0
 16 12  1  0  0  0  0
 18  5  2  0  0  0  0
 19 20  1  0  0  0  0
 19 24  1  0  0  0  0
 20 25  1  1  0  0  0
 20 22  1  0  0  0  0
 21 23  1  0  0  0  0
 21 22  1  0  0  0  0
 23  7  1  1  0  0  0
 24 23  1  0  0  0  0
 26 25  1  0  0  0  0
 26 27  1  0  0  0  0
 27 28  1  0  0  0  0
 30 31  1  0  0  0  0
 30 29  2  0  0  0  0
 32 34  2  0  0  0  0
 32 31  1  0  0  0  0
 33 32  1  0  0  0  0
 35 36  1  0  0  0  0
 35 33  1  0  0  0  0
 36 37  1  0  0  0  0
 36 38  1  0  0  0  0
 39 36  2  0  0  0  0
M  END
>  <MODEL>
9

>  <REMARK>
 VINA RESULT:      -7.0      4.199      7.582
  Name = 
  9 active torsions:
  status: ('A' for Active; 'I' for Inactive)
    1  A    between atoms: C_3  and  P_4
    2  A    between atoms: C_3  and  N_27
    3  A    between atoms: C_5  and  C_6
    4  A    between atoms: C_6  and  C_14
    5  A    between atoms: C_8  and  C_9
    6  A    between atoms: C_10  and  C_30
    7  A    between atoms: C_17  and  C_26
    8  A    between atoms: C_18  and  O_20
    9  A    between atoms: O_20  and  C_30
                            x       y       z     vdW  Elec       q    Type
                         _______ _______ _______ _____ _____    ______ ____

>  <TORSDO>
F 9

$$$$
