=
 OpenBabel11042419443D

 40 41  0  0  1  0  0  0  0  0999 V2000
  188.8860  176.5310  145.3910 C   0  0  0  0  0  0  0  0  0  0  0  0
  185.7330  176.8830  143.4660 O   0  0  0  0  0  0  0  0  0  0  0  0
  187.6990  175.9230  142.5090 C   0  0  0  0  0  0  0  0  0  0  0  0
  187.0900  175.7340  141.1570 C   0  0  0  0  0  2  0  0  0  0  0  0
  190.1040  175.7320  143.2890 C   0  0  0  0  0  0  0  0  0  0  0  0
  187.6000  176.6520  144.9440 C   0  0  0  0  0  3  0  0  0  0  0  0
  190.4350  178.0530  144.1350 C   0  0  0  0  0  1  0  0  0  0  0  0
  186.1660  177.9150  140.4980 N   0  0  0  0  0  0  0  0  0  0  0  0
  187.0910  177.0220  140.3830 C   0  0  0  0  0  3  0  0  0  0  0  0
  187.1290  176.9010  143.5120 C   0  0  2  0  0  3  0  0  0  0  0  0
  185.3710  178.0670  142.8160 C   0  0  0  0  0  2  0  0  0  0  0  0
  185.0110  177.7760  141.3610 C   0  0  1  0  0  3  0  0  0  0  0  0
  190.1410  176.6110  144.5170 C   0  0  1  0  0  3  0  0  0  0  0  0
  188.9540  175.6990  142.6950 C   0  0  0  0  0  0  0  0  0  0  0  0
  193.7980  173.8310  141.9410 O   0  0  0  0  0  0  0  0  0  0  0  0
  191.4270  175.0090  141.4600 O   0  0  0  0  0  0  0  0  0  0  0  0
  193.5760  174.0510  143.1620 C   0  0  0  0  0  0  0  0  0  0  0  0
  192.3570  174.6720  143.5830 N   0  0  0  0  0  2  0  0  0  0  0  0
  194.5420  173.6830  144.1520 N   0  0  0  0  0  2  0  0  0  0  0  0
  191.3140  175.1260  142.7110 C   0  0  0  0  0  0  0  0  0  0  0  0
  196.6050  173.9070  143.0960 O   0  0  0  0  0  1  0  0  0  0  0  0
  195.5480  171.7890  143.0330 C   0  0  0  0  0  1  0  0  0  0  0  0
  195.8210  173.0380  143.8590 C   0  0  2  0  0  0  0  0  0  0  0  0
  195.9500  171.4860  145.8750 C   0  0  0  0  0  1  0  0  0  0  0  0
  196.5580  172.6890  145.1670 C   0  0  0  0  0  3  0  0  0  0  0  0
  196.6230  173.8650  146.1300 C   0  0  0  0  0  1  0  0  0  0  0  0
  189.1210  176.2750  146.8500 C   0  0  2  0  0  3  0  0  0  0  0  0
  189.7570  177.3710  147.4390 O   0  0  0  0  0  1  0  0  0  0  0  0
  189.9410  175.0070  147.0540 C   0  0  0  0  0  2  0  0  0  0  0  0
  191.2180  175.3020  147.8230 C   0  0  0  0  0  2  0  0  0  0  0  0
  192.4330  175.0640  146.9450 C   0  0  0  0  0  2  0  0  0  0  0  0
  193.0040  177.2750  147.6020 O   0  0  0  0  0  0  0  0  0  0  0  0
  193.2020  176.3350  146.7900 C   0  0  0  0  0  0  0  0  0  0  0  0
  194.1610  176.4930  145.7870 O   0  0  0  0  0  0  0  0  0  0  0  0
  194.8940  177.6970  145.6190 C   0  0  0  0  0  1  0  0  0  0  0  0
  183.8860  178.6920  140.8880 C   0  0  0  0  0  2  0  0  0  0  0  0
  182.6790  177.9140  140.3790 C   0  0  0  0  0  2  0  0  0  0  0  0
  181.4320  178.4880  140.9550 C   0  0  0  0  0  0  0  0  0  0  0  0
  180.9320  179.6880  140.4670 O   0  0  0  0  0  0  0  0  0  0  0  0
  180.8130  177.8710  141.8590 O   0  0  0  0  0  1  0  0  0  0  0  0
  1 27  1  0  0  0  0
  2 10  1  0  0  0  0
  3 14  2  0  0  0  0
  3 10  1  0  0  0  0
  4  3  1  0  0  0  0
  5 13  1  0  0  0  0
  6  1  2  0  0  0  0
  8 12  1  0  0  0  0
  9  8  2  0  0  0  0
  9  4  1  0  0  0  0
 10  6  1  1  0  0  0
 11  2  1  0  0  0  0
 12 36  1  6  0  0  0
 12 11  1  0  0  0  0
 13  7  1  6  0  0  0
 13  1  1  0  0  0  0
 14  5  2  0  0  0  0
 15 17  2  0  0  0  0
 16 20  2  0  0  0  0
 17 18  1  0  0  0  0
 17 19  1  0  0  0  0
 20  5  1  0  0  0  0
 20 18  1  0  0  0  0
 21 23  1  0  0  0  0
 23 22  1  6  0  0  0
 23 19  1  0  0  0  0
 23 25  1  0  0  0  0
 25 24  1  0  0  0  0
 25 26  1  0  0  0  0
 27 29  1  0  0  0  0
 27 28  1  6  0  0  0
 29 30  1  0  0  0  0
 31 30  1  0  0  0  0
 33 31  1  0  0  0  0
 33 32  2  0  0  0  0
 34 33  1  0  0  0  0
 35 34  1  0  0  0  0
 37 36  1  0  0  0  0
 37 38  1  0  0  0  0
 38 40  1  0  0  0  0
 39 38  2  0  0  0  0
M  END
>  <MODEL>
1

>  <REMARK>
 VINA RESULT:      -6.6      0.000      0.000
  Name = 
  12 active torsions:
  status: ('A' for Active; 'I' for Inactive)
    1  A    between atoms: C_1  and  C_25
    2  A    between atoms: C_2  and  C_12
    3  A    between atoms: C_2  and  C_38
    4  A    between atoms: C_4  and  C_12
    5  A    between atoms: C_8  and  C_37
    6  A    between atoms: O_11  and  C_33
    7  A    between atoms: C_15  and  C_23
    8  A    between atoms: C_15  and  C_33
    9  A    between atoms: C_20  and  C_29
   10  A    between atoms: C_22  and  C_23
   11  A    between atoms: C_22  and  C_25
   12  A    between atoms: C_29  and  N_35
                            x       y       z     vdW  Elec       q    Type
                         _______ _______ _______ _____ _____    ______ ____

>  <TORSDO>
F 12

$$$$
=
 OpenBabel11042419443D

 40 41  0  0  1  0  0  0  0  0999 V2000
  191.3880  175.4890  144.8620 C   0  0  0  0  0  0  0  0  0  0  0  0
  187.8680  176.6630  144.8610 O   0  0  0  0  0  0  0  0  0  0  0  0
  188.7390  175.2720  143.1260 C   0  0  0  0  0  0  0  0  0  0  0  0
  187.4740  175.2760  142.3280 C   0  0  0  0  0  2  0  0  0  0  0  0
  191.0710  174.4710  142.5380 C   0  0  0  0  0  0  0  0  0  0  0  0
  190.1300  175.9370  145.1490 C   0  0  0  0  0  3  0  0  0  0  0  0
  192.3120  176.6140  142.8180 C   0  0  0  0  0  1  0  0  0  0  0  0
  186.8550  177.6340  142.0160 N   0  0  0  0  0  0  0  0  0  0  0  0
  187.3460  176.5440  141.5320 C   0  0  0  0  0  3  0  0  0  0  0  0
  189.0320  176.3330  144.1620 C   0  0  2  0  0  3  0  0  0  0  0  0
  187.4880  177.9160  144.3720 C   0  0  0  0  0  2  0  0  0  0  0  0
  186.3490  177.7630  143.3670 C   0  0  1  0  0  3  0  0  0  0  0  0
  191.9570  175.2800  143.4560 C   0  0  1  0  0  3  0  0  0  0  0  0
  189.8100  174.7390  142.6470 C   0  0  0  0  0  0  0  0  0  0  0  0
  192.3770  172.0110  139.1730 O   0  0  0  0  0  0  0  0  0  0  0  0
  192.7320  173.0440  141.6320 O   0  0  0  0  0  0  0  0  0  0  0  0
  191.2550  172.5870  139.1740 C   0  0  0  0  0  0  0  0  0  0  0  0
  190.8490  173.3920  140.2850 N   0  0  0  0  0  2  0  0  0  0  0  0
  190.3670  172.4460  138.0600 N   0  0  0  0  0  2  0  0  0  0  0  0
  191.6100  173.5990  141.4820 C   0  0  0  0  0  0  0  0  0  0  0  0
  191.7880  172.1960  136.2340 O   0  0  0  0  0  1  0  0  0  0  0  0
  189.4800  171.7790  135.9100 C   0  0  0  0  0  1  0  0  0  0  0  0
  190.6620  171.6610  136.8630 C   0  0  2  0  0  0  0  0  0  0  0  0
  191.3980  169.3610  136.0490 C   0  0  0  0  0  1  0  0  0  0  0  0
  190.9280  170.1890  137.2380 C   0  0  0  0  0  3  0  0  0  0  0  0
  189.7160  169.5240  137.8740 C   0  0  0  0  0  1  0  0  0  0  0  0
  192.3070  175.1440  145.9970 C   0  0  2  0  0  3  0  0  0  0  0  0
  191.5670  174.8100  147.1360 O   0  0  0  0  0  1  0  0  0  0  0  0
  193.2570  176.2960  146.2960 C   0  0  0  0  0  2  0  0  0  0  0  0
  194.6750  175.9600  145.8660 C   0  0  0  0  0  2  0  0  0  0  0  0
  195.2350  177.0540  144.9770 C   0  0  0  0  0  2  0  0  0  0  0  0
  196.9880  177.0310  143.3720 O   0  0  0  0  0  0  0  0  0  0  0  0
  195.9700  176.4470  143.8270 C   0  0  0  0  0  0  0  0  0  0  0  0
  195.5760  175.2300  143.2670 O   0  0  0  0  0  0  0  0  0  0  0  0
  195.5790  175.0020  141.8660 C   0  0  0  0  0  1  0  0  0  0  0  0
  185.3830  178.9420  143.4590 C   0  0  0  0  0  2  0  0  0  0  0  0
  185.5610  179.7400  144.7450 C   0  0  0  0  0  2  0  0  0  0  0  0
  184.7540  179.1260  145.8330 C   0  0  0  0  0  0  0  0  0  0  0  0
  185.3130  178.9430  147.0910 O   0  0  0  0  0  1  0  0  0  0  0  0
  183.5560  178.8030  145.6260 O   0  0  0  0  0  0  0  0  0  0  0  0
  1  6  2  0  0  0  0
  1 27  1  0  0  0  0
  3 10  1  0  0  0  0
  4  3  1  0  0  0  0
  5 14  2  0  0  0  0
  5 13  1  0  0  0  0
  8 12  1  0  0  0  0
  9  8  2  0  0  0  0
  9  4  1  0  0  0  0
 10  2  1  0  0  0  0
 10  6  1  1  0  0  0
 11  2  1  0  0  0  0
 12 36  1  6  0  0  0
 12 11  1  0  0  0  0
 13  7  1  6  0  0  0
 13  1  1  0  0  0  0
 14  3  2  0  0  0  0
 15 17  2  0  0  0  0
 17 18  1  0  0  0  0
 18 20  1  0  0  0  0
 19 17  1  0  0  0  0
 20 16  2  0  0  0  0
 20  5  1  0  0  0  0
 21 23  1  0  0  0  0
 23 22  1  6  0  0  0
 23 25  1  0  0  0  0
 23 19  1  0  0  0  0
 24 25  1  0  0  0  0
 25 26  1  0  0  0  0
 27 29  1  0  0  0  0
 27 28  1  1  0  0  0
 30 29  1  0  0  0  0
 31 30  1  0  0  0  0
 32 33  2  0  0  0  0
 33 31  1  0  0  0  0
 34 33  1  0  0  0  0
 35 34  1  0  0  0  0
 36 37  1  0  0  0  0
 37 38  1  0  0  0  0
 38 39  1  0  0  0  0
 40 38  2  0  0  0  0
M  END
>  <MODEL>
2

>  <REMARK>
 VINA RESULT:      -6.5      3.603      5.214
  Name = 
  12 active torsions:
  status: ('A' for Active; 'I' for Inactive)
    1  A    between atoms: C_1  and  C_25
    2  A    between atoms: C_2  and  C_12
    3  A    between atoms: C_2  and  C_38
    4  A    between atoms: C_4  and  C_12
    5  A    between atoms: C_8  and  C_37
    6  A    between atoms: O_11  and  C_33
    7  A    between atoms: C_15  and  C_23
    8  A    between atoms: C_15  and  C_33
    9  A    between atoms: C_20  and  C_29
   10  A    between atoms: C_22  and  C_23
   11  A    between atoms: C_22  and  C_25
   12  A    between atoms: C_29  and  N_35
                            x       y       z     vdW  Elec       q    Type
                         _______ _______ _______ _____ _____    ______ ____

>  <TORSDO>
F 12

$$$$
=
 OpenBabel11042419443D

 40 41  0  0  1  0  0  0  0  0999 V2000
  190.1280  175.8970  144.7900 C   0  0  0  0  0  0  0  0  0  0  0  0
  188.3680  174.2770  141.9540 O   0  0  0  0  0  0  0  0  0  0  0  0
  190.4060  173.4050  142.8430 C   0  0  0  0  0  0  0  0  0  0  0  0
  190.5030  172.2960  141.8430 C   0  0  0  0  0  2  0  0  0  0  0  0
  192.0900  174.2770  144.5240 C   0  0  0  0  0  0  0  0  0  0  0  0
  189.2450  175.4270  143.8600 C   0  0  0  0  0  3  0  0  0  0  0  0
  192.2760  176.6290  143.7190 C   0  0  0  0  0  1  0  0  0  0  0  0
  190.3070  173.3380  139.6260 N   0  0  0  0  0  0  0  0  0  0  0  0
  191.0460  172.7990  140.5360 C   0  0  0  0  0  3  0  0  0  0  0  0
  189.5590  174.6320  142.5930 C   0  0  2  0  0  3  0  0  0  0  0  0
  188.5240  174.6950  140.6280 C   0  0  0  0  0  2  0  0  0  0  0  0
  188.8730  173.5030  139.7410 C   0  0  1  0  0  3  0  0  0  0  0  0
  191.6470  175.7040  144.7490 C   0  0  1  0  0  3  0  0  0  0  0  0
  191.3750  173.6310  143.6610 C   0  0  0  0  0  0  0  0  0  0  0  0
  195.7130  172.3370  146.0040 O   0  0  0  0  0  0  0  0  0  0  0  0
  194.1340  174.4960  145.7020 O   0  0  0  0  0  0  0  0  0  0  0  0
  194.8090  171.6860  145.4120 C   0  0  0  0  0  0  0  0  0  0  0  0
  193.6320  172.3420  144.9320 N   0  0  0  0  0  2  0  0  0  0  0  0
  194.9470  170.2760  145.2100 N   0  0  0  0  0  2  0  0  0  0  0  0
  193.3360  173.7360  145.0880 C   0  0  0  0  0  0  0  0  0  0  0  0
  197.2700  170.1740  145.3160 O   0  0  0  0  0  1  0  0  0  0  0  0
  196.0890  168.1680  144.8860 C   0  0  0  0  0  1  0  0  0  0  0  0
  196.0990  169.4880  145.6440 C   0  0  2  0  0  0  0  0  0  0  0  0
  197.2110  168.4110  147.6680 C   0  0  0  0  0  1  0  0  0  0  0  0
  196.0460  169.2530  147.1670 C   0  0  0  0  0  3  0  0  0  0  0  0
  194.7350  168.6220  147.6120 C   0  0  0  0  0  1  0  0  0  0  0  0
  189.5960  176.6500  145.9740 C   0  0  2  0  0  3  0  0  0  0  0  0
  190.6060  176.8410  146.9210 O   0  0  0  0  0  1  0  0  0  0  0  0
  188.4110  175.9190  146.5940 C   0  0  0  0  0  2  0  0  0  0  0  0
  187.2340  176.8590  146.7930 C   0  0  0  0  0  2  0  0  0  0  0  0
  186.2000  176.6540  145.7020 C   0  0  0  0  0  2  0  0  0  0  0  0
  187.0960  178.3440  144.2910 O   0  0  0  0  0  0  0  0  0  0  0  0
  186.0780  177.8950  144.8800 C   0  0  0  0  0  0  0  0  0  0  0  0
  184.8560  178.5520  144.7210 O   0  0  0  0  0  0  0  0  0  0  0  0
  183.9850  178.8110  145.8110 C   0  0  0  0  0  1  0  0  0  0  0  0
  188.2460  173.6540  138.3580 C   0  0  0  0  0  2  0  0  0  0  0  0
  189.2060  173.2680  137.2390 C   0  0  0  0  0  2  0  0  0  0  0  0
  189.3460  174.4000  136.2840 C   0  0  0  0  0  0  0  0  0  0  0  0
  188.2580  175.2220  136.0190 O   0  0  0  0  0  1  0  0  0  0  0  0
  190.4570  174.6350  135.7420 O   0  0  0  0  0  0  0  0  0  0  0  0
  1 27  1  0  0  0  0
  2 10  1  0  0  0  0
  3 14  2  0  0  0  0
  4  3  1  0  0  0  0
  5 13  1  0  0  0  0
  5 20  1  0  0  0  0
  6  1  2  0  0  0  0
  8 12  1  0  0  0  0
  8  9  2  0  0  0  0
  9  4  1  0  0  0  0
 10  3  1  0  0  0  0
 10  6  1  1  0  0  0
 11  2  1  0  0  0  0
 12 36  1  6  0  0  0
 12 11  1  0  0  0  0
 13  7  1  6  0  0  0
 13  1  1  0  0  0  0
 14  5  2  0  0  0  0
 17 15  2  0  0  0  0
 18 20  1  0  0  0  0
 18 17  1  0  0  0  0
 19 17  1  0  0  0  0
 19 23  1  0  0  0  0
 20 16  2  0  0  0  0
 21 23  1  0  0  0  0
 23 22  1  6  0  0  0
 23 25  1  0  0  0  0
 25 26  1  0  0  0  0
 25 24  1  0  0  0  0
 27 29  1  0  0  0  0
 27 28  1  1  0  0  0
 29 30  1  0  0  0  0
 31 30  1  0  0  0  0
 32 33  2  0  0  0  0
 33 31  1  0  0  0  0
 34 33  1  0  0  0  0
 34 35  1  0  0  0  0
 37 36  1  0  0  0  0
 38 37  1  0  0  0  0
 39 38  1  0  0  0  0
 40 38  2  0  0  0  0
M  END
>  <MODEL>
3

>  <REMARK>
 VINA RESULT:      -6.5      3.036      5.676
  Name = 
  12 active torsions:
  status: ('A' for Active; 'I' for Inactive)
    1  A    between atoms: C_1  and  C_25
    2  A    between atoms: C_2  and  C_12
    3  A    between atoms: C_2  and  C_38
    4  A    between atoms: C_4  and  C_12
    5  A    between atoms: C_8  and  C_37
    6  A    between atoms: O_11  and  C_33
    7  A    between atoms: C_15  and  C_23
    8  A    between atoms: C_15  and  C_33
    9  A    between atoms: C_20  and  C_29
   10  A    between atoms: C_22  and  C_23
   11  A    between atoms: C_22  and  C_25
   12  A    between atoms: C_29  and  N_35
                            x       y       z     vdW  Elec       q    Type
                         _______ _______ _______ _____ _____    ______ ____

>  <TORSDO>
F 12

$$$$
=
 OpenBabel11042419443D

 40 41  0  0  1  0  0  0  0  0999 V2000
  188.8090  176.4730  144.3270 C   0  0  0  0  0  0  0  0  0  0  0  0
  188.0450  174.1740  141.5160 O   0  0  0  0  0  0  0  0  0  0  0  0
  190.1490  174.1370  142.6450 C   0  0  0  0  0  0  0  0  0  0  0  0
  190.7350  173.0810  141.7630 C   0  0  0  0  0  2  0  0  0  0  0  0
  191.2290  175.6460  144.3720 C   0  0  0  0  0  0  0  0  0  0  0  0
  188.2520  175.6670  143.3740 C   0  0  0  0  0  3  0  0  0  0  0  0
  190.6700  177.8600  143.3720 C   0  0  0  0  0  1  0  0  0  0  0  0
  190.4310  173.8570  139.4510 N   0  0  0  0  0  0  0  0  0  0  0  0
  191.2080  173.6690  140.4640 C   0  0  0  0  0  3  0  0  0  0  0  0
  188.9600  174.9660  142.2150 C   0  0  2  0  0  3  0  0  0  0  0  0
  188.1890  174.5440  140.1750 C   0  0  0  0  0  2  0  0  0  0  0  0
  189.0260  173.5060  139.4330 C   0  0  1  0  0  3  0  0  0  0  0  0
  190.2950  176.8330  144.4280 C   0  0  1  0  0  3  0  0  0  0  0  0
  190.8830  174.7400  143.5160 C   0  0  0  0  0  0  0  0  0  0  0  0
  195.1740  175.3010  146.2150 O   0  0  0  0  0  0  0  0  0  0  0  0
  192.7530  176.4550  145.9960 O   0  0  0  0  0  0  0  0  0  0  0  0
  194.7900  174.4990  145.3210 C   0  0  0  0  0  0  0  0  0  0  0  0
  193.4950  174.6330  144.7270 N   0  0  0  0  0  2  0  0  0  0  0  0
  195.6460  173.4380  144.8830 N   0  0  0  0  0  2  0  0  0  0  0  0
  192.5170  175.6180  145.0830 C   0  0  0  0  0  0  0  0  0  0  0  0
  196.9960  173.4210  146.7790 O   0  0  0  0  0  1  0  0  0  0  0  0
  197.9410  174.1900  144.7500 C   0  0  0  0  0  1  0  0  0  0  0  0
  196.9910  173.1950  145.4010 C   0  0  2  0  0  0  0  0  0  0  0  0
  197.1080  171.3160  143.6840 C   0  0  0  0  0  1  0  0  0  0  0  0
  197.4230  171.7440  145.1110 C   0  0  0  0  0  3  0  0  0  0  0  0
  196.8110  170.7500  146.0870 C   0  0  0  0  0  1  0  0  0  0  0  0
  187.9220  177.0530  145.3880 C   0  0  2  0  0  3  0  0  0  0  0  0
  187.7980  176.1610  146.4570 O   0  0  0  0  0  1  0  0  0  0  0  0
  186.5520  177.4020  144.8210 C   0  0  0  0  0  2  0  0  0  0  0  0
  186.6140  178.6700  143.9860 C   0  0  0  0  0  2  0  0  0  0  0  0
  185.2190  179.1050  143.5770 C   0  0  0  0  0  2  0  0  0  0  0  0
  185.7170  178.3050  141.3950 O   0  0  0  0  0  0  0  0  0  0  0  0
  184.8420  178.4510  142.2880 C   0  0  0  0  0  0  0  0  0  0  0  0
  183.5520  177.9660  142.0620 O   0  0  0  0  0  0  0  0  0  0  0  0
  182.8140  178.2860  140.8920 C   0  0  0  0  0  1  0  0  0  0  0  0
  188.5410  173.3450  137.9950 C   0  0  0  0  0  2  0  0  0  0  0  0
  187.8450  174.5970  137.4730 C   0  0  0  0  0  2  0  0  0  0  0  0
  188.4810  175.0310  136.2000 C   0  0  0  0  0  0  0  0  0  0  0  0
  189.3860  174.1960  135.5580 O   0  0  0  0  0  0  0  0  0  0  0  0
  188.1740  176.1380  135.6870 O   0  0  0  0  0  1  0  0  0  0  0  0
  1 13  1  0  0  0  0
  1 27  1  0  0  0  0
  2 10  1  0  0  0  0
  3 14  2  0  0  0  0
  4  3  1  0  0  0  0
  5 13  1  0  0  0  0
  5 20  1  0  0  0  0
  6  1  2  0  0  0  0
  8  9  2  0  0  0  0
  9  4  1  0  0  0  0
 10  3  1  0  0  0  0
 10  6  1  1  0  0  0
 11  2  1  0  0  0  0
 12 36  1  6  0  0  0
 12  8  1  0  0  0  0
 12 11  1  0  0  0  0
 13  7  1  6  0  0  0
 14  5  2  0  0  0  0
 17 15  2  0  0  0  0
 18 20  1  0  0  0  0
 18 17  1  0  0  0  0
 19 17  1  0  0  0  0
 19 23  1  0  0  0  0
 20 16  2  0  0  0  0
 23 22  1  6  0  0  0
 23 21  1  0  0  0  0
 24 25  1  0  0  0  0
 25 23  1  0  0  0  0
 25 26  1  0  0  0  0
 27 28  1  1  0  0  0
 29 27  1  0  0  0  0
 30 29  1  0  0  0  0
 31 30  1  0  0  0  0
 32 33  2  0  0  0  0
 33 31  1  0  0  0  0
 34 33  1  0  0  0  0
 35 34  1  0  0  0  0
 37 36  1  0  0  0  0
 38 37  1  0  0  0  0
 39 38  2  0  0  0  0
 40 38  1  0  0  0  0
M  END
>  <MODEL>
4

>  <REMARK>
 VINA RESULT:      -6.4      2.651      5.845
  Name = 
  12 active torsions:
  status: ('A' for Active; 'I' for Inactive)
    1  A    between atoms: C_1  and  C_25
    2  A    between atoms: C_2  and  C_12
    3  A    between atoms: C_2  and  C_38
    4  A    between atoms: C_4  and  C_12
    5  A    between atoms: C_8  and  C_37
    6  A    between atoms: O_11  and  C_33
    7  A    between atoms: C_15  and  C_23
    8  A    between atoms: C_15  and  C_33
    9  A    between atoms: C_20  and  C_29
   10  A    between atoms: C_22  and  C_23
   11  A    between atoms: C_22  and  C_25
   12  A    between atoms: C_29  and  N_35
                            x       y       z     vdW  Elec       q    Type
                         _______ _______ _______ _____ _____    ______ ____

>  <TORSDO>
F 12

$$$$
=
 OpenBabel11042419443D

 40 41  0  0  1  0  0  0  0  0999 V2000
  192.9880  173.3810  143.1300 C   0  0  0  0  0  0  0  0  0  0  0  0
  191.8190  173.2570  139.6110 O   0  0  0  0  0  0  0  0  0  0  0  0
  190.4210  174.0410  141.3810 C   0  0  0  0  0  0  0  0  0  0  0  0
  189.2310  174.2580  140.5020 C   0  0  0  0  0  2  0  0  0  0  0  0
  190.6440  174.0480  143.9060 C   0  0  0  0  0  0  0  0  0  0  0  0
  192.8400  173.3580  141.7720 C   0  0  0  0  0  3  0  0  0  0  0  0
  191.4700  171.7200  144.2410 C   0  0  0  0  0  1  0  0  0  0  0  0
  188.8640  172.1500  139.2920 N   0  0  0  0  0  0  0  0  0  0  0  0
  188.5190  172.9640  140.2330 C   0  0  0  0  0  3  0  0  0  0  0  0
  191.5560  173.1270  140.9770 C   0  0  2  0  0  3  0  0  0  0  0  0
  191.3030  172.0970  139.0250 C   0  0  0  0  0  2  0  0  0  0  0  0
  189.9550  172.3950  138.3720 C   0  0  1  0  0  3  0  0  0  0  0  0
  191.8610  173.1860  144.1490 C   0  0  1  0  0  3  0  0  0  0  0  0
  190.3180  174.1650  142.6600 C   0  0  0  0  0  0  0  0  0  0  0  0
  187.9190  175.7250  146.8800 O   0  0  0  0  0  0  0  0  0  0  0  0
  189.9000  174.0530  146.1560 O   0  0  0  0  0  0  0  0  0  0  0  0
  187.9510  176.1560  145.6960 C   0  0  0  0  0  0  0  0  0  0  0  0
  188.8480  175.5890  144.7360 N   0  0  0  0  0  2  0  0  0  0  0  0
  187.0870  177.2220  145.2900 N   0  0  0  0  0  2  0  0  0  0  0  0
  189.7940  174.5450  145.0000 C   0  0  0  0  0  0  0  0  0  0  0  0
  186.7810  178.3360  147.3110 O   0  0  0  0  0  1  0  0  0  0  0  0
  185.0800  176.8560  146.5900 C   0  0  0  0  0  1  0  0  0  0  0  0
  186.1220  177.8820  146.1670 C   0  0  2  0  0  0  0  0  0  0  0  0
  183.9430  179.0200  145.4930 C   0  0  0  0  0  1  0  0  0  0  0  0
  185.4640  179.0740  145.4410 C   0  0  0  0  0  3  0  0  0  0  0  0
  185.9200  179.1960  143.9950 C   0  0  0  0  0  1  0  0  0  0  0  0
  194.3500  173.6390  143.7030 C   0  0  2  0  0  3  0  0  0  0  0  0
  195.2470  172.6530  143.2830 O   0  0  0  0  0  1  0  0  0  0  0  0
  194.2970  173.7000  145.2240 C   0  0  0  0  0  2  0  0  0  0  0  0
  194.8590  175.0150  145.7380 C   0  0  0  0  0  2  0  0  0  0  0  0
  194.2160  176.1850  145.0180 C   0  0  0  0  0  2  0  0  0  0  0  0
  192.0290  177.1160  144.9970 O   0  0  0  0  0  0  0  0  0  0  0  0
  192.9150  176.5260  145.6690 C   0  0  0  0  0  0  0  0  0  0  0  0
  192.6450  176.1770  146.9940 O   0  0  0  0  0  0  0  0  0  0  0  0
  191.5010  176.6520  147.6870 C   0  0  0  0  0  1  0  0  0  0  0  0
  189.7720  171.5660  137.1040 C   0  0  0  0  0  2  0  0  0  0  0  0
  190.7780  171.9340  136.0190 C   0  0  0  0  0  2  0  0  0  0  0  0
  190.5910  173.3560  135.6230 C   0  0  0  0  0  0  0  0  0  0  0  0
  189.3460  173.7980  135.1950 O   0  0  0  0  0  0  0  0  0  0  0  0
  191.5500  174.1660  135.7080 O   0  0  0  0  0  1  0  0  0  0  0  0
  1 27  1  0  0  0  0
  1 13  1  0  0  0  0
  2 10  1  0  0  0  0
  3 14  2  0  0  0  0
  4  3  1  0  0  0  0
  5 13  1  0  0  0  0
  5 20  1  0  0  0  0
  6  1  2  0  0  0  0
  8  9  2  0  0  0  0
  9  4  1  0  0  0  0
 10  3  1  0  0  0  0
 10  6  1  1  0  0  0
 11  2  1  0  0  0  0
 12 36  1  6  0  0  0
 12 11  1  0  0  0  0
 12  8  1  0  0  0  0
 13  7  1  6  0  0  0
 14  5  2  0  0  0  0
 17 15  2  0  0  0  0
 18 20  1  0  0  0  0
 18 17  1  0  0  0  0
 19 17  1  0  0  0  0
 19 23  1  0  0  0  0
 20 16  2  0  0  0  0
 23 22  1  1  0  0  0
 23 21  1  0  0  0  0
 25 24  1  0  0  0  0
 25 23  1  0  0  0  0
 26 25  1  0  0  0  0
 27 28  1  1  0  0  0
 27 29  1  0  0  0  0
 29 30  1  0  0  0  0
 31 33  1  0  0  0  0
 31 30  1  0  0  0  0
 32 33  2  0  0  0  0
 33 34  1  0  0  0  0
 34 35  1  0  0  0  0
 37 36  1  0  0  0  0
 38 40  1  0  0  0  0
 38 37  1  0  0  0  0
 39 38  2  0  0  0  0
M  END
>  <MODEL>
5

>  <REMARK>
 VINA RESULT:      -6.4      3.552      7.856
  Name = 
  12 active torsions:
  status: ('A' for Active; 'I' for Inactive)
    1  A    between atoms: C_1  and  C_25
    2  A    between atoms: C_2  and  C_12
    3  A    between atoms: C_2  and  C_38
    4  A    between atoms: C_4  and  C_12
    5  A    between atoms: C_8  and  C_37
    6  A    between atoms: O_11  and  C_33
    7  A    between atoms: C_15  and  C_23
    8  A    between atoms: C_15  and  C_33
    9  A    between atoms: C_20  and  C_29
   10  A    between atoms: C_22  and  C_23
   11  A    between atoms: C_22  and  C_25
   12  A    between atoms: C_29  and  N_35
                            x       y       z     vdW  Elec       q    Type
                         _______ _______ _______ _____ _____    ______ ____

>  <TORSDO>
F 12

$$$$
=
 OpenBabel11042419443D

 40 41  0  0  1  0  0  0  0  0999 V2000
  192.2110  172.8320  143.6730 C   0  0  0  0  0  0  0  0  0  0  0  0
  191.8210  171.6140  140.1900 O   0  0  0  0  0  0  0  0  0  0  0  0
  190.7170  173.5820  140.9730 C   0  0  0  0  0  0  0  0  0  0  0  0
  189.9920  173.8270  139.6880 C   0  0  0  0  0  2  0  0  0  0  0  0
  190.4370  174.6290  143.2640 C   0  0  0  0  0  0  0  0  0  0  0  0
  192.3270  172.2640  142.4360 C   0  0  0  0  0  3  0  0  0  0  0  0
  189.8830  172.5830  144.5750 C   0  0  0  0  0  1  0  0  0  0  0  0
  188.8330  171.7330  139.1300 N   0  0  0  0  0  0  0  0  0  0  0  0
  188.7830  172.9420  139.5770 C   0  0  0  0  0  3  0  0  0  0  0  0
  191.2790  172.2230  141.3250 C   0  0  2  0  0  3  0  0  0  0  0  0
  190.9050  170.6190  139.8340 C   0  0  0  0  0  2  0  0  0  0  0  0
  190.0460  171.0920  138.6640 C   0  0  1  0  0  3  0  0  0  0  0  0
  190.9760  173.5700  144.1980 C   0  0  1  0  0  3  0  0  0  0  0  0
  190.4560  174.2930  142.0150 C   0  0  0  0  0  0  0  0  0  0  0  0
  188.1260  178.0660  144.6530 O   0  0  0  0  0  0  0  0  0  0  0  0
  190.4580  176.7840  144.2500 O   0  0  0  0  0  0  0  0  0  0  0  0
  187.5740  177.0810  144.0920 C   0  0  0  0  0  0  0  0  0  0  0  0
  188.3490  175.9640  143.6480 N   0  0  0  0  0  2  0  0  0  0  0  0
  186.1570  177.0650  143.8880 N   0  0  0  0  0  2  0  0  0  0  0  0
  189.7740  175.8500  143.7490 C   0  0  0  0  0  0  0  0  0  0  0  0
  184.0750  178.0500  143.5500 O   0  0  0  0  0  1  0  0  0  0  0  0
  185.9170  179.4700  143.9930 C   0  0  0  0  0  1  0  0  0  0  0  0
  185.2510  178.1350  144.2990 C   0  0  2  0  0  0  0  0  0  0  0  0
  185.6690  179.0300  146.6480 C   0  0  0  0  0  1  0  0  0  0  0  0
  184.9190  178.0120  145.8000 C   0  0  0  0  0  3  0  0  0  0  0  0
  185.1780  176.6130  146.3390 C   0  0  0  0  0  1  0  0  0  0  0  0
  193.3800  172.7650  144.6100 C   0  0  2  0  0  3  0  0  0  0  0  0
  193.5410  171.4620  145.0920 O   0  0  0  0  0  1  0  0  0  0  0  0
  193.2080  173.7450  145.7640 C   0  0  0  0  0  2  0  0  0  0  0  0
  194.2970  174.8040  145.7470 C   0  0  0  0  0  2  0  0  0  0  0  0
  193.7990  176.0660  145.0680 C   0  0  0  0  0  2  0  0  0  0  0  0
  195.6080  176.3360  143.5490 O   0  0  0  0  0  0  0  0  0  0  0  0
  194.3700  176.1580  143.6900 C   0  0  0  0  0  0  0  0  0  0  0  0
  193.5690  176.0180  142.5550 O   0  0  0  0  0  0  0  0  0  0  0  0
  194.0360  175.3930  141.3680 C   0  0  0  0  0  1  0  0  0  0  0  0
  189.7050  169.9290  137.7360 C   0  0  0  0  0  2  0  0  0  0  0  0
  190.5810  169.9060  136.4890 C   0  0  0  0  0  2  0  0  0  0  0  0
  190.4640  171.2020  135.7680 C   0  0  0  0  0  0  0  0  0  0  0  0
  191.5730  172.0280  135.6440 O   0  0  0  0  0  1  0  0  0  0  0  0
  189.3700  171.5350  135.2420 O   0  0  0  0  0  0  0  0  0  0  0  0
  1 13  1  0  0  0  0
  1 27  1  0  0  0  0
  2 10  1  0  0  0  0
  3 10  1  0  0  0  0
  3 14  2  0  0  0  0
  4  3  1  0  0  0  0
  5 20  1  0  0  0  0
  5 13  1  0  0  0  0
  6  1  2  0  0  0  0
  8  9  2  0  0  0  0
  9  4  1  0  0  0  0
 10  6  1  1  0  0  0
 11  2  1  0  0  0  0
 12 36  1  6  0  0  0
 12  8  1  0  0  0  0
 12 11  1  0  0  0  0
 13  7  1  6  0  0  0
 14  5  2  0  0  0  0
 17 15  2  0  0  0  0
 18 20  1  0  0  0  0
 18 17  1  0  0  0  0
 19 17  1  0  0  0  0
 19 23  1  0  0  0  0
 20 16  2  0  0  0  0
 21 23  1  0  0  0  0
 23 22  1  6  0  0  0
 23 25  1  0  0  0  0
 25 26  1  0  0  0  0
 25 24  1  0  0  0  0
 27 28  1  1  0  0  0
 27 29  1  0  0  0  0
 30 29  1  0  0  0  0
 31 30  1  0  0  0  0
 32 33  2  0  0  0  0
 33 31  1  0  0  0  0
 34 33  1  0  0  0  0
 35 34  1  0  0  0  0
 37 36  1  0  0  0  0
 38 37  1  0  0  0  0
 39 38  1  0  0  0  0
 40 38  2  0  0  0  0
M  END
>  <MODEL>
6

>  <REMARK>
 VINA RESULT:      -6.4      3.896      8.113
  Name = 
  12 active torsions:
  status: ('A' for Active; 'I' for Inactive)
    1  A    between atoms: C_1  and  C_25
    2  A    between atoms: C_2  and  C_12
    3  A    between atoms: C_2  and  C_38
    4  A    between atoms: C_4  and  C_12
    5  A    between atoms: C_8  and  C_37
    6  A    between atoms: O_11  and  C_33
    7  A    between atoms: C_15  and  C_23
    8  A    between atoms: C_15  and  C_33
    9  A    between atoms: C_20  and  C_29
   10  A    between atoms: C_22  and  C_23
   11  A    between atoms: C_22  and  C_25
   12  A    between atoms: C_29  and  N_35
                            x       y       z     vdW  Elec       q    Type
                         _______ _______ _______ _____ _____    ______ ____

>  <TORSDO>
F 12

$$$$
=
 OpenBabel11042419443D

 40 41  0  0  1  0  0  0  0  0999 V2000
  189.5300  173.5830  142.8310 C   0  0  0  0  0  0  0  0  0  0  0  0
  187.7600  176.7070  143.7670 O   0  0  0  0  0  0  0  0  0  0  0  0
  189.9540  176.2070  144.5670 C   0  0  0  0  0  0  0  0  0  0  0  0
  190.0490  177.4340  145.4180 C   0  0  0  0  0  2  0  0  0  0  0  0
  191.4230  174.1440  144.4570 C   0  0  0  0  0  0  0  0  0  0  0  0
  188.7380  174.6920  142.9250 C   0  0  0  0  0  3  0  0  0  0  0  0
  189.7260  172.4140  145.0440 C   0  0  0  0  0  1  0  0  0  0  0  0
  188.0420  177.4560  146.8370 N   0  0  0  0  0  0  0  0  0  0  0  0
  189.3100  177.2480  146.7120 C   0  0  0  0  0  3  0  0  0  0  0  0
  188.6240  175.6610  144.1020 C   0  0  2  0  0  3  0  0  0  0  0  0
  186.8340  176.7690  144.8130 C   0  0  0  0  0  2  0  0  0  0  0  0
  187.1880  177.9130  145.7600 C   0  0  1  0  0  3  0  0  0  0  0  0
  190.4920  173.0850  143.9140 C   0  0  1  0  0  3  0  0  0  0  0  0
  190.8680  175.3000  144.6270 C   0  0  0  0  0  0  0  0  0  0  0  0
  195.3960  172.8650  145.7430 O   0  0  0  0  0  0  0  0  0  0  0  0
  193.5460  174.7690  145.3030 O   0  0  0  0  0  0  0  0  0  0  0  0
  194.5170  172.0330  145.3900 C   0  0  0  0  0  0  0  0  0  0  0  0
  193.2220  172.4740  144.9680 N   0  0  0  0  0  2  0  0  0  0  0  0
  194.7990  170.6300  145.4050 N   0  0  0  0  0  2  0  0  0  0  0  0
  192.7810  173.8370  144.9330 C   0  0  0  0  0  0  0  0  0  0  0  0
  196.8110  171.0040  146.5120 O   0  0  0  0  0  1  0  0  0  0  0  0
  196.8540  169.6860  144.5470 C   0  0  0  0  0  1  0  0  0  0  0  0
  196.0780  170.0490  145.8050 C   0  0  2  0  0  0  0  0  0  0  0  0
  194.5650  168.9030  147.5050 C   0  0  0  0  0  1  0  0  0  0  0  0
  195.8510  168.8100  146.6940 C   0  0  0  0  0  3  0  0  0  0  0  0
  197.0220  168.5410  147.6270 C   0  0  0  0  0  1  0  0  0  0  0  0
  189.4930  172.7750  141.5680 C   0  0  2  0  0  3  0  0  0  0  0  0
  190.0860  171.5260  141.7720 O   0  0  0  0  0  1  0  0  0  0  0  0
  190.1840  173.5160  140.4300 C   0  0  0  0  0  2  0  0  0  0  0  0
  190.2580  172.6530  139.1820 C   0  0  0  0  0  2  0  0  0  0  0  0
  188.9150  172.6240  138.4750 C   0  0  0  0  0  2  0  0  0  0  0  0
  187.8030  174.7210  138.3670 O   0  0  0  0  0  0  0  0  0  0  0  0
  188.6480  173.9500  137.8420 C   0  0  0  0  0  0  0  0  0  0  0  0
  189.3360  174.3690  136.7020 O   0  0  0  0  0  0  0  0  0  0  0  0
  188.7170  175.1350  135.6790 C   0  0  0  0  0  1  0  0  0  0  0  0
  185.9270  178.5600  146.3240 C   0  0  0  0  0  2  0  0  0  0  0  0
  184.6760  178.1710  145.5450 C   0  0  0  0  0  2  0  0  0  0  0  0
  184.4330  179.1600  144.4610 C   0  0  0  0  0  0  0  0  0  0  0  0
  185.3340  180.1960  144.2530 O   0  0  0  0  0  1  0  0  0  0  0  0
  183.4300  179.0400  143.7100 O   0  0  0  0  0  0  0  0  0  0  0  0
  1  6  2  0  0  0  0
  1 13  1  0  0  0  0
  2 10  1  0  0  0  0
  2 11  1  0  0  0  0
  3 14  2  0  0  0  0
  3  4  1  0  0  0  0
  4  9  1  0  0  0  0
  5 14  2  0  0  0  0
  5 20  1  0  0  0  0
  9  8  2  0  0  0  0
 10  6  1  6  0  0  0
 10  3  1  0  0  0  0
 11 12  1  0  0  0  0
 12 36  1  1  0  0  0
 12  8  1  0  0  0  0
 13  5  1  0  0  0  0
 13  7  1  1  0  0  0
 17 19  1  0  0  0  0
 17 15  2  0  0  0  0
 18 17  1  0  0  0  0
 19 23  1  0  0  0  0
 20 18  1  0  0  0  0
 20 16  2  0  0  0  0
 23 22  1  6  0  0  0
 23 21  1  0  0  0  0
 23 25  1  0  0  0  0
 25 24  1  0  0  0  0
 25 26  1  0  0  0  0
 27 28  1  1  0  0  0
 27  1  1  0  0  0  0
 29 27  1  0  0  0  0
 30 29  1  0  0  0  0
 31 30  1  0  0  0  0
 33 32  2  0  0  0  0
 33 31  1  0  0  0  0
 34 33  1  0  0  0  0
 35 34  1  0  0  0  0
 37 36  1  0  0  0  0
 38 37  1  0  0  0  0
 39 38  1  0  0  0  0
 40 38  2  0  0  0  0
M  END
>  <MODEL>
7

>  <REMARK>
 VINA RESULT:      -6.3      3.098      5.841
  Name = 
  12 active torsions:
  status: ('A' for Active; 'I' for Inactive)
    1  A    between atoms: C_1  and  C_25
    2  A    between atoms: C_2  and  C_12
    3  A    between atoms: C_2  and  C_38
    4  A    between atoms: C_4  and  C_12
    5  A    between atoms: C_8  and  C_37
    6  A    between atoms: O_11  and  C_33
    7  A    between atoms: C_15  and  C_23
    8  A    between atoms: C_15  and  C_33
    9  A    between atoms: C_20  and  C_29
   10  A    between atoms: C_22  and  C_23
   11  A    between atoms: C_22  and  C_25
   12  A    between atoms: C_29  and  N_35
                            x       y       z     vdW  Elec       q    Type
                         _______ _______ _______ _____ _____    ______ ____

>  <TORSDO>
F 12

$$$$
=
 OpenBabel11042419443D

 40 41  0  0  1  0  0  0  0  0999 V2000
  189.6910  173.7810  142.6210 C   0  0  0  0  0  0  0  0  0  0  0  0
  187.8830  176.8400  143.6920 O   0  0  0  0  0  0  0  0  0  0  0  0
  190.0320  176.2700  144.5630 C   0  0  0  0  0  0  0  0  0  0  0  0
  190.0870  177.4300  145.5050 C   0  0  0  0  0  2  0  0  0  0  0  0
  191.5000  174.2120  144.3760 C   0  0  0  0  0  0  0  0  0  0  0  0
  188.8970  174.8860  142.7550 C   0  0  0  0  0  3  0  0  0  0  0  0
  189.7730  172.4540  144.7490 C   0  0  0  0  0  1  0  0  0  0  0  0
  188.0100  177.3600  146.8180 N   0  0  0  0  0  0  0  0  0  0  0  0
  189.2820  177.1550  146.7430 C   0  0  0  0  0  3  0  0  0  0  0  0
  188.7260  175.7670  143.9920 C   0  0  2  0  0  3  0  0  0  0  0  0
  186.9050  176.8300  144.6920 C   0  0  0  0  0  2  0  0  0  0  0  0
  187.2130  177.9000  145.7360 C   0  0  1  0  0  3  0  0  0  0  0  0
  190.5960  173.2000  143.7110 C   0  0  1  0  0  3  0  0  0  0  0  0
  190.9390  175.3560  144.6020 C   0  0  0  0  0  0  0  0  0  0  0  0
  195.3910  172.8130  145.7830 O   0  0  0  0  0  0  0  0  0  0  0  0
  193.6040  174.7690  145.3130 O   0  0  0  0  0  0  0  0  0  0  0  0
  194.5060  172.0090  145.3820 C   0  0  0  0  0  0  0  0  0  0  0  0
  193.2390  172.4890  144.9210 N   0  0  0  0  0  2  0  0  0  0  0  0
  194.7540  170.6000  145.3790 N   0  0  0  0  0  2  0  0  0  0  0  0
  192.8320  173.8630  144.8960 C   0  0  0  0  0  0  0  0  0  0  0  0
  197.0110  170.9480  145.8310 O   0  0  0  0  0  1  0  0  0  0  0  0
  196.3860  168.9080  144.8050 C   0  0  0  0  0  1  0  0  0  0  0  0
  196.0040  169.9800  145.8160 C   0  0  2  0  0  0  0  0  0  0  0  0
  197.0240  168.5080  147.6280 C   0  0  0  0  0  1  0  0  0  0  0  0
  195.8410  169.3800  147.2270 C   0  0  0  0  0  3  0  0  0  0  0  0
  194.5510  168.5870  147.3750 C   0  0  0  0  0  1  0  0  0  0  0  0
  189.7160  173.0690  141.3010 C   0  0  2  0  0  3  0  0  0  0  0  0
  188.4440  172.5790  140.9900 O   0  0  0  0  0  1  0  0  0  0  0  0
  190.7360  171.9370  141.3140 C   0  0  0  0  0  2  0  0  0  0  0  0
  191.7870  172.1380  140.2360 C   0  0  0  0  0  2  0  0  0  0  0  0
  191.7530  173.5640  139.7180 C   0  0  0  0  0  2  0  0  0  0  0  0
  193.8490  174.5770  139.2440 O   0  0  0  0  0  0  0  0  0  0  0  0
  193.0000  174.2800  140.1230 C   0  0  0  0  0  0  0  0  0  0  0  0
  193.2300  174.6570  141.4480 O   0  0  0  0  0  0  0  0  0  0  0  0
  194.2380  175.5900  141.8080 C   0  0  0  0  0  1  0  0  0  0  0  0
  185.9260  178.5110  146.2830 C   0  0  0  0  0  2  0  0  0  0  0  0
  184.6960  178.0780  145.4930 C   0  0  0  0  0  2  0  0  0  0  0  0
  184.5370  178.9480  144.2960 C   0  0  0  0  0  0  0  0  0  0  0  0
  183.8900  178.4610  143.1680 O   0  0  0  0  0  0  0  0  0  0  0  0
  184.9580  180.1330  144.3160 O   0  0  0  0  0  1  0  0  0  0  0  0
  1  6  2  0  0  0  0
  1 13  1  0  0  0  0
  2 10  1  0  0  0  0
  2 11  1  0  0  0  0
  3 14  2  0  0  0  0
  3  4  1  0  0  0  0
  4  9  1  0  0  0  0
  5 14  2  0  0  0  0
  5 20  1  0  0  0  0
  9  8  2  0  0  0  0
 10  6  1  6  0  0  0
 10  3  1  0  0  0  0
 11 12  1  0  0  0  0
 12 36  1  1  0  0  0
 12  8  1  0  0  0  0
 13  5  1  0  0  0  0
 13  7  1  1  0  0  0
 17 15  2  0  0  0  0
 18 17  1  0  0  0  0
 19 17  1  0  0  0  0
 19 23  1  0  0  0  0
 20 18  1  0  0  0  0
 20 16  2  0  0  0  0
 23 22  1  6  0  0  0
 23 21  1  0  0  0  0
 23 25  1  0  0  0  0
 25 26  1  0  0  0  0
 25 24  1  0  0  0  0
 27 28  1  1  0  0  0
 27 29  1  0  0  0  0
 27  1  1  0  0  0  0
 30 29  1  0  0  0  0
 31 33  1  0  0  0  0
 31 30  1  0  0  0  0
 32 33  2  0  0  0  0
 33 34  1  0  0  0  0
 34 35  1  0  0  0  0
 37 36  1  0  0  0  0
 38 40  1  0  0  0  0
 38 37  1  0  0  0  0
 39 38  2  0  0  0  0
M  END
>  <MODEL>
8

>  <REMARK>
 VINA RESULT:      -6.3      2.822      5.013
  Name = 
  12 active torsions:
  status: ('A' for Active; 'I' for Inactive)
    1  A    between atoms: C_1  and  C_25
    2  A    between atoms: C_2  and  C_12
    3  A    between atoms: C_2  and  C_38
    4  A    between atoms: C_4  and  C_12
    5  A    between atoms: C_8  and  C_37
    6  A    between atoms: O_11  and  C_33
    7  A    between atoms: C_15  and  C_23
    8  A    between atoms: C_15  and  C_33
    9  A    between atoms: C_20  and  C_29
   10  A    between atoms: C_22  and  C_23
   11  A    between atoms: C_22  and  C_25
   12  A    between atoms: C_29  and  N_35
                            x       y       z     vdW  Elec       q    Type
                         _______ _______ _______ _____ _____    ______ ____

>  <TORSDO>
F 12

$$$$
=
 OpenBabel11042419443D

 40 41  0  0  1  0  0  0  0  0999 V2000
  192.0100  175.4630  144.5170 C   0  0  0  0  0  0  0  0  0  0  0  0
  188.4870  176.6050  144.7590 O   0  0  0  0  0  0  0  0  0  0  0  0
  189.2860  175.3510  142.8890 C   0  0  0  0  0  0  0  0  0  0  0  0
  187.9870  175.4040  142.1510 C   0  0  0  0  0  2  0  0  0  0  0  0
  191.5930  174.6150  142.1410 C   0  0  0  0  0  0  0  0  0  0  0  0
  190.7630  175.8790  144.8920 C   0  0  0  0  0  3  0  0  0  0  0  0
  192.8350  176.7420  142.5220 C   0  0  0  0  0  1  0  0  0  0  0  0
  187.3420  177.7730  142.0410 N   0  0  0  0  0  0  0  0  0  0  0  0
  187.8170  176.7250  141.4570 C   0  0  0  0  0  3  0  0  0  0  0  0
  189.6210  176.3360  143.9870 C   0  0  2  0  0  3  0  0  0  0  0  0
  188.0800  177.8870  144.3800 C   0  0  0  0  0  2  0  0  0  0  0  0
  186.8970  177.7980  143.4190 C   0  0  1  0  0  3  0  0  0  0  0  0
  192.5160  175.3630  143.0750 C   0  0  1  0  0  3  0  0  0  0  0  0
  190.3370  174.8640  142.3250 C   0  0  0  0  0  0  0  0  0  0  0  0
  192.7080  172.3250  138.5920 O   0  0  0  0  0  0  0  0  0  0  0  0
  193.3130  173.5400  140.9150 O   0  0  0  0  0  0  0  0  0  0  0  0
  191.5100  172.6410  138.8250 C   0  0  0  0  0  0  0  0  0  0  0  0
  191.1670  173.3950  139.9920 N   0  0  0  0  0  2  0  0  0  0  0  0
  190.4690  172.2490  137.9240 N   0  0  0  0  0  2  0  0  0  0  0  0
  192.0880  173.8280  141.0000 C   0  0  0  0  0  0  0  0  0  0  0  0
  191.4530  172.2470  135.8140 O   0  0  0  0  0  1  0  0  0  0  0  0
  189.3300  171.2270  136.0500 C   0  0  0  0  0  1  0  0  0  0  0  0
  190.6830  171.4850  136.6960 C   0  0  2  0  0  0  0  0  0  0  0  0
  192.0490  169.5430  135.7720 C   0  0  0  0  0  1  0  0  0  0  0  0
  191.4100  170.1620  137.0080 C   0  0  0  0  0  3  0  0  0  0  0  0
  190.4990  169.1410  137.6740 C   0  0  0  0  0  1  0  0  0  0  0  0
  192.9800  175.0440  145.5820 C   0  0  2  0  0  3  0  0  0  0  0  0
  193.6000  176.1650  146.1420 O   0  0  0  0  0  1  0  0  0  0  0  0
  194.0200  174.0830  145.0200 C   0  0  0  0  0  2  0  0  0  0  0  0
  193.6810  172.6440  145.3730 C   0  0  0  0  0  2  0  0  0  0  0  0
  193.5030  171.8160  144.1140 C   0  0  0  0  0  2  0  0  0  0  0  0
  191.7070  170.7610  142.9690 O   0  0  0  0  0  0  0  0  0  0  0  0
  192.0500  171.5670  143.8720 C   0  0  0  0  0  0  0  0  0  0  0  0
  191.0630  172.1810  144.6470 O   0  0  0  0  0  0  0  0  0  0  0  0
  189.6780  171.9600  144.4280 C   0  0  0  0  0  1  0  0  0  0  0  0
  185.9300  178.9590  143.6400 C   0  0  0  0  0  2  0  0  0  0  0  0
  185.8010  179.3360  145.1110 C   0  0  0  0  0  2  0  0  0  0  0  0
  184.8100  178.4440  145.7720 C   0  0  0  0  0  0  0  0  0  0  0  0
  185.1540  177.1350  146.0810 O   0  0  0  0  0  0  0  0  0  0  0  0
  183.6740  178.8850  146.0840 O   0  0  0  0  0  1  0  0  0  0  0  0
  1  6  2  0  0  0  0
  1 27  1  0  0  0  0
  3 10  1  0  0  0  0
  4  3  1  0  0  0  0
  5 14  2  0  0  0  0
  5 13  1  0  0  0  0
  8 12  1  0  0  0  0
  9  8  2  0  0  0  0
  9  4  1  0  0  0  0
 10  2  1  0  0  0  0
 10  6  1  1  0  0  0
 11  2  1  0  0  0  0
 12 36  1  6  0  0  0
 12 11  1  0  0  0  0
 13  7  1  6  0  0  0
 13  1  1  0  0  0  0
 14  3  2  0  0  0  0
 15 17  2  0  0  0  0
 16 20  2  0  0  0  0
 17 18  1  0  0  0  0
 18 20  1  0  0  0  0
 19 17  1  0  0  0  0
 20  5  1  0  0  0  0
 21 23  1  0  0  0  0
 23 22  1  6  0  0  0
 23 25  1  0  0  0  0
 23 19  1  0  0  0  0
 24 25  1  0  0  0  0
 25 26  1  0  0  0  0
 27 28  1  6  0  0  0
 29 30  1  0  0  0  0
 29 27  1  0  0  0  0
 31 30  1  0  0  0  0
 32 33  2  0  0  0  0
 33 31  1  0  0  0  0
 33 34  1  0  0  0  0
 35 34  1  0  0  0  0
 36 37  1  0  0  0  0
 37 38  1  0  0  0  0
 38 39  2  0  0  0  0
 38 40  1  0  0  0  0
M  END
>  <MODEL>
9

>  <REMARK>
 VINA RESULT:      -6.2      3.796      5.632
  Name = 
  12 active torsions:
  status: ('A' for Active; 'I' for Inactive)
    1  A    between atoms: C_1  and  C_25
    2  A    between atoms: C_2  and  C_12
    3  A    between atoms: C_2  and  C_38
    4  A    between atoms: C_4  and  C_12
    5  A    between atoms: C_8  and  C_37
    6  A    between atoms: O_11  and  C_33
    7  A    between atoms: C_15  and  C_23
    8  A    between atoms: C_15  and  C_33
    9  A    between atoms: C_20  and  C_29
   10  A    between atoms: C_22  and  C_23
   11  A    between atoms: C_22  and  C_25
   12  A    between atoms: C_29  and  N_35
                            x       y       z     vdW  Elec       q    Type
                         _______ _______ _______ _____ _____    ______ ____

>  <TORSDO>
F 12

$$$$
