=
 OpenBabel11042418403D

 34 37  0  0  1  0  0  0  0  0999 V2000
  190.4400  177.2540  145.1450 C   0  0  0  0  0  3  0  0  0  0  0  0
  188.6980  175.2910  141.2460 C   0  0  0  0  0  0  0  0  0  0  0  0
  188.6210  176.5190  141.9380 C   0  0  0  0  0  0  0  0  0  0  0  0
  189.4610  177.7770  144.0670 C   0  0  0  0  0  3  0  0  0  0  0  0
  190.1070  174.3980  142.9180 N   0  0  0  0  0  0  0  0  0  0  0  0
  189.4430  174.2700  141.7650 N   0  0  0  0  0  0  0  0  0  0  0  0
  189.3260  176.6210  143.1360 C   0  0  0  0  0  0  0  0  0  0  0  0
  187.8520  175.0400  139.7280 Cl  0  0  0  0  0  0  0  0  0  0  0  0
  190.0420  175.5670  143.6020 C   0  0  0  0  0  0  0  0  0  0  0  0
  190.7010  175.8520  144.8170 N   0  0  0  0  0  0  0  0  0  0  0  0
  187.7930  177.6630  141.4360 C   0  0  0  0  0  2  0  0  0  0  0  0
  186.3140  177.4610  141.7490 C   0  0  0  0  0  2  0  0  0  0  0  0
  185.6740  176.8900  144.1640 C   0  0  0  0  0  3  0  0  0  0  0  0
  185.8030  179.5930  144.7620 N   0  0  0  0  0  2  0  0  0  0  0  0
  185.9910  177.9000  143.1370 C   0  0  0  0  0  0  0  0  0  0  0  0
  186.0540  179.1610  143.4480 N   0  0  0  0  0  0  0  0  0  0  0  0
  185.4410  177.2650  145.4210 C   0  0  0  0  0  0  0  0  0  0  0  0
  185.4910  178.6580  145.7630 N   0  0  0  0  0  0  0  0  0  0  0  0
  185.1610  176.2800  146.4100 N   0  0  0  0  0  1  0  0  0  0  0  0
  186.5400  179.1590  147.9020 C   0  0  0  0  0  1  0  0  0  0  0  0
  185.2410  179.1140  147.1220 C   0  0  0  0  0  2  0  0  0  0  0  0
  191.8310  175.0820  145.3170 C   0  0  0  0  0  2  0  0  0  0  0  0
  192.4440  175.7430  146.5460 C   0  0  0  0  0  2  0  0  0  0  0  0
  194.3830  176.9060  145.4560 C   0  0  1  0  0  3  0  0  0  0  0  0
  194.5120  174.4960  145.9320 C   0  0  0  0  0  2  0  0  0  0  0  0
  194.9800  177.9560  146.1540 O   0  0  0  0  0  1  0  0  0  0  0  0
  195.5810  174.8090  144.9020 C   0  0  0  0  0  2  0  0  0  0  0  0
  196.0550  176.9000  143.6900 N   0  0  0  0  0  0  0  0  0  0  0  0
  195.3810  176.2440  144.5880 C   0  0  0  0  0  0  0  0  0  0  0  0
  193.9610  175.8250  146.4400 C   0  0  2  0  0  3  0  0  0  0  0  0
  196.9930  176.3070  142.8260 N   0  0  0  0  0  2  0  0  0  0  0  0
  196.7340  176.0420  141.4440 C   0  0  0  0  0  0  0  0  0  0  0  0
  197.6470  175.3060  140.7030 O   0  0  0  0  0  0  0  0  0  0  0  0
  195.7070  176.5100  140.8820 O   0  0  0  0  0  1  0  0  0  0  0  0
  2  6  2  0  0  0  0
  2  3  1  0  0  0  0
  3  7  2  0  0  0  0
  4  1  2  0  0  0  0
  5  9  2  0  0  0  0
  6  5  1  0  0  0  0
  7  9  1  0  0  0  0
  7  4  1  0  0  0  0
  8  2  1  0  0  0  0
  9 10  1  0  0  0  0
 10  1  1  0  0  0  0
 10 22  1  0  0  0  0
 11 12  1  0  0  0  0
 11  3  1  0  0  0  0
 12 15  1  0  0  0  0
 13 17  2  0  0  0  0
 14 18  1  0  0  0  0
 15 16  2  0  0  0  0
 15 13  1  0  0  0  0
 16 14  1  0  0  0  0
 17 18  1  0  0  0  0
 17 19  1  0  0  0  0
 18 21  1  0  0  0  0
 21 20  1  0  0  0  0
 22 23  1  0  0  0  0
 24 26  1  1  0  0  0
 24 30  1  0  0  0  0
 25 30  1  0  0  0  0
 27 25  1  0  0  0  0
 28 29  2  0  0  0  0
 29 27  1  0  0  0  0
 29 24  1  0  0  0  0
 30 23  1  6  0  0  0
 31 28  1  0  0  0  0
 32 31  1  0  0  0  0
 33 32  2  0  0  0  0
 34 32  1  0  0  0  0
M  END
>  <MODEL>
1

>  <REMARK>
 VINA RESULT:      -7.3      0.000      0.000
  Name = 
  8 active torsions:
  status: ('A' for Active; 'I' for Inactive)
    1  A    between atoms: N_3  and  N_22
    2  A    between atoms: C_7  and  C_11
    3  A    between atoms: C_11  and  C_13
    4  A    between atoms: C_12  and  C_13
    5  A    between atoms: C_18  and  C_28
    6  A    between atoms: C_18  and  N_32
    7  A    between atoms: N_27  and  C_30
    8  A    between atoms: C_28  and  C_29
                            x       y       z     vdW  Elec       q    Type
                         _______ _______ _______ _____ _____    ______ ____

>  <TORSDO>
F 8

$$$$
=
 OpenBabel11042418403D

 34 37  0  0  1  0  0  0  0  0999 V2000
  189.3290  174.6550  143.7750 C   0  0  0  0  0  3  0  0  0  0  0  0
  190.6410  177.0550  147.5970 C   0  0  0  0  0  0  0  0  0  0  0  0
  191.0930  175.9620  146.8270 C   0  0  0  0  0  0  0  0  0  0  0  0
  190.5250  174.4930  144.7430 C   0  0  0  0  0  3  0  0  0  0  0  0
  188.7370  177.2830  146.2180 N   0  0  0  0  0  0  0  0  0  0  0  0
  189.4720  177.6790  147.2610 N   0  0  0  0  0  0  0  0  0  0  0  0
  190.3040  175.5750  145.7440 C   0  0  0  0  0  0  0  0  0  0  0  0
  191.5460  177.6350  148.9850 Cl  0  0  0  0  0  0  0  0  0  0  0  0
  189.1490  176.2320  145.4690 C   0  0  0  0  0  0  0  0  0  0  0  0
  188.4890  175.7150  144.3340 N   0  0  0  0  0  0  0  0  0  0  0  0
  192.3490  175.2180  147.1650 C   0  0  0  0  0  2  0  0  0  0  0  0
  193.5910  176.0210  146.7920 C   0  0  0  0  0  2  0  0  0  0  0  0
  195.0880  176.3540  144.7390 C   0  0  0  0  0  3  0  0  0  0  0  0
  194.7560  173.6650  144.1510 N   0  0  0  0  0  2  0  0  0  0  0  0
  194.2410  175.4750  145.5670 C   0  0  0  0  0  0  0  0  0  0  0  0
  194.1110  174.2150  145.2720 N   0  0  0  0  0  0  0  0  0  0  0  0
  195.7220  175.8630  143.6750 C   0  0  0  0  0  0  0  0  0  0  0  0
  195.5650  174.4760  143.3370 N   0  0  0  0  0  0  0  0  0  0  0  0
  196.5570  176.7140  142.8970 N   0  0  0  0  0  1  0  0  0  0  0  0
  195.2750  173.8180  141.0110 C   0  0  0  0  0  1  0  0  0  0  0  0
  196.2350  173.8980  142.1820 C   0  0  0  0  0  2  0  0  0  0  0  0
  187.4830  176.4550  143.5840 C   0  0  0  0  0  2  0  0  0  0  0  0
  188.1070  177.6260  142.8350 C   0  0  0  0  0  2  0  0  0  0  0  0
  185.7550  178.4910  142.9790 C   0  0  1  0  0  3  0  0  0  0  0  0
  186.7310  177.9590  140.7850 C   0  0  0  0  0  2  0  0  0  0  0  0
  185.5640  179.7470  143.5570 O   0  0  0  0  0  1  0  0  0  0  0  0
  185.2260  178.0090  140.6070 C   0  0  0  0  0  2  0  0  0  0  0  0
  183.4360  178.2680  142.2800 N   0  0  0  0  0  0  0  0  0  0  0  0
  184.7000  178.2310  141.9760 C   0  0  0  0  0  0  0  0  0  0  0  0
  187.0480  178.4990  142.1770 C   0  0  2  0  0  3  0  0  0  0  0  0
  182.4020  178.0010  141.3660 N   0  0  0  0  0  2  0  0  0  0  0  0
  181.0680  178.4960  141.5200 C   0  0  0  0  0  0  0  0  0  0  0  0
  180.0690  178.0530  140.6660 O   0  0  0  0  0  0  0  0  0  0  0  0
  180.8020  179.3640  142.3940 O   0  0  0  0  0  1  0  0  0  0  0  0
  1 10  1  0  0  0  0
  1  4  2  0  0  0  0
  2  8  1  0  0  0  0
  3 11  1  0  0  0  0
  3  2  2  0  0  0  0
  4  7  1  0  0  0  0
  5  6  2  0  0  0  0
  6  2  1  0  0  0  0
  7  3  1  0  0  0  0
  9  7  2  0  0  0  0
  9  5  1  0  0  0  0
 10  9  1  0  0  0  0
 12 11  1  0  0  0  0
 13 15  1  0  0  0  0
 14 16  1  0  0  0  0
 15 12  1  0  0  0  0
 16 15  2  0  0  0  0
 17 13  2  0  0  0  0
 18 17  1  0  0  0  0
 18 14  1  0  0  0  0
 19 17  1  0  0  0  0
 20 21  1  0  0  0  0
 21 18  1  0  0  0  0
 22 10  1  0  0  0  0
 23 22  1  0  0  0  0
 24 26  1  6  0  0  0
 25 30  1  0  0  0  0
 27 25  1  0  0  0  0
 27 29  1  0  0  0  0
 29 28  2  0  0  0  0
 29 24  1  0  0  0  0
 30 23  1  1  0  0  0
 30 24  1  0  0  0  0
 31 32  1  0  0  0  0
 31 28  1  0  0  0  0
 32 34  1  0  0  0  0
 33 32  2  0  0  0  0
M  END
>  <MODEL>
2

>  <REMARK>
 VINA RESULT:      -7.2      4.935      9.947
  Name = 
  8 active torsions:
  status: ('A' for Active; 'I' for Inactive)
    1  A    between atoms: N_3  and  N_22
    2  A    between atoms: C_7  and  C_11
    3  A    between atoms: C_11  and  C_13
    4  A    between atoms: C_12  and  C_13
    5  A    between atoms: C_18  and  C_28
    6  A    between atoms: C_18  and  N_32
    7  A    between atoms: N_27  and  C_30
    8  A    between atoms: C_28  and  C_29
                            x       y       z     vdW  Elec       q    Type
                         _______ _______ _______ _____ _____    ______ ____

>  <TORSDO>
F 8

$$$$
=
 OpenBabel11042418403D

 34 37  0  0  1  0  0  0  0  0999 V2000
  191.2330  177.5250  144.2320 C   0  0  0  0  0  3  0  0  0  0  0  0
  186.9330  177.0830  146.0780 C   0  0  0  0  0  0  0  0  0  0  0  0
  187.5280  177.5140  144.8730 C   0  0  0  0  0  0  0  0  0  0  0  0
  189.8270  177.8560  143.6790 C   0  0  0  0  0  3  0  0  0  0  0  0
  189.0600  176.6620  147.0180 N   0  0  0  0  0  0  0  0  0  0  0  0
  187.7260  176.6700  147.1120 N   0  0  0  0  0  0  0  0  0  0  0  0
  188.9210  177.4920  144.8070 C   0  0  0  0  0  0  0  0  0  0  0  0
  185.1900  177.0660  146.2840 Cl  0  0  0  0  0  0  0  0  0  0  0  0
  189.6520  177.0780  145.8720 C   0  0  0  0  0  0  0  0  0  0  0  0
  191.0410  177.1090  145.6220 N   0  0  0  0  0  0  0  0  0  0  0  0
  186.7130  178.0090  143.7170 C   0  0  0  0  0  2  0  0  0  0  0  0
  185.9530  176.8710  143.0440 C   0  0  0  0  0  2  0  0  0  0  0  0
  187.3660  174.7830  142.5870 C   0  0  0  0  0  3  0  0  0  0  0  0
  187.8910  175.7800  140.0540 N   0  0  0  0  0  2  0  0  0  0  0  0
  186.8420  176.0870  142.1400 C   0  0  0  0  0  0  0  0  0  0  0  0
  187.0970  176.5260  140.9430 N   0  0  0  0  0  0  0  0  0  0  0  0
  188.1130  174.0450  141.7660 C   0  0  0  0  0  0  0  0  0  0  0  0
  188.4120  174.5370  140.4500 N   0  0  0  0  0  0  0  0  0  0  0  0
  188.5930  172.7770  142.1980 N   0  0  0  0  0  1  0  0  0  0  0  0
  188.3610  173.2180  138.4050 C   0  0  0  0  0  1  0  0  0  0  0  0
  189.2260  173.7670  139.5220 C   0  0  0  0  0  2  0  0  0  0  0  0
  192.0140  176.3570  146.4030 C   0  0  0  0  0  2  0  0  0  0  0  0
  191.9440  174.8690  146.0800 C   0  0  0  0  0  2  0  0  0  0  0  0
  194.2250  175.5030  145.2460 C   0  0  1  0  0  3  0  0  0  0  0  0
  192.7820  174.0530  143.8800 C   0  0  0  0  0  2  0  0  0  0  0  0
  195.3220  175.1380  146.0280 O   0  0  0  0  0  1  0  0  0  0  0  0
  193.8500  174.6170  142.9630 C   0  0  0  0  0  2  0  0  0  0  0  0
  195.5890  176.3050  143.3990 N   0  0  0  0  0  0  0  0  0  0  0  0
  194.6160  175.5530  143.8200 C   0  0  0  0  0  0  0  0  0  0  0  0
  193.1740  174.4050  145.3130 C   0  0  2  0  0  3  0  0  0  0  0  0
  195.9770  176.4040  142.0500 N   0  0  0  0  0  2  0  0  0  0  0  0
  197.0800  175.6830  141.4940 C   0  0  0  0  0  0  0  0  0  0  0  0
  197.4990  175.9600  140.2010 O   0  0  0  0  0  0  0  0  0  0  0  0
  197.6440  174.7660  142.1490 O   0  0  0  0  0  1  0  0  0  0  0  0
  1 10  1  0  0  0  0
  2  8  1  0  0  0  0
  2  6  1  0  0  0  0
  3  2  2  0  0  0  0
  4  1  2  0  0  0  0
  4  7  1  0  0  0  0
  5  6  2  0  0  0  0
  7  3  1  0  0  0  0
  7  9  2  0  0  0  0
  9  5  1  0  0  0  0
 10  9  1  0  0  0  0
 10 22  1  0  0  0  0
 11  3  1  0  0  0  0
 12 11  1  0  0  0  0
 14 18  1  0  0  0  0
 14 16  1  0  0  0  0
 15 13  1  0  0  0  0
 15 12  1  0  0  0  0
 16 15  2  0  0  0  0
 17 19  1  0  0  0  0
 17 13  2  0  0  0  0
 18 17  1  0  0  0  0
 20 21  1  0  0  0  0
 21 18  1  0  0  0  0
 23 22  1  0  0  0  0
 24 30  1  0  0  0  0
 24 26  1  1  0  0  0
 25 30  1  0  0  0  0
 27 29  1  0  0  0  0
 27 25  1  0  0  0  0
 28 29  2  0  0  0  0
 29 24  1  0  0  0  0
 30 23  1  1  0  0  0
 31 28  1  0  0  0  0
 32 31  1  0  0  0  0
 32 34  1  0  0  0  0
 33 32  2  0  0  0  0
M  END
>  <MODEL>
3

>  <REMARK>
 VINA RESULT:      -7.1      2.313      4.380
  Name = 
  8 active torsions:
  status: ('A' for Active; 'I' for Inactive)
    1  A    between atoms: N_3  and  N_22
    2  A    between atoms: C_7  and  C_11
    3  A    between atoms: C_11  and  C_13
    4  A    between atoms: C_12  and  C_13
    5  A    between atoms: C_18  and  C_28
    6  A    between atoms: C_18  and  N_32
    7  A    between atoms: N_27  and  C_30
    8  A    between atoms: C_28  and  C_29
                            x       y       z     vdW  Elec       q    Type
                         _______ _______ _______ _____ _____    ______ ____

>  <TORSDO>
F 8

$$$$
=
 OpenBabel11042418403D

 34 37  0  0  1  0  0  0  0  0999 V2000
  194.7520  176.0520  142.2560 C   0  0  0  0  0  3  0  0  0  0  0  0
  192.6920  176.0880  146.4800 C   0  0  0  0  0  0  0  0  0  0  0  0
  192.3170  176.0670  145.1200 C   0  0  0  0  0  0  0  0  0  0  0  0
  193.2660  176.0670  142.6870 C   0  0  0  0  0  3  0  0  0  0  0  0
  194.9770  176.1770  145.8840 N   0  0  0  0  0  0  0  0  0  0  0  0
  194.0170  176.1420  146.8140 N   0  0  0  0  0  0  0  0  0  0  0  0
  193.3420  176.1030  144.1750 C   0  0  0  0  0  0  0  0  0  0  0  0
  191.4940  176.0490  147.7630 Cl  0  0  0  0  0  0  0  0  0  0  0  0
  194.6380  176.1640  144.5710 C   0  0  0  0  0  0  0  0  0  0  0  0
  195.5370  176.1800  143.4840 N   0  0  0  0  0  0  0  0  0  0  0  0
  190.8800  176.0410  144.6930 C   0  0  0  0  0  2  0  0  0  0  0  0
  190.2740  177.4410  144.6920 C   0  0  0  0  0  2  0  0  0  0  0  0
  187.7800  177.2970  144.1220 C   0  0  0  0  0  3  0  0  0  0  0  0
  187.2300  177.3490  146.8390 N   0  0  0  0  0  2  0  0  0  0  0  0
  188.8500  177.4130  145.1310 C   0  0  0  0  0  0  0  0  0  0  0  0
  188.5630  177.4260  146.3990 N   0  0  0  0  0  0  0  0  0  0  0  0
  186.5060  177.2120  144.5050 C   0  0  0  0  0  0  0  0  0  0  0  0
  186.1860  177.2450  145.9040 N   0  0  0  0  0  0  0  0  0  0  0  0
  185.4830  177.0750  143.5250 N   0  0  0  0  0  1  0  0  0  0  0  0
  184.2170  178.5480  146.4970 C   0  0  0  0  0  1  0  0  0  0  0  0
  184.8100  177.1580  146.3680 C   0  0  0  0  0  2  0  0  0  0  0  0
  196.9470  175.8360  143.6040 C   0  0  0  0  0  2  0  0  0  0  0  0
  197.2970  174.6380  142.7280 C   0  0  0  0  0  2  0  0  0  0  0  0
  196.4860  172.3370  143.3160 C   0  0  1  0  0  3  0  0  0  0  0  0
  197.5200  173.7490  145.0450 C   0  0  0  0  0  2  0  0  0  0  0  0
  197.0510  171.2600  142.6310 O   0  0  0  0  0  1  0  0  0  0  0  0
  196.7460  172.6580  145.7590 C   0  0  0  0  0  2  0  0  0  0  0  0
  195.2430  170.9270  144.8590 N   0  0  0  0  0  0  0  0  0  0  0  0
  196.0710  171.9110  144.6700 C   0  0  0  0  0  0  0  0  0  0  0  0
  197.5560  173.3910  143.5610 C   0  0  2  0  0  3  0  0  0  0  0  0
  194.8000  170.5060  146.1260 N   0  0  0  0  0  2  0  0  0  0  0  0
  195.0870  169.2150  146.6720 C   0  0  0  0  0  0  0  0  0  0  0  0
  194.4770  168.8180  147.8530 O   0  0  0  0  0  1  0  0  0  0  0  0
  195.9240  168.4540  146.1150 O   0  0  0  0  0  0  0  0  0  0  0  0
  1  4  2  0  0  0  0
  1 10  1  0  0  0  0
  2  6  1  0  0  0  0
  2  8  1  0  0  0  0
  3  2  2  0  0  0  0
  4  7  1  0  0  0  0
  5  6  2  0  0  0  0
  7  9  2  0  0  0  0
  7  3  1  0  0  0  0
  9  5  1  0  0  0  0
 10 22  1  0  0  0  0
 10  9  1  0  0  0  0
 11  3  1  0  0  0  0
 12 11  1  0  0  0  0
 12 15  1  0  0  0  0
 13 17  2  0  0  0  0
 13 15  1  0  0  0  0
 15 16  2  0  0  0  0
 16 14  1  0  0  0  0
 17 18  1  0  0  0  0
 18 21  1  0  0  0  0
 18 14  1  0  0  0  0
 19 17  1  0  0  0  0
 21 20  1  0  0  0  0
 23 22  1  0  0  0  0
 24 26  1  6  0  0  0
 24 30  1  0  0  0  0
 24 29  1  0  0  0  0
 25 27  1  0  0  0  0
 28 31  1  0  0  0  0
 29 28  2  0  0  0  0
 29 27  1  0  0  0  0
 30 23  1  6  0  0  0
 30 25  1  0  0  0  0
 31 32  1  0  0  0  0
 32 33  1  0  0  0  0
 34 32  2  0  0  0  0
M  END
>  <MODEL>
4

>  <REMARK>
 VINA RESULT:      -7.1      3.815      5.552
  Name = 
  8 active torsions:
  status: ('A' for Active; 'I' for Inactive)
    1  A    between atoms: N_3  and  N_22
    2  A    between atoms: C_7  and  C_11
    3  A    between atoms: C_11  and  C_13
    4  A    between atoms: C_12  and  C_13
    5  A    between atoms: C_18  and  C_28
    6  A    between atoms: C_18  and  N_32
    7  A    between atoms: N_27  and  C_30
    8  A    between atoms: C_28  and  C_29
                            x       y       z     vdW  Elec       q    Type
                         _______ _______ _______ _____ _____    ______ ____

>  <TORSDO>
F 8

$$$$
=
 OpenBabel11042418403D

 34 37  0  0  1  0  0  0  0  0999 V2000
  190.0540  177.0650  144.4180 C   0  0  0  0  0  3  0  0  0  0  0  0
  185.7850  177.6860  146.2840 C   0  0  0  0  0  0  0  0  0  0  0  0
  186.5130  178.0990  145.1480 C   0  0  0  0  0  0  0  0  0  0  0  0
  188.8320  177.8980  143.9630 C   0  0  0  0  0  3  0  0  0  0  0  0
  187.6530  176.4840  147.0870 N   0  0  0  0  0  0  0  0  0  0  0  0
  186.3860  176.8880  147.2170 N   0  0  0  0  0  0  0  0  0  0  0  0
  187.8320  177.6580  145.0410 C   0  0  0  0  0  0  0  0  0  0  0  0
  184.1170  178.1770  146.5320 Cl  0  0  0  0  0  0  0  0  0  0  0  0
  188.3730  176.8730  146.0070 C   0  0  0  0  0  0  0  0  0  0  0  0
  189.7080  176.5130  145.7280 N   0  0  0  0  0  0  0  0  0  0  0  0
  185.9200  179.0000  144.1080 C   0  0  0  0  0  2  0  0  0  0  0  0
  185.5850  178.2340  142.8320 C   0  0  0  0  0  2  0  0  0  0  0  0
  183.6800  177.9170  141.1470 C   0  0  0  0  0  3  0  0  0  0  0  0
  181.9610  179.0870  142.9790 N   0  0  0  0  0  2  0  0  0  0  0  0
  184.1550  178.4160  142.4520 C   0  0  0  0  0  0  0  0  0  0  0  0
  183.3240  178.9520  143.2950 N   0  0  0  0  0  0  0  0  0  0  0  0
  182.3920  178.0200  140.8200 C   0  0  0  0  0  0  0  0  0  0  0  0
  181.4760  178.6290  141.7430 N   0  0  0  0  0  0  0  0  0  0  0  0
  181.9400  177.5130  139.5700 N   0  0  0  0  0  1  0  0  0  0  0  0
  179.8300  180.0340  140.6290 C   0  0  0  0  0  1  0  0  0  0  0  0
  180.0630  178.7660  141.4270 C   0  0  0  0  0  2  0  0  0  0  0  0
  190.3810  175.3820  146.3530 C   0  0  0  0  0  2  0  0  0  0  0  0
  191.5950  175.8390  147.1520 C   0  0  0  0  0  2  0  0  0  0  0  0
  193.5260  176.3360  145.6270 C   0  0  1  0  0  3  0  0  0  0  0  0
  192.6020  174.0590  145.7290 C   0  0  0  0  0  2  0  0  0  0  0  0
  194.6990  176.8180  146.2080 O   0  0  0  0  0  1  0  0  0  0  0  0
  193.4070  174.1610  144.4470 C   0  0  0  0  0  2  0  0  0  0  0  0
  194.5110  176.1060  143.4150 N   0  0  0  0  0  0  0  0  0  0  0  0
  193.8460  175.5770  144.3990 C   0  0  0  0  0  0  0  0  0  0  0  0
  192.8910  175.3100  146.5540 C   0  0  2  0  0  3  0  0  0  0  0  0
  194.8140  175.4300  142.2200 N   0  0  0  0  0  2  0  0  0  0  0  0
  195.5130  176.0350  141.1280 C   0  0  0  0  0  0  0  0  0  0  0  0
  195.6260  175.3560  139.9240 O   0  0  0  0  0  0  0  0  0  0  0  0
  196.0660  177.1600  141.2640 O   0  0  0  0  0  1  0  0  0  0  0  0
  1 10  1  0  0  0  0
  2  8  1  0  0  0  0
  2  6  1  0  0  0  0
  3  2  2  0  0  0  0
  4  1  2  0  0  0  0
  4  7  1  0  0  0  0
  5  6  2  0  0  0  0
  7  3  1  0  0  0  0
  7  9  2  0  0  0  0
  9  5  1  0  0  0  0
 10  9  1  0  0  0  0
 10 22  1  0  0  0  0
 11  3  1  0  0  0  0
 12 11  1  0  0  0  0
 13 15  1  0  0  0  0
 14 16  1  0  0  0  0
 15 12  1  0  0  0  0
 15 16  2  0  0  0  0
 17 13  2  0  0  0  0
 17 18  1  0  0  0  0
 18 14  1  0  0  0  0
 19 17  1  0  0  0  0
 20 21  1  0  0  0  0
 21 18  1  0  0  0  0
 22 23  1  0  0  0  0
 24 26  1  1  0  0  0
 24 30  1  0  0  0  0
 25 30  1  0  0  0  0
 27 25  1  0  0  0  0
 28 29  2  0  0  0  0
 29 27  1  0  0  0  0
 29 24  1  0  0  0  0
 30 23  1  6  0  0  0
 31 28  1  0  0  0  0
 32 34  1  0  0  0  0
 32 31  1  0  0  0  0
 33 32  2  0  0  0  0
M  END
>  <MODEL>
5

>  <REMARK>
 VINA RESULT:      -7.0      3.092      4.188
  Name = 
  8 active torsions:
  status: ('A' for Active; 'I' for Inactive)
    1  A    between atoms: N_3  and  N_22
    2  A    between atoms: C_7  and  C_11
    3  A    between atoms: C_11  and  C_13
    4  A    between atoms: C_12  and  C_13
    5  A    between atoms: C_18  and  C_28
    6  A    between atoms: C_18  and  N_32
    7  A    between atoms: N_27  and  C_30
    8  A    between atoms: C_28  and  C_29
                            x       y       z     vdW  Elec       q    Type
                         _______ _______ _______ _____ _____    ______ ____

>  <TORSDO>
F 8

$$$$
=
 OpenBabel11042418403D

 34 37  0  0  1  0  0  0  0  0999 V2000
  193.3760  176.8640  144.6460 C   0  0  0  0  0  3  0  0  0  0  0  0
  189.1710  176.0830  146.5960 C   0  0  0  0  0  0  0  0  0  0  0  0
  189.7390  176.9060  145.5990 C   0  0  0  0  0  0  0  0  0  0  0  0
  191.9860  177.5010  144.4080 C   0  0  0  0  0  3  0  0  0  0  0  0
  191.2870  175.1510  147.0820 N   0  0  0  0  0  0  0  0  0  0  0  0
  189.9720  175.2310  147.3040 N   0  0  0  0  0  0  0  0  0  0  0  0
  191.1140  176.7970  145.3910 C   0  0  0  0  0  0  0  0  0  0  0  0
  187.4530  176.1300  146.9530 Cl  0  0  0  0  0  0  0  0  0  0  0  0
  191.8540  175.9360  146.1330 C   0  0  0  0  0  0  0  0  0  0  0  0
  193.2200  175.9490  145.7780 N   0  0  0  0  0  0  0  0  0  0  0  0
  188.9190  177.8830  144.8130 C   0  0  0  0  0  2  0  0  0  0  0  0
  188.6040  177.3520  143.4190 C   0  0  0  0  0  2  0  0  0  0  0  0
  186.2550  178.1350  144.0780 C   0  0  0  0  0  3  0  0  0  0  0  0
  185.3980  177.4810  141.5240 N   0  0  0  0  0  2  0  0  0  0  0  0
  187.1660  177.5460  143.0780 C   0  0  0  0  0  0  0  0  0  0  0  0
  186.7380  177.2580  141.8840 N   0  0  0  0  0  0  0  0  0  0  0  0
  184.9800  178.3690  143.7660 C   0  0  0  0  0  0  0  0  0  0  0  0
  184.5020  178.0330  142.4540 N   0  0  0  0  0  0  0  0  0  0  0  0
  184.1160  178.9600  144.7300 N   0  0  0  0  0  1  0  0  0  0  0  0
  182.9820  178.2180  140.5620 C   0  0  0  0  0  1  0  0  0  0  0  0
  183.1180  178.2680  142.0710 C   0  0  0  0  0  2  0  0  0  0  0  0
  194.1440  174.8720  146.1040 C   0  0  0  0  0  2  0  0  0  0  0  0
  194.9130  174.4150  144.8700 C   0  0  0  0  0  2  0  0  0  0  0  0
  193.4250  173.7700  142.9550 C   0  0  1  0  0  3  0  0  0  0  0  0
  193.2080  172.6140  145.1150 C   0  0  0  0  0  2  0  0  0  0  0  0
  194.0380  173.3110  141.7880 O   0  0  0  0  0  1  0  0  0  0  0  0
  191.9340  172.3530  144.3350 C   0  0  0  0  0  2  0  0  0  0  0  0
  191.1760  173.2660  142.1770 N   0  0  0  0  0  0  0  0  0  0  0  0
  192.0880  173.1550  143.0980 C   0  0  0  0  0  0  0  0  0  0  0  0
  194.2040  173.2690  144.1620 C   0  0  2  0  0  3  0  0  0  0  0  0
  189.8840  172.7210  142.2830 N   0  0  0  0  0  2  0  0  0  0  0  0
  188.7390  173.2760  141.6290 C   0  0  0  0  0  0  0  0  0  0  0  0
  187.4760  172.7790  141.9160 O   0  0  0  0  0  1  0  0  0  0  0  0
  188.8710  174.1790  140.7600 O   0  0  0  0  0  0  0  0  0  0  0  0
  1 10  1  0  0  0  0
  2  8  1  0  0  0  0
  2  6  1  0  0  0  0
  3  2  2  0  0  0  0
  4  1  2  0  0  0  0
  4  7  1  0  0  0  0
  5  6  2  0  0  0  0
  7  3  1  0  0  0  0
  7  9  2  0  0  0  0
  9  5  1  0  0  0  0
 10 22  1  0  0  0  0
 10  9  1  0  0  0  0
 11  3  1  0  0  0  0
 12 11  1  0  0  0  0
 14 16  1  0  0  0  0
 14 18  1  0  0  0  0
 15 12  1  0  0  0  0
 15 13  1  0  0  0  0
 16 15  2  0  0  0  0
 17 13  2  0  0  0  0
 17 19  1  0  0  0  0
 18 17  1  0  0  0  0
 20 21  1  0  0  0  0
 21 18  1  0  0  0  0
 23 22  1  0  0  0  0
 24 26  1  6  0  0  0
 24 29  1  0  0  0  0
 24 30  1  0  0  0  0
 27 25  1  0  0  0  0
 28 31  1  0  0  0  0
 28 29  2  0  0  0  0
 29 27  1  0  0  0  0
 30 23  1  1  0  0  0
 30 25  1  0  0  0  0
 32 33  1  0  0  0  0
 32 31  1  0  0  0  0
 34 32  2  0  0  0  0
M  END
>  <MODEL>
6

>  <REMARK>
 VINA RESULT:      -7.0      3.128      4.955
  Name = 
  8 active torsions:
  status: ('A' for Active; 'I' for Inactive)
    1  A    between atoms: N_3  and  N_22
    2  A    between atoms: C_7  and  C_11
    3  A    between atoms: C_11  and  C_13
    4  A    between atoms: C_12  and  C_13
    5  A    between atoms: C_18  and  C_28
    6  A    between atoms: C_18  and  N_32
    7  A    between atoms: N_27  and  C_30
    8  A    between atoms: C_28  and  C_29
                            x       y       z     vdW  Elec       q    Type
                         _______ _______ _______ _____ _____    ______ ____

>  <TORSDO>
F 8

$$$$
=
 OpenBabel11042418403D

 34 37  0  0  1  0  0  0  0  0999 V2000
  191.2100  173.1530  143.2580 C   0  0  0  0  0  3  0  0  0  0  0  0
  190.8550  176.0770  146.9200 C   0  0  0  0  0  0  0  0  0  0  0  0
  191.8240  175.2430  146.3220 C   0  0  0  0  0  0  0  0  0  0  0  0
  192.2150  173.5660  144.3580 C   0  0  0  0  0  3  0  0  0  0  0  0
  189.2420  175.4010  145.3320 N   0  0  0  0  0  0  0  0  0  0  0  0
  189.5920  176.1260  146.3990 N   0  0  0  0  0  0  0  0  0  0  0  0
  191.4260  174.5010  145.2100 C   0  0  0  0  0  0  0  0  0  0  0  0
  191.2330  177.0580  148.3270 Cl  0  0  0  0  0  0  0  0  0  0  0  0
  190.1550  174.5880  144.7460 C   0  0  0  0  0  0  0  0  0  0  0  0
  189.9360  173.7810  143.6090 N   0  0  0  0  0  0  0  0  0  0  0  0
  193.2140  175.1220  146.8680 C   0  0  0  0  0  2  0  0  0  0  0  0
  194.0540  176.3490  146.5280 C   0  0  0  0  0  2  0  0  0  0  0  0
  195.8560  174.7730  145.6130 C   0  0  0  0  0  3  0  0  0  0  0  0
  196.1980  176.5150  143.4850 N   0  0  0  0  0  2  0  0  0  0  0  0
  195.0900  176.0280  145.5040 C   0  0  0  0  0  0  0  0  0  0  0  0
  195.2640  176.8230  144.4900 N   0  0  0  0  0  0  0  0  0  0  0  0
  196.7420  174.4460  144.6730 C   0  0  0  0  0  0  0  0  0  0  0  0
  196.9500  175.3320  143.5610 N   0  0  0  0  0  0  0  0  0  0  0  0
  197.4590  173.2210  144.7750 N   0  0  0  0  0  1  0  0  0  0  0  0
  197.3910  173.8760  141.6610 C   0  0  0  0  0  1  0  0  0  0  0  0
  197.9090  175.0180  142.5130 C   0  0  0  0  0  2  0  0  0  0  0  0
  188.8290  173.9830  142.6830 C   0  0  0  0  0  2  0  0  0  0  0  0
  189.0810  175.1840  141.7800 C   0  0  0  0  0  2  0  0  0  0  0  0
  188.2060  177.4080  142.5470 C   0  0  1  0  0  3  0  0  0  0  0  0
  186.6950  175.4700  142.4400 C   0  0  0  0  0  2  0  0  0  0  0  0
  188.2990  178.4790  141.6570 O   0  0  0  0  0  1  0  0  0  0  0  0
  186.0390  176.5030  143.3360 C   0  0  0  0  0  2  0  0  0  0  0  0
  186.8990  178.6520  144.1770 N   0  0  0  0  0  0  0  0  0  0  0  0
  187.0400  177.5920  143.4370 C   0  0  0  0  0  0  0  0  0  0  0  0
  187.8940  176.1370  141.7710 C   0  0  2  0  0  3  0  0  0  0  0  0
  185.8210  178.8560  145.0580 N   0  0  0  0  0  2  0  0  0  0  0  0
  185.8270  178.4240  146.4220 C   0  0  0  0  0  0  0  0  0  0  0  0
  184.6650  178.5140  147.1750 O   0  0  0  0  0  1  0  0  0  0  0  0
  186.8870  178.0060  146.9590 O   0  0  0  0  0  0  0  0  0  0  0  0
  1 10  1  0  0  0  0
  1  4  2  0  0  0  0
  2  8  1  0  0  0  0
  3 11  1  0  0  0  0
  3  2  2  0  0  0  0
  4  7  1  0  0  0  0
  5  6  2  0  0  0  0
  6  2  1  0  0  0  0
  7  3  1  0  0  0  0
  9  7  2  0  0  0  0
  9  5  1  0  0  0  0
 10  9  1  0  0  0  0
 12 11  1  0  0  0  0
 14 18  1  0  0  0  0
 14 16  1  0  0  0  0
 15 13  1  0  0  0  0
 15 12  1  0  0  0  0
 16 15  2  0  0  0  0
 17 19  1  0  0  0  0
 17 13  2  0  0  0  0
 18 17  1  0  0  0  0
 20 21  1  0  0  0  0
 21 18  1  0  0  0  0
 22 10  1  0  0  0  0
 23 22  1  0  0  0  0
 24 26  1  6  0  0  0
 24 29  1  0  0  0  0
 25 27  1  0  0  0  0
 27 29  1  0  0  0  0
 28 31  1  0  0  0  0
 29 28  2  0  0  0  0
 30 23  1  1  0  0  0
 30 25  1  0  0  0  0
 30 24  1  0  0  0  0
 31 32  1  0  0  0  0
 32 34  2  0  0  0  0
 32 33  1  0  0  0  0
M  END
>  <MODEL>
7

>  <REMARK>
 VINA RESULT:      -7.0      3.401      9.118
  Name = 
  8 active torsions:
  status: ('A' for Active; 'I' for Inactive)
    1  A    between atoms: N_3  and  N_22
    2  A    between atoms: C_7  and  C_11
    3  A    between atoms: C_11  and  C_13
    4  A    between atoms: C_12  and  C_13
    5  A    between atoms: C_18  and  C_28
    6  A    between atoms: C_18  and  N_32
    7  A    between atoms: N_27  and  C_30
    8  A    between atoms: C_28  and  C_29
                            x       y       z     vdW  Elec       q    Type
                         _______ _______ _______ _____ _____    ______ ____

>  <TORSDO>
F 8

$$$$
=
 OpenBabel11042418403D

 34 37  0  0  1  0  0  0  0  0999 V2000
  193.2930  175.7610  146.9040 C   0  0  0  0  0  3  0  0  0  0  0  0
  190.7260  177.4160  143.3310 C   0  0  0  0  0  0  0  0  0  0  0  0
  190.5950  177.2070  144.7210 C   0  0  0  0  0  0  0  0  0  0  0  0
  191.8470  176.3070  146.8290 C   0  0  0  0  0  3  0  0  0  0  0  0
  192.9000  176.4910  143.3630 N   0  0  0  0  0  0  0  0  0  0  0  0
  191.8820  177.0480  142.7000 N   0  0  0  0  0  0  0  0  0  0  0  0
  191.6760  176.6250  145.3830 C   0  0  0  0  0  0  0  0  0  0  0  0
  189.4340  178.1380  142.3870 Cl  0  0  0  0  0  0  0  0  0  0  0  0
  192.7930  176.2760  144.6970 C   0  0  0  0  0  0  0  0  0  0  0  0
  193.7860  175.7150  145.5270 N   0  0  0  0  0  0  0  0  0  0  0  0
  189.3410  177.5580  145.4620 C   0  0  0  0  0  2  0  0  0  0  0  0
  188.3140  176.4330  145.3850 C   0  0  0  0  0  2  0  0  0  0  0  0
  186.1080  177.7380  145.3810 C   0  0  0  0  0  3  0  0  0  0  0  0
  185.7630  177.0060  142.7300 N   0  0  0  0  0  2  0  0  0  0  0  0
  187.0780  176.8770  144.6790 C   0  0  0  0  0  0  0  0  0  0  0  0
  186.8950  176.5570  143.4320 N   0  0  0  0  0  0  0  0  0  0  0  0
  185.0290  178.1890  144.7430 C   0  0  0  0  0  0  0  0  0  0  0  0
  184.8160  177.8220  143.3710 N   0  0  0  0  0  0  0  0  0  0  0  0
  184.1130  179.0400  145.4220 N   0  0  0  0  0  1  0  0  0  0  0  0
  183.9410  178.2860  141.1470 C   0  0  0  0  0  1  0  0  0  0  0  0
  183.6500  178.2890  142.6350 C   0  0  0  0  0  2  0  0  0  0  0  0
  195.1920  175.6340  145.1540 C   0  0  0  0  0  2  0  0  0  0  0  0
  195.8430  174.3860  145.7370 C   0  0  0  0  0  2  0  0  0  0  0  0
  194.9730  173.4860  143.5620 C   0  0  1  0  0  3  0  0  0  0  0  0
  194.3030  172.4280  145.6790 C   0  0  0  0  0  2  0  0  0  0  0  0
  195.9090  173.0340  142.6310 O   0  0  0  0  0  1  0  0  0  0  0  0
  193.3060  171.9920  144.6230 C   0  0  0  0  0  2  0  0  0  0  0  0
  193.0610  172.7040  142.2780 N   0  0  0  0  0  0  0  0  0  0  0  0
  193.7060  172.7400  143.4070 C   0  0  0  0  0  0  0  0  0  0  0  0
  195.4510  173.1350  144.9630 C   0  0  2  0  0  3  0  0  0  0  0  0
  191.8400  172.0310  142.0930 N   0  0  0  0  0  2  0  0  0  0  0  0
  190.5640  172.6480  142.2810 C   0  0  0  0  0  0  0  0  0  0  0  0
  189.4140  171.8740  142.2410 O   0  0  0  0  0  0  0  0  0  0  0  0
  190.4700  173.8960  142.4360 O   0  0  0  0  0  1  0  0  0  0  0  0
  2  3  1  0  0  0  0
  3  7  2  0  0  0  0
  3 11  1  0  0  0  0
  4  1  2  0  0  0  0
  5  9  2  0  0  0  0
  6  2  2  0  0  0  0
  6  5  1  0  0  0  0
  7  4  1  0  0  0  0
  8  2  1  0  0  0  0
  9  7  1  0  0  0  0
  9 10  1  0  0  0  0
 10  1  1  0  0  0  0
 12 11  1  0  0  0  0
 14 18  1  0  0  0  0
 14 16  1  0  0  0  0
 15 13  1  0  0  0  0
 15 12  1  0  0  0  0
 16 15  2  0  0  0  0
 17 13  2  0  0  0  0
 17 19  1  0  0  0  0
 18 17  1  0  0  0  0
 20 21  1  0  0  0  0
 21 18  1  0  0  0  0
 22 10  1  0  0  0  0
 22 23  1  0  0  0  0
 24 26  1  6  0  0  0
 24 30  1  0  0  0  0
 27 25  1  0  0  0  0
 28 29  2  0  0  0  0
 29 24  1  0  0  0  0
 29 27  1  0  0  0  0
 30 25  1  0  0  0  0
 30 23  1  1  0  0  0
 31 28  1  0  0  0  0
 31 32  1  0  0  0  0
 32 34  1  0  0  0  0
 33 32  2  0  0  0  0
M  END
>  <MODEL>
8

>  <REMARK>
 VINA RESULT:      -6.9      2.815      4.386
  Name = 
  8 active torsions:
  status: ('A' for Active; 'I' for Inactive)
    1  A    between atoms: N_3  and  N_22
    2  A    between atoms: C_7  and  C_11
    3  A    between atoms: C_11  and  C_13
    4  A    between atoms: C_12  and  C_13
    5  A    between atoms: C_18  and  C_28
    6  A    between atoms: C_18  and  N_32
    7  A    between atoms: N_27  and  C_30
    8  A    between atoms: C_28  and  C_29
                            x       y       z     vdW  Elec       q    Type
                         _______ _______ _______ _____ _____    ______ ____

>  <TORSDO>
F 8

$$$$
=
 OpenBabel11042418403D

 34 37  0  0  1  0  0  0  0  0999 V2000
  189.1900  175.2800  143.6930 C   0  0  0  0  0  3  0  0  0  0  0  0
  187.9440  178.0310  147.2960 C   0  0  0  0  0  0  0  0  0  0  0  0
  187.3810  177.5310  146.1020 C   0  0  0  0  0  0  0  0  0  0  0  0
  187.8870  176.0530  144.0080 C   0  0  0  0  0  3  0  0  0  0  0  0
  189.9970  176.9640  146.8150 N   0  0  0  0  0  0  0  0  0  0  0  0
  189.2400  177.7260  147.6100 N   0  0  0  0  0  0  0  0  0  0  0  0
  188.1980  176.7380  145.2960 C   0  0  0  0  0  0  0  0  0  0  0  0
  187.0190  179.0430  148.3920 Cl  0  0  0  0  0  0  0  0  0  0  0  0
  189.4780  176.4780  145.6610 C   0  0  0  0  0  0  0  0  0  0  0  0
  190.1490  175.6510  144.7360 N   0  0  0  0  0  0  0  0  0  0  0  0
  185.9790  177.8580  145.6870 C   0  0  0  0  0  2  0  0  0  0  0  0
  185.9390  179.0710  144.7630 C   0  0  0  0  0  2  0  0  0  0  0  0
  185.7080  178.5160  142.2720 C   0  0  0  0  0  3  0  0  0  0  0  0
  182.9560  178.5050  142.6030 N   0  0  0  0  0  2  0  0  0  0  0  0
  185.0790  178.8160  143.5720 C   0  0  0  0  0  0  0  0  0  0  0  0
  183.7860  178.7940  143.7010 N   0  0  0  0  0  0  0  0  0  0  0  0
  184.9510  178.2270  141.2140 C   0  0  0  0  0  0  0  0  0  0  0  0
  183.5220  178.2220  141.3490 N   0  0  0  0  0  0  0  0  0  0  0  0
  185.5680  177.9150  139.9700 N   0  0  0  0  0  1  0  0  0  0  0  0
  181.2400  178.3700  140.5150 C   0  0  0  0  0  1  0  0  0  0  0  0
  182.6560  177.9160  140.2200 C   0  0  0  0  0  2  0  0  0  0  0  0
  191.3520  174.8950  145.0590 C   0  0  0  0  0  2  0  0  0  0  0  0
  191.8950  175.2890  146.4270 C   0  0  0  0  0  2  0  0  0  0  0  0
  193.9790  176.4720  145.6790 C   0  0  1  0  0  3  0  0  0  0  0  0
  193.9360  174.0150  145.7780 C   0  0  0  0  0  2  0  0  0  0  0  0
  194.5730  177.3610  146.5770 O   0  0  0  0  0  1  0  0  0  0  0  0
  195.1020  174.4090  144.8920 C   0  0  0  0  0  2  0  0  0  0  0  0
  195.7890  176.6240  144.0620 N   0  0  0  0  0  0  0  0  0  0  0  0
  195.0080  175.8860  144.7940 C   0  0  0  0  0  0  0  0  0  0  0  0
  193.4180  175.2850  146.4470 C   0  0  2  0  0  3  0  0  0  0  0  0
  196.7620  176.1090  143.1870 N   0  0  0  0  0  2  0  0  0  0  0  0
  196.7440  176.3270  141.7740 C   0  0  0  0  0  0  0  0  0  0  0  0
  197.6430  175.6490  140.9630 O   0  0  0  0  0  0  0  0  0  0  0  0
  195.9520  177.1640  141.2630 O   0  0  0  0  0  1  0  0  0  0  0  0
  1  4  2  0  0  0  0
  1 10  1  0  0  0  0
  2  6  1  0  0  0  0
  2  8  1  0  0  0  0
  3  2  2  0  0  0  0
  4  7  1  0  0  0  0
  5  6  2  0  0  0  0
  7  9  2  0  0  0  0
  7  3  1  0  0  0  0
  9  5  1  0  0  0  0
 10 22  1  0  0  0  0
 10  9  1  0  0  0  0
 11  3  1  0  0  0  0
 12 11  1  0  0  0  0
 13 15  1  0  0  0  0
 14 16  1  0  0  0  0
 15 16  2  0  0  0  0
 15 12  1  0  0  0  0
 17 18  1  0  0  0  0
 17 13  2  0  0  0  0
 18 14  1  0  0  0  0
 19 17  1  0  0  0  0
 21 20  1  0  0  0  0
 21 18  1  0  0  0  0
 22 23  1  0  0  0  0
 24 30  1  0  0  0  0
 24 26  1  1  0  0  0
 25 30  1  0  0  0  0
 27 25  1  0  0  0  0
 28 29  2  0  0  0  0
 29 27  1  0  0  0  0
 29 24  1  0  0  0  0
 30 23  1  6  0  0  0
 31 28  1  0  0  0  0
 32 31  1  0  0  0  0
 33 32  2  0  0  0  0
 34 32  1  0  0  0  0
M  END
>  <MODEL>
9

>  <REMARK>
 VINA RESULT:      -6.9      2.605      3.988
  Name = 
  8 active torsions:
  status: ('A' for Active; 'I' for Inactive)
    1  A    between atoms: N_3  and  N_22
    2  A    between atoms: C_7  and  C_11
    3  A    between atoms: C_11  and  C_13
    4  A    between atoms: C_12  and  C_13
    5  A    between atoms: C_18  and  C_28
    6  A    between atoms: C_18  and  N_32
    7  A    between atoms: N_27  and  C_30
    8  A    between atoms: C_28  and  C_29
                            x       y       z     vdW  Elec       q    Type
                         _______ _______ _______ _____ _____    ______ ____

>  <TORSDO>
F 8

$$$$
