=
 OpenBabel11042417513D

 57 62  0  0  1  0  0  0  0  0999 V2000
  196.8880  175.4450  140.2780 S   0  0  0  0  0  1  0  0  0  0  0  0
  195.1050  175.1040  140.5080 C   0  0  1  0  0  0  0  0  0  0  0  0
  194.4290  175.0500  139.1560 C   0  0  0  0  0  3  0  0  0  0  0  0
  194.4610  173.9520  138.3990 C   0  0  0  0  0  3  0  0  0  0  0  0
  194.7540  174.0000  135.9770 C   0  0  0  0  0  1  0  0  0  0  0  0
  193.7350  173.8900  137.0990 C   0  0  1  0  0  3  0  0  0  0  0  0
  193.0160  172.6570  137.0320 O   0  0  0  0  0  0  0  0  0  0  0  0
  192.0470  171.9780  139.2850 C   0  0  1  0  0  3  0  0  0  0  0  0
  192.1720  170.6230  139.9130 C   0  0  1  0  0  3  0  0  0  0  0  0
  191.8190  168.4430  139.5650 C   0  0  0  0  0  3  0  0  0  0  0  0
  193.6400  170.6640  138.1580 N   0  0  0  0  0  0  0  0  0  0  0  0
  193.0650  168.6010  139.2710 N   0  0  0  0  0  0  0  0  0  0  0  0
  191.2020  169.7120  139.9250 C   0  0  0  0  0  2  0  0  0  0  0  0
  192.9300  171.7500  138.0960 C   0  0  0  0  0  0  0  0  0  0  0  0
  193.4270  170.0000  139.4380 C   0  0  2  0  0  3  0  0  0  0  0  0
  190.0470  173.4300  139.2670 C   0  0  0  0  0  2  0  0  0  0  0  0
  190.6420  172.3090  138.8550 C   0  0  0  0  0  3  0  0  0  0  0  0
  194.9090  173.8520  141.2540 N   0  0  0  0  0  2  0  0  0  0  0  0
  196.1730  173.2260  141.6330 C   0  0  0  0  0  2  0  0  0  0  0  0
  196.0990  171.7320  141.3880 C   0  0  0  0  0  2  0  0  0  0  0  0
  196.8140  170.9820  142.4970 C   0  0  0  0  0  2  0  0  0  0  0  0
  194.2570  168.9310  143.0190 C   0  0  0  0  0  1  0  0  0  0  0  0
  194.8310  171.0010  145.6440 N   0  0  0  0  0  2  0  0  0  0  0  0
  197.1510  171.2980  145.4430 O   0  0  0  0  0  0  0  0  0  0  0  0
  195.8790  170.6660  143.5660 N   0  0  0  0  0  0  0  0  0  0  0  0
  196.0430  171.0070  144.9240 C   0  0  0  0  0  0  0  0  0  0  0  0
  194.4640  170.4030  143.3430 C   0  0  2  0  0  3  0  0  0  0  0  0
  193.7700  170.7170  144.6850 C   0  0  2  0  0  3  0  0  0  0  0  0
  192.9030  171.9470  144.5180 C   0  0  0  0  0  2  0  0  0  0  0  0
  192.6080  172.1860  143.0510 C   0  0  0  0  0  2  0  0  0  0  0  0
  191.2860  172.9190  142.9000 C   0  0  0  0  0  2  0  0  0  0  0  0
  190.1180  171.9400  142.8970 C   0  0  0  0  0  2  0  0  0  0  0  0
  188.7990  172.6540  142.6400 C   0  0  0  0  0  2  0  0  0  0  0  0
  188.9850  174.1590  142.7250 C   0  0  0  0  0  2  0  0  0  0  0  0
  187.8530  174.8560  142.0030 C   0  0  0  0  0  1  0  0  0  0  0  0
  194.4780  176.2300  141.3390 C   0  0  0  0  0  2  0  0  0  0  0  0
  193.2450  175.7950  141.9880 N   0  0  0  0  0  2  0  0  0  0  0  0
  191.7390  176.6790  146.6640 C   0  0  2  0  0  3  0  0  0  0  0  0
  191.7230  176.4750  143.8120 C   0  0  2  0  0  3  0  0  0  0  0  0
  194.3810  176.0900  145.7530 C   0  0  0  0  0  2  0  0  0  0  0  0
  191.8590  176.5670  145.2680 C   0  0  0  0  0  0  0  0  0  0  0  0
  192.9950  176.3940  146.1020 C   0  0  0  0  0  0  0  0  0  0  0  0
  193.2170  176.3920  143.3110 C   0  0  1  0  0  3  0  0  0  0  0  0
  194.2720  175.6450  144.2480 C   0  0  0  0  0  2  0  0  0  0  0  0
  189.8860  175.7890  147.7940 C   0  0  0  0  0  2  0  0  0  0  0  0
  191.2180  175.4620  147.2990 N   0  0  1  0  0  0  0  0  0  0  0  0
  188.8520  175.1730  146.8810 C   0  0  2  0  0  3  0  0  0  0  0  0
  189.5890  174.1270  146.0890 C   0  0  0  0  0  2  0  0  0  0  0  0
  191.0610  174.3690  146.3370 C   0  0  0  0  0  2  0  0  0  0  0  0
  188.2710  176.2460  145.9620 C   0  0  0  0  0  2  0  0  0  0  0  0
  186.9110  176.7350  146.4550 C   0  0  0  0  0  2  0  0  0  0  0  0
  186.4440  177.9410  145.6610 C   0  0  0  0  0  2  0  0  0  0  0  0
  185.3750  178.6600  146.4230 C   0  0  0  0  0  3  0  0  0  0  0  0
  184.1120  178.6360  145.9960 C   0  0  0  0  0  2  0  0  0  0  0  0
  191.2960  178.8430  143.8060 O   0  0  0  0  0  1  0  0  0  0  0  0
  190.1340  177.6180  142.2510 O   0  0  0  0  0  0  0  0  0  0  0  0
  191.0570  177.7150  143.2870 C   0  0  0  0  0  0  0  0  0  0  0  0
  2  1  1  6  0  0  0
  2 18  1  0  0  0  0
  2 36  1  0  0  0  0
  3  2  1  0  0  0  0
  4  3  2  0  0  0  0
  6  5  1  6  0  0  0
  6  4  1  0  0  0  0
  7  6  1  0  0  0  0
  7 14  1  0  0  0  0
  8 17  1  6  0  0  0
  8  9  1  0  0  0  0
  9 13  1  6  0  0  0
 10 13  1  0  0  0  0
 12 15  1  0  0  0  0
 12 10  2  0  0  0  0
 14 11  2  0  0  0  0
 14  8  1  0  0  0  0
 15 11  1  6  0  0  0
 15  9  1  0  0  0  0
 17 16  2  0  0  0  0
 18 19  1  0  0  0  0
 20 19  1  0  0  0  0
 20 21  1  0  0  0  0
 21 25  1  0  0  0  0
 25 26  1  0  0  0  0
 26 24  2  0  0  0  0
 26 23  1  0  0  0  0
 27 22  1  1  0  0  0
 27 25  1  0  0  0  0
 27 28  1  0  0  0  0
 28 29  1  6  0  0  0
 28 23  1  0  0  0  0
 30 29  1  0  0  0  0
 31 30  1  0  0  0  0
 32 31  1  0  0  0  0
 33 34  1  0  0  0  0
 33 32  1  0  0  0  0
 35 34  1  0  0  0  0
 36 37  1  0  0  0  0
 38 41  1  6  0  0  0
 38 46  1  0  0  0  0
 39 57  1  6  0  0  0
 39 41  1  0  0  0  0
 40 42  1  0  0  0  0
 41 42  2  0  0  0  0
 42 38  1  0  0  0  0
 43 37  1  6  0  0  0
 43 39  1  0  0  0  0
 43 44  1  0  0  0  0
 44 40  1  0  0  0  0
 46 49  1  6  0  0  0
 46 45  1  0  0  0  0
 47 50  1  6  0  0  0
 47 45  1  0  0  0  0
 48 49  1  0  0  0  0
 48 47  1  0  0  0  0
 50 51  1  0  0  0  0
 52 53  1  0  0  0  0
 52 51  1  0  0  0  0
 54 53  2  0  0  0  0
 56 57  2  0  0  0  0
 57 55  1  0  0  0  0
M  END
>  <MODEL>
1

>  <REMARK>
 VINA RESULT:      -5.1      0.000      0.000
  Name = 
  25 active torsions:
  status: ('A' for Active; 'I' for Inactive)
    1  A    between atoms: C_1  and  N_15
    2  A    between atoms: C_1  and  C_54
    3  A    between atoms: C_2  and  N_34
    4  A    between atoms: C_3  and  C_14
    5  A    between atoms: C_3  and  C_50
    6  A    between atoms: C_4  and  C_56
    7  A    between atoms: C_8  and  C_26
    8  A    between atoms: C_8  and  C_46
    9  A    between atoms: C_12  and  C_14
   10  A    between atoms: N_15  and  C_49
   11  A    between atoms: C_16  and  C_55
   12  A    between atoms: N_21  and  C_32
   13  A    between atoms: C_24  and  C_33
   14  A    between atoms: C_24  and  C_50
   15  A    between atoms: C_30  and  C_36
   16  A    between atoms: C_30  and  C_46
   17  A    between atoms: C_31  and  O_44
   18  A    between atoms: C_31  and  C_52
   19  A    between atoms: C_32  and  C_54
   20  A    between atoms: C_33  and  C_41
   21  A    between atoms: C_38  and  N_43
   22  A    between atoms: C_38  and  C_49
   23  A    between atoms: C_39  and  O_44
   24  A    between atoms: C_42  and  N_43
   25  A    between atoms: C_47  and  C_49
                            x       y       z     vdW  Elec       q    Type
                         _______ _______ _______ _____ _____    ______ ____

>  <TORSDO>
F 25

$$$$
=
 OpenBabel11042417513D

 57 62  0  0  1  0  0  0  0  0999 V2000
  191.4250  176.3790  146.8330 S   0  0  0  0  0  1  0  0  0  0  0  0
  192.1140  175.8530  145.2200 C   0  0  1  0  0  0  0  0  0  0  0  0
  191.8370  174.3800  145.0170 C   0  0  0  0  0  3  0  0  0  0  0  0
  191.2100  173.9270  143.9300 C   0  0  0  0  0  3  0  0  0  0  0  0
  189.5080  172.1980  143.6720 C   0  0  0  0  0  1  0  0  0  0  0  0
  191.0030  172.4670  143.7110 C   0  0  1  0  0  3  0  0  0  0  0  0
  191.6330  172.0920  142.4840 O   0  0  0  0  0  0  0  0  0  0  0  0
  191.3200  171.5430  140.0190 C   0  0  1  0  0  3  0  0  0  0  0  0
  190.3790  172.2420  139.0850 C   0  0  1  0  0  3  0  0  0  0  0  0
  188.2440  172.8400  138.8010 C   0  0  0  0  0  3  0  0  0  0  0  0
  190.4850  173.5220  140.9780 N   0  0  0  0  0  0  0  0  0  0  0  0
  188.7930  173.8960  139.2980 N   0  0  0  0  0  0  0  0  0  0  0  0
  189.2040  171.7500  138.7010 C   0  0  0  0  0  2  0  0  0  0  0  0
  191.1250  172.4180  141.2200 C   0  0  0  0  0  0  0  0  0  0  0  0
  190.2020  173.6330  139.5530 C   0  0  2  0  0  3  0  0  0  0  0  0
  191.6100  169.0970  139.8200 C   0  0  0  0  0  2  0  0  0  0  0  0
  190.9180  170.1220  140.3180 C   0  0  0  0  0  3  0  0  0  0  0  0
  191.5480  176.6580  144.1280 N   0  0  0  0  0  2  0  0  0  0  0  0
  190.4070  177.4610  144.5600 C   0  0  0  0  0  2  0  0  0  0  0  0
  189.7880  178.1580  143.3660 C   0  0  0  0  0  2  0  0  0  0  0  0
  189.5060  177.1580  142.2610 C   0  0  0  0  0  2  0  0  0  0  0  0
  187.0730  177.4570  140.0220 C   0  0  0  0  0  1  0  0  0  0  0  0
  185.9540  176.3730  143.0350 N   0  0  0  0  0  2  0  0  0  0  0  0
  187.8460  175.2090  143.7910 O   0  0  0  0  0  0  0  0  0  0  0  0
  188.0760  176.9040  142.1730 N   0  0  0  0  0  0  0  0  0  0  0  0
  187.3340  176.0910  143.0540 C   0  0  0  0  0  0  0  0  0  0  0  0
  187.1420  177.7980  141.5030 C   0  0  2  0  0  3  0  0  0  0  0  0
  185.7660  177.5110  142.1420 C   0  0  2  0  0  3  0  0  0  0  0  0
  185.3340  178.7160  142.9500 C   0  0  0  0  0  2  0  0  0  0  0  0
  185.7980  178.5780  144.3860 C   0  0  0  0  0  2  0  0  0  0  0  0
  184.8450  179.3130  145.3130 C   0  0  0  0  0  2  0  0  0  0  0  0
  184.2960  178.3750  146.3810 C   0  0  0  0  0  2  0  0  0  0  0  0
  185.0500  177.0540  146.3970 C   0  0  0  0  0  2  0  0  0  0  0  0
  186.0690  177.0380  147.5220 C   0  0  0  0  0  2  0  0  0  0  0  0
  187.3950  176.5220  147.0060 C   0  0  0  0  0  1  0  0  0  0  0  0
  193.6290  176.0850  145.2180 C   0  0  0  0  0  2  0  0  0  0  0  0
  194.3640  174.8270  145.3070 N   0  0  0  0  0  2  0  0  0  0  0  0
  196.7730  174.8160  140.9350 C   0  0  2  0  0  3  0  0  0  0  0  0
  195.1870  173.9460  143.1500 C   0  0  2  0  0  3  0  0  0  0  0  0
  196.9240  176.7650  143.0170 C   0  0  0  0  0  2  0  0  0  0  0  0
  196.0390  174.4900  142.0890 C   0  0  0  0  0  0  0  0  0  0  0  0
  196.7770  175.7010  142.0270 C   0  0  0  0  0  0  0  0  0  0  0  0
  195.4720  174.9030  144.3720 C   0  0  1  0  0  3  0  0  0  0  0  0
  195.7880  176.4370  144.0540 C   0  0  0  0  0  2  0  0  0  0  0  0
  196.0180  174.4600  138.7430 C   0  0  0  0  0  2  0  0  0  0  0  0
  195.9470  175.3880  139.8660 N   0  0  1  0  0  0  0  0  0  0  0  0
  194.7270  173.6790  138.6610 C   0  0  2  0  0  3  0  0  0  0  0  0
  193.7350  174.4570  139.4830 C   0  0  0  0  0  2  0  0  0  0  0  0
  194.5380  175.4810  140.2550 C   0  0  0  0  0  2  0  0  0  0  0  0
  194.9340  172.2790  139.2360 C   0  0  0  0  0  2  0  0  0  0  0  0
  194.3380  171.2040  138.3310 C   0  0  0  0  0  2  0  0  0  0  0  0
  193.6860  171.8210  137.1060 C   0  0  0  0  0  2  0  0  0  0  0  0
  192.7550  170.8300  136.4810 C   0  0  0  0  0  3  0  0  0  0  0  0
  193.0990  169.5450  136.3940 C   0  0  0  0  0  2  0  0  0  0  0  0
  194.7660  171.6880  143.8640 O   0  0  0  0  0  1  0  0  0  0  0  0
  196.9520  172.1850  143.3700 O   0  0  0  0  0  0  0  0  0  0  0  0
  195.6110  172.5410  143.4680 C   0  0  0  0  0  0  0  0  0  0  0  0
  2  1  1  1  0  0  0
  3  2  1  0  0  0  0
  4  3  2  0  0  0  0
  6  5  1  6  0  0  0
  6  4  1  0  0  0  0
  7  6  1  0  0  0  0
  8 17  1  1  0  0  0
  8 14  1  0  0  0  0
  9 13  1  1  0  0  0
  9 15  1  0  0  0  0
  9  8  1  0  0  0  0
 10 12  2  0  0  0  0
 11 14  2  0  0  0  0
 13 10  1  0  0  0  0
 14  7  1  0  0  0  0
 15 12  1  1  0  0  0
 15 11  1  0  0  0  0
 16 17  2  0  0  0  0
 18 19  1  0  0  0  0
 18  2  1  0  0  0  0
 20 19  1  0  0  0  0
 21 20  1  0  0  0  0
 23 26  1  0  0  0  0
 25 21  1  0  0  0  0
 25 26  1  0  0  0  0
 26 24  2  0  0  0  0
 27 22  1  6  0  0  0
 27 28  1  0  0  0  0
 27 25  1  0  0  0  0
 28 29  1  1  0  0  0
 28 23  1  0  0  0  0
 29 30  1  0  0  0  0
 30 31  1  0  0  0  0
 31 32  1  0  0  0  0
 32 33  1  0  0  0  0
 33 34  1  0  0  0  0
 35 34  1  0  0  0  0
 36  2  1  0  0  0  0
 36 37  1  0  0  0  0
 38 42  1  1  0  0  0
 38 41  1  0  0  0  0
 39 57  1  1  0  0  0
 39 43  1  0  0  0  0
 40 44  1  0  0  0  0
 41 39  1  0  0  0  0
 42 41  2  0  0  0  0
 42 40  1  0  0  0  0
 43 37  1  1  0  0  0
 44 43  1  0  0  0  0
 46 45  1  6  0  0  0
 46 49  1  0  0  0  0
 46 38  1  0  0  0  0
 47 45  1  0  0  0  0
 47 50  1  1  0  0  0
 47 48  1  0  0  0  0
 48 49  1  0  0  0  0
 51 50  1  0  0  0  0
 52 51  1  0  0  0  0
 53 52  1  0  0  0  0
 54 53  2  0  0  0  0
 56 57  2  0  0  0  0
 57 55  1  0  0  0  0
M  END
>  <MODEL>
2

>  <REMARK>
 VINA RESULT:      -5.0      2.698      8.143
  Name = 
  25 active torsions:
  status: ('A' for Active; 'I' for Inactive)
    1  A    between atoms: C_1  and  N_15
    2  A    between atoms: C_1  and  C_54
    3  A    between atoms: C_2  and  N_34
    4  A    between atoms: C_3  and  C_14
    5  A    between atoms: C_3  and  C_50
    6  A    between atoms: C_4  and  C_56
    7  A    between atoms: C_8  and  C_26
    8  A    between atoms: C_8  and  C_46
    9  A    between atoms: C_12  and  C_14
   10  A    between atoms: N_15  and  C_49
   11  A    between atoms: C_16  and  C_55
   12  A    between atoms: N_21  and  C_32
   13  A    between atoms: C_24  and  C_33
   14  A    between atoms: C_24  and  C_50
   15  A    between atoms: C_30  and  C_36
   16  A    between atoms: C_30  and  C_46
   17  A    between atoms: C_31  and  O_44
   18  A    between atoms: C_31  and  C_52
   19  A    between atoms: C_32  and  C_54
   20  A    between atoms: C_33  and  C_41
   21  A    between atoms: C_38  and  N_43
   22  A    between atoms: C_38  and  C_49
   23  A    between atoms: C_39  and  O_44
   24  A    between atoms: C_42  and  N_43
   25  A    between atoms: C_47  and  C_49
                            x       y       z     vdW  Elec       q    Type
                         _______ _______ _______ _____ _____    ______ ____

>  <TORSDO>
F 25

$$$$
=
 OpenBabel11042417513D

 57 62  0  0  1  0  0  0  0  0999 V2000
  193.4780  171.9840  137.9790 S   0  0  0  0  0  1  0  0  0  0  0  0
  193.8700  172.2920  139.7400 C   0  0  1  0  0  0  0  0  0  0  0  0
  194.6550  171.1210  140.2880 C   0  0  0  0  0  3  0  0  0  0  0  0
  195.9880  171.1370  140.3490 C   0  0  0  0  0  3  0  0  0  0  0  0
  197.6480  169.4100  139.8840 C   0  0  0  0  0  1  0  0  0  0  0  0
  196.7450  170.0040  140.9520 C   0  0  1  0  0  3  0  0  0  0  0  0
  197.5020  170.4960  142.0600 O   0  0  0  0  0  0  0  0  0  0  0  0
  195.7880  171.2520  143.7830 C   0  0  1  0  0  3  0  0  0  0  0  0
  195.9320  172.4350  144.6910 C   0  0  1  0  0  3  0  0  0  0  0  0
  197.2700  173.3800  146.2120 C   0  0  0  0  0  3  0  0  0  0  0  0
  197.5880  172.6150  143.1230 N   0  0  0  0  0  0  0  0  0  0  0  0
  197.5850  173.9790  145.1140 N   0  0  0  0  0  0  0  0  0  0  0  0
  196.2630  172.3540  145.9770 C   0  0  0  0  0  2  0  0  0  0  0  0
  197.0240  171.4570  142.9610 C   0  0  0  0  0  0  0  0  0  0  0  0
  196.7890  173.4380  144.0230 C   0  0  2  0  0  3  0  0  0  0  0  0
  194.8070  169.0860  144.4570 C   0  0  0  0  0  2  0  0  0  0  0  0
  195.8360  169.9330  144.5080 C   0  0  0  0  0  3  0  0  0  0  0  0
  194.6130  173.5520  139.8920 N   0  0  0  0  0  2  0  0  0  0  0  0
  193.8520  174.5650  140.6180 C   0  0  0  0  0  2  0  0  0  0  0  0
  194.2480  174.5540  142.0800 C   0  0  0  0  0  2  0  0  0  0  0  0
  194.5180  175.9670  142.5620 C   0  0  0  0  0  2  0  0  0  0  0  0
  194.8460  176.0410  145.8650 C   0  0  0  0  0  1  0  0  0  0  0  0
  191.6790  176.7060  144.8490 N   0  0  0  0  0  2  0  0  0  0  0  0
  192.1080  177.7110  142.7720 O   0  0  0  0  0  0  0  0  0  0  0  0
  193.6970  176.2610  143.7270 N   0  0  0  0  0  0  0  0  0  0  0  0
  192.4700  176.9550  143.7100 C   0  0  0  0  0  0  0  0  0  0  0  0
  193.7520  175.4910  144.9620 C   0  0  2  0  0  3  0  0  0  0  0  0
  192.3870  175.7120  145.6480 C   0  0  2  0  0  3  0  0  0  0  0  0
  191.6100  174.4130  145.6340 C   0  0  0  0  0  2  0  0  0  0  0  0
  190.1290  174.6890  145.4700 C   0  0  0  0  0  2  0  0  0  0  0  0
  189.3710  174.2080  146.6950 C   0  0  0  0  0  2  0  0  0  0  0  0
  188.4760  175.3100  147.2480 C   0  0  0  0  0  2  0  0  0  0  0  0
  188.6510  176.6060  146.4710 C   0  0  0  0  0  2  0  0  0  0  0  0
  187.4690  177.5290  146.7030 C   0  0  0  0  0  2  0  0  0  0  0  0
  186.1810  176.7350  146.6550 C   0  0  0  0  0  1  0  0  0  0  0  0
  192.5640  172.4370  140.5310 C   0  0  0  0  0  2  0  0  0  0  0  0
  191.6030  171.4000  140.1730 N   0  0  0  0  0  2  0  0  0  0  0  0
  188.0710  174.6660  141.5050 C   0  0  2  0  0  3  0  0  0  0  0  0
  190.2840  172.8630  141.6660 C   0  0  2  0  0  3  0  0  0  0  0  0
  188.3470  173.2990  139.0130 C   0  0  0  0  0  2  0  0  0  0  0  0
  189.1250  173.7370  141.4670 C   0  0  0  0  0  0  0  0  0  0  0  0
  188.3000  173.9320  140.3290 C   0  0  0  0  0  0  0  0  0  0  0  0
  190.2750  171.9480  140.3800 C   0  0  1  0  0  3  0  0  0  0  0  0
  189.7530  172.5940  139.0150 C   0  0  0  0  0  2  0  0  0  0  0  0
  187.3340  176.8020  140.8730 C   0  0  0  0  0  2  0  0  0  0  0  0
  188.5120  176.0500  141.2910 N   0  0  1  0  0  0  0  0  0  0  0  0
  186.8490  177.6460  142.0280 C   0  0  2  0  0  3  0  0  0  0  0  0
  188.0030  177.7080  142.9920 C   0  0  0  0  0  2  0  0  0  0  0  0
  188.9970  176.6670  142.5270 C   0  0  0  0  0  2  0  0  0  0  0  0
  185.6320  176.9870  142.6740 C   0  0  0  0  0  2  0  0  0  0  0  0
  184.3880  177.8640  142.5590 C   0  0  0  0  0  2  0  0  0  0  0  0
  184.0150  178.4630  143.9030 C   0  0  0  0  0  2  0  0  0  0  0  0
  184.6930  179.7870  144.0690 C   0  0  0  0  0  3  0  0  0  0  0  0
  185.7510  179.9060  144.8710 C   0  0  0  0  0  2  0  0  0  0  0  0
  188.9280  171.8420  143.3720 O   0  0  0  0  0  0  0  0  0  0  0  0
  191.1930  171.5170  143.5710 O   0  0  0  0  0  1  0  0  0  0  0  0
  190.0880  172.0370  142.9040 C   0  0  0  0  0  0  0  0  0  0  0  0
  2  1  1  6  0  0  0
  2 18  1  0  0  0  0
  2  3  1  0  0  0  0
  2 36  1  0  0  0  0
  3  4  2  0  0  0  0
  4  6  1  0  0  0  0
  6  5  1  6  0  0  0
  6  7  1  0  0  0  0
  7 14  1  0  0  0  0
  8 17  1  1  0  0  0
  8  9  1  0  0  0  0
  9 13  1  1  0  0  0
 12 10  2  0  0  0  0
 13 10  1  0  0  0  0
 14 11  2  0  0  0  0
 14  8  1  0  0  0  0
 15 11  1  6  0  0  0
 15  9  1  0  0  0  0
 15 12  1  0  0  0  0
 16 17  2  0  0  0  0
 18 19  1  0  0  0  0
 19 20  1  0  0  0  0
 20 21  1  0  0  0  0
 21 25  1  0  0  0  0
 23 28  1  0  0  0  0
 24 26  2  0  0  0  0
 25 27  1  0  0  0  0
 26 25  1  0  0  0  0
 26 23  1  0  0  0  0
 27 28  1  0  0  0  0
 27 22  1  1  0  0  0
 28 29  1  6  0  0  0
 30 29  1  0  0  0  0
 30 31  1  0  0  0  0
 31 32  1  0  0  0  0
 33 34  1  0  0  0  0
 33 32  1  0  0  0  0
 35 34  1  0  0  0  0
 37 36  1  0  0  0  0
 38 42  1  6  0  0  0
 39 57  1  1  0  0  0
 40 44  1  0  0  0  0
 40 42  1  0  0  0  0
 41 38  1  0  0  0  0
 41 39  1  0  0  0  0
 42 41  2  0  0  0  0
 43 37  1  6  0  0  0
 43 39  1  0  0  0  0
 44 43  1  0  0  0  0
 45 47  1  0  0  0  0
 46 45  1  1  0  0  0
 46 38  1  0  0  0  0
 46 49  1  0  0  0  0
 47 50  1  1  0  0  0
 47 48  1  0  0  0  0
 49 48  1  0  0  0  0
 51 50  1  0  0  0  0
 51 52  1  0  0  0  0
 52 53  1  0  0  0  0
 53 54  2  0  0  0  0
 57 55  2  0  0  0  0
 57 56  1  0  0  0  0
M  END
>  <MODEL>
3

>  <REMARK>
 VINA RESULT:      -5.0      2.408      6.049
  Name = 
  25 active torsions:
  status: ('A' for Active; 'I' for Inactive)
    1  A    between atoms: C_1  and  N_15
    2  A    between atoms: C_1  and  C_54
    3  A    between atoms: C_2  and  N_34
    4  A    between atoms: C_3  and  C_14
    5  A    between atoms: C_3  and  C_50
    6  A    between atoms: C_4  and  C_56
    7  A    between atoms: C_8  and  C_26
    8  A    between atoms: C_8  and  C_46
    9  A    between atoms: C_12  and  C_14
   10  A    between atoms: N_15  and  C_49
   11  A    between atoms: C_16  and  C_55
   12  A    between atoms: N_21  and  C_32
   13  A    between atoms: C_24  and  C_33
   14  A    between atoms: C_24  and  C_50
   15  A    between atoms: C_30  and  C_36
   16  A    between atoms: C_30  and  C_46
   17  A    between atoms: C_31  and  O_44
   18  A    between atoms: C_31  and  C_52
   19  A    between atoms: C_32  and  C_54
   20  A    between atoms: C_33  and  C_41
   21  A    between atoms: C_38  and  N_43
   22  A    between atoms: C_38  and  C_49
   23  A    between atoms: C_39  and  O_44
   24  A    between atoms: C_42  and  N_43
   25  A    between atoms: C_47  and  C_49
                            x       y       z     vdW  Elec       q    Type
                         _______ _______ _______ _____ _____    ______ ____

>  <TORSDO>
F 25

$$$$
=
 OpenBabel11042417513D

 57 62  0  0  1  0  0  0  0  0999 V2000
  185.3160  180.2150  143.8870 S   0  0  0  0  0  1  0  0  0  0  0  0
  185.6380  178.5710  143.1510 C   0  0  1  0  0  0  0  0  0  0  0  0
  185.9520  177.5840  144.2540 C   0  0  0  0  0  3  0  0  0  0  0  0
  186.6090  177.9490  145.3560 C   0  0  0  0  0  3  0  0  0  0  0  0
  185.5220  176.3650  146.8600 C   0  0  0  0  0  1  0  0  0  0  0  0
  186.8530  176.9820  146.4640 C   0  0  1  0  0  3  0  0  0  0  0  0
  187.7750  175.9890  146.0130 O   0  0  0  0  0  0  0  0  0  0  0  0
  189.6920  174.4430  146.6530 C   0  0  1  0  0  3  0  0  0  0  0  0
  191.0560  174.8840  147.0910 C   0  0  1  0  0  3  0  0  0  0  0  0
  192.8090  176.1450  146.5100 C   0  0  0  0  0  3  0  0  0  0  0  0
  189.7290  176.7470  147.1250 N   0  0  0  0  0  0  0  0  0  0  0  0
  192.1310  176.9090  147.2960 N   0  0  0  0  0  0  0  0  0  0  0  0
  192.1330  174.8700  146.3090 C   0  0  0  0  0  2  0  0  0  0  0  0
  189.0410  175.7910  146.5800 C   0  0  0  0  0  0  0  0  0  0  0  0
  190.9360  176.2070  147.7400 C   0  0  2  0  0  3  0  0  0  0  0  0
  189.6590  172.4390  145.2070 C   0  0  0  0  0  2  0  0  0  0  0  0
  189.6870  173.7690  145.3060 C   0  0  0  0  0  3  0  0  0  0  0  0
  184.4870  178.1280  142.3500 N   0  0  0  0  0  2  0  0  0  0  0  0
  183.2110  178.5250  142.9390 C   0  0  0  0  0  2  0  0  0  0  0  0
  182.2740  179.0110  141.8520 C   0  0  0  0  0  2  0  0  0  0  0  0
  181.4070  177.8690  141.3570 C   0  0  0  0  0  2  0  0  0  0  0  0
  178.8220  177.6240  139.2880 C   0  0  0  0  0  1  0  0  0  0  0  0
  178.1240  179.4780  142.0410 N   0  0  0  0  0  2  0  0  0  0  0  0
  179.5380  178.4510  143.6070 O   0  0  0  0  0  0  0  0  0  0  0  0
  180.0140  178.2870  141.3080 N   0  0  0  0  0  0  0  0  0  0  0  0
  179.2480  178.7130  142.4110 C   0  0  0  0  0  0  0  0  0  0  0  0
  179.3680  178.7870  140.1020 C   0  0  2  0  0  3  0  0  0  0  0  0
  178.1840  179.6470  140.5930 C   0  0  2  0  0  3  0  0  0  0  0  0
  178.4590  181.1000  140.2700 C   0  0  0  0  0  2  0  0  0  0  0  0
  179.1690  181.2150  138.9360 C   0  0  0  0  0  2  0  0  0  0  0  0
  178.2090  181.7380  137.8810 C   0  0  0  0  0  2  0  0  0  0  0  0
  178.6200  183.1300  137.4150 C   0  0  0  0  0  2  0  0  0  0  0  0
  179.6030  183.7690  138.3850 C   0  0  0  0  0  2  0  0  0  0  0  0
  180.5650  184.6800  137.6430 C   0  0  0  0  0  2  0  0  0  0  0  0
  181.3410  183.8810  136.6190 C   0  0  0  0  0  1  0  0  0  0  0  0
  186.8400  178.6670  142.2050 C   0  0  0  0  0  2  0  0  0  0  0  0
  187.1760  177.3680  141.6310 N   0  0  0  0  0  2  0  0  0  0  0  0
  191.4640  175.0030  142.5980 C   0  0  2  0  0  3  0  0  0  0  0  0
  188.7900  175.4980  141.7160 C   0  0  2  0  0  3  0  0  0  0  0  0
  190.6570  177.6000  143.4700 C   0  0  0  0  0  2  0  0  0  0  0  0
  190.1540  175.3560  142.2330 C   0  0  0  0  0  0  0  0  0  0  0  0
  190.9580  176.2580  142.9760 C   0  0  0  0  0  0  0  0  0  0  0  0
  188.2760  176.8210  142.4050 C   0  0  1  0  0  3  0  0  0  0  0  0
  189.3460  177.9740  142.6860 C   0  0  0  0  0  2  0  0  0  0  0  0
  193.5770  175.8920  142.0990 C   0  0  0  0  0  2  0  0  0  0  0  0
  192.4380  175.1930  141.5160 N   0  0  1  0  0  0  0  0  0  0  0  0
  194.7120  174.9150  142.2950 C   0  0  2  0  0  3  0  0  0  0  0  0
  194.3770  173.7320  141.4280 C   0  0  0  0  0  2  0  0  0  0  0  0
  192.9380  173.9170  141.0000 C   0  0  0  0  0  2  0  0  0  0  0  0
  194.7960  174.5090  143.7660 C   0  0  0  0  0  2  0  0  0  0  0  0
  195.5850  173.2160  143.9500 C   0  0  0  0  0  2  0  0  0  0  0  0
  195.6010  172.7880  145.4060 C   0  0  0  0  0  2  0  0  0  0  0  0
  194.7760  171.5500  145.5740 C   0  0  0  0  0  3  0  0  0  0  0  0
  195.0830  170.4410  144.9010 C   0  0  0  0  0  2  0  0  0  0  0  0
  186.8490  174.4930  142.7230 O   0  0  0  0  0  1  0  0  0  0  0  0
  188.4400  173.0300  141.9480 O   0  0  0  0  0  0  0  0  0  0  0  0
  187.9620  174.3220  142.1460 C   0  0  0  0  0  0  0  0  0  0  0  0
  2  1  1  1  0  0  0
  2  3  1  0  0  0  0
  3  4  2  0  0  0  0
  4  6  1  0  0  0  0
  6  5  1  6  0  0  0
  7  6  1  0  0  0  0
  7 14  1  0  0  0  0
  8 17  1  6  0  0  0
  8  9  1  0  0  0  0
  9 13  1  6  0  0  0
  9 15  1  0  0  0  0
 10 12  2  0  0  0  0
 12 15  1  0  0  0  0
 13 10  1  0  0  0  0
 14  8  1  0  0  0  0
 14 11  2  0  0  0  0
 15 11  1  6  0  0  0
 16 17  2  0  0  0  0
 18 19  1  0  0  0  0
 18  2  1  0  0  0  0
 20 19  1  0  0  0  0
 21 20  1  0  0  0  0
 23 26  1  0  0  0  0
 25 21  1  0  0  0  0
 25 26  1  0  0  0  0
 26 24  2  0  0  0  0
 27 22  1  6  0  0  0
 27 28  1  0  0  0  0
 27 25  1  0  0  0  0
 28 29  1  1  0  0  0
 28 23  1  0  0  0  0
 30 29  1  0  0  0  0
 31 30  1  0  0  0  0
 32 31  1  0  0  0  0
 32 33  1  0  0  0  0
 34 33  1  0  0  0  0
 35 34  1  0  0  0  0
 36  2  1  0  0  0  0
 37 36  1  0  0  0  0
 38 41  1  6  0  0  0
 38 42  1  0  0  0  0
 39 57  1  1  0  0  0
 39 41  1  0  0  0  0
 39 43  1  0  0  0  0
 41 42  2  0  0  0  0
 42 40  1  0  0  0  0
 43 37  1  6  0  0  0
 43 44  1  0  0  0  0
 44 40  1  0  0  0  0
 45 47  1  0  0  0  0
 46 49  1  1  0  0  0
 46 45  1  0  0  0  0
 46 38  1  0  0  0  0
 47 50  1  1  0  0  0
 48 47  1  0  0  0  0
 49 48  1  0  0  0  0
 50 51  1  0  0  0  0
 51 52  1  0  0  0  0
 52 53  1  0  0  0  0
 54 53  2  0  0  0  0
 56 57  2  0  0  0  0
 57 55  1  0  0  0  0
M  END
>  <MODEL>
4

>  <REMARK>
 VINA RESULT:      -4.8      5.874     11.809
  Name = 
  25 active torsions:
  status: ('A' for Active; 'I' for Inactive)
    1  A    between atoms: C_1  and  N_15
    2  A    between atoms: C_1  and  C_54
    3  A    between atoms: C_2  and  N_34
    4  A    between atoms: C_3  and  C_14
    5  A    between atoms: C_3  and  C_50
    6  A    between atoms: C_4  and  C_56
    7  A    between atoms: C_8  and  C_26
    8  A    between atoms: C_8  and  C_46
    9  A    between atoms: C_12  and  C_14
   10  A    between atoms: N_15  and  C_49
   11  A    between atoms: C_16  and  C_55
   12  A    between atoms: N_21  and  C_32
   13  A    between atoms: C_24  and  C_33
   14  A    between atoms: C_24  and  C_50
   15  A    between atoms: C_30  and  C_36
   16  A    between atoms: C_30  and  C_46
   17  A    between atoms: C_31  and  O_44
   18  A    between atoms: C_31  and  C_52
   19  A    between atoms: C_32  and  C_54
   20  A    between atoms: C_33  and  C_41
   21  A    between atoms: C_38  and  N_43
   22  A    between atoms: C_38  and  C_49
   23  A    between atoms: C_39  and  O_44
   24  A    between atoms: C_42  and  N_43
   25  A    between atoms: C_47  and  C_49
                            x       y       z     vdW  Elec       q    Type
                         _______ _______ _______ _____ _____    ______ ____

>  <TORSDO>
F 25

$$$$
=
 OpenBabel11042417513D

 57 62  0  0  1  0  0  0  0  0999 V2000
  189.4900  177.9560  142.8470 S   0  0  0  0  0  1  0  0  0  0  0  0
  190.1600  176.8860  144.1730 C   0  0  1  0  0  0  0  0  0  0  0  0
  191.6490  177.1230  144.3000 C   0  0  0  0  0  3  0  0  0  0  0  0
  192.3760  176.5230  145.2440 C   0  0  0  0  0  3  0  0  0  0  0  0
  194.3660  175.9940  146.5520 C   0  0  0  0  0  1  0  0  0  0  0  0
  193.8530  176.7140  145.3160 C   0  0  1  0  0  3  0  0  0  0  0  0
  194.4430  176.1920  144.1250 O   0  0  0  0  0  0  0  0  0  0  0  0
  194.1030  174.3240  142.4290 C   0  0  1  0  0  3  0  0  0  0  0  0
  194.5300  172.8990  142.6080 C   0  0  1  0  0  3  0  0  0  0  0  0
  196.2840  171.5950  143.0800 C   0  0  0  0  0  3  0  0  0  0  0  0
  194.7230  173.8960  144.6580 N   0  0  0  0  0  0  0  0  0  0  0  0
  195.6900  171.7300  144.2160 N   0  0  0  0  0  0  0  0  0  0  0  0
  195.6110  172.3660  142.0440 C   0  0  0  0  0  2  0  0  0  0  0  0
  194.4530  174.8300  143.7960 C   0  0  0  0  0  0  0  0  0  0  0  0
  194.5240  172.5850  144.0530 C   0  0  2  0  0  3  0  0  0  0  0  0
  194.3640  175.2710  140.1620 C   0  0  0  0  0  2  0  0  0  0  0  0
  194.8870  175.0530  141.3690 C   0  0  0  0  0  3  0  0  0  0  0  0
  189.4670  177.1430  145.4440 N   0  0  0  0  0  2  0  0  0  0  0  0
  188.2530  176.3450  145.5880 C   0  0  0  0  0  2  0  0  0  0  0  0
  187.0790  177.2500  145.9040 C   0  0  0  0  0  2  0  0  0  0  0  0
  185.8230  176.7390  145.2230 C   0  0  0  0  0  2  0  0  0  0  0  0
  185.4300  179.8490  144.1300 C   0  0  0  0  0  1  0  0  0  0  0  0
  185.2010  177.5500  141.6460 N   0  0  0  0  0  2  0  0  0  0  0  0
  186.6330  175.8870  142.4820 O   0  0  0  0  0  0  0  0  0  0  0  0
  185.6310  177.4260  143.9550 N   0  0  0  0  0  0  0  0  0  0  0  0
  185.8840  176.8790  142.6810 C   0  0  0  0  0  0  0  0  0  0  0  0
  184.7200  178.5500  143.7810 C   0  0  2  0  0  3  0  0  0  0  0  0
  184.3680  178.5660  142.2780 C   0  0  2  0  0  3  0  0  0  0  0  0
  182.9100  178.1940  142.1070 C   0  0  0  0  0  2  0  0  0  0  0  0
  182.5110  178.2920  140.6490 C   0  0  0  0  0  2  0  0  0  0  0  0
  181.0000  178.2030  140.5170 C   0  0  0  0  0  2  0  0  0  0  0  0
  180.3270  178.3360  141.8770 C   0  0  0  0  0  2  0  0  0  0  0  0
  179.0230  177.5520  141.9270 C   0  0  0  0  0  2  0  0  0  0  0  0
  178.1800  177.9990  143.1070 C   0  0  0  0  0  2  0  0  0  0  0  0
  178.9510  179.0020  143.9380 C   0  0  0  0  0  1  0  0  0  0  0  0
  189.9140  175.4170  143.8100 C   0  0  0  0  0  2  0  0  0  0  0  0
  189.9340  175.2100  142.3650 N   0  0  0  0  0  2  0  0  0  0  0  0
  190.7150  170.7830  140.1970 C   0  0  2  0  0  3  0  0  0  0  0  0
  189.9230  173.5040  140.5780 C   0  0  2  0  0  3  0  0  0  0  0  0
  190.9590  171.4490  142.9630 C   0  0  0  0  0  2  0  0  0  0  0  0
  190.3390  172.1000  140.5110 C   0  0  0  0  0  0  0  0  0  0  0  0
  190.7910  171.2210  141.5300 C   0  0  0  0  0  0  0  0  0  0  0  0
  189.8310  173.7820  142.1290 C   0  0  1  0  0  3  0  0  0  0  0  0
  190.8580  173.0140  143.0820 C   0  0  0  0  0  2  0  0  0  0  0  0
  191.9430  170.2150  138.2800 C   0  0  0  0  0  2  0  0  0  0  0  0
  192.0760  170.6840  139.6540 N   0  0  1  0  0  0  0  0  0  0  0  0
  192.1700  171.3730  137.3360 C   0  0  2  0  0  3  0  0  0  0  0  0
  192.8590  172.4300  138.1570 C   0  0  0  0  0  2  0  0  0  0  0  0
  192.7380  171.9890  139.5990 C   0  0  0  0  0  2  0  0  0  0  0  0
  190.8300  171.8790  136.8070 C   0  0  0  0  0  2  0  0  0  0  0  0
  190.7060  173.3940  136.9420 C   0  0  0  0  0  2  0  0  0  0  0  0
  189.4130  173.8940  136.3220 C   0  0  0  0  0  2  0  0  0  0  0  0
  189.7210  174.6840  135.0880 C   0  0  0  0  0  3  0  0  0  0  0  0
  190.9750  174.7800  134.6460 C   0  0  0  0  0  2  0  0  0  0  0  0
  187.8480  172.6550  139.7050 O   0  0  0  0  0  1  0  0  0  0  0  0
  188.1470  174.9250  139.5350 O   0  0  0  0  0  0  0  0  0  0  0  0
  188.5780  173.6630  139.9310 C   0  0  0  0  0  0  0  0  0  0  0  0
  2  1  1  6  0  0  0
  2  3  1  0  0  0  0
  2 18  1  0  0  0  0
  3  4  2  0  0  0  0
  4  6  1  0  0  0  0
  6  5  1  1  0  0  0
  7  6  1  0  0  0  0
  8 17  1  6  0  0  0
  8  9  1  0  0  0  0
  8 14  1  0  0  0  0
  9 13  1  1  0  0  0
  9 15  1  0  0  0  0
 10 12  2  0  0  0  0
 13 10  1  0  0  0  0
 14  7  1  0  0  0  0
 14 11  2  0  0  0  0
 15 12  1  6  0  0  0
 15 11  1  0  0  0  0
 16 17  2  0  0  0  0
 18 19  1  0  0  0  0
 19 20  1  0  0  0  0
 21 20  1  0  0  0  0
 23 28  1  0  0  0  0
 23 26  1  0  0  0  0
 24 26  2  0  0  0  0
 25 21  1  0  0  0  0
 26 25  1  0  0  0  0
 27 25  1  0  0  0  0
 27 22  1  6  0  0  0
 28 29  1  1  0  0  0
 28 27  1  0  0  0  0
 30 29  1  0  0  0  0
 31 30  1  0  0  0  0
 31 32  1  0  0  0  0
 32 33  1  0  0  0  0
 33 34  1  0  0  0  0
 34 35  1  0  0  0  0
 36  2  1  0  0  0  0
 37 36  1  0  0  0  0
 38 41  1  6  0  0  0
 38 42  1  0  0  0  0
 39 57  1  6  0  0  0
 39 43  1  0  0  0  0
 40 44  1  0  0  0  0
 41 39  1  0  0  0  0
 41 42  2  0  0  0  0
 42 40  1  0  0  0  0
 43 37  1  6  0  0  0
 43 44  1  0  0  0  0
 46 45  1  6  0  0  0
 46 38  1  0  0  0  0
 47 50  1  1  0  0  0
 47 48  1  0  0  0  0
 47 45  1  0  0  0  0
 48 49  1  0  0  0  0
 49 46  1  0  0  0  0
 50 51  1  0  0  0  0
 52 51  1  0  0  0  0
 53 52  1  0  0  0  0
 54 53  2  0  0  0  0
 55 57  1  0  0  0  0
 56 57  2  0  0  0  0
M  END
>  <MODEL>
5

>  <REMARK>
 VINA RESULT:      -4.7      3.439      9.213
  Name = 
  25 active torsions:
  status: ('A' for Active; 'I' for Inactive)
    1  A    between atoms: C_1  and  N_15
    2  A    between atoms: C_1  and  C_54
    3  A    between atoms: C_2  and  N_34
    4  A    between atoms: C_3  and  C_14
    5  A    between atoms: C_3  and  C_50
    6  A    between atoms: C_4  and  C_56
    7  A    between atoms: C_8  and  C_26
    8  A    between atoms: C_8  and  C_46
    9  A    between atoms: C_12  and  C_14
   10  A    between atoms: N_15  and  C_49
   11  A    between atoms: C_16  and  C_55
   12  A    between atoms: N_21  and  C_32
   13  A    between atoms: C_24  and  C_33
   14  A    between atoms: C_24  and  C_50
   15  A    between atoms: C_30  and  C_36
   16  A    between atoms: C_30  and  C_46
   17  A    between atoms: C_31  and  O_44
   18  A    between atoms: C_31  and  C_52
   19  A    between atoms: C_32  and  C_54
   20  A    between atoms: C_33  and  C_41
   21  A    between atoms: C_38  and  N_43
   22  A    between atoms: C_38  and  C_49
   23  A    between atoms: C_39  and  O_44
   24  A    between atoms: C_42  and  N_43
   25  A    between atoms: C_47  and  C_49
                            x       y       z     vdW  Elec       q    Type
                         _______ _______ _______ _____ _____    ______ ____

>  <TORSDO>
F 25

$$$$
=
 OpenBabel11042417513D

 57 62  0  0  1  0  0  0  0  0999 V2000
  192.1540  174.7900  146.5190 S   0  0  0  0  0  1  0  0  0  0  0  0
  191.2180  175.0640  144.9700 C   0  0  1  0  0  0  0  0  0  0  0  0
  191.0590  173.7470  144.2430 C   0  0  0  0  0  3  0  0  0  0  0  0
  191.1320  173.6650  142.9140 C   0  0  0  0  0  3  0  0  0  0  0  0
  189.7860  171.6420  142.6980 C   0  0  0  0  0  1  0  0  0  0  0  0
  191.0400  172.3520  142.2160 C   0  0  1  0  0  3  0  0  0  0  0  0
  191.0000  172.5820  140.8060 O   0  0  0  0  0  0  0  0  0  0  0  0
  189.3970  171.6460  139.0650 C   0  0  1  0  0  3  0  0  0  0  0  0
  189.7070  170.5360  138.1050 C   0  0  1  0  0  3  0  0  0  0  0  0
  191.1530  169.8700  136.5360 C   0  0  0  0  0  3  0  0  0  0  0  0
  191.3920  170.5460  139.6530 N   0  0  0  0  0  0  0  0  0  0  0  0
  191.5700  169.2810  137.6050 N   0  0  0  0  0  0  0  0  0  0  0  0
  190.0050  170.7200  136.8220 C   0  0  0  0  0  2  0  0  0  0  0  0
  190.6620  171.5970  139.8680 C   0  0  0  0  0  0  0  0  0  0  0  0
  190.7160  169.6490  138.7240 C   0  0  2  0  0  3  0  0  0  0  0  0
  188.4360  173.9170  138.9170 C   0  0  0  0  0  2  0  0  0  0  0  0
  189.2360  172.9850  138.3960 C   0  0  0  0  0  3  0  0  0  0  0  0
  189.9130  175.6770  145.2560 N   0  0  0  0  0  2  0  0  0  0  0  0
  189.8970  177.1100  144.9750 C   0  0  0  0  0  2  0  0  0  0  0  0
  189.2370  177.8500  146.1210 C   0  0  0  0  0  2  0  0  0  0  0  0
  188.2780  176.9330  146.8560 C   0  0  0  0  0  2  0  0  0  0  0  0
  185.0690  176.2270  146.3770 C   0  0  0  0  0  1  0  0  0  0  0  0
  185.5670  179.4170  147.4150 N   0  0  0  0  0  2  0  0  0  0  0  0
  187.5060  179.1400  148.7080 O   0  0  0  0  0  0  0  0  0  0  0  0
  186.9880  177.5880  147.0160 N   0  0  0  0  0  0  0  0  0  0  0  0
  186.7460  178.7420  147.7870 C   0  0  0  0  0  0  0  0  0  0  0  0
  185.8990  177.4610  146.0560 C   0  0  2  0  0  3  0  0  0  0  0  0
  185.0220  178.7140  146.2590 C   0  0  2  0  0  3  0  0  0  0  0  0
  185.1340  179.6000  145.0360 C   0  0  0  0  0  2  0  0  0  0  0  0
  185.0050  178.7710  143.7740 C   0  0  0  0  0  2  0  0  0  0  0  0
  186.0840  179.1660  142.7810 C   0  0  0  0  0  2  0  0  0  0  0  0
  187.2650  178.2050  142.8520 C   0  0  0  0  0  2  0  0  0  0  0  0
  187.3480  177.3390  141.6040 C   0  0  0  0  0  2  0  0  0  0  0  0
  188.3530  176.2170  141.8020 C   0  0  0  0  0  2  0  0  0  0  0  0
  187.6670  175.0180  142.4200 C   0  0  0  0  0  1  0  0  0  0  0  0
  191.9930  176.0400  144.0770 C   0  0  0  0  0  2  0  0  0  0  0  0
  193.3300  176.2990  144.5990 N   0  0  0  0  0  2  0  0  0  0  0  0
  195.8670  173.2980  141.5210 C   0  0  2  0  0  3  0  0  0  0  0  0
  194.8390  174.4630  143.9220 C   0  0  2  0  0  3  0  0  0  0  0  0
  194.4610  175.6980  140.8700 C   0  0  0  0  0  2  0  0  0  0  0  0
  195.3240  173.9710  142.6290 C   0  0  0  0  0  0  0  0  0  0  0  0
  195.1560  174.4940  141.3200 C   0  0  0  0  0  0  0  0  0  0  0  0
  194.2810  175.8990  143.5790 C   0  0  1  0  0  3  0  0  0  0  0  0
  193.6280  176.1150  142.1370 C   0  0  0  0  0  2  0  0  0  0  0  0
  194.4040  172.6040  139.8240 C   0  0  0  0  0  2  0  0  0  0  0  0
  195.0390  172.1750  141.0640 N   0  0  1  0  0  0  0  0  0  0  0  0
  195.0950  171.9390  138.6560 C   0  0  2  0  0  3  0  0  0  0  0  0
  195.8640  170.7890  139.2470 C   0  0  0  0  0  2  0  0  0  0  0  0
  195.8470  170.9960  140.7450 C   0  0  0  0  0  2  0  0  0  0  0  0
  196.0360  172.9350  137.9790 C   0  0  0  0  0  2  0  0  0  0  0  0
  195.3390  173.6930  136.8530 C   0  0  0  0  0  2  0  0  0  0  0  0
  194.8950  175.0690  137.3130 C   0  0  0  0  0  2  0  0  0  0  0  0
  193.4740  175.3020  136.9020 C   0  0  0  0  0  3  0  0  0  0  0  0
  192.4990  174.5340  137.3880 C   0  0  0  0  0  2  0  0  0  0  0  0
  195.7850  174.4700  146.1340 O   0  0  0  0  0  1  0  0  0  0  0  0
  197.2720  174.7890  144.4130 O   0  0  0  0  0  0  0  0  0  0  0  0
  195.9850  174.5580  144.8880 C   0  0  0  0  0  0  0  0  0  0  0  0
  2 18  1  0  0  0  0
  2  1  1  1  0  0  0
  3  2  1  0  0  0  0
  4  3  2  0  0  0  0
  6  5  1  1  0  0  0
  6  4  1  0  0  0  0
  7  6  1  0  0  0  0
  8 17  1  6  0  0  0
  8 14  1  0  0  0  0
  9 13  1  6  0  0  0
  9 15  1  0  0  0  0
  9  8  1  0  0  0  0
 10 13  1  0  0  0  0
 10 12  2  0  0  0  0
 11 14  2  0  0  0  0
 14  7  1  0  0  0  0
 15 12  1  6  0  0  0
 15 11  1  0  0  0  0
 17 16  2  0  0  0  0
 19 18  1  0  0  0  0
 19 20  1  0  0  0  0
 20 21  1  0  0  0  0
 21 25  1  0  0  0  0
 23 26  1  0  0  0  0
 25 26  1  0  0  0  0
 26 24  2  0  0  0  0
 27 28  1  0  0  0  0
 27 22  1  1  0  0  0
 27 25  1  0  0  0  0
 28 29  1  6  0  0  0
 28 23  1  0  0  0  0
 30 29  1  0  0  0  0
 31 32  1  0  0  0  0
 31 30  1  0  0  0  0
 33 34  1  0  0  0  0
 33 32  1  0  0  0  0
 34 35  1  0  0  0  0
 36 37  1  0  0  0  0
 36  2  1  0  0  0  0
 38 42  1  6  0  0  0
 38 41  1  0  0  0  0
 39 57  1  1  0  0  0
 40 42  1  0  0  0  0
 40 44  1  0  0  0  0
 41 39  1  0  0  0  0
 42 41  2  0  0  0  0
 43 39  1  0  0  0  0
 43 37  1  1  0  0  0
 44 43  1  0  0  0  0
 46 45  1  6  0  0  0
 46 38  1  0  0  0  0
 47 50  1  1  0  0  0
 47 48  1  0  0  0  0
 47 45  1  0  0  0  0
 48 49  1  0  0  0  0
 49 46  1  0  0  0  0
 51 52  1  0  0  0  0
 51 50  1  0  0  0  0
 53 52  1  0  0  0  0
 53 54  2  0  0  0  0
 56 57  2  0  0  0  0
 57 55  1  0  0  0  0
M  END
>  <MODEL>
6

>  <REMARK>
 VINA RESULT:      -4.6      2.555      8.022
  Name = 
  25 active torsions:
  status: ('A' for Active; 'I' for Inactive)
    1  A    between atoms: C_1  and  N_15
    2  A    between atoms: C_1  and  C_54
    3  A    between atoms: C_2  and  N_34
    4  A    between atoms: C_3  and  C_14
    5  A    between atoms: C_3  and  C_50
    6  A    between atoms: C_4  and  C_56
    7  A    between atoms: C_8  and  C_26
    8  A    between atoms: C_8  and  C_46
    9  A    between atoms: C_12  and  C_14
   10  A    between atoms: N_15  and  C_49
   11  A    between atoms: C_16  and  C_55
   12  A    between atoms: N_21  and  C_32
   13  A    between atoms: C_24  and  C_33
   14  A    between atoms: C_24  and  C_50
   15  A    between atoms: C_30  and  C_36
   16  A    between atoms: C_30  and  C_46
   17  A    between atoms: C_31  and  O_44
   18  A    between atoms: C_31  and  C_52
   19  A    between atoms: C_32  and  C_54
   20  A    between atoms: C_33  and  C_41
   21  A    between atoms: C_38  and  N_43
   22  A    between atoms: C_38  and  C_49
   23  A    between atoms: C_39  and  O_44
   24  A    between atoms: C_42  and  N_43
   25  A    between atoms: C_47  and  C_49
                            x       y       z     vdW  Elec       q    Type
                         _______ _______ _______ _____ _____    ______ ____

>  <TORSDO>
F 25

$$$$
=
 OpenBabel11042417513D

 57 62  0  0  1  0  0  0  0  0999 V2000
  189.8890  177.9600  143.0770 S   0  0  0  0  0  1  0  0  0  0  0  0
  189.8530  177.0050  144.6380 C   0  0  1  0  0  0  0  0  0  0  0  0
  191.2260  177.0330  145.2720 C   0  0  0  0  0  3  0  0  0  0  0  0
  192.2760  176.4460  144.6970 C   0  0  0  0  0  3  0  0  0  0  0  0
  193.5030  176.3890  146.8050 C   0  0  0  0  0  1  0  0  0  0  0  0
  193.6370  176.5380  145.2990 C   0  0  1  0  0  3  0  0  0  0  0  0
  194.4560  175.5080  144.7440 O   0  0  0  0  0  0  0  0  0  0  0  0
  196.8510  175.5060  143.8830 C   0  0  1  0  0  3  0  0  0  0  0  0
  197.2590  175.6300  142.4460 C   0  0  1  0  0  3  0  0  0  0  0  0
  196.9610  174.7510  140.4120 C   0  0  0  0  0  3  0  0  0  0  0  0
  195.0360  176.1650  142.5390 N   0  0  0  0  0  0  0  0  0  0  0  0
  196.1450  175.7490  140.4360 N   0  0  0  0  0  0  0  0  0  0  0  0
  197.6480  174.6080  141.6890 C   0  0  0  0  0  2  0  0  0  0  0  0
  195.3780  175.7220  143.7110 C   0  0  0  0  0  0  0  0  0  0  0  0
  196.2250  176.4080  141.7300 C   0  0  2  0  0  3  0  0  0  0  0  0
  196.8300  173.8730  145.7370 C   0  0  0  0  0  2  0  0  0  0  0  0
  197.1310  174.1460  144.4670 C   0  0  0  0  0  3  0  0  0  0  0  0
  188.8320  177.5430  145.5500 N   0  0  0  0  0  2  0  0  0  0  0  0
  187.6960  176.6400  145.7100 C   0  0  0  0  0  2  0  0  0  0  0  0
  186.4230  177.3340  145.2690 C   0  0  0  0  0  2  0  0  0  0  0  0
  185.7970  176.5930  144.1030 C   0  0  0  0  0  2  0  0  0  0  0  0
  184.3720  179.5850  143.9020 C   0  0  0  0  0  1  0  0  0  0  0  0
  184.9930  178.2240  140.8580 N   0  0  0  0  0  2  0  0  0  0  0  0
  186.8970  176.9430  141.3520 O   0  0  0  0  0  0  0  0  0  0  0  0
  185.4010  177.5380  143.0690 N   0  0  0  0  0  0  0  0  0  0  0  0
  185.8480  177.5250  141.7330 C   0  0  0  0  0  0  0  0  0  0  0  0
  184.1610  178.3010  143.1130 C   0  0  2  0  0  3  0  0  0  0  0  0
  183.8490  178.6670  141.6460 C   0  0  2  0  0  3  0  0  0  0  0  0
  182.6130  177.9150  141.2000 C   0  0  0  0  0  2  0  0  0  0  0  0
  181.4240  178.8520  141.1370 C   0  0  0  0  0  2  0  0  0  0  0  0
  180.1770  178.1430  141.6400 C   0  0  0  0  0  2  0  0  0  0  0  0
  178.9680  178.4990  140.7840 C   0  0  0  0  0  2  0  0  0  0  0  0
  178.9300  177.6680  139.5100 C   0  0  0  0  0  2  0  0  0  0  0  0
  177.6930  176.7880  139.4850 C   0  0  0  0  0  2  0  0  0  0  0  0
  177.9550  175.5590  138.6430 C   0  0  0  0  0  1  0  0  0  0  0  0
  189.4690  175.5520  144.3330 C   0  0  0  0  0  2  0  0  0  0  0  0
  189.4930  175.2810  142.9000 N   0  0  0  0  0  2  0  0  0  0  0  0
  190.8390  170.8170  141.1180 C   0  0  2  0  0  3  0  0  0  0  0  0
  189.8450  173.4960  141.2270 C   0  0  2  0  0  3  0  0  0  0  0  0
  190.6280  171.6260  143.8490 C   0  0  0  0  0  2  0  0  0  0  0  0
  190.3460  172.1200  141.3000 C   0  0  0  0  0  0  0  0  0  0  0  0
  190.6900  171.3210  142.4210 C   0  0  0  0  0  0  0  0  0  0  0  0
  189.5060  173.8390  142.7300 C   0  0  1  0  0  3  0  0  0  0  0  0
  190.4210  173.1850  143.8640 C   0  0  0  0  0  2  0  0  0  0  0  0
  192.3710  170.2180  139.4450 C   0  0  0  0  0  2  0  0  0  0  0  0
  192.2690  170.7800  140.7870 N   0  0  1  0  0  0  0  0  0  0  0  0
  192.6660  171.3280  138.4630 C   0  0  2  0  0  3  0  0  0  0  0  0
  193.1590  172.4800  139.2970 C   0  0  0  0  0  2  0  0  0  0  0  0
  192.8520  172.1230  140.7340 C   0  0  0  0  0  2  0  0  0  0  0  0
  191.3920  171.7040  137.7100 C   0  0  0  0  0  2  0  0  0  0  0  0
  191.1670  173.2140  137.7000 C   0  0  0  0  0  2  0  0  0  0  0  0
  190.3530  173.6370  136.4910 C   0  0  0  0  0  2  0  0  0  0  0  0
  191.2340  174.3590  135.5200 C   0  0  0  0  0  3  0  0  0  0  0  0
  191.2630  175.6920  135.5000 C   0  0  0  0  0  2  0  0  0  0  0  0
  187.7360  172.6230  140.4670 O   0  0  0  0  0  1  0  0  0  0  0  0
  188.4290  174.5690  139.4650 O   0  0  0  0  0  0  0  0  0  0  0  0
  188.6050  173.5380  140.3820 C   0  0  0  0  0  0  0  0  0  0  0  0
  2  1  1  6  0  0  0
  2  3  1  0  0  0  0
  2 18  1  0  0  0  0
  4  3  2  0  0  0  0
  4  6  1  0  0  0  0
  6  5  1  1  0  0  0
  7  6  1  0  0  0  0
  8 17  1  6  0  0  0
  9 13  1  6  0  0  0
  9  8  1  0  0  0  0
 10 12  2  0  0  0  0
 10 13  1  0  0  0  0
 11 14  2  0  0  0  0
 14  8  1  0  0  0  0
 14  7  1  0  0  0  0
 15 12  1  6  0  0  0
 15  9  1  0  0  0  0
 15 11  1  0  0  0  0
 17 16  2  0  0  0  0
 18 19  1  0  0  0  0
 20 19  1  0  0  0  0
 21 20  1  0  0  0  0
 23 28  1  0  0  0  0
 23 26  1  0  0  0  0
 24 26  2  0  0  0  0
 25 27  1  0  0  0  0
 25 21  1  0  0  0  0
 26 25  1  0  0  0  0
 27 22  1  1  0  0  0
 28 29  1  6  0  0  0
 28 27  1  0  0  0  0
 30 29  1  0  0  0  0
 30 31  1  0  0  0  0
 32 31  1  0  0  0  0
 33 32  1  0  0  0  0
 34 33  1  0  0  0  0
 35 34  1  0  0  0  0
 36  2  1  0  0  0  0
 37 36  1  0  0  0  0
 38 41  1  6  0  0  0
 38 42  1  0  0  0  0
 39 57  1  6  0  0  0
 39 41  1  0  0  0  0
 39 43  1  0  0  0  0
 40 44  1  0  0  0  0
 41 42  2  0  0  0  0
 42 40  1  0  0  0  0
 43 37  1  6  0  0  0
 43 44  1  0  0  0  0
 46 45  1  6  0  0  0
 46 38  1  0  0  0  0
 47 50  1  1  0  0  0
 47 48  1  0  0  0  0
 47 45  1  0  0  0  0
 48 49  1  0  0  0  0
 49 46  1  0  0  0  0
 51 50  1  0  0  0  0
 52 51  1  0  0  0  0
 53 52  1  0  0  0  0
 54 53  2  0  0  0  0
 56 57  2  0  0  0  0
 57 55  1  0  0  0  0
M  END
>  <MODEL>
7

>  <REMARK>
 VINA RESULT:      -4.4      3.957      9.606
  Name = 
  25 active torsions:
  status: ('A' for Active; 'I' for Inactive)
    1  A    between atoms: C_1  and  N_15
    2  A    between atoms: C_1  and  C_54
    3  A    between atoms: C_2  and  N_34
    4  A    between atoms: C_3  and  C_14
    5  A    between atoms: C_3  and  C_50
    6  A    between atoms: C_4  and  C_56
    7  A    between atoms: C_8  and  C_26
    8  A    between atoms: C_8  and  C_46
    9  A    between atoms: C_12  and  C_14
   10  A    between atoms: N_15  and  C_49
   11  A    between atoms: C_16  and  C_55
   12  A    between atoms: N_21  and  C_32
   13  A    between atoms: C_24  and  C_33
   14  A    between atoms: C_24  and  C_50
   15  A    between atoms: C_30  and  C_36
   16  A    between atoms: C_30  and  C_46
   17  A    between atoms: C_31  and  O_44
   18  A    between atoms: C_31  and  C_52
   19  A    between atoms: C_32  and  C_54
   20  A    between atoms: C_33  and  C_41
   21  A    between atoms: C_38  and  N_43
   22  A    between atoms: C_38  and  C_49
   23  A    between atoms: C_39  and  O_44
   24  A    between atoms: C_42  and  N_43
   25  A    between atoms: C_47  and  C_49
                            x       y       z     vdW  Elec       q    Type
                         _______ _______ _______ _____ _____    ______ ____

>  <TORSDO>
F 25

$$$$
=
 OpenBabel11042417513D

 57 62  0  0  1  0  0  0  0  0999 V2000
  187.7440  172.3240  141.5690 S   0  0  0  0  0  1  0  0  0  0  0  0
  188.9670  173.2430  140.5630 C   0  0  1  0  0  0  0  0  0  0  0  0
  188.5610  173.1840  139.1070 C   0  0  0  0  0  3  0  0  0  0  0  0
  189.2710  173.7920  138.1550 C   0  0  0  0  0  3  0  0  0  0  0  0
  189.4330  174.8860  135.9810 C   0  0  0  0  0  1  0  0  0  0  0  0
  188.8960  173.6710  136.7180 C   0  0  1  0  0  3  0  0  0  0  0  0
  189.4490  172.4600  136.1990 O   0  0  0  0  0  0  0  0  0  0  0  0
  191.2240  171.1440  137.4620 C   0  0  1  0  0  3  0  0  0  0  0  0
  192.6330  170.9210  137.0010 C   0  0  1  0  0  3  0  0  0  0  0  0
  193.8660  170.1610  135.2980 C   0  0  0  0  0  3  0  0  0  0  0  0
  191.7540  172.5370  135.6410 N   0  0  0  0  0  0  0  0  0  0  0  0
  193.8330  171.4360  135.1060 N   0  0  0  0  0  0  0  0  0  0  0  0
  193.0710  169.7870  136.4590 C   0  0  0  0  0  2  0  0  0  0  0  0
  190.7850  172.0790  136.3750 C   0  0  0  0  0  0  0  0  0  0  0  0
  193.0340  172.0610  136.1490 C   0  0  2  0  0  3  0  0  0  0  0  0
  190.0660  169.2850  138.6060 C   0  0  0  0  0  2  0  0  0  0  0  0
  190.3900  169.8900  137.4620 C   0  0  0  0  0  3  0  0  0  0  0  0
  189.0830  174.6320  141.0300 N   0  0  0  0  0  2  0  0  0  0  0  0
  188.1790  174.9250  142.1390 C   0  0  0  0  0  2  0  0  0  0  0  0
  187.3390  176.1420  141.8090 C   0  0  0  0  0  2  0  0  0  0  0  0
  188.1570  177.4080  141.9840 C   0  0  0  0  0  2  0  0  0  0  0  0
  190.3570  178.2560  144.3210 C   0  0  0  0  0  1  0  0  0  0  0  0
  187.1740  178.1660  145.4900 N   0  0  0  0  0  2  0  0  0  0  0  0
  185.9970  178.7460  143.5440 O   0  0  0  0  0  0  0  0  0  0  0  0
  188.1520  177.8140  143.3810 N   0  0  0  0  0  0  0  0  0  0  0  0
  187.0290  178.2820  144.0930 C   0  0  0  0  0  0  0  0  0  0  0  0
  189.1330  177.3530  144.3540 C   0  0  2  0  0  3  0  0  0  0  0  0
  188.4480  177.4980  145.7300 C   0  0  2  0  0  3  0  0  0  0  0  0
  188.1910  176.1200  146.3020 C   0  0  0  0  0  2  0  0  0  0  0  0
  188.9480  175.0730  145.5100 C   0  0  0  0  0  2  0  0  0  0  0  0
  190.2150  174.6790  146.2490 C   0  0  0  0  0  2  0  0  0  0  0  0
  190.2490  175.3000  147.6400 C   0  0  0  0  0  2  0  0  0  0  0  0
  191.5660  176.0200  147.8910 C   0  0  0  0  0  2  0  0  0  0  0  0
  192.4060  176.0470  146.6260 C   0  0  0  0  0  2  0  0  0  0  0  0
  193.7060  176.7750  146.8890 C   0  0  0  0  0  1  0  0  0  0  0  0
  190.3460  172.5920  140.7260 C   0  0  0  0  0  2  0  0  0  0  0  0
  190.2810  171.3980  141.5620 N   0  0  0  0  0  2  0  0  0  0  0  0
  194.9250  172.4780  143.0390 C   0  0  2  0  0  3  0  0  0  0  0  0
  192.7440  171.5550  141.4360 C   0  0  2  0  0  3  0  0  0  0  0  0
  192.5290  172.5400  144.5930 C   0  0  0  0  0  2  0  0  0  0  0  0
  193.7800  172.0310  142.3570 C   0  0  0  0  0  0  0  0  0  0  0  0
  193.6880  172.4620  143.7070 C   0  0  0  0  0  0  0  0  0  0  0  0
  191.4860  171.3660  142.3700 C   0  0  1  0  0  3  0  0  0  0  0  0
  191.3200  172.3690  143.6030 C   0  0  0  0  0  2  0  0  0  0  0  0
  194.8760  174.6660  143.8840 C   0  0  0  0  0  2  0  0  0  0  0  0
  195.2760  173.8690  142.7300 N   0  0  1  0  0  0  0  0  0  0  0  0
  196.1050  175.0400  144.6790 C   0  0  2  0  0  3  0  0  0  0  0  0
  197.2670  174.8180  143.7490 C   0  0  0  0  0  2  0  0  0  0  0  0
  196.7210  174.0450  142.5690 C   0  0  0  0  0  2  0  0  0  0  0  0
  196.2140  174.1460  145.9130 C   0  0  0  0  0  2  0  0  0  0  0  0
  197.1040  172.9340  145.6550 C   0  0  0  0  0  2  0  0  0  0  0  0
  196.4410  171.6560  146.1380 C   0  0  0  0  0  2  0  0  0  0  0  0
  197.2790  170.4780  145.7490 C   0  0  0  0  0  3  0  0  0  0  0  0
  197.1900  169.9670  144.5210 C   0  0  0  0  0  2  0  0  0  0  0  0
  192.5510  169.1760  141.1370 O   0  0  0  0  0  1  0  0  0  0  0  0
  194.2610  170.1900  139.9880 O   0  0  0  0  0  0  0  0  0  0  0  0
  193.1630  170.2430  140.8400 C   0  0  0  0  0  0  0  0  0  0  0  0
  2 36  1  0  0  0  0
  2 18  1  0  0  0  0
  2  1  1  1  0  0  0
  3  2  1  0  0  0  0
  4  3  2  0  0  0  0
  6  5  1  6  0  0  0
  6  4  1  0  0  0  0
  7 14  1  0  0  0  0
  7  6  1  0  0  0  0
  8 17  1  6  0  0  0
  9 13  1  6  0  0  0
  9  8  1  0  0  0  0
 10 13  1  0  0  0  0
 11 15  1  0  0  0  0
 11 14  2  0  0  0  0
 12 10  2  0  0  0  0
 14  8  1  0  0  0  0
 15 12  1  6  0  0  0
 15  9  1  0  0  0  0
 17 16  2  0  0  0  0
 18 19  1  0  0  0  0
 20 21  1  0  0  0  0
 20 19  1  0  0  0  0
 21 25  1  0  0  0  0
 23 28  1  0  0  0  0
 24 26  2  0  0  0  0
 25 26  1  0  0  0  0
 25 27  1  0  0  0  0
 26 23  1  0  0  0  0
 27 22  1  1  0  0  0
 27 28  1  0  0  0  0
 28 29  1  6  0  0  0
 30 31  1  0  0  0  0
 30 29  1  0  0  0  0
 31 32  1  0  0  0  0
 32 33  1  0  0  0  0
 34 35  1  0  0  0  0
 34 33  1  0  0  0  0
 36 37  1  0  0  0  0
 38 41  1  6  0  0  0
 38 42  1  0  0  0  0
 39 57  1  1  0  0  0
 39 41  1  0  0  0  0
 39 43  1  0  0  0  0
 41 42  2  0  0  0  0
 42 40  1  0  0  0  0
 43 37  1  6  0  0  0
 43 44  1  0  0  0  0
 44 40  1  0  0  0  0
 45 47  1  0  0  0  0
 46 49  1  1  0  0  0
 46 38  1  0  0  0  0
 46 45  1  0  0  0  0
 47 50  1  1  0  0  0
 48 47  1  0  0  0  0
 49 48  1  0  0  0  0
 51 50  1  0  0  0  0
 51 52  1  0  0  0  0
 53 52  1  0  0  0  0
 54 53  2  0  0  0  0
 56 57  2  0  0  0  0
 57 55  1  0  0  0  0
M  END
>  <MODEL>
8

>  <REMARK>
 VINA RESULT:      -4.3      2.857      7.620
  Name = 
  25 active torsions:
  status: ('A' for Active; 'I' for Inactive)
    1  A    between atoms: C_1  and  N_15
    2  A    between atoms: C_1  and  C_54
    3  A    between atoms: C_2  and  N_34
    4  A    between atoms: C_3  and  C_14
    5  A    between atoms: C_3  and  C_50
    6  A    between atoms: C_4  and  C_56
    7  A    between atoms: C_8  and  C_26
    8  A    between atoms: C_8  and  C_46
    9  A    between atoms: C_12  and  C_14
   10  A    between atoms: N_15  and  C_49
   11  A    between atoms: C_16  and  C_55
   12  A    between atoms: N_21  and  C_32
   13  A    between atoms: C_24  and  C_33
   14  A    between atoms: C_24  and  C_50
   15  A    between atoms: C_30  and  C_36
   16  A    between atoms: C_30  and  C_46
   17  A    between atoms: C_31  and  O_44
   18  A    between atoms: C_31  and  C_52
   19  A    between atoms: C_32  and  C_54
   20  A    between atoms: C_33  and  C_41
   21  A    between atoms: C_38  and  N_43
   22  A    between atoms: C_38  and  C_49
   23  A    between atoms: C_39  and  O_44
   24  A    between atoms: C_42  and  N_43
   25  A    between atoms: C_47  and  C_49
                            x       y       z     vdW  Elec       q    Type
                         _______ _______ _______ _____ _____    ______ ____

>  <TORSDO>
F 25

$$$$
=
 OpenBabel11042417513D

 57 62  0  0  1  0  0  0  0  0999 V2000
  192.5660  174.9940  141.7280 S   0  0  0  0  0  1  0  0  0  0  0  0
  192.0220  175.0320  143.4750 C   0  0  1  0  0  0  0  0  0  0  0  0
  190.8070  175.9250  143.6000 C   0  0  0  0  0  3  0  0  0  0  0  0
  190.6900  177.0530  142.8990 C   0  0  0  0  0  3  0  0  0  0  0  0
  188.4490  177.3510  141.9830 C   0  0  0  0  0  1  0  0  0  0  0  0
  189.4590  177.8890  142.9820 C   0  0  1  0  0  3  0  0  0  0  0  0
  188.9540  177.8320  144.3170 O   0  0  0  0  0  0  0  0  0  0  0  0
  187.0920  176.4620  145.3820 C   0  0  1  0  0  3  0  0  0  0  0  0
  185.6920  176.9390  145.6250 C   0  0  1  0  0  3  0  0  0  0  0  0
  184.4880  178.5610  146.5840 C   0  0  0  0  0  3  0  0  0  0  0  0
  186.6730  178.4810  144.2490 N   0  0  0  0  0  0  0  0  0  0  0  0
  184.5740  178.9310  145.3510 N   0  0  0  0  0  0  0  0  0  0  0  0
  185.2320  177.3290  146.8110 C   0  0  0  0  0  2  0  0  0  0  0  0
  187.5990  177.6540  144.6270 C   0  0  0  0  0  0  0  0  0  0  0  0
  185.3600  177.9590  144.6080 C   0  0  2  0  0  3  0  0  0  0  0  0
  188.9140  175.4100  146.6770 C   0  0  0  0  0  2  0  0  0  0  0  0
  187.8800  176.2510  146.6480 C   0  0  0  0  0  3  0  0  0  0  0  0
  191.7370  173.6720  143.9570 N   0  0  0  0  0  2  0  0  0  0  0  0
  191.6480  172.7020  142.8700 C   0  0  0  0  0  2  0  0  0  0  0  0
  190.1980  172.5000  142.4800 C   0  0  0  0  0  2  0  0  0  0  0  0
  190.0720  171.3440  141.5050 C   0  0  0  0  0  2  0  0  0  0  0  0
  189.6200  170.2420  138.4060 C   0  0  0  0  0  1  0  0  0  0  0  0
  188.3970  173.3710  138.8750 N   0  0  0  0  0  2  0  0  0  0  0  0
  187.8120  173.2570  141.1450 O   0  0  0  0  0  0  0  0  0  0  0  0
  189.4410  171.7970  140.2750 N   0  0  0  0  0  0  0  0  0  0  0  0
  188.4950  172.8370  140.1750 C   0  0  0  0  0  0  0  0  0  0  0  0
  190.0250  171.6020  138.9550 C   0  0  2  0  0  3  0  0  0  0  0  0
  189.4060  172.7000  138.0630 C   0  0  2  0  0  3  0  0  0  0  0  0
  190.4830  173.6930  137.6810 C   0  0  0  0  0  2  0  0  0  0  0  0
  191.8460  173.1710  138.0890 C   0  0  0  0  0  2  0  0  0  0  0  0
  192.6090  172.6980  136.8630 C   0  0  0  0  0  2  0  0  0  0  0  0
  193.6800  173.7070  136.4670 C   0  0  0  0  0  2  0  0  0  0  0  0
  193.3450  174.3780  135.1430 C   0  0  0  0  0  2  0  0  0  0  0  0
  194.5010  175.2460  134.6790 C   0  0  0  0  0  2  0  0  0  0  0  0
  194.5100  176.5450  135.4570 C   0  0  0  0  0  1  0  0  0  0  0  0
  193.1520  175.5950  144.3440 C   0  0  0  0  0  2  0  0  0  0  0  0
  194.0480  174.5410  144.8090 N   0  0  0  0  0  2  0  0  0  0  0  0
  197.7460  175.2200  141.5260 C   0  0  2  0  0  3  0  0  0  0  0  0
  195.6740  173.9600  143.0400 C   0  0  2  0  0  3  0  0  0  0  0  0
  196.8770  177.0000  143.5830 C   0  0  0  0  0  2  0  0  0  0  0  0
  196.7310  174.7020  142.3490 C   0  0  0  0  0  0  0  0  0  0  0  0
  197.2420  176.0070  142.5750 C   0  0  0  0  0  0  0  0  0  0  0  0
  195.3760  174.8480  144.3110 C   0  0  1  0  0  3  0  0  0  0  0  0
  195.5280  176.4310  144.1600 C   0  0  0  0  0  2  0  0  0  0  0  0
  197.8060  174.9140  139.2000 C   0  0  0  0  0  2  0  0  0  0  0  0
  197.2420  175.7510  140.2530 N   0  0  1  0  0  0  0  0  0  0  0  0
  196.7360  173.9830  138.6790 C   0  0  2  0  0  3  0  0  0  0  0  0
  195.4310  174.5760  139.1390 C   0  0  0  0  0  2  0  0  0  0  0  0
  195.7850  175.6400  140.1530 C   0  0  0  0  0  2  0  0  0  0  0  0
  196.9380  172.5860  139.2630 C   0  0  0  0  0  2  0  0  0  0  0  0
  196.4320  171.5010  138.3170 C   0  0  0  0  0  2  0  0  0  0  0  0
  195.0590  171.0060  138.7360 C   0  0  0  0  0  2  0  0  0  0  0  0
  194.9740  170.9660  140.2300 C   0  0  0  0  0  3  0  0  0  0  0  0
  193.7960  170.8020  140.8320 C   0  0  0  0  0  2  0  0  0  0  0  0
  195.4740  171.8320  144.1450 O   0  0  0  0  0  1  0  0  0  0  0  0
  197.4770  172.2260  143.0950 O   0  0  0  0  0  0  0  0  0  0  0  0
  196.1880  172.6090  143.4480 C   0  0  0  0  0  0  0  0  0  0  0  0
  2  1  1  6  0  0  0
  2  3  1  0  0  0  0
  2 18  1  0  0  0  0
  2 36  1  0  0  0  0
  4  6  1  0  0  0  0
  4  3  2  0  0  0  0
  6  5  1  6  0  0  0
  6  7  1  0  0  0  0
  7 14  1  0  0  0  0
  8  9  1  0  0  0  0
  8 17  1  1  0  0  0
  9 13  1  1  0  0  0
 10 13  1  0  0  0  0
 11 14  2  0  0  0  0
 12 10  2  0  0  0  0
 14  8  1  0  0  0  0
 15 11  1  1  0  0  0
 15 12  1  0  0  0  0
 15  9  1  0  0  0  0
 17 16  2  0  0  0  0
 19 18  1  0  0  0  0
 20 19  1  0  0  0  0
 21 20  1  0  0  0  0
 23 26  1  0  0  0  0
 25 21  1  0  0  0  0
 26 25  1  0  0  0  0
 26 24  2  0  0  0  0
 27 22  1  6  0  0  0
 27 25  1  0  0  0  0
 28 29  1  1  0  0  0
 28 23  1  0  0  0  0
 28 27  1  0  0  0  0
 29 30  1  0  0  0  0
 31 30  1  0  0  0  0
 32 31  1  0  0  0  0
 33 32  1  0  0  0  0
 34 33  1  0  0  0  0
 34 35  1  0  0  0  0
 36 37  1  0  0  0  0
 38 41  1  1  0  0  0
 38 42  1  0  0  0  0
 39 57  1  1  0  0  0
 39 43  1  0  0  0  0
 40 44  1  0  0  0  0
 41 42  2  0  0  0  0
 41 39  1  0  0  0  0
 42 40  1  0  0  0  0
 43 37  1  6  0  0  0
 44 43  1  0  0  0  0
 46 45  1  6  0  0  0
 46 38  1  0  0  0  0
 47 48  1  0  0  0  0
 47 45  1  0  0  0  0
 47 50  1  1  0  0  0
 48 49  1  0  0  0  0
 49 46  1  0  0  0  0
 51 52  1  0  0  0  0
 51 50  1  0  0  0  0
 52 53  1  0  0  0  0
 53 54  2  0  0  0  0
 56 57  2  0  0  0  0
 57 55  1  0  0  0  0
M  END
>  <MODEL>
9

>  <REMARK>
 VINA RESULT:      -4.1      2.630      8.880
  Name = 
  25 active torsions:
  status: ('A' for Active; 'I' for Inactive)
    1  A    between atoms: C_1  and  N_15
    2  A    between atoms: C_1  and  C_54
    3  A    between atoms: C_2  and  N_34
    4  A    between atoms: C_3  and  C_14
    5  A    between atoms: C_3  and  C_50
    6  A    between atoms: C_4  and  C_56
    7  A    between atoms: C_8  and  C_26
    8  A    between atoms: C_8  and  C_46
    9  A    between atoms: C_12  and  C_14
   10  A    between atoms: N_15  and  C_49
   11  A    between atoms: C_16  and  C_55
   12  A    between atoms: N_21  and  C_32
   13  A    between atoms: C_24  and  C_33
   14  A    between atoms: C_24  and  C_50
   15  A    between atoms: C_30  and  C_36
   16  A    between atoms: C_30  and  C_46
   17  A    between atoms: C_31  and  O_44
   18  A    between atoms: C_31  and  C_52
   19  A    between atoms: C_32  and  C_54
   20  A    between atoms: C_33  and  C_41
   21  A    between atoms: C_38  and  N_43
   22  A    between atoms: C_38  and  C_49
   23  A    between atoms: C_39  and  O_44
   24  A    between atoms: C_42  and  N_43
   25  A    between atoms: C_47  and  C_49
                            x       y       z     vdW  Elec       q    Type
                         _______ _______ _______ _____ _____    ______ ____

>  <TORSDO>
F 25

$$$$
