=
 OpenBabel11042417563D

 55 60  0  0  1  0  0  0  0  0999 V2000
  189.7540  171.1250  137.8100 N   0  0  0  0  0  2  0  0  0  0  0  0
  190.1660  173.9510  136.5040 C   0  0  2  0  0  3  0  0  0  0  0  0
  189.1810  172.1450  136.9390 C   0  0  1  0  0  3  0  0  0  0  0  0
  189.0030  173.6840  137.8480 S   0  0  0  0  0  0  0  0  0  0  0  0
  190.7530  172.0340  134.9540 O   0  0  0  0  0  0  0  0  0  0  0  0
  190.1900  172.5670  135.8940 C   0  0  0  0  0  0  0  0  0  0  0  0
  193.6540  175.5640  136.9230 C   0  0  0  0  0  0  0  0  0  0  0  0
  193.0320  176.9610  135.1360 C   0  0  0  0  0  2  0  0  0  0  0  0
  192.3210  175.2720  136.4760 C   0  0  0  0  0  0  0  0  0  0  0  0
  195.3740  176.1200  135.2400 C   0  0  0  0  0  1  0  0  0  0  0  0
  194.2290  174.9870  137.9350 N   0  0  0  0  0  0  0  0  0  0  0  0
  191.9610  176.0290  135.4970 N   0  0  0  0  0  0  0  0  0  0  0  0
  191.4750  174.2740  137.0540 N   0  0  0  0  0  2  0  0  0  0  0  0
  194.2150  176.6500  136.0690 C   0  0  2  0  0  3  0  0  0  0  0  0
  195.5630  175.3260  138.4100 C   0  0  0  0  0  2  0  0  0  0  0  0
  195.6390  175.1640  139.9210 C   0  0  0  0  0  2  0  0  0  0  0  0
  197.4760  173.7250  139.6630 O   0  0  0  0  0  0  0  0  0  0  0  0
  196.5080  174.0130  140.3480 C   0  0  0  0  0  0  0  0  0  0  0  0
  196.1980  173.0660  141.8470 S   0  0  0  0  0  0  0  0  0  0  0  0
  195.6910  174.0880  144.2550 C   0  0  2  0  0  3  0  0  0  0  0  0
  197.1610  175.2140  143.4670 C   0  0  0  0  0  2  0  0  0  0  0  0
  195.9590  174.5680  142.8380 C   0  0  1  0  0  0  0  0  0  0  0  0
  194.6100  174.8310  143.4870 C   0  0  2  0  0  3  0  0  0  0  0  0
  196.7590  174.8560  144.7600 O   0  0  0  0  0  0  0  0  0  0  0  0
  194.4540  176.2830  143.9460 C   0  0  0  0  0  2  0  0  0  0  0  0
  192.2760  176.3400  145.0430 C   0  0  0  0  0  2  0  0  0  0  0  0
  193.5950  176.4130  145.1790 C   0  0  0  0  0  0  0  0  0  0  0  0
  194.1680  176.6110  146.5510 C   0  0  0  0  0  1  0  0  0  0  0  0
  191.7990  171.4950  139.1530 C   0  0  0  0  0  0  0  0  0  0  0  0
  190.4350  171.7880  138.8400 N   0  0  0  0  0  2  0  0  0  0  0  0
  192.4250  170.6060  138.5170 O   0  0  0  0  0  0  0  0  0  0  0  0
  192.6300  172.4070  140.4510 S   0  0  0  0  0  0  0  0  0  0  0  0
  192.8640  170.9310  141.4870 C   0  0  0  0  0  2  0  0  0  0  0  0
  191.2480  170.3050  142.0340 S   0  0  0  0  0  0  0  0  0  0  0  0
  190.9910  171.6880  143.1440 C   0  0  0  0  0  0  0  0  0  0  0  0
  191.7170  171.7840  144.2080 N   0  0  0  0  0  2  0  0  0  0  0  0
  189.9980  173.9520  143.5670 N   0  0  0  0  0  2  0  0  0  0  0  0
  190.0050  172.7280  142.8240 C   0  0  0  0  0  0  0  0  0  0  0  0
  189.1730  172.5430  141.8930 O   0  0  0  0  0  0  0  0  0  0  0  0
  187.3170  176.5040  144.3150 C   0  0  1  0  0  3  0  0  0  0  0  0
  189.2000  178.4560  141.6450 O   0  0  0  0  0  1  0  0  0  0  0  0
  187.7930  177.6920  143.7260 O   0  0  0  0  0  0  0  0  0  0  0  0
  188.5340  177.2450  142.2620 P   0  0  2  0  0  0  0  0  0  0  0  0
  189.7190  176.0830  142.6260 O   0  0  0  0  0  0  0  0  0  0  0  0
  188.4590  175.5400  144.6460 C   0  0  0  0  0  2  0  0  0  0  0  0
  189.0690  175.0510  143.3270 C   0  0  2  0  0  3  0  0  0  0  0  0
  187.3880  176.6090  141.1890 O   0  0  0  0  0  0  0  0  0  0  0  0
  186.6210  176.8180  145.4840 O   0  0  0  0  0  0  0  0  0  0  0  0
  185.7730  179.0830  145.6610 C   0  0  1  0  0  3  0  0  0  0  0  0
  186.2490  178.5790  146.8920 O   0  0  0  0  0  0  0  0  0  0  0  0
  186.9460  178.1550  145.7460 C   0  0  1  0  0  3  0  0  0  0  0  0
  184.4190  178.4560  145.2520 C   0  0  1  0  0  3  0  0  0  0  0  0
  183.4490  178.6900  146.2240 O   0  0  0  0  0  1  0  0  0  0  0  0
  183.8960  178.8470  143.8730 C   0  0  0  0  0  2  0  0  0  0  0  0
  184.4800  178.0410  142.8970 O   0  0  0  0  0  1  0  0  0  0  0  0
  1 30  1  0  0  0  0
  2 13  1  1  0  0  0
  2  4  1  0  0  0  0
  3  1  1  1  0  0  0
  3  4  1  0  0  0  0
  5  6  2  0  0  0  0
  6  2  1  0  0  0  0
  6  3  1  0  0  0  0
  7 11  2  0  0  0  0
  8 12  1  0  0  0  0
  8 14  1  0  0  0  0
  9  7  1  0  0  0  0
  9 13  1  0  0  0  0
 11 15  1  0  0  0  0
 12  9  2  0  0  0  0
 14 10  1  6  0  0  0
 14  7  1  0  0  0  0
 15 16  1  0  0  0  0
 16 18  1  0  0  0  0
 17 18  2  0  0  0  0
 18 19  1  0  0  0  0
 20 24  1  1  0  0  0
 21 24  1  0  0  0  0
 22 19  1  6  0  0  0
 22 21  1  0  0  0  0
 22 23  1  0  0  0  0
 22 20  1  0  0  0  0
 23 25  1  1  0  0  0
 23 20  1  0  0  0  0
 25 27  1  0  0  0  0
 26 27  2  0  0  0  0
 27 28  1  0  0  0  0
 29 32  1  0  0  0  0
 30 29  1  0  0  0  0
 31 29  2  0  0  0  0
 32 33  1  0  0  0  0
 33 34  1  0  0  0  0
 34 35  1  0  0  0  0
 35 36  2  0  0  0  0
 38 35  1  0  0  0  0
 38 37  1  0  0  0  0
 39 38  2  0  0  0  0
 40 45  1  0  0  0  0
 40 48  1  1  0  0  0
 41 43  1  0  0  0  0
 42 40  1  0  0  0  0
 43 47  2  6  0  0  0
 43 44  1  0  0  0  0
 43 42  1  0  0  0  0
 44 46  1  0  0  0  0
 46 37  1  1  0  0  0
 46 45  1  0  0  0  0
 49 52  1  6  0  0  0
 49 51  1  0  0  0  0
 49 50  1  0  0  0  0
 51 48  1  6  0  0  0
 51 50  1  0  0  0  0
 52 53  1  1  0  0  0
 54 52  1  0  0  0  0
 55 54  1  0  0  0  0
M  END
>  <MODEL>
1

>  <REMARK>
 VINA RESULT:      -5.8      0.000      0.000
  Name = 
  20 active torsions:
  status: ('A' for Active; 'I' for Inactive)
    1  A    between atoms: C_1  and  C_18
    2  A    between atoms: C_2  and  N_44
    3  A    between atoms: C_3  and  O_22
    4  A    between atoms: C_5  and  N_24
    5  A    between atoms: C_6  and  C_18
    6  A    between atoms: S_8  and  C_16
    7  A    between atoms: S_8  and  C_23
    8  A    between atoms: N_10  and  C_35
    9  A    between atoms: C_16  and  C_31
   10  A    between atoms: O_22  and  C_49
   11  A    between atoms: C_23  and  S_34
   12  A    between atoms: N_24  and  N_29
   13  A    between atoms: C_25  and  S_34
   14  A    between atoms: C_27  and  C_28
   15  A    between atoms: C_27  and  C_40
   16  A    between atoms: C_28  and  N_42
   17  A    between atoms: C_32  and  S_47
   18  A    between atoms: C_36  and  C_55
   19  A    between atoms: C_38  and  C_55
   20  A    between atoms: C_40  and  S_47
                            x       y       z     vdW  Elec       q    Type
                         _______ _______ _______ _____ _____    ______ ____

>  <TORSDO>
F 20

$$$$
=
 OpenBabel11042417563D

 55 60  0  0  1  0  0  0  0  0999 V2000
  191.0080  174.3270  145.4510 N   0  0  0  0  0  2  0  0  0  0  0  0
  189.4840  176.5520  147.0580 C   0  0  2  0  0  3  0  0  0  0  0  0
  190.9590  175.1020  146.6850 C   0  0  1  0  0  3  0  0  0  0  0  0
  191.0880  176.8520  146.3050 S   0  0  0  0  0  0  0  0  0  0  0  0
  188.8420  174.2000  147.7470 O   0  0  0  0  0  0  0  0  0  0  0  0
  189.5670  175.0570  147.2760 C   0  0  0  0  0  0  0  0  0  0  0  0
  186.2270  177.9730  145.5370 C   0  0  0  0  0  0  0  0  0  0  0  0
  186.0100  179.1650  147.5520 C   0  0  0  0  0  2  0  0  0  0  0  0
  187.3330  177.7140  146.4150 C   0  0  0  0  0  0  0  0  0  0  0  0
  183.9670  178.1930  146.5110 C   0  0  0  0  0  1  0  0  0  0  0  0
  186.1200  177.4950  144.3340 N   0  0  0  0  0  0  0  0  0  0  0  0
  187.2330  178.3600  147.5250 N   0  0  0  0  0  0  0  0  0  0  0  0
  188.4340  176.8570  146.0970 N   0  0  0  0  0  2  0  0  0  0  0  0
  185.2820  178.9000  146.2230 C   0  0  2  0  0  3  0  0  0  0  0  0
  185.0180  177.8040  143.4340 C   0  0  0  0  0  2  0  0  0  0  0  0
  185.5140  178.6360  142.2620 C   0  0  0  0  0  2  0  0  0  0  0  0
  186.1310  177.3520  140.3960 O   0  0  0  0  0  0  0  0  0  0  0  0
  186.5190  177.9130  141.4080 C   0  0  0  0  0  0  0  0  0  0  0  0
  188.2750  177.8710  141.7990 S   0  0  0  0  0  0  0  0  0  0  0  0
  189.2540  175.6120  142.8190 C   0  0  2  0  0  3  0  0  0  0  0  0
  187.3070  175.2610  142.4460 C   0  0  0  0  0  2  0  0  0  0  0  0
  188.3340  176.0590  141.6940 C   0  0  1  0  0  0  0  0  0  0  0  0
  189.6500  175.3700  141.3710 C   0  0  2  0  0  3  0  0  0  0  0  0
  188.2550  174.7750  143.3560 O   0  0  0  0  0  0  0  0  0  0  0  0
  189.4570  173.9130  140.9430 C   0  0  0  0  0  2  0  0  0  0  0  0
  191.8690  173.6430  141.1850 C   0  0  0  0  0  2  0  0  0  0  0  0
  190.6750  173.0640  141.2090 C   0  0  0  0  0  0  0  0  0  0  0  0
  190.5920  171.5960  141.5110 C   0  0  0  0  0  1  0  0  0  0  0  0
  192.9640  173.0460  144.6390 C   0  0  0  0  0  0  0  0  0  0  0  0
  192.3480  174.2720  145.0430 N   0  0  0  0  0  2  0  0  0  0  0  0
  192.3150  171.9670  144.6600 O   0  0  0  0  0  0  0  0  0  0  0  0
  194.6670  173.0470  144.0860 S   0  0  0  0  0  0  0  0  0  0  0  0
  195.0380  171.4540  144.8810 C   0  0  0  0  0  2  0  0  0  0  0  0
  195.0400  170.1330  143.6330 S   0  0  0  0  0  0  0  0  0  0  0  0
  196.4850  170.7970  142.8070 C   0  0  0  0  0  0  0  0  0  0  0  0
  197.6080  170.8400  143.4420 N   0  0  0  0  0  2  0  0  0  0  0  0
  195.1280  171.4490  140.8000 N   0  0  0  0  0  2  0  0  0  0  0  0
  196.4070  171.2380  141.4080 C   0  0  0  0  0  0  0  0  0  0  0  0
  197.4650  171.4370  140.7500 O   0  0  0  0  0  0  0  0  0  0  0  0
  193.5210  171.7200  137.3930 C   0  0  1  0  0  3  0  0  0  0  0  0
  195.0660  175.1950  137.5480 O   0  0  0  0  0  1  0  0  0  0  0  0
  193.5490  173.0990  137.1040 O   0  0  0  0  0  0  0  0  0  0  0  0
  195.0310  173.6890  137.6920 P   0  0  2  0  0  0  0  0  0  0  0  0
  195.1230  173.2840  139.3400 O   0  0  0  0  0  0  0  0  0  0  0  0
  193.5630  171.4580  138.9010 C   0  0  0  0  0  2  0  0  0  0  0  0
  194.9380  171.8930  139.4240 C   0  0  2  0  0  3  0  0  0  0  0  0
  196.3220  173.0000  136.8390 O   0  0  0  0  0  0  0  0  0  0  0  0
  192.3600  171.1620  136.8570 O   0  0  0  0  0  0  0  0  0  0  0  0
  190.1280  171.7470  137.6050 C   0  0  1  0  0  3  0  0  0  0  0  0
  190.3390  170.3520  137.5530 O   0  0  0  0  0  0  0  0  0  0  0  0
  191.4540  171.1260  137.9250 C   0  0  1  0  0  3  0  0  0  0  0  0
  189.9750  172.3720  136.1970 C   0  0  1  0  0  3  0  0  0  0  0  0
  189.1390  171.5960  135.3970 O   0  0  0  0  0  1  0  0  0  0  0  0
  189.5390  173.8330  136.1630 C   0  0  0  0  0  2  0  0  0  0  0  0
  190.6570  174.6650  136.2110 O   0  0  0  0  0  1  0  0  0  0  0  0
  2 13  1  6  0  0  0
  2  6  1  0  0  0  0
  3  1  1  6  0  0  0
  3  6  1  0  0  0  0
  4  3  1  0  0  0  0
  4  2  1  0  0  0  0
  6  5  2  0  0  0  0
  7 14  1  0  0  0  0
  7  9  1  0  0  0  0
  9 12  2  0  0  0  0
 11  7  2  0  0  0  0
 12  8  1  0  0  0  0
 13  9  1  0  0  0  0
 14 10  1  1  0  0  0
 14  8  1  0  0  0  0
 15 11  1  0  0  0  0
 16 15  1  0  0  0  0
 17 18  2  0  0  0  0
 18 19  1  0  0  0  0
 18 16  1  0  0  0  0
 20 24  1  1  0  0  0
 21 24  1  0  0  0  0
 22 19  1  6  0  0  0
 22 21  1  0  0  0  0
 22 20  1  0  0  0  0
 23 25  1  1  0  0  0
 23 22  1  0  0  0  0
 23 20  1  0  0  0  0
 25 27  1  0  0  0  0
 26 27  2  0  0  0  0
 27 28  1  0  0  0  0
 29 31  2  0  0  0  0
 29 30  1  0  0  0  0
 30  1  1  0  0  0  0
 32 29  1  0  0  0  0
 32 33  1  0  0  0  0
 34 33  1  0  0  0  0
 35 36  2  0  0  0  0
 35 34  1  0  0  0  0
 37 38  1  0  0  0  0
 38 35  1  0  0  0  0
 39 38  2  0  0  0  0
 40 48  1  1  0  0  0
 40 45  1  0  0  0  0
 41 43  1  0  0  0  0
 42 40  1  0  0  0  0
 42 43  1  0  0  0  0
 43 47  2  6  0  0  0
 43 44  1  0  0  0  0
 44 46  1  0  0  0  0
 45 46  1  0  0  0  0
 46 37  1  1  0  0  0
 49 52  1  6  0  0  0
 49 51  1  0  0  0  0
 50 49  1  0  0  0  0
 50 51  1  0  0  0  0
 51 48  1  6  0  0  0
 52 53  1  6  0  0  0
 54 52  1  0  0  0  0
 54 55  1  0  0  0  0
M  END
>  <MODEL>
2

>  <REMARK>
 VINA RESULT:      -5.3      3.732      9.770
  Name = 
  20 active torsions:
  status: ('A' for Active; 'I' for Inactive)
    1  A    between atoms: C_1  and  C_18
    2  A    between atoms: C_2  and  N_44
    3  A    between atoms: C_3  and  O_22
    4  A    between atoms: C_5  and  N_24
    5  A    between atoms: C_6  and  C_18
    6  A    between atoms: S_8  and  C_16
    7  A    between atoms: S_8  and  C_23
    8  A    between atoms: N_10  and  C_35
    9  A    between atoms: C_16  and  C_31
   10  A    between atoms: O_22  and  C_49
   11  A    between atoms: C_23  and  S_34
   12  A    between atoms: N_24  and  N_29
   13  A    between atoms: C_25  and  S_34
   14  A    between atoms: C_27  and  C_28
   15  A    between atoms: C_27  and  C_40
   16  A    between atoms: C_28  and  N_42
   17  A    between atoms: C_32  and  S_47
   18  A    between atoms: C_36  and  C_55
   19  A    between atoms: C_38  and  C_55
   20  A    between atoms: C_40  and  S_47
                            x       y       z     vdW  Elec       q    Type
                         _______ _______ _______ _____ _____    ______ ____

>  <TORSDO>
F 20

$$$$
=
 OpenBabel11042417563D

 55 60  0  0  1  0  0  0  0  0999 V2000
  189.3820  173.8420  136.2570 N   0  0  0  0  0  2  0  0  0  0  0  0
  192.3650  174.2110  135.3500 C   0  0  2  0  0  3  0  0  0  0  0  0
  190.2900  173.9620  135.1230 C   0  0  1  0  0  3  0  0  0  0  0  0
  191.1560  175.5330  135.2070 S   0  0  0  0  0  0  0  0  0  0  0  0
  191.5940  171.7970  135.3070 O   0  0  0  0  0  0  0  0  0  0  0  0
  191.4520  173.0060  135.2790 C   0  0  0  0  0  0  0  0  0  0  0  0
  195.0510  174.7170  138.0830 C   0  0  0  0  0  0  0  0  0  0  0  0
  196.3970  175.5780  136.3580 C   0  0  0  0  0  2  0  0  0  0  0  0
  194.3500  174.7210  136.8310 C   0  0  0  0  0  0  0  0  0  0  0  0
  197.4530  174.1400  138.0950 C   0  0  0  0  0  1  0  0  0  0  0  0
  194.5270  174.3520  139.2150 N   0  0  0  0  0  0  0  0  0  0  0  0
  195.0710  175.1900  135.8720 N   0  0  0  0  0  0  0  0  0  0  0  0
  193.0010  174.2760  136.6580 N   0  0  0  0  0  2  0  0  0  0  0  0
  196.4300  175.2390  137.8580 C   0  0  2  0  0  3  0  0  0  0  0  0
  195.2330  174.4000  140.4870 C   0  0  0  0  0  2  0  0  0  0  0  0
  194.8260  173.2200  141.3570 C   0  0  0  0  0  2  0  0  0  0  0  0
  197.0020  172.3860  141.0740 O   0  0  0  0  0  0  0  0  0  0  0  0
  195.9880  172.3490  141.7500 C   0  0  0  0  0  0  0  0  0  0  0  0
  195.9540  171.2810  143.1990 S   0  0  0  0  0  0  0  0  0  0  0  0
  195.6940  172.2080  145.6830 C   0  0  2  0  0  3  0  0  0  0  0  0
  197.5140  172.7940  145.0540 C   0  0  0  0  0  2  0  0  0  0  0  0
  196.2020  172.6790  144.3300 C   0  0  1  0  0  0  0  0  0  0  0  0
  194.9960  173.3520  144.9650 C   0  0  2  0  0  3  0  0  0  0  0  0
  196.9310  172.4970  146.2930 O   0  0  0  0  0  0  0  0  0  0  0  0
  195.3370  174.7190  145.5640 C   0  0  0  0  0  2  0  0  0  0  0  0
  195.5940  176.3450  143.7650 C   0  0  0  0  0  2  0  0  0  0  0  0
  194.8200  175.8640  144.7300 C   0  0  0  0  0  0  0  0  0  0  0  0
  193.4650  176.4740  144.9370 C   0  0  0  0  0  1  0  0  0  0  0  0
  189.8190  173.3650  138.6460 C   0  0  0  0  0  0  0  0  0  0  0  0
  190.1390  174.0310  137.4210 N   0  0  0  0  0  2  0  0  0  0  0  0
  188.8210  172.5990  138.7160 O   0  0  0  0  0  0  0  0  0  0  0  0
  190.8500  173.6110  140.0880 S   0  0  0  0  0  0  0  0  0  0  0  0
  191.5720  171.9450  139.9900 C   0  0  0  0  0  2  0  0  0  0  0  0
  190.5420  170.7760  140.9250 S   0  0  0  0  0  0  0  0  0  0  0  0
  191.2490  171.2740  142.4940 C   0  0  0  0  0  0  0  0  0  0  0  0
  192.4250  170.8500  142.8170 N   0  0  0  0  0  2  0  0  0  0  0  0
  191.0900  173.4720  143.6940 N   0  0  0  0  0  2  0  0  0  0  0  0
  190.5240  172.1940  143.3800 C   0  0  0  0  0  0  0  0  0  0  0  0
  189.4030  171.8600  143.8540 O   0  0  0  0  0  0  0  0  0  0  0  0
  188.9250  176.4150  144.6460 C   0  0  1  0  0  3  0  0  0  0  0  0
  188.6430  174.4550  147.8950 O   0  0  0  0  0  1  0  0  0  0  0  0
  188.2420  175.9860  145.8000 O   0  0  0  0  0  0  0  0  0  0  0  0
  189.3520  175.0740  146.7100 P   0  0  2  0  0  0  0  0  0  0  0  0
  189.9390  173.8360  145.7040 O   0  0  0  0  0  0  0  0  0  0  0  0
  189.3750  175.2330  143.7830 C   0  0  0  0  0  2  0  0  0  0  0  0
  190.4520  174.4610  144.5540 C   0  0  2  0  0  3  0  0  0  0  0  0
  190.6240  176.0550  147.2480 O   0  0  0  0  0  0  0  0  0  0  0  0
  188.0860  177.2440  143.8970 O   0  0  0  0  0  0  0  0  0  0  0  0
  185.6910  177.0040  143.6030 C   0  0  1  0  0  3  0  0  0  0  0  0
  186.3930  177.0210  142.3780 O   0  0  0  0  0  0  0  0  0  0  0  0
  187.0560  176.4040  143.4560 C   0  0  1  0  0  3  0  0  0  0  0  0
  185.6150  178.4050  144.2570 C   0  0  1  0  0  3  0  0  0  0  0  0
  185.6570  179.4080  143.2910 O   0  0  0  0  0  1  0  0  0  0  0  0
  184.4440  178.6310  145.2090 C   0  0  0  0  0  2  0  0  0  0  0  0
  184.4510  177.6620  146.2100 O   0  0  0  0  0  1  0  0  0  0  0  0
  1 30  1  0  0  0  0
  2 13  1  1  0  0  0
  3  4  1  0  0  0  0
  3  6  1  0  0  0  0
  3  1  1  1  0  0  0
  4  2  1  0  0  0  0
  6  5  2  0  0  0  0
  6  2  1  0  0  0  0
  7 11  2  0  0  0  0
  8 14  1  0  0  0  0
  9  7  1  0  0  0  0
 11 15  1  0  0  0  0
 12  8  1  0  0  0  0
 12  9  2  0  0  0  0
 13  9  1  0  0  0  0
 14  7  1  0  0  0  0
 14 10  1  6  0  0  0
 15 16  1  0  0  0  0
 16 18  1  0  0  0  0
 17 18  2  0  0  0  0
 18 19  1  0  0  0  0
 20 24  1  1  0  0  0
 21 24  1  0  0  0  0
 22 19  1  6  0  0  0
 22 23  1  0  0  0  0
 22 21  1  0  0  0  0
 22 20  1  0  0  0  0
 23 25  1  1  0  0  0
 23 20  1  0  0  0  0
 26 27  2  0  0  0  0
 27 28  1  0  0  0  0
 27 25  1  0  0  0  0
 29 31  2  0  0  0  0
 29 32  1  0  0  0  0
 30 29  1  0  0  0  0
 33 32  1  0  0  0  0
 33 34  1  0  0  0  0
 34 35  1  0  0  0  0
 35 36  2  0  0  0  0
 35 38  1  0  0  0  0
 38 37  1  0  0  0  0
 38 39  2  0  0  0  0
 40 48  1  6  0  0  0
 40 42  1  0  0  0  0
 42 43  1  0  0  0  0
 43 47  2  1  0  0  0
 43 41  1  0  0  0  0
 44 43  1  0  0  0  0
 45 46  1  0  0  0  0
 45 40  1  0  0  0  0
 46 37  1  6  0  0  0
 46 44  1  0  0  0  0
 49 52  1  1  0  0  0
 50 51  1  0  0  0  0
 50 49  1  0  0  0  0
 51 49  1  0  0  0  0
 51 48  1  1  0  0  0
 52 53  1  6  0  0  0
 52 54  1  0  0  0  0
 54 55  1  0  0  0  0
M  END
>  <MODEL>
3

>  <REMARK>
 VINA RESULT:      -5.2      2.038      2.940
  Name = 
  20 active torsions:
  status: ('A' for Active; 'I' for Inactive)
    1  A    between atoms: C_1  and  C_18
    2  A    between atoms: C_2  and  N_44
    3  A    between atoms: C_3  and  O_22
    4  A    between atoms: C_5  and  N_24
    5  A    between atoms: C_6  and  C_18
    6  A    between atoms: S_8  and  C_16
    7  A    between atoms: S_8  and  C_23
    8  A    between atoms: N_10  and  C_35
    9  A    between atoms: C_16  and  C_31
   10  A    between atoms: O_22  and  C_49
   11  A    between atoms: C_23  and  S_34
   12  A    between atoms: N_24  and  N_29
   13  A    between atoms: C_25  and  S_34
   14  A    between atoms: C_27  and  C_28
   15  A    between atoms: C_27  and  C_40
   16  A    between atoms: C_28  and  N_42
   17  A    between atoms: C_32  and  S_47
   18  A    between atoms: C_36  and  C_55
   19  A    between atoms: C_38  and  C_55
   20  A    between atoms: C_40  and  S_47
                            x       y       z     vdW  Elec       q    Type
                         _______ _______ _______ _____ _____    ______ ____

>  <TORSDO>
F 20

$$$$
=
 OpenBabel11042417563D

 55 60  0  0  1  0  0  0  0  0999 V2000
  191.6370  172.8850  144.5290 N   0  0  0  0  0  2  0  0  0  0  0  0
  189.1050  173.0210  142.6770 C   0  0  2  0  0  3  0  0  0  0  0  0
  190.8590  172.2040  143.5000 C   0  0  1  0  0  3  0  0  0  0  0  0
  189.1880  171.9210  144.0960 S   0  0  0  0  0  0  0  0  0  0  0  0
  191.2410  173.7270  141.5100 O   0  0  0  0  0  0  0  0  0  0  0  0
  190.5770  173.1460  142.3500 C   0  0  0  0  0  0  0  0  0  0  0  0
  187.6710  176.6070  142.5130 C   0  0  0  0  0  0  0  0  0  0  0  0
  187.5060  176.2500  140.1950 C   0  0  0  0  0  2  0  0  0  0  0  0
  188.1140  175.2880  142.1590 C   0  0  0  0  0  0  0  0  0  0  0  0
  188.2300  178.4880  141.0130 C   0  0  0  0  0  1  0  0  0  0  0  0
  187.5970  177.0510  143.7320 N   0  0  0  0  0  0  0  0  0  0  0  0
  188.0300  175.0720  140.8910 N   0  0  0  0  0  0  0  0  0  0  0  0
  188.5770  174.3110  143.0960 N   0  0  0  0  0  2  0  0  0  0  0  0
  187.2810  177.3280  141.2690 C   0  0  2  0  0  3  0  0  0  0  0  0
  187.0990  178.3730  144.0840 C   0  0  0  0  0  2  0  0  0  0  0  0
  186.0380  178.2640  145.1670 C   0  0  0  0  0  2  0  0  0  0  0  0
  185.8510  176.1810  146.2330 O   0  0  0  0  0  0  0  0  0  0  0  0
  186.3920  177.2740  146.2430 C   0  0  0  0  0  0  0  0  0  0  0  0
  187.6070  177.6260  147.5240 S   0  0  0  0  0  0  0  0  0  0  0  0
  190.1500  176.8300  147.5120 C   0  0  2  0  0  3  0  0  0  0  0  0
  189.0540  175.2090  147.0380 C   0  0  0  0  0  2  0  0  0  0  0  0
  188.8910  176.6590  146.6780 C   0  0  1  0  0  0  0  0  0  0  0  0
  190.1000  177.3700  146.0920 C   0  0  2  0  0  3  0  0  0  0  0  0
  190.2880  175.4350  147.6600 O   0  0  0  0  0  0  0  0  0  0  0  0
  190.8700  176.4950  145.1000 C   0  0  0  0  0  2  0  0  0  0  0  0
  191.6700  176.5300  142.7970 C   0  0  0  0  0  2  0  0  0  0  0  0
  191.2340  177.2310  143.8360 C   0  0  0  0  0  0  0  0  0  0  0  0
  191.1130  178.7210  143.6990 C   0  0  0  0  0  1  0  0  0  0  0  0
  194.0310  173.2800  145.0120 C   0  0  0  0  0  0  0  0  0  0  0  0
  192.9890  172.7540  144.1860 N   0  0  0  0  0  2  0  0  0  0  0  0
  193.7550  173.9020  146.0720 O   0  0  0  0  0  0  0  0  0  0  0  0
  195.7430  173.0420  144.5450 S   0  0  0  0  0  0  0  0  0  0  0  0
  196.1820  174.7790  144.8540 C   0  0  0  0  0  2  0  0  0  0  0  0
  195.4040  175.8390  143.5990 S   0  0  0  0  0  0  0  0  0  0  0  0
  196.7970  175.6890  142.4830 C   0  0  0  0  0  0  0  0  0  0  0  0
  197.9410  176.1720  142.8360 N   0  0  0  0  0  2  0  0  0  0  0  0
  196.0140  175.6270  140.1000 N   0  0  0  0  0  2  0  0  0  0  0  0
  196.6550  174.9790  141.2050 C   0  0  0  0  0  0  0  0  0  0  0  0
  197.1040  173.8060  141.0820 O   0  0  0  0  0  0  0  0  0  0  0  0
  194.1930  174.4240  137.0190 C   0  0  1  0  0  3  0  0  0  0  0  0
  197.5620  175.1610  135.4100 O   0  0  0  0  0  0  0  0  0  0  0  0
  195.0140  174.8300  135.9480 O   0  0  0  0  0  0  0  0  0  0  0  0
  196.6210  174.6050  136.4570 P   0  0  2  0  0  0  0  0  0  0  0  0
  196.8230  175.4720  137.9040 O   0  0  0  0  0  0  0  0  0  0  0  0
  194.4150  175.2910  138.2610 C   0  0  0  0  0  2  0  0  0  0  0  0
  195.8280  175.0180  138.7890 C   0  0  2  0  0  3  0  0  0  0  0  0
  196.9390  172.9590  136.7020 O   0  0  0  0  0  1  0  0  0  0  0  0
  192.8550  174.5070  136.6280 O   0  0  0  0  0  0  0  0  0  0  0  0
  191.1020  172.8890  136.1900 C   0  0  1  0  0  3  0  0  0  0  0  0
  191.6900  173.3920  135.0080 O   0  0  0  0  0  0  0  0  0  0  0  0
  192.5560  173.2410  136.1070 C   0  0  1  0  0  3  0  0  0  0  0  0
  190.1740  173.9230  136.8730 C   0  0  1  0  0  3  0  0  0  0  0  0
  189.1280  174.2860  136.0270 O   0  0  0  0  0  1  0  0  0  0  0  0
  189.6380  173.5280  138.2450 C   0  0  0  0  0  2  0  0  0  0  0  0
  190.1040  172.2620  138.5930 O   0  0  0  0  0  1  0  0  0  0  0  0
  2 13  1  1  0  0  0
  2  4  1  0  0  0  0
  3  4  1  0  0  0  0
  3  1  1  1  0  0  0
  5  6  2  0  0  0  0
  6  2  1  0  0  0  0
  6  3  1  0  0  0  0
  7 11  2  0  0  0  0
  8 12  1  0  0  0  0
  8 14  1  0  0  0  0
  9  7  1  0  0  0  0
  9 13  1  0  0  0  0
 11 15  1  0  0  0  0
 12  9  2  0  0  0  0
 14 10  1  6  0  0  0
 14  7  1  0  0  0  0
 15 16  1  0  0  0  0
 16 18  1  0  0  0  0
 17 18  2  0  0  0  0
 18 19  1  0  0  0  0
 20 24  1  6  0  0  0
 21 24  1  0  0  0  0
 22 21  1  0  0  0  0
 22 20  1  0  0  0  0
 22 19  1  1  0  0  0
 23 25  1  6  0  0  0
 23 22  1  0  0  0  0
 23 20  1  0  0  0  0
 26 27  2  0  0  0  0
 27 25  1  0  0  0  0
 28 27  1  0  0  0  0
 29 31  2  0  0  0  0
 30  1  1  0  0  0  0
 30 29  1  0  0  0  0
 32 33  1  0  0  0  0
 32 29  1  0  0  0  0
 34 33  1  0  0  0  0
 35 36  2  0  0  0  0
 35 34  1  0  0  0  0
 37 38  1  0  0  0  0
 38 35  1  0  0  0  0
 39 38  2  0  0  0  0
 40 48  1  6  0  0  0
 40 45  1  0  0  0  0
 42 43  1  0  0  0  0
 42 40  1  0  0  0  0
 43 41  2  6  0  0  0
 43 47  1  0  0  0  0
 43 44  1  0  0  0  0
 44 46  1  0  0  0  0
 45 46  1  0  0  0  0
 46 37  1  1  0  0  0
 49 52  1  1  0  0  0
 50 51  1  0  0  0  0
 50 49  1  0  0  0  0
 51 49  1  0  0  0  0
 51 48  1  1  0  0  0
 52 53  1  6  0  0  0
 52 54  1  0  0  0  0
 54 55  1  0  0  0  0
M  END
>  <MODEL>
4

>  <REMARK>
 VINA RESULT:      -5.2      3.227      8.766
  Name = 
  20 active torsions:
  status: ('A' for Active; 'I' for Inactive)
    1  A    between atoms: C_1  and  C_18
    2  A    between atoms: C_2  and  N_44
    3  A    between atoms: C_3  and  O_22
    4  A    between atoms: C_5  and  N_24
    5  A    between atoms: C_6  and  C_18
    6  A    between atoms: S_8  and  C_16
    7  A    between atoms: S_8  and  C_23
    8  A    between atoms: N_10  and  C_35
    9  A    between atoms: C_16  and  C_31
   10  A    between atoms: O_22  and  C_49
   11  A    between atoms: C_23  and  S_34
   12  A    between atoms: N_24  and  N_29
   13  A    between atoms: C_25  and  S_34
   14  A    between atoms: C_27  and  C_28
   15  A    between atoms: C_27  and  C_40
   16  A    between atoms: C_28  and  N_42
   17  A    between atoms: C_32  and  S_47
   18  A    between atoms: C_36  and  C_55
   19  A    between atoms: C_38  and  C_55
   20  A    between atoms: C_40  and  S_47
                            x       y       z     vdW  Elec       q    Type
                         _______ _______ _______ _____ _____    ______ ____

>  <TORSDO>
F 20

$$$$
=
 OpenBabel11042417563D

 55 60  0  0  1  0  0  0  0  0999 V2000
  193.2460  171.1520  142.5220 N   0  0  0  0  0  2  0  0  0  0  0  0
  195.5290  171.2990  140.3720 C   0  0  2  0  0  3  0  0  0  0  0  0
  194.5410  170.6290  142.1020 C   0  0  1  0  0  3  0  0  0  0  0  0
  194.3970  169.9060  140.4640 S   0  0  0  0  0  0  0  0  0  0  0  0
  196.0260  172.6520  142.4560 O   0  0  0  0  0  0  0  0  0  0  0  0
  195.4950  171.7660  141.8100 C   0  0  0  0  0  0  0  0  0  0  0  0
  195.2190  173.9400  137.5660 C   0  0  0  0  0  0  0  0  0  0  0  0
  197.3230  173.1720  136.8480 C   0  0  0  0  0  2  0  0  0  0  0  0
  195.6910  172.8670  138.3950 C   0  0  0  0  0  0  0  0  0  0  0  0
  196.8450  175.6140  136.7560 C   0  0  0  0  0  1  0  0  0  0  0  0
  194.0600  174.5110  137.6970 N   0  0  0  0  0  0  0  0  0  0  0  0
  196.8430  172.4310  138.0170 N   0  0  0  0  0  0  0  0  0  0  0  0
  194.9670  172.3230  139.5030 N   0  0  0  0  0  2  0  0  0  0  0  0
  196.2530  174.2320  136.5320 C   0  0  2  0  0  3  0  0  0  0  0  0
  193.5710  175.5650  136.8190 C   0  0  0  0  0  2  0  0  0  0  0  0
  192.1300  175.2880  136.4180 C   0  0  0  0  0  2  0  0  0  0  0  0
  192.8080  173.8630  134.6810 O   0  0  0  0  0  0  0  0  0  0  0  0
  191.9820  174.0660  135.5550 C   0  0  0  0  0  0  0  0  0  0  0  0
  190.6540  172.8720  135.7830 S   0  0  0  0  0  0  0  0  0  0  0  0
  190.1790  171.4860  138.0090 C   0  0  2  0  0  3  0  0  0  0  0  0
  192.1470  171.2870  137.6350 C   0  0  0  0  0  2  0  0  0  0  0  0
  191.2150  172.4530  137.4580 C   0  0  1  0  0  0  0  0  0  0  0  0
  190.3640  172.8500  138.6540 C   0  0  2  0  0  3  0  0  0  0  0  0
  191.1660  170.5160  138.2710 O   0  0  0  0  0  0  0  0  0  0  0  0
  191.1380  172.7780  139.9720 C   0  0  0  0  0  2  0  0  0  0  0  0
  190.4600  174.3490  141.7110 C   0  0  0  0  0  2  0  0  0  0  0  0
  190.2920  173.1510  141.1640 C   0  0  0  0  0  0  0  0  0  0  0  0
  189.2630  172.2290  141.7500 C   0  0  0  0  0  1  0  0  0  0  0  0
  192.5380  172.6180  144.3860 C   0  0  0  0  0  0  0  0  0  0  0  0
  193.4900  172.2200  143.3960 N   0  0  0  0  0  2  0  0  0  0  0  0
  191.4320  172.0230  144.4840 O   0  0  0  0  0  0  0  0  0  0  0  0
  192.9240  173.9620  145.5040 S   0  0  0  0  0  0  0  0  0  0  0  0
  194.1890  174.6600  144.3990 C   0  0  0  0  0  2  0  0  0  0  0  0
  193.4070  175.7950  143.2150 S   0  0  0  0  0  0  0  0  0  0  0  0
  192.7450  176.8340  144.5150 C   0  0  0  0  0  0  0  0  0  0  0  0
  193.5240  177.2210  145.4690 N   0  0  0  0  0  2  0  0  0  0  0  0
  190.3460  176.5620  145.1990 N   0  0  0  0  0  2  0  0  0  0  0  0
  191.3480  177.2840  144.4720 C   0  0  0  0  0  0  0  0  0  0  0  0
  191.0350  178.3060  143.8020 O   0  0  0  0  0  0  0  0  0  0  0  0
  186.7920  176.9300  143.9770 C   0  0  1  0  0  3  0  0  0  0  0  0
  186.0630  176.6240  147.7000 O   0  0  0  0  0  1  0  0  0  0  0  0
  186.0040  176.5360  145.0760 O   0  0  0  0  0  0  0  0  0  0  0  0
  186.7760  177.1360  146.4670 P   0  0  2  0  0  0  0  0  0  0  0  0
  188.3690  176.5450  146.4600 O   0  0  0  0  0  0  0  0  0  0  0  0
  188.1920  176.3130  144.0360 C   0  0  0  0  0  2  0  0  0  0  0  0
  188.9350  176.9260  145.2300 C   0  0  2  0  0  3  0  0  0  0  0  0
  186.7720  178.8300  146.4630 O   0  0  0  0  0  0  0  0  0  0  0  0
  186.1610  176.5370  142.7950 O   0  0  0  0  0  0  0  0  0  0  0  0
  185.2880  178.4350  141.5650 C   0  0  1  0  0  3  0  0  0  0  0  0
  186.2780  178.8000  142.5030 O   0  0  0  0  0  0  0  0  0  0  0  0
  186.4570  177.5530  141.8780 C   0  0  1  0  0  3  0  0  0  0  0  0
  183.9430  178.0720  142.2400 C   0  0  1  0  0  3  0  0  0  0  0  0
  183.7660  178.7960  143.4170 O   0  0  0  0  0  1  0  0  0  0  0  0
  182.7050  178.1820  141.3550 C   0  0  0  0  0  2  0  0  0  0  0  0
  183.0060  177.7640  140.0600 O   0  0  0  0  0  1  0  0  0  0  0  0
  1 30  1  0  0  0  0
  2 13  1  6  0  0  0
  2  4  1  0  0  0  0
  2  6  1  0  0  0  0
  3  1  1  6  0  0  0
  4  3  1  0  0  0  0
  6  3  1  0  0  0  0
  6  5  2  0  0  0  0
  7 11  2  0  0  0  0
  7  9  1  0  0  0  0
  8 12  1  0  0  0  0
  9 13  1  0  0  0  0
 12  9  2  0  0  0  0
 14 10  1  1  0  0  0
 14  8  1  0  0  0  0
 14  7  1  0  0  0  0
 15 11  1  0  0  0  0
 16 15  1  0  0  0  0
 17 18  2  0  0  0  0
 18 19  1  0  0  0  0
 18 16  1  0  0  0  0
 20 24  1  1  0  0  0
 20 23  1  0  0  0  0
 21 24  1  0  0  0  0
 22 19  1  6  0  0  0
 22 21  1  0  0  0  0
 22 20  1  0  0  0  0
 22 23  1  0  0  0  0
 23 25  1  1  0  0  0
 25 27  1  0  0  0  0
 27 26  2  0  0  0  0
 27 28  1  0  0  0  0
 29 31  2  0  0  0  0
 29 32  1  0  0  0  0
 30 29  1  0  0  0  0
 33 32  1  0  0  0  0
 34 33  1  0  0  0  0
 34 35  1  0  0  0  0
 35 36  2  0  0  0  0
 38 35  1  0  0  0  0
 38 37  1  0  0  0  0
 39 38  2  0  0  0  0
 40 48  1  6  0  0  0
 40 45  1  0  0  0  0
 40 42  1  0  0  0  0
 42 43  1  0  0  0  0
 43 47  2  6  0  0  0
 43 41  1  0  0  0  0
 44 43  1  0  0  0  0
 45 46  1  0  0  0  0
 46 37  1  1  0  0  0
 46 44  1  0  0  0  0
 49 51  1  0  0  0  0
 49 52  1  1  0  0  0
 49 50  1  0  0  0  0
 51 50  1  0  0  0  0
 51 48  1  1  0  0  0
 52 53  1  1  0  0  0
 54 52  1  0  0  0  0
 55 54  1  0  0  0  0
M  END
>  <MODEL>
5

>  <REMARK>
 VINA RESULT:      -5.2      2.484      5.620
  Name = 
  20 active torsions:
  status: ('A' for Active; 'I' for Inactive)
    1  A    between atoms: C_1  and  C_18
    2  A    between atoms: C_2  and  N_44
    3  A    between atoms: C_3  and  O_22
    4  A    between atoms: C_5  and  N_24
    5  A    between atoms: C_6  and  C_18
    6  A    between atoms: S_8  and  C_16
    7  A    between atoms: S_8  and  C_23
    8  A    between atoms: N_10  and  C_35
    9  A    between atoms: C_16  and  C_31
   10  A    between atoms: O_22  and  C_49
   11  A    between atoms: C_23  and  S_34
   12  A    between atoms: N_24  and  N_29
   13  A    between atoms: C_25  and  S_34
   14  A    between atoms: C_27  and  C_28
   15  A    between atoms: C_27  and  C_40
   16  A    between atoms: C_28  and  N_42
   17  A    between atoms: C_32  and  S_47
   18  A    between atoms: C_36  and  C_55
   19  A    between atoms: C_38  and  C_55
   20  A    between atoms: C_40  and  S_47
                            x       y       z     vdW  Elec       q    Type
                         _______ _______ _______ _____ _____    ______ ____

>  <TORSDO>
F 20

$$$$
=
 OpenBabel11042417563D

 55 60  0  0  1  0  0  0  0  0999 V2000
  194.1550  175.3520  144.3400 N   0  0  0  0  0  2  0  0  0  0  0  0
  196.3700  175.3430  142.1150 C   0  0  2  0  0  3  0  0  0  0  0  0
  195.0970  176.1600  143.5750 C   0  0  1  0  0  3  0  0  0  0  0  0
  196.7690  175.5660  143.8530 S   0  0  0  0  0  0  0  0  0  0  0  0
  194.0860  176.0240  141.2540 O   0  0  0  0  0  0  0  0  0  0  0  0
  194.9530  175.8710  142.0970 C   0  0  0  0  0  0  0  0  0  0  0  0
  196.7980  172.0450  140.1450 C   0  0  0  0  0  0  0  0  0  0  0  0
  197.8110  173.3680  138.4860 C   0  0  0  0  0  2  0  0  0  0  0  0
  196.8550  173.4220  140.5440 C   0  0  0  0  0  0  0  0  0  0  0  0
  196.3040  171.5150  137.7830 C   0  0  0  0  0  1  0  0  0  0  0  0
  196.3450  171.0840  140.8930 N   0  0  0  0  0  0  0  0  0  0  0  0
  197.4090  174.1650  139.6480 N   0  0  0  0  0  0  0  0  0  0  0  0
  196.3760  173.9230  141.7960 N   0  0  0  0  0  2  0  0  0  0  0  0
  197.3790  171.9210  138.7780 C   0  0  2  0  0  3  0  0  0  0  0  0
  196.3370  169.6830  140.4970 C   0  0  0  0  0  2  0  0  0  0  0  0
  194.9080  169.1680  140.4170 C   0  0  0  0  0  2  0  0  0  0  0  0
  195.1370  168.6150  142.6860 O   0  0  0  0  0  0  0  0  0  0  0  0
  194.3670  168.7180  141.7460 C   0  0  0  0  0  0  0  0  0  0  0  0
  192.6230  168.3600  142.0130 S   0  0  0  0  0  0  0  0  0  0  0  0
  190.8390  170.3320  142.1810 C   0  0  2  0  0  3  0  0  0  0  0  0
  192.6480  171.2150  142.1370 C   0  0  0  0  0  2  0  0  0  0  0  0
  192.1170  170.0020  141.4270 C   0  0  1  0  0  0  0  0  0  0  0  0
  190.8070  170.1560  140.6710 C   0  0  2  0  0  3  0  0  0  0  0  0
  191.3930  171.5310  142.6730 O   0  0  0  0  0  0  0  0  0  0  0  0
  190.7150  171.4890  139.9250 C   0  0  0  0  0  2  0  0  0  0  0  0
  189.3010  172.4770  138.2010 C   0  0  0  0  0  2  0  0  0  0  0  0
  189.9110  171.3890  138.6530 C   0  0  0  0  0  0  0  0  0  0  0  0
  189.7820  170.1140  137.8710 C   0  0  0  0  0  1  0  0  0  0  0  0
  191.7160  175.3390  144.7590 C   0  0  0  0  0  0  0  0  0  0  0  0
  192.8860  175.9260  144.1830 N   0  0  0  0  0  2  0  0  0  0  0  0
  191.7950  174.2650  145.4130 O   0  0  0  0  0  0  0  0  0  0  0  0
  190.1290  176.1420  144.5610 S   0  0  0  0  0  0  0  0  0  0  0  0
  190.2650  176.2060  142.7490 C   0  0  0  0  0  2  0  0  0  0  0  0
  189.6320  174.6600  142.0330 S   0  0  0  0  0  0  0  0  0  0  0  0
  188.1770  175.4640  141.3660 C   0  0  0  0  0  0  0  0  0  0  0  0
  187.9050  175.3310  140.1110 N   0  0  0  0  0  2  0  0  0  0  0  0
  186.7340  177.4700  141.7980 N   0  0  0  0  0  2  0  0  0  0  0  0
  187.2750  176.2210  142.2440 C   0  0  0  0  0  0  0  0  0  0  0  0
  186.9730  175.7660  143.3810 O   0  0  0  0  0  0  0  0  0  0  0  0
  183.4590  178.9230  142.9900 C   0  0  1  0  0  3  0  0  0  0  0  0
  185.4040  179.2150  146.2480 O   0  0  0  0  0  1  0  0  0  0  0  0
  183.5680  178.9220  144.3940 O   0  0  0  0  0  0  0  0  0  0  0  0
  185.1750  179.3420  144.7570 P   0  0  2  0  0  0  0  0  0  0  0  0
  186.1840  178.2430  143.9440 O   0  0  0  0  0  0  0  0  0  0  0  0
  184.3710  177.8720  142.3510 C   0  0  0  0  0  2  0  0  0  0  0  0
  185.8260  178.2960  142.5840 C   0  0  2  0  0  3  0  0  0  0  0  0
  185.5000  180.9270  144.2570 O   0  0  0  0  0  0  0  0  0  0  0  0
  182.1340  178.6670  142.6320 O   0  0  0  0  0  0  0  0  0  0  0  0
  180.8450  178.2090  140.6290 C   0  0  1  0  0  3  0  0  0  0  0  0
  181.6570  179.3580  140.5060 O   0  0  0  0  0  0  0  0  0  0  0  0
  182.1920  178.3100  141.2790 C   0  0  1  0  0  3  0  0  0  0  0  0
  179.6160  178.4510  141.5370 C   0  0  1  0  0  3  0  0  0  0  0  0
  179.0390  179.6920  141.2720 O   0  0  0  0  0  1  0  0  0  0  0  0
  178.5530  177.3560  141.5220 C   0  0  0  0  0  2  0  0  0  0  0  0
  178.3650  176.8590  142.8100 O   0  0  0  0  0  1  0  0  0  0  0  0
  2 13  1  1  0  0  0
  2  4  1  0  0  0  0
  3  4  1  0  0  0  0
  3  1  1  1  0  0  0
  5  6  2  0  0  0  0
  6  2  1  0  0  0  0
  6  3  1  0  0  0  0
  7  9  1  0  0  0  0
  7 11  2  0  0  0  0
  8 14  1  0  0  0  0
  8 12  1  0  0  0  0
  9 13  1  0  0  0  0
 12  9  2  0  0  0  0
 14 10  1  6  0  0  0
 14  7  1  0  0  0  0
 15 11  1  0  0  0  0
 16 15  1  0  0  0  0
 16 18  1  0  0  0  0
 18 19  1  0  0  0  0
 18 17  2  0  0  0  0
 20 24  1  6  0  0  0
 21 24  1  0  0  0  0
 22 19  1  1  0  0  0
 22 21  1  0  0  0  0
 22 20  1  0  0  0  0
 23 25  1  6  0  0  0
 23 22  1  0  0  0  0
 23 20  1  0  0  0  0
 26 27  2  0  0  0  0
 27 25  1  0  0  0  0
 28 27  1  0  0  0  0
 29 31  2  0  0  0  0
 30  1  1  0  0  0  0
 30 29  1  0  0  0  0
 32 29  1  0  0  0  0
 33 32  1  0  0  0  0
 34 33  1  0  0  0  0
 35 34  1  0  0  0  0
 35 38  1  0  0  0  0
 36 35  2  0  0  0  0
 37 38  1  0  0  0  0
 38 39  2  0  0  0  0
 40 48  1  1  0  0  0
 40 42  1  0  0  0  0
 42 43  1  0  0  0  0
 43 47  2  6  0  0  0
 43 41  1  0  0  0  0
 44 43  1  0  0  0  0
 45 46  1  0  0  0  0
 45 40  1  0  0  0  0
 46 37  1  6  0  0  0
 46 44  1  0  0  0  0
 49 51  1  0  0  0  0
 49 52  1  1  0  0  0
 50 49  1  0  0  0  0
 50 51  1  0  0  0  0
 51 48  1  1  0  0  0
 52 53  1  6  0  0  0
 54 52  1  0  0  0  0
 54 55  1  0  0  0  0
M  END
>  <MODEL>
6

>  <REMARK>
 VINA RESULT:      -4.8      3.437      6.691
  Name = 
  20 active torsions:
  status: ('A' for Active; 'I' for Inactive)
    1  A    between atoms: C_1  and  C_18
    2  A    between atoms: C_2  and  N_44
    3  A    between atoms: C_3  and  O_22
    4  A    between atoms: C_5  and  N_24
    5  A    between atoms: C_6  and  C_18
    6  A    between atoms: S_8  and  C_16
    7  A    between atoms: S_8  and  C_23
    8  A    between atoms: N_10  and  C_35
    9  A    between atoms: C_16  and  C_31
   10  A    between atoms: O_22  and  C_49
   11  A    between atoms: C_23  and  S_34
   12  A    between atoms: N_24  and  N_29
   13  A    between atoms: C_25  and  S_34
   14  A    between atoms: C_27  and  C_28
   15  A    between atoms: C_27  and  C_40
   16  A    between atoms: C_28  and  N_42
   17  A    between atoms: C_32  and  S_47
   18  A    between atoms: C_36  and  C_55
   19  A    between atoms: C_38  and  C_55
   20  A    between atoms: C_40  and  S_47
                            x       y       z     vdW  Elec       q    Type
                         _______ _______ _______ _____ _____    ______ ____

>  <TORSDO>
F 20

$$$$
=
 OpenBabel11042417563D

 55 60  0  0  1  0  0  0  0  0999 V2000
  191.9100  173.2420  137.3290 N   0  0  0  0  0  2  0  0  0  0  0  0
  188.7810  173.3380  137.5690 C   0  0  2  0  0  3  0  0  0  0  0  0
  190.6420  173.0000  136.6510 C   0  0  1  0  0  3  0  0  0  0  0  0
  189.6880  171.7870  137.5680 S   0  0  0  0  0  0  0  0  0  0  0  0
  189.7600  175.3640  136.4030 O   0  0  0  0  0  0  0  0  0  0  0  0
  189.7390  174.2070  136.7840 C   0  0  0  0  0  0  0  0  0  0  0  0
  187.8110  175.5620  140.5780 C   0  0  0  0  0  0  0  0  0  0  0  0
  186.4550  176.7330  139.0550 C   0  0  0  0  0  2  0  0  0  0  0  0
  187.8840  174.9830  139.2670 C   0  0  0  0  0  0  0  0  0  0  0  0
  187.7020  178.0220  140.7830 C   0  0  0  0  0  1  0  0  0  0  0  0
  188.4110  175.0810  141.6250 N   0  0  0  0  0  0  0  0  0  0  0  0
  187.1460  175.6100  138.4170 N   0  0  0  0  0  0  0  0  0  0  0  0
  188.6650  173.8320  138.9330 N   0  0  0  0  0  2  0  0  0  0  0  0
  186.9110  176.7490  140.5240 C   0  0  2  0  0  3  0  0  0  0  0  0
  188.2900  175.6480  142.9600 C   0  0  0  0  0  2  0  0  0  0  0  0
  189.6040  176.2890  143.3800 C   0  0  0  0  0  2  0  0  0  0  0  0
  190.0920  177.9080  145.0080 O   0  0  0  0  0  0  0  0  0  0  0  0
  189.5780  176.8240  144.7850 C   0  0  0  0  0  0  0  0  0  0  0  0
  188.7890  175.9460  146.1440 S   0  0  0  0  0  0  0  0  0  0  0  0
  186.3080  176.4570  146.9730 C   0  0  2  0  0  3  0  0  0  0  0  0
  187.4000  178.0850  147.4350 C   0  0  0  0  0  2  0  0  0  0  0  0
  187.4440  177.1620  146.2500 C   0  0  1  0  0  0  0  0  0  0  0  0
  186.1340  176.8940  145.5270 C   0  0  2  0  0  3  0  0  0  0  0  0
  186.2560  177.4660  147.9560 O   0  0  0  0  0  0  0  0  0  0  0  0
  185.2720  178.1510  145.3920 C   0  0  0  0  0  2  0  0  0  0  0  0
  184.4740  177.8930  143.1010 C   0  0  0  0  0  2  0  0  0  0  0  0
  185.1630  178.6290  143.9660 C   0  0  0  0  0  0  0  0  0  0  0  0
  185.7880  179.9060  143.4860 C   0  0  0  0  0  1  0  0  0  0  0  0
  193.6510  174.7020  136.3480 C   0  0  0  0  0  0  0  0  0  0  0  0
  192.8690  173.5040  136.3410 N   0  0  0  0  0  2  0  0  0  0  0  0
  193.4790  175.5730  137.2420 O   0  0  0  0  0  0  0  0  0  0  0  0
  194.8930  174.9610  135.0860 S   0  0  0  0  0  0  0  0  0  0  0  0
  195.6130  173.3060  135.3010 C   0  0  0  0  0  2  0  0  0  0  0  0
  197.4240  173.4320  135.3760 S   0  0  0  0  0  0  0  0  0  0  0  0
  197.4020  173.9940  137.0770 C   0  0  0  0  0  0  0  0  0  0  0  0
  197.6770  175.2290  137.3350 N   0  0  0  0  0  2  0  0  0  0  0  0
  196.2190  173.5540  139.2450 N   0  0  0  0  0  2  0  0  0  0  0  0
  197.0240  173.0780  138.1600 C   0  0  0  0  0  0  0  0  0  0  0  0
  197.4030  171.8740  138.1290 O   0  0  0  0  0  0  0  0  0  0  0  0
  195.2840  172.6720  142.7960 C   0  0  1  0  0  3  0  0  0  0  0  0
  193.0480  170.1680  141.0030 O   0  0  0  0  0  0  0  0  0  0  0  0
  194.1140  171.8980  142.6660 O   0  0  0  0  0  0  0  0  0  0  0  0
  194.3290  170.9210  141.2900 P   0  0  2  0  0  0  0  0  0  0  0  0
  194.6740  171.9510  139.9830 O   0  0  0  0  0  0  0  0  0  0  0  0
  195.4850  173.5980  141.5930 C   0  0  0  0  0  2  0  0  0  0  0  0
  195.7820  172.7290  140.3650 C   0  0  2  0  0  3  0  0  0  0  0  0
  195.5980  169.8260  141.5340 O   0  0  0  0  0  1  0  0  0  0  0  0
  195.2010  173.4360  143.9610 O   0  0  0  0  0  0  0  0  0  0  0  0
  195.7310  175.7410  144.4980 C   0  0  1  0  0  3  0  0  0  0  0  0
  196.6880  174.8300  144.9970 O   0  0  0  0  0  0  0  0  0  0  0  0
  196.1030  174.4900  143.7630 C   0  0  1  0  0  3  0  0  0  0  0  0
  194.4100  175.7080  145.3030 C   0  0  1  0  0  3  0  0  0  0  0  0
  194.5780  176.2920  146.5570 O   0  0  0  0  0  1  0  0  0  0  0  0
  193.1890  176.2950  144.6010 C   0  0  0  0  0  2  0  0  0  0  0  0
  193.4590  176.4710  143.2450 O   0  0  0  0  0  1  0  0  0  0  0  0
  2 13  1  1  0  0  0
  3  6  1  0  0  0  0
  3  1  1  1  0  0  0
  3  4  1  0  0  0  0
  4  2  1  0  0  0  0
  5  6  2  0  0  0  0
  6  2  1  0  0  0  0
  7 11  2  0  0  0  0
  8 14  1  0  0  0  0
  9  7  1  0  0  0  0
 11 15  1  0  0  0  0
 12  8  1  0  0  0  0
 12  9  2  0  0  0  0
 13  9  1  0  0  0  0
 14  7  1  0  0  0  0
 14 10  1  6  0  0  0
 15 16  1  0  0  0  0
 16 18  1  0  0  0  0
 18 17  2  0  0  0  0
 18 19  1  0  0  0  0
 20 24  1  1  0  0  0
 21 24  1  0  0  0  0
 22 19  1  6  0  0  0
 22 20  1  0  0  0  0
 22 21  1  0  0  0  0
 23 25  1  1  0  0  0
 23 22  1  0  0  0  0
 23 20  1  0  0  0  0
 26 27  2  0  0  0  0
 27 25  1  0  0  0  0
 28 27  1  0  0  0  0
 29 31  2  0  0  0  0
 30 29  1  0  0  0  0
 30  1  1  0  0  0  0
 32 33  1  0  0  0  0
 32 29  1  0  0  0  0
 33 34  1  0  0  0  0
 34 35  1  0  0  0  0
 35 36  2  0  0  0  0
 35 38  1  0  0  0  0
 38 37  1  0  0  0  0
 39 38  2  0  0  0  0
 40 48  1  1  0  0  0
 42 40  1  0  0  0  0
 43 41  2  6  0  0  0
 43 47  1  0  0  0  0
 43 42  1  0  0  0  0
 44 46  1  0  0  0  0
 44 43  1  0  0  0  0
 45 40  1  0  0  0  0
 46 37  1  6  0  0  0
 46 45  1  0  0  0  0
 49 50  1  0  0  0  0
 49 52  1  1  0  0  0
 51 48  1  1  0  0  0
 51 49  1  0  0  0  0
 51 50  1  0  0  0  0
 52 53  1  1  0  0  0
 54 52  1  0  0  0  0
 55 54  1  0  0  0  0
M  END
>  <MODEL>
7

>  <REMARK>
 VINA RESULT:      -4.8      3.205      8.234
  Name = 
  20 active torsions:
  status: ('A' for Active; 'I' for Inactive)
    1  A    between atoms: C_1  and  C_18
    2  A    between atoms: C_2  and  N_44
    3  A    between atoms: C_3  and  O_22
    4  A    between atoms: C_5  and  N_24
    5  A    between atoms: C_6  and  C_18
    6  A    between atoms: S_8  and  C_16
    7  A    between atoms: S_8  and  C_23
    8  A    between atoms: N_10  and  C_35
    9  A    between atoms: C_16  and  C_31
   10  A    between atoms: O_22  and  C_49
   11  A    between atoms: C_23  and  S_34
   12  A    between atoms: N_24  and  N_29
   13  A    between atoms: C_25  and  S_34
   14  A    between atoms: C_27  and  C_28
   15  A    between atoms: C_27  and  C_40
   16  A    between atoms: C_28  and  N_42
   17  A    between atoms: C_32  and  S_47
   18  A    between atoms: C_36  and  C_55
   19  A    between atoms: C_38  and  C_55
   20  A    between atoms: C_40  and  S_47
                            x       y       z     vdW  Elec       q    Type
                         _______ _______ _______ _____ _____    ______ ____

>  <TORSDO>
F 20

$$$$
=
 OpenBabel11042417563D

 55 60  0  0  1  0  0  0  0  0999 V2000
  191.7140  172.6970  143.0000 N   0  0  0  0  0  2  0  0  0  0  0  0
  188.8030  172.9590  141.8540 C   0  0  2  0  0  3  0  0  0  0  0  0
  190.7430  172.1740  142.0460 C   0  0  1  0  0  3  0  0  0  0  0  0
  189.2860  171.5970  142.9220 S   0  0  0  0  0  0  0  0  0  0  0  0
  190.5510  174.1160  140.4280 O   0  0  0  0  0  0  0  0  0  0  0  0
  190.1420  173.3030  141.2390 C   0  0  0  0  0  0  0  0  0  0  0  0
  187.4220  176.4300  142.8480 C   0  0  0  0  0  0  0  0  0  0  0  0
  187.0810  176.7630  140.5460 C   0  0  0  0  0  2  0  0  0  0  0  0
  187.8150  175.2740  142.0930 C   0  0  0  0  0  0  0  0  0  0  0  0
  187.9000  178.6700  141.9220 C   0  0  0  0  0  1  0  0  0  0  0  0
  187.4450  176.5000  144.1450 N   0  0  0  0  0  0  0  0  0  0  0  0
  187.6340  175.4360  140.8280 N   0  0  0  0  0  0  0  0  0  0  0  0
  188.3300  174.0690  142.6680 N   0  0  0  0  0  2  0  0  0  0  0  0
  186.9530  177.4810  141.9000 C   0  0  2  0  0  3  0  0  0  0  0  0
  186.9980  177.6590  144.9030 C   0  0  0  0  0  2  0  0  0  0  0  0
  187.2680  177.4550  146.3850 C   0  0  0  0  0  2  0  0  0  0  0  0
  189.3770  177.8830  147.3220 O   0  0  0  0  0  0  0  0  0  0  0  0
  188.6990  177.0970  146.6810 C   0  0  0  0  0  0  0  0  0  0  0  0
  189.4390  175.5430  146.1570 S   0  0  0  0  0  0  0  0  0  0  0  0
  191.0880  175.7070  144.0700 C   0  0  2  0  0  3  0  0  0  0  0  0
  190.6210  177.6010  144.5660 C   0  0  0  0  0  2  0  0  0  0  0  0
  190.8650  176.3840  145.4130 C   0  0  1  0  0  0  0  0  0  0  0  0
  192.1450  175.6050  145.1580 C   0  0  2  0  0  3  0  0  0  0  0  0
  190.9880  176.9370  143.3890 O   0  0  0  0  0  0  0  0  0  0  0  0
  193.3450  176.5190  144.9000 C   0  0  0  0  0  2  0  0  0  0  0  0
  194.5750  177.3500  146.8360 C   0  0  0  0  0  2  0  0  0  0  0  0
  194.4210  176.3750  145.9470 C   0  0  0  0  0  0  0  0  0  0  0  0
  195.3160  175.1740  146.0340 C   0  0  0  0  0  1  0  0  0  0  0  0
  194.1490  172.2510  143.0070 C   0  0  0  0  0  0  0  0  0  0  0  0
  192.9610  172.7170  142.3600 N   0  0  0  0  0  2  0  0  0  0  0  0
  194.1060  171.8260  144.1920 O   0  0  0  0  0  0  0  0  0  0  0  0
  195.7050  172.2600  142.1230 S   0  0  0  0  0  0  0  0  0  0  0  0
  196.2020  173.8740  142.7950 C   0  0  0  0  0  2  0  0  0  0  0  0
  195.3800  175.2030  141.8680 S   0  0  0  0  0  0  0  0  0  0  0  0
  196.4300  174.9710  140.4350 C   0  0  0  0  0  0  0  0  0  0  0  0
  197.7100  174.9120  140.5960 N   0  0  0  0  0  2  0  0  0  0  0  0
  194.4510  175.0730  138.8960 N   0  0  0  0  0  2  0  0  0  0  0  0
  195.8420  174.7970  139.1010 C   0  0  0  0  0  0  0  0  0  0  0  0
  196.5640  174.4150  138.1390 O   0  0  0  0  0  0  0  0  0  0  0  0
  192.0240  173.7250  136.3370 C   0  0  1  0  0  3  0  0  0  0  0  0
  192.2670  177.2930  135.0340 O   0  0  0  0  0  1  0  0  0  0  0  0
  191.5010  174.8750  135.7130 O   0  0  0  0  0  0  0  0  0  0  0  0
  192.7890  175.9740  135.5620 P   0  0  2  0  0  0  0  0  0  0  0  0
  193.4390  176.2140  137.1140 O   0  0  0  0  0  0  0  0  0  0  0  0
  192.5430  174.0320  137.7440 C   0  0  0  0  0  2  0  0  0  0  0  0
  193.7700  174.9410  137.6130 C   0  0  2  0  0  3  0  0  0  0  0  0
  193.9700  175.3620  134.5130 O   0  0  0  0  0  0  0  0  0  0  0  0
  191.0270  172.7500  136.4120 O   0  0  0  0  0  0  0  0  0  0  0  0
  191.3980  170.3720  136.1090 C   0  0  1  0  0  3  0  0  0  0  0  0
  190.3620  170.8730  135.2900 O   0  0  0  0  0  0  0  0  0  0  0  0
  191.4380  171.7500  135.5210 C   0  0  1  0  0  3  0  0  0  0  0  0
  190.9750  170.2630  137.5940 C   0  0  1  0  0  3  0  0  0  0  0  0
  189.7080  169.6930  137.7080 O   0  0  0  0  0  1  0  0  0  0  0  0
  191.9630  169.5550  138.5160 C   0  0  0  0  0  2  0  0  0  0  0  0
  192.3440  170.4090  139.5490 O   0  0  0  0  0  1  0  0  0  0  0  0
  2 13  1  1  0  0  0
  2  4  1  0  0  0  0
  3  4  1  0  0  0  0
  3  1  1  1  0  0  0
  5  6  2  0  0  0  0
  6  2  1  0  0  0  0
  6  3  1  0  0  0  0
  7 11  2  0  0  0  0
  8 12  1  0  0  0  0
  8 14  1  0  0  0  0
  9 13  1  0  0  0  0
  9  7  1  0  0  0  0
 11 15  1  0  0  0  0
 12  9  2  0  0  0  0
 14 10  1  6  0  0  0
 14  7  1  0  0  0  0
 15 16  1  0  0  0  0
 16 18  1  0  0  0  0
 18 17  2  0  0  0  0
 19 18  1  0  0  0  0
 20 24  1  6  0  0  0
 20 23  1  0  0  0  0
 20 22  1  0  0  0  0
 21 22  1  0  0  0  0
 22 19  1  1  0  0  0
 23 25  1  6  0  0  0
 23 22  1  0  0  0  0
 24 21  1  0  0  0  0
 25 27  1  0  0  0  0
 27 28  1  0  0  0  0
 27 26  2  0  0  0  0
 29 31  2  0  0  0  0
 30  1  1  0  0  0  0
 30 29  1  0  0  0  0
 32 33  1  0  0  0  0
 32 29  1  0  0  0  0
 34 33  1  0  0  0  0
 35 36  2  0  0  0  0
 35 34  1  0  0  0  0
 37 38  1  0  0  0  0
 38 35  1  0  0  0  0
 39 38  2  0  0  0  0
 40 48  1  1  0  0  0
 40 45  1  0  0  0  0
 41 43  1  0  0  0  0
 42 40  1  0  0  0  0
 43 47  2  6  0  0  0
 43 42  1  0  0  0  0
 43 44  1  0  0  0  0
 44 46  1  0  0  0  0
 46 45  1  0  0  0  0
 46 37  1  1  0  0  0
 49 52  1  1  0  0  0
 50 51  1  0  0  0  0
 50 49  1  0  0  0  0
 51 49  1  0  0  0  0
 51 48  1  1  0  0  0
 52 53  1  6  0  0  0
 52 54  1  0  0  0  0
 54 55  1  0  0  0  0
M  END
>  <MODEL>
8

>  <REMARK>
 VINA RESULT:      -4.8      2.961      8.344
  Name = 
  20 active torsions:
  status: ('A' for Active; 'I' for Inactive)
    1  A    between atoms: C_1  and  C_18
    2  A    between atoms: C_2  and  N_44
    3  A    between atoms: C_3  and  O_22
    4  A    between atoms: C_5  and  N_24
    5  A    between atoms: C_6  and  C_18
    6  A    between atoms: S_8  and  C_16
    7  A    between atoms: S_8  and  C_23
    8  A    between atoms: N_10  and  C_35
    9  A    between atoms: C_16  and  C_31
   10  A    between atoms: O_22  and  C_49
   11  A    between atoms: C_23  and  S_34
   12  A    between atoms: N_24  and  N_29
   13  A    between atoms: C_25  and  S_34
   14  A    between atoms: C_27  and  C_28
   15  A    between atoms: C_27  and  C_40
   16  A    between atoms: C_28  and  N_42
   17  A    between atoms: C_32  and  S_47
   18  A    between atoms: C_36  and  C_55
   19  A    between atoms: C_38  and  C_55
   20  A    between atoms: C_40  and  S_47
                            x       y       z     vdW  Elec       q    Type
                         _______ _______ _______ _____ _____    ______ ____

>  <TORSDO>
F 20

$$$$
=
 OpenBabel11042417563D

 55 60  0  0  1  0  0  0  0  0999 V2000
  193.1230  176.5230  144.1210 N   0  0  0  0  0  2  0  0  0  0  0  0
  195.5120  174.8710  145.3130 C   0  0  2  0  0  3  0  0  0  0  0  0
  194.1710  176.4800  145.1340 C   0  0  1  0  0  3  0  0  0  0  0  0
  193.9450  175.0360  146.1770 S   0  0  0  0  0  0  0  0  0  0  0  0
  196.2500  176.6780  143.6960 O   0  0  0  0  0  0  0  0  0  0  0  0
  195.5010  176.1450  144.4960 C   0  0  0  0  0  0  0  0  0  0  0  0
  196.0080  171.2830  143.9640 C   0  0  0  0  0  0  0  0  0  0  0  0
  196.8020  170.7680  146.1170 C   0  0  0  0  0  2  0  0  0  0  0  0
  195.9530  172.4300  144.8260 C   0  0  0  0  0  0  0  0  0  0  0  0
  197.9410  169.7550  144.1470 C   0  0  0  0  0  1  0  0  0  0  0  0
  195.5750  171.2650  142.7390 N   0  0  0  0  0  0  0  0  0  0  0  0
  196.3830  172.1680  146.0120 N   0  0  0  0  0  0  0  0  0  0  0  0
  195.4600  173.7140  144.4320 N   0  0  0  0  0  2  0  0  0  0  0  0
  196.5900  170.1420  144.7280 C   0  0  2  0  0  3  0  0  0  0  0  0
  195.5900  170.0830  141.8910 C   0  0  0  0  0  2  0  0  0  0  0  0
  194.9250  170.3840  140.5570 C   0  0  0  0  0  2  0  0  0  0  0  0
  192.9880  169.3790  141.4230 O   0  0  0  0  0  0  0  0  0  0  0  0
  193.5710  169.7460  140.4150 C   0  0  0  0  0  0  0  0  0  0  0  0
  192.7590  169.5340  138.8230 S   0  0  0  0  0  0  0  0  0  0  0  0
  192.5270  171.4330  136.9680 C   0  0  2  0  0  3  0  0  0  0  0  0
  191.6480  172.1600  138.6260 C   0  0  0  0  0  2  0  0  0  0  0  0
  192.8710  171.3060  138.4430 C   0  0  1  0  0  0  0  0  0  0  0  0
  193.9200  171.7970  137.4580 C   0  0  2  0  0  3  0  0  0  0  0  0
  191.4930  172.3480  137.2470 O   0  0  0  0  0  0  0  0  0  0  0  0
  194.1390  173.3090  137.5420 C   0  0  0  0  0  2  0  0  0  0  0  0
  196.5040  172.7120  137.5350 C   0  0  0  0  0  2  0  0  0  0  0  0
  195.6000  173.6830  137.5750 C   0  0  0  0  0  0  0  0  0  0  0  0
  196.0730  175.1060  137.6400 C   0  0  0  0  0  1  0  0  0  0  0  0
  192.9500  174.6360  142.5290 C   0  0  0  0  0  0  0  0  0  0  0  0
  192.7670  175.1990  143.8310 N   0  0  0  0  0  2  0  0  0  0  0  0
  193.4210  175.3330  141.5920 O   0  0  0  0  0  0  0  0  0  0  0  0
  192.5180  172.9250  142.2300 S   0  0  0  0  0  0  0  0  0  0  0  0
  190.7400  173.2170  142.4780 C   0  0  0  0  0  2  0  0  0  0  0  0
  190.2380  174.7200  141.5880 S   0  0  0  0  0  0  0  0  0  0  0  0
  188.5730  174.6570  142.2460 C   0  0  0  0  0  0  0  0  0  0  0  0
  187.8970  173.5610  142.1450 N   0  0  0  0  0  2  0  0  0  0  0  0
  186.5830  176.0290  142.9200 N   0  0  0  0  0  2  0  0  0  0  0  0
  188.0000  175.8190  142.9380 C   0  0  0  0  0  0  0  0  0  0  0  0
  188.7550  176.6230  143.5510 O   0  0  0  0  0  0  0  0  0  0  0  0
  184.0730  178.8030  143.4310 C   0  0  1  0  0  3  0  0  0  0  0  0
  184.6850  177.9390  147.0860 O   0  0  0  0  0  1  0  0  0  0  0  0
  183.6750  178.6690  144.7750 O   0  0  0  0  0  0  0  0  0  0  0  0
  185.0670  178.2450  145.6540 P   0  0  2  0  0  0  0  0  0  0  0  0
  185.7140  176.8460  144.9390 O   0  0  0  0  0  0  0  0  0  0  0  0
  184.5990  177.4820  142.8630 C   0  0  0  0  0  2  0  0  0  0  0  0
  185.9120  177.1430  143.5790 C   0  0  2  0  0  3  0  0  0  0  0  0
  186.1970  179.5070  145.6170 O   0  0  0  0  0  0  0  0  0  0  0  0
  182.9840  179.2340  142.6700 O   0  0  0  0  0  0  0  0  0  0  0  0
  181.3010  178.1590  141.2950 C   0  0  1  0  0  3  0  0  0  0  0  0
  182.3690  178.6880  140.5380 O   0  0  0  0  0  0  0  0  0  0  0  0
  182.7110  178.1710  141.8020 C   0  0  1  0  0  3  0  0  0  0  0  0
  180.3600  179.2630  141.8360 C   0  0  1  0  0  3  0  0  0  0  0  0
  180.2490  180.3120  140.9240 O   0  0  0  0  0  1  0  0  0  0  0  0
  178.9770  178.7970  142.2820 C   0  0  0  0  0  2  0  0  0  0  0  0
  178.3440  178.1210  141.2400 O   0  0  0  0  0  1  0  0  0  0  0  0
  2 13  1  6  0  0  0
  2  4  1  0  0  0  0
  3  1  1  6  0  0  0
  3  4  1  0  0  0  0
  5  6  2  0  0  0  0
  6  3  1  0  0  0  0
  6  2  1  0  0  0  0
  7 14  1  0  0  0  0
  7  9  1  0  0  0  0
  9 12  2  0  0  0  0
 11  7  2  0  0  0  0
 12  8  1  0  0  0  0
 13  9  1  0  0  0  0
 14 10  1  6  0  0  0
 14  8  1  0  0  0  0
 15 11  1  0  0  0  0
 16 15  1  0  0  0  0
 18 16  1  0  0  0  0
 18 17  2  0  0  0  0
 19 18  1  0  0  0  0
 20 24  1  1  0  0  0
 20 23  1  0  0  0  0
 20 22  1  0  0  0  0
 22 21  1  0  0  0  0
 22 19  1  1  0  0  0
 23 25  1  1  0  0  0
 23 22  1  0  0  0  0
 24 21  1  0  0  0  0
 25 27  1  0  0  0  0
 26 27  2  0  0  0  0
 27 28  1  0  0  0  0
 29 30  1  0  0  0  0
 30  1  1  0  0  0  0
 31 29  2  0  0  0  0
 32 33  1  0  0  0  0
 32 29  1  0  0  0  0
 34 35  1  0  0  0  0
 34 33  1  0  0  0  0
 35 38  1  0  0  0  0
 36 35  2  0  0  0  0
 37 38  1  0  0  0  0
 38 39  2  0  0  0  0
 40 48  1  6  0  0  0
 40 42  1  0  0  0  0
 42 43  1  0  0  0  0
 43 47  2  6  0  0  0
 43 41  1  0  0  0  0
 44 43  1  0  0  0  0
 45 40  1  0  0  0  0
 45 46  1  0  0  0  0
 46 37  1  6  0  0  0
 46 44  1  0  0  0  0
 49 51  1  0  0  0  0
 49 52  1  1  0  0  0
 50 49  1  0  0  0  0
 50 51  1  0  0  0  0
 51 48  1  1  0  0  0
 52 53  1  6  0  0  0
 52 54  1  0  0  0  0
 55 54  1  0  0  0  0
M  END
>  <MODEL>
9

>  <REMARK>
 VINA RESULT:      -4.7      3.062      7.331
  Name = 
  20 active torsions:
  status: ('A' for Active; 'I' for Inactive)
    1  A    between atoms: C_1  and  C_18
    2  A    between atoms: C_2  and  N_44
    3  A    between atoms: C_3  and  O_22
    4  A    between atoms: C_5  and  N_24
    5  A    between atoms: C_6  and  C_18
    6  A    between atoms: S_8  and  C_16
    7  A    between atoms: S_8  and  C_23
    8  A    between atoms: N_10  and  C_35
    9  A    between atoms: C_16  and  C_31
   10  A    between atoms: O_22  and  C_49
   11  A    between atoms: C_23  and  S_34
   12  A    between atoms: N_24  and  N_29
   13  A    between atoms: C_25  and  S_34
   14  A    between atoms: C_27  and  C_28
   15  A    between atoms: C_27  and  C_40
   16  A    between atoms: C_28  and  N_42
   17  A    between atoms: C_32  and  S_47
   18  A    between atoms: C_36  and  C_55
   19  A    between atoms: C_38  and  C_55
   20  A    between atoms: C_40  and  S_47
                            x       y       z     vdW  Elec       q    Type
                         _______ _______ _______ _____ _____    ______ ____

>  <TORSDO>
F 20

$$$$
