=
 OpenBabel11042417483D

 25 27  0  0  1  0  0  0  0  0999 V2000
  186.1240  178.1620  142.0110 C   0  0  0  0  0  0  0  0  0  0  0  0
  184.4540  178.2180  140.2370 C   0  0  0  0  0  3  0  0  0  0  0  0
  182.1080  178.2250  140.7820 O   0  0  0  0  0  1  0  0  0  0  0  0
  183.4350  178.2030  141.1870 C   0  0  0  0  0  0  0  0  0  0  0  0
  185.7870  178.2020  140.6480 C   0  0  0  0  0  3  0  0  0  0  0  0
  185.0870  178.1380  142.9810 C   0  0  0  0  0  0  0  0  0  0  0  0
  183.7500  178.1660  142.5450 C   0  0  0  0  0  3  0  0  0  0  0  0
  187.5000  178.2010  142.4240 N   0  0  0  0  0  2  0  0  0  0  0  0
  190.3870  175.0920  142.4020 C   0  0  0  0  0  0  0  0  0  0  0  0
  188.0870  175.9090  142.1580 N   0  0  0  0  0  0  0  0  0  0  0  0
  190.7810  176.2910  142.7020 N   0  0  0  0  0  0  0  0  0  0  0  0
  189.0030  174.8470  142.1550 N   0  0  0  0  0  2  0  0  0  0  0  0
  188.4500  177.1240  142.4460 C   0  0  0  0  0  0  0  0  0  0  0  0
  189.8690  177.4280  142.8650 C   0  0  1  0  0  3  0  0  0  0  0  0
  189.8960  177.8880  144.3100 C   0  0  0  0  0  1  0  0  0  0  0  0
  191.3570  173.9960  142.2910 C   0  0  0  0  0  0  0  0  0  0  0  0
  191.0170  172.8920  141.7860 O   0  0  0  0  0  0  0  0  0  0  0  0
  192.6580  174.1700  142.7430 O   0  0  0  0  0  1  0  0  0  0  0  0
  185.9020  177.9540  147.2010 C   0  0  0  0  0  0  0  0  0  0  0  0
  185.5690  179.1760  146.6110 C   0  0  0  0  0  3  0  0  0  0  0  0
  185.6960  176.8630  145.0510 C   0  0  0  0  0  3  0  0  0  0  0  0
  185.9680  176.7980  146.4210 C   0  0  0  0  0  3  0  0  0  0  0  0
  185.3490  178.0830  144.4450 C   0  0  0  0  0  0  0  0  0  0  0  0
  186.1640  177.8920  148.5290 F   0  0  0  0  0  0  0  0  0  0  0  0
  185.2970  179.2390  145.2430 C   0  0  0  0  0  3  0  0  0  0  0  0
  1  8  1  0  0  0  0
  1  6  1  0  0  0  0
  2  5  1  0  0  0  0
  2  4  2  0  0  0  0
  3  4  1  0  0  0  0
  4  7  1  0  0  0  0
  5  1  2  0  0  0  0
  6 23  1  0  0  0  0
  7  6  2  0  0  0  0
  8 13  1  0  0  0  0
  9 11  2  0  0  0  0
 10 13  2  0  0  0  0
 11 14  1  0  0  0  0
 12 10  1  0  0  0  0
 12  9  1  0  0  0  0
 13 14  1  0  0  0  0
 14 15  1  1  0  0  0
 16  9  1  0  0  0  0
 16 18  1  0  0  0  0
 17 16  2  0  0  0  0
 19 24  1  0  0  0  0
 20 19  1  0  0  0  0
 21 22  1  0  0  0  0
 22 19  2  0  0  0  0
 23 21  2  0  0  0  0
 23 25  1  0  0  0  0
 25 20  2  0  0  0  0
M  END
>  <MODEL>
1

>  <REMARK>
 VINA RESULT:      -7.9      0.000      0.000
  Name = 
  3 active torsions:
  status: ('A' for Active; 'I' for Inactive)
    1  A    between atoms: C_1  and  N_7
    2  A    between atoms: C_3  and  C_11
    3  A    between atoms: C_15  and  C_21
                            x       y       z     vdW  Elec       q    Type
                         _______ _______ _______ _____ _____    ______ ____

>  <TORSDO>
F 3

$$$$
=
 OpenBabel11042417483D

 25 27  0  0  1  0  0  0  0  0999 V2000
  187.3330  177.6730  142.2140 C   0  0  0  0  0  0  0  0  0  0  0  0
  186.1030  177.8510  140.1180 C   0  0  0  0  0  3  0  0  0  0  0  0
  183.7340  178.2830  140.1360 O   0  0  0  0  0  1  0  0  0  0  0  0
  184.9230  178.0800  140.8210 C   0  0  0  0  0  0  0  0  0  0  0  0
  187.2980  177.6540  140.8100 C   0  0  0  0  0  3  0  0  0  0  0  0
  186.1300  177.8980  142.9330 C   0  0  0  0  0  0  0  0  0  0  0  0
  184.9380  178.1050  142.2150 C   0  0  0  0  0  3  0  0  0  0  0  0
  188.5790  177.5230  142.9140 N   0  0  0  0  0  2  0  0  0  0  0  0
  190.6960  173.9740  143.8740 C   0  0  0  0  0  0  0  0  0  0  0  0
  188.7120  175.1490  143.0380 N   0  0  0  0  0  0  0  0  0  0  0  0
  191.2660  175.1130  144.1210 N   0  0  0  0  0  0  0  0  0  0  0  0
  189.3680  173.9510  143.3550 N   0  0  0  0  0  2  0  0  0  0  0  0
  189.2580  176.3070  143.2650 C   0  0  0  0  0  0  0  0  0  0  0  0
  190.6000  176.4080  143.9520 C   0  0  1  0  0  3  0  0  0  0  0  0
  190.4400  177.0690  145.3080 C   0  0  0  0  0  1  0  0  0  0  0  0
  191.4170  172.7160  144.1010 C   0  0  0  0  0  0  0  0  0  0  0  0
  190.8480  171.6090  143.9020 O   0  0  0  0  0  0  0  0  0  0  0  0
  192.7350  172.7390  144.5380 O   0  0  0  0  0  1  0  0  0  0  0  0
  185.8950  177.9920  147.2290 C   0  0  0  0  0  0  0  0  0  0  0  0
  186.1820  176.7910  146.5750 C   0  0  0  0  0  3  0  0  0  0  0  0
  185.7700  179.1210  145.0920 C   0  0  0  0  0  3  0  0  0  0  0  0
  185.6870  179.1560  146.4870 C   0  0  0  0  0  3  0  0  0  0  0  0
  186.0690  177.9230  144.4210 C   0  0  0  0  0  0  0  0  0  0  0  0
  185.8150  178.0250  148.5800 F   0  0  0  0  0  0  0  0  0  0  0  0
  186.2660  176.7580  145.1810 C   0  0  0  0  0  3  0  0  0  0  0  0
  1  8  1  0  0  0  0
  1  6  1  0  0  0  0
  2  5  1  0  0  0  0
  2  4  2  0  0  0  0
  3  4  1  0  0  0  0
  4  7  1  0  0  0  0
  5  1  2  0  0  0  0
  6 23  1  0  0  0  0
  7  6  2  0  0  0  0
  8 13  1  0  0  0  0
  9 16  1  0  0  0  0
  9 11  2  0  0  0  0
 10 13  2  0  0  0  0
 10 12  1  0  0  0  0
 12  9  1  0  0  0  0
 13 14  1  0  0  0  0
 14 11  1  0  0  0  0
 14 15  1  1  0  0  0
 16 18  1  0  0  0  0
 17 16  2  0  0  0  0
 19 24  1  0  0  0  0
 20 19  1  0  0  0  0
 21 22  1  0  0  0  0
 22 19  2  0  0  0  0
 23 21  2  0  0  0  0
 23 25  1  0  0  0  0
 25 20  2  0  0  0  0
M  END
>  <MODEL>
2

>  <REMARK>
 VINA RESULT:      -7.4      1.355      1.745
  Name = 
  3 active torsions:
  status: ('A' for Active; 'I' for Inactive)
    1  A    between atoms: C_1  and  N_7
    2  A    between atoms: C_3  and  C_11
    3  A    between atoms: C_15  and  C_21
                            x       y       z     vdW  Elec       q    Type
                         _______ _______ _______ _____ _____    ______ ____

>  <TORSDO>
F 3

$$$$
=
 OpenBabel11042417483D

 25 27  0  0  1  0  0  0  0  0999 V2000
  188.1100  177.5180  143.5270 C   0  0  0  0  0  0  0  0  0  0  0  0
  186.0480  178.7730  143.1960 C   0  0  0  0  0  3  0  0  0  0  0  0
  184.6830  179.3800  145.0850 O   0  0  0  0  0  1  0  0  0  0  0  0
  185.8140  178.7640  144.5690 C   0  0  0  0  0  0  0  0  0  0  0  0
  187.1900  178.1590  142.6810 C   0  0  0  0  0  3  0  0  0  0  0  0
  187.8690  177.5000  144.9260 C   0  0  0  0  0  0  0  0  0  0  0  0
  186.7180  178.1350  145.4250 C   0  0  0  0  0  3  0  0  0  0  0  0
  189.3110  176.9360  142.9910 N   0  0  0  0  0  2  0  0  0  0  0  0
  190.0280  172.9360  141.7720 C   0  0  0  0  0  0  0  0  0  0  0  0
  188.6460  174.6540  142.8480 N   0  0  0  0  0  0  0  0  0  0  0  0
  190.9480  173.8210  141.5410 N   0  0  0  0  0  0  0  0  0  0  0  0
  188.8480  173.3170  142.4770 N   0  0  0  0  0  2  0  0  0  0  0  0
  189.5440  175.5670  142.6230 C   0  0  0  0  0  0  0  0  0  0  0  0
  190.8800  175.2060  142.0170 C   0  0  1  0  0  3  0  0  0  0  0  0
  191.9880  175.4440  143.0250 C   0  0  0  0  0  1  0  0  0  0  0  0
  190.1840  171.5580  141.2920 C   0  0  0  0  0  0  0  0  0  0  0  0
  190.4010  170.6200  142.1050 O   0  0  0  0  0  1  0  0  0  0  0  0
  190.0910  171.2790  139.9350 O   0  0  0  0  0  0  0  0  0  0  0  0
  190.5140  175.5290  147.6900 C   0  0  0  0  0  0  0  0  0  0  0  0
  190.8230  176.8110  147.2270 C   0  0  0  0  0  3  0  0  0  0  0  0
  188.4910  175.5410  146.3620 C   0  0  0  0  0  3  0  0  0  0  0  0
  189.3490  174.8940  147.2550 C   0  0  0  0  0  3  0  0  0  0  0  0
  188.7820  176.8350  145.8960 C   0  0  0  0  0  0  0  0  0  0  0  0
  191.3460  174.9030  148.5550 F   0  0  0  0  0  0  0  0  0  0  0  0
  189.9640  177.4570  146.3350 C   0  0  0  0  0  3  0  0  0  0  0  0
  1  6  1  0  0  0  0
  2  4  2  0  0  0  0
  4  3  1  0  0  0  0
  4  7  1  0  0  0  0
  5  2  1  0  0  0  0
  5  1  2  0  0  0  0
  6  7  2  0  0  0  0
  6 23  1  0  0  0  0
  8  1  1  0  0  0  0
  9 12  1  0  0  0  0
 11  9  2  0  0  0  0
 11 14  1  0  0  0  0
 12 10  1  0  0  0  0
 13 10  2  0  0  0  0
 13  8  1  0  0  0  0
 14 13  1  0  0  0  0
 14 15  1  1  0  0  0
 16  9  1  0  0  0  0
 16 17  1  0  0  0  0
 18 16  2  0  0  0  0
 19 24  1  0  0  0  0
 20 19  2  0  0  0  0
 21 22  2  0  0  0  0
 22 19  1  0  0  0  0
 23 25  2  0  0  0  0
 23 21  1  0  0  0  0
 25 20  1  0  0  0  0
M  END
>  <MODEL>
3

>  <REMARK>
 VINA RESULT:      -7.3      2.646      3.712
  Name = 
  3 active torsions:
  status: ('A' for Active; 'I' for Inactive)
    1  A    between atoms: C_1  and  N_7
    2  A    between atoms: C_3  and  C_11
    3  A    between atoms: C_15  and  C_21
                            x       y       z     vdW  Elec       q    Type
                         _______ _______ _______ _____ _____    ______ ____

>  <TORSDO>
F 3

$$$$
=
 OpenBabel11042417483D

 25 27  0  0  1  0  0  0  0  0999 V2000
  187.9020  176.2370  143.0020 C   0  0  0  0  0  0  0  0  0  0  0  0
  187.7560  176.3460  140.5720 C   0  0  0  0  0  3  0  0  0  0  0  0
  186.0110  177.6290  139.5190 O   0  0  0  0  0  1  0  0  0  0  0  0
  186.6360  177.1680  140.6690 C   0  0  0  0  0  0  0  0  0  0  0  0
  188.3860  175.8890  141.7300 C   0  0  0  0  0  3  0  0  0  0  0  0
  186.7550  177.0680  143.1030 C   0  0  0  0  0  0  0  0  0  0  0  0
  186.1420  177.5260  141.9230 C   0  0  0  0  0  3  0  0  0  0  0  0
  188.5910  175.8060  144.1870 N   0  0  0  0  0  2  0  0  0  0  0  0
  192.6210  176.4810  145.3300 C   0  0  0  0  0  0  0  0  0  0  0  0
  190.7920  176.5700  143.6970 N   0  0  0  0  0  0  0  0  0  0  0  0
  191.8280  175.9140  146.1860 N   0  0  0  0  0  0  0  0  0  0  0  0
  192.1370  176.7970  144.0260 N   0  0  0  0  0  2  0  0  0  0  0  0
  189.9700  176.0110  144.5350 C   0  0  0  0  0  0  0  0  0  0  0  0
  190.4520  175.5140  145.8770 C   0  0  1  0  0  3  0  0  0  0  0  0
  190.3440  174.0020  145.9400 C   0  0  0  0  0  1  0  0  0  0  0  0
  193.9990  176.8210  145.7030 C   0  0  0  0  0  0  0  0  0  0  0  0
  194.2730  177.1710  146.8820 O   0  0  0  0  0  1  0  0  0  0  0  0
  195.0120  176.7570  144.7550 O   0  0  0  0  0  0  0  0  0  0  0  0
  185.0080  178.2870  146.8410 C   0  0  0  0  0  0  0  0  0  0  0  0
  185.0750  176.9300  146.5170 C   0  0  0  0  0  3  0  0  0  0  0  0
  186.0790  178.8390  144.7430 C   0  0  0  0  0  3  0  0  0  0  0  0
  185.5070  179.2420  145.9540 C   0  0  0  0  0  3  0  0  0  0  0  0
  186.1650  177.4770  144.4070 C   0  0  0  0  0  0  0  0  0  0  0  0
  184.4540  178.6750  148.0150 F   0  0  0  0  0  0  0  0  0  0  0  0
  185.6480  176.5300  145.3070 C   0  0  0  0  0  3  0  0  0  0  0  0
  1  6  1  0  0  0  0
  1  8  1  0  0  0  0
  2  4  2  0  0  0  0
  2  5  1  0  0  0  0
  3  4  1  0  0  0  0
  4  7  1  0  0  0  0
  5  1  2  0  0  0  0
  6 23  1  0  0  0  0
  7  6  2  0  0  0  0
  8 13  1  0  0  0  0
  9 16  1  0  0  0  0
  9 11  2  0  0  0  0
 10 12  1  0  0  0  0
 10 13  2  0  0  0  0
 12  9  1  0  0  0  0
 13 14  1  0  0  0  0
 14 15  1  6  0  0  0
 14 11  1  0  0  0  0
 16 17  1  0  0  0  0
 18 16  2  0  0  0  0
 19 24  1  0  0  0  0
 20 19  1  0  0  0  0
 21 22  1  0  0  0  0
 22 19  2  0  0  0  0
 23 21  2  0  0  0  0
 23 25  1  0  0  0  0
 25 20  2  0  0  0  0
M  END
>  <MODEL>
4

>  <REMARK>
 VINA RESULT:      -6.9      2.548      3.504
  Name = 
  3 active torsions:
  status: ('A' for Active; 'I' for Inactive)
    1  A    between atoms: C_1  and  N_7
    2  A    between atoms: C_3  and  C_11
    3  A    between atoms: C_15  and  C_21
                            x       y       z     vdW  Elec       q    Type
                         _______ _______ _______ _____ _____    ______ ____

>  <TORSDO>
F 3

$$$$
=
 OpenBabel11042417483D

 25 27  0  0  1  0  0  0  0  0999 V2000
  189.8510  174.2110  142.5510 C   0  0  0  0  0  0  0  0  0  0  0  0
  189.8590  172.1530  141.2470 C   0  0  0  0  0  3  0  0  0  0  0  0
  190.5050  170.0720  142.2720 O   0  0  0  0  0  1  0  0  0  0  0  0
  190.2900  171.4390  142.3630 C   0  0  0  0  0  0  0  0  0  0  0  0
  189.6370  173.5270  141.3430 C   0  0  0  0  0  3  0  0  0  0  0  0
  190.2990  173.4870  143.6880 C   0  0  0  0  0  0  0  0  0  0  0  0
  190.5060  172.1010  143.5710 C   0  0  0  0  0  3  0  0  0  0  0  0
  189.5670  175.6170  142.6530 N   0  0  0  0  0  2  0  0  0  0  0  0
  185.8540  177.5470  143.3540 C   0  0  0  0  0  0  0  0  0  0  0  0
  187.1960  175.5530  142.8620 N   0  0  0  0  0  0  0  0  0  0  0  0
  186.9290  178.2730  143.3390 N   0  0  0  0  0  0  0  0  0  0  0  0
  185.9450  176.1520  143.0730 N   0  0  0  0  0  2  0  0  0  0  0  0
  188.2930  176.2510  142.8500 C   0  0  0  0  0  0  0  0  0  0  0  0
  188.2550  177.7550  142.9890 C   0  0  1  0  0  3  0  0  0  0  0  0
  188.7240  178.4070  141.7030 C   0  0  0  0  0  1  0  0  0  0  0  0
  184.5550  178.1470  143.6800 C   0  0  0  0  0  0  0  0  0  0  0  0
  184.3170  178.5590  144.8470 O   0  0  0  0  0  1  0  0  0  0  0  0
  183.5770  178.2640  142.7000 O   0  0  0  0  0  0  0  0  0  0  0  0
  191.0420  175.2950  147.5210 C   0  0  0  0  0  0  0  0  0  0  0  0
  192.0920  175.1380  146.6120 C   0  0  0  0  0  3  0  0  0  0  0  0
  189.5210  174.2850  145.9330 C   0  0  0  0  0  3  0  0  0  0  0  0
  189.7580  174.8660  147.1820 C   0  0  0  0  0  3  0  0  0  0  0  0
  190.5640  174.1310  145.0040 C   0  0  0  0  0  0  0  0  0  0  0  0
  191.2730  175.8590  148.7300 F   0  0  0  0  0  0  0  0  0  0  0  0
  191.8530  174.5580  145.3640 C   0  0  0  0  0  3  0  0  0  0  0  0
  1  8  1  0  0  0  0
  1  6  1  0  0  0  0
  2  5  1  0  0  0  0
  2  4  2  0  0  0  0
  3  4  1  0  0  0  0
  4  7  1  0  0  0  0
  5  1  2  0  0  0  0
  6 23  1  0  0  0  0
  7  6  2  0  0  0  0
  8 13  1  0  0  0  0
  9 16  1  0  0  0  0
 10 12  1  0  0  0  0
 11  9  2  0  0  0  0
 12  9  1  0  0  0  0
 13 10  2  0  0  0  0
 13 14  1  0  0  0  0
 14 15  1  6  0  0  0
 14 11  1  0  0  0  0
 16 17  1  0  0  0  0
 18 16  2  0  0  0  0
 19 24  1  0  0  0  0
 20 19  2  0  0  0  0
 21 22  2  0  0  0  0
 22 19  1  0  0  0  0
 23 25  2  0  0  0  0
 23 21  1  0  0  0  0
 25 20  1  0  0  0  0
M  END
>  <MODEL>
5

>  <REMARK>
 VINA RESULT:      -6.8      2.793      6.650
  Name = 
  3 active torsions:
  status: ('A' for Active; 'I' for Inactive)
    1  A    between atoms: C_1  and  N_7
    2  A    between atoms: C_3  and  C_11
    3  A    between atoms: C_15  and  C_21
                            x       y       z     vdW  Elec       q    Type
                         _______ _______ _______ _____ _____    ______ ____

>  <TORSDO>
F 3

$$$$
=
 OpenBabel11042417483D

 25 27  0  0  1  0  0  0  0  0999 V2000
  187.6210  176.4610  145.5610 C   0  0  0  0  0  0  0  0  0  0  0  0
  186.5250  177.1060  147.6390 C   0  0  0  0  0  3  0  0  0  0  0  0
  184.6460  178.6130  147.6000 O   0  0  0  0  0  1  0  0  0  0  0  0
  185.6300  177.9020  146.9280 C   0  0  0  0  0  0  0  0  0  0  0  0
  187.5090  176.3890  146.9590 C   0  0  0  0  0  3  0  0  0  0  0  0
  186.7150  177.2780  144.8340 C   0  0  0  0  0  0  0  0  0  0  0  0
  185.7240  177.9850  145.5390 C   0  0  0  0  0  3  0  0  0  0  0  0
  188.6030  175.6740  144.8660 N   0  0  0  0  0  2  0  0  0  0  0  0
  192.8350  175.8630  145.1060 C   0  0  0  0  0  0  0  0  0  0  0  0
  190.5990  176.7380  145.6090 N   0  0  0  0  0  0  0  0  0  0  0  0
  192.3030  174.9030  144.4150 N   0  0  0  0  0  0  0  0  0  0  0  0
  191.9940  176.8500  145.7020 N   0  0  0  0  0  2  0  0  0  0  0  0
  190.0340  175.7830  144.9320 C   0  0  0  0  0  0  0  0  0  0  0  0
  190.8650  174.7930  144.1510 C   0  0  1  0  0  3  0  0  0  0  0  0
  190.6150  174.9630  142.6650 C   0  0  0  0  0  1  0  0  0  0  0  0
  194.2890  175.9260  145.2980 C   0  0  0  0  0  0  0  0  0  0  0  0
  194.8070  175.5370  146.3790 O   0  0  0  0  0  1  0  0  0  0  0  0
  195.1040  176.4160  144.2850 O   0  0  0  0  0  0  0  0  0  0  0  0
  186.8190  177.7490  140.5590 C   0  0  0  0  0  0  0  0  0  0  0  0
  187.9900  177.9090  141.3040 C   0  0  0  0  0  3  0  0  0  0  0  0
  185.5940  177.2790  142.5920 C   0  0  0  0  0  3  0  0  0  0  0  0
  185.6210  177.4370  141.2030 C   0  0  0  0  0  3  0  0  0  0  0  0
  186.7660  177.4250  143.3540 C   0  0  0  0  0  0  0  0  0  0  0  0
  186.8470  177.9020  139.2130 F   0  0  0  0  0  0  0  0  0  0  0  0
  187.9620  177.7500  142.6910 C   0  0  0  0  0  3  0  0  0  0  0  0
  1  5  1  0  0  0  0
  4  3  1  0  0  0  0
  4  2  1  0  0  0  0
  5  2  2  0  0  0  0
  6  7  1  0  0  0  0
  6  1  2  0  0  0  0
  7  4  2  0  0  0  0
  8 13  1  0  0  0  0
  8  1  1  0  0  0  0
  9 16  1  0  0  0  0
  9 12  1  0  0  0  0
 10 12  1  0  0  0  0
 11  9  2  0  0  0  0
 13 10  2  0  0  0  0
 14 15  1  6  0  0  0
 14 11  1  0  0  0  0
 14 13  1  0  0  0  0
 16 17  1  0  0  0  0
 18 16  2  0  0  0  0
 19 22  2  0  0  0  0
 19 20  1  0  0  0  0
 20 25  2  0  0  0  0
 21 23  2  0  0  0  0
 22 21  1  0  0  0  0
 23  6  1  0  0  0  0
 24 19  1  0  0  0  0
 25 23  1  0  0  0  0
M  END
>  <MODEL>
6

>  <REMARK>
 VINA RESULT:      -6.8      3.288      5.077
  Name = 
  3 active torsions:
  status: ('A' for Active; 'I' for Inactive)
    1  A    between atoms: C_1  and  N_7
    2  A    between atoms: C_3  and  C_11
    3  A    between atoms: C_15  and  C_21
                            x       y       z     vdW  Elec       q    Type
                         _______ _______ _______ _____ _____    ______ ____

>  <TORSDO>
F 3

$$$$
=
 OpenBabel11042417483D

 25 27  0  0  1  0  0  0  0  0999 V2000
  190.3890  175.8630  146.7060 C   0  0  0  0  0  0  0  0  0  0  0  0
  192.5400  176.6460  147.5430 C   0  0  0  0  0  3  0  0  0  0  0  0
  194.5820  175.9430  146.4770 O   0  0  0  0  0  1  0  0  0  0  0  0
  193.1970  175.9160  146.5540 C   0  0  0  0  0  0  0  0  0  0  0  0
  191.1470  176.6220  147.6130 C   0  0  0  0  0  3  0  0  0  0  0  0
  191.0580  175.1120  145.7030 C   0  0  0  0  0  0  0  0  0  0  0  0
  192.4620  175.1590  145.6430 C   0  0  0  0  0  3  0  0  0  0  0  0
  188.9530  175.8900  146.7540 N   0  0  0  0  0  2  0  0  0  0  0  0
  186.2340  177.9810  144.2570 C   0  0  0  0  0  0  0  0  0  0  0  0
  188.5030  177.4900  145.0500 N   0  0  0  0  0  0  0  0  0  0  0  0
  185.7510  177.1450  145.1230 N   0  0  0  0  0  0  0  0  0  0  0  0
  187.6400  178.2160  144.2150 N   0  0  0  0  0  2  0  0  0  0  0  0
  188.0520  176.6390  145.9230 C   0  0  0  0  0  0  0  0  0  0  0  0
  186.5670  176.4520  146.1260 C   0  0  1  0  0  3  0  0  0  0  0  0
  186.1690  176.9260  147.5100 C   0  0  0  0  0  1  0  0  0  0  0  0
  185.3480  178.6640  143.3070 C   0  0  0  0  0  0  0  0  0  0  0  0
  185.6790  178.7810  142.0970 O   0  0  0  0  0  0  0  0  0  0  0  0
  184.1350  179.1850  143.7390 O   0  0  0  0  0  1  0  0  0  0  0  0
  189.0250  172.6890  142.7860 C   0  0  0  0  0  0  0  0  0  0  0  0
  189.3260  172.1570  144.0420 C   0  0  0  0  0  3  0  0  0  0  0  0
  190.0390  174.7880  143.4360 C   0  0  0  0  0  3  0  0  0  0  0  0
  189.3840  174.0030  142.4820 C   0  0  0  0  0  3  0  0  0  0  0  0
  190.3380  174.2710  144.7080 C   0  0  0  0  0  0  0  0  0  0  0  0
  188.3900  171.9280  141.8630 F   0  0  0  0  0  0  0  0  0  0  0  0
  189.9800  172.9430  144.9940 C   0  0  0  0  0  3  0  0  0  0  0  0
  1  8  1  0  0  0  0
  1  5  1  0  0  0  0
  2  5  2  0  0  0  0
  3  4  1  0  0  0  0
  4  2  1  0  0  0  0
  6  1  2  0  0  0  0
  7  6  1  0  0  0  0
  7  4  2  0  0  0  0
  9 11  2  0  0  0  0
 10 13  2  0  0  0  0
 11 14  1  0  0  0  0
 12  9  1  0  0  0  0
 12 10  1  0  0  0  0
 13 14  1  0  0  0  0
 13  8  1  0  0  0  0
 14 15  1  1  0  0  0
 16 18  1  0  0  0  0
 16  9  1  0  0  0  0
 17 16  2  0  0  0  0
 19 20  1  0  0  0  0
 20 25  2  0  0  0  0
 21 23  2  0  0  0  0
 22 19  2  0  0  0  0
 22 21  1  0  0  0  0
 23 25  1  0  0  0  0
 23  6  1  0  0  0  0
 24 19  1  0  0  0  0
M  END
>  <MODEL>
7

>  <REMARK>
 VINA RESULT:      -6.7      3.524      7.710
  Name = 
  3 active torsions:
  status: ('A' for Active; 'I' for Inactive)
    1  A    between atoms: C_1  and  N_7
    2  A    between atoms: C_3  and  C_11
    3  A    between atoms: C_15  and  C_21
                            x       y       z     vdW  Elec       q    Type
                         _______ _______ _______ _____ _____    ______ ____

>  <TORSDO>
F 3

$$$$
=
 OpenBabel11042417483D

 25 27  0  0  1  0  0  0  0  0999 V2000
  187.8570  176.5770  143.3200 C   0  0  0  0  0  0  0  0  0  0  0  0
  186.1160  178.1820  142.7460 C   0  0  0  0  0  3  0  0  0  0  0  0
  185.3290  179.7550  144.3910 O   0  0  0  0  0  1  0  0  0  0  0  0
  186.1630  178.7050  144.0360 C   0  0  0  0  0  0  0  0  0  0  0  0
  186.9600  177.1300  142.3910 C   0  0  0  0  0  3  0  0  0  0  0  0
  187.9010  177.1030  144.6380 C   0  0  0  0  0  0  0  0  0  0  0  0
  187.0480  178.1710  144.9710 C   0  0  0  0  0  3  0  0  0  0  0  0
  188.7610  175.5300  142.9280 N   0  0  0  0  0  2  0  0  0  0  0  0
  192.9660  175.6930  142.3910 C   0  0  0  0  0  0  0  0  0  0  0  0
  190.7920  176.7630  142.7700 N   0  0  0  0  0  0  0  0  0  0  0  0
  192.3840  174.5360  142.3170 N   0  0  0  0  0  0  0  0  0  0  0  0
  192.1780  176.8660  142.5820 N   0  0  0  0  0  2  0  0  0  0  0  0
  190.1780  175.6180  142.7120 C   0  0  0  0  0  0  0  0  0  0  0  0
  190.9290  174.3550  142.3620 C   0  0  1  0  0  3  0  0  0  0  0  0
  190.4500  173.8190  141.0260 C   0  0  0  0  0  1  0  0  0  0  0  0
  194.4280  175.7970  142.3030 C   0  0  0  0  0  0  0  0  0  0  0  0
  194.9660  176.4250  141.3520 O   0  0  0  0  0  0  0  0  0  0  0  0
  195.2270  175.2020  143.2710 O   0  0  0  0  0  1  0  0  0  0  0  0
  190.5360  175.5180  147.6480 C   0  0  0  0  0  0  0  0  0  0  0  0
  190.8170  176.7530  147.0600 C   0  0  0  0  0  3  0  0  0  0  0  0
  188.5470  175.3250  146.2840 C   0  0  0  0  0  3  0  0  0  0  0  0
  189.4020  174.8030  147.2580 C   0  0  0  0  0  3  0  0  0  0  0  0
  188.8100  176.5720  145.6920 C   0  0  0  0  0  0  0  0  0  0  0  0
  191.3650  175.0130  148.5920 F   0  0  0  0  0  0  0  0  0  0  0  0
  189.9610  177.2750  146.0870 C   0  0  0  0  0  3  0  0  0  0  0  0
  1  6  1  0  0  0  0
  2  4  2  0  0  0  0
  4  3  1  0  0  0  0
  4  7  1  0  0  0  0
  5  2  1  0  0  0  0
  5  1  2  0  0  0  0
  6  7  2  0  0  0  0
  6 23  1  0  0  0  0
  8  1  1  0  0  0  0
  9 12  1  0  0  0  0
 11 14  1  0  0  0  0
 11  9  2  0  0  0  0
 12 10  1  0  0  0  0
 13 10  2  0  0  0  0
 13  8  1  0  0  0  0
 14 15  1  6  0  0  0
 14 13  1  0  0  0  0
 16  9  1  0  0  0  0
 16 18  1  0  0  0  0
 17 16  2  0  0  0  0
 19 24  1  0  0  0  0
 20 19  2  0  0  0  0
 21 22  2  0  0  0  0
 22 19  1  0  0  0  0
 23 25  2  0  0  0  0
 23 21  1  0  0  0  0
 25 20  1  0  0  0  0
M  END
>  <MODEL>
8

>  <REMARK>
 VINA RESULT:      -6.7      2.725      3.982
  Name = 
  3 active torsions:
  status: ('A' for Active; 'I' for Inactive)
    1  A    between atoms: C_1  and  N_7
    2  A    between atoms: C_3  and  C_11
    3  A    between atoms: C_15  and  C_21
                            x       y       z     vdW  Elec       q    Type
                         _______ _______ _______ _____ _____    ______ ____

>  <TORSDO>
F 3

$$$$
=
 OpenBabel11042417483D

 25 27  0  0  1  0  0  0  0  0999 V2000
  189.9660  175.3610  145.6860 C   0  0  0  0  0  0  0  0  0  0  0  0
  191.7340  175.7340  147.3210 C   0  0  0  0  0  3  0  0  0  0  0  0
  191.5540  177.5350  148.9090 O   0  0  0  0  0  1  0  0  0  0  0  0
  191.0310  176.8170  147.8440 C   0  0  0  0  0  0  0  0  0  0  0  0
  191.2020  175.0100  146.2540 C   0  0  0  0  0  3  0  0  0  0  0  0
  189.2520  176.4700  146.2120 C   0  0  0  0  0  0  0  0  0  0  0  0
  189.8020  177.1790  147.2950 C   0  0  0  0  0  3  0  0  0  0  0  0
  189.4020  174.5750  144.6230 N   0  0  0  0  0  2  0  0  0  0  0  0
  191.0270  173.6840  140.8060 C   0  0  0  0  0  0  0  0  0  0  0  0
  191.0500  174.9010  142.9360 N   0  0  0  0  0  0  0  0  0  0  0  0
  189.9260  173.0940  141.1560 N   0  0  0  0  0  0  0  0  0  0  0  0
  191.6140  174.6500  141.6760 N   0  0  0  0  0  2  0  0  0  0  0  0
  189.9530  174.3200  143.3210 C   0  0  0  0  0  0  0  0  0  0  0  0
  189.1960  173.4010  142.3900 C   0  0  1  0  0  3  0  0  0  0  0  0
  187.8530  174.0110  142.0380 C   0  0  0  0  0  1  0  0  0  0  0  0
  191.6810  173.3480  139.5360 C   0  0  0  0  0  0  0  0  0  0  0  0
  192.7750  172.7210  139.5280 O   0  0  0  0  0  1  0  0  0  0  0  0
  191.0960  173.7180  138.3320 O   0  0  0  0  0  0  0  0  0  0  0  0
  185.4550  177.8040  144.6900 C   0  0  0  0  0  0  0  0  0  0  0  0
  186.6330  178.1650  144.0310 C   0  0  0  0  0  3  0  0  0  0  0  0
  186.7500  176.5760  146.3240 C   0  0  0  0  0  3  0  0  0  0  0  0
  185.5140  177.0120  145.8380 C   0  0  0  0  0  3  0  0  0  0  0  0
  187.9420  176.9220  145.6660 C   0  0  0  0  0  0  0  0  0  0  0  0
  184.2580  178.2260  144.2170 F   0  0  0  0  0  0  0  0  0  0  0  0
  187.8670  177.7290  144.5180 C   0  0  0  0  0  3  0  0  0  0  0  0
  1  6  2  0  0  0  0
  1  5  1  0  0  0  0
  2  4  1  0  0  0  0
  4  3  1  0  0  0  0
  5  2  2  0  0  0  0
  6  7  1  0  0  0  0
  7  4  2  0  0  0  0
  8  1  1  0  0  0  0
  9 11  2  0  0  0  0
  9 12  1  0  0  0  0
 10 13  2  0  0  0  0
 11 14  1  0  0  0  0
 12 10  1  0  0  0  0
 13  8  1  0  0  0  0
 14 15  1  6  0  0  0
 14 13  1  0  0  0  0
 16  9  1  0  0  0  0
 17 16  1  0  0  0  0
 18 16  2  0  0  0  0
 19 22  1  0  0  0  0
 20 25  1  0  0  0  0
 20 19  2  0  0  0  0
 22 21  2  0  0  0  0
 23  6  1  0  0  0  0
 23 21  1  0  0  0  0
 24 19  1  0  0  0  0
 25 23  2  0  0  0  0
M  END
>  <MODEL>
9

>  <REMARK>
 VINA RESULT:      -6.6      3.365      5.567
  Name = 
  3 active torsions:
  status: ('A' for Active; 'I' for Inactive)
    1  A    between atoms: C_1  and  N_7
    2  A    between atoms: C_3  and  C_11
    3  A    between atoms: C_15  and  C_21
                            x       y       z     vdW  Elec       q    Type
                         _______ _______ _______ _____ _____    ______ ____

>  <TORSDO>
F 3

$$$$
