=
 OpenBabel11042415003D

 39 43  0  0  1  0  0  0  0  0999 V2000
  185.2320  178.9900  143.3270 C   0  0  0  0  0  3  0  0  0  0  0  0
  187.2470  177.8630  144.1240 C   0  0  0  0  0  0  0  0  0  0  0  0
  189.1200  175.7980  143.9340 C   0  0  0  0  0  3  0  0  0  0  0  0
  188.3260  177.7640  145.0060 O   0  0  0  0  0  0  0  0  0  0  0  0
  185.0100  178.1200  142.3310 C   0  0  0  0  0  0  0  0  0  0  0  0
  187.0860  176.8500  143.0610 C   0  0  0  0  0  0  0  0  0  0  0  0
  189.2590  176.7210  144.8950 C   0  0  0  0  0  0  0  0  0  0  0  0
  186.3760  178.8620  144.2450 C   0  0  0  0  0  3  0  0  0  0  0  0
  187.9890  175.8550  142.9770 C   0  0  0  0  0  0  0  0  0  0  0  0
  185.9300  176.9430  142.0940 C   0  0  0  0  0  2  0  0  0  0  0  0
  192.3790  176.4960  146.7000 N   0  0  0  0  0  0  0  0  0  0  0  0
  190.3840  176.6550  145.8370 C   0  0  0  0  0  0  0  0  0  0  0  0
  190.2940  176.7370  147.2150 C   0  0  0  0  0  3  0  0  0  0  0  0
  191.7230  176.5010  145.5280 C   0  0  0  0  0  3  0  0  0  0  0  0
  191.5420  176.6360  147.7140 N   0  0  0  0  0  0  0  0  0  0  0  0
  193.8150  176.3570  146.8530 C   0  0  0  0  0  1  0  0  0  0  0  0
  188.8140  172.8170  141.0520 C   0  0  0  0  0  2  0  0  0  0  0  0
  188.3760  173.4630  142.3470 C   0  0  0  0  0  2  0  0  0  0  0  0
  189.1480  173.8860  140.1060 N   0  0  0  0  0  0  0  0  0  0  0  0
  188.6720  175.1460  140.6730 C   0  0  0  0  0  2  0  0  0  0  0  0
  187.8680  174.8080  141.9080 C   0  0  2  0  0  3  0  0  0  0  0  0
  188.5300  173.6560  138.7860 C   0  0  2  0  0  3  0  0  0  0  0  0
  189.5950  171.7480  137.4680 C   0  0  0  0  0  2  0  0  0  0  0  0
  191.6060  172.0260  135.0380 O   0  0  0  0  0  1  0  0  0  0  0  0
  191.0310  171.2610  137.2370 C   0  0  0  0  0  2  0  0  0  0  0  0
  191.8510  172.2440  136.3940 C   0  0  2  0  0  3  0  0  0  0  0  0
  189.5290  173.2750  137.6690 C   0  0  2  0  0  3  0  0  0  0  0  0
  191.5270  173.7040  136.7420 C   0  0  0  0  0  2  0  0  0  0  0  0
  190.8080  173.7910  137.9460 O   0  0  0  0  0  0  0  0  0  0  0  0
  187.7530  174.8300  138.4040 N   0  0  0  0  0  2  0  0  0  0  0  0
  186.9190  175.9380  136.7310 C   0  0  0  0  0  1  0  0  0  0  0  0
  187.8290  174.9330  137.0560 O   0  0  0  0  0  0  0  0  0  0  0  0
  183.8440  178.3080  141.4430 C   0  0  0  0  0  0  0  0  0  0  0  0
  183.9990  178.3380  140.1890 O   0  0  0  0  0  0  0  0  0  0  0  0
  181.4110  178.5610  141.2640 C   0  0  0  0  0  3  0  0  0  0  0  0
  182.4970  178.4590  142.0180 C   0  0  0  0  0  3  0  0  0  0  0  0
  180.0810  178.7130  141.9080 C   0  0  0  0  0  2  0  0  0  0  0  0
  179.1870  179.4260  141.0150 N   0  0  0  0  0  2  0  0  0  0  0  0
  179.9550  180.5100  140.4350 C   0  0  0  0  0  1  0  0  0  0  0  0
  1  8  1  0  0  0  0
  2  8  2  0  0  0  0
  2  4  1  0  0  0  0
  3  7  2  0  0  0  0
  5  1  2  0  0  0  0
  6  2  1  0  0  0  0
  7  4  1  0  0  0  0
  7 12  1  0  0  0  0
  9  6  2  0  0  0  0
  9  3  1  0  0  0  0
 10  5  1  0  0  0  0
 10  6  1  0  0  0  0
 11 16  1  0  0  0  0
 11 15  1  0  0  0  0
 12 13  1  0  0  0  0
 13 15  2  0  0  0  0
 14 12  2  0  0  0  0
 14 11  1  0  0  0  0
 17 18  1  0  0  0  0
 19 20  1  0  0  0  0
 19 17  1  0  0  0  0
 20 21  1  0  0  0  0
 21 18  1  0  0  0  0
 21  9  1  1  0  0  0
 22 30  1  6  0  0  0
 22 19  1  0  0  0  0
 23 27  1  0  0  0  0
 25 23  1  0  0  0  0
 26 24  1  6  0  0  0
 26 28  1  0  0  0  0
 26 25  1  0  0  0  0
 27 29  1  0  0  0  0
 27 22  1  1  0  0  0
 28 29  1  0  0  0  0
 31 32  1  0  0  0  0
 32 30  1  0  0  0  0
 33 36  1  0  0  0  0
 33  5  1  0  0  0  0
 34 33  2  0  0  0  0
 35 37  1  0  0  0  0
 35 36  2  0  0  0  0
 38 37  1  0  0  0  0
 39 38  1  0  0  0  0
M  END
>  <MODEL>
1

>  <REMARK>
 VINA RESULT:      -7.2      0.000      0.000
  Name = 
  10 active torsions:
  status: ('A' for Active; 'I' for Inactive)
    1  A    between atoms: N_7  and  C_10
    2  A    between atoms: C_8  and  C_17
    3  A    between atoms: C_8  and  C_28
    4  A    between atoms: C_9  and  C_10
    5  A    between atoms: N_12  and  O_20
    6  A    between atoms: N_12  and  C_24
    7  A    between atoms: C_18  and  C_24
    8  A    between atoms: N_21  and  C_24
    9  A    between atoms: C_22  and  C_27
   10  A    between atoms: C_33  and  C_36
                            x       y       z     vdW  Elec       q    Type
                         _______ _______ _______ _____ _____    ______ ____

>  <TORSDO>
F 10

$$$$
=
 OpenBabel11042415003D

 39 43  0  0  1  0  0  0  0  0999 V2000
  189.5840  177.4340  147.3390 C   0  0  0  0  0  3  0  0  0  0  0  0
  191.3150  175.9220  146.5130 C   0  0  0  0  0  0  0  0  0  0  0  0
  192.1490  173.8770  144.8000 C   0  0  0  0  0  3  0  0  0  0  0  0
  192.6230  175.4300  146.5330 O   0  0  0  0  0  0  0  0  0  0  0  0
  188.6360  176.9760  146.5070 C   0  0  0  0  0  0  0  0  0  0  0  0
  190.3420  175.3470  145.5610 C   0  0  0  0  0  0  0  0  0  0  0  0
  193.0250  174.4040  145.6650 C   0  0  0  0  0  0  0  0  0  0  0  0
  190.9550  176.8970  147.3430 C   0  0  0  0  0  3  0  0  0  0  0  0
  190.7480  174.3590  144.7410 C   0  0  0  0  0  0  0  0  0  0  0  0
  188.9250  175.8680  145.5180 C   0  0  0  0  0  2  0  0  0  0  0  0
  196.1810  172.6480  145.6840 N   0  0  0  0  0  0  0  0  0  0  0  0
  194.4120  173.9190  145.7120 C   0  0  0  0  0  0  0  0  0  0  0  0
  195.5370  174.6980  145.9080 C   0  0  0  0  0  3  0  0  0  0  0  0
  194.8430  172.6130  145.5720 C   0  0  0  0  0  3  0  0  0  0  0  0
  196.6100  173.8830  145.8850 N   0  0  0  0  0  0  0  0  0  0  0  0
  197.0570  171.4940  145.6000 C   0  0  0  0  0  1  0  0  0  0  0  0
  189.3280  171.8190  142.4720 C   0  0  0  0  0  2  0  0  0  0  0  0
  189.7110  172.2550  143.8680 C   0  0  0  0  0  2  0  0  0  0  0  0
  189.7950  172.8480  141.5370 N   0  0  0  0  0  0  0  0  0  0  0  0
  190.1990  174.0120  142.3210 C   0  0  0  0  0  2  0  0  0  0  0  0
  189.7940  173.7520  143.7540 C   0  0  2  0  0  3  0  0  0  0  0  0
  188.7440  173.2230  140.5720 C   0  0  2  0  0  3  0  0  0  0  0  0
  189.9300  171.4720  139.1430 C   0  0  0  0  0  2  0  0  0  0  0  0
  189.5570  171.0070  136.0330 O   0  0  0  0  0  1  0  0  0  0  0  0
  190.8980  171.5200  137.9550 C   0  0  0  0  0  2  0  0  0  0  0  0
  190.2290  172.0450  136.6790 C   0  0  2  0  0  3  0  0  0  0  0  0
  188.9580  172.6690  139.1440 C   0  0  2  0  0  3  0  0  0  0  0  0
  189.2420  173.1830  136.9780 C   0  0  0  0  0  2  0  0  0  0  0  0
  189.4200  173.6790  138.2810 O   0  0  0  0  0  0  0  0  0  0  0  0
  188.6070  174.6750  140.5450 N   0  0  0  0  0  2  0  0  0  0  0  0
  187.5300  176.3760  141.3640 C   0  0  0  0  0  1  0  0  0  0  0  0
  187.5160  174.9840  141.2850 O   0  0  0  0  0  0  0  0  0  0  0  0
  187.2800  177.5610  146.5530 C   0  0  0  0  0  0  0  0  0  0  0  0
  186.5920  177.4860  147.6090 O   0  0  0  0  0  0  0  0  0  0  0  0
  185.7320  179.1060  145.4440 C   0  0  0  0  0  3  0  0  0  0  0  0
  186.7300  178.2360  145.3660 C   0  0  0  0  0  3  0  0  0  0  0  0
  185.2200  179.7510  144.2070 C   0  0  0  0  0  2  0  0  0  0  0  0
  185.4020  178.8560  143.0810 N   0  0  0  0  0  2  0  0  0  0  0  0
  184.1040  178.2720  142.8010 C   0  0  0  0  0  1  0  0  0  0  0  0
  1  8  1  0  0  0  0
  2  4  1  0  0  0  0
  2  8  2  0  0  0  0
  3  7  2  0  0  0  0
  5 33  1  0  0  0  0
  5  1  2  0  0  0  0
  6  2  1  0  0  0  0
  7 12  1  0  0  0  0
  7  4  1  0  0  0  0
  9  3  1  0  0  0  0
  9  6  2  0  0  0  0
 10  6  1  0  0  0  0
 10  5  1  0  0  0  0
 11 15  1  0  0  0  0
 12 13  1  0  0  0  0
 14 11  1  0  0  0  0
 14 12  2  0  0  0  0
 15 13  2  0  0  0  0
 16 11  1  0  0  0  0
 17 18  1  0  0  0  0
 19 20  1  0  0  0  0
 19 17  1  0  0  0  0
 20 21  1  0  0  0  0
 21 18  1  0  0  0  0
 21  9  1  1  0  0  0
 22 30  1  6  0  0  0
 22 19  1  0  0  0  0
 23 27  1  0  0  0  0
 25 23  1  0  0  0  0
 26 24  1  1  0  0  0
 26 28  1  0  0  0  0
 26 25  1  0  0  0  0
 27 22  1  1  0  0  0
 28 29  1  0  0  0  0
 29 27  1  0  0  0  0
 30 32  1  0  0  0  0
 32 31  1  0  0  0  0
 33 34  2  0  0  0  0
 36 35  2  0  0  0  0
 36 33  1  0  0  0  0
 37 35  1  0  0  0  0
 38 37  1  0  0  0  0
 39 38  1  0  0  0  0
M  END
>  <MODEL>
2

>  <REMARK>
 VINA RESULT:      -7.2      2.768      4.522
  Name = 
  10 active torsions:
  status: ('A' for Active; 'I' for Inactive)
    1  A    between atoms: N_7  and  C_10
    2  A    between atoms: C_8  and  C_17
    3  A    between atoms: C_8  and  C_28
    4  A    between atoms: C_9  and  C_10
    5  A    between atoms: N_12  and  O_20
    6  A    between atoms: N_12  and  C_24
    7  A    between atoms: C_18  and  C_24
    8  A    between atoms: N_21  and  C_24
    9  A    between atoms: C_22  and  C_27
   10  A    between atoms: C_33  and  C_36
                            x       y       z     vdW  Elec       q    Type
                         _______ _______ _______ _____ _____    ______ ____

>  <TORSDO>
F 10

$$$$
=
 OpenBabel11042415003D

 39 43  0  0  1  0  0  0  0  0999 V2000
  192.9890  175.8590  146.8520 C   0  0  0  0  0  3  0  0  0  0  0  0
  190.6630  176.4130  146.3580 C   0  0  0  0  0  0  0  0  0  0  0  0
  188.4440  176.3220  144.6620 C   0  0  0  0  0  3  0  0  0  0  0  0
  189.4450  177.0040  146.7050 O   0  0  0  0  0  0  0  0  0  0  0  0
  193.1910  175.2070  145.6970 C   0  0  0  0  0  0  0  0  0  0  0  0
  190.7860  175.7210  145.0590 C   0  0  0  0  0  0  0  0  0  0  0  0
  188.3400  176.9470  145.8420 C   0  0  0  0  0  0  0  0  0  0  0  0
  191.6970  176.4760  147.1930 C   0  0  0  0  0  3  0  0  0  0  0  0
  189.7150  175.6830  144.2440 C   0  0  0  0  0  0  0  0  0  0  0  0
  192.0910  175.0700  144.6680 C   0  0  0  0  0  2  0  0  0  0  0  0
  185.0610  178.4090  146.2370 N   0  0  0  0  0  0  0  0  0  0  0  0
  187.0740  177.5750  146.2450 C   0  0  0  0  0  0  0  0  0  0  0  0
  186.7600  178.0240  147.5160 C   0  0  0  0  0  3  0  0  0  0  0  0
  185.9770  177.8300  145.4440 C   0  0  0  0  0  3  0  0  0  0  0  0
  185.5130  178.5310  147.4750 N   0  0  0  0  0  0  0  0  0  0  0  0
  183.7460  178.8490  145.8130 C   0  0  0  0  0  1  0  0  0  0  0  0
  188.6120  174.5000  140.9270 C   0  0  0  0  0  2  0  0  0  0  0  0
  188.9500  175.6400  141.8610 C   0  0  0  0  0  2  0  0  0  0  0  0
  188.6730  173.2540  141.6990 N   0  0  0  0  0  0  0  0  0  0  0  0
  189.2980  173.5580  142.9840 C   0  0  0  0  0  2  0  0  0  0  0  0
  189.7940  174.9850  142.9180 C   0  0  2  0  0  3  0  0  0  0  0  0
  189.4430  172.2140  140.9910 C   0  0  2  0  0  3  0  0  0  0  0  0
  191.9870  172.3410  140.8300 C   0  0  0  0  0  2  0  0  0  0  0  0
  194.0680  171.3290  142.9910 O   0  0  0  0  0  1  0  0  0  0  0  0
  193.1220  171.3100  140.7870 C   0  0  0  0  0  2  0  0  0  0  0  0
  193.2870  170.5700  142.1200 C   0  0  2  0  0  3  0  0  0  0  0  0
  190.7870  171.8450  141.6610 C   0  0  2  0  0  3  0  0  0  0  0  0
  191.9320  170.2710  142.7780 C   0  0  0  0  0  2  0  0  0  0  0  0
  190.8750  170.4570  141.8720 O   0  0  0  0  0  0  0  0  0  0  0  0
  189.6540  172.6240  139.6070 N   0  0  0  0  0  2  0  0  0  0  0  0
  189.7430  170.9600  138.2120 C   0  0  0  0  0  1  0  0  0  0  0  0
  188.8620  171.8410  138.8370 O   0  0  0  0  0  0  0  0  0  0  0  0
  194.5130  174.6080  145.4180 C   0  0  0  0  0  0  0  0  0  0  0  0
  194.7330  173.3970  145.7040 O   0  0  0  0  0  0  0  0  0  0  0  0
  195.6450  175.6250  143.4950 C   0  0  0  0  0  3  0  0  0  0  0  0
  195.5750  175.4210  144.8040 C   0  0  0  0  0  3  0  0  0  0  0  0
  196.7450  176.4540  142.9390 C   0  0  0  0  0  2  0  0  0  0  0  0
  196.4150  176.8550  141.5840 N   0  0  0  0  0  2  0  0  0  0  0  0
  195.0570  176.4110  141.3390 C   0  0  0  0  0  1  0  0  0  0  0  0
  1  8  1  0  0  0  0
  2  4  1  0  0  0  0
  2  8  2  0  0  0  0
  3  7  2  0  0  0  0
  5  1  2  0  0  0  0
  6  2  1  0  0  0  0
  7 12  1  0  0  0  0
  7  4  1  0  0  0  0
  9  3  1  0  0  0  0
  9  6  2  0  0  0  0
 10  6  1  0  0  0  0
 10  5  1  0  0  0  0
 11 15  1  0  0  0  0
 12 13  1  0  0  0  0
 14 11  1  0  0  0  0
 14 12  2  0  0  0  0
 15 13  2  0  0  0  0
 16 11  1  0  0  0  0
 17 19  1  0  0  0  0
 17 18  1  0  0  0  0
 18 21  1  0  0  0  0
 19 20  1  0  0  0  0
 21 20  1  0  0  0  0
 21  9  1  1  0  0  0
 22 30  1  6  0  0  0
 22 19  1  0  0  0  0
 23 27  1  0  0  0  0
 25 23  1  0  0  0  0
 25 26  1  0  0  0  0
 26 28  1  0  0  0  0
 26 24  1  1  0  0  0
 27 22  1  6  0  0  0
 27 29  1  0  0  0  0
 29 28  1  0  0  0  0
 31 32  1  0  0  0  0
 32 30  1  0  0  0  0
 33  5  1  0  0  0  0
 33 34  2  0  0  0  0
 35 36  2  0  0  0  0
 36 33  1  0  0  0  0
 37 35  1  0  0  0  0
 38 37  1  0  0  0  0
 39 38  1  0  0  0  0
M  END
>  <MODEL>
3

>  <REMARK>
 VINA RESULT:      -7.1      3.653      7.934
  Name = 
  10 active torsions:
  status: ('A' for Active; 'I' for Inactive)
    1  A    between atoms: N_7  and  C_10
    2  A    between atoms: C_8  and  C_17
    3  A    between atoms: C_8  and  C_28
    4  A    between atoms: C_9  and  C_10
    5  A    between atoms: N_12  and  O_20
    6  A    between atoms: N_12  and  C_24
    7  A    between atoms: C_18  and  C_24
    8  A    between atoms: N_21  and  C_24
    9  A    between atoms: C_22  and  C_27
   10  A    between atoms: C_33  and  C_36
                            x       y       z     vdW  Elec       q    Type
                         _______ _______ _______ _____ _____    ______ ____

>  <TORSDO>
F 10

$$$$
=
 OpenBabel11042415003D

 39 43  0  0  1  0  0  0  0  0999 V2000
  191.4110  176.6660  147.5260 C   0  0  0  0  0  3  0  0  0  0  0  0
  192.8090  175.0660  146.3220 C   0  0  0  0  0  0  0  0  0  0  0  0
  193.1650  173.2050  144.2680 C   0  0  0  0  0  3  0  0  0  0  0  0
  194.0210  174.3970  146.1360 O   0  0  0  0  0  0  0  0  0  0  0  0
  190.3360  176.4770  146.7460 C   0  0  0  0  0  0  0  0  0  0  0  0
  191.6800  174.7840  145.4110 C   0  0  0  0  0  0  0  0  0  0  0  0
  194.1840  173.4670  145.0980 C   0  0  0  0  0  0  0  0  0  0  0  0
  192.6770  175.9460  147.3110 C   0  0  0  0  0  3  0  0  0  0  0  0
  191.8560  173.8840  144.4250 C   0  0  0  0  0  0  0  0  0  0  0  0
  190.3640  175.5010  145.5910 C   0  0  0  0  0  2  0  0  0  0  0  0
  197.0620  171.2940  144.8960 N   0  0  0  0  0  0  0  0  0  0  0  0
  195.4770  172.7890  144.9300 C   0  0  0  0  0  0  0  0  0  0  0  0
  196.6430  173.3700  144.4680 C   0  0  0  0  0  3  0  0  0  0  0  0
  195.7640  171.4630  145.1980 C   0  0  0  0  0  3  0  0  0  0  0  0
  197.5990  172.4210  144.4600 N   0  0  0  0  0  0  0  0  0  0  0  0
  197.7940  170.0480  145.0250 C   0  0  0  0  0  1  0  0  0  0  0  0
  190.0480  172.1370  141.7250 C   0  0  0  0  0  2  0  0  0  0  0  0
  190.6790  172.1180  143.0980 C   0  0  0  0  0  2  0  0  0  0  0  0
  190.3350  173.4400  141.1160 N   0  0  0  0  0  0  0  0  0  0  0  0
  190.8750  174.3090  142.1600 C   0  0  0  0  0  2  0  0  0  0  0  0
  190.7390  173.5720  143.4730 C   0  0  2  0  0  3  0  0  0  0  0  0
  189.1260  174.0430  140.5260 C   0  0  2  0  0  3  0  0  0  0  0  0
  187.8390  174.9220  142.5470 C   0  0  0  0  0  2  0  0  0  0  0  0
  187.4170  177.9580  143.3410 O   0  0  0  0  0  1  0  0  0  0  0  0
  186.5890  175.7890  142.7410 C   0  0  0  0  0  2  0  0  0  0  0  0
  186.8140  177.2420  142.3080 C   0  0  2  0  0  3  0  0  0  0  0  0
  188.6100  175.2990  141.2660 C   0  0  2  0  0  3  0  0  0  0  0  0
  187.6870  177.3330  141.0470 C   0  0  0  0  0  2  0  0  0  0  0  0
  187.8040  176.0820  140.4190 O   0  0  0  0  0  0  0  0  0  0  0  0
  188.0770  173.0340  140.4320 N   0  0  0  0  0  2  0  0  0  0  0  0
  188.1920  173.4070  138.2940 C   0  0  0  0  0  1  0  0  0  0  0  0
  188.2470  172.3950  139.2510 O   0  0  0  0  0  0  0  0  0  0  0  0
  189.0960  177.2340  147.0160 C   0  0  0  0  0  0  0  0  0  0  0  0
  189.1370  178.2940  147.7030 O   0  0  0  0  0  0  0  0  0  0  0  0
  186.6500  177.2850  146.8470 C   0  0  0  0  0  3  0  0  0  0  0  0
  187.8110  176.7580  146.4800 C   0  0  0  0  0  3  0  0  0  0  0  0
  185.3870  176.7550  146.2700 C   0  0  0  0  0  2  0  0  0  0  0  0
  184.8310  177.7240  145.3450 N   0  0  0  0  0  2  0  0  0  0  0  0
  184.0630  178.6630  146.1400 C   0  0  0  0  0  1  0  0  0  0  0  0
  2  8  2  0  0  0  0
  3  9  1  0  0  0  0
  3  7  2  0  0  0  0
  4  2  1  0  0  0  0
  5 33  1  0  0  0  0
  5  1  2  0  0  0  0
  6 10  1  0  0  0  0
  6  2  1  0  0  0  0
  7  4  1  0  0  0  0
  8  1  1  0  0  0  0
  9  6  2  0  0  0  0
 10  5  1  0  0  0  0
 11 16  1  0  0  0  0
 11 14  1  0  0  0  0
 12  7  1  0  0  0  0
 12 14  2  0  0  0  0
 13 12  1  0  0  0  0
 15 13  2  0  0  0  0
 15 11  1  0  0  0  0
 17 18  1  0  0  0  0
 18 21  1  0  0  0  0
 19 17  1  0  0  0  0
 19 20  1  0  0  0  0
 20 21  1  0  0  0  0
 21  9  1  1  0  0  0
 22 30  1  1  0  0  0
 22 19  1  0  0  0  0
 23 25  1  0  0  0  0
 26 25  1  0  0  0  0
 26 24  1  1  0  0  0
 27 22  1  6  0  0  0
 27 23  1  0  0  0  0
 28 26  1  0  0  0  0
 29 28  1  0  0  0  0
 29 27  1  0  0  0  0
 31 32  1  0  0  0  0
 32 30  1  0  0  0  0
 33 34  2  0  0  0  0
 36 35  2  0  0  0  0
 36 33  1  0  0  0  0
 37 35  1  0  0  0  0
 38 39  1  0  0  0  0
 38 37  1  0  0  0  0
M  END
>  <MODEL>
4

>  <REMARK>
 VINA RESULT:      -6.9      3.536      6.403
  Name = 
  10 active torsions:
  status: ('A' for Active; 'I' for Inactive)
    1  A    between atoms: N_7  and  C_10
    2  A    between atoms: C_8  and  C_17
    3  A    between atoms: C_8  and  C_28
    4  A    between atoms: C_9  and  C_10
    5  A    between atoms: N_12  and  O_20
    6  A    between atoms: N_12  and  C_24
    7  A    between atoms: C_18  and  C_24
    8  A    between atoms: N_21  and  C_24
    9  A    between atoms: C_22  and  C_27
   10  A    between atoms: C_33  and  C_36
                            x       y       z     vdW  Elec       q    Type
                         _______ _______ _______ _____ _____    ______ ____

>  <TORSDO>
F 10

$$$$
=
 OpenBabel11042415003D

 39 43  0  0  1  0  0  0  0  0999 V2000
  189.0230  174.0060  140.1150 C   0  0  0  0  0  3  0  0  0  0  0  0
  188.6140  175.0910  142.2640 C   0  0  0  0  0  0  0  0  0  0  0  0
  189.4850  175.8810  144.7990 C   0  0  0  0  0  3  0  0  0  0  0  0
  187.7810  175.7820  143.1480 O   0  0  0  0  0  0  0  0  0  0  0  0
  190.2900  173.6720  140.4030 C   0  0  0  0  0  0  0  0  0  0  0  0
  189.9950  174.7650  142.6780 C   0  0  0  0  0  0  0  0  0  0  0  0
  188.2350  176.1730  144.4170 C   0  0  0  0  0  0  0  0  0  0  0  0
  188.1640  174.7320  141.0640 C   0  0  0  0  0  3  0  0  0  0  0  0
  190.4080  175.1450  143.9020 C   0  0  0  0  0  0  0  0  0  0  0  0
  190.9130  174.0250  141.7360 C   0  0  0  0  0  2  0  0  0  0  0  0
  185.5830  177.8770  146.1790 N   0  0  0  0  0  0  0  0  0  0  0  0
  187.3300  176.9040  145.3150 C   0  0  0  0  0  0  0  0  0  0  0  0
  187.6640  177.4270  146.5510 C   0  0  0  0  0  3  0  0  0  0  0  0
  185.9980  177.2020  145.0950 C   0  0  0  0  0  3  0  0  0  0  0  0
  186.5640  178.0180  147.0560 N   0  0  0  0  0  0  0  0  0  0  0  0
  184.2410  178.3890  146.3810 C   0  0  0  0  0  1  0  0  0  0  0  0
  193.3190  175.0350  146.1660 C   0  0  0  0  0  2  0  0  0  0  0  0
  191.8990  174.6300  145.8460 C   0  0  0  0  0  2  0  0  0  0  0  0
  193.7580  175.9860  145.1390 N   0  0  0  0  0  0  0  0  0  0  0  0
  192.7690  175.9660  144.0630 C   0  0  0  0  0  2  0  0  0  0  0  0
  191.8040  174.8400  144.3600 C   0  0  2  0  0  3  0  0  0  0  0  0
  195.0910  175.6410  144.6120 C   0  0  2  0  0  3  0  0  0  0  0  0
  195.3950  174.3050  142.4590 C   0  0  0  0  0  2  0  0  0  0  0  0
  195.3370  175.4450  139.5060 O   0  0  0  0  0  1  0  0  0  0  0  0
  196.4200  174.3080  141.3180 C   0  0  0  0  0  2  0  0  0  0  0  0
  196.3390  175.5800  140.4660 C   0  0  2  0  0  3  0  0  0  0  0  0
  195.2080  175.7070  143.0720 C   0  0  2  0  0  3  0  0  0  0  0  0
  196.0620  176.8240  141.3220 C   0  0  0  0  0  2  0  0  0  0  0  0
  196.2620  176.5570  142.6870 O   0  0  0  0  0  0  0  0  0  0  0  0
  195.4800  174.3230  145.1010 N   0  0  0  0  0  2  0  0  0  0  0  0
  196.9880  173.2120  146.2030 C   0  0  0  0  0  1  0  0  0  0  0  0
  196.7430  174.4330  145.5750 O   0  0  0  0  0  0  0  0  0  0  0  0
  191.1000  172.9450  139.4030 C   0  0  0  0  0  0  0  0  0  0  0  0
  191.1880  171.6860  139.4530 O   0  0  0  0  0  0  0  0  0  0  0  0
  191.2250  173.9960  137.1910 C   0  0  0  0  0  3  0  0  0  0  0  0
  191.8020  173.6880  138.3440 C   0  0  0  0  0  3  0  0  0  0  0  0
  191.9910  174.7460  136.1620 C   0  0  0  0  0  2  0  0  0  0  0  0
  192.9910  175.5740  136.8080 N   0  0  0  0  0  2  0  0  0  0  0  0
  193.1910  176.7280  135.9510 C   0  0  0  0  0  1  0  0  0  0  0  0
  1  5  2  0  0  0  0
  1  8  1  0  0  0  0
  2  6  1  0  0  0  0
  2  4  1  0  0  0  0
  4  7  1  0  0  0  0
  5 10  1  0  0  0  0
  6  9  2  0  0  0  0
  7  3  2  0  0  0  0
  7 12  1  0  0  0  0
  8  2  2  0  0  0  0
  9  3  1  0  0  0  0
 10  6  1  0  0  0  0
 11 16  1  0  0  0  0
 11 15  1  0  0  0  0
 12 13  1  0  0  0  0
 13 15  2  0  0  0  0
 14 12  2  0  0  0  0
 14 11  1  0  0  0  0
 18 17  1  0  0  0  0
 19 17  1  0  0  0  0
 20 21  1  0  0  0  0
 20 19  1  0  0  0  0
 21  9  1  1  0  0  0
 21 18  1  0  0  0  0
 22 30  1  6  0  0  0
 22 19  1  0  0  0  0
 23 27  1  0  0  0  0
 25 23  1  0  0  0  0
 26 24  1  6  0  0  0
 26 25  1  0  0  0  0
 26 28  1  0  0  0  0
 27 22  1  1  0  0  0
 28 29  1  0  0  0  0
 29 27  1  0  0  0  0
 30 32  1  0  0  0  0
 32 31  1  0  0  0  0
 33 34  2  0  0  0  0
 33  5  1  0  0  0  0
 35 36  2  0  0  0  0
 36 33  1  0  0  0  0
 37 38  1  0  0  0  0
 37 35  1  0  0  0  0
 39 38  1  0  0  0  0
M  END
>  <MODEL>
5

>  <REMARK>
 VINA RESULT:      -6.9      3.803      8.165
  Name = 
  10 active torsions:
  status: ('A' for Active; 'I' for Inactive)
    1  A    between atoms: N_7  and  C_10
    2  A    between atoms: C_8  and  C_17
    3  A    between atoms: C_8  and  C_28
    4  A    between atoms: C_9  and  C_10
    5  A    between atoms: N_12  and  O_20
    6  A    between atoms: N_12  and  C_24
    7  A    between atoms: C_18  and  C_24
    8  A    between atoms: N_21  and  C_24
    9  A    between atoms: C_22  and  C_27
   10  A    between atoms: C_33  and  C_36
                            x       y       z     vdW  Elec       q    Type
                         _______ _______ _______ _____ _____    ______ ____

>  <TORSDO>
F 10

$$$$
=
 OpenBabel11042415003D

 39 43  0  0  1  0  0  0  0  0999 V2000
  189.0250  177.4140  145.9590 C   0  0  0  0  0  3  0  0  0  0  0  0
  191.0910  176.4590  145.0740 C   0  0  0  0  0  0  0  0  0  0  0  0
  192.4220  174.6610  143.3990 C   0  0  0  0  0  3  0  0  0  0  0  0
  192.4860  176.3980  145.0180 O   0  0  0  0  0  0  0  0  0  0  0  0
  188.2210  176.6300  145.2250 C   0  0  0  0  0  0  0  0  0  0  0  0
  190.2930  175.5480  144.2280 C   0  0  0  0  0  0  0  0  0  0  0  0
  193.1380  175.4910  144.1690 C   0  0  0  0  0  0  0  0  0  0  0  0
  190.4930  177.3290  145.8840 C   0  0  0  0  0  3  0  0  0  0  0  0
  190.9400  174.6810  143.4250 C   0  0  0  0  0  0  0  0  0  0  0  0
  188.7850  175.6020  144.2690 C   0  0  0  0  0  2  0  0  0  0  0  0
  196.6910  174.8840  144.3950 N   0  0  0  0  0  0  0  0  0  0  0  0
  194.6070  175.4620  144.1330 C   0  0  0  0  0  0  0  0  0  0  0  0
  195.4220  176.4140  143.5470 C   0  0  0  0  0  3  0  0  0  0  0  0
  195.4360  174.4940  144.6700 C   0  0  0  0  0  3  0  0  0  0  0  0
  196.7000  176.0260  143.7260 N   0  0  0  0  0  0  0  0  0  0  0  0
  197.8920  174.1630  144.7730 C   0  0  0  0  0  1  0  0  0  0  0  0
  190.0160  171.5080  141.7850 C   0  0  0  0  0  2  0  0  0  0  0  0
  190.1830  172.3260  143.0450 C   0  0  0  0  0  2  0  0  0  0  0  0
  190.5220  172.3040  140.6620 N   0  0  0  0  0  0  0  0  0  0  0  0
  190.7330  173.6670  141.1440 C   0  0  0  0  0  2  0  0  0  0  0  0
  190.1680  173.7430  142.5440 C   0  0  2  0  0  3  0  0  0  0  0  0
  189.5780  172.3060  139.5280 C   0  0  2  0  0  3  0  0  0  0  0  0
  189.6910  170.2010  138.0890 C   0  0  0  0  0  2  0  0  0  0  0  0
  191.0820  169.9230  135.2580 O   0  0  0  0  0  1  0  0  0  0  0  0
  190.8220  169.3090  137.5620 C   0  0  0  0  0  2  0  0  0  0  0  0
  191.6840  170.0210  136.5120 C   0  0  2  0  0  3  0  0  0  0  0  0
  190.1340  171.6710  138.2320 C   0  0  2  0  0  3  0  0  0  0  0  0
  191.9020  171.5010  136.8600 C   0  0  0  0  0  2  0  0  0  0  0  0
  191.5370  171.7680  138.1900 O   0  0  0  0  0  0  0  0  0  0  0  0
  189.1220  173.6680  139.2790 N   0  0  0  0  0  2  0  0  0  0  0  0
  187.8160  174.7690  137.9350 C   0  0  0  0  0  1  0  0  0  0  0  0
  188.7420  173.7270  137.9810 O   0  0  0  0  0  0  0  0  0  0  0  0
  186.7560  176.7690  145.3470 C   0  0  0  0  0  0  0  0  0  0  0  0
  186.2160  176.8250  146.4880 O   0  0  0  0  0  0  0  0  0  0  0  0
  185.2130  177.9240  143.8300 C   0  0  0  0  0  3  0  0  0  0  0  0
  185.9200  176.8450  144.1370 C   0  0  0  0  0  3  0  0  0  0  0  0
  184.3870  177.9340  142.5950 C   0  0  0  0  0  2  0  0  0  0  0  0
  185.2360  178.1800  141.4440 N   0  0  0  0  0  2  0  0  0  0  0  0
  184.3570  178.2910  140.2960 C   0  0  0  0  0  1  0  0  0  0  0  0
  2  8  2  0  0  0  0
  3  9  1  0  0  0  0
  3  7  2  0  0  0  0
  4  2  1  0  0  0  0
  5 33  1  0  0  0  0
  5  1  2  0  0  0  0
  6 10  1  0  0  0  0
  6  2  1  0  0  0  0
  7  4  1  0  0  0  0
  8  1  1  0  0  0  0
  9  6  2  0  0  0  0
 10  5  1  0  0  0  0
 11 14  1  0  0  0  0
 11 16  1  0  0  0  0
 12  7  1  0  0  0  0
 12 14  2  0  0  0  0
 13 15  2  0  0  0  0
 13 12  1  0  0  0  0
 15 11  1  0  0  0  0
 17 18  1  0  0  0  0
 19 20  1  0  0  0  0
 19 17  1  0  0  0  0
 20 21  1  0  0  0  0
 21 18  1  0  0  0  0
 21  9  1  1  0  0  0
 22 30  1  6  0  0  0
 22 19  1  0  0  0  0
 23 27  1  0  0  0  0
 25 23  1  0  0  0  0
 26 24  1  6  0  0  0
 26 28  1  0  0  0  0
 26 25  1  0  0  0  0
 27 22  1  1  0  0  0
 28 29  1  0  0  0  0
 29 27  1  0  0  0  0
 31 32  1  0  0  0  0
 32 30  1  0  0  0  0
 33 34  2  0  0  0  0
 35 36  2  0  0  0  0
 36 33  1  0  0  0  0
 37 35  1  0  0  0  0
 38 37  1  0  0  0  0
 39 38  1  0  0  0  0
M  END
>  <MODEL>
6

>  <REMARK>
 VINA RESULT:      -6.8      2.782      3.965
  Name = 
  10 active torsions:
  status: ('A' for Active; 'I' for Inactive)
    1  A    between atoms: N_7  and  C_10
    2  A    between atoms: C_8  and  C_17
    3  A    between atoms: C_8  and  C_28
    4  A    between atoms: C_9  and  C_10
    5  A    between atoms: N_12  and  O_20
    6  A    between atoms: N_12  and  C_24
    7  A    between atoms: C_18  and  C_24
    8  A    between atoms: N_21  and  C_24
    9  A    between atoms: C_22  and  C_27
   10  A    between atoms: C_33  and  C_36
                            x       y       z     vdW  Elec       q    Type
                         _______ _______ _______ _____ _____    ______ ____

>  <TORSDO>
F 10

$$$$
=
 OpenBabel11042415003D

 39 43  0  0  1  0  0  0  0  0999 V2000
  193.3160  175.8990  146.6160 C   0  0  0  0  0  3  0  0  0  0  0  0
  190.9470  176.2120  146.1160 C   0  0  0  0  0  0  0  0  0  0  0  0
  188.7590  175.9190  144.4010 C   0  0  0  0  0  3  0  0  0  0  0  0
  189.6710  176.6630  146.4640 O   0  0  0  0  0  0  0  0  0  0  0  0
  193.5930  175.2950  145.4500 C   0  0  0  0  0  0  0  0  0  0  0  0
  191.1500  175.5630  144.8040 C   0  0  0  0  0  0  0  0  0  0  0  0
  188.5830  176.5060  145.5920 C   0  0  0  0  0  0  0  0  0  0  0  0
  191.9640  176.3680  146.9590 C   0  0  0  0  0  3  0  0  0  0  0  0
  190.0930  175.4280  143.9800 C   0  0  0  0  0  0  0  0  0  0  0  0
  192.5190  175.0620  144.4100 C   0  0  0  0  0  2  0  0  0  0  0  0
  185.2900  177.9280  146.0140 N   0  0  0  0  0  0  0  0  0  0  0  0
  187.2550  176.9880  145.9980 C   0  0  0  0  0  0  0  0  0  0  0  0
  186.6640  176.7910  147.2330 C   0  0  0  0  0  3  0  0  0  0  0  0
  186.3620  177.7160  145.2340 C   0  0  0  0  0  3  0  0  0  0  0  0
  185.4540  177.3830  147.2080 N   0  0  0  0  0  0  0  0  0  0  0  0
  184.0990  178.6560  145.6170 C   0  0  0  0  0  1  0  0  0  0  0  0
  189.0950  173.9890  140.7330 C   0  0  0  0  0  2  0  0  0  0  0  0
  189.1960  175.1810  141.6570 C   0  0  0  0  0  2  0  0  0  0  0  0
  189.5300  172.8040  141.4790 N   0  0  0  0  0  0  0  0  0  0  0  0
  190.1470  173.2620  142.7220 C   0  0  0  0  0  2  0  0  0  0  0  0
  190.2540  174.7680  142.6420 C   0  0  2  0  0  3  0  0  0  0  0  0
  190.4880  171.9940  140.7040 C   0  0  2  0  0  3  0  0  0  0  0  0
  189.6930  170.5960  138.7220 C   0  0  0  0  0  2  0  0  0  0  0  0
  189.3190  171.5910  135.7400 O   0  0  0  0  0  1  0  0  0  0  0  0
  190.3110  170.1590  137.3880 C   0  0  0  0  0  2  0  0  0  0  0  0
  190.5070  171.3340  136.4240 C   0  0  2  0  0  3  0  0  0  0  0  0
  190.2220  171.9700  139.1810 C   0  0  2  0  0  3  0  0  0  0  0  0
  190.9580  172.6060  137.1580 C   0  0  0  0  0  2  0  0  0  0  0  0
  191.3830  172.3140  138.4650 O   0  0  0  0  0  0  0  0  0  0  0  0
  190.5230  170.6380  141.2410 N   0  0  0  0  0  2  0  0  0  0  0  0
  191.9380  169.9760  142.7530 C   0  0  0  0  0  1  0  0  0  0  0  0
  191.8270  170.3100  141.4030 O   0  0  0  0  0  0  0  0  0  0  0  0
  194.9720  174.8460  145.1700 C   0  0  0  0  0  0  0  0  0  0  0  0
  195.6050  174.1670  146.0270 O   0  0  0  0  0  0  0  0  0  0  0  0
  196.0240  176.4140  143.6050 C   0  0  0  0  0  3  0  0  0  0  0  0
  195.6110  175.1860  143.8880 C   0  0  0  0  0  3  0  0  0  0  0  0
  196.6590  176.6910  142.2910 C   0  0  0  0  0  2  0  0  0  0  0  0
  195.6660  176.5910  141.2380 N   0  0  0  0  0  2  0  0  0  0  0  0
  196.1940  175.6620  140.2570 C   0  0  0  0  0  1  0  0  0  0  0  0
  1  8  1  0  0  0  0
  2  4  1  0  0  0  0
  2  8  2  0  0  0  0
  3  7  2  0  0  0  0
  5  1  2  0  0  0  0
  6  2  1  0  0  0  0
  7 12  1  0  0  0  0
  7  4  1  0  0  0  0
  9  3  1  0  0  0  0
  9  6  2  0  0  0  0
 10  6  1  0  0  0  0
 10  5  1  0  0  0  0
 11 15  1  0  0  0  0
 12 13  1  0  0  0  0
 14 12  2  0  0  0  0
 14 11  1  0  0  0  0
 15 13  2  0  0  0  0
 16 11  1  0  0  0  0
 17 19  1  0  0  0  0
 17 18  1  0  0  0  0
 18 21  1  0  0  0  0
 19 20  1  0  0  0  0
 21 20  1  0  0  0  0
 21  9  1  1  0  0  0
 22 30  1  1  0  0  0
 22 19  1  0  0  0  0
 23 27  1  0  0  0  0
 25 23  1  0  0  0  0
 26 24  1  1  0  0  0
 26 28  1  0  0  0  0
 26 25  1  0  0  0  0
 27 22  1  1  0  0  0
 28 29  1  0  0  0  0
 29 27  1  0  0  0  0
 30 32  1  0  0  0  0
 32 31  1  0  0  0  0
 33  5  1  0  0  0  0
 33 34  2  0  0  0  0
 35 36  2  0  0  0  0
 36 33  1  0  0  0  0
 37 35  1  0  0  0  0
 38 37  1  0  0  0  0
 39 38  1  0  0  0  0
M  END
>  <MODEL>
7

>  <REMARK>
 VINA RESULT:      -6.8      3.560      7.859
  Name = 
  10 active torsions:
  status: ('A' for Active; 'I' for Inactive)
    1  A    between atoms: N_7  and  C_10
    2  A    between atoms: C_8  and  C_17
    3  A    between atoms: C_8  and  C_28
    4  A    between atoms: C_9  and  C_10
    5  A    between atoms: N_12  and  O_20
    6  A    between atoms: N_12  and  C_24
    7  A    between atoms: C_18  and  C_24
    8  A    between atoms: N_21  and  C_24
    9  A    between atoms: C_22  and  C_27
   10  A    between atoms: C_33  and  C_36
                            x       y       z     vdW  Elec       q    Type
                         _______ _______ _______ _____ _____    ______ ____

>  <TORSDO>
F 10

$$$$
=
 OpenBabel11042415003D

 39 43  0  0  1  0  0  0  0  0999 V2000
  189.1070  174.0720  139.9880 C   0  0  0  0  0  3  0  0  0  0  0  0
  188.5450  175.0920  142.1350 C   0  0  0  0  0  0  0  0  0  0  0  0
  189.2450  175.8390  144.7350 C   0  0  0  0  0  3  0  0  0  0  0  0
  187.6430  175.7400  142.9840 O   0  0  0  0  0  0  0  0  0  0  0  0
  190.3640  173.7620  140.3430 C   0  0  0  0  0  0  0  0  0  0  0  0
  189.9070  174.7900  142.6220 C   0  0  0  0  0  0  0  0  0  0  0  0
  188.0120  176.1090  144.2860 C   0  0  0  0  0  0  0  0  0  0  0  0
  188.1760  174.7530  140.9020 C   0  0  0  0  0  3  0  0  0  0  0  0
  190.2370  175.1480  143.8770 C   0  0  0  0  0  0  0  0  0  0  0  0
  190.8980  174.0960  141.7180 C   0  0  0  0  0  2  0  0  0  0  0  0
  185.3250  177.9340  145.8650 N   0  0  0  0  0  0  0  0  0  0  0  0
  187.0380  176.7960  145.1460 C   0  0  0  0  0  0  0  0  0  0  0  0
  187.0900  176.8760  146.5260 C   0  0  0  0  0  3  0  0  0  0  0  0
  185.9040  177.4770  144.7430 C   0  0  0  0  0  3  0  0  0  0  0  0
  186.0200  177.5850  146.9360 N   0  0  0  0  0  0  0  0  0  0  0  0
  184.1010  178.7100  145.9170 C   0  0  0  0  0  1  0  0  0  0  0  0
  193.0360  175.1170  146.2820 C   0  0  0  0  0  2  0  0  0  0  0  0
  191.6360  174.6910  145.9020 C   0  0  0  0  0  2  0  0  0  0  0  0
  193.5160  176.0470  145.2560 N   0  0  0  0  0  0  0  0  0  0  0  0
  192.5820  175.9940  144.1340 C   0  0  0  0  0  2  0  0  0  0  0  0
  191.6120  174.8670  144.4090 C   0  0  2  0  0  3  0  0  0  0  0  0
  194.8770  175.7020  144.8020 C   0  0  2  0  0  3  0  0  0  0  0  0
  195.1140  174.3650  142.6410 C   0  0  0  0  0  2  0  0  0  0  0  0
  195.3530  175.5410  139.7120 O   0  0  0  0  0  1  0  0  0  0  0  0
  196.1870  174.2500  141.5520 C   0  0  0  0  0  2  0  0  0  0  0  0
  196.3140  175.5320  140.7210 C   0  0  2  0  0  3  0  0  0  0  0  0
  195.0790  175.7720  143.2710 C   0  0  2  0  0  3  0  0  0  0  0  0
  196.1570  176.7910  141.5870 C   0  0  0  0  0  2  0  0  0  0  0  0
  196.2520  176.4820  142.9540 O   0  0  0  0  0  0  0  0  0  0  0  0
  195.2360  174.3820  145.3090 N   0  0  0  0  0  2  0  0  0  0  0  0
  196.8250  173.1600  146.1480 C   0  0  0  0  0  1  0  0  0  0  0  0
  196.5220  174.4550  145.7270 O   0  0  0  0  0  0  0  0  0  0  0  0
  191.2490  173.0810  139.3760 C   0  0  0  0  0  0  0  0  0  0  0  0
  192.1380  173.7350  138.7600 O   0  0  0  0  0  0  0  0  0  0  0  0
  190.8740  170.7710  140.1070 C   0  0  0  0  0  3  0  0  0  0  0  0
  191.0980  171.6380  139.1290 C   0  0  0  0  0  3  0  0  0  0  0  0
  190.7330  169.3260  139.7910 C   0  0  0  0  0  2  0  0  0  0  0  0
  190.0750  169.1700  138.5080 N   0  0  0  0  0  2  0  0  0  0  0  0
  190.8230  168.1670  137.7760 C   0  0  0  0  0  1  0  0  0  0  0  0
  1  5  2  0  0  0  0
  1  8  1  0  0  0  0
  2  6  1  0  0  0  0
  2  4  1  0  0  0  0
  4  7  1  0  0  0  0
  5 10  1  0  0  0  0
  6  9  2  0  0  0  0
  7  3  2  0  0  0  0
  7 12  1  0  0  0  0
  8  2  2  0  0  0  0
  9  3  1  0  0  0  0
 10  6  1  0  0  0  0
 11 16  1  0  0  0  0
 11 15  1  0  0  0  0
 12 13  1  0  0  0  0
 13 15  2  0  0  0  0
 14 12  2  0  0  0  0
 14 11  1  0  0  0  0
 18 17  1  0  0  0  0
 19 17  1  0  0  0  0
 20 21  1  0  0  0  0
 20 19  1  0  0  0  0
 21  9  1  1  0  0  0
 21 18  1  0  0  0  0
 22 19  1  0  0  0  0
 22 30  1  6  0  0  0
 23 27  1  0  0  0  0
 25 23  1  0  0  0  0
 26 24  1  6  0  0  0
 26 25  1  0  0  0  0
 26 28  1  0  0  0  0
 27 22  1  1  0  0  0
 28 29  1  0  0  0  0
 29 27  1  0  0  0  0
 30 32  1  0  0  0  0
 32 31  1  0  0  0  0
 33  5  1  0  0  0  0
 34 33  2  0  0  0  0
 36 33  1  0  0  0  0
 36 35  2  0  0  0  0
 37 35  1  0  0  0  0
 38 37  1  0  0  0  0
 39 38  1  0  0  0  0
M  END
>  <MODEL>
8

>  <REMARK>
 VINA RESULT:      -6.7      3.810      8.363
  Name = 
  10 active torsions:
  status: ('A' for Active; 'I' for Inactive)
    1  A    between atoms: N_7  and  C_10
    2  A    between atoms: C_8  and  C_17
    3  A    between atoms: C_8  and  C_28
    4  A    between atoms: C_9  and  C_10
    5  A    between atoms: N_12  and  O_20
    6  A    between atoms: N_12  and  C_24
    7  A    between atoms: C_18  and  C_24
    8  A    between atoms: N_21  and  C_24
    9  A    between atoms: C_22  and  C_27
   10  A    between atoms: C_33  and  C_36
                            x       y       z     vdW  Elec       q    Type
                         _______ _______ _______ _____ _____    ______ ____

>  <TORSDO>
F 10

$$$$
=
 OpenBabel11042415003D

 39 43  0  0  1  0  0  0  0  0999 V2000
  189.0670  173.3500  140.4920 C   0  0  0  0  0  3  0  0  0  0  0  0
  188.6030  174.9010  142.3200 C   0  0  0  0  0  0  0  0  0  0  0  0
  189.3730  176.1860  144.6790 C   0  0  0  0  0  3  0  0  0  0  0  0
  187.7660  175.8100  142.9710 O   0  0  0  0  0  0  0  0  0  0  0  0
  190.2910  173.0250  140.9350 C   0  0  0  0  0  0  0  0  0  0  0  0
  189.9330  174.6070  142.8910 C   0  0  0  0  0  0  0  0  0  0  0  0
  188.1690  176.4480  144.1540 C   0  0  0  0  0  0  0  0  0  0  0  0
  188.2020  174.3090  141.1970 C   0  0  0  0  0  3  0  0  0  0  0  0
  190.2980  175.2250  144.0300 C   0  0  0  0  0  0  0  0  0  0  0  0
  190.8560  173.6320  142.2000 C   0  0  0  0  0  2  0  0  0  0  0  0
  186.1060  178.5100  146.2840 N   0  0  0  0  0  0  0  0  0  0  0  0
  187.2620  177.4040  144.8050 C   0  0  0  0  0  0  0  0  0  0  0  0
  186.5260  178.3870  144.1680 C   0  0  0  0  0  3  0  0  0  0  0  0
  186.9800  177.4990  146.1550 C   0  0  0  0  0  3  0  0  0  0  0  0
  185.8250  179.0490  145.1090 N   0  0  0  0  0  0  0  0  0  0  0  0
  185.5340  178.9650  147.5370 C   0  0  0  0  0  1  0  0  0  0  0  0
  193.0000  175.3460  146.5400 C   0  0  0  0  0  2  0  0  0  0  0  0
  191.6040  174.9220  146.1440 C   0  0  0  0  0  2  0  0  0  0  0  0
  193.5450  176.1670  145.4540 N   0  0  0  0  0  0  0  0  0  0  0  0
  192.6530  176.0330  144.3040 C   0  0  0  0  0  2  0  0  0  0  0  0
  191.6420  174.9610  144.6420 C   0  0  2  0  0  3  0  0  0  0  0  0
  194.9120  175.7480  145.0900 C   0  0  2  0  0  3  0  0  0  0  0  0
  195.2850  174.3770  142.9700 C   0  0  0  0  0  2  0  0  0  0  0  0
  195.7170  175.5060  140.0440 O   0  0  0  0  0  1  0  0  0  0  0  0
  196.4260  174.2420  141.9540 C   0  0  0  0  0  2  0  0  0  0  0  0
  196.6110  175.5110  141.1140 C   0  0  2  0  0  3  0  0  0  0  0  0
  195.2130  175.7940  143.5740 C   0  0  2  0  0  3  0  0  0  0  0  0
  196.4010  176.7840  141.9470 C   0  0  0  0  0  2  0  0  0  0  0  0
  196.4060  176.4960  143.3220 O   0  0  0  0  0  0  0  0  0  0  0  0
  195.1700  174.4160  145.6250 N   0  0  0  0  0  2  0  0  0  0  0  0
  196.8370  173.1060  146.1020 C   0  0  0  0  0  1  0  0  0  0  0  0
  196.4180  174.4350  146.1500 O   0  0  0  0  0  0  0  0  0  0  0  0
  191.1090  172.0560  140.1760 C   0  0  0  0  0  0  0  0  0  0  0  0
  190.8180  171.7810  138.9780 O   0  0  0  0  0  0  0  0  0  0  0  0
  193.5170  171.6830  140.4590 C   0  0  0  0  0  3  0  0  0  0  0  0
  192.2680  171.4120  140.8150 C   0  0  0  0  0  3  0  0  0  0  0  0
  194.6420  170.9960  141.1430 C   0  0  0  0  0  2  0  0  0  0  0  0
  194.3320  170.8350  142.5510 N   0  0  0  0  0  2  0  0  0  0  0  0
  195.5970  170.6590  143.2380 C   0  0  0  0  0  1  0  0  0  0  0  0
  1  5  2  0  0  0  0
  1  8  1  0  0  0  0
  2  6  1  0  0  0  0
  2  4  1  0  0  0  0
  4  7  1  0  0  0  0
  5 10  1  0  0  0  0
  6  9  2  0  0  0  0
  7  3  2  0  0  0  0
  7 12  1  0  0  0  0
  8  2  2  0  0  0  0
  9  3  1  0  0  0  0
 10  6  1  0  0  0  0
 11 16  1  0  0  0  0
 12 14  2  0  0  0  0
 13 12  1  0  0  0  0
 13 15  2  0  0  0  0
 14 11  1  0  0  0  0
 15 11  1  0  0  0  0
 18 17  1  0  0  0  0
 19 17  1  0  0  0  0
 20 21  1  0  0  0  0
 20 19  1  0  0  0  0
 21  9  1  6  0  0  0
 21 18  1  0  0  0  0
 22 19  1  0  0  0  0
 22 30  1  6  0  0  0
 23 27  1  0  0  0  0
 25 23  1  0  0  0  0
 26 24  1  6  0  0  0
 26 28  1  0  0  0  0
 26 25  1  0  0  0  0
 27 22  1  1  0  0  0
 28 29  1  0  0  0  0
 29 27  1  0  0  0  0
 30 32  1  0  0  0  0
 31 32  1  0  0  0  0
 33 36  1  0  0  0  0
 33  5  1  0  0  0  0
 34 33  2  0  0  0  0
 35 36  2  0  0  0  0
 35 37  1  0  0  0  0
 37 38  1  0  0  0  0
 38 39  1  0  0  0  0
M  END
>  <MODEL>
9

>  <REMARK>
 VINA RESULT:      -6.7      4.097      8.876
  Name = 
  10 active torsions:
  status: ('A' for Active; 'I' for Inactive)
    1  A    between atoms: N_7  and  C_10
    2  A    between atoms: C_8  and  C_17
    3  A    between atoms: C_8  and  C_28
    4  A    between atoms: C_9  and  C_10
    5  A    between atoms: N_12  and  O_20
    6  A    between atoms: N_12  and  C_24
    7  A    between atoms: C_18  and  C_24
    8  A    between atoms: N_21  and  C_24
    9  A    between atoms: C_22  and  C_27
   10  A    between atoms: C_33  and  C_36
                            x       y       z     vdW  Elec       q    Type
                         _______ _______ _______ _____ _____    ______ ____

>  <TORSDO>
F 10

$$$$
