=
 OpenBabel11042418593D

 41 46  0  0  1  0  0  0  0  0999 V2000
  190.9950  176.7580  145.8820 C   0  0  0  0  0  3  0  0  0  0  0  0
  189.8190  177.2000  146.3200 C   0  0  0  0  0  3  0  0  0  0  0  0
  186.2610  177.5670  145.2990 C   0  0  0  0  0  0  0  0  0  0  0  0
  187.4980  176.7820  145.6600 C   0  0  2  0  0  3  0  0  0  0  0  0
  188.7540  177.5680  145.3460 C   0  0  2  0  0  3  0  0  0  0  0  0
  184.0770  178.4950  146.1670 C   0  0  0  0  0  2  0  0  0  0  0  0
  186.0100  176.8710  141.8100 O   0  0  0  0  0  0  0  0  0  0  0  0
  186.5620  177.0610  142.9290 C   0  0  0  0  0  0  0  0  0  0  0  0
  188.4090  176.3560  144.5020 C   0  0  2  0  0  3  0  0  0  0  0  0
  185.5540  178.2430  146.4460 C   0  0  0  0  0  2  0  0  0  0  0  0
  183.9400  179.1790  144.8200 C   0  0  0  0  0  2  0  0  0  0  0  0
  185.7900  177.6410  144.0350 C   0  0  0  0  0  0  0  0  0  0  0  0
  184.4330  178.2330  143.7310 C   0  0  0  0  0  2  0  0  0  0  0  0
  188.0370  176.8400  143.0970 C   0  0  1  0  0  3  0  0  0  0  0  0
  188.5800  175.8630  142.0610 C   0  0  0  0  0  2  0  0  0  0  0  0
  189.6940  175.0200  142.6600 C   0  0  0  0  0  2  0  0  0  0  0  0
  189.9490  173.7850  141.8050 C   0  0  1  0  0  3  0  0  0  0  0  0
  192.1360  174.6700  141.5730 O   0  0  0  0  0  0  0  0  0  0  0  0
  191.4000  173.7010  141.4540 C   0  0  0  0  0  3  0  0  0  0  0  0
  189.5180  172.5150  142.5310 C   0  0  0  0  0  2  0  0  0  0  0  0
  189.6700  172.6730  144.0320 C   0  0  0  0  0  1  0  0  0  0  0  0
  192.0810  176.3830  146.8400 C   0  0  1  0  0  3  0  0  0  0  0  0
  191.6160  175.2760  147.7720 C   0  0  0  0  0  1  0  0  0  0  0  0
  195.1400  175.9940  144.7770 C   0  0  2  0  0  3  0  0  0  0  0  0
  194.6030  173.6270  144.1380 C   0  0  1  0  0  3  0  0  0  0  0  0
  193.4270  172.9460  144.4180 C   0  0  0  0  0  3  0  0  0  0  0  0
  195.3140  173.6460  142.8650 C   0  0  0  0  0  2  0  0  0  0  0  0
  194.1430  176.7710  145.5310 N   0  0  0  0  0  0  0  0  0  0  0  0
  193.6500  174.5890  145.7650 C   0  0  2  0  0  3  0  0  0  0  0  0
  195.6990  174.8180  142.3490 C   0  0  2  0  0  3  0  0  0  0  0  0
  193.3030  175.9520  146.0990 C   0  0  0  0  0  0  0  0  0  0  0  0
  194.9990  176.3800  142.9890 S   0  0  0  0  0  0  0  0  0  0  0  0
  194.7340  174.6200  145.0180 N   0  0  2  0  0  0  0  0  0  0  0  0
  192.8050  173.5850  145.4450 N   0  0  0  0  0  0  0  0  0  0  0  0
  195.7350  175.5090  136.9870 O   0  0  0  0  0  0  0  0  0  0  0  0
  197.0950  174.8660  138.7860 N   0  0  0  0  0  2  0  0  0  0  0  0
  196.1400  175.0590  139.8350 C   0  0  0  0  0  0  0  0  0  0  0  0
  194.9790  175.4720  139.5730 O   0  0  0  0  0  0  0  0  0  0  0  0
  197.9410  174.8480  136.4140 C   0  0  0  0  0  1  0  0  0  0  0  0
  196.8540  175.0980  137.3950 C   0  0  0  0  0  0  0  0  0  0  0  0
  196.5370  174.7970  141.1860 N   0  0  0  0  0  2  0  0  0  0  0  0
  1  2  2  0  0  0  0
  1 22  1  0  0  0  0
  3 10  1  0  0  0  0
  4  3  1  6  0  0  0
  5  4  1  0  0  0  0
  5  2  1  1  0  0  0
  6 10  1  0  0  0  0
  7  8  2  0  0  0  0
  8 14  1  0  0  0  0
  8 12  1  0  0  0  0
  9  5  1  0  0  0  0
  9  4  1  0  0  0  0
 11  6  1  0  0  0  0
 12  3  2  0  0  0  0
 13 12  1  0  0  0  0
 13 11  1  0  0  0  0
 14  9  1  0  0  0  0
 15 16  1  0  0  0  0
 15 14  1  0  0  0  0
 17 20  1  0  0  0  0
 17 16  1  0  0  0  0
 19 18  2  0  0  0  0
 19 17  1  0  0  0  0
 20 21  1  0  0  0  0
 22 23  1  0  0  0  0
 24 33  1  0  0  0  0
 24 28  1  0  0  0  0
 25 26  1  0  0  0  0
 25 33  1  0  0  0  0
 26 34  2  0  0  0  0
 27 25  1  0  0  0  0
 28 31  2  0  0  0  0
 29 31  1  0  0  0  0
 30 27  1  0  0  0  0
 30 32  1  0  0  0  0
 31 22  1  0  0  0  0
 32 24  1  0  0  0  0
 33 29  1  0  0  0  0
 34 29  1  0  0  0  0
 35 40  2  0  0  0  0
 36 37  1  0  0  0  0
 37 41  1  0  0  0  0
 38 37  2  0  0  0  0
 39 40  1  0  0  0  0
 40 36  1  0  0  0  0
 41 30  1  0  0  0  0
M  END
>  <MODEL>
1

>  <REMARK>
 VINA RESULT:      -8.0      0.000      0.000
  Name = 
  9 active torsions:
  status: ('A' for Active; 'I' for Inactive)
    1  A    between atoms: C_4  and  C_6
    2  A    between atoms: C_6  and  C_31
    3  A    between atoms: C_7  and  C_13
    4  A    between atoms: C_10  and  C_26
    5  A    between atoms: C_11  and  C_25
    6  A    between atoms: C_11  and  C_38
    7  A    between atoms: C_25  and  C_26
    8  A    between atoms: C_26  and  C_40
    9  A    between atoms: C_27  and  N_41
                            x       y       z     vdW  Elec       q    Type
                         _______ _______ _______ _____ _____    ______ ____

>  <TORSDO>
F 9

$$$$
=
 OpenBabel11042418593D

 41 46  0  0  1  0  0  0  0  0999 V2000
  191.1380  176.3570  144.6850 C   0  0  0  0  0  3  0  0  0  0  0  0
  191.5650  175.8270  145.8290 C   0  0  0  0  0  3  0  0  0  0  0  0
  194.6180  173.7910  145.2260 C   0  0  0  0  0  0  0  0  0  0  0  0
  193.4370  174.6280  144.8020 C   0  0  2  0  0  3  0  0  0  0  0  0
  192.3150  174.5400  145.8160 C   0  0  2  0  0  3  0  0  0  0  0  0
  197.0970  173.8140  145.7170 C   0  0  0  0  0  2  0  0  0  0  0  0
  193.6160  170.5680  144.0690 O   0  0  0  0  0  0  0  0  0  0  0  0
  193.4940  171.7410  144.5180 C   0  0  0  0  0  0  0  0  0  0  0  0
  192.1440  173.8770  144.4620 C   0  0  2  0  0  3  0  0  0  0  0  0
  195.7650  174.5410  145.8530 C   0  0  0  0  0  2  0  0  0  0  0  0
  196.9240  172.3790  146.1790 C   0  0  0  0  0  2  0  0  0  0  0  0
  194.6700  172.4540  145.0320 C   0  0  0  0  0  0  0  0  0  0  0  0
  195.9450  171.6720  145.2480 C   0  0  0  0  0  2  0  0  0  0  0  0
  192.1330  172.3590  144.6700 C   0  0  1  0  0  3  0  0  0  0  0  0
  191.1190  171.7220  143.7270 C   0  0  0  0  0  2  0  0  0  0  0  0
  189.7820  172.4390  143.8250 C   0  0  0  0  0  2  0  0  0  0  0  0
  189.2080  172.6910  142.4370 C   0  0  1  0  0  3  0  0  0  0  0  0
  187.5850  174.4110  142.2540 O   0  0  0  0  0  0  0  0  0  0  0  0
  188.7700  174.1170  142.3190 C   0  0  0  0  0  3  0  0  0  0  0  0
  190.2300  172.3720  141.3520 C   0  0  0  0  0  2  0  0  0  0  0  0
  190.2520  173.4590  140.2940 C   0  0  0  0  0  1  0  0  0  0  0  0
  190.3820  177.6480  144.6730 C   0  0  1  0  0  3  0  0  0  0  0  0
  190.9540  178.5960  143.6310 C   0  0  0  0  0  1  0  0  0  0  0  0
  186.8970  177.4380  143.4180 C   0  0  2  0  0  3  0  0  0  0  0  0
  185.9020  177.3630  145.7210 C   0  0  1  0  0  3  0  0  0  0  0  0
  186.5820  177.5370  146.9170 C   0  0  0  0  0  3  0  0  0  0  0  0
  184.6210  177.9590  145.3550 C   0  0  0  0  0  2  0  0  0  0  0  0
  188.3420  177.6780  143.2750 N   0  0  0  0  0  0  0  0  0  0  0  0
  187.9550  176.9800  145.3780 C   0  0  2  0  0  3  0  0  0  0  0  0
  184.4990  178.5670  144.1710 C   0  0  2  0  0  3  0  0  0  0  0  0
  188.9340  177.4010  144.4030 C   0  0  0  0  0  0  0  0  0  0  0  0
  185.9860  179.0170  143.2080 S   0  0  0  0  0  0  0  0  0  0  0  0
  186.7760  176.9790  144.7910 N   0  0  2  0  0  0  0  0  0  0  0  0
  187.9040  177.3180  146.6840 N   0  0  0  0  0  0  0  0  0  0  0  0
  180.8650  178.3140  140.1760 O   0  0  0  0  0  0  0  0  0  0  0  0
  181.2710  179.3180  142.2560 N   0  0  0  0  0  2  0  0  0  0  0  0
  182.5290  178.6920  142.5350 C   0  0  0  0  0  0  0  0  0  0  0  0
  183.0290  177.8730  141.7190 O   0  0  0  0  0  0  0  0  0  0  0  0
  179.1990  179.8300  140.9210 C   0  0  0  0  0  1  0  0  0  0  0  0
  180.4850  179.1050  141.0800 C   0  0  0  0  0  0  0  0  0  0  0  0
  183.1920  178.9960  143.7680 N   0  0  0  0  0  2  0  0  0  0  0  0
  1  2  2  0  0  0  0
  3 10  1  0  0  0  0
  4  3  1  1  0  0  0
  4  5  1  0  0  0  0
  5  2  1  6  0  0  0
  6 10  1  0  0  0  0
  6 11  1  0  0  0  0
  7  8  2  0  0  0  0
  8 14  1  0  0  0  0
  8 12  1  0  0  0  0
  9 14  1  0  0  0  0
  9  4  1  0  0  0  0
  9  5  1  0  0  0  0
 12  3  2  0  0  0  0
 12 13  1  0  0  0  0
 13 11  1  0  0  0  0
 15 16  1  0  0  0  0
 15 14  1  0  0  0  0
 17 16  1  0  0  0  0
 18 19  2  0  0  0  0
 19 17  1  0  0  0  0
 20 17  1  0  0  0  0
 21 20  1  0  0  0  0
 22  1  1  0  0  0  0
 23 22  1  0  0  0  0
 24 33  1  0  0  0  0
 25 26  1  0  0  0  0
 27 25  1  0  0  0  0
 28 24  1  0  0  0  0
 28 31  2  0  0  0  0
 29 34  1  0  0  0  0
 30 27  1  0  0  0  0
 31 22  1  0  0  0  0
 31 29  1  0  0  0  0
 32 24  1  0  0  0  0
 32 30  1  0  0  0  0
 33 29  1  0  0  0  0
 33 25  1  0  0  0  0
 34 26  2  0  0  0  0
 35 40  2  0  0  0  0
 36 37  1  0  0  0  0
 37 41  1  0  0  0  0
 38 37  2  0  0  0  0
 39 40  1  0  0  0  0
 40 36  1  0  0  0  0
 41 30  1  0  0  0  0
M  END
>  <MODEL>
2

>  <REMARK>
 VINA RESULT:      -8.0      4.364      9.780
  Name = 
  9 active torsions:
  status: ('A' for Active; 'I' for Inactive)
    1  A    between atoms: C_4  and  C_6
    2  A    between atoms: C_6  and  C_31
    3  A    between atoms: C_7  and  C_13
    4  A    between atoms: C_10  and  C_26
    5  A    between atoms: C_11  and  C_25
    6  A    between atoms: C_11  and  C_38
    7  A    between atoms: C_25  and  C_26
    8  A    between atoms: C_26  and  C_40
    9  A    between atoms: C_27  and  N_41
                            x       y       z     vdW  Elec       q    Type
                         _______ _______ _______ _____ _____    ______ ____

>  <TORSDO>
F 9

$$$$
=
 OpenBabel11042418593D

 41 46  0  0  1  0  0  0  0  0999 V2000
  188.3380  176.7450  146.3690 C   0  0  0  0  0  3  0  0  0  0  0  0
  188.5270  175.5250  146.8670 C   0  0  0  0  0  3  0  0  0  0  0  0
  192.0920  175.3810  145.8210 C   0  0  0  0  0  0  0  0  0  0  0  0
  190.6170  175.5950  145.5940 C   0  0  2  0  0  3  0  0  0  0  0  0
  189.7910  174.7930  146.5790 C   0  0  2  0  0  3  0  0  0  0  0  0
  194.2990  176.5240  146.2780 C   0  0  0  0  0  2  0  0  0  0  0  0
  192.6220  172.3410  144.0300 O   0  0  0  0  0  0  0  0  0  0  0  0
  192.0070  173.2050  144.7150 C   0  0  0  0  0  0  0  0  0  0  0  0
  189.8070  174.3810  145.1190 C   0  0  2  0  0  3  0  0  0  0  0  0
  192.8060  176.4720  146.5770 C   0  0  0  0  0  2  0  0  0  0  0  0
  194.8810  175.1320  146.4340 C   0  0  0  0  0  2  0  0  0  0  0  0
  192.7510  174.2980  145.3530 C   0  0  0  0  0  0  0  0  0  0  0  0
  194.2600  174.2140  145.3880 C   0  0  0  0  0  2  0  0  0  0  0  0
  190.5430  173.0420  145.0070 C   0  0  1  0  0  3  0  0  0  0  0  0
  189.8560  172.1680  143.9640 C   0  0  0  0  0  2  0  0  0  0  0  0
  189.0480  173.0250  143.0030 C   0  0  0  0  0  2  0  0  0  0  0  0
  189.7460  173.1170  141.6520 C   0  0  1  0  0  3  0  0  0  0  0  0
  188.8000  172.3650  139.6120 O   0  0  0  0  0  0  0  0  0  0  0  0
  188.7280  173.1380  140.5560 C   0  0  0  0  0  3  0  0  0  0  0  0
  190.6230  174.3610  141.5690 C   0  0  0  0  0  2  0  0  0  0  0  0
  191.9890  174.0220  141.0030 C   0  0  0  0  0  1  0  0  0  0  0  0
  187.0760  177.4990  146.6440 C   0  0  1  0  0  3  0  0  0  0  0  0
  187.3120  178.5820  147.6840 C   0  0  0  0  0  1  0  0  0  0  0  0
  185.2260  179.2370  143.9370 C   0  0  2  0  0  3  0  0  0  0  0  0
  185.8910  177.5630  142.1890 C   0  0  1  0  0  3  0  0  0  0  0  0
  186.5690  176.3720  142.4050 C   0  0  0  0  0  3  0  0  0  0  0  0
  184.7200  177.7550  141.3390 C   0  0  0  0  0  2  0  0  0  0  0  0
  185.5780  178.9750  145.3430 N   0  0  0  0  0  0  0  0  0  0  0  0
  186.9020  177.7030  144.0430 C   0  0  2  0  0  3  0  0  0  0  0  0
  183.6610  178.4110  141.8250 C   0  0  2  0  0  3  0  0  0  0  0  0
  186.5450  178.1030  145.3850 C   0  0  0  0  0  0  0  0  0  0  0  0
  183.5000  178.6980  143.6230 S   0  0  0  0  0  0  0  0  0  0  0  0
  186.1490  178.3860  143.2060 N   0  0  2  0  0  0  0  0  0  0  0  0
  187.1930  176.4580  143.6110 N   0  0  0  0  0  0  0  0  0  0  0  0
  178.4190  179.7030  141.5460 O   0  0  0  0  0  0  0  0  0  0  0  0
  180.2830  179.2060  140.2120 N   0  0  0  0  0  2  0  0  0  0  0  0
  181.2400  179.0400  141.2650 C   0  0  0  0  0  0  0  0  0  0  0  0
  180.8980  179.1860  142.4680 O   0  0  0  0  0  0  0  0  0  0  0  0
  178.0210  179.6670  139.2070 C   0  0  0  0  0  1  0  0  0  0  0  0
  178.9020  179.5320  140.3950 C   0  0  0  0  0  0  0  0  0  0  0  0
  182.5960  178.7280  140.9210 N   0  0  0  0  0  2  0  0  0  0  0  0
  1 22  1  0  0  0  0
  1  2  2  0  0  0  0
  3 10  1  0  0  0  0
  4  3  1  1  0  0  0
  4  5  1  0  0  0  0
  5  2  1  6  0  0  0
  6 11  1  0  0  0  0
  6 10  1  0  0  0  0
  7  8  2  0  0  0  0
  8 14  1  0  0  0  0
  8 12  1  0  0  0  0
  9  4  1  0  0  0  0
  9  5  1  0  0  0  0
 12 13  1  0  0  0  0
 12  3  2  0  0  0  0
 13 11  1  0  0  0  0
 14  9  1  0  0  0  0
 15 14  1  0  0  0  0
 16 15  1  0  0  0  0
 17 16  1  0  0  0  0
 18 19  2  0  0  0  0
 19 17  1  0  0  0  0
 20 17  1  0  0  0  0
 21 20  1  0  0  0  0
 22 23  1  0  0  0  0
 24 28  1  0  0  0  0
 25 26  1  0  0  0  0
 25 33  1  0  0  0  0
 26 34  2  0  0  0  0
 27 30  1  0  0  0  0
 27 25  1  0  0  0  0
 28 31  2  0  0  0  0
 29 31  1  0  0  0  0
 30 32  1  0  0  0  0
 31 22  1  0  0  0  0
 32 24  1  0  0  0  0
 33 24  1  0  0  0  0
 33 29  1  0  0  0  0
 34 29  1  0  0  0  0
 36 40  1  0  0  0  0
 36 37  1  0  0  0  0
 37 38  2  0  0  0  0
 39 40  1  0  0  0  0
 40 35  2  0  0  0  0
 41 37  1  0  0  0  0
 41 30  1  0  0  0  0
M  END
>  <MODEL>
3

>  <REMARK>
 VINA RESULT:      -7.7      4.959      9.800
  Name = 
  9 active torsions:
  status: ('A' for Active; 'I' for Inactive)
    1  A    between atoms: C_4  and  C_6
    2  A    between atoms: C_6  and  C_31
    3  A    between atoms: C_7  and  C_13
    4  A    between atoms: C_10  and  C_26
    5  A    between atoms: C_11  and  C_25
    6  A    between atoms: C_11  and  C_38
    7  A    between atoms: C_25  and  C_26
    8  A    between atoms: C_26  and  C_40
    9  A    between atoms: C_27  and  N_41
                            x       y       z     vdW  Elec       q    Type
                         _______ _______ _______ _____ _____    ______ ____

>  <TORSDO>
F 9

$$$$
=
 OpenBabel11042418593D

 41 46  0  0  1  0  0  0  0  0999 V2000
  191.2310  175.1170  146.3550 C   0  0  0  0  0  3  0  0  0  0  0  0
  192.5280  175.0090  146.6320 C   0  0  0  0  0  3  0  0  0  0  0  0
  195.0550  174.5610  143.9400 C   0  0  0  0  0  0  0  0  0  0  0  0
  193.6910  174.9150  144.4790 C   0  0  2  0  0  3  0  0  0  0  0  0
  193.4040  174.1710  145.7670 C   0  0  2  0  0  3  0  0  0  0  0  0
  197.2850  175.4870  143.1950 C   0  0  0  0  0  2  0  0  0  0  0  0
  194.3350  171.5270  142.2080 O   0  0  0  0  0  0  0  0  0  0  0  0
  194.2280  172.4270  143.0860 C   0  0  0  0  0  0  0  0  0  0  0  0
  192.6470  173.7910  144.5080 C   0  0  2  0  0  3  0  0  0  0  0  0
  196.1470  175.5650  144.2060 C   0  0  0  0  0  2  0  0  0  0  0  0
  197.7380  174.0440  143.0750 C   0  0  0  0  0  2  0  0  0  0  0  0
  195.2880  173.4330  143.2340 C   0  0  0  0  0  0  0  0  0  0  0  0
  196.5950  173.2100  142.5080 C   0  0  0  0  0  2  0  0  0  0  0  0
  193.1020  172.3930  144.0780 C   0  0  1  0  0  3  0  0  0  0  0  0
  191.9080  171.6100  143.5450 C   0  0  0  0  0  2  0  0  0  0  0  0
  190.7340  172.5410  143.2900 C   0  0  0  0  0  2  0  0  0  0  0  0
  190.4810  172.6840  141.7950 C   0  0  1  0  0  3  0  0  0  0  0  0
  188.2170  172.2900  142.3820 O   0  0  0  0  0  0  0  0  0  0  0  0
  189.0500  172.3710  141.4910 C   0  0  0  0  0  3  0  0  0  0  0  0
  190.8170  174.0900  141.3120 C   0  0  0  0  0  2  0  0  0  0  0  0
  192.2340  174.1520  140.7730 C   0  0  0  0  0  1  0  0  0  0  0  0
  190.3310  175.9520  147.2100 C   0  0  1  0  0  3  0  0  0  0  0  0
  191.1420  176.8710  148.1080 C   0  0  0  0  0  1  0  0  0  0  0  0
  187.5080  177.5670  145.4230 C   0  0  2  0  0  3  0  0  0  0  0  0
  188.8180  177.8800  143.3040 C   0  0  1  0  0  3  0  0  0  0  0  0
  190.0870  177.3850  143.0400 C   0  0  0  0  0  3  0  0  0  0  0  0
  187.6680  177.8480  142.4060 C   0  0  0  0  0  2  0  0  0  0  0  0
  188.1100  176.7970  146.5240 N   0  0  0  0  0  0  0  0  0  0  0  0
  189.7640  177.4620  145.1510 C   0  0  2  0  0  3  0  0  0  0  0  0
  186.4930  177.4070  142.8660 C   0  0  2  0  0  3  0  0  0  0  0  0
  189.4020  176.7550  146.3590 C   0  0  0  0  0  0  0  0  0  0  0  0
  186.4080  176.4780  144.4370 S   0  0  0  0  0  0  0  0  0  0  0  0
  188.6600  177.9530  144.6260 N   0  0  2  0  0  0  0  0  0  0  0  0
  190.6780  177.0910  144.2290 N   0  0  0  0  0  0  0  0  0  0  0  0
  181.4110  179.2400  142.6560 O   0  0  0  0  0  0  0  0  0  0  0  0
  183.0150  178.0640  141.4120 N   0  0  0  0  0  2  0  0  0  0  0  0
  184.0890  178.1360  142.3570 C   0  0  0  0  0  0  0  0  0  0  0  0
  183.9330  178.7310  143.4560 O   0  0  0  0  0  0  0  0  0  0  0  0
  180.6880  178.4620  140.5340 C   0  0  0  0  0  1  0  0  0  0  0  0
  181.7090  178.6200  141.6000 C   0  0  0  0  0  0  0  0  0  0  0  0
  185.3470  177.5410  142.0160 N   0  0  0  0  0  2  0  0  0  0  0  0
  1  2  2  0  0  0  0
  1 22  1  0  0  0  0
  3 10  1  0  0  0  0
  4  3  1  6  0  0  0
  4  9  1  0  0  0  0
  4  5  1  0  0  0  0
  5  2  1  1  0  0  0
  6 10  1  0  0  0  0
  7  8  2  0  0  0  0
  8 12  1  0  0  0  0
  8 14  1  0  0  0  0
  9  5  1  0  0  0  0
 11  6  1  0  0  0  0
 12  3  2  0  0  0  0
 13 11  1  0  0  0  0
 13 12  1  0  0  0  0
 14  9  1  0  0  0  0
 15 14  1  0  0  0  0
 16 15  1  0  0  0  0
 17 16  1  0  0  0  0
 19 17  1  0  0  0  0
 19 18  2  0  0  0  0
 20 17  1  0  0  0  0
 21 20  1  0  0  0  0
 22 23  1  0  0  0  0
 24 28  1  0  0  0  0
 25 33  1  0  0  0  0
 26 25  1  0  0  0  0
 26 34  2  0  0  0  0
 27 30  1  0  0  0  0
 27 25  1  0  0  0  0
 29 31  1  0  0  0  0
 30 32  1  0  0  0  0
 31 28  2  0  0  0  0
 31 22  1  0  0  0  0
 32 24  1  0  0  0  0
 33 29  1  0  0  0  0
 33 24  1  0  0  0  0
 34 29  1  0  0  0  0
 36 40  1  0  0  0  0
 36 37  1  0  0  0  0
 37 38  2  0  0  0  0
 39 40  1  0  0  0  0
 40 35  2  0  0  0  0
 41 37  1  0  0  0  0
 41 30  1  0  0  0  0
M  END
>  <MODEL>
4

>  <REMARK>
 VINA RESULT:      -7.4      3.611      9.079
  Name = 
  9 active torsions:
  status: ('A' for Active; 'I' for Inactive)
    1  A    between atoms: C_4  and  C_6
    2  A    between atoms: C_6  and  C_31
    3  A    between atoms: C_7  and  C_13
    4  A    between atoms: C_10  and  C_26
    5  A    between atoms: C_11  and  C_25
    6  A    between atoms: C_11  and  C_38
    7  A    between atoms: C_25  and  C_26
    8  A    between atoms: C_26  and  C_40
    9  A    between atoms: C_27  and  N_41
                            x       y       z     vdW  Elec       q    Type
                         _______ _______ _______ _____ _____    ______ ____

>  <TORSDO>
F 9

$$$$
=
 OpenBabel11042418593D

 41 46  0  0  1  0  0  0  0  0999 V2000
  188.2580  173.7550  141.8810 C   0  0  0  0  0  3  0  0  0  0  0  0
  187.8110  175.0040  141.9940 C   0  0  0  0  0  3  0  0  0  0  0  0
  186.3210  177.5740  144.2300 C   0  0  0  0  0  0  0  0  0  0  0  0
  187.3320  177.0580  143.2370 C   0  0  2  0  0  3  0  0  0  0  0  0
  187.4760  175.5530  143.3360 C   0  0  2  0  0  3  0  0  0  0  0  0
  184.1940  178.9100  144.5090 C   0  0  0  0  0  2  0  0  0  0  0  0
  188.3190  177.8030  147.1770 O   0  0  0  0  0  0  0  0  0  0  0  0
  187.9260  177.3660  146.0600 C   0  0  0  0  0  0  0  0  0  0  0  0
  188.6120  176.4380  143.8120 C   0  0  2  0  0  3  0  0  0  0  0  0
  184.9550  177.8850  143.6770 C   0  0  0  0  0  2  0  0  0  0  0  0
  184.2290  178.4850  145.9650 C   0  0  0  0  0  2  0  0  0  0  0  0
  186.6190  177.7790  145.5330 C   0  0  0  0  0  0  0  0  0  0  0  0
  185.6720  178.5100  146.4550 C   0  0  0  0  0  2  0  0  0  0  0  0
  188.7130  176.3120  145.3360 C   0  0  1  0  0  3  0  0  0  0  0  0
  190.1790  176.3200  145.7520 C   0  0  0  0  0  2  0  0  0  0  0  0
  191.0060  175.4750  144.7970 C   0  0  0  0  0  2  0  0  0  0  0  0
  191.2130  174.0760  145.3640 C   0  0  1  0  0  3  0  0  0  0  0  0
  189.6610  172.3050  145.0780 O   0  0  0  0  0  0  0  0  0  0  0  0
  190.4460  173.0810  144.5510 C   0  0  0  0  0  3  0  0  0  0  0  0
  192.6910  173.7020  145.3800 C   0  0  0  0  0  2  0  0  0  0  0  0
  193.5220  174.8130  145.9940 C   0  0  0  0  0  1  0  0  0  0  0  0
  188.6010  173.1800  140.5430 C   0  0  1  0  0  3  0  0  0  0  0  0
  188.4830  174.2370  139.4570 C   0  0  0  0  0  1  0  0  0  0  0  0
  191.7060  171.1650  140.7950 C   0  0  2  0  0  3  0  0  0  0  0  0
  193.1090  173.1210  141.5090 C   0  0  1  0  0  3  0  0  0  0  0  0
  192.6500  174.3920  141.8200 C   0  0  0  0  0  3  0  0  0  0  0  0
  194.0870  172.3420  142.2610 C   0  0  0  0  0  2  0  0  0  0  0  0
  190.2500  171.3420  140.6710 N   0  0  0  0  0  0  0  0  0  0  0  0
  191.2080  173.3770  140.6150 C   0  0  2  0  0  3  0  0  0  0  0  0
  193.8120  171.0710  142.5700 C   0  0  2  0  0  3  0  0  0  0  0  0
  189.9820  172.6130  140.5590 C   0  0  0  0  0  0  0  0  0  0  0  0
  192.1020  170.4390  142.4330 S   0  0  0  0  0  0  0  0  0  0  0  0
  192.2080  172.5270  140.7260 N   0  0  2  0  0  0  0  0  0  0  0  0
  191.4160  174.5400  141.2670 N   0  0  0  0  0  0  0  0  0  0  0  0
  196.0220  169.5880  147.2760 O   0  0  0  0  0  0  0  0  0  0  0  0
  196.2970  169.4030  144.9540 N   0  0  0  0  0  2  0  0  0  0  0  0
  195.1320  170.1340  144.5580 C   0  0  0  0  0  0  0  0  0  0  0  0
  194.3570  170.6190  145.4250 O   0  0  0  0  0  0  0  0  0  0  0  0
  197.9410  168.3860  146.5680 C   0  0  0  0  0  1  0  0  0  0  0  0
  196.7010  169.1580  146.3050 C   0  0  0  0  0  0  0  0  0  0  0  0
  194.8530  170.2820  143.1610 N   0  0  0  0  0  2  0  0  0  0  0  0
  1  2  2  0  0  0  0
  3 12  2  0  0  0  0
  4  5  1  0  0  0  0
  4  9  1  0  0  0  0
  4  3  1  1  0  0  0
  5  2  1  6  0  0  0
  5  9  1  0  0  0  0
  6 11  1  0  0  0  0
  8  7  2  0  0  0  0
  9 14  1  0  0  0  0
 10  3  1  0  0  0  0
 10  6  1  0  0  0  0
 11 13  1  0  0  0  0
 12  8  1  0  0  0  0
 12 13  1  0  0  0  0
 14 15  1  0  0  0  0
 14  8  1  0  0  0  0
 16 17  1  0  0  0  0
 16 15  1  0  0  0  0
 17 20  1  0  0  0  0
 19 18  2  0  0  0  0
 19 17  1  0  0  0  0
 20 21  1  0  0  0  0
 22 31  1  0  0  0  0
 22  1  1  0  0  0  0
 23 22  1  0  0  0  0
 24 32  1  0  0  0  0
 25 26  1  0  0  0  0
 25 27  1  0  0  0  0
 27 30  1  0  0  0  0
 28 24  1  0  0  0  0
 29 33  1  0  0  0  0
 29 34  1  0  0  0  0
 30 41  1  0  0  0  0
 31 29  1  0  0  0  0
 31 28  2  0  0  0  0
 32 30  1  0  0  0  0
 33 24  1  0  0  0  0
 33 25  1  0  0  0  0
 34 26  2  0  0  0  0
 36 40  1  0  0  0  0
 37 36  1  0  0  0  0
 37 38  2  0  0  0  0
 40 39  1  0  0  0  0
 40 35  2  0  0  0  0
 41 37  1  0  0  0  0
M  END
>  <MODEL>
5

>  <REMARK>
 VINA RESULT:      -7.4      3.665      5.746
  Name = 
  9 active torsions:
  status: ('A' for Active; 'I' for Inactive)
    1  A    between atoms: C_4  and  C_6
    2  A    between atoms: C_6  and  C_31
    3  A    between atoms: C_7  and  C_13
    4  A    between atoms: C_10  and  C_26
    5  A    between atoms: C_11  and  C_25
    6  A    between atoms: C_11  and  C_38
    7  A    between atoms: C_25  and  C_26
    8  A    between atoms: C_26  and  C_40
    9  A    between atoms: C_27  and  N_41
                            x       y       z     vdW  Elec       q    Type
                         _______ _______ _______ _____ _____    ______ ____

>  <TORSDO>
F 9

$$$$
=
 OpenBabel11042418593D

 41 46  0  0  1  0  0  0  0  0999 V2000
  191.3890  175.3280  145.3320 C   0  0  0  0  0  3  0  0  0  0  0  0
  192.0330  174.1650  145.3750 C   0  0  0  0  0  3  0  0  0  0  0  0
  194.8730  175.1700  143.1940 C   0  0  0  0  0  0  0  0  0  0  0  0
  193.4230  175.1350  143.6080 C   0  0  2  0  0  3  0  0  0  0  0  0
  193.1070  173.8740  144.3860 C   0  0  2  0  0  3  0  0  0  0  0  0
  197.0160  176.5060  143.2880 C   0  0  0  0  0  2  0  0  0  0  0  0
  194.7830  173.1810  140.2340 O   0  0  0  0  0  0  0  0  0  0  0  0
  194.4550  173.5840  141.3850 C   0  0  0  0  0  0  0  0  0  0  0  0
  192.5520  174.0370  142.9840 C   0  0  2  0  0  3  0  0  0  0  0  0
  195.7760  176.0340  144.0370 C   0  0  0  0  0  2  0  0  0  0  0  0
  197.6800  175.3100  142.6320 C   0  0  0  0  0  2  0  0  0  0  0  0
  195.3390  174.4980  142.1180 C   0  0  0  0  0  0  0  0  0  0  0  0
  196.7350  174.7290  141.5860 C   0  0  0  0  0  2  0  0  0  0  0  0
  193.2450  173.0200  142.0710 C   0  0  1  0  0  3  0  0  0  0  0  0
  192.2390  172.4640  141.0710 C   0  0  0  0  0  2  0  0  0  0  0  0
  190.8220  172.6460  141.5870 C   0  0  0  0  0  2  0  0  0  0  0  0
  189.9660  173.3710  140.5560 C   0  0  1  0  0  3  0  0  0  0  0  0
  188.1610  172.5950  139.2280 O   0  0  0  0  0  0  0  0  0  0  0  0
  189.2770  172.3750  139.6780 C   0  0  0  0  0  3  0  0  0  0  0  0
  188.9350  174.2690  141.2290 C   0  0  0  0  0  2  0  0  0  0  0  0
  189.0260  174.1580  142.7390 C   0  0  0  0  0  1  0  0  0  0  0  0
  190.3050  175.6430  146.3140 C   0  0  1  0  0  3  0  0  0  0  0  0
  190.8770  176.3240  147.5460 C   0  0  0  0  0  1  0  0  0  0  0  0
  187.2630  177.3080  144.9950 C   0  0  2  0  0  3  0  0  0  0  0  0
  188.4390  178.2070  142.9670 C   0  0  1  0  0  3  0  0  0  0  0  0
  189.7360  177.9130  142.5710 C   0  0  0  0  0  3  0  0  0  0  0  0
  187.2580  178.2520  142.1120 C   0  0  0  0  0  2  0  0  0  0  0  0
  187.9850  176.3840  145.8850 N   0  0  0  0  0  0  0  0  0  0  0  0
  189.5040  177.4970  144.6530 C   0  0  2  0  0  3  0  0  0  0  0  0
  186.1520  177.6040  142.4910 C   0  0  2  0  0  3  0  0  0  0  0  0
  189.2670  176.5110  145.6840 C   0  0  0  0  0  0  0  0  0  0  0  0
  186.2280  176.3520  143.8200 S   0  0  0  0  0  0  0  0  0  0  0  0
  188.3360  177.9740  144.2760 N   0  0  2  0  0  0  0  0  0  0  0  0
  190.4060  177.4310  143.6510 N   0  0  0  0  0  0  0  0  0  0  0  0
  181.0440  179.3610  142.7260 O   0  0  0  0  0  0  0  0  0  0  0  0
  182.5930  178.3390  141.2910 N   0  0  0  0  0  2  0  0  0  0  0  0
  183.7150  178.3370  142.1810 C   0  0  0  0  0  0  0  0  0  0  0  0
  183.6120  178.8190  143.3400 O   0  0  0  0  0  0  0  0  0  0  0  0
  180.2190  178.7820  140.5780 C   0  0  0  0  0  1  0  0  0  0  0  0
  181.2930  178.8520  141.6000 C   0  0  0  0  0  0  0  0  0  0  0  0
  184.9600  177.8000  141.7190 N   0  0  0  0  0  2  0  0  0  0  0  0
  1  2  2  0  0  0  0
  1 22  1  0  0  0  0
  3 10  1  0  0  0  0
  4  3  1  6  0  0  0
  4  5  1  0  0  0  0
  5  2  1  1  0  0  0
  6 10  1  0  0  0  0
  7  8  2  0  0  0  0
  8 14  1  0  0  0  0
  8 12  1  0  0  0  0
  9  4  1  0  0  0  0
  9  5  1  0  0  0  0
 11  6  1  0  0  0  0
 12  3  2  0  0  0  0
 13 12  1  0  0  0  0
 13 11  1  0  0  0  0
 14  9  1  0  0  0  0
 15 16  1  0  0  0  0
 15 14  1  0  0  0  0
 17 20  1  0  0  0  0
 17 16  1  0  0  0  0
 18 19  2  0  0  0  0
 19 17  1  0  0  0  0
 20 21  1  0  0  0  0
 22 23  1  0  0  0  0
 24 28  1  0  0  0  0
 25 33  1  0  0  0  0
 26 25  1  0  0  0  0
 26 34  2  0  0  0  0
 27 30  1  0  0  0  0
 27 25  1  0  0  0  0
 29 31  1  0  0  0  0
 30 32  1  0  0  0  0
 31 28  2  0  0  0  0
 31 22  1  0  0  0  0
 32 24  1  0  0  0  0
 33 29  1  0  0  0  0
 33 24  1  0  0  0  0
 34 29  1  0  0  0  0
 36 40  1  0  0  0  0
 36 37  1  0  0  0  0
 37 38  2  0  0  0  0
 39 40  1  0  0  0  0
 40 35  2  0  0  0  0
 41 37  1  0  0  0  0
 41 30  1  0  0  0  0
M  END
>  <MODEL>
6

>  <REMARK>
 VINA RESULT:      -7.1      3.789      9.168
  Name = 
  9 active torsions:
  status: ('A' for Active; 'I' for Inactive)
    1  A    between atoms: C_4  and  C_6
    2  A    between atoms: C_6  and  C_31
    3  A    between atoms: C_7  and  C_13
    4  A    between atoms: C_10  and  C_26
    5  A    between atoms: C_11  and  C_25
    6  A    between atoms: C_11  and  C_38
    7  A    between atoms: C_25  and  C_26
    8  A    between atoms: C_26  and  C_40
    9  A    between atoms: C_27  and  N_41
                            x       y       z     vdW  Elec       q    Type
                         _______ _______ _______ _____ _____    ______ ____

>  <TORSDO>
F 9

$$$$
=
 OpenBabel11042418593D

 41 46  0  0  1  0  0  0  0  0999 V2000
  190.4690  176.1270  144.6520 C   0  0  0  0  0  3  0  0  0  0  0  0
  191.3500  175.9440  145.6330 C   0  0  0  0  0  3  0  0  0  0  0  0
  194.4610  173.9690  145.1330 C   0  0  0  0  0  0  0  0  0  0  0  0
  193.2510  174.7400  144.6680 C   0  0  2  0  0  3  0  0  0  0  0  0
  192.1390  174.6840  145.6960 C   0  0  2  0  0  3  0  0  0  0  0  0
  196.9420  174.1010  145.5970 C   0  0  0  0  0  2  0  0  0  0  0  0
  193.5530  170.6490  144.1970 O   0  0  0  0  0  0  0  0  0  0  0  0
  193.3960  171.8440  144.5700 C   0  0  0  0  0  0  0  0  0  0  0  0
  191.9790  173.9280  144.3900 C   0  0  2  0  0  3  0  0  0  0  0  0
  195.5880  174.7940  145.6990 C   0  0  0  0  0  2  0  0  0  0  0  0
  196.8170  172.6950  146.1530 C   0  0  0  0  0  2  0  0  0  0  0  0
  194.5530  172.6250  145.0260 C   0  0  0  0  0  0  0  0  0  0  0  0
  195.8540  171.8990  145.2800 C   0  0  0  0  0  2  0  0  0  0  0  0
  192.0190  172.4270  144.6950 C   0  0  1  0  0  3  0  0  0  0  0  0
  191.0170  171.7000  143.8060 C   0  0  0  0  0  2  0  0  0  0  0  0
  190.1310  172.6970  143.0800 C   0  0  0  0  0  2  0  0  0  0  0  0
  190.1740  172.4550  141.5760 C   0  0  1  0  0  3  0  0  0  0  0  0
  191.6140  170.7280  140.8230 O   0  0  0  0  0  0  0  0  0  0  0  0
  190.5300  171.0280  141.3020 C   0  0  0  0  0  3  0  0  0  0  0  0
  188.8360  172.7890  140.9260 C   0  0  0  0  0  2  0  0  0  0  0  0
  188.8230  174.2180  140.4190 C   0  0  0  0  0  1  0  0  0  0  0  0
  189.6630  177.3850  144.5680 C   0  0  1  0  0  3  0  0  0  0  0  0
  190.3130  178.3770  143.6190 C   0  0  0  0  0  1  0  0  0  0  0  0
  186.5020  176.5760  142.8010 C   0  0  2  0  0  3  0  0  0  0  0  0
  185.1000  178.0000  144.3210 C   0  0  1  0  0  3  0  0  0  0  0  0
  185.5660  178.8560  145.3080 C   0  0  0  0  0  3  0  0  0  0  0  0
  184.0550  178.2860  143.3440 C   0  0  0  0  0  2  0  0  0  0  0  0
  187.9670  176.6150  142.9410 N   0  0  0  0  0  0  0  0  0  0  0  0
  187.0620  177.4030  144.8440 C   0  0  2  0  0  3  0  0  0  0  0  0
  184.2800  178.0240  142.0520 C   0  0  0  0  0  0  0  0  0  0  0  0
  188.2710  177.0820  144.1190 C   0  0  0  0  0  0  0  0  0  0  0  0
  185.9790  177.7120  141.4570 S   0  0  0  0  0  0  0  0  0  0  0  0
  186.0380  177.0820  144.0810 N   0  0  2  0  0  0  0  0  0  0  0  0
  186.8370  178.4860  145.6190 N   0  0  0  0  0  0  0  0  0  0  0  0
  179.0580  179.3750  141.6770 O   0  0  0  0  0  0  0  0  0  0  0  0
  180.8540  178.5320  140.4250 N   0  0  0  0  0  2  0  0  0  0  0  0
  181.8510  178.5810  141.4520 C   0  0  0  0  0  0  0  0  0  0  0  0
  181.5630  179.0080  142.6010 O   0  0  0  0  0  0  0  0  0  0  0  0
  178.5610  178.8190  139.4240 C   0  0  0  0  0  1  0  0  0  0  0  0
  179.4880  178.9310  140.5780 C   0  0  0  0  0  0  0  0  0  0  0  0
  183.1840  178.1590  141.1390 N   0  0  0  0  0  0  0  0  0  0  0  0
  1  2  2  0  0  0  0
  3 10  1  0  0  0  0
  4  3  1  1  0  0  0
  4  5  1  0  0  0  0
  5  2  1  6  0  0  0
  6 10  1  0  0  0  0
  6 11  1  0  0  0  0
  7  8  2  0  0  0  0
  8 14  1  0  0  0  0
  8 12  1  0  0  0  0
  9  4  1  0  0  0  0
  9 14  1  0  0  0  0
  9  5  1  0  0  0  0
 12  3  2  0  0  0  0
 12 13  1  0  0  0  0
 13 11  1  0  0  0  0
 15 14  1  0  0  0  0
 16 15  1  0  0  0  0
 17 16  1  0  0  0  0
 18 19  2  0  0  0  0
 19 17  1  0  0  0  0
 20 17  1  0  0  0  0
 21 20  1  0  0  0  0
 22  1  1  0  0  0  0
 23 22  1  0  0  0  0
 24 28  1  0  0  0  0
 24 33  1  0  0  0  0
 25 26  1  0  0  0  0
 26 34  2  0  0  0  0
 27 25  1  0  0  0  0
 28 31  2  0  0  0  0
 29 34  1  0  0  0  0
 30 27  1  0  0  0  0
 31 22  1  0  0  0  0
 31 29  1  0  0  0  0
 32 30  1  0  0  0  0
 32 24  1  0  0  0  0
 33 25  1  0  0  0  0
 33 29  1  0  0  0  0
 36 40  1  0  0  0  0
 36 37  1  0  0  0  0
 37 38  2  0  0  0  0
 39 40  1  0  0  0  0
 40 35  2  0  0  0  0
 41 37  1  0  0  0  0
 41 30  2  0  0  0  0
M  END
>  <MODEL>
7

>  <REMARK>
 VINA RESULT:      -7.1      4.578     10.053
  Name = 
  9 active torsions:
  status: ('A' for Active; 'I' for Inactive)
    1  A    between atoms: C_4  and  C_6
    2  A    between atoms: C_6  and  C_31
    3  A    between atoms: C_7  and  C_13
    4  A    between atoms: C_10  and  C_26
    5  A    between atoms: C_11  and  C_25
    6  A    between atoms: C_11  and  C_38
    7  A    between atoms: C_25  and  C_26
    8  A    between atoms: C_26  and  C_40
    9  A    between atoms: C_27  and  N_41
                            x       y       z     vdW  Elec       q    Type
                         _______ _______ _______ _____ _____    ______ ____

>  <TORSDO>
F 9

$$$$
=
 OpenBabel11042418593D

 41 46  0  0  1  0  0  0  0  0999 V2000
  188.9890  177.0370  145.7570 C   0  0  0  0  0  3  0  0  0  0  0  0
  188.5570  176.3370  144.7110 C   0  0  0  0  0  3  0  0  0  0  0  0
  186.5590  177.7150  141.8920 C   0  0  0  0  0  0  0  0  0  0  0  0
  187.5150  177.8100  143.0560 C   0  0  2  0  0  3  0  0  0  0  0  0
  187.2700  176.7000  144.0560 C   0  0  2  0  0  3  0  0  0  0  0  0
  186.3770  177.5490  139.3780 C   0  0  0  0  0  2  0  0  0  0  0  0
  183.6870  179.3490  143.2360 O   0  0  0  0  0  0  0  0  0  0  0  0
  184.7480  178.6650  143.2270 C   0  0  0  0  0  0  0  0  0  0  0  0
  186.9050  178.1250  144.4280 C   0  0  2  0  0  3  0  0  0  0  0  0
  187.1160  177.1030  140.6330 C   0  0  0  0  0  2  0  0  0  0  0  0
  184.8860  177.3610  139.5920 C   0  0  0  0  0  2  0  0  0  0  0  0
  185.2900  178.1730  141.9540 C   0  0  0  0  0  0  0  0  0  0  0  0
  184.4270  178.2810  140.7180 C   0  0  0  0  0  2  0  0  0  0  0  0
  185.3780  178.2220  144.5160 C   0  0  1  0  0  3  0  0  0  0  0  0
  184.9910  179.1340  145.6740 C   0  0  0  0  0  2  0  0  0  0  0  0
  184.4430  178.3180  146.8320 C   0  0  0  0  0  2  0  0  0  0  0  0
  185.4520  178.2590  147.9710 C   0  0  1  0  0  3  0  0  0  0  0  0
  185.8990  176.0390  147.2660 O   0  0  0  0  0  0  0  0  0  0  0  0
  186.3150  177.0450  147.8230 C   0  0  0  0  0  3  0  0  0  0  0  0
  186.3220  179.5110  148.0010 C   0  0  0  0  0  2  0  0  0  0  0  0
  187.7110  179.1930  148.5200 C   0  0  0  0  0  1  0  0  0  0  0  0
  190.2790  176.6910  146.4320 C   0  0  1  0  0  3  0  0  0  0  0  0
  190.1810  175.3390  147.1190 C   0  0  0  0  0  1  0  0  0  0  0  0
  192.5780  176.3780  143.5370 C   0  0  2  0  0  3  0  0  0  0  0  0
  194.5940  175.9740  144.9760 C   0  0  1  0  0  3  0  0  0  0  0  0
  194.6000  175.7880  146.3510 C   0  0  0  0  0  3  0  0  0  0  0  0
  195.3330  175.1910  143.9910 C   0  0  0  0  0  2  0  0  0  0  0  0
  191.2510  176.4410  144.1720 N   0  0  0  0  0  0  0  0  0  0  0  0
  192.8050  176.7860  145.7630 C   0  0  2  0  0  3  0  0  0  0  0  0
  194.6910  174.7220  142.9160 C   0  0  2  0  0  3  0  0  0  0  0  0
  191.3980  176.6850  145.4440 C   0  0  0  0  0  0  0  0  0  0  0  0
  192.8640  174.6910  142.8740 S   0  0  0  0  0  0  0  0  0  0  0  0
  193.4830  176.6320  144.6440 N   0  0  2  0  0  0  0  0  0  0  0  0
  193.4350  176.2860  146.8470 N   0  0  0  0  0  0  0  0  0  0  0  0
  197.3520  175.6530  138.3030 O   0  0  0  0  0  0  0  0  0  0  0  0
  196.6880  173.9300  139.7490 N   0  0  0  0  0  2  0  0  0  0  0  0
  196.0460  174.7400  140.7390 C   0  0  0  0  0  0  0  0  0  0  0  0
  196.0070  175.9930  140.6130 O   0  0  0  0  0  0  0  0  0  0  0  0
  197.9410  173.4590  137.6160 C   0  0  0  0  0  1  0  0  0  0  0  0
  197.3180  174.4200  138.5610 C   0  0  0  0  0  0  0  0  0  0  0  0
  195.4710  174.1020  141.8860 N   0  0  0  0  0  2  0  0  0  0  0  0
  1 22  1  0  0  0  0
  2  1  2  0  0  0  0
  3 12  2  0  0  0  0
  4  3  1  6  0  0  0
  4  5  1  0  0  0  0
  4  9  1  0  0  0  0
  5  9  1  0  0  0  0
  5  2  1  1  0  0  0
  6 11  1  0  0  0  0
  6 10  1  0  0  0  0
  8  7  2  0  0  0  0
  8 14  1  0  0  0  0
  9 14  1  0  0  0  0
 10  3  1  0  0  0  0
 11 13  1  0  0  0  0
 12  8  1  0  0  0  0
 13 12  1  0  0  0  0
 14 15  1  0  0  0  0
 15 16  1  0  0  0  0
 16 17  1  0  0  0  0
 17 20  1  0  0  0  0
 18 19  2  0  0  0  0
 19 17  1  0  0  0  0
 20 21  1  0  0  0  0
 22 23  1  0  0  0  0
 24 28  1  0  0  0  0
 24 33  1  0  0  0  0
 25 26  1  0  0  0  0
 26 34  2  0  0  0  0
 27 25  1  0  0  0  0
 28 31  2  0  0  0  0
 29 34  1  0  0  0  0
 30 27  1  0  0  0  0
 31 29  1  0  0  0  0
 31 22  1  0  0  0  0
 32 30  1  0  0  0  0
 32 24  1  0  0  0  0
 33 25  1  0  0  0  0
 33 29  1  0  0  0  0
 35 40  2  0  0  0  0
 36 37  1  0  0  0  0
 37 41  1  0  0  0  0
 38 37  2  0  0  0  0
 39 40  1  0  0  0  0
 40 36  1  0  0  0  0
 41 30  1  0  0  0  0
M  END
>  <MODEL>
8

>  <REMARK>
 VINA RESULT:      -6.9      2.120      4.364
  Name = 
  9 active torsions:
  status: ('A' for Active; 'I' for Inactive)
    1  A    between atoms: C_4  and  C_6
    2  A    between atoms: C_6  and  C_31
    3  A    between atoms: C_7  and  C_13
    4  A    between atoms: C_10  and  C_26
    5  A    between atoms: C_11  and  C_25
    6  A    between atoms: C_11  and  C_38
    7  A    between atoms: C_25  and  C_26
    8  A    between atoms: C_26  and  C_40
    9  A    between atoms: C_27  and  N_41
                            x       y       z     vdW  Elec       q    Type
                         _______ _______ _______ _____ _____    ______ ____

>  <TORSDO>
F 9

$$$$
=
 OpenBabel11042418593D

 41 46  0  0  1  0  0  0  0  0999 V2000
  190.2140  176.5600  146.0020 C   0  0  0  0  0  3  0  0  0  0  0  0
  190.1790  177.4140  144.9810 C   0  0  0  0  0  3  0  0  0  0  0  0
  186.4690  177.6500  145.0960 C   0  0  0  0  0  0  0  0  0  0  0  0
  187.7800  176.9460  144.8460 C   0  0  2  0  0  3  0  0  0  0  0  0
  188.8720  177.9340  144.4930 C   0  0  2  0  0  3  0  0  0  0  0  0
  184.5960  177.9990  146.7550 C   0  0  0  0  0  2  0  0  0  0  0  0
  185.2580  178.0350  141.7630 O   0  0  0  0  0  0  0  0  0  0  0  0
  186.0990  177.9360  142.6990 C   0  0  0  0  0  0  0  0  0  0  0  0
  188.3360  177.0070  143.4180 C   0  0  2  0  0  3  0  0  0  0  0  0
  186.0970  177.8520  146.5430 C   0  0  0  0  0  2  0  0  0  0  0  0
  184.0620  179.0420  145.7910 C   0  0  0  0  0  2  0  0  0  0  0  0
  185.6570  178.0520  144.0940 C   0  0  0  0  0  0  0  0  0  0  0  0
  184.2530  178.5420  144.3640 C   0  0  0  0  0  2  0  0  0  0  0  0
  187.5670  177.8510  142.3970 C   0  0  1  0  0  3  0  0  0  0  0  0
  187.8220  177.3120  140.9940 C   0  0  0  0  0  2  0  0  0  0  0  0
  187.2650  175.9040  140.8580 C   0  0  0  0  0  2  0  0  0  0  0  0
  188.3570  174.9360  140.4220 C   0  0  1  0  0  3  0  0  0  0  0  0
  187.9880  173.7760  142.4570 O   0  0  0  0  0  0  0  0  0  0  0  0
  188.3270  173.7140  141.2840 C   0  0  0  0  0  3  0  0  0  0  0  0
  188.1910  174.5430  138.9580 C   0  0  0  0  0  2  0  0  0  0  0  0
  188.1760  173.0340  138.8030 C   0  0  0  0  0  1  0  0  0  0  0  0
  191.5150  176.0230  146.5100 C   0  0  1  0  0  3  0  0  0  0  0  0
  191.3840  175.5770  147.9560 C   0  0  0  0  0  1  0  0  0  0  0  0
  193.0240  173.6970  144.0440 C   0  0  2  0  0  3  0  0  0  0  0  0
  191.0240  172.1800  144.0110 C   0  0  1  0  0  3  0  0  0  0  0  0
  189.8070  172.4100  144.6340 C   0  0  0  0  0  3  0  0  0  0  0  0
  191.2260  171.6890  142.6510 C   0  0  0  0  0  2  0  0  0  0  0  0
  192.9450  174.9620  144.7940 N   0  0  0  0  0  0  0  0  0  0  0  0
  191.3260  173.5960  145.5540 C   0  0  2  0  0  3  0  0  0  0  0  0
  192.0790  172.3290  141.8460 C   0  0  2  0  0  3  0  0  0  0  0  0
  191.9750  174.8840  145.6610 C   0  0  0  0  0  0  0  0  0  0  0  0
  192.6650  174.0080  142.2710 S   0  0  0  0  0  0  0  0  0  0  0  0
  191.9580  172.9030  144.6300 N   0  0  2  0  0  0  0  0  0  0  0  0
  190.0020  173.3410  145.6050 N   0  0  0  0  0  0  0  0  0  0  0  0
  191.5830  172.9610  136.4990 O   0  0  0  0  0  0  0  0  0  0  0  0
  192.3330  171.4510  138.1300 N   0  0  0  0  0  2  0  0  0  0  0  0
  192.0590  172.2540  139.2830 C   0  0  0  0  0  0  0  0  0  0  0  0
  191.5640  173.4050  139.1570 O   0  0  0  0  0  0  0  0  0  0  0  0
  192.4100  170.8950  135.6750 C   0  0  0  0  0  1  0  0  0  0  0  0
  192.0810  171.8370  136.7750 C   0  0  0  0  0  0  0  0  0  0  0  0
  192.3820  171.7330  140.5780 N   0  0  0  0  0  2  0  0  0  0  0  0
  1 22  1  0  0  0  0
  2  1  2  0  0  0  0
  3 10  1  0  0  0  0
  4  3  1  6  0  0  0
  5  4  1  0  0  0  0
  5  2  1  1  0  0  0
  7  8  2  0  0  0  0
  8 12  1  0  0  0  0
  9  5  1  0  0  0  0
  9  4  1  0  0  0  0
 10  6  1  0  0  0  0
 11  6  1  0  0  0  0
 12 13  1  0  0  0  0
 12  3  2  0  0  0  0
 13 11  1  0  0  0  0
 14  8  1  0  0  0  0
 14  9  1  0  0  0  0
 15 14  1  0  0  0  0
 16 15  1  0  0  0  0
 17 16  1  0  0  0  0
 17 19  1  0  0  0  0
 19 18  2  0  0  0  0
 20 17  1  0  0  0  0
 21 20  1  0  0  0  0
 22 23  1  0  0  0  0
 24 33  1  0  0  0  0
 24 28  1  0  0  0  0
 25 33  1  0  0  0  0
 25 26  1  0  0  0  0
 26 34  2  0  0  0  0
 27 25  1  0  0  0  0
 28 31  2  0  0  0  0
 29 34  1  0  0  0  0
 29 31  1  0  0  0  0
 30 32  1  0  0  0  0
 30 27  1  0  0  0  0
 31 22  1  0  0  0  0
 32 24  1  0  0  0  0
 33 29  1  0  0  0  0
 35 40  2  0  0  0  0
 36 37  1  0  0  0  0
 37 41  1  0  0  0  0
 38 37  2  0  0  0  0
 39 40  1  0  0  0  0
 40 36  1  0  0  0  0
 41 30  1  0  0  0  0
M  END
>  <MODEL>
9

>  <REMARK>
 VINA RESULT:      -6.9      2.699      3.282
  Name = 
  9 active torsions:
  status: ('A' for Active; 'I' for Inactive)
    1  A    between atoms: C_4  and  C_6
    2  A    between atoms: C_6  and  C_31
    3  A    between atoms: C_7  and  C_13
    4  A    between atoms: C_10  and  C_26
    5  A    between atoms: C_11  and  C_25
    6  A    between atoms: C_11  and  C_38
    7  A    between atoms: C_25  and  C_26
    8  A    between atoms: C_26  and  C_40
    9  A    between atoms: C_27  and  N_41
                            x       y       z     vdW  Elec       q    Type
                         _______ _______ _______ _____ _____    ______ ____

>  <TORSDO>
F 9

$$$$
