=
 OpenBabel11042418183D

 35 40  0  0  1  0  0  0  0  0999 V2000
  192.4910  176.9760  143.6280 C   0  0  0  0  0  0  0  0  0  0  0  0
  189.3630  177.5500  145.1720 C   0  0  0  0  0  3  0  0  0  0  0  0
  194.3690  175.1140  145.8720 C   0  0  0  0  0  3  0  0  0  0  0  0
  194.8200  174.2450  143.1130 C   0  0  0  0  0  2  0  0  0  0  0  0
  194.1550  175.4860  143.5020 N   0  0  0  0  0  0  0  0  0  0  0  0
  188.4700  177.7710  144.1020 C   0  0  0  0  0  0  0  0  0  0  0  0
  193.2360  176.1830  142.6980 N   0  0  0  0  0  2  0  0  0  0  0  0
  195.5540  173.6420  144.2920 C   0  0  0  0  0  3  0  0  0  0  0  0
  191.7620  176.9630  145.6880 C   0  0  0  0  0  0  0  0  0  0  0  0
  192.8490  176.7890  144.9050 N   0  0  0  0  0  0  0  0  0  0  0  0
  193.8660  175.8070  144.8550 C   0  0  0  0  0  0  0  0  0  0  0  0
  188.9440  177.7240  142.7670 C   0  0  0  0  0  3  0  0  0  0  0  0
  191.1610  177.3280  143.5660 C   0  0  0  0  0  0  0  0  0  0  0  0
  190.2990  177.4800  142.4840 C   0  0  0  0  0  3  0  0  0  0  0  0
  195.3190  174.0270  145.5580 C   0  0  0  0  0  3  0  0  0  0  0  0
  190.7070  177.3450  144.8720 C   0  0  0  0  0  0  0  0  0  0  0  0
  186.0690  178.2670  143.4250 C   0  0  0  0  0  3  0  0  0  0  0  0
  184.8820  178.4380  144.0360 N   0  0  0  0  0  0  0  0  0  0  0  0
  186.4470  178.0360  145.6230 C   0  0  0  0  0  3  0  0  0  0  0  0
  185.1210  178.3060  145.3540 C   0  0  0  0  0  0  0  0  0  0  0  0
  187.0420  178.0200  144.3750 C   0  0  1  0  0  3  0  0  0  0  0  0
  184.0530  178.3780  146.3860 C   0  0  0  0  0  2  0  0  0  0  0  0
  184.6290  178.5110  147.6490 O   0  0  0  0  0  1  0  0  0  0  0  0
  191.6790  176.6150  147.1400 C   0  0  0  0  0  2  0  0  0  0  0  0
  191.2960  175.1510  147.3360 C   0  0  0  0  0  2  0  0  0  0  0  0
  189.7850  174.9530  147.3480 C   0  0  0  0  0  2  0  0  0  0  0  0
  189.3620  173.9600  146.2820 C   0  0  0  0  0  2  0  0  0  0  0  0
  190.4490  173.7830  145.3320 N   0  0  0  0  0  2  0  0  0  0  0  0
  188.8830  174.0560  141.8700 C   0  0  0  0  0  2  0  0  0  0  0  0
  190.2480  173.6860  143.9190 C   0  0  0  0  0  0  0  0  0  0  0  0
  192.0350  172.3390  140.9740 C   0  0  0  0  0  1  0  0  0  0  0  0
  189.1360  174.1700  143.3470 C   0  0  0  0  0  3  0  0  0  0  0  0
  190.8680  172.6480  141.7790 N   0  0  0  0  0  0  0  0  0  0  0  0
  190.1740  173.7470  141.1150 C   0  0  0  0  0  2  0  0  0  0  0  0
  191.3620  173.1330  143.0690 C   0  0  0  0  0  2  0  0  0  0  0  0
  1 10  1  0  0  0  0
  4  5  1  0  0  0  0
  4  8  1  0  0  0  0
  5 11  1  0  0  0  0
  6  2  2  0  0  0  0
  7  5  1  0  0  0  0
  7  1  1  0  0  0  0
  8 15  2  0  0  0  0
  9 24  1  0  0  0  0
 10  9  1  0  0  0  0
 11 10  1  0  0  0  0
 11  3  2  0  0  0  0
 12  6  1  0  0  0  0
 13  1  2  0  0  0  0
 13 16  1  0  0  0  0
 14 12  2  0  0  0  0
 14 13  1  0  0  0  0
 15  3  1  0  0  0  0
 16  2  1  0  0  0  0
 16  9  2  0  0  0  0
 17 18  2  0  0  0  0
 17 21  1  0  0  0  0
 18 20  1  0  0  0  0
 20 19  2  0  0  0  0
 20 22  1  0  0  0  0
 21  6  1  6  0  0  0
 21 19  1  0  0  0  0
 22 23  1  0  0  0  0
 24 25  1  0  0  0  0
 25 26  1  0  0  0  0
 27 26  1  0  0  0  0
 28 27  1  0  0  0  0
 29 32  1  0  0  0  0
 30 28  1  0  0  0  0
 31 33  1  0  0  0  0
 32 30  2  0  0  0  0
 33 35  1  0  0  0  0
 34 33  1  0  0  0  0
 34 29  1  0  0  0  0
 35 30  1  0  0  0  0
M  END
>  <MODEL>
1

>  <REMARK>
 VINA RESULT:      -7.3      0.000      0.000
  Name = 
  8 active torsions:
  status: ('A' for Active; 'I' for Inactive)
    1  A    between atoms: C_5  and  CA_20
    2  A    between atoms: C_6  and  N_21
    3  A    between atoms: C_8  and  C_23
    4  A    between atoms: C_8  and  C_27
    5  A    between atoms: C_13  and  C_17
    6  A    between atoms: C_13  and  C_27
    7  A    between atoms: C_14  and  C_31
    8  A    between atoms: C_17  and  N_21
                            x       y       z     vdW  Elec       q    Type
                         _______ _______ _______ _____ _____    ______ ____

>  <TORSDO>
F 8

$$$$
=
 OpenBabel11042418183D

 35 40  0  0  0  0  0  0  0  0999 V2000
  191.4200  177.5600  143.6530 C   0  0  0  0  0  0  0  0  0  0  0  0
  187.9920  177.8830  144.4550 C   0  0  0  0  0  3  0  0  0  0  0  0
  192.8790  175.8020  146.2630 C   0  0  0  0  0  3  0  0  0  0  0  0
  193.9990  175.0110  143.6760 C   0  0  0  0  0  2  0  0  0  0  0  0
  193.1750  176.1950  143.9040 N   0  0  0  0  0  0  0  0  0  0  0  0
  187.3470  178.0570  143.2120 C   0  0  0  0  0  0  0  0  0  0  0  0
  192.4100  176.8370  142.9150 N   0  0  0  0  0  2  0  0  0  0  0  0
  194.4920  174.4440  144.9900 C   0  0  0  0  0  3  0  0  0  0  0  0
  190.2510  177.4620  145.4970 C   0  0  0  0  0  0  0  0  0  0  0  0
  191.4950  177.3790  144.9780 N   0  0  0  0  0  0  0  0  0  0  0  0
  192.5670  176.4730  145.1580 C   0  0  0  0  0  0  0  0  0  0  0  0
  188.1100  178.0650  142.0170 C   0  0  0  0  0  3  0  0  0  0  0  0
  190.1150  177.8160  143.2940 C   0  0  0  0  0  0  0  0  0  0  0  0
  189.5090  177.9230  142.0470 C   0  0  0  0  0  3  0  0  0  0  0  0
  193.9520  174.7910  146.1710 C   0  0  0  0  0  3  0  0  0  0  0  0
  189.3800  177.7800  144.4650 C   0  0  0  0  0  0  0  0  0  0  0  0
  185.0700  178.6070  144.2000 C   0  0  0  0  0  3  0  0  0  0  0  0
  183.7890  178.6290  143.7880 N   0  0  0  0  0  2  0  0  0  0  0  0
  185.0830  177.9560  142.0560 C   0  0  0  0  0  3  0  0  0  0  0  0
  183.8070  178.2290  142.5030 C   0  0  0  0  0  0  0  0  0  0  0  0
  185.8800  178.1980  143.1580 C   0  0  0  0  0  0  0  0  0  0  0  0
  182.5870  178.1590  141.6550 C   0  0  0  0  0  2  0  0  0  0  0  0
  182.9530  178.0320  140.3160 O   0  0  0  0  0  1  0  0  0  0  0  0
  189.8710  177.0860  146.8930 C   0  0  0  0  0  2  0  0  0  0  0  0
  189.8600  175.5710  147.0740 C   0  0  0  0  0  2  0  0  0  0  0  0
  189.0610  174.8720  145.9820 C   0  0  0  0  0  2  0  0  0  0  0  0
  189.8020  173.6530  145.4660 C   0  0  0  0  0  2  0  0  0  0  0  0
  190.5140  174.0030  144.2460 N   0  0  0  0  0  2  0  0  0  0  0  0
  187.9540  174.3900  141.4510 C   0  0  0  0  0  2  0  0  0  0  0  0
  189.9020  174.0020  142.9540 C   0  0  0  0  0  0  0  0  0  0  0  0
  190.8110  173.1070  139.4830 C   0  0  0  0  0  1  0  0  0  0  0  0
  188.6340  174.4080  142.7920 C   0  0  0  0  0  3  0  0  0  0  0  0
  189.9240  173.2190  140.6240 N   0  0  0  0  0  0  0  0  0  0  0  0
  188.9760  174.2870  140.3210 C   0  0  0  0  0  2  0  0  0  0  0  0
  190.7450  173.6460  141.7570 C   0  0  0  0  0  2  0  0  0  0  0  0
  1 10  1  0  0  0  0
  2 16  1  0  0  0  0
  4  5  1  0  0  0  0
  4  8  1  0  0  0  0
  5 11  1  0  0  0  0
  6  2  2  0  0  0  0
  7  1  1  0  0  0  0
  7  5  1  0  0  0  0
  8 15  2  0  0  0  0
  9 24  1  0  0  0  0
 10 11  1  0  0  0  0
 10  9  1  0  0  0  0
 11  3  2  0  0  0  0
 12 14  2  0  0  0  0
 12  6  1  0  0  0  0
 13  1  2  0  0  0  0
 13 16  1  0  0  0  0
 14 13  1  0  0  0  0
 15  3  1  0  0  0  0
 16  9  2  0  0  0  0
 18 17  1  0  0  0  0
 19 20  2  0  0  0  0
 19 21  1  0  0  0  0
 20 18  1  0  0  0  0
 21  6  1  0  0  0  0
 21 17  2  0  0  0  0
 22 20  1  0  0  0  0
 23 22  1  0  0  0  0
 24 25  1  0  0  0  0
 26 25  1  0  0  0  0
 27 26  1  0  0  0  0
 28 27  1  0  0  0  0
 29 32  1  0  0  0  0
 30 28  1  0  0  0  0
 31 33  1  0  0  0  0
 32 30  2  0  0  0  0
 33 35  1  0  0  0  0
 34 33  1  0  0  0  0
 34 29  1  0  0  0  0
 35 30  1  0  0  0  0
M  END
>  <MODEL>
2

>  <REMARK>
 VINA RESULT:      -7.2      1.857      2.190
  Name = 
  8 active torsions:
  status: ('A' for Active; 'I' for Inactive)
    1  A    between atoms: C_5  and  CA_20
    2  A    between atoms: C_6  and  N_21
    3  A    between atoms: C_8  and  C_23
    4  A    between atoms: C_8  and  C_27
    5  A    between atoms: C_13  and  C_17
    6  A    between atoms: C_13  and  C_27
    7  A    between atoms: C_14  and  C_31
    8  A    between atoms: C_17  and  N_21
                            x       y       z     vdW  Elec       q    Type
                         _______ _______ _______ _____ _____    ______ ____

>  <TORSDO>
F 8

$$$$
=
 OpenBabel11042418183D

 35 40  0  0  0  0  0  0  0  0999 V2000
  192.8430  175.0670  146.4830 C   0  0  0  0  0  0  0  0  0  0  0  0
  189.4220  175.4690  145.6860 C   0  0  0  0  0  3  0  0  0  0  0  0
  194.2970  173.4430  143.7860 C   0  0  0  0  0  3  0  0  0  0  0  0
  196.0800  175.4800  144.9030 C   0  0  0  0  0  2  0  0  0  0  0  0
  194.8760  174.9710  145.5560 N   0  0  0  0  0  0  0  0  0  0  0  0
  189.0000  176.5710  146.4590 C   0  0  0  0  0  0  0  0  0  0  0  0
  194.1380  175.6740  146.5240 N   0  0  0  0  0  2  0  0  0  0  0  0
  196.4820  174.5800  143.7530 C   0  0  0  0  0  3  0  0  0  0  0  0
  191.4550  174.0900  145.1070 C   0  0  0  0  0  0  0  0  0  0  0  0
  192.7270  174.1040  145.5600 N   0  0  0  0  0  0  0  0  0  0  0  0
  193.9880  174.0620  144.9210 C   0  0  0  0  0  0  0  0  0  0  0  0
  189.9240  177.2310  147.3080 C   0  0  0  0  0  3  0  0  0  0  0  0
  191.6200  175.6680  146.6820 C   0  0  0  0  0  0  0  0  0  0  0  0
  191.2560  176.7950  147.4120 C   0  0  0  0  0  3  0  0  0  0  0  0
  195.6470  173.6680  143.2280 C   0  0  0  0  0  3  0  0  0  0  0  0
  190.7360  175.0310  145.8310 C   0  0  0  0  0  0  0  0  0  0  0  0
  186.5790  176.7250  147.2200 C   0  0  0  0  0  3  0  0  0  0  0  0
  185.4540  177.3520  146.8280 N   0  0  0  0  0  2  0  0  0  0  0  0
  187.1170  177.9090  145.3940 C   0  0  0  0  0  3  0  0  0  0  0  0
  185.7860  178.0520  145.7280 C   0  0  0  0  0  0  0  0  0  0  0  0
  187.6100  177.0510  146.3590 C   0  0  0  0  0  0  0  0  0  0  0  0
  184.8280  178.9310  145.0030 C   0  0  0  0  0  2  0  0  0  0  0  0
  185.5250  179.9510  144.3570 O   0  0  0  0  0  1  0  0  0  0  0  0
  190.9710  173.3310  143.9130 C   0  0  0  0  0  2  0  0  0  0  0  0
  189.8560  172.3600  144.2890 C   0  0  0  0  0  2  0  0  0  0  0  0
  188.9590  172.0330  143.1010 C   0  0  0  0  0  2  0  0  0  0  0  0
  189.0350  173.1250  142.0510 C   0  0  0  0  0  2  0  0  0  0  0  0
  187.9130  174.0350  142.2220 N   0  0  0  0  0  2  0  0  0  0  0  0
  189.3450  177.5610  142.3920 C   0  0  0  0  0  2  0  0  0  0  0  0
  188.0380  175.4570  142.1370 C   0  0  0  0  0  0  0  0  0  0  0  0
  185.9180  178.3540  141.2460 C   0  0  0  0  0  1  0  0  0  0  0  0
  189.1920  176.0670  142.4430 C   0  0  0  0  0  3  0  0  0  0  0  0
  186.9430  177.6530  141.9960 N   0  0  0  0  0  0  0  0  0  0  0  0
  188.2280  178.1980  141.5670 C   0  0  0  0  0  2  0  0  0  0  0  0
  186.8820  176.2500  141.5840 C   0  0  0  0  0  2  0  0  0  0  0  0
  1  7  1  0  0  0  0
  1 13  2  0  0  0  0
  2 16  1  0  0  0  0
  2  6  2  0  0  0  0
  3 11  2  0  0  0  0
  4  5  1  0  0  0  0
  5  7  1  0  0  0  0
  6 12  1  0  0  0  0
  8  4  1  0  0  0  0
  9 10  1  0  0  0  0
  9 16  2  0  0  0  0
 10  1  1  0  0  0  0
 11  5  1  0  0  0  0
 11 10  1  0  0  0  0
 12 14  2  0  0  0  0
 13 14  1  0  0  0  0
 15  8  2  0  0  0  0
 15  3  1  0  0  0  0
 16 13  1  0  0  0  0
 18 17  1  0  0  0  0
 19 20  2  0  0  0  0
 19 21  1  0  0  0  0
 20 18  1  0  0  0  0
 21  6  1  0  0  0  0
 21 17  2  0  0  0  0
 22 20  1  0  0  0  0
 23 22  1  0  0  0  0
 24 25  1  0  0  0  0
 24  9  1  0  0  0  0
 26 25  1  0  0  0  0
 27 28  1  0  0  0  0
 27 26  1  0  0  0  0
 29 32  1  0  0  0  0
 30 28  1  0  0  0  0
 30 32  2  0  0  0  0
 31 33  1  0  0  0  0
 34 33  1  0  0  0  0
 34 29  1  0  0  0  0
 35 33  1  0  0  0  0
 35 30  1  0  0  0  0
M  END
>  <MODEL>
3

>  <REMARK>
 VINA RESULT:      -7.0      1.990      3.788
  Name = 
  8 active torsions:
  status: ('A' for Active; 'I' for Inactive)
    1  A    between atoms: C_5  and  CA_20
    2  A    between atoms: C_6  and  N_21
    3  A    between atoms: C_8  and  C_23
    4  A    between atoms: C_8  and  C_27
    5  A    between atoms: C_13  and  C_17
    6  A    between atoms: C_13  and  C_27
    7  A    between atoms: C_14  and  C_31
    8  A    between atoms: C_17  and  N_21
                            x       y       z     vdW  Elec       q    Type
                         _______ _______ _______ _____ _____    ______ ____

>  <TORSDO>
F 8

$$$$
=
 OpenBabel11042418183D

 35 40  0  0  1  0  0  0  0  0999 V2000
  187.8520  175.5410  143.2650 C   0  0  0  0  0  0  0  0  0  0  0  0
  191.3700  175.8580  143.4050 C   0  0  0  0  0  3  0  0  0  0  0  0
  186.5480  178.2800  144.9450 C   0  0  0  0  0  3  0  0  0  0  0  0
  184.9490  177.6060  142.5870 C   0  0  0  0  0  2  0  0  0  0  0  0
  185.9680  176.7450  143.1820 N   0  0  0  0  0  0  0  0  0  0  0  0
  191.8410  175.1240  142.2960 C   0  0  0  0  0  0  0  0  0  0  0  0
  186.6650  175.7390  142.4900 N   0  0  0  0  0  2  0  0  0  0  0  0
  184.5770  178.7250  143.5360 C   0  0  0  0  0  3  0  0  0  0  0  0
  189.2530  176.6140  144.5530 C   0  0  0  0  0  0  0  0  0  0  0  0
  187.9480  176.3550  144.3230 N   0  0  0  0  0  0  0  0  0  0  0  0
  186.7900  177.1660  144.2620 C   0  0  0  0  0  0  0  0  0  0  0  0
  190.9190  174.4760  141.4360 C   0  0  0  0  0  3  0  0  0  0  0  0
  189.1120  175.2140  142.8150 C   0  0  0  0  0  0  0  0  0  0  0  0
  189.5350  174.5330  141.6790 C   0  0  0  0  0  3  0  0  0  0  0  0
  185.3330  179.0470  144.6000 C   0  0  0  0  0  3  0  0  0  0  0  0
  189.9990  175.8720  143.6470 C   0  0  0  0  0  0  0  0  0  0  0  0
  193.9480  174.0030  141.4180 C   0  0  0  0  0  3  0  0  0  0  0  0
  195.2580  174.2950  141.3180 N   0  0  0  0  0  0  0  0  0  0  0  0
  194.2130  176.0450  142.3050 C   0  0  0  0  0  3  0  0  0  0  0  0
  195.4070  175.5180  141.8600 C   0  0  0  0  0  0  0  0  0  0  0  0
  193.2880  175.0590  142.0190 C   0  0  1  0  0  3  0  0  0  0  0  0
  196.7110  176.2340  141.9060 C   0  0  0  0  0  2  0  0  0  0  0  0
  196.7980  176.9730  143.0850 O   0  0  0  0  0  1  0  0  0  0  0  0
  189.7760  177.6590  145.4860 C   0  0  0  0  0  2  0  0  0  0  0  0
  189.6410  177.2180  146.9410 C   0  0  0  0  0  2  0  0  0  0  0  0
  190.0480  175.7630  147.1360 C   0  0  0  0  0  2  0  0  0  0  0  0
  191.3900  175.6670  147.8380 C   0  0  0  0  0  2  0  0  0  0  0  0
  192.4340  176.1460  146.9450 N   0  0  0  0  0  2  0  0  0  0  0  0
  195.7140  174.7930  145.5590 C   0  0  0  0  0  2  0  0  0  0  0  0
  193.4010  175.2860  146.3360 C   0  0  0  0  0  0  0  0  0  0  0  0
  193.4990  171.9380  144.7680 C   0  0  0  0  0  1  0  0  0  0  0  0
  194.6820  175.6630  146.2210 C   0  0  0  0  0  3  0  0  0  0  0  0
  193.8730  173.3310  144.9230 N   0  0  0  0  0  0  0  0  0  0  0  0
  195.2300  173.3470  145.4600 C   0  0  0  0  0  2  0  0  0  0  0  0
  192.9770  173.8980  145.9320 C   0  0  0  0  0  2  0  0  0  0  0  0
  1 10  1  0  0  0  0
  2 16  1  0  0  0  0
  4  5  1  0  0  0  0
  4  8  1  0  0  0  0
  5 11  1  0  0  0  0
  6  2  2  0  0  0  0
  7  5  1  0  0  0  0
  7  1  1  0  0  0  0
  8 15  2  0  0  0  0
  9 24  1  0  0  0  0
 10  9  1  0  0  0  0
 11 10  1  0  0  0  0
 11  3  2  0  0  0  0
 12 14  2  0  0  0  0
 12  6  1  0  0  0  0
 13  1  2  0  0  0  0
 13 16  1  0  0  0  0
 14 13  1  0  0  0  0
 15  3  1  0  0  0  0
 16  9  2  0  0  0  0
 17 21  1  0  0  0  0
 18 17  2  0  0  0  0
 18 20  1  0  0  0  0
 20 22  1  0  0  0  0
 20 19  2  0  0  0  0
 21  6  1  6  0  0  0
 21 19  1  0  0  0  0
 22 23  1  0  0  0  0
 24 25  1  0  0  0  0
 25 26  1  0  0  0  0
 26 27  1  0  0  0  0
 28 27  1  0  0  0  0
 29 32  1  0  0  0  0
 30 28  1  0  0  0  0
 31 33  1  0  0  0  0
 32 30  2  0  0  0  0
 33 34  1  0  0  0  0
 33 35  1  0  0  0  0
 34 29  1  0  0  0  0
 35 30  1  0  0  0  0
M  END
>  <MODEL>
4

>  <REMARK>
 VINA RESULT:      -6.8      2.902      7.215
  Name = 
  8 active torsions:
  status: ('A' for Active; 'I' for Inactive)
    1  A    between atoms: C_5  and  CA_20
    2  A    between atoms: C_6  and  N_21
    3  A    between atoms: C_8  and  C_23
    4  A    between atoms: C_8  and  C_27
    5  A    between atoms: C_13  and  C_17
    6  A    between atoms: C_13  and  C_27
    7  A    between atoms: C_14  and  C_31
    8  A    between atoms: C_17  and  N_21
                            x       y       z     vdW  Elec       q    Type
                         _______ _______ _______ _____ _____    ______ ____

>  <TORSDO>
F 8

$$$$
=
 OpenBabel11042418183D

 35 40  0  0  1  0  0  0  0  0999 V2000
  192.4820  175.8290  142.5590 C   0  0  0  0  0  0  0  0  0  0  0  0
  188.9720  176.2060  142.7340 C   0  0  0  0  0  3  0  0  0  0  0  0
  193.1000  173.5090  140.0570 C   0  0  0  0  0  3  0  0  0  0  0  0
  195.0870  175.6590  140.0420 C   0  0  0  0  0  2  0  0  0  0  0  0
  194.1470  175.3960  141.1280 N   0  0  0  0  0  0  0  0  0  0  0  0
  188.7750  177.4870  143.2920 C   0  0  0  0  0  0  0  0  0  0  0  0
  193.7160  176.3560  142.0600 N   0  0  0  0  0  2  0  0  0  0  0  0
  195.1470  174.4810  139.0920 C   0  0  0  0  0  3  0  0  0  0  0  0
  190.7690  174.6170  141.9510 C   0  0  0  0  0  0  0  0  0  0  0  0
  192.1180  174.6740  141.9880 N   0  0  0  0  0  0  0  0  0  0  0  0
  193.1310  174.4060  141.0370 C   0  0  0  0  0  0  0  0  0  0  0  0
  189.8950  178.2860  143.6340 C   0  0  0  0  0  3  0  0  0  0  0  0
  191.3620  176.5270  142.9520 C   0  0  0  0  0  0  0  0  0  0  0  0
  191.2080  177.8180  143.4460 C   0  0  0  0  0  3  0  0  0  0  0  0
  194.2140  173.5140  139.0870 C   0  0  0  0  0  3  0  0  0  0  0  0
  190.2780  175.7470  142.5900 C   0  0  0  0  0  0  0  0  0  0  0  0
  186.5190  178.3380  142.4840 C   0  0  0  0  0  3  0  0  0  0  0  0
  185.3650  178.7600  143.0330 N   0  0  0  0  0  0  0  0  0  0  0  0
  186.7910  178.2190  144.7060 C   0  0  0  0  0  3  0  0  0  0  0  0
  185.5410  178.6920  144.3650 C   0  0  0  0  0  0  0  0  0  0  0  0
  187.4080  178.0010  143.4890 C   0  0  1  0  0  3  0  0  0  0  0  0
  184.4750  179.0310  145.3450 C   0  0  0  0  0  2  0  0  0  0  0  0
  184.2030  177.9200  146.1440 O   0  0  0  0  0  1  0  0  0  0  0  0
  189.9680  173.6130  141.1860 C   0  0  0  0  0  2  0  0  0  0  0  0
  190.0180  172.2420  141.8530 C   0  0  0  0  0  2  0  0  0  0  0  0
  189.3130  172.2380  143.2030 C   0  0  0  0  0  2  0  0  0  0  0  0
  190.3120  172.3900  144.3350 C   0  0  0  0  0  2  0  0  0  0  0  0
  189.6800  173.0860  145.4450 N   0  0  0  0  0  2  0  0  0  0  0  0
  189.7380  176.6160  146.8740 C   0  0  0  0  0  2  0  0  0  0  0  0
  190.1450  174.3400  145.9510 C   0  0  0  0  0  0  0  0  0  0  0  0
  193.3760  176.0390  146.5420 C   0  0  0  0  0  1  0  0  0  0  0  0
  189.2810  175.2780  146.3650 C   0  0  0  0  0  3  0  0  0  0  0  0
  191.9760  175.9640  146.1700 N   0  0  0  0  0  0  0  0  0  0  0  0
  191.2170  176.5820  147.2520 C   0  0  0  0  0  2  0  0  0  0  0  0
  191.6280  174.5440  146.1210 C   0  0  0  0  0  2  0  0  0  0  0  0
  1 13  2  0  0  0  0
  2  6  2  0  0  0  0
  3 11  2  0  0  0  0
  4  5  1  0  0  0  0
  5  7  1  0  0  0  0
  6 12  1  0  0  0  0
  7  1  1  0  0  0  0
  8  4  1  0  0  0  0
  9 10  1  0  0  0  0
  9 16  2  0  0  0  0
 10  1  1  0  0  0  0
 11  5  1  0  0  0  0
 11 10  1  0  0  0  0
 13 14  1  0  0  0  0
 14 12  2  0  0  0  0
 15  8  2  0  0  0  0
 15  3  1  0  0  0  0
 16  2  1  0  0  0  0
 16 13  1  0  0  0  0
 17 18  2  0  0  0  0
 17 21  1  0  0  0  0
 18 20  1  0  0  0  0
 20 19  2  0  0  0  0
 20 22  1  0  0  0  0
 21  6  1  6  0  0  0
 21 19  1  0  0  0  0
 22 23  1  0  0  0  0
 24 25  1  0  0  0  0
 24  9  1  0  0  0  0
 25 26  1  0  0  0  0
 26 27  1  0  0  0  0
 27 28  1  0  0  0  0
 28 30  1  0  0  0  0
 29 34  1  0  0  0  0
 30 35  1  0  0  0  0
 30 32  2  0  0  0  0
 32 29  1  0  0  0  0
 33 31  1  0  0  0  0
 33 34  1  0  0  0  0
 35 33  1  0  0  0  0
M  END
>  <MODEL>
5

>  <REMARK>
 VINA RESULT:      -6.6      1.680      3.841
  Name = 
  8 active torsions:
  status: ('A' for Active; 'I' for Inactive)
    1  A    between atoms: C_5  and  CA_20
    2  A    between atoms: C_6  and  N_21
    3  A    between atoms: C_8  and  C_23
    4  A    between atoms: C_8  and  C_27
    5  A    between atoms: C_13  and  C_17
    6  A    between atoms: C_13  and  C_27
    7  A    between atoms: C_14  and  C_31
    8  A    between atoms: C_17  and  N_21
                            x       y       z     vdW  Elec       q    Type
                         _______ _______ _______ _____ _____    ______ ____

>  <TORSDO>
F 8

$$$$
=
 OpenBabel11042418183D

 35 40  0  0  1  0  0  0  0  0999 V2000
  192.6760  172.1890  143.3010 C   0  0  0  0  0  0  0  0  0  0  0  0
  191.0840  175.2750  142.6430 C   0  0  0  0  0  3  0  0  0  0  0  0
  195.8890  172.9450  144.3640 C   0  0  0  0  0  3  0  0  0  0  0  0
  194.7690  170.6860  145.8530 C   0  0  0  0  0  2  0  0  0  0  0  0
  194.2110  171.2350  144.6190 N   0  0  0  0  0  0  0  0  0  0  0  0
  189.7050  175.0050  142.7790 C   0  0  0  0  0  0  0  0  0  0  0  0
  192.8650  171.1180  144.2320 N   0  0  0  0  0  2  0  0  0  0  0  0
  196.1780  171.1940  146.0730 C   0  0  0  0  0  3  0  0  0  0  0  0
  193.3630  174.2160  142.8630 C   0  0  0  0  0  0  0  0  0  0  0  0
  193.7610  172.9530  143.1290 N   0  0  0  0  0  0  0  0  0  0  0  0
  194.7330  172.4010  143.9970 C   0  0  0  0  0  0  0  0  0  0  0  0
  189.2740  173.6970  143.1160 C   0  0  0  0  0  3  0  0  0  0  0  0
  191.5410  172.9420  143.0980 C   0  0  0  0  0  0  0  0  0  0  0  0
  190.1960  172.6520  143.3000 C   0  0  0  0  0  3  0  0  0  0  0  0
  196.6740  172.2500  145.4060 C   0  0  0  0  0  3  0  0  0  0  0  0
  191.9770  174.2190  142.7940 C   0  0  0  0  0  0  0  0  0  0  0  0
  189.0180  177.4080  142.3110 C   0  0  0  0  0  3  0  0  0  0  0  0
  187.8750  178.1100  142.2070 N   0  0  0  0  0  0  0  0  0  0  0  0
  187.3490  175.9580  142.6780 C   0  0  0  0  0  3  0  0  0  0  0  0
  186.8800  177.2330  142.4370 C   0  0  0  0  0  0  0  0  0  0  0  0
  188.7220  176.0890  142.5990 C   0  0  1  0  0  3  0  0  0  0  0  0
  185.4400  177.6000  142.3690 C   0  0  0  0  0  2  0  0  0  0  0  0
  185.2660  178.9020  142.8380 O   0  0  0  0  0  1  0  0  0  0  0  0
  194.2540  175.4160  142.8430 C   0  0  0  0  0  2  0  0  0  0  0  0
  193.9070  176.3820  143.9720 C   0  0  0  0  0  2  0  0  0  0  0  0
  194.3370  175.8470  145.3320 C   0  0  0  0  0  2  0  0  0  0  0  0
  193.3740  176.2930  146.4160 C   0  0  0  0  0  2  0  0  0  0  0  0
  192.1540  176.7920  145.8010 N   0  0  0  0  0  2  0  0  0  0  0  0
  189.3150  174.4390  146.7570 C   0  0  0  0  0  2  0  0  0  0  0  0
  190.8540  176.2900  146.1190 C   0  0  0  0  0  0  0  0  0  0  0  0
  187.3910  177.5690  146.3370 C   0  0  0  0  0  1  0  0  0  0  0  0
  190.6740  175.0020  146.4460 C   0  0  0  0  0  3  0  0  0  0  0  0
  188.4150  176.5860  146.0420 N   0  0  0  0  0  0  0  0  0  0  0  0
  188.3180  175.5530  147.0680 C   0  0  0  0  0  2  0  0  0  0  0  0
  189.7040  177.2610  146.1940 C   0  0  0  0  0  2  0  0  0  0  0  0
  1  7  1  0  0  0  0
  2  6  2  0  0  0  0
  2 16  1  0  0  0  0
  3 15  1  0  0  0  0
  4  8  1  0  0  0  0
  5  4  1  0  0  0  0
  6 12  1  0  0  0  0
  7  5  1  0  0  0  0
  9 10  1  0  0  0  0
 10  1  1  0  0  0  0
 10 11  1  0  0  0  0
 11  3  2  0  0  0  0
 11  5  1  0  0  0  0
 12 14  2  0  0  0  0
 13 14  1  0  0  0  0
 13  1  2  0  0  0  0
 15  8  2  0  0  0  0
 16  9  2  0  0  0  0
 16 13  1  0  0  0  0
 17 21  1  0  0  0  0
 18 17  2  0  0  0  0
 18 20  1  0  0  0  0
 20 19  2  0  0  0  0
 21 19  1  0  0  0  0
 21  6  1  6  0  0  0
 22 20  1  0  0  0  0
 22 23  1  0  0  0  0
 24  9  1  0  0  0  0
 24 25  1  0  0  0  0
 25 26  1  0  0  0  0
 26 27  1  0  0  0  0
 28 30  1  0  0  0  0
 28 27  1  0  0  0  0
 29 34  1  0  0  0  0
 30 35  1  0  0  0  0
 30 32  2  0  0  0  0
 32 29  1  0  0  0  0
 33 35  1  0  0  0  0
 33 31  1  0  0  0  0
 33 34  1  0  0  0  0
M  END
>  <MODEL>
6

>  <REMARK>
 VINA RESULT:      -6.5      2.129      4.506
  Name = 
  8 active torsions:
  status: ('A' for Active; 'I' for Inactive)
    1  A    between atoms: C_5  and  CA_20
    2  A    between atoms: C_6  and  N_21
    3  A    between atoms: C_8  and  C_23
    4  A    between atoms: C_8  and  C_27
    5  A    between atoms: C_13  and  C_17
    6  A    between atoms: C_13  and  C_27
    7  A    between atoms: C_14  and  C_31
    8  A    between atoms: C_17  and  N_21
                            x       y       z     vdW  Elec       q    Type
                         _______ _______ _______ _____ _____    ______ ____

>  <TORSDO>
F 8

$$$$
=
 OpenBabel11042418183D

 35 40  0  0  1  0  0  0  0  0999 V2000
  188.1870  176.6870  144.5920 C   0  0  0  0  0  0  0  0  0  0  0  0
  188.1400  175.7180  141.1930 C   0  0  0  0  0  3  0  0  0  0  0  0
  185.5850  178.9410  145.0090 C   0  0  0  0  0  3  0  0  0  0  0  0
  185.8540  177.1700  147.3260 C   0  0  0  0  0  2  0  0  0  0  0  0
  186.8510  177.3250  146.2700 N   0  0  0  0  0  0  0  0  0  0  0  0
  188.7660  174.4530  141.1710 C   0  0  0  0  0  0  0  0  0  0  0  0
  187.8120  176.3560  145.9340 N   0  0  0  0  0  2  0  0  0  0  0  0
  184.8340  178.2880  147.2630 C   0  0  0  0  0  3  0  0  0  0  0  0
  187.3800  177.5490  142.7540 C   0  0  0  0  0  0  0  0  0  0  0  0
  187.5160  177.7290  144.0860 N   0  0  0  0  0  0  0  0  0  0  0  0
  186.6230  178.1170  145.1120 C   0  0  0  0  0  0  0  0  0  0  0  0
  189.2390  173.8800  142.3790 C   0  0  0  0  0  3  0  0  0  0  0  0
  188.5460  175.8280  143.5770 C   0  0  0  0  0  0  0  0  0  0  0  0
  189.1130  174.5580  143.6040 C   0  0  0  0  0  3  0  0  0  0  0  0
  184.6980  179.0770  146.1830 C   0  0  0  0  0  3  0  0  0  0  0  0
  188.0580  176.3870  142.4110 C   0  0  0  0  0  0  0  0  0  0  0  0
  188.2010  173.9880  138.7360 C   0  0  0  0  0  3  0  0  0  0  0  0
  188.5870  173.1280  137.7760 N   0  0  0  0  0  0  0  0  0  0  0  0
  189.7530  172.6600  139.6610 C   0  0  0  0  0  3  0  0  0  0  0  0
  189.5120  172.3300  138.3430 C   0  0  0  0  0  0  0  0  0  0  0  0
  188.9000  173.7210  139.8990 C   0  0  1  0  0  3  0  0  0  0  0  0
  190.2310  171.2620  137.5980 C   0  0  0  0  0  2  0  0  0  0  0  0
  189.4640  170.0980  137.5900 O   0  0  0  0  0  1  0  0  0  0  0  0
  186.4960  178.3570  141.8590 C   0  0  0  0  0  2  0  0  0  0  0  0
  185.1310  177.6970  141.6890 C   0  0  0  0  0  2  0  0  0  0  0  0
  184.3480  178.2970  140.5270 C   0  0  0  0  0  2  0  0  0  0  0  0
  182.9260  177.7680  140.5040 C   0  0  0  0  0  2  0  0  0  0  0  0
  182.0110  178.8320  140.8900 N   0  0  0  0  0  2  0  0  0  0  0  0
  178.3340  177.8600  140.6800 C   0  0  0  0  0  2  0  0  0  0  0  0
  180.6440  178.6010  141.2400 C   0  0  0  0  0  0  0  0  0  0  0  0
  178.4470  179.0460  144.1820 C   0  0  0  0  0  1  0  0  0  0  0  0
  179.7830  178.0860  140.3510 C   0  0  0  0  0  3  0  0  0  0  0  0
  178.7690  179.0370  142.7680 N   0  0  0  0  0  0  0  0  0  0  0  0
  178.1070  177.8710  142.1910 C   0  0  0  0  0  2  0  0  0  0  0  0
  180.2150  178.8390  142.6650 C   0  0  0  0  0  2  0  0  0  0  0  0
  1  7  1  0  0  0  0
  2 16  1  0  0  0  0
  3 11  2  0  0  0  0
  3 15  1  0  0  0  0
  5  4  1  0  0  0  0
  6  2  2  0  0  0  0
  6 12  1  0  0  0  0
  7  5  1  0  0  0  0
  8  4  1  0  0  0  0
  9 10  1  0  0  0  0
 10  1  1  0  0  0  0
 10 11  1  0  0  0  0
 11  5  1  0  0  0  0
 12 14  2  0  0  0  0
 13 14  1  0  0  0  0
 13  1  2  0  0  0  0
 15  8  2  0  0  0  0
 16  9  2  0  0  0  0
 16 13  1  0  0  0  0
 17 21  1  0  0  0  0
 18 20  1  0  0  0  0
 18 17  2  0  0  0  0
 19 21  1  0  0  0  0
 20 19  2  0  0  0  0
 21  6  1  6  0  0  0
 22 20  1  0  0  0  0
 23 22  1  0  0  0  0
 24  9  1  0  0  0  0
 25 24  1  0  0  0  0
 26 25  1  0  0  0  0
 27 26  1  0  0  0  0
 27 28  1  0  0  0  0
 28 30  1  0  0  0  0
 29 34  1  0  0  0  0
 30 35  1  0  0  0  0
 32 29  1  0  0  0  0
 32 30  2  0  0  0  0
 33 31  1  0  0  0  0
 34 33  1  0  0  0  0
 35 33  1  0  0  0  0
M  END
>  <MODEL>
7

>  <REMARK>
 VINA RESULT:      -6.5      4.391      9.350
  Name = 
  8 active torsions:
  status: ('A' for Active; 'I' for Inactive)
    1  A    between atoms: C_5  and  CA_20
    2  A    between atoms: C_6  and  N_21
    3  A    between atoms: C_8  and  C_23
    4  A    between atoms: C_8  and  C_27
    5  A    between atoms: C_13  and  C_17
    6  A    between atoms: C_13  and  C_27
    7  A    between atoms: C_14  and  C_31
    8  A    between atoms: C_17  and  N_21
                            x       y       z     vdW  Elec       q    Type
                         _______ _______ _______ _____ _____    ______ ____

>  <TORSDO>
F 8

$$$$
=
 OpenBabel11042418183D

 35 40  0  0  1  0  0  0  0  0999 V2000
  186.9160  175.8180  142.8530 C   0  0  0  0  0  0  0  0  0  0  0  0
  190.2300  174.6010  143.0290 C   0  0  0  0  0  3  0  0  0  0  0  0
  186.5890  178.1540  145.3960 C   0  0  0  0  0  3  0  0  0  0  0  0
  185.1630  178.9900  142.9790 C   0  0  0  0  0  2  0  0  0  0  0  0
  185.6800  177.6460  143.2230 N   0  0  0  0  0  0  0  0  0  0  0  0
  190.5120  174.1360  141.7270 C   0  0  0  0  0  0  0  0  0  0  0  0
  186.0090  176.7230  142.2150 N   0  0  0  0  0  2  0  0  0  0  0  0
  185.1420  179.7940  144.2620 C   0  0  0  0  0  3  0  0  0  0  0  0
  188.4520  175.7470  144.4050 C   0  0  0  0  0  0  0  0  0  0  0  0
  187.1890  176.1350  144.1250 N   0  0  0  0  0  0  0  0  0  0  0  0
  186.4590  177.3220  144.3670 C   0  0  0  0  0  0  0  0  0  0  0  0
  189.5250  174.2360  140.7140 C   0  0  0  0  0  3  0  0  0  0  0  0
  187.9940  175.1660  142.2950 C   0  0  0  0  0  0  0  0  0  0  0  0
  188.2550  174.7750  140.9870 C   0  0  0  0  0  3  0  0  0  0  0  0
  185.8240  179.4170  145.3570 C   0  0  0  0  0  3  0  0  0  0  0  0
  188.9560  175.0980  143.2870 C   0  0  0  0  0  0  0  0  0  0  0  0
  192.3310  172.3640  141.8700 C   0  0  0  0  0  3  0  0  0  0  0  0
  193.5700  172.1750  141.3810 N   0  0  0  0  0  0  0  0  0  0  0  0
  192.8020  174.1650  140.6200 C   0  0  0  0  0  3  0  0  0  0  0  0
  193.8470  173.2630  140.6400 C   0  0  0  0  0  0  0  0  0  0  0  0
  191.8400  173.5750  141.4180 C   0  0  1  0  0  3  0  0  0  0  0  0
  195.1140  173.4290  139.8790 C   0  0  0  0  0  2  0  0  0  0  0  0
  196.1530  173.7320  140.7600 O   0  0  0  0  0  1  0  0  0  0  0  0
  189.2200  176.1260  145.6310 C   0  0  0  0  0  2  0  0  0  0  0  0
  189.3110  174.9590  146.6090 C   0  0  0  0  0  2  0  0  0  0  0  0
  190.4170  175.1610  147.6380 C   0  0  0  0  0  2  0  0  0  0  0  0
  190.9730  176.5700  147.5630 C   0  0  0  0  0  2  0  0  0  0  0  0
  192.4010  176.5100  147.2870 N   0  0  0  0  0  2  0  0  0  0  0  0
  193.3930  176.3130  143.6140 C   0  0  0  0  0  2  0  0  0  0  0  0
  192.9410  176.0430  146.0480 C   0  0  0  0  0  0  0  0  0  0  0  0
  194.6940  173.0480  144.7680 C   0  0  0  0  0  1  0  0  0  0  0  0
  192.8610  176.7890  144.9370 C   0  0  0  0  0  3  0  0  0  0  0  0
  193.7700  174.1640  144.6970 N   0  0  0  0  0  0  0  0  0  0  0  0
  194.3660  175.1510  143.8020 C   0  0  0  0  0  2  0  0  0  0  0  0
  193.7070  174.7450  146.0390 C   0  0  0  0  0  2  0  0  0  0  0  0
  1 10  1  0  0  0  0
  2 16  1  0  0  0  0
  4  5  1  0  0  0  0
  4  8  1  0  0  0  0
  5 11  1  0  0  0  0
  6  2  2  0  0  0  0
  7  1  1  0  0  0  0
  7  5  1  0  0  0  0
  8 15  2  0  0  0  0
  9 24  1  0  0  0  0
 10 11  1  0  0  0  0
 10  9  1  0  0  0  0
 11  3  2  0  0  0  0
 12 14  2  0  0  0  0
 12  6  1  0  0  0  0
 13  1  2  0  0  0  0
 13 16  1  0  0  0  0
 14 13  1  0  0  0  0
 15  3  1  0  0  0  0
 16  9  2  0  0  0  0
 18 17  2  0  0  0  0
 19 20  2  0  0  0  0
 19 21  1  0  0  0  0
 20 18  1  0  0  0  0
 21  6  1  6  0  0  0
 21 17  1  0  0  0  0
 22 20  1  0  0  0  0
 22 23  1  0  0  0  0
 24 25  1  0  0  0  0
 25 26  1  0  0  0  0
 27 26  1  0  0  0  0
 28 27  1  0  0  0  0
 29 34  1  0  0  0  0
 29 32  1  0  0  0  0
 30 28  1  0  0  0  0
 32 30  2  0  0  0  0
 33 31  1  0  0  0  0
 33 35  1  0  0  0  0
 34 33  1  0  0  0  0
 35 30  1  0  0  0  0
M  END
>  <MODEL>
8

>  <REMARK>
 VINA RESULT:      -6.5      2.948      7.275
  Name = 
  8 active torsions:
  status: ('A' for Active; 'I' for Inactive)
    1  A    between atoms: C_5  and  CA_20
    2  A    between atoms: C_6  and  N_21
    3  A    between atoms: C_8  and  C_23
    4  A    between atoms: C_8  and  C_27
    5  A    between atoms: C_13  and  C_17
    6  A    between atoms: C_13  and  C_27
    7  A    between atoms: C_14  and  C_31
    8  A    between atoms: C_17  and  N_21
                            x       y       z     vdW  Elec       q    Type
                         _______ _______ _______ _____ _____    ______ ____

>  <TORSDO>
F 8

$$$$
=
 OpenBabel11042418183D

 35 40  0  0  0  0  0  0  0  0999 V2000
  193.7050  175.3270  145.0020 C   0  0  0  0  0  0  0  0  0  0  0  0
  190.2330  175.9870  145.0410 C   0  0  0  0  0  3  0  0  0  0  0  0
  194.7150  175.5650  141.6930 C   0  0  0  0  0  3  0  0  0  0  0  0
  196.7230  176.6760  143.5110 C   0  0  0  0  0  2  0  0  0  0  0  0
  195.5930  175.8450  143.9190 N   0  0  0  0  0  0  0  0  0  0  0  0
  189.9680  176.4440  146.3500 C   0  0  0  0  0  0  0  0  0  0  0  0
  195.0220  175.8510  145.2030 N   0  0  0  0  0  2  0  0  0  0  0  0
  196.9280  176.5990  142.0130 C   0  0  0  0  0  3  0  0  0  0  0  0
  192.1040  175.2500  143.5170 C   0  0  0  0  0  0  0  0  0  0  0  0
  193.4240  175.0510  143.7220 N   0  0  0  0  0  0  0  0  0  0  0  0
  194.5870  175.4230  143.0080 C   0  0  0  0  0  0  0  0  0  0  0  0
  191.0250  176.5410  147.2890 C   0  0  0  0  0  3  0  0  0  0  0  0
  192.5490  175.6670  145.6680 C   0  0  0  0  0  0  0  0  0  0  0  0
  192.3380  176.1700  146.9480 C   0  0  0  0  0  3  0  0  0  0  0  0
  195.9890  176.1150  141.1830 C   0  0  0  0  0  3  0  0  0  0  0  0
  191.5310  175.5920  144.7340 C   0  0  0  0  0  0  0  0  0  0  0  0
  187.5340  175.9900  146.9280 C   0  0  0  0  0  3  0  0  0  0  0  0
  186.4460  176.7060  147.2680 N   0  0  0  0  0  2  0  0  0  0  0  0
  188.1690  178.1400  146.9460 C   0  0  0  0  0  3  0  0  0  0  0  0
  186.8350  177.9940  147.2680 C   0  0  0  0  0  0  0  0  0  0  0  0
  188.6000  176.8460  146.7260 C   0  0  0  0  0  0  0  0  0  0  0  0
  185.9330  179.1160  147.6420 C   0  0  0  0  0  2  0  0  0  0  0  0
  184.7610  179.0460  146.8900 O   0  0  0  0  0  1  0  0  0  0  0  0
  191.4330  175.2830  142.1820 C   0  0  0  0  0  2  0  0  0  0  0  0
  190.7410  173.9570  141.8780 C   0  0  0  0  0  2  0  0  0  0  0  0
  189.3130  173.9240  142.4100 C   0  0  0  0  0  2  0  0  0  0  0  0
  188.3570  174.5780  141.4310 C   0  0  0  0  0  2  0  0  0  0  0  0
  188.4220  176.0230  141.5880 N   0  0  0  0  0  2  0  0  0  0  0  0
  186.0230  178.0370  143.7560 C   0  0  0  0  0  2  0  0  0  0  0  0
  187.3090  176.8170  142.0070 C   0  0  0  0  0  0  0  0  0  0  0  0
  184.2540  178.2720  140.5160 C   0  0  0  0  0  1  0  0  0  0  0  0
  187.1950  177.2260  143.2790 C   0  0  0  0  0  3  0  0  0  0  0  0
  185.0380  177.6450  141.5620 N   0  0  0  0  0  0  0  0  0  0  0  0
  185.2770  178.6640  142.5800 C   0  0  0  0  0  2  0  0  0  0  0  0
  186.3260  177.2860  140.9670 C   0  0  0  0  0  2  0  0  0  0  0  0
  1  7  1  0  0  0  0
  1 13  2  0  0  0  0
  2  6  2  0  0  0  0
  3 11  2  0  0  0  0
  4  5  1  0  0  0  0
  5  7  1  0  0  0  0
  6 21  1  0  0  0  0
  6 12  1  0  0  0  0
  8  4  1  0  0  0  0
  9 10  1  0  0  0  0
  9 16  2  0  0  0  0
 10  1  1  0  0  0  0
 11 10  1  0  0  0  0
 11  5  1  0  0  0  0
 13 14  1  0  0  0  0
 14 12  2  0  0  0  0
 15  3  1  0  0  0  0
 15  8  2  0  0  0  0
 16  2  1  0  0  0  0
 16 13  1  0  0  0  0
 17 18  1  0  0  0  0
 19 20  2  0  0  0  0
 20 18  1  0  0  0  0
 20 22  1  0  0  0  0
 21 17  2  0  0  0  0
 21 19  1  0  0  0  0
 23 22  1  0  0  0  0
 24  9  1  0  0  0  0
 25 24  1  0  0  0  0
 25 26  1  0  0  0  0
 27 28  1  0  0  0  0
 27 26  1  0  0  0  0
 28 30  1  0  0  0  0
 30 32  2  0  0  0  0
 31 33  1  0  0  0  0
 32 29  1  0  0  0  0
 33 34  1  0  0  0  0
 34 29  1  0  0  0  0
 35 33  1  0  0  0  0
 35 30  1  0  0  0  0
M  END
>  <MODEL>
9

>  <REMARK>
 VINA RESULT:      -6.4      2.097      4.436
  Name = 
  8 active torsions:
  status: ('A' for Active; 'I' for Inactive)
    1  A    between atoms: C_5  and  CA_20
    2  A    between atoms: C_6  and  N_21
    3  A    between atoms: C_8  and  C_23
    4  A    between atoms: C_8  and  C_27
    5  A    between atoms: C_13  and  C_17
    6  A    between atoms: C_13  and  C_27
    7  A    between atoms: C_14  and  C_31
    8  A    between atoms: C_17  and  N_21
                            x       y       z     vdW  Elec       q    Type
                         _______ _______ _______ _____ _____    ______ ____

>  <TORSDO>
F 8

$$$$
