=
 OpenBabel11042415023D

 33 37  0  0  1  0  0  0  0  0999 V2000
  188.2030  177.6280  145.8810 C   0  0  2  0  0  3  0  0  0  0  0  0
  188.6430  177.5750  141.9720 C   0  0  0  0  0  3  0  0  0  0  0  0
  185.0040  177.9160  141.4970 N   0  0  0  0  0  0  0  0  0  0  0  0
  186.6780  178.1580  143.1640 C   0  0  0  0  0  0  0  0  0  0  0  0
  184.0520  178.2840  142.4000 C   0  0  0  0  0  3  0  0  0  0  0  0
  186.7040  177.6700  146.1660 C   0  0  0  0  0  2  0  0  0  0  0  0
  187.4380  177.4880  141.0270 C   0  0  0  0  0  3  0  0  0  0  0  0
  188.5110  177.0470  144.4760 C   0  0  1  0  0  3  0  0  0  0  0  0
  186.3010  177.8560  141.8870 C   0  0  0  0  0  0  0  0  0  0  0  0
  188.1480  178.0500  143.3590 C   0  0  1  0  0  3  0  0  0  0  0  0
  185.7040  178.5390  144.0870 C   0  0  0  0  0  0  0  0  0  0  0  0
  186.0570  178.8690  145.4960 C   0  0  0  0  0  2  0  0  0  0  0  0
  184.4040  178.5910  143.6830 N   0  0  0  0  0  0  0  0  0  0  0  0
  190.9040  177.7970  144.1140 C   0  0  0  0  0  2  0  0  0  0  0  0
  192.0340  174.1450  143.5850 C   0  0  2  0  0  0  0  0  0  0  0  0
  192.8100  175.8600  145.2610 O   0  0  0  0  0  0  0  0  0  0  0  0
  192.9100  173.4900  144.6520 C   0  0  0  0  0  2  0  0  0  0  0  0
  189.9800  176.5990  144.3330 C   0  0  2  0  0  3  0  0  0  0  0  0
  194.3620  175.1030  143.5760 O   0  0  0  0  0  1  0  0  0  0  0  0
  193.1490  174.9360  144.2530 C   0  0  1  0  0  0  0  0  0  0  0  0
  190.5970  174.4890  143.9960 C   0  0  1  0  0  3  0  0  0  0  0  0
  190.1410  175.6320  143.3290 O   0  0  0  0  0  0  0  0  0  0  0  0
  192.1480  177.3800  143.6280 O   0  0  0  0  0  0  0  0  0  0  0  0
  192.9670  177.1660  144.7480 C   0  0  0  0  0  2  0  0  0  0  0  0
  188.6270  173.3220  142.3060 S   0  0  0  0  0  1  0  0  0  0  0  0
  189.6540  173.3460  143.7700 C   0  0  0  0  0  0  0  0  0  0  0  0
  189.5960  172.4200  144.5640 O   0  0  0  0  0  0  0  0  0  0  0  0
  192.3130  173.8250  142.2450 O   0  0  0  0  0  0  0  0  0  0  0  0
  192.0540  174.9160  141.5500 O   0  0  0  0  0  1  0  0  0  0  0  0
  188.8190  176.8740  146.8850 O   0  0  0  0  0  0  0  0  0  0  0  0
  188.1170  175.6660  146.9120 C   0  0  0  0  0  2  0  0  0  0  0  0
  190.4230  175.0750  147.6380 C   0  0  0  0  0  1  0  0  0  0  0  0
  189.0330  174.5410  147.3560 C   0  0  0  0  0  2  0  0  0  0  0  0
  1  6  1  0  0  0  0
  1 30  1  1  0  0  0
  3  9  2  0  0  0  0
  3  5  1  0  0  0  0
  4 10  1  0  0  0  0
  4 11  2  0  0  0  0
  5 13  2  0  0  0  0
  7  9  1  0  0  0  0
  7  2  2  0  0  0  0
  8 18  1  1  0  0  0
  8  1  1  0  0  0  0
  9  4  1  0  0  0  0
 10  2  1  6  0  0  0
 10  8  1  0  0  0  0
 11 12  1  0  0  0  0
 12  6  1  0  0  0  0
 13 11  1  0  0  0  0
 15 28  1  6  0  0  0
 15 21  1  0  0  0  0
 15 20  1  0  0  0  0
 15 17  1  0  0  0  0
 18 14  1  6  0  0  0
 20 19  1  6  0  0  0
 20 17  1  0  0  0  0
 20 16  1  0  0  0  0
 21 26  1  6  0  0  0
 22 21  1  0  0  0  0
 22 18  1  0  0  0  0
 23 14  1  0  0  0  0
 23 24  1  0  0  0  0
 24 16  1  0  0  0  0
 25 26  1  0  0  0  0
 26 27  2  0  0  0  0
 29 28  1  0  0  0  0
 30 31  1  0  0  0  0
 31 33  1  0  0  0  0
 33 32  1  0  0  0  0
M  END
>  <MODEL>
1

>  <REMARK>
 VINA RESULT:      -7.7      0.000      0.000
  Name = 
  6 active torsions:
  status: ('A' for Active; 'I' for Inactive)
    1  A    between atoms: C_2  and  O_6
    2  A    between atoms: C_3  and  O_12
    3  A    between atoms: O_12  and  C_27
    4  A    between atoms: C_13  and  C_19
    5  A    between atoms: C_18  and  C_28
    6  A    between atoms: C_27  and  C_29
                            x       y       z     vdW  Elec       q    Type
                         _______ _______ _______ _____ _____    ______ ____

>  <TORSDO>
F 6

$$$$
=
 OpenBabel11042415023D

 33 37  0  0  1  0  0  0  0  0999 V2000
  188.7650  175.9290  145.6830 C   0  0  2  0  0  3  0  0  0  0  0  0
  188.3780  177.3500  142.0350 C   0  0  0  0  0  3  0  0  0  0  0  0
  185.1840  178.9540  142.9340 N   0  0  0  0  0  0  0  0  0  0  0  0
  187.0980  177.9650  143.9340 C   0  0  0  0  0  0  0  0  0  0  0  0
  184.6610  179.1930  144.1700 C   0  0  0  0  0  3  0  0  0  0  0  0
  187.5020  176.3090  146.4520 C   0  0  0  0  0  2  0  0  0  0  0  0
  187.0860  178.0330  141.5700 C   0  0  0  0  0  3  0  0  0  0  0  0
  188.5290  175.9110  144.1500 C   0  0  1  0  0  3  0  0  0  0  0  0
  186.3900  178.3450  142.8290 C   0  0  0  0  0  0  0  0  0  0  0  0
  188.4010  177.3410  143.5820 C   0  0  1  0  0  3  0  0  0  0  0  0
  186.5650  178.2140  145.1990 C   0  0  0  0  0  0  0  0  0  0  0  0
  187.2880  177.8120  146.4370 C   0  0  0  0  0  2  0  0  0  0  0  0
  185.3500  178.8230  145.2890 N   0  0  0  0  0  0  0  0  0  0  0  0
  189.1400  173.7410  142.9950 C   0  0  0  0  0  2  0  0  0  0  0  0
  192.8440  174.8110  142.8080 C   0  0  2  0  0  0  0  0  0  0  0  0
  191.2410  174.1710  140.9700 O   0  0  0  0  0  0  0  0  0  0  0  0
  193.4390  175.1450  141.4410 C   0  0  0  0  0  2  0  0  0  0  0  0
  189.6260  175.1340  143.3940 C   0  0  2  0  0  3  0  0  0  0  0  0
  193.1380  172.7420  141.4050 O   0  0  0  0  0  1  0  0  0  0  0  0
  192.4910  173.9690  141.5910 C   0  0  1  0  0  0  0  0  0  0  0  0
  191.7590  175.7610  143.3330 C   0  0  1  0  0  3  0  0  0  0  0  0
  190.8250  175.0750  144.1190 O   0  0  0  0  0  0  0  0  0  0  0  0
  190.2200  172.9210  142.6470 O   0  0  0  0  0  0  0  0  0  0  0  0
  190.4090  173.0690  141.2640 C   0  0  0  0  0  2  0  0  0  0  0  0
  193.8090  176.6710  145.0830 S   0  0  0  0  0  1  0  0  0  0  0  0
  192.3360  176.9120  144.0990 C   0  0  0  0  0  0  0  0  0  0  0  0
  191.8230  178.0190  144.0400 O   0  0  0  0  0  0  0  0  0  0  0  0
  193.6750  174.1400  143.7200 O   0  0  0  0  0  0  0  0  0  0  0  0
  192.8960  173.2990  144.3720 O   0  0  0  0  0  1  0  0  0  0  0  0
  189.1980  174.6810  146.1430 O   0  0  0  0  0  0  0  0  0  0  0  0
  189.6110  174.9040  147.4600 C   0  0  0  0  0  2  0  0  0  0  0  0
  191.2820  176.6610  148.0190 C   0  0  0  0  0  1  0  0  0  0  0  0
  191.0870  175.2530  147.4920 C   0  0  0  0  0  2  0  0  0  0  0  0
  1 30  1  1  0  0  0
  1  6  1  0  0  0  0
  3  5  1  0  0  0  0
  4 11  2  0  0  0  0
  5 13  2  0  0  0  0
  7  2  2  0  0  0  0
  7  9  1  0  0  0  0
  8 18  1  6  0  0  0
  8  1  1  0  0  0  0
  9  3  2  0  0  0  0
  9  4  1  0  0  0  0
 10  2  1  6  0  0  0
 10  4  1  0  0  0  0
 10  8  1  0  0  0  0
 11 13  1  0  0  0  0
 11 12  1  0  0  0  0
 12  6  1  0  0  0  0
 15 21  1  0  0  0  0
 15 28  1  1  0  0  0
 16 24  1  0  0  0  0
 16 20  1  0  0  0  0
 17 20  1  0  0  0  0
 17 15  1  0  0  0  0
 18 14  1  1  0  0  0
 18 22  1  0  0  0  0
 20 19  1  6  0  0  0
 20 15  1  0  0  0  0
 21 26  1  1  0  0  0
 21 22  1  0  0  0  0
 23 14  1  0  0  0  0
 24 23  1  0  0  0  0
 26 25  1  0  0  0  0
 27 26  2  0  0  0  0
 28 29  1  0  0  0  0
 30 31  1  0  0  0  0
 31 33  1  0  0  0  0
 33 32  1  0  0  0  0
M  END
>  <MODEL>
2

>  <REMARK>
 VINA RESULT:      -7.2      1.858      3.063
  Name = 
  6 active torsions:
  status: ('A' for Active; 'I' for Inactive)
    1  A    between atoms: C_2  and  O_6
    2  A    between atoms: C_3  and  O_12
    3  A    between atoms: O_12  and  C_27
    4  A    between atoms: C_13  and  C_19
    5  A    between atoms: C_18  and  C_28
    6  A    between atoms: C_27  and  C_29
                            x       y       z     vdW  Elec       q    Type
                         _______ _______ _______ _____ _____    ______ ____

>  <TORSDO>
F 6

$$$$
=
 OpenBabel11042415023D

 33 37  0  0  1  0  0  0  0  0999 V2000
  188.8040  176.4020  146.1880 C   0  0  2  0  0  3  0  0  0  0  0  0
  188.3150  177.9160  142.5900 C   0  0  0  0  0  3  0  0  0  0  0  0
  184.7730  178.6400  143.3100 N   0  0  0  0  0  0  0  0  0  0  0  0
  186.8030  178.0810  144.4090 C   0  0  0  0  0  0  0  0  0  0  0  0
  184.1300  178.6660  144.5110 C   0  0  0  0  0  3  0  0  0  0  0  0
  187.4390  176.4160  146.8730 C   0  0  0  0  0  2  0  0  0  0  0  0
  186.9270  178.2940  142.0570 C   0  0  0  0  0  3  0  0  0  0  0  0
  188.6780  176.4250  144.6430 C   0  0  1  0  0  3  0  0  0  0  0  0
  186.0970  178.3480  143.2710 C   0  0  0  0  0  0  0  0  0  0  0  0
  188.2400  177.8150  144.1320 C   0  0  1  0  0  3  0  0  0  0  0  0
  186.1450  178.1130  145.6400 C   0  0  0  0  0  0  0  0  0  0  0  0
  186.8640  177.8200  146.9110 C   0  0  0  0  0  2  0  0  0  0  0  0
  184.8150  178.4040  145.6630 N   0  0  0  0  0  0  0  0  0  0  0  0
  190.9080  177.1760  143.7030 C   0  0  0  0  0  2  0  0  0  0  0  0
  191.4450  173.7290  142.0520 C   0  0  2  0  0  0  0  0  0  0  0  0
  192.8670  174.9720  143.7220 O   0  0  0  0  0  0  0  0  0  0  0  0
  192.5350  172.8150  142.6100 C   0  0  0  0  0  2  0  0  0  0  0  0
  189.9790  175.9860  143.9400 C   0  0  2  0  0  3  0  0  0  0  0  0
  193.7420  174.6000  141.5040 O   0  0  0  0  0  1  0  0  0  0  0  0
  192.7850  174.3070  142.4820 C   0  0  1  0  0  0  0  0  0  0  0  0
  190.2450  174.0030  142.9690 C   0  0  1  0  0  3  0  0  0  0  0  0
  189.7250  175.2840  142.7520 O   0  0  0  0  0  0  0  0  0  0  0  0
  191.8940  176.8560  142.7630 O   0  0  0  0  0  0  0  0  0  0  0  0
  192.9910  176.3580  143.4840 C   0  0  0  0  0  2  0  0  0  0  0  0
  187.8160  173.2680  141.6820 S   0  0  0  0  0  1  0  0  0  0  0  0
  189.1680  172.9730  142.8150 C   0  0  0  0  0  0  0  0  0  0  0  0
  189.2160  171.9230  143.4380 O   0  0  0  0  0  0  0  0  0  0  0  0
  191.2650  173.7330  140.6590 O   0  0  0  0  0  0  0  0  0  0  0  0
  191.0850  172.4730  140.3120 O   0  0  0  0  0  1  0  0  0  0  0  0
  189.5000  175.2700  146.6220 O   0  0  0  0  0  0  0  0  0  0  0  0
  190.4420  175.7520  147.5360 C   0  0  0  0  0  2  0  0  0  0  0  0
  192.7810  176.4220  147.0170 C   0  0  0  0  0  1  0  0  0  0  0  0
  191.8270  175.2550  147.1690 C   0  0  0  0  0  2  0  0  0  0  0  0
  1 30  1  6  0  0  0
  1  6  1  0  0  0  0
  3  5  1  0  0  0  0
  4 11  2  0  0  0  0
  5 13  2  0  0  0  0
  6 12  1  0  0  0  0
  7  2  2  0  0  0  0
  7  9  1  0  0  0  0
  8 18  1  6  0  0  0
  8  1  1  0  0  0  0
  9  3  2  0  0  0  0
  9  4  1  0  0  0  0
 10  2  1  6  0  0  0
 10  4  1  0  0  0  0
 10  8  1  0  0  0  0
 11 13  1  0  0  0  0
 11 12  1  0  0  0  0
 15 28  1  6  0  0  0
 15 20  1  0  0  0  0
 15 17  1  0  0  0  0
 15 21  1  0  0  0  0
 18 14  1  6  0  0  0
 20 19  1  6  0  0  0
 20 17  1  0  0  0  0
 20 16  1  0  0  0  0
 21 26  1  6  0  0  0
 22 21  1  0  0  0  0
 22 18  1  0  0  0  0
 23 24  1  0  0  0  0
 23 14  1  0  0  0  0
 24 16  1  0  0  0  0
 25 26  1  0  0  0  0
 26 27  2  0  0  0  0
 29 28  1  0  0  0  0
 30 31  1  0  0  0  0
 32 33  1  0  0  0  0
 33 31  1  0  0  0  0
M  END
>  <MODEL>
3

>  <REMARK>
 VINA RESULT:      -7.1      1.346      1.724
  Name = 
  6 active torsions:
  status: ('A' for Active; 'I' for Inactive)
    1  A    between atoms: C_2  and  O_6
    2  A    between atoms: C_3  and  O_12
    3  A    between atoms: O_12  and  C_27
    4  A    between atoms: C_13  and  C_19
    5  A    between atoms: C_18  and  C_28
    6  A    between atoms: C_27  and  C_29
                            x       y       z     vdW  Elec       q    Type
                         _______ _______ _______ _____ _____    ______ ____

>  <TORSDO>
F 6

$$$$
=
 OpenBabel11042415023D

 33 37  0  0  1  0  0  0  0  0999 V2000
  188.0340  176.1150  142.8720 C   0  0  2  0  0  3  0  0  0  0  0  0
  188.8810  176.8230  146.6490 C   0  0  0  0  0  3  0  0  0  0  0  0
  185.7730  178.7650  147.0440 N   0  0  0  0  0  0  0  0  0  0  0  0
  186.8080  177.2180  145.5680 C   0  0  0  0  0  0  0  0  0  0  0  0
  184.6820  178.8130  146.2290 C   0  0  0  0  0  3  0  0  0  0  0  0
  186.7530  176.8790  142.5470 C   0  0  0  0  0  2  0  0  0  0  0  0
  188.0570  177.8070  147.4880 C   0  0  0  0  0  3  0  0  0  0  0  0
  188.7790  176.7230  144.0900 C   0  0  1  0  0  3  0  0  0  0  0  0
  186.8200  177.9720  146.7060 C   0  0  0  0  0  0  0  0  0  0  0  0
  188.0460  176.4100  145.4130 C   0  0  1  0  0  3  0  0  0  0  0  0
  185.6880  177.2640  144.7360 C   0  0  0  0  0  0  0  0  0  0  0  0
  185.6250  176.4720  143.4770 C   0  0  0  0  0  2  0  0  0  0  0  0
  184.6450  178.0680  145.0860 N   0  0  0  0  0  0  0  0  0  0  0  0
  191.2000  177.3600  143.7040 C   0  0  0  0  0  2  0  0  0  0  0  0
  192.3150  173.7060  144.2550 C   0  0  2  0  0  0  0  0  0  0  0  0
  192.9980  175.8140  145.4570 O   0  0  0  0  0  0  0  0  0  0  0  0
  193.1080  173.3680  145.5160 C   0  0  0  0  0  2  0  0  0  0  0  0
  190.2480  176.2600  144.1730 C   0  0  2  0  0  3  0  0  0  0  0  0
  194.6500  174.6390  144.1480 O   0  0  0  0  0  1  0  0  0  0  0  0
  193.3920  174.6540  144.7600 C   0  0  1  0  0  0  0  0  0  0  0  0
  190.8570  174.1410  144.4590 C   0  0  1  0  0  3  0  0  0  0  0  0
  190.4630  175.0600  143.4800 O   0  0  0  0  0  0  0  0  0  0  0  0
  192.4680  176.8340  143.4330 O   0  0  0  0  0  0  0  0  0  0  0  0
  193.2070  176.9340  144.6230 C   0  0  0  0  0  2  0  0  0  0  0  0
  189.3230  172.2820  142.9470 S   0  0  0  0  0  1  0  0  0  0  0  0
  189.9170  172.9750  144.4850 C   0  0  0  0  0  0  0  0  0  0  0  0
  189.5690  172.4790  145.5450 O   0  0  0  0  0  0  0  0  0  0  0  0
  192.6780  173.0390  143.0730 O   0  0  0  0  0  0  0  0  0  0  0  0
  192.5350  173.9190  142.1000 O   0  0  0  0  0  1  0  0  0  0  0  0
  188.8450  176.1140  141.7330 O   0  0  0  0  0  0  0  0  0  0  0  0
  188.0230  175.6450  140.7040 C   0  0  0  0  0  2  0  0  0  0  0  0
  188.2440  174.2670  138.6440 C   0  0  0  0  0  1  0  0  0  0  0  0
  188.6030  174.3740  140.1120 C   0  0  0  0  0  2  0  0  0  0  0  0
  1 30  1  6  0  0  0
  1  8  1  0  0  0  0
  2  7  2  0  0  0  0
  4  9  2  0  0  0  0
  5  3  2  0  0  0  0
  6  1  1  0  0  0  0
  6 12  1  0  0  0  0
  8 18  1  1  0  0  0
  8 10  1  0  0  0  0
  9  3  1  0  0  0  0
  9  7  1  0  0  0  0
 10  4  1  0  0  0  0
 10  2  1  1  0  0  0
 11 13  2  0  0  0  0
 11  4  1  0  0  0  0
 12 11  1  0  0  0  0
 13  5  1  0  0  0  0
 15 28  1  6  0  0  0
 15 21  1  0  0  0  0
 15 20  1  0  0  0  0
 15 17  1  0  0  0  0
 18 14  1  6  0  0  0
 20 19  1  6  0  0  0
 20 16  1  0  0  0  0
 20 17  1  0  0  0  0
 21 26  1  6  0  0  0
 22 18  1  0  0  0  0
 22 21  1  0  0  0  0
 23 14  1  0  0  0  0
 23 24  1  0  0  0  0
 24 16  1  0  0  0  0
 25 26  1  0  0  0  0
 26 27  2  0  0  0  0
 29 28  1  0  0  0  0
 31 30  1  0  0  0  0
 32 33  1  0  0  0  0
 33 31  1  0  0  0  0
M  END
>  <MODEL>
4

>  <REMARK>
 VINA RESULT:      -7.0      1.589      3.503
  Name = 
  6 active torsions:
  status: ('A' for Active; 'I' for Inactive)
    1  A    between atoms: C_2  and  O_6
    2  A    between atoms: C_3  and  O_12
    3  A    between atoms: O_12  and  C_27
    4  A    between atoms: C_13  and  C_19
    5  A    between atoms: C_18  and  C_28
    6  A    between atoms: C_27  and  C_29
                            x       y       z     vdW  Elec       q    Type
                         _______ _______ _______ _____ _____    ______ ____

>  <TORSDO>
F 6

$$$$
=
 OpenBabel11042415023D

 33 37  0  0  1  0  0  0  0  0999 V2000
  191.4370  173.8720  144.9380 C   0  0  2  0  0  3  0  0  0  0  0  0
  191.3480  177.5680  143.5930 C   0  0  0  0  0  3  0  0  0  0  0  0
  187.8200  177.9150  144.6010 N   0  0  0  0  0  0  0  0  0  0  0  0
  189.7100  176.5190  144.9480 C   0  0  0  0  0  0  0  0  0  0  0  0
  187.0850  177.1280  145.4360 C   0  0  0  0  0  3  0  0  0  0  0  0
  190.0250  173.5300  145.4090 C   0  0  0  0  0  2  0  0  0  0  0  0
  190.0390  178.3610  143.5020 C   0  0  0  0  0  3  0  0  0  0  0  0
  191.4390  175.0260  143.9010 C   0  0  1  0  0  3  0  0  0  0  0  0
  189.1190  177.6030  144.3660 C   0  0  0  0  0  0  0  0  0  0  0  0
  191.1420  176.3860  144.5700 C   0  0  1  0  0  3  0  0  0  0  0  0
  188.9590  175.7160  145.8070 C   0  0  0  0  0  0  0  0  0  0  0  0
  189.5490  174.5150  146.4610 C   0  0  0  0  0  2  0  0  0  0  0  0
  187.6540  176.0390  146.0310 N   0  0  0  0  0  0  0  0  0  0  0  0
  192.6210  174.4190  141.7440 C   0  0  0  0  0  2  0  0  0  0  0  0
  196.0220  175.4630  143.2410 C   0  0  2  0  0  0  0  0  0  0  0  0
  194.8290  176.2900  141.1800 O   0  0  0  0  0  0  0  0  0  0  0  0
  196.7040  176.7170  142.6980 C   0  0  0  0  0  2  0  0  0  0  0  0
  192.7580  175.1000  143.1050 C   0  0  2  0  0  3  0  0  0  0  0  0
  196.9070  175.0910  140.9140 O   0  0  0  0  0  1  0  0  0  0  0  0
  196.0050  175.7590  141.7490 C   0  0  1  0  0  0  0  0  0  0  0  0
  194.7080  175.6750  144.0060 C   0  0  1  0  0  3  0  0  0  0  0  0
  193.8420  174.5890  143.8330 O   0  0  0  0  0  0  0  0  0  0  0  0
  193.8800  174.1650  141.1890 O   0  0  0  0  0  0  0  0  0  0  0  0
  194.2090  175.2850  140.4080 C   0  0  0  0  0  2  0  0  0  0  0  0
  194.5670  177.5390  146.1510 S   0  0  0  0  0  1  0  0  0  0  0  0
  194.9370  175.9290  145.4650 C   0  0  0  0  0  0  0  0  0  0  0  0
  195.3510  175.0420  146.1940 O   0  0  0  0  0  0  0  0  0  0  0  0
  196.8500  174.3790  143.5780 O   0  0  0  0  0  0  0  0  0  0  0  0
  196.1410  173.2920  143.3440 O   0  0  0  0  0  1  0  0  0  0  0  0
  192.0140  172.7140  144.4070 O   0  0  0  0  0  0  0  0  0  0  0  0
  190.9470  171.8300  144.2220 C   0  0  0  0  0  2  0  0  0  0  0  0
  189.9040  171.8880  141.9630 C   0  0  0  0  0  1  0  0  0  0  0  0
  190.9830  171.2550  142.8180 C   0  0  0  0  0  2  0  0  0  0  0  0
  1 30  1  6  0  0  0
  1  6  1  0  0  0  0
  3  5  1  0  0  0  0
  4 11  2  0  0  0  0
  5 13  2  0  0  0  0
  6 12  1  0  0  0  0
  7  2  2  0  0  0  0
  7  9  1  0  0  0  0
  8 18  1  1  0  0  0
  8 10  1  0  0  0  0
  8  1  1  0  0  0  0
  9  3  2  0  0  0  0
  9  4  1  0  0  0  0
 10  2  1  6  0  0  0
 10  4  1  0  0  0  0
 11 13  1  0  0  0  0
 11 12  1  0  0  0  0
 15 28  1  1  0  0  0
 15 21  1  0  0  0  0
 16 20  1  0  0  0  0
 17 15  1  0  0  0  0
 18 14  1  6  0  0  0
 18 22  1  0  0  0  0
 20 19  1  6  0  0  0
 20 17  1  0  0  0  0
 20 15  1  0  0  0  0
 21 26  1  1  0  0  0
 22 21  1  0  0  0  0
 23 14  1  0  0  0  0
 24 16  1  0  0  0  0
 24 23  1  0  0  0  0
 26 25  1  0  0  0  0
 26 27  2  0  0  0  0
 29 28  1  0  0  0  0
 31 30  1  0  0  0  0
 32 33  1  0  0  0  0
 33 31  1  0  0  0  0
M  END
>  <MODEL>
5

>  <REMARK>
 VINA RESULT:      -6.7      2.850      4.878
  Name = 
  6 active torsions:
  status: ('A' for Active; 'I' for Inactive)
    1  A    between atoms: C_2  and  O_6
    2  A    between atoms: C_3  and  O_12
    3  A    between atoms: O_12  and  C_27
    4  A    between atoms: C_13  and  C_19
    5  A    between atoms: C_18  and  C_28
    6  A    between atoms: C_27  and  C_29
                            x       y       z     vdW  Elec       q    Type
                         _______ _______ _______ _____ _____    ______ ____

>  <TORSDO>
F 6

$$$$
=
 OpenBabel11042415023D

 33 37  0  0  1  0  0  0  0  0999 V2000
  187.2710  177.4590  142.5260 C   0  0  2  0  0  3  0  0  0  0  0  0
  188.4150  176.3250  146.1150 C   0  0  0  0  0  3  0  0  0  0  0  0
  185.5760  178.1070  147.6490 N   0  0  0  0  0  0  0  0  0  0  0  0
  186.3400  177.3190  145.5420 C   0  0  0  0  0  0  0  0  0  0  0  0
  184.4510  178.5990  147.0570 C   0  0  0  0  0  3  0  0  0  0  0  0
  186.0680  178.3810  142.7060 C   0  0  0  0  0  2  0  0  0  0  0  0
  187.7590  176.8850  147.3840 C   0  0  0  0  0  3  0  0  0  0  0  0
  188.1510  177.3960  143.8020 C   0  0  1  0  0  3  0  0  0  0  0  0
  186.5050  177.4760  146.8890 C   0  0  0  0  0  0  0  0  0  0  0  0
  187.4670  176.5770  144.9180 C   0  0  1  0  0  3  0  0  0  0  0  0
  185.1850  177.8180  144.9380 C   0  0  0  0  0  0  0  0  0  0  0  0
  184.9580  177.6840  143.4720 C   0  0  0  0  0  2  0  0  0  0  0  0
  184.2630  178.4530  145.7130 N   0  0  0  0  0  0  0  0  0  0  0  0
  190.5840  177.9640  143.3840 C   0  0  0  0  0  2  0  0  0  0  0  0
  191.3270  174.3150  142.3710 C   0  0  2  0  0  0  0  0  0  0  0  0
  192.3470  175.7400  144.1830 O   0  0  0  0  0  0  0  0  0  0  0  0
  192.1880  173.4610  143.3000 C   0  0  0  0  0  2  0  0  0  0  0  0
  189.5600  176.8380  143.5190 C   0  0  2  0  0  3  0  0  0  0  0  0
  193.7340  175.0530  142.3310 O   0  0  0  0  0  1  0  0  0  0  0  0
  192.5450  174.9160  143.0570 C   0  0  1  0  0  0  0  0  0  0  0  0
  189.9520  174.7360  142.9060 C   0  0  1  0  0  3  0  0  0  0  0  0
  189.5760  175.9870  142.4040 O   0  0  0  0  0  0  0  0  0  0  0  0
  191.7560  177.4980  142.7780 O   0  0  0  0  0  0  0  0  0  0  0  0
  192.6050  177.0780  143.8140 C   0  0  0  0  0  2  0  0  0  0  0  0
  189.0400  172.0670  143.2760 S   0  0  0  0  0  1  0  0  0  0  0  0
  188.8930  173.7190  142.6080 C   0  0  0  0  0  0  0  0  0  0  0  0
  187.9190  174.0130  141.9320 O   0  0  0  0  0  0  0  0  0  0  0  0
  191.5060  174.1350  140.9890 O   0  0  0  0  0  0  0  0  0  0  0  0
  191.4200  172.8360  140.7780 O   0  0  0  0  0  1  0  0  0  0  0  0
  188.0080  177.9110  141.4260 O   0  0  0  0  0  0  0  0  0  0  0  0
  187.1050  177.9040  140.3590 C   0  0  0  0  0  2  0  0  0  0  0  0
  186.6890  176.6310  138.2620 C   0  0  0  0  0  1  0  0  0  0  0  0
  187.0510  176.5250  139.7300 C   0  0  0  0  0  2  0  0  0  0  0  0
  1 30  1  6  0  0  0
  1  6  1  0  0  0  0
  1  8  1  0  0  0  0
  2  7  2  0  0  0  0
  4  9  1  0  0  0  0
  5  3  1  0  0  0  0
  6 12  1  0  0  0  0
  8 18  1  6  0  0  0
  8 10  1  0  0  0  0
  9  7  1  0  0  0  0
  9  3  2  0  0  0  0
 10  4  1  0  0  0  0
 10  2  1  1  0  0  0
 11  4  2  0  0  0  0
 11 13  1  0  0  0  0
 12 11  1  0  0  0  0
 13  5  2  0  0  0  0
 15 28  1  6  0  0  0
 15 21  1  0  0  0  0
 15 20  1  0  0  0  0
 15 17  1  0  0  0  0
 18 14  1  6  0  0  0
 20 19  1  6  0  0  0
 20 17  1  0  0  0  0
 20 16  1  0  0  0  0
 21 26  1  6  0  0  0
 22 21  1  0  0  0  0
 22 18  1  0  0  0  0
 23 14  1  0  0  0  0
 23 24  1  0  0  0  0
 24 16  1  0  0  0  0
 26 25  1  0  0  0  0
 27 26  2  0  0  0  0
 29 28  1  0  0  0  0
 31 30  1  0  0  0  0
 32 33  1  0  0  0  0
 33 31  1  0  0  0  0
M  END
>  <MODEL>
6

>  <REMARK>
 VINA RESULT:      -6.7      1.804      3.838
  Name = 
  6 active torsions:
  status: ('A' for Active; 'I' for Inactive)
    1  A    between atoms: C_2  and  O_6
    2  A    between atoms: C_3  and  O_12
    3  A    between atoms: O_12  and  C_27
    4  A    between atoms: C_13  and  C_19
    5  A    between atoms: C_18  and  C_28
    6  A    between atoms: C_27  and  C_29
                            x       y       z     vdW  Elec       q    Type
                         _______ _______ _______ _____ _____    ______ ____

>  <TORSDO>
F 6

$$$$
=
 OpenBabel11042415023D

 33 37  0  0  1  0  0  0  0  0999 V2000
  191.9240  176.5910  144.7690 C   0  0  2  0  0  3  0  0  0  0  0  0
  191.1730  174.1620  141.7680 C   0  0  0  0  0  3  0  0  0  0  0  0
  187.8370  175.6590  141.3110 N   0  0  0  0  0  0  0  0  0  0  0  0
  189.9130  176.0720  142.3880 C   0  0  0  0  0  0  0  0  0  0  0  0
  187.3460  176.8300  141.8080 C   0  0  0  0  0  3  0  0  0  0  0  0
  190.6590  177.4100  145.0150 C   0  0  0  0  0  2  0  0  0  0  0  0
  189.7790  174.0710  141.1340 C   0  0  0  0  0  3  0  0  0  0  0  0
  191.6200  175.2560  144.0420 C   0  0  1  0  0  3  0  0  0  0  0  0
  189.1090  175.2940  141.6050 C   0  0  0  0  0  0  0  0  0  0  0  0
  191.2710  175.4900  142.5550 C   0  0  1  0  0  3  0  0  0  0  0  0
  189.4120  177.2730  142.8920 C   0  0  0  0  0  0  0  0  0  0  0  0
  190.2420  178.1550  143.7590 C   0  0  0  0  0  2  0  0  0  0  0  0
  188.1320  177.6250  142.5920 N   0  0  0  0  0  0  0  0  0  0  0  0
  192.3670  173.0390  145.0130 C   0  0  0  0  0  2  0  0  0  0  0  0
  196.0220  173.7570  144.0050 C   0  0  2  0  0  0  0  0  0  0  0  0
  194.5130  171.8350  143.3870 O   0  0  0  0  0  0  0  0  0  0  0  0
  196.6470  172.9260  142.8850 C   0  0  0  0  0  2  0  0  0  0  0  0
  192.7750  174.2420  144.1640 C   0  0  2  0  0  3  0  0  0  0  0  0
  196.4560  171.3910  144.7480 O   0  0  0  0  0  1  0  0  0  0  0  0
  195.7480  172.2630  143.9130 C   0  0  1  0  0  0  0  0  0  0  0  0
  194.8790  174.6980  143.6030 C   0  0  1  0  0  3  0  0  0  0  0  0
  193.9520  174.8370  144.6430 O   0  0  0  0  0  0  0  0  0  0  0  0
  193.4930  172.3170  145.4230 O   0  0  0  0  0  0  0  0  0  0  0  0
  193.7210  171.3360  144.4450 C   0  0  0  0  0  2  0  0  0  0  0  0
  195.5120  176.4160  141.4260 S   0  0  0  0  0  1  0  0  0  0  0  0
  195.3770  176.0420  143.1690 C   0  0  0  0  0  0  0  0  0  0  0  0
  195.6710  176.8940  143.9940 O   0  0  0  0  0  0  0  0  0  0  0  0
  196.8530  174.0990  145.0850 O   0  0  0  0  0  0  0  0  0  0  0  0
  196.0620  174.1880  146.1370 O   0  0  0  0  0  1  0  0  0  0  0  0
  192.5450  176.3650  146.0020 O   0  0  0  0  0  0  0  0  0  0  0  0
  191.5500  176.5940  146.9560 C   0  0  0  0  0  2  0  0  0  0  0  0
  189.7610  174.9160  147.3740 C   0  0  0  0  0  1  0  0  0  0  0  0
  191.1980  175.2990  147.6640 C   0  0  0  0  0  2  0  0  0  0  0  0
  1  6  1  0  0  0  0
  1 30  1  1  0  0  0
  3  9  2  0  0  0  0
  3  5  1  0  0  0  0
  4 10  1  0  0  0  0
  4 11  2  0  0  0  0
  5 13  2  0  0  0  0
  7  9  1  0  0  0  0
  7  2  2  0  0  0  0
  8 18  1  6  0  0  0
  8  1  1  0  0  0  0
  9  4  1  0  0  0  0
 10  2  1  6  0  0  0
 10  8  1  0  0  0  0
 11 12  1  0  0  0  0
 12  6  1  0  0  0  0
 13 11  1  0  0  0  0
 14 23  1  0  0  0  0
 15 28  1  1  0  0  0
 16 20  1  0  0  0  0
 16 24  1  0  0  0  0
 17 20  1  0  0  0  0
 17 15  1  0  0  0  0
 18 22  1  0  0  0  0
 18 14  1  1  0  0  0
 20 15  1  0  0  0  0
 20 19  1  1  0  0  0
 21 26  1  1  0  0  0
 21 15  1  0  0  0  0
 21 22  1  0  0  0  0
 24 23  1  0  0  0  0
 25 26  1  0  0  0  0
 26 27  2  0  0  0  0
 28 29  1  0  0  0  0
 30 31  1  0  0  0  0
 31 33  1  0  0  0  0
 32 33  1  0  0  0  0
M  END
>  <MODEL>
7

>  <REMARK>
 VINA RESULT:      -6.5      2.818      4.584
  Name = 
  6 active torsions:
  status: ('A' for Active; 'I' for Inactive)
    1  A    between atoms: C_2  and  O_6
    2  A    between atoms: C_3  and  O_12
    3  A    between atoms: O_12  and  C_27
    4  A    between atoms: C_13  and  C_19
    5  A    between atoms: C_18  and  C_28
    6  A    between atoms: C_27  and  C_29
                            x       y       z     vdW  Elec       q    Type
                         _______ _______ _______ _____ _____    ______ ____

>  <TORSDO>
F 6

$$$$
=
 OpenBabel11042415023D

 33 37  0  0  1  0  0  0  0  0999 V2000
  195.3210  175.0780  144.6020 C   0  0  2  0  0  3  0  0  0  0  0  0
  193.0070  171.9000  144.7670 C   0  0  0  0  0  3  0  0  0  0  0  0
  195.9520  169.6860  144.8630 N   0  0  0  0  0  0  0  0  0  0  0  0
  195.3470  171.9650  145.1470 C   0  0  0  0  0  0  0  0  0  0  0  0
  197.2540  170.0000  145.1170 C   0  0  0  0  0  3  0  0  0  0  0  0
  196.7630  174.5820  144.5210 C   0  0  0  0  0  2  0  0  0  0  0  0
  193.5770  170.4820  144.6370 C   0  0  0  0  0  3  0  0  0  0  0  0
  194.3110  174.0080  144.1120 C   0  0  1  0  0  3  0  0  0  0  0  0
  195.0170  170.6680  144.8790 C   0  0  0  0  0  0  0  0  0  0  0  0
  194.1610  172.8630  145.1380 C   0  0  1  0  0  3  0  0  0  0  0  0
  196.6790  172.2860  145.4120 C   0  0  0  0  0  0  0  0  0  0  0  0
  197.0970  173.6860  145.6990 C   0  0  0  0  0  2  0  0  0  0  0  0
  197.6090  171.2910  145.3880 N   0  0  0  0  0  0  0  0  0  0  0  0
  192.6730  174.6040  142.2740 C   0  0  0  0  0  2  0  0  0  0  0  0
  190.4860  176.5690  144.7740 C   0  0  2  0  0  0  0  0  0  0  0  0
  189.9020  174.6220  143.2840 O   0  0  0  0  0  0  0  0  0  0  0  0
  189.1170  176.0040  145.1480 C   0  0  0  0  0  2  0  0  0  0  0  0
  192.9300  174.6090  143.7810 C   0  0  2  0  0  3  0  0  0  0  0  0
  188.8620  176.7580  142.8600 O   0  0  0  0  0  1  0  0  0  0  0  0
  189.6040  175.9320  143.7110 C   0  0  1  0  0  0  0  0  0  0  0  0
  191.7080  175.7650  145.2360 C   0  0  1  0  0  3  0  0  0  0  0  0
  192.7670  175.8900  144.3290 O   0  0  0  0  0  0  0  0  0  0  0  0
  191.6150  175.4610  141.9500 O   0  0  0  0  0  0  0  0  0  0  0  0
  190.4450  174.6850  141.9820 C   0  0  0  0  0  2  0  0  0  0  0  0
  191.1910  175.6510  148.0310 S   0  0  0  0  0  1  0  0  0  0  0  0
  192.1560  176.1530  146.6120 C   0  0  0  0  0  0  0  0  0  0  0  0
  193.1840  176.7910  146.7760 O   0  0  0  0  0  0  0  0  0  0  0  0
  190.5870  177.9650  144.6420 O   0  0  0  0  0  0  0  0  0  0  0  0
  191.5070  178.1770  143.7220 O   0  0  0  0  0  1  0  0  0  0  0  0
  195.2190  176.2520  143.8490 O   0  0  0  0  0  0  0  0  0  0  0  0
  196.3860  176.2920  143.0810 C   0  0  0  0  0  2  0  0  0  0  0  0
  195.9470  175.6200  140.7250 C   0  0  0  0  0  1  0  0  0  0  0  0
  196.0730  176.7890  141.6820 C   0  0  0  0  0  2  0  0  0  0  0  0
  1 30  1  6  0  0  0
  3  9  2  0  0  0  0
  3  5  1  0  0  0  0
  4 11  2  0  0  0  0
  5 13  2  0  0  0  0
  6  1  1  0  0  0  0
  6 12  1  0  0  0  0
  7  2  2  0  0  0  0
  7  9  1  0  0  0  0
  8 18  1  1  0  0  0
  8  1  1  0  0  0  0
  8 10  1  0  0  0  0
  9  4  1  0  0  0  0
 10  2  1  6  0  0  0
 10  4  1  0  0  0  0
 11 12  1  0  0  0  0
 13 11  1  0  0  0  0
 15 28  1  6  0  0  0
 15 17  1  0  0  0  0
 15 21  1  0  0  0  0
 16 20  1  0  0  0  0
 18 14  1  6  0  0  0
 18 22  1  0  0  0  0
 20 19  1  6  0  0  0
 20 15  1  0  0  0  0
 20 17  1  0  0  0  0
 21 26  1  1  0  0  0
 22 21  1  0  0  0  0
 23 24  1  0  0  0  0
 23 14  1  0  0  0  0
 24 16  1  0  0  0  0
 26 27  2  0  0  0  0
 26 25  1  0  0  0  0
 29 28  1  0  0  0  0
 31 30  1  0  0  0  0
 32 33  1  0  0  0  0
 33 31  1  0  0  0  0
M  END
>  <MODEL>
8

>  <REMARK>
 VINA RESULT:      -6.3      4.510      8.330
  Name = 
  6 active torsions:
  status: ('A' for Active; 'I' for Inactive)
    1  A    between atoms: C_2  and  O_6
    2  A    between atoms: C_3  and  O_12
    3  A    between atoms: O_12  and  C_27
    4  A    between atoms: C_13  and  C_19
    5  A    between atoms: C_18  and  C_28
    6  A    between atoms: C_27  and  C_29
                            x       y       z     vdW  Elec       q    Type
                         _______ _______ _______ _____ _____    ______ ____

>  <TORSDO>
F 6

$$$$
=
 OpenBabel11042415023D

 33 37  0  0  1  0  0  0  0  0999 V2000
  191.2790  174.7170  142.2100 C   0  0  2  0  0  3  0  0  0  0  0  0
  192.7200  177.1390  144.9540 C   0  0  0  0  0  3  0  0  0  0  0  0
  196.1670  176.1500  144.1020 N   0  0  0  0  0  0  0  0  0  0  0  0
  193.9520  176.0400  143.2520 C   0  0  0  0  0  0  0  0  0  0  0  0
  196.6230  175.4880  143.0020 C   0  0  0  0  0  3  0  0  0  0  0  0
  192.4610  173.9610  141.6090 C   0  0  0  0  0  2  0  0  0  0  0  0
  194.2060  177.1310  145.3350 C   0  0  0  0  0  3  0  0  0  0  0  0
  191.5950  175.2560  143.6290 C   0  0  1  0  0  3  0  0  0  0  0  0
  194.8430  176.4170  144.2160 C   0  0  0  0  0  0  0  0  0  0  0  0
  192.5620  176.4580  143.5730 C   0  0  1  0  0  3  0  0  0  0  0  0
  194.4200  175.3670  142.1230 C   0  0  0  0  0  0  0  0  0  0  0  0
  193.4920  174.9230  141.0460 C   0  0  0  0  0  2  0  0  0  0  0  0
  195.7520  175.1020  142.0240 N   0  0  0  0  0  0  0  0  0  0  0  0
  190.2120  174.8280  145.7080 C   0  0  0  0  0  2  0  0  0  0  0  0
  187.2970  176.9120  144.2740 C   0  0  2  0  0  0  0  0  0  0  0  0
  188.5970  177.1930  146.4150 O   0  0  0  0  0  0  0  0  0  0  0  0
  186.9740  178.2580  144.9220 C   0  0  0  0  0  2  0  0  0  0  0  0
  190.3220  175.6330  144.4130 C   0  0  2  0  0  3  0  0  0  0  0  0
  186.2590  176.6110  146.5470 O   0  0  0  0  0  1  0  0  0  0  0  0
  187.3420  177.0650  145.7870 C   0  0  1  0  0  0  0  0  0  0  0  0
  188.6450  176.8080  143.5470 C   0  0  1  0  0  3  0  0  0  0  0  0
  189.1640  175.5120  143.6300 O   0  0  0  0  0  0  0  0  0  0  0  0
  188.9130  174.8950  146.2240 O   0  0  0  0  0  0  0  0  0  0  0  0
  188.8830  175.9920  147.1000 C   0  0  0  0  0  2  0  0  0  0  0  0
  187.8200  176.1400  140.9070 S   0  0  0  0  0  1  0  0  0  0  0  0
  188.5500  177.2390  142.1150 C   0  0  0  0  0  0  0  0  0  0  0  0
  188.9460  178.3410  141.7680 O   0  0  0  0  0  0  0  0  0  0  0  0
  186.2110  176.1390  143.8310 O   0  0  0  0  0  0  0  0  0  0  0  0
  185.3680  176.9850  143.2690 O   0  0  0  0  0  1  0  0  0  0  0  0
  190.1750  173.8580  142.2300 O   0  0  0  0  0  0  0  0  0  0  0  0
  190.6550  172.6390  141.7420 C   0  0  0  0  0  2  0  0  0  0  0  0
  189.3270  171.9190  143.7190 C   0  0  0  0  0  1  0  0  0  0  0  0
  189.9070  171.4880  142.3870 C   0  0  0  0  0  2  0  0  0  0  0  0
  1 30  1  1  0  0  0
  1  8  1  0  0  0  0
  2  7  2  0  0  0  0
  3  9  1  0  0  0  0
  4 10  1  0  0  0  0
  4  9  2  0  0  0  0
  5  3  2  0  0  0  0
  6  1  1  0  0  0  0
  8 18  1  6  0  0  0
  9  7  1  0  0  0  0
 10  8  1  0  0  0  0
 10  2  1  1  0  0  0
 11  4  1  0  0  0  0
 12  6  1  0  0  0  0
 12 11  1  0  0  0  0
 13 11  2  0  0  0  0
 13  5  1  0  0  0  0
 14 23  1  0  0  0  0
 15 28  1  6  0  0  0
 15 17  1  0  0  0  0
 15 20  1  0  0  0  0
 16 24  1  0  0  0  0
 17 20  1  0  0  0  0
 18 14  1  1  0  0  0
 20 16  1  0  0  0  0
 20 19  1  1  0  0  0
 21 26  1  6  0  0  0
 21 22  1  0  0  0  0
 21 15  1  0  0  0  0
 22 18  1  0  0  0  0
 23 24  1  0  0  0  0
 25 26  1  0  0  0  0
 27 26  2  0  0  0  0
 29 28  1  0  0  0  0
 31 30  1  0  0  0  0
 31 33  1  0  0  0  0
 33 32  1  0  0  0  0
M  END
>  <MODEL>
9

>  <REMARK>
 VINA RESULT:      -6.3      3.524      6.944
  Name = 
  6 active torsions:
  status: ('A' for Active; 'I' for Inactive)
    1  A    between atoms: C_2  and  O_6
    2  A    between atoms: C_3  and  O_12
    3  A    between atoms: O_12  and  C_27
    4  A    between atoms: C_13  and  C_19
    5  A    between atoms: C_18  and  C_28
    6  A    between atoms: C_27  and  C_29
                            x       y       z     vdW  Elec       q    Type
                         _______ _______ _______ _____ _____    ______ ____

>  <TORSDO>
F 6

$$$$
