=
 OpenBabel11042418003D

 36 40  0  0  1  0  0  0  0  0999 V2000
  184.4550  178.8280  144.3790 C   0  0  0  0  0  3  0  0  0  0  0  0
  186.6520  178.0770  145.0180 C   0  0  0  0  0  0  0  0  0  0  0  0
  184.8070  177.9560  146.5350 N   0  0  0  0  0  0  0  0  0  0  0  0
  188.3060  176.9790  146.9970 C   0  0  0  0  0  3  0  0  0  0  0  0
  185.7950  178.6270  144.0530 C   0  0  0  0  0  0  0  0  0  0  0  0
  188.0120  177.8560  144.7600 C   0  0  0  0  0  3  0  0  0  0  0  0
  186.9500  177.1920  147.2640 C   0  0  0  0  0  3  0  0  0  0  0  0
  186.1230  177.7400  146.2800 C   0  0  0  0  0  0  0  0  0  0  0  0
  183.9980  178.4830  145.6120 N   0  0  0  0  0  0  0  0  0  0  0  0
  188.8430  177.3090  145.7460 C   0  0  0  0  0  0  0  0  0  0  0  0
  190.2670  177.0920  145.4600 C   0  0  0  0  0  0  0  0  0  0  0  0
  192.1060  177.0880  144.3780 N   0  0  0  0  0  0  0  0  0  0  0  0
  190.8450  177.3930  144.3220 O   0  0  0  0  0  0  0  0  0  0  0  0
  191.1430  176.5630  146.3370 N   0  0  0  0  0  0  0  0  0  0  0  0
  192.2800  176.5740  145.6090 C   0  0  0  0  0  0  0  0  0  0  0  0
  193.6080  176.1250  146.1290 C   0  0  2  0  0  3  0  0  0  0  0  0
  194.2340  177.1530  146.8470 O   0  0  0  0  0  1  0  0  0  0  0  0
  196.4200  175.9970  143.7220 C   0  0  0  0  0  2  0  0  0  0  0  0
  194.4540  175.6170  145.0420 N   0  0  0  0  0  0  0  0  0  0  0  0
  195.3230  174.5850  145.5880 C   0  0  0  0  0  2  0  0  0  0  0  0
  196.7950  174.4220  144.5330 S   0  0  0  0  0  0  0  0  0  0  0  0
  195.3290  176.6620  144.5250 C   0  0  0  0  0  2  0  0  0  0  0  0
  186.2890  179.0280  142.6990 C   0  0  0  0  0  2  0  0  0  0  0  0
  186.0820  177.8900  141.7120 C   0  0  0  0  0  2  0  0  0  0  0  0
  188.4790  178.2740  141.6250 N   0  0  0  0  0  1  0  0  0  0  0  0
  187.3710  177.6160  140.9550 C   0  0  1  0  0  3  0  0  0  0  0  0
  187.6320  176.1420  140.8660 C   0  0  0  0  0  0  0  0  0  0  0  0
  187.7700  175.6040  139.7770 O   0  0  0  0  0  0  0  0  0  0  0  0
  187.7620  175.3400  142.1260 C   0  0  0  0  0  2  0  0  0  0  0  0
  188.1550  172.9210  142.1750 N   0  0  0  0  0  1  0  0  0  0  0  0
  188.8010  174.2180  142.0240 C   0  0  2  0  0  3  0  0  0  0  0  0
  191.2650  173.9290  142.4500 C   0  0  0  0  0  2  0  0  0  0  0  0
  191.1200  173.2190  144.7800 C   0  0  0  0  0  2  0  0  0  0  0  0
  189.9410  174.3780  143.0350 C   0  0  0  0  0  3  0  0  0  0  0  0
  192.0680  173.3520  143.6020 C   0  0  0  0  0  2  0  0  0  0  0  0
  189.7320  173.4930  144.2450 C   0  0  0  0  0  2  0  0  0  0  0  0
  1  9  1  0  0  0  0
  2  8  1  0  0  0  0
  4  7  1  0  0  0  0
  5  1  2  0  0  0  0
  5  2  1  0  0  0  0
  6  2  2  0  0  0  0
  6 10  1  0  0  0  0
  8  3  1  0  0  0  0
  8  7  2  0  0  0  0
  9  3  2  0  0  0  0
 10  4  2  0  0  0  0
 11 10  1  0  0  0  0
 11 14  2  0  0  0  0
 12 15  2  0  0  0  0
 13 12  1  0  0  0  0
 13 11  1  0  0  0  0
 15 16  1  0  0  0  0
 15 14  1  0  0  0  0
 16 17  1  6  0  0  0
 18 22  1  0  0  0  0
 18 21  1  0  0  0  0
 19 20  1  0  0  0  0
 19 16  1  0  0  0  0
 21 20  1  0  0  0  0
 22 19  1  0  0  0  0
 23  5  1  0  0  0  0
 24 23  1  0  0  0  0
 26 25  1  1  0  0  0
 26 24  1  0  0  0  0
 27 26  1  0  0  0  0
 27 29  1  0  0  0  0
 28 27  2  0  0  0  0
 31 29  1  0  0  0  0
 31 30  1  1  0  0  0
 31 34  1  0  0  0  0
 32 34  1  0  0  0  0
 32 35  1  0  0  0  0
 34 36  1  0  0  0  0
 35 33  1  0  0  0  0
 36 33  1  0  0  0  0
M  END
>  <MODEL>
1

>  <REMARK>
 VINA RESULT:      -7.7      0.000      0.000
  Name = 
  10 active torsions:
  status: ('A' for Active; 'I' for Inactive)
    1  A    between atoms: N_5  and  C_7
    2  A    between atoms: C_7  and  C_32
    3  A    between atoms: C_11  and  C_21
    4  A    between atoms: C_14  and  C_35
    5  A    between atoms: C_20  and  C_31
    6  A    between atoms: C_20  and  C_34
    7  A    between atoms: C_21  and  C_25
    8  A    between atoms: C_25  and  C_31
    9  A    between atoms: C_26  and  C_27
   10  A    between atoms: C_27  and  C_34
                            x       y       z     vdW  Elec       q    Type
                         _______ _______ _______ _____ _____    ______ ____

>  <TORSDO>
F 10

$$$$
=
 OpenBabel11042418003D

 36 40  0  0  1  0  0  0  0  0999 V2000
  195.2690  173.0630  144.6960 C   0  0  0  0  0  3  0  0  0  0  0  0
  193.4210  174.3440  145.5590 C   0  0  0  0  0  0  0  0  0  0  0  0
  195.6770  175.1030  145.7940 N   0  0  0  0  0  0  0  0  0  0  0  0
  192.5460  176.6340  146.9190 C   0  0  0  0  0  3  0  0  0  0  0  0
  193.8950  173.2090  144.8850 C   0  0  0  0  0  0  0  0  0  0  0  0
  192.0540  174.5490  145.7920 C   0  0  0  0  0  3  0  0  0  0  0  0
  193.9120  176.4410  146.6910 C   0  0  0  0  0  3  0  0  0  0  0  0
  194.3510  175.3000  146.0140 C   0  0  0  0  0  0  0  0  0  0  0  0
  196.1210  174.0190  145.1550 N   0  0  0  0  0  0  0  0  0  0  0  0
  191.6120  175.6900  146.4720 C   0  0  0  0  0  0  0  0  0  0  0  0
  190.1760  175.8850  146.7120 C   0  0  0  0  0  0  0  0  0  0  0  0
  188.1660  175.4250  147.2610 N   0  0  0  0  0  0  0  0  0  0  0  0
  189.3670  174.9470  147.1440 O   0  0  0  0  0  0  0  0  0  0  0  0
  189.5270  177.0510  146.5230 N   0  0  0  0  0  0  0  0  0  0  0  0
  188.2690  176.7090  146.8720 C   0  0  0  0  0  0  0  0  0  0  0  0
  187.1190  177.6660  146.8920 C   0  0  2  0  0  3  0  0  0  0  0  0
  186.0440  177.1360  147.6180 O   0  0  0  0  0  1  0  0  0  0  0  0
  185.4050  177.4720  143.6140 C   0  0  0  0  0  2  0  0  0  0  0  0
  186.7310  178.0480  145.5290 N   0  0  0  0  0  0  0  0  0  0  0  0
  185.7010  179.0730  145.6210 C   0  0  0  0  0  2  0  0  0  0  0  0
  184.7260  179.0820  144.0860 S   0  0  0  0  0  0  0  0  0  0  0  0
  186.1310  176.9240  144.8190 C   0  0  0  0  0  2  0  0  0  0  0  0
  192.9700  172.1430  144.3920 C   0  0  0  0  0  2  0  0  0  0  0  0
  192.6580  172.3640  142.9210 C   0  0  0  0  0  2  0  0  0  0  0  0
  190.4900  171.5890  143.6970 N   0  0  0  0  0  1  0  0  0  0  0  0
  191.3750  171.6410  142.5460 C   0  0  1  0  0  3  0  0  0  0  0  0
  190.6890  172.3320  141.4060 C   0  0  0  0  0  0  0  0  0  0  0  0
  190.0490  171.6890  140.5880 O   0  0  0  0  0  0  0  0  0  0  0  0
  190.7620  173.8260  141.3010 C   0  0  0  0  0  2  0  0  0  0  0  0
  188.6880  175.1090  141.0570 N   0  0  0  0  0  1  0  0  0  0  0  0
  189.6150  174.5400  142.0250 C   0  0  2  0  0  3  0  0  0  0  0  0
  189.3170  176.8980  142.8570 C   0  0  0  0  0  2  0  0  0  0  0  0
  191.6730  177.4290  143.2010 C   0  0  0  0  0  2  0  0  0  0  0  0
  190.1110  175.6140  142.9970 C   0  0  0  0  0  3  0  0  0  0  0  0
  190.2810  178.0320  143.1560 C   0  0  0  0  0  2  0  0  0  0  0  0
  191.5420  176.0080  142.7000 C   0  0  0  0  0  2  0  0  0  0  0  0
  1  5  2  0  0  0  0
  1  9  1  0  0  0  0
  2  6  2  0  0  0  0
  2  8  1  0  0  0  0
  3  8  1  0  0  0  0
  5  2  1  0  0  0  0
  6 10  1  0  0  0  0
  7  4  1  0  0  0  0
  8  7  2  0  0  0  0
  9  3  2  0  0  0  0
 10 11  1  0  0  0  0
 10  4  2  0  0  0  0
 11 13  1  0  0  0  0
 13 12  1  0  0  0  0
 14 11  2  0  0  0  0
 14 15  1  0  0  0  0
 15 16  1  0  0  0  0
 15 12  2  0  0  0  0
 16 17  1  6  0  0  0
 18 21  1  0  0  0  0
 18 22  1  0  0  0  0
 19 20  1  0  0  0  0
 19 16  1  0  0  0  0
 21 20  1  0  0  0  0
 22 19  1  0  0  0  0
 23  5  1  0  0  0  0
 24 23  1  0  0  0  0
 26 24  1  0  0  0  0
 26 25  1  1  0  0  0
 27 26  1  0  0  0  0
 28 27  2  0  0  0  0
 29 27  1  0  0  0  0
 29 31  1  0  0  0  0
 31 30  1  6  0  0  0
 31 34  1  0  0  0  0
 32 34  1  0  0  0  0
 32 35  1  0  0  0  0
 35 33  1  0  0  0  0
 36 34  1  0  0  0  0
 36 33  1  0  0  0  0
M  END
>  <MODEL>
2

>  <REMARK>
 VINA RESULT:      -7.3      3.156      7.318
  Name = 
  10 active torsions:
  status: ('A' for Active; 'I' for Inactive)
    1  A    between atoms: N_5  and  C_7
    2  A    between atoms: C_7  and  C_32
    3  A    between atoms: C_11  and  C_21
    4  A    between atoms: C_14  and  C_35
    5  A    between atoms: C_20  and  C_31
    6  A    between atoms: C_20  and  C_34
    7  A    between atoms: C_21  and  C_25
    8  A    between atoms: C_25  and  C_31
    9  A    between atoms: C_26  and  C_27
   10  A    between atoms: C_27  and  C_34
                            x       y       z     vdW  Elec       q    Type
                         _______ _______ _______ _____ _____    ______ ____

>  <TORSDO>
F 10

$$$$
=
 OpenBabel11042418003D

 36 40  0  0  1  0  0  0  0  0999 V2000
  184.2950  179.0260  144.4170 C   0  0  0  0  0  3  0  0  0  0  0  0
  186.4450  178.1860  145.1060 C   0  0  0  0  0  0  0  0  0  0  0  0
  184.5880  178.2300  146.6110 N   0  0  0  0  0  0  0  0  0  0  0  0
  188.0260  177.0870  147.1430 C   0  0  0  0  0  3  0  0  0  0  0  0
  185.6250  178.7400  144.1110 C   0  0  0  0  0  0  0  0  0  0  0  0
  187.7930  177.8820  144.8690 C   0  0  0  0  0  3  0  0  0  0  0  0
  186.6820  177.3850  147.3900 C   0  0  0  0  0  3  0  0  0  0  0  0
  185.8920  177.9340  146.3770 C   0  0  0  0  0  0  0  0  0  0  0  0
  183.8140  178.7600  145.6610 N   0  0  0  0  0  0  0  0  0  0  0  0
  188.5870  177.3340  145.8830 C   0  0  0  0  0  0  0  0  0  0  0  0
  189.9990  177.0280  145.6180 C   0  0  0  0  0  0  0  0  0  0  0  0
  191.8490  176.9080  144.5630 N   0  0  0  0  0  0  0  0  0  0  0  0
  190.6110  177.2890  144.4880 O   0  0  0  0  0  0  0  0  0  0  0  0
  190.8290  176.4500  146.5090 N   0  0  0  0  0  0  0  0  0  0  0  0
  191.9740  176.3880  145.7980 C   0  0  0  0  0  0  0  0  0  0  0  0
  193.2650  175.8610  146.3380 C   0  0  2  0  0  3  0  0  0  0  0  0
  194.0570  176.9020  146.8400 O   0  0  0  0  0  1  0  0  0  0  0  0
  196.1060  174.2640  144.5780 C   0  0  0  0  0  2  0  0  0  0  0  0
  193.9730  175.0670  145.3260 N   0  0  0  0  0  0  0  0  0  0  0  0
  193.8500  173.6620  145.6840 C   0  0  0  0  0  2  0  0  0  0  0  0
  195.2140  172.7280  144.9250 S   0  0  0  0  0  0  0  0  0  0  0  0
  195.4000  175.3690  145.3270 C   0  0  0  0  0  2  0  0  0  0  0  0
  186.1480  179.0540  142.7450 C   0  0  0  0  0  2  0  0  0  0  0  0
  185.7740  177.9440  141.7770 C   0  0  0  0  0  2  0  0  0  0  0  0
  188.1410  178.2150  141.3030 N   0  0  0  0  0  1  0  0  0  0  0  0
  187.0290  177.2830  141.2320 C   0  0  1  0  0  3  0  0  0  0  0  0
  187.3550  176.0410  142.0060 C   0  0  0  0  0  0  0  0  0  0  0  0
  186.5000  175.4940  142.6870 O   0  0  0  0  0  0  0  0  0  0  0  0
  188.7310  175.4520  141.9070 C   0  0  0  0  0  2  0  0  0  0  0  0
  189.4220  173.1890  142.5440 N   0  0  0  0  0  1  0  0  0  0  0  0
  188.7270  173.9670  141.5280 C   0  0  2  0  0  3  0  0  0  0  0  0
  188.3870  174.1580  139.0410 C   0  0  0  0  0  2  0  0  0  0  0  0
  189.4650  172.0660  138.3960 C   0  0  0  0  0  2  0  0  0  0  0  0
  189.3280  173.7120  140.1430 C   0  0  0  0  0  3  0  0  0  0  0  0
  188.6090  173.2080  137.8780 C   0  0  0  0  0  2  0  0  0  0  0  0
  189.5390  172.2330  139.8980 C   0  0  0  0  0  2  0  0  0  0  0  0
  1  9  1  0  0  0  0
  2  8  1  0  0  0  0
  4  7  1  0  0  0  0
  5  1  2  0  0  0  0
  5  2  1  0  0  0  0
  6  2  2  0  0  0  0
  6 10  1  0  0  0  0
  8  3  1  0  0  0  0
  8  7  2  0  0  0  0
  9  3  2  0  0  0  0
 10  4  2  0  0  0  0
 11 10  1  0  0  0  0
 11 14  2  0  0  0  0
 12 15  2  0  0  0  0
 13 12  1  0  0  0  0
 13 11  1  0  0  0  0
 15 16  1  0  0  0  0
 15 14  1  0  0  0  0
 16 17  1  6  0  0  0
 18 21  1  0  0  0  0
 18 22  1  0  0  0  0
 19 22  1  0  0  0  0
 19 20  1  0  0  0  0
 19 16  1  0  0  0  0
 21 20  1  0  0  0  0
 23  5  1  0  0  0  0
 24 23  1  0  0  0  0
 26 25  1  1  0  0  0
 26 24  1  0  0  0  0
 26 27  1  0  0  0  0
 27 28  2  0  0  0  0
 29 27  1  0  0  0  0
 31 29  1  0  0  0  0
 31 30  1  1  0  0  0
 32 34  1  0  0  0  0
 33 36  1  0  0  0  0
 34 31  1  0  0  0  0
 35 33  1  0  0  0  0
 35 32  1  0  0  0  0
 36 34  1  0  0  0  0
M  END
>  <MODEL>
3

>  <REMARK>
 VINA RESULT:      -7.3      1.540      2.184
  Name = 
  10 active torsions:
  status: ('A' for Active; 'I' for Inactive)
    1  A    between atoms: N_5  and  C_7
    2  A    between atoms: C_7  and  C_32
    3  A    between atoms: C_11  and  C_21
    4  A    between atoms: C_14  and  C_35
    5  A    between atoms: C_20  and  C_31
    6  A    between atoms: C_20  and  C_34
    7  A    between atoms: C_21  and  C_25
    8  A    between atoms: C_25  and  C_31
    9  A    between atoms: C_26  and  C_27
   10  A    between atoms: C_27  and  C_34
                            x       y       z     vdW  Elec       q    Type
                         _______ _______ _______ _____ _____    ______ ____

>  <TORSDO>
F 10

$$$$
=
 OpenBabel11042418003D

 36 40  0  0  1  0  0  0  0  0999 V2000
  184.8070  178.1300  143.0130 C   0  0  0  0  0  3  0  0  0  0  0  0
  186.7070  176.6510  142.9340 C   0  0  0  0  0  0  0  0  0  0  0  0
  185.7690  177.5760  140.9390 N   0  0  0  0  0  0  0  0  0  0  0  0
  188.6030  175.2980  141.3740 C   0  0  0  0  0  3  0  0  0  0  0  0
  185.7410  177.3400  143.6830 C   0  0  0  0  0  0  0  0  0  0  0  0
  187.6690  175.8330  143.5420 C   0  0  0  0  0  3  0  0  0  0  0  0
  187.6480  176.1130  140.7570 C   0  0  0  0  0  3  0  0  0  0  0  0
  186.7020  176.7880  141.5320 C   0  0  0  0  0  0  0  0  0  0  0  0
  184.8510  178.2270  141.6570 N   0  0  0  0  0  0  0  0  0  0  0  0
  188.6170  175.1540  142.7680 C   0  0  0  0  0  0  0  0  0  0  0  0
  189.6140  174.2960  143.4220 C   0  0  0  0  0  0  0  0  0  0  0  0
  190.5000  173.0400  144.9020 N   0  0  0  0  0  0  0  0  0  0  0  0
  189.4510  173.7410  144.5990 O   0  0  0  0  0  0  0  0  0  0  0  0
  190.8080  173.9750  142.8850 N   0  0  0  0  0  0  0  0  0  0  0  0
  191.3290  173.1940  143.8540 C   0  0  0  0  0  0  0  0  0  0  0  0
  192.6570  172.5150  143.7540 C   0  0  2  0  0  3  0  0  0  0  0  0
  192.6150  171.2490  144.3540 O   0  0  0  0  0  1  0  0  0  0  0  0
  195.7760  173.3850  145.5520 C   0  0  0  0  0  2  0  0  0  0  0  0
  193.7220  173.3560  144.3130 N   0  0  0  0  0  0  0  0  0  0  0  0
  194.6540  173.6810  143.2440 C   0  0  0  0  0  2  0  0  0  0  0  0
  196.2710  174.0960  143.9630 S   0  0  0  0  0  0  0  0  0  0  0  0
  194.4880  172.6320  145.3210 C   0  0  0  0  0  2  0  0  0  0  0  0
  185.6720  177.2270  145.1730 C   0  0  0  0  0  2  0  0  0  0  0  0
  186.5790  178.2640  145.8160 C   0  0  0  0  0  2  0  0  0  0  0  0
  186.0080  177.1250  147.8840 N   0  0  0  0  0  1  0  0  0  0  0  0
  187.0950  177.7490  147.1490 C   0  0  1  0  0  3  0  0  0  0  0  0
  188.2050  176.7620  146.9450 C   0  0  0  0  0  0  0  0  0  0  0  0
  187.9900  175.5620  147.0350 O   0  0  0  0  0  0  0  0  0  0  0  0
  189.5750  177.2580  146.5890 C   0  0  0  0  0  2  0  0  0  0  0  0
  191.2660  177.1610  148.3600 N   0  0  0  0  0  1  0  0  0  0  0  0
  190.7000  176.4380  147.2300 C   0  0  2  0  0  3  0  0  0  0  0  0
  193.1710  176.4110  146.7490 C   0  0  0  0  0  2  0  0  0  0  0  0
  193.0510  176.8980  144.3610 C   0  0  0  0  0  2  0  0  0  0  0  0
  191.7930  176.0550  146.2280 C   0  0  0  0  0  3  0  0  0  0  0  0
  194.0060  176.7790  145.5350 C   0  0  0  0  0  2  0  0  0  0  0  0
  191.6540  176.8330  144.9370 C   0  0  0  0  0  2  0  0  0  0  0  0
  1  5  1  0  0  0  0
  2  6  1  0  0  0  0
  2  5  2  0  0  0  0
  3  8  2  0  0  0  0
  3  9  1  0  0  0  0
  4 10  1  0  0  0  0
  5 23  1  0  0  0  0
  7  4  2  0  0  0  0
  7  8  1  0  0  0  0
  8  2  1  0  0  0  0
  9  1  2  0  0  0  0
 10 11  1  0  0  0  0
 10  6  2  0  0  0  0
 11 13  1  0  0  0  0
 13 12  1  0  0  0  0
 14 11  2  0  0  0  0
 14 15  1  0  0  0  0
 15 12  2  0  0  0  0
 16 15  1  0  0  0  0
 16 19  1  0  0  0  0
 16 17  1  1  0  0  0
 19 22  1  0  0  0  0
 20 21  1  0  0  0  0
 20 19  1  0  0  0  0
 21 18  1  0  0  0  0
 22 18  1  0  0  0  0
 23 24  1  0  0  0  0
 24 26  1  0  0  0  0
 26 25  1  6  0  0  0
 27 28  2  0  0  0  0
 27 26  1  0  0  0  0
 29 27  1  0  0  0  0
 29 31  1  0  0  0  0
 31 30  1  1  0  0  0
 33 36  1  0  0  0  0
 33 35  1  0  0  0  0
 34 32  1  0  0  0  0
 34 31  1  0  0  0  0
 35 32  1  0  0  0  0
 36 34  1  0  0  0  0
M  END
>  <MODEL>
4

>  <REMARK>
 VINA RESULT:      -7.2      2.255      4.699
  Name = 
  10 active torsions:
  status: ('A' for Active; 'I' for Inactive)
    1  A    between atoms: N_5  and  C_7
    2  A    between atoms: C_7  and  C_32
    3  A    between atoms: C_11  and  C_21
    4  A    between atoms: C_14  and  C_35
    5  A    between atoms: C_20  and  C_31
    6  A    between atoms: C_20  and  C_34
    7  A    between atoms: C_21  and  C_25
    8  A    between atoms: C_25  and  C_31
    9  A    between atoms: C_26  and  C_27
   10  A    between atoms: C_27  and  C_34
                            x       y       z     vdW  Elec       q    Type
                         _______ _______ _______ _____ _____    ______ ____

>  <TORSDO>
F 10

$$$$
=
 OpenBabel11042418003D

 36 40  0  0  1  0  0  0  0  0999 V2000
  189.5870  177.3340  146.0240 C   0  0  0  0  0  3  0  0  0  0  0  0
  191.7860  176.7650  145.2240 C   0  0  0  0  0  0  0  0  0  0  0  0
  191.2040  176.5300  147.5320 N   0  0  0  0  0  0  0  0  0  0  0  0
  194.3630  175.8330  145.8160 C   0  0  0  0  0  3  0  0  0  0  0  0
  190.4890  177.2310  144.9650 C   0  0  0  0  0  0  0  0  0  0  0  0
  192.7460  176.6450  144.2090 C   0  0  0  0  0  3  0  0  0  0  0  0
  193.4140  175.9470  146.8360 C   0  0  0  0  0  3  0  0  0  0  0  0
  192.1290  176.4120  146.5450 C   0  0  0  0  0  0  0  0  0  0  0  0
  189.9720  176.9770  147.2790 N   0  0  0  0  0  0  0  0  0  0  0  0
  194.0340  176.1820  144.4990 C   0  0  0  0  0  0  0  0  0  0  0  0
  195.0280  176.0690  143.4240 C   0  0  0  0  0  0  0  0  0  0  0  0
  196.8160  176.4260  142.3160 N   0  0  0  0  0  0  0  0  0  0  0  0
  196.1510  176.7460  143.3830 O   0  0  0  0  0  0  0  0  0  0  0  0
  194.9030  175.2530  142.3580 N   0  0  0  0  0  0  0  0  0  0  0  0
  196.0440  175.5190  141.6900 C   0  0  0  0  0  0  0  0  0  0  0  0
  196.4480  174.8360  140.4220 C   0  0  2  0  0  3  0  0  0  0  0  0
  197.1060  175.7270  139.5650 O   0  0  0  0  0  1  0  0  0  0  0  0
  193.9000  174.1430  137.8250 C   0  0  0  0  0  2  0  0  0  0  0  0
  195.2930  174.2000  139.7770 N   0  0  0  0  0  0  0  0  0  0  0  0
  195.7360  172.9430  139.1910 C   0  0  0  0  0  2  0  0  0  0  0  0
  194.6000  172.4750  137.8490 S   0  0  0  0  0  0  0  0  0  0  0  0
  194.7930  175.0140  138.6750 C   0  0  0  0  0  2  0  0  0  0  0  0
  190.0600  177.6430  143.5930 C   0  0  0  0  0  2  0  0  0  0  0  0
  188.5590  177.8800  143.5670 C   0  0  0  0  0  2  0  0  0  0  0  0
  188.1710  176.5930  141.5440 N   0  0  0  0  0  1  0  0  0  0  0  0
  188.0620  177.9170  142.1310 C   0  0  1  0  0  3  0  0  0  0  0  0
  186.6390  178.3860  142.0720 C   0  0  0  0  0  0  0  0  0  0  0  0
  185.9950  178.2780  141.0390 O   0  0  0  0  0  0  0  0  0  0  0  0
  186.0000  178.9530  143.3040 C   0  0  0  0  0  2  0  0  0  0  0  0
  183.5620  178.7120  143.3980 N   0  0  0  0  0  1  0  0  0  0  0  0
  184.8230  178.1150  143.8160 C   0  0  2  0  0  3  0  0  0  0  0  0
  185.5320  179.0880  146.0270 C   0  0  0  0  0  2  0  0  0  0  0  0
  186.1860  177.0030  147.1130 C   0  0  0  0  0  2  0  0  0  0  0  0
  184.8550  177.9210  145.3350 C   0  0  0  0  0  3  0  0  0  0  0  0
  186.2300  178.5150  147.2470 C   0  0  0  0  0  2  0  0  0  0  0  0
  185.6800  176.7110  145.7180 C   0  0  0  0  0  2  0  0  0  0  0  0
  1  9  1  0  0  0  0
  2  8  1  0  0  0  0
  4  7  1  0  0  0  0
  5  2  1  0  0  0  0
  5  1  2  0  0  0  0
  6 10  1  0  0  0  0
  6  2  2  0  0  0  0
  8  7  2  0  0  0  0
  8  3  1  0  0  0  0
  9  3  2  0  0  0  0
 10  4  2  0  0  0  0
 11 10  1  0  0  0  0
 12 13  1  0  0  0  0
 13 11  1  0  0  0  0
 14 11  2  0  0  0  0
 15 12  2  0  0  0  0
 15 14  1  0  0  0  0
 16 17  1  6  0  0  0
 16 15  1  0  0  0  0
 18 21  1  0  0  0  0
 18 22  1  0  0  0  0
 19 16  1  0  0  0  0
 20 19  1  0  0  0  0
 21 20  1  0  0  0  0
 22 19  1  0  0  0  0
 23  5  1  0  0  0  0
 24 23  1  0  0  0  0
 26 25  1  1  0  0  0
 26 24  1  0  0  0  0
 27 26  1  0  0  0  0
 27 29  1  0  0  0  0
 28 27  2  0  0  0  0
 29 31  1  0  0  0  0
 31 30  1  1  0  0  0
 31 34  1  0  0  0  0
 32 35  1  0  0  0  0
 33 35  1  0  0  0  0
 34 36  1  0  0  0  0
 34 32  1  0  0  0  0
 36 33  1  0  0  0  0
M  END
>  <MODEL>
5

>  <REMARK>
 VINA RESULT:      -7.2      3.065      5.838
  Name = 
  10 active torsions:
  status: ('A' for Active; 'I' for Inactive)
    1  A    between atoms: N_5  and  C_7
    2  A    between atoms: C_7  and  C_32
    3  A    between atoms: C_11  and  C_21
    4  A    between atoms: C_14  and  C_35
    5  A    between atoms: C_20  and  C_31
    6  A    between atoms: C_20  and  C_34
    7  A    between atoms: C_21  and  C_25
    8  A    between atoms: C_25  and  C_31
    9  A    between atoms: C_26  and  C_27
   10  A    between atoms: C_27  and  C_34
                            x       y       z     vdW  Elec       q    Type
                         _______ _______ _______ _____ _____    ______ ____

>  <TORSDO>
F 10

$$$$
=
 OpenBabel11042418003D

 36 40  0  0  1  0  0  0  0  0999 V2000
  185.5390  178.9040  145.6020 C   0  0  0  0  0  3  0  0  0  0  0  0
  186.3920  177.4500  143.8830 C   0  0  0  0  0  0  0  0  0  0  0  0
  185.7430  179.6990  143.3980 N   0  0  0  0  0  0  0  0  0  0  0  0
  187.0680  177.1000  141.1850 C   0  0  0  0  0  3  0  0  0  0  0  0
  186.0400  177.6590  145.2250 C   0  0  0  0  0  0  0  0  0  0  0  0
  186.8940  176.2200  143.4330 C   0  0  0  0  0  3  0  0  0  0  0  0
  186.5710  178.3310  141.6230 C   0  0  0  0  0  3  0  0  0  0  0  0
  186.2320  178.5080  142.9670 C   0  0  0  0  0  0  0  0  0  0  0  0
  185.4070  179.8910  144.6760 N   0  0  0  0  0  0  0  0  0  0  0  0
  187.2310  176.0400  142.0870 C   0  0  0  0  0  0  0  0  0  0  0  0
  187.7490  174.7430  141.6320 C   0  0  0  0  0  0  0  0  0  0  0  0
  187.9670  172.6260  141.4790 N   0  0  0  0  0  0  0  0  0  0  0  0
  187.3230  173.5830  142.0720 O   0  0  0  0  0  0  0  0  0  0  0  0
  188.7180  174.5950  140.7060 N   0  0  0  0  0  0  0  0  0  0  0  0
  188.8250  173.2510  140.6520 C   0  0  0  0  0  0  0  0  0  0  0  0
  189.7470  172.5240  139.7260 C   0  0  2  0  0  3  0  0  0  0  0  0
  189.0370  171.9590  138.6590 O   0  0  0  0  0  1  0  0  0  0  0  0
  192.2050  169.8070  140.2700 C   0  0  0  0  0  2  0  0  0  0  0  0
  190.5410  171.5250  140.4520 N   0  0  0  0  0  0  0  0  0  0  0  0
  191.6690  172.2050  141.0710 C   0  0  0  0  0  2  0  0  0  0  0  0
  193.0010  171.0030  141.3710 S   0  0  0  0  0  0  0  0  0  0  0  0
  191.1050  170.5380  139.5390 C   0  0  0  0  0  2  0  0  0  0  0  0
  186.1630  176.5760  146.2490 C   0  0  0  0  0  2  0  0  0  0  0  0
  187.2960  176.8950  147.2100 C   0  0  0  0  0  2  0  0  0  0  0  0
  189.6250  177.5490  146.9820 N   0  0  0  0  0  1  0  0  0  0  0  0
  188.6330  176.5730  146.5630 C   0  0  1  0  0  3  0  0  0  0  0  0
  189.0870  175.1940  146.9370 C   0  0  0  0  0  0  0  0  0  0  0  0
  188.5210  174.5760  147.8270 O   0  0  0  0  0  0  0  0  0  0  0  0
  190.2170  174.5610  146.1810 C   0  0  0  0  0  2  0  0  0  0  0  0
  190.0030  173.1830  144.1660 N   0  0  0  0  0  1  0  0  0  0  0  0
  190.0000  174.5510  144.6640 C   0  0  2  0  0  3  0  0  0  0  0  0
  192.1780  175.8050  144.8220 C   0  0  0  0  0  2  0  0  0  0  0  0
  191.5910  177.6750  143.3690 C   0  0  0  0  0  2  0  0  0  0  0  0
  191.0300  175.4030  143.9170 C   0  0  0  0  0  3  0  0  0  0  0  0
  192.6330  177.1750  144.3530 C   0  0  0  0  0  2  0  0  0  0  0  0
  190.4290  176.7100  143.4490 C   0  0  0  0  0  2  0  0  0  0  0  0
  2  5  2  0  0  0  0
  3  9  1  0  0  0  0
  4  7  2  0  0  0  0
  4 10  1  0  0  0  0
  5  1  1  0  0  0  0
  5 23  1  0  0  0  0
  6  2  1  0  0  0  0
  7  8  1  0  0  0  0
  8  3  2  0  0  0  0
  8  2  1  0  0  0  0
  9  1  2  0  0  0  0
 10  6  2  0  0  0  0
 11 13  1  0  0  0  0
 11 10  1  0  0  0  0
 12 13  1  0  0  0  0
 14 11  2  0  0  0  0
 15 14  1  0  0  0  0
 15 12  2  0  0  0  0
 16 17  1  6  0  0  0
 16 19  1  0  0  0  0
 16 15  1  0  0  0  0
 18 21  1  0  0  0  0
 19 20  1  0  0  0  0
 20 21  1  0  0  0  0
 22 18  1  0  0  0  0
 22 19  1  0  0  0  0
 23 24  1  0  0  0  0
 26 27  1  0  0  0  0
 26 25  1  1  0  0  0
 26 24  1  0  0  0  0
 27 28  2  0  0  0  0
 29 27  1  0  0  0  0
 31 30  1  6  0  0  0
 31 29  1  0  0  0  0
 33 36  1  0  0  0  0
 33 35  1  0  0  0  0
 34 31  1  0  0  0  0
 34 32  1  0  0  0  0
 35 32  1  0  0  0  0
 36 34  1  0  0  0  0
M  END
>  <MODEL>
6

>  <REMARK>
 VINA RESULT:      -7.1      2.678      5.557
  Name = 
  10 active torsions:
  status: ('A' for Active; 'I' for Inactive)
    1  A    between atoms: N_5  and  C_7
    2  A    between atoms: C_7  and  C_32
    3  A    between atoms: C_11  and  C_21
    4  A    between atoms: C_14  and  C_35
    5  A    between atoms: C_20  and  C_31
    6  A    between atoms: C_20  and  C_34
    7  A    between atoms: C_21  and  C_25
    8  A    between atoms: C_25  and  C_31
    9  A    between atoms: C_26  and  C_27
   10  A    between atoms: C_27  and  C_34
                            x       y       z     vdW  Elec       q    Type
                         _______ _______ _______ _____ _____    ______ ____

>  <TORSDO>
F 10

$$$$
=
 OpenBabel11042418003D

 36 40  0  0  1  0  0  0  0  0999 V2000
  185.5400  178.5670  145.9340 C   0  0  0  0  0  3  0  0  0  0  0  0
  186.3980  177.4960  143.9550 C   0  0  0  0  0  0  0  0  0  0  0  0
  184.8830  179.3410  143.8120 N   0  0  0  0  0  0  0  0  0  0  0  0
  186.4540  177.3700  141.1550 C   0  0  0  0  0  3  0  0  0  0  0  0
  186.3440  177.5860  145.3540 C   0  0  0  0  0  0  0  0  0  0  0  0
  187.1790  176.5290  143.3060 C   0  0  0  0  0  3  0  0  0  0  0  0
  185.6740  178.3400  141.7920 C   0  0  0  0  0  3  0  0  0  0  0  0
  185.6430  178.4050  143.1880 C   0  0  0  0  0  0  0  0  0  0  0  0
  184.8340  179.4190  145.1440 N   0  0  0  0  0  0  0  0  0  0  0  0
  187.2090  176.4610  141.9080 C   0  0  0  0  0  0  0  0  0  0  0  0
  188.0270  175.4360  141.2460 C   0  0  0  0  0  0  0  0  0  0  0  0
  188.7490  174.1540  139.7010 N   0  0  0  0  0  0  0  0  0  0  0  0
  187.8790  175.0710  139.9950 O   0  0  0  0  0  0  0  0  0  0  0  0
  189.0260  174.7590  141.8450 N   0  0  0  0  0  0  0  0  0  0  0  0
  189.4420  173.9620  140.8390 C   0  0  0  0  0  0  0  0  0  0  0  0
  190.5910  173.0110  140.9480 C   0  0  2  0  0  3  0  0  0  0  0  0
  190.1510  171.6850  140.8430 O   0  0  0  0  0  1  0  0  0  0  0  0
  192.0610  172.3130  144.2750 C   0  0  0  0  0  2  0  0  0  0  0  0
  191.3520  173.2450  142.1820 N   0  0  0  0  0  0  0  0  0  0  0  0
  192.7620  173.0290  141.8930 C   0  0  0  0  0  2  0  0  0  0  0  0
  193.6350  172.6270  143.4370 S   0  0  0  0  0  0  0  0  0  0  0  0
  190.9900  172.2790  143.2130 C   0  0  0  0  0  2  0  0  0  0  0  0
  187.1010  176.6430  146.2330 C   0  0  0  0  0  2  0  0  0  0  0  0
  188.2270  177.3810  146.9400 C   0  0  0  0  0  2  0  0  0  0  0  0
  189.1920  175.1530  146.8740 N   0  0  0  0  0  1  0  0  0  0  0  0
  189.5100  176.5700  146.8620 C   0  0  1  0  0  3  0  0  0  0  0  0
  190.2800  176.9100  145.6220 C   0  0  0  0  0  0  0  0  0  0  0  0
  190.0020  177.9090  144.9750 O   0  0  0  0  0  0  0  0  0  0  0  0
  191.4220  176.0330  145.2010 C   0  0  0  0  0  2  0  0  0  0  0  0
  192.5940  176.4460  143.0890 N   0  0  0  0  0  1  0  0  0  0  0  0
  192.5480  176.8010  144.5000 C   0  0  2  0  0  3  0  0  0  0  0  0
  194.9710  176.2230  144.1360 C   0  0  0  0  0  2  0  0  0  0  0  0
  195.2990  174.8820  146.1470 C   0  0  0  0  0  2  0  0  0  0  0  0
  193.9120  176.5780  145.1610 C   0  0  0  0  0  3  0  0  0  0  0  0
  195.9390  175.2810  144.8300 C   0  0  0  0  0  2  0  0  0  0  0  0
  193.8790  175.3980  146.1080 C   0  0  0  0  0  2  0  0  0  0  0  0
  2  5  2  0  0  0  0
  3  9  1  0  0  0  0
  4  7  2  0  0  0  0
  4 10  1  0  0  0  0
  5  1  1  0  0  0  0
  5 23  1  0  0  0  0
  6  2  1  0  0  0  0
  7  8  1  0  0  0  0
  8  3  2  0  0  0  0
  8  2  1  0  0  0  0
  9  1  2  0  0  0  0
 10  6  2  0  0  0  0
 11 14  2  0  0  0  0
 11 10  1  0  0  0  0
 12 13  1  0  0  0  0
 12 15  2  0  0  0  0
 13 11  1  0  0  0  0
 15 16  1  0  0  0  0
 15 14  1  0  0  0  0
 16 17  1  1  0  0  0
 16 19  1  0  0  0  0
 19 22  1  0  0  0  0
 20 19  1  0  0  0  0
 20 21  1  0  0  0  0
 21 18  1  0  0  0  0
 22 18  1  0  0  0  0
 23 24  1  0  0  0  0
 26 25  1  6  0  0  0
 26 24  1  0  0  0  0
 27 26  1  0  0  0  0
 28 27  2  0  0  0  0
 29 27  1  0  0  0  0
 31 30  1  6  0  0  0
 31 34  1  0  0  0  0
 31 29  1  0  0  0  0
 32 35  1  0  0  0  0
 32 34  1  0  0  0  0
 34 36  1  0  0  0  0
 35 33  1  0  0  0  0
 36 33  1  0  0  0  0
M  END
>  <MODEL>
7

>  <REMARK>
 VINA RESULT:      -7.0      1.794      5.120
  Name = 
  10 active torsions:
  status: ('A' for Active; 'I' for Inactive)
    1  A    between atoms: N_5  and  C_7
    2  A    between atoms: C_7  and  C_32
    3  A    between atoms: C_11  and  C_21
    4  A    between atoms: C_14  and  C_35
    5  A    between atoms: C_20  and  C_31
    6  A    between atoms: C_20  and  C_34
    7  A    between atoms: C_21  and  C_25
    8  A    between atoms: C_25  and  C_31
    9  A    between atoms: C_26  and  C_27
   10  A    between atoms: C_27  and  C_34
                            x       y       z     vdW  Elec       q    Type
                         _______ _______ _______ _____ _____    ______ ____

>  <TORSDO>
F 10

$$$$
=
 OpenBabel11042418003D

 36 40  0  0  1  0  0  0  0  0999 V2000
  184.9030  178.3580  146.5520 C   0  0  0  0  0  3  0  0  0  0  0  0
  185.8840  177.3920  144.5760 C   0  0  0  0  0  0  0  0  0  0  0  0
  184.0530  178.9230  144.4330 N   0  0  0  0  0  0  0  0  0  0  0  0
  185.8780  177.1780  141.7810 C   0  0  0  0  0  3  0  0  0  0  0  0
  185.8550  177.5200  145.9730 C   0  0  0  0  0  0  0  0  0  0  0  0
  186.8080  176.5600  143.9290 C   0  0  0  0  0  3  0  0  0  0  0  0
  184.9530  178.0120  142.4160 C   0  0  0  0  0  3  0  0  0  0  0  0
  184.9530  178.1200  143.8090 C   0  0  0  0  0  0  0  0  0  0  0  0
  184.0300  179.0390  145.7630 N   0  0  0  0  0  0  0  0  0  0  0  0
  186.8090  176.4480  142.5340 C   0  0  0  0  0  0  0  0  0  0  0  0
  187.7810  175.5670  141.8730 C   0  0  0  0  0  0  0  0  0  0  0  0
  188.7900  174.5350  140.3020 N   0  0  0  0  0  0  0  0  0  0  0  0
  187.8220  175.3530  140.5800 O   0  0  0  0  0  0  0  0  0  0  0  0
  188.7450  174.8820  142.5190 N   0  0  0  0  0  0  0  0  0  0  0  0
  189.3450  174.2440  141.4930 C   0  0  0  0  0  0  0  0  0  0  0  0
  190.5400  173.3590  141.6450 C   0  0  2  0  0  3  0  0  0  0  0  0
  191.6770  173.9570  141.0850 O   0  0  0  0  0  1  0  0  0  0  0  0
  191.1940  170.2050  139.8160 C   0  0  0  0  0  2  0  0  0  0  0  0
  190.2840  172.0270  141.0830 N   0  0  0  0  0  0  0  0  0  0  0  0
  190.4530  171.0460  142.1450 C   0  0  0  0  0  2  0  0  0  0  0  0
  190.8280  169.4260  141.4090 S   0  0  0  0  0  0  0  0  0  0  0  0
  191.2620  171.6940  140.0540 C   0  0  0  0  0  2  0  0  0  0  0  0
  186.7990  176.7630  146.8520 C   0  0  0  0  0  2  0  0  0  0  0  0
  188.1050  177.5260  146.9920 C   0  0  0  0  0  2  0  0  0  0  0  0
  188.7600  175.1930  147.1520 N   0  0  0  0  0  1  0  0  0  0  0  0
  189.2670  176.5530  147.1100 C   0  0  1  0  0  3  0  0  0  0  0  0
  190.2120  176.7110  145.9570 C   0  0  0  0  0  0  0  0  0  0  0  0
  189.9220  177.4310  145.0130 O   0  0  0  0  0  0  0  0  0  0  0  0
  191.5350  176.0060  145.9880 C   0  0  0  0  0  2  0  0  0  0  0  0
  191.0690  173.8010  145.0240 N   0  0  0  0  0  1  0  0  0  0  0  0
  191.7490  175.0680  144.7950 C   0  0  2  0  0  3  0  0  0  0  0  0
  194.0570  174.7610  145.7540 C   0  0  0  0  0  2  0  0  0  0  0  0
  195.2910  176.0020  144.0540 C   0  0  0  0  0  2  0  0  0  0  0  0
  193.2320  174.8400  144.4850 C   0  0  0  0  0  3  0  0  0  0  0  0
  195.4170  175.3460  145.4170 C   0  0  0  0  0  2  0  0  0  0  0  0
  193.8180  176.0030  143.7130 C   0  0  0  0  0  2  0  0  0  0  0  0
  2  5  2  0  0  0  0
  3  9  1  0  0  0  0
  4  7  2  0  0  0  0
  4 10  1  0  0  0  0
  5  1  1  0  0  0  0
  5 23  1  0  0  0  0
  6  2  1  0  0  0  0
  7  8  1  0  0  0  0
  8  3  2  0  0  0  0
  8  2  1  0  0  0  0
  9  1  2  0  0  0  0
 10  6  2  0  0  0  0
 11 14  2  0  0  0  0
 11 10  1  0  0  0  0
 12 13  1  0  0  0  0
 12 15  2  0  0  0  0
 13 11  1  0  0  0  0
 15 16  1  0  0  0  0
 15 14  1  0  0  0  0
 16 17  1  6  0  0  0
 18 22  1  0  0  0  0
 18 21  1  0  0  0  0
 19 16  1  0  0  0  0
 19 20  1  0  0  0  0
 21 20  1  0  0  0  0
 22 19  1  0  0  0  0
 23 24  1  0  0  0  0
 24 26  1  0  0  0  0
 26 25  1  6  0  0  0
 27 29  1  0  0  0  0
 27 26  1  0  0  0  0
 28 27  2  0  0  0  0
 31 30  1  1  0  0  0
 31 29  1  0  0  0  0
 33 35  1  0  0  0  0
 34 31  1  0  0  0  0
 34 32  1  0  0  0  0
 35 32  1  0  0  0  0
 36 33  1  0  0  0  0
 36 34  1  0  0  0  0
M  END
>  <MODEL>
8

>  <REMARK>
 VINA RESULT:      -7.0      2.365      5.273
  Name = 
  10 active torsions:
  status: ('A' for Active; 'I' for Inactive)
    1  A    between atoms: N_5  and  C_7
    2  A    between atoms: C_7  and  C_32
    3  A    between atoms: C_11  and  C_21
    4  A    between atoms: C_14  and  C_35
    5  A    between atoms: C_20  and  C_31
    6  A    between atoms: C_20  and  C_34
    7  A    between atoms: C_21  and  C_25
    8  A    between atoms: C_25  and  C_31
    9  A    between atoms: C_26  and  C_27
   10  A    between atoms: C_27  and  C_34
                            x       y       z     vdW  Elec       q    Type
                         _______ _______ _______ _____ _____    ______ ____

>  <TORSDO>
F 10

$$$$
=
 OpenBabel11042418003D

 36 40  0  0  1  0  0  0  0  0999 V2000
  186.0180  178.3480  146.8580 C   0  0  0  0  0  3  0  0  0  0  0  0
  186.5340  177.4040  144.7030 C   0  0  0  0  0  0  0  0  0  0  0  0
  185.2690  179.4230  144.9040 N   0  0  0  0  0  0  0  0  0  0  0  0
  186.3040  177.5780  141.9150 C   0  0  0  0  0  3  0  0  0  0  0  0
  186.6270  177.3470  146.1020 C   0  0  0  0  0  0  0  0  0  0  0  0
  187.1150  176.4260  143.8830 C   0  0  0  0  0  3  0  0  0  0  0  0
  185.7230  178.5600  142.7230 C   0  0  0  0  0  3  0  0  0  0  0  0
  185.8350  178.4760  144.1130 C   0  0  0  0  0  0  0  0  0  0  0  0
  185.3580  179.3610  146.2350 N   0  0  0  0  0  0  0  0  0  0  0  0
  187.0020  176.5080  142.4900 C   0  0  0  0  0  0  0  0  0  0  0  0
  187.6110  175.4700  141.6470 C   0  0  0  0  0  0  0  0  0  0  0  0
  188.3840  174.5220  139.8990 N   0  0  0  0  0  0  0  0  0  0  0  0
  187.8340  175.6020  140.3610 O   0  0  0  0  0  0  0  0  0  0  0  0
  188.0150  174.2670  142.0990 N   0  0  0  0  0  0  0  0  0  0  0  0
  188.4840  173.7060  140.9650 C   0  0  0  0  0  0  0  0  0  0  0  0
  189.1110  172.3500  140.9020 C   0  0  2  0  0  3  0  0  0  0  0  0
  189.3220  171.8390  142.1900 O   0  0  0  0  0  1  0  0  0  0  0  0
  192.4930  171.3670  139.7550 C   0  0  0  0  0  2  0  0  0  0  0  0
  190.3470  172.3780  140.1100 N   0  0  0  0  0  0  0  0  0  0  0  0
  190.0940  171.6920  138.8510 C   0  0  0  0  0  2  0  0  0  0  0  0
  191.6710  171.0990  138.1650 S   0  0  0  0  0  0  0  0  0  0  0  0
  191.4130  171.6390  140.7750 C   0  0  0  0  0  2  0  0  0  0  0  0
  187.3350  176.2290  146.7990 C   0  0  0  0  0  2  0  0  0  0  0  0
  188.8290  176.5050  146.8410 C   0  0  0  0  0  2  0  0  0  0  0  0
  189.5620  174.2870  146.1740 N   0  0  0  0  0  1  0  0  0  0  0  0
  189.5780  175.2520  147.2600 C   0  0  1  0  0  3  0  0  0  0  0  0
  190.9950  175.5780  147.6300 C   0  0  0  0  0  0  0  0  0  0  0  0
  191.5900  174.8990  148.4540 O   0  0  0  0  0  0  0  0  0  0  0  0
  191.6880  176.7220  146.9520 C   0  0  0  0  0  2  0  0  0  0  0  0
  194.0840  176.8480  146.4550 N   0  0  0  0  0  1  0  0  0  0  0  0
  192.8180  176.2760  146.0180 C   0  0  2  0  0  3  0  0  0  0  0  0
  191.6080  177.8120  144.4320 C   0  0  0  0  0  2  0  0  0  0  0  0
  191.0450  176.1580  142.7300 C   0  0  0  0  0  2  0  0  0  0  0  0
  192.5420  176.6240  144.5520 C   0  0  0  0  0  3  0  0  0  0  0  0
  190.7840  177.5840  143.1780 C   0  0  0  0  0  2  0  0  0  0  0  0
  191.8250  175.4950  143.8440 C   0  0  0  0  0  2  0  0  0  0  0  0
  2  5  1  0  0  0  0
  3  9  2  0  0  0  0
  4 10  2  0  0  0  0
  4  7  1  0  0  0  0
  5 23  1  0  0  0  0
  5  1  2  0  0  0  0
  6  2  2  0  0  0  0
  7  8  2  0  0  0  0
  8  2  1  0  0  0  0
  8  3  1  0  0  0  0
  9  1  1  0  0  0  0
 10  6  1  0  0  0  0
 11 14  2  0  0  0  0
 11 10  1  0  0  0  0
 12 13  1  0  0  0  0
 12 15  2  0  0  0  0
 13 11  1  0  0  0  0
 15 14  1  0  0  0  0
 16 15  1  0  0  0  0
 16 17  1  1  0  0  0
 18 22  1  0  0  0  0
 19 22  1  0  0  0  0
 19 16  1  0  0  0  0
 20 19  1  0  0  0  0
 21 20  1  0  0  0  0
 21 18  1  0  0  0  0
 23 24  1  0  0  0  0
 24 26  1  0  0  0  0
 26 25  1  6  0  0  0
 26 27  1  0  0  0  0
 27 28  2  0  0  0  0
 29 27  1  0  0  0  0
 31 30  1  1  0  0  0
 31 29  1  0  0  0  0
 32 34  1  0  0  0  0
 33 35  1  0  0  0  0
 33 36  1  0  0  0  0
 34 31  1  0  0  0  0
 35 32  1  0  0  0  0
 36 34  1  0  0  0  0
M  END
>  <MODEL>
9

>  <REMARK>
 VINA RESULT:      -7.0      2.595      5.875
  Name = 
  10 active torsions:
  status: ('A' for Active; 'I' for Inactive)
    1  A    between atoms: N_5  and  C_7
    2  A    between atoms: C_7  and  C_32
    3  A    between atoms: C_11  and  C_21
    4  A    between atoms: C_14  and  C_35
    5  A    between atoms: C_20  and  C_31
    6  A    between atoms: C_20  and  C_34
    7  A    between atoms: C_21  and  C_25
    8  A    between atoms: C_25  and  C_31
    9  A    between atoms: C_26  and  C_27
   10  A    between atoms: C_27  and  C_34
                            x       y       z     vdW  Elec       q    Type
                         _______ _______ _______ _____ _____    ______ ____

>  <TORSDO>
F 10

$$$$
