=
 OpenBabel11042418243D

 28 33  0  0  1  0  0  0  0  0999 V2000
  183.7920  179.0410  145.3020 O   0  0  0  0  0  1  0  0  0  0  0  0
  191.5570  174.7660  146.2250 C   0  0  0  0  0  2  0  0  0  0  0  0
  187.2430  178.0690  144.6940 C   0  0  0  0  0  0  0  0  0  0  0  0
  189.1250  173.1030  142.8640 C   0  0  0  0  0  0  0  0  0  0  0  0
  185.0000  178.3590  145.3560 C   0  0  0  0  0  0  0  0  0  0  0  0
  188.7140  176.8280  145.0800 C   0  0  1  0  0  0  0  0  0  0  0  0
  189.5020  174.3500  144.9220 C   0  0  0  0  0  0  0  0  0  0  0  0
  191.7790  176.2430  146.5490 C   0  0  2  0  0  3  0  0  0  0  0  0
  186.0880  178.8150  144.5690 C   0  0  0  0  0  3  0  0  0  0  0  0
  188.5570  174.2320  142.2800 C   0  0  0  0  0  3  0  0  0  0  0  0
  188.4600  175.4170  143.0050 C   0  0  0  0  0  3  0  0  0  0  0  0
  186.3190  176.4680  146.3070 C   0  0  0  0  0  3  0  0  0  0  0  0
  190.9080  177.1460  145.6870 C   0  0  0  0  0  2  0  0  0  0  0  0
  189.2190  171.9260  142.1320 O   0  0  0  0  0  1  0  0  0  0  0  0
  188.9360  175.5100  144.3250 C   0  0  0  0  0  0  0  0  0  0  0  0
  190.1690  172.0200  144.7460 O   0  0  0  0  0  1  0  0  0  0  0  0
  190.0860  174.3700  146.3040 C   0  0  0  0  0  2  0  0  0  0  0  0
  189.5980  173.1570  144.1790 C   0  0  0  0  0  0  0  0  0  0  0  0
  185.1170  177.2110  146.2050 C   0  0  0  0  0  3  0  0  0  0  0  0
  188.6240  177.9610  144.2190 N   0  0  0  0  0  2  0  0  0  0  0  0
  187.3550  176.9430  145.5260 C   0  0  0  0  0  0  0  0  0  0  0  0
  189.5880  177.0790  146.1630 O   0  0  0  0  0  0  0  0  0  0  0  0
  193.2370  176.6040  146.3320 C   0  0  0  0  0  2  0  0  0  0  0  0
  195.0690  176.2690  144.9070 C   0  0  1  0  0  3  0  0  0  0  0  0
  193.8670  175.6270  145.4600 N   0  0  0  0  0  0  0  0  0  0  0  0
  195.9130  174.3390  145.1560 C   0  0  0  0  0  2  0  0  0  0  0  0
  195.1910  175.3410  146.0320 C   0  0  1  0  0  3  0  0  0  0  0  0
  195.7870  175.2950  143.9970 C   0  0  0  0  0  2  0  0  0  0  0  0
  1  5  1  0  0  0  0
  2 17  1  0  0  0  0
  2  8  1  0  0  0  0
  3 21  1  0  0  0  0
  4 18  1  0  0  0  0
  5 19  2  0  0  0  0
  6 20  1  6  0  0  0
  6 21  1  0  0  0  0
  6 22  1  0  0  0  0
  7 17  1  0  0  0  0
  8 23  1  6  0  0  0
  9  3  2  0  0  0  0
  9  5  1  0  0  0  0
 10  4  2  0  0  0  0
 10 11  1  0  0  0  0
 11 15  2  0  0  0  0
 13 22  1  0  0  0  0
 13  8  1  0  0  0  0
 14  4  1  0  0  0  0
 15  7  1  0  0  0  0
 15  6  1  0  0  0  0
 18 16  1  0  0  0  0
 18  7  2  0  0  0  0
 19 12  1  0  0  0  0
 20  3  1  0  0  0  0
 21 12  2  0  0  0  0
 24 28  1  6  0  0  0
 24 25  1  0  0  0  0
 24 27  1  0  0  0  0
 25 27  1  0  0  0  0
 25 23  1  0  0  0  0
 27 26  1  6  0  0  0
 28 26  1  0  0  0  0
M  END
>  <MODEL>
1

>  <REMARK>
 VINA RESULT:      -8.5      0.000      0.000
  Name = 
  2 active torsions:
  status: ('A' for Active; 'I' for Inactive)
    1  A    between atoms: N_3  and  C_10
    2  A    between atoms: C_10  and  C_12
                            x       y       z     vdW  Elec       q    Type
                         _______ _______ _______ _____ _____    ______ ____

>  <TORSDO>
F 2

$$$$
=
 OpenBabel11042418243D

 28 33  0  0  1  0  0  0  0  0999 V2000
  197.4560  174.5200  144.7280 O   0  0  0  0  0  1  0  0  0  0  0  0
  188.9950  177.3170  144.6980 C   0  0  0  0  0  2  0  0  0  0  0  0
  193.9090  174.6660  145.5200 C   0  0  0  0  0  0  0  0  0  0  0  0
  189.5900  173.7720  142.0420 C   0  0  0  0  0  0  0  0  0  0  0  0
  196.1120  174.8700  144.7080 C   0  0  0  0  0  0  0  0  0  0  0  0
  192.1510  175.4500  145.1380 C   0  0  1  0  0  0  0  0  0  0  0  0
  190.2870  175.7140  143.3380 C   0  0  0  0  0  0  0  0  0  0  0  0
  189.5610  177.5110  146.1050 C   0  0  2  0  0  3  0  0  0  0  0  0
  195.2220  174.2500  145.6210 C   0  0  0  0  0  3  0  0  0  0  0  0
  190.4780  172.9730  142.7570 C   0  0  0  0  0  3  0  0  0  0  0  0
  191.2690  173.5330  143.7570 C   0  0  0  0  0  3  0  0  0  0  0  0
  194.3030  176.2500  143.6880 C   0  0  0  0  0  3  0  0  0  0  0  0
  190.5450  176.4100  146.4720 C   0  0  0  0  0  2  0  0  0  0  0  0
  188.8050  173.2050  141.0470 O   0  0  0  0  0  1  0  0  0  0  0  0
  191.1850  174.8990  144.0790 C   0  0  0  0  0  0  0  0  0  0  0  0
  188.5920  175.9220  141.6090 O   0  0  0  0  0  1  0  0  0  0  0  0
  190.0900  177.1690  143.6480 C   0  0  0  0  0  2  0  0  0  0  0  0
  189.4900  175.1380  142.3290 C   0  0  0  0  0  0  0  0  0  0  0  0
  195.6600  175.8470  143.7640 C   0  0  0  0  0  3  0  0  0  0  0  0
  192.5720  174.4680  146.0810 N   0  0  0  0  0  2  0  0  0  0  0  0
  193.4670  175.6240  144.5920 C   0  0  0  0  0  0  0  0  0  0  0  0
  191.7480  176.6400  145.7870 O   0  0  0  0  0  0  0  0  0  0  0  0
  188.4300  177.5260  147.1180 C   0  0  0  0  0  2  0  0  0  0  0  0
  186.1740  176.8920  147.0650 C   0  0  1  0  0  3  0  0  0  0  0  0
  187.1660  177.7840  146.4480 N   0  0  0  0  0  0  0  0  0  0  0  0
  184.8930  178.5670  146.8420 C   0  0  0  0  0  2  0  0  0  0  0  0
  186.2430  178.2950  147.4720 C   0  0  1  0  0  3  0  0  0  0  0  0
  184.8220  177.1210  146.4230 C   0  0  0  0  0  2  0  0  0  0  0  0
  2  8  1  0  0  0  0
  3  9  1  0  0  0  0
  3 20  1  0  0  0  0
  4 18  2  0  0  0  0
  4 10  1  0  0  0  0
  5  1  1  0  0  0  0
  5  9  2  0  0  0  0
  6 15  1  6  0  0  0
  6 22  1  0  0  0  0
  6 20  1  0  0  0  0
  7 17  1  0  0  0  0
  7 15  2  0  0  0  0
  8 13  1  0  0  0  0
  8 23  1  1  0  0  0
 10 11  2  0  0  0  0
 11 15  1  0  0  0  0
 12 19  2  0  0  0  0
 12 21  1  0  0  0  0
 14  4  1  0  0  0  0
 16 18  1  0  0  0  0
 17  2  1  0  0  0  0
 18  7  1  0  0  0  0
 19  5  1  0  0  0  0
 21  6  1  0  0  0  0
 21  3  2  0  0  0  0
 22 13  1  0  0  0  0
 24 28  1  6  0  0  0
 24 27  1  0  0  0  0
 25 24  1  0  0  0  0
 25 23  1  0  0  0  0
 25 27  1  0  0  0  0
 27 26  1  6  0  0  0
 28 26  1  0  0  0  0
M  END
>  <MODEL>
2

>  <REMARK>
 VINA RESULT:      -7.9      2.231      7.102
  Name = 
  2 active torsions:
  status: ('A' for Active; 'I' for Inactive)
    1  A    between atoms: N_3  and  C_10
    2  A    between atoms: C_10  and  C_12
                            x       y       z     vdW  Elec       q    Type
                         _______ _______ _______ _____ _____    ______ ____

>  <TORSDO>
F 2

$$$$
=
 OpenBabel11042418243D

 28 33  0  0  1  0  0  0  0  0999 V2000
  194.7890  175.6460  146.5020 O   0  0  0  0  0  1  0  0  0  0  0  0
  187.3040  177.7360  142.1420 C   0  0  0  0  0  2  0  0  0  0  0  0
  191.2440  175.8590  145.7210 C   0  0  0  0  0  0  0  0  0  0  0  0
  188.5500  173.5110  141.3880 C   0  0  0  0  0  0  0  0  0  0  0  0
  193.5980  175.8840  145.8300 C   0  0  0  0  0  0  0  0  0  0  0  0
  189.8530  176.3460  144.4240 C   0  0  1  0  0  0  0  0  0  0  0  0
  188.8670  175.8270  142.0690 C   0  0  0  0  0  0  0  0  0  0  0  0
  187.2950  178.4610  143.4880 C   0  0  2  0  0  3  0  0  0  0  0  0
  192.3690  175.5870  146.4730 C   0  0  0  0  0  3  0  0  0  0  0  0
  189.0130  173.0790  142.6280 C   0  0  0  0  0  3  0  0  0  0  0  0
  189.4010  174.0100  143.5890 C   0  0  0  0  0  3  0  0  0  0  0  0
  192.4640  176.6900  143.7610 C   0  0  0  0  0  3  0  0  0  0  0  0
  187.9520  177.6290  144.5790 C   0  0  0  0  0  2  0  0  0  0  0  0
  188.1630  172.5750  140.4370 O   0  0  0  0  0  1  0  0  0  0  0  0
  189.3270  175.3920  143.3420 C   0  0  0  0  0  0  0  0  0  0  0  0
  188.0030  175.2930  139.8620 O   0  0  0  0  0  1  0  0  0  0  0  0
  188.7020  177.2810  141.7370 C   0  0  0  0  0  2  0  0  0  0  0  0
  188.4740  174.8790  141.1050 C   0  0  0  0  0  0  0  0  0  0  0  0
  193.6400  176.4240  144.5040 C   0  0  0  0  0  3  0  0  0  0  0  0
  189.7810  175.8000  145.7390 N   0  0  0  0  0  2  0  0  0  0  0  0
  191.2880  176.3870  144.4200 C   0  0  0  0  0  0  0  0  0  0  0  0
  189.3430  177.6640  144.3920 O   0  0  0  0  0  0  0  0  0  0  0  0
  185.8670  178.7750  143.8940 C   0  0  0  0  0  2  0  0  0  0  0  0
  185.4520  179.2240  146.1570 C   0  0  1  0  0  3  0  0  0  0  0  0
  185.5610  178.1440  145.1660 N   0  0  0  0  0  0  0  0  0  0  0  0
  183.8680  178.0350  146.9150 C   0  0  0  0  0  2  0  0  0  0  0  0
  184.2410  178.6430  145.5790 C   0  0  1  0  0  3  0  0  0  0  0  0
  185.1160  178.6350  147.5100 C   0  0  0  0  0  2  0  0  0  0  0  0
  2  8  1  0  0  0  0
  3 20  1  0  0  0  0
  3  9  1  0  0  0  0
  4 10  1  0  0  0  0
  5  9  2  0  0  0  0
  5  1  1  0  0  0  0
  6 15  1  6  0  0  0
  6 20  1  0  0  0  0
  7 15  2  0  0  0  0
  8 23  1  1  0  0  0
  8 13  1  0  0  0  0
 10 11  2  0  0  0  0
 12 21  1  0  0  0  0
 12 19  2  0  0  0  0
 14  4  1  0  0  0  0
 15 11  1  0  0  0  0
 16 18  1  0  0  0  0
 17  7  1  0  0  0  0
 17  2  1  0  0  0  0
 18  4  2  0  0  0  0
 18  7  1  0  0  0  0
 19  5  1  0  0  0  0
 21  6  1  0  0  0  0
 21  3  2  0  0  0  0
 22  6  1  0  0  0  0
 22 13  1  0  0  0  0
 23 25  1  0  0  0  0
 24 28  1  1  0  0  0
 25 27  1  0  0  0  0
 25 24  1  0  0  0  0
 26 28  1  0  0  0  0
 27 24  1  0  0  0  0
 27 26  1  1  0  0  0
M  END
>  <MODEL>
3

>  <REMARK>
 VINA RESULT:      -7.8      2.228      6.841
  Name = 
  2 active torsions:
  status: ('A' for Active; 'I' for Inactive)
    1  A    between atoms: N_3  and  C_10
    2  A    between atoms: C_10  and  C_12
                            x       y       z     vdW  Elec       q    Type
                         _______ _______ _______ _____ _____    ______ ____

>  <TORSDO>
F 2

$$$$
=
 OpenBabel11042418243D

 28 33  0  0  1  0  0  0  0  0999 V2000
  190.3480  171.4140  139.5160 O   0  0  0  0  0  1  0  0  0  0  0  0
  188.7160  176.0880  146.9250 C   0  0  0  0  0  2  0  0  0  0  0  0
  189.8900  174.2780  141.7090 C   0  0  0  0  0  0  0  0  0  0  0  0
  193.0930  175.7930  146.0680 C   0  0  0  0  0  0  0  0  0  0  0  0
  190.1700  172.1900  140.6530 C   0  0  0  0  0  0  0  0  0  0  0  0
  189.6510  174.9510  143.5380 C   0  0  1  0  0  0  0  0  0  0  0  0
  190.7510  175.1480  145.8910 C   0  0  0  0  0  0  0  0  0  0  0  0
  187.6050  176.3810  145.9170 C   0  0  2  0  0  3  0  0  0  0  0  0
  190.0660  173.5980  140.5210 C   0  0  0  0  0  3  0  0  0  0  0  0
  193.1650  175.9220  144.6840 C   0  0  0  0  0  3  0  0  0  0  0  0
  192.0420  175.6680  143.9000 C   0  0  0  0  0  3  0  0  0  0  0  0
  189.9170  172.2790  143.1320 C   0  0  0  0  0  3  0  0  0  0  0  0
  188.1280  176.3860  144.4880 C   0  0  0  0  0  2  0  0  0  0  0  0
  194.2190  176.0490  146.8400 O   0  0  0  0  0  1  0  0  0  0  0  0
  190.8160  175.2920  144.4780 C   0  0  0  0  0  0  0  0  0  0  0  0
  191.8350  175.2910  148.0610 O   0  0  0  0  0  1  0  0  0  0  0  0
  189.4730  174.8050  146.5980 C   0  0  0  0  0  2  0  0  0  0  0  0
  191.8920  175.4090  146.6740 C   0  0  0  0  0  0  0  0  0  0  0  0
  190.0960  171.5480  141.9310 C   0  0  0  0  0  3  0  0  0  0  0  0
  189.7300  175.6170  142.2800 N   0  0  0  0  0  2  0  0  0  0  0  0
  189.8200  173.6460  142.9630 C   0  0  0  0  0  0  0  0  0  0  0  0
  188.3540  175.0580  144.0900 O   0  0  0  0  0  0  0  0  0  0  0  0
  186.9750  177.7270  146.2210 C   0  0  0  0  0  2  0  0  0  0  0  0
  184.8820  178.1220  145.2410 C   0  0  1  0  0  3  0  0  0  0  0  0
  186.3310  178.2560  145.0300 N   0  0  0  0  0  0  0  0  0  0  0  0
  184.8160  180.0030  144.2630 C   0  0  0  0  0  2  0  0  0  0  0  0
  185.5330  179.4140  145.4600 C   0  0  1  0  0  3  0  0  0  0  0  0
  184.1450  178.6720  144.0380 C   0  0  0  0  0  2  0  0  0  0  0  0
  1  5  1  0  0  0  0
  3 20  1  0  0  0  0
  3 21  1  0  0  0  0
  4 18  1  0  0  0  0
  4 14  1  0  0  0  0
  5 19  2  0  0  0  0
  6 20  1  6  0  0  0
  6 22  1  0  0  0  0
  6 15  1  0  0  0  0
  7 17  1  0  0  0  0
  7 18  2  0  0  0  0
  8 23  1  1  0  0  0
  8  2  1  0  0  0  0
  9  5  1  0  0  0  0
  9  3  2  0  0  0  0
 10  4  2  0  0  0  0
 11 15  2  0  0  0  0
 11 10  1  0  0  0  0
 13  8  1  0  0  0  0
 15  7  1  0  0  0  0
 17  2  1  0  0  0  0
 18 16  1  0  0  0  0
 19 12  1  0  0  0  0
 21 12  2  0  0  0  0
 21  6  1  0  0  0  0
 22 13  1  0  0  0  0
 24 28  1  6  0  0  0
 24 27  1  0  0  0  0
 25 24  1  0  0  0  0
 25 27  1  0  0  0  0
 25 23  1  0  0  0  0
 27 26  1  6  0  0  0
 28 26  1  0  0  0  0
M  END
>  <MODEL>
4

>  <REMARK>
 VINA RESULT:      -7.7      2.356      6.891
  Name = 
  2 active torsions:
  status: ('A' for Active; 'I' for Inactive)
    1  A    between atoms: N_3  and  C_10
    2  A    between atoms: C_10  and  C_12
                            x       y       z     vdW  Elec       q    Type
                         _______ _______ _______ _____ _____    ______ ____

>  <TORSDO>
F 2

$$$$
=
 OpenBabel11042418243D

 28 33  0  0  1  0  0  0  0  0999 V2000
  185.5800  177.9690  146.0820 O   0  0  0  0  0  1  0  0  0  0  0  0
  193.8830  174.8260  145.3120 C   0  0  0  0  0  2  0  0  0  0  0  0
  188.8590  177.3120  144.6520 C   0  0  0  0  0  0  0  0  0  0  0  0
  190.9460  172.3610  143.0160 C   0  0  0  0  0  0  0  0  0  0  0  0
  186.8510  177.4490  145.8790 C   0  0  0  0  0  0  0  0  0  0  0  0
  190.5550  176.3300  144.7630 C   0  0  1  0  0  0  0  0  0  0  0  0
  191.6500  173.9670  144.7070 C   0  0  0  0  0  0  0  0  0  0  0  0
  193.9500  176.3520  145.3680 C   0  0  2  0  0  3  0  0  0  0  0  0
  187.6100  177.8900  144.7650 C   0  0  0  0  0  3  0  0  0  0  0  0
  190.0760  173.3050  142.4770 C   0  0  0  0  0  3  0  0  0  0  0  0
  189.9880  174.5750  143.0430 C   0  0  0  0  0  3  0  0  0  0  0  0
  188.6510  175.9060  146.6530 C   0  0  0  0  0  3  0  0  0  0  0  0
  192.7540  176.9930  144.6800 C   0  0  0  0  0  2  0  0  0  0  0  0
  191.0270  171.0970  142.4450 O   0  0  0  0  0  1  0  0  0  0  0  0
  190.7730  174.9390  144.1510 C   0  0  0  0  0  0  0  0  0  0  0  0
  192.6020  171.7320  144.6490 O   0  0  0  0  0  1  0  0  0  0  0  0
  192.5650  174.2830  145.8530 C   0  0  0  0  0  2  0  0  0  0  0  0
  191.7330  172.6860  144.1260 C   0  0  0  0  0  0  0  0  0  0  0  0
  187.3630  176.4790  146.8000 C   0  0  0  0  0  3  0  0  0  0  0  0
  190.0670  177.2860  143.8250 N   0  0  0  0  0  2  0  0  0  0  0  0
  189.3590  176.3600  145.5570 C   0  0  0  0  0  0  0  0  0  0  0  0
  191.6320  176.8550  145.5130 O   0  0  0  0  0  0  0  0  0  0  0  0
  195.2250  176.8370  144.7030 C   0  0  0  0  0  2  0  0  0  0  0  0
  195.6940  176.3510  142.4580 C   0  0  1  0  0  3  0  0  0  0  0  0
  195.7500  175.8070  143.8230 N   0  0  0  0  0  0  0  0  0  0  0  0
  197.5460  175.3410  142.2440 C   0  0  0  0  0  2  0  0  0  0  0  0
  196.9580  176.3620  143.1940 C   0  0  1  0  0  3  0  0  0  0  0  0
  196.2430  175.3300  141.4850 C   0  0  0  0  0  2  0  0  0  0  0  0
  2  8  1  0  0  0  0
  2 17  1  0  0  0  0
  3  9  2  0  0  0  0
  3 21  1  0  0  0  0
  4 18  1  0  0  0  0
  5  1  1  0  0  0  0
  5 19  2  0  0  0  0
  6 20  1  6  0  0  0
  6 22  1  0  0  0  0
  6 21  1  0  0  0  0
  7 17  1  0  0  0  0
  8 23  1  6  0  0  0
  9  5  1  0  0  0  0
 10  4  2  0  0  0  0
 10 11  1  0  0  0  0
 11 15  2  0  0  0  0
 12 19  1  0  0  0  0
 13  8  1  0  0  0  0
 13 22  1  0  0  0  0
 14  4  1  0  0  0  0
 15  7  1  0  0  0  0
 15  6  1  0  0  0  0
 18 16  1  0  0  0  0
 18  7  2  0  0  0  0
 20  3  1  0  0  0  0
 21 12  2  0  0  0  0
 24 28  1  6  0  0  0
 24 27  1  0  0  0  0
 24 25  1  0  0  0  0
 25 23  1  0  0  0  0
 27 26  1  6  0  0  0
 27 25  1  0  0  0  0
 28 26  1  0  0  0  0
M  END
>  <MODEL>
5

>  <REMARK>
 VINA RESULT:      -7.3      1.723      2.315
  Name = 
  2 active torsions:
  status: ('A' for Active; 'I' for Inactive)
    1  A    between atoms: N_3  and  C_10
    2  A    between atoms: C_10  and  C_12
                            x       y       z     vdW  Elec       q    Type
                         _______ _______ _______ _____ _____    ______ ____

>  <TORSDO>
F 2

$$$$
=
 OpenBabel11042418243D

 28 33  0  0  1  0  0  0  0  0999 V2000
  197.6590  176.3390  143.1390 O   0  0  0  0  0  1  0  0  0  0  0  0
  188.8240  175.7560  144.1440 C   0  0  0  0  0  2  0  0  0  0  0  0
  194.4420  175.5800  144.6560 C   0  0  0  0  0  0  0  0  0  0  0  0
  190.6210  171.8620  142.8900 C   0  0  0  0  0  0  0  0  0  0  0  0
  196.2940  176.1600  143.3190 C   0  0  0  0  0  0  0  0  0  0  0  0
  192.4930  175.4680  144.4530 C   0  0  1  0  0  0  0  0  0  0  0  0
  190.5530  174.2780  143.1860 C   0  0  0  0  0  0  0  0  0  0  0  0
  189.3670  176.7150  145.2040 C   0  0  2  0  0  3  0  0  0  0  0  0
  195.8130  175.7270  144.5800 C   0  0  0  0  0  3  0  0  0  0  0  0
  191.8130  171.8040  143.6070 C   0  0  0  0  0  3  0  0  0  0  0  0
  192.3770  172.9710  144.1160 C   0  0  0  0  0  3  0  0  0  0  0  0
  194.0040  176.2560  142.3380 C   0  0  0  0  0  3  0  0  0  0  0  0
  190.7430  176.2900  145.6950 C   0  0  0  0  0  2  0  0  0  0  0  0
  190.0660  170.6910  142.3880 O   0  0  0  0  0  1  0  0  0  0  0  0
  191.7620  174.2220  143.9320 C   0  0  0  0  0  0  0  0  0  0  0  0
  188.7950  173.1300  141.9630 O   0  0  0  0  0  1  0  0  0  0  0  0
  189.7980  175.5590  142.9870 C   0  0  0  0  0  2  0  0  0  0  0  0
  189.9890  173.0910  142.6780 C   0  0  0  0  0  0  0  0  0  0  0  0
  195.4070  176.4180  142.2250 C   0  0  0  0  0  3  0  0  0  0  0  0
  193.3540  175.1950  145.5560 N   0  0  0  0  0  2  0  0  0  0  0  0
  193.5740  175.8330  143.5810 C   0  0  0  0  0  0  0  0  0  0  0  0
  191.6870  176.6020  144.7040 O   0  0  0  0  0  0  0  0  0  0  0  0
  188.4130  176.7720  146.3830 C   0  0  0  0  0  2  0  0  0  0  0  0
  186.0700  176.7910  146.4330 C   0  0  1  0  0  3  0  0  0  0  0  0
  187.2510  177.5750  146.0450 N   0  0  0  0  0  0  0  0  0  0  0  0
  185.3120  178.6820  147.0210 C   0  0  0  0  0  2  0  0  0  0  0  0
  186.5510  177.8600  147.3070 C   0  0  1  0  0  3  0  0  0  0  0  0
  184.8160  177.5800  146.1210 C   0  0  0  0  0  2  0  0  0  0  0  0
  1  5  1  0  0  0  0
  2  8  1  0  0  0  0
  3 20  1  0  0  0  0
  4 10  1  0  0  0  0
  5  9  2  0  0  0  0
  6 21  1  6  0  0  0
  6 22  1  0  0  0  0
  6 20  1  0  0  0  0
  7 15  2  0  0  0  0
  8 13  1  0  0  0  0
  8 23  1  1  0  0  0
  9  3  1  0  0  0  0
 10 11  2  0  0  0  0
 12 21  1  0  0  0  0
 14  4  1  0  0  0  0
 15 11  1  0  0  0  0
 15  6  1  0  0  0  0
 16 18  1  0  0  0  0
 17  7  1  0  0  0  0
 17  2  1  0  0  0  0
 18  4  2  0  0  0  0
 18  7  1  0  0  0  0
 19 12  2  0  0  0  0
 19  5  1  0  0  0  0
 21  3  2  0  0  0  0
 22 13  1  0  0  0  0
 24 28  1  6  0  0  0
 24 27  1  0  0  0  0
 25 23  1  0  0  0  0
 25 24  1  0  0  0  0
 25 27  1  0  0  0  0
 27 26  1  6  0  0  0
 28 26  1  0  0  0  0
M  END
>  <MODEL>
6

>  <REMARK>
 VINA RESULT:      -7.2      2.343      7.094
  Name = 
  2 active torsions:
  status: ('A' for Active; 'I' for Inactive)
    1  A    between atoms: N_3  and  C_10
    2  A    between atoms: C_10  and  C_12
                            x       y       z     vdW  Elec       q    Type
                         _______ _______ _______ _____ _____    ______ ____

>  <TORSDO>
F 2

$$$$
=
 OpenBabel11042418243D

 28 33  0  0  1  0  0  0  0  0999 V2000
  185.5290  178.5740  147.0090 O   0  0  0  0  0  1  0  0  0  0  0  0
  191.9510  173.8400  143.0410 C   0  0  0  0  0  2  0  0  0  0  0  0
  188.0820  176.0320  146.5170 C   0  0  0  0  0  0  0  0  0  0  0  0
  193.6140  176.8110  145.9360 C   0  0  0  0  0  0  0  0  0  0  0  0
  186.5790  177.8470  146.4670 C   0  0  0  0  0  0  0  0  0  0  0  0
  189.5500  175.3410  145.4110 C   0  0  1  0  0  0  0  0  0  0  0  0
  191.9230  175.8540  144.4670 C   0  0  0  0  0  0  0  0  0  0  0  0
  190.7450  172.9260  143.2600 C   0  0  2  0  0  3  0  0  0  0  0  0
  187.0350  176.6830  147.1370 C   0  0  0  0  0  3  0  0  0  0  0  0
  192.7190  176.7670  147.0010 C   0  0  0  0  0  3  0  0  0  0  0  0
  191.4320  176.2710  146.8090 C   0  0  0  0  0  3  0  0  0  0  0  0
  188.2530  177.5970  144.6350 C   0  0  0  0  0  3  0  0  0  0  0  0
  190.0120  173.2610  144.5500 C   0  0  0  0  0  2  0  0  0  0  0  0
  194.8960  177.3070  146.1370 O   0  0  0  0  0  1  0  0  0  0  0  0
  191.0100  175.7940  145.5560 C   0  0  0  0  0  0  0  0  0  0  0  0
  194.1330  176.4000  143.6190 O   0  0  0  0  0  1  0  0  0  0  0  0
  191.5790  175.3170  143.1090 C   0  0  0  0  0  2  0  0  0  0  0  0
  193.2230  176.3550  144.6720 C   0  0  0  0  0  0  0  0  0  0  0  0
  187.1770  178.2910  145.2430 C   0  0  0  0  0  3  0  0  0  0  0  0
  188.9800  174.8820  146.6340 N   0  0  0  0  0  2  0  0  0  0  0  0
  188.6680  176.4700  145.3170 C   0  0  0  0  0  0  0  0  0  0  0  0
  189.2790  174.4430  144.3540 O   0  0  0  0  0  0  0  0  0  0  0  0
  191.1980  171.4780  143.3060 C   0  0  0  0  0  2  0  0  0  0  0  0
  191.4640  170.7520  141.0930 C   0  0  1  0  0  3  0  0  0  0  0  0
  190.5530  170.7210  142.2460 N   0  0  0  0  0  0  0  0  0  0  0  0
  190.8160  168.7480  140.8410 C   0  0  0  0  0  2  0  0  0  0  0  0
  191.4240  169.5720  141.9570 C   0  0  1  0  0  3  0  0  0  0  0  0
  190.8590  169.9640  139.9510 C   0  0  0  0  0  2  0  0  0  0  0  0
  2 17  1  0  0  0  0
  2  8  1  0  0  0  0
  3 20  1  0  0  0  0
  3  9  1  0  0  0  0
  4 14  1  0  0  0  0
  4 10  1  0  0  0  0
  5  1  1  0  0  0  0
  5  9  2  0  0  0  0
  6 22  1  6  0  0  0
  6 15  1  0  0  0  0
  6 20  1  0  0  0  0
  7 18  1  0  0  0  0
  7 15  2  0  0  0  0
  8 23  1  1  0  0  0
  8 13  1  0  0  0  0
 11 10  2  0  0  0  0
 12 19  2  0  0  0  0
 12 21  1  0  0  0  0
 15 11  1  0  0  0  0
 16 18  1  0  0  0  0
 17  7  1  0  0  0  0
 18  4  2  0  0  0  0
 19  5  1  0  0  0  0
 21  6  1  0  0  0  0
 21  3  2  0  0  0  0
 22 13  1  0  0  0  0
 24 28  1  6  0  0  0
 24 27  1  0  0  0  0
 24 25  1  0  0  0  0
 25 23  1  0  0  0  0
 27 26  1  6  0  0  0
 27 25  1  0  0  0  0
 28 26  1  0  0  0  0
M  END
>  <MODEL>
7

>  <REMARK>
 VINA RESULT:      -7.0      3.003      5.198
  Name = 
  2 active torsions:
  status: ('A' for Active; 'I' for Inactive)
    1  A    between atoms: N_3  and  C_10
    2  A    between atoms: C_10  and  C_12
                            x       y       z     vdW  Elec       q    Type
                         _______ _______ _______ _____ _____    ______ ____

>  <TORSDO>
F 2

$$$$
=
 OpenBabel11042418243D

 28 33  0  0  1  0  0  0  0  0999 V2000
  188.3590  175.0110  147.5830 O   0  0  0  0  0  1  0  0  0  0  0  0
  196.4510  175.5300  143.8880 C   0  0  0  0  0  2  0  0  0  0  0  0
  191.0120  174.6620  145.1200 C   0  0  0  0  0  0  0  0  0  0  0  0
  195.5980  171.4380  145.4690 C   0  0  0  0  0  0  0  0  0  0  0  0
  189.6120  175.0040  146.9850 C   0  0  0  0  0  0  0  0  0  0  0  0
  192.9270  174.7910  144.7090 C   0  0  1  0  0  0  0  0  0  0  0  0
  195.2890  173.8450  145.2680 C   0  0  0  0  0  0  0  0  0  0  0  0
  195.4990  176.4170  143.0870 C   0  0  2  0  0  3  0  0  0  0  0  0
  189.7250  174.6380  145.6200 C   0  0  0  0  0  3  0  0  0  0  0  0
  194.2580  171.2360  145.1500 C   0  0  0  0  0  3  0  0  0  0  0  0
  193.4320  172.3270  144.8900 C   0  0  0  0  0  3  0  0  0  0  0  0
  192.0660  175.3780  147.2170 C   0  0  0  0  0  3  0  0  0  0  0  0
  194.0980  175.8270  143.0250 C   0  0  0  0  0  2  0  0  0  0  0  0
  196.4140  170.3430  145.7260 O   0  0  0  0  0  1  0  0  0  0  0  0
  193.9230  173.6430  144.9280 C   0  0  0  0  0  0  0  0  0  0  0  0
  197.4610  172.9190  145.8410 O   0  0  0  0  0  1  0  0  0  0  0  0
  195.9140  175.2090  145.2780 C   0  0  0  0  0  2  0  0  0  0  0  0
  196.1170  172.7350  145.5270 C   0  0  0  0  0  0  0  0  0  0  0  0
  190.7590  175.3650  147.7630 C   0  0  0  0  0  3  0  0  0  0  0  0
  191.8050  174.4180  143.9140 N   0  0  0  0  0  2  0  0  0  0  0  0
  192.1360  175.0160  145.8860 C   0  0  0  0  0  0  0  0  0  0  0  0
  193.4780  176.0170  144.2700 O   0  0  0  0  0  0  0  0  0  0  0  0
  196.0260  176.5960  141.6750 C   0  0  0  0  0  2  0  0  0  0  0  0
  196.0040  175.1410  139.8370 C   0  0  1  0  0  3  0  0  0  0  0  0
  196.5640  175.3400  141.1820 N   0  0  0  0  0  0  0  0  0  0  0  0
  197.9390  174.3860  139.4110 C   0  0  0  0  0  2  0  0  0  0  0  0
  197.3630  175.6610  139.9890 C   0  0  1  0  0  3  0  0  0  0  0  0
  196.5390  173.8510  139.2540 C   0  0  0  0  0  2  0  0  0  0  0  0
  2 17  1  0  0  0  0
  3  9  2  0  0  0  0
  3 21  1  0  0  0  0
  4 18  1  0  0  0  0
  4 14  1  0  0  0  0
  5  1  1  0  0  0  0
  5 19  2  0  0  0  0
  6 20  1  6  0  0  0
  6 15  1  0  0  0  0
  6 21  1  0  0  0  0
  7 17  1  0  0  0  0
  7 18  2  0  0  0  0
  8 23  1  6  0  0  0
  8  2  1  0  0  0  0
  9  5  1  0  0  0  0
 10  4  2  0  0  0  0
 11 15  2  0  0  0  0
 11 10  1  0  0  0  0
 12 19  1  0  0  0  0
 13  8  1  0  0  0  0
 13 22  1  0  0  0  0
 15  7  1  0  0  0  0
 18 16  1  0  0  0  0
 20  3  1  0  0  0  0
 21 12  2  0  0  0  0
 22  6  1  0  0  0  0
 24 28  1  6  0  0  0
 24 27  1  0  0  0  0
 24 25  1  0  0  0  0
 25 23  1  0  0  0  0
 27 26  1  6  0  0  0
 27 25  1  0  0  0  0
 28 26  1  0  0  0  0
M  END
>  <MODEL>
8

>  <REMARK>
 VINA RESULT:      -6.9      3.480      5.870
  Name = 
  2 active torsions:
  status: ('A' for Active; 'I' for Inactive)
    1  A    between atoms: N_3  and  C_10
    2  A    between atoms: C_10  and  C_12
                            x       y       z     vdW  Elec       q    Type
                         _______ _______ _______ _____ _____    ______ ____

>  <TORSDO>
F 2

$$$$
=
 OpenBabel11042418243D

 28 33  0  0  1  0  0  0  0  0999 V2000
  185.5640  178.5060  147.0360 O   0  0  0  0  0  1  0  0  0  0  0  0
  191.9580  173.8010  142.9880 C   0  0  0  0  0  2  0  0  0  0  0  0
  188.1260  175.9790  146.5140 C   0  0  0  0  0  0  0  0  0  0  0  0
  193.6440  176.7900  145.8510 C   0  0  0  0  0  0  0  0  0  0  0  0
  186.6110  177.7840  146.4800 C   0  0  0  0  0  0  0  0  0  0  0  0
  189.5810  175.2940  145.3890 C   0  0  1  0  0  0  0  0  0  0  0  0
  191.9380  175.8190  144.4090 C   0  0  0  0  0  0  0  0  0  0  0  0
  190.7610  172.8800  143.2270 C   0  0  2  0  0  3  0  0  0  0  0  0
  187.0830  176.6250  147.1470 C   0  0  0  0  0  3  0  0  0  0  0  0
  192.7640  176.7440  146.9280 C   0  0  0  0  0  3  0  0  0  0  0  0
  191.4780  176.2390  146.7570 C   0  0  0  0  0  3  0  0  0  0  0  0
  188.2590  177.5400  144.6250 C   0  0  0  0  0  3  0  0  0  0  0  0
  190.0450  173.2150  144.5260 C   0  0  0  0  0  2  0  0  0  0  0  0
  194.9250  177.2950  146.0320 O   0  0  0  0  0  1  0  0  0  0  0  0
  191.0400  175.7570  145.5110 C   0  0  0  0  0  0  0  0  0  0  0  0
  194.1320  176.3770  143.5280 O   0  0  0  0  0  1  0  0  0  0  0  0
  191.5780  175.2760  143.0580 C   0  0  0  0  0  2  0  0  0  0  0  0
  193.2380  176.3290  144.5940 C   0  0  0  0  0  0  0  0  0  0  0  0
  187.1880  178.2280  145.2470 C   0  0  0  0  0  3  0  0  0  0  0  0
  189.0320  174.8350  146.6210 N   0  0  0  0  0  2  0  0  0  0  0  0
  188.6920  176.4180  145.3050 C   0  0  0  0  0  0  0  0  0  0  0  0
  189.3010  174.3910  144.3380 O   0  0  0  0  0  0  0  0  0  0  0  0
  191.2230  171.4360  143.2700 C   0  0  0  0  0  2  0  0  0  0  0  0
  192.8050  170.0250  144.2710 C   0  0  1  0  0  3  0  0  0  0  0  0
  192.6070  171.3690  143.7100 N   0  0  0  0  0  0  0  0  0  0  0  0
  194.7010  170.1820  143.3340 C   0  0  0  0  0  2  0  0  0  0  0  0
  193.2540  170.3180  142.9100 C   0  0  1  0  0  3  0  0  0  0  0  0
  194.2380  169.8800  144.7360 C   0  0  0  0  0  2  0  0  0  0  0  0
  2 17  1  0  0  0  0
  2  8  1  0  0  0  0
  3 20  1  0  0  0  0
  3  9  1  0  0  0  0
  4 14  1  0  0  0  0
  4 10  1  0  0  0  0
  5  1  1  0  0  0  0
  5  9  2  0  0  0  0
  6 22  1  6  0  0  0
  6 15  1  0  0  0  0
  6 20  1  0  0  0  0
  7 18  1  0  0  0  0
  7 15  2  0  0  0  0
  8 23  1  1  0  0  0
  8 13  1  0  0  0  0
 11 10  2  0  0  0  0
 12 19  2  0  0  0  0
 12 21  1  0  0  0  0
 15 11  1  0  0  0  0
 16 18  1  0  0  0  0
 17  7  1  0  0  0  0
 18  4  2  0  0  0  0
 19  5  1  0  0  0  0
 21  6  1  0  0  0  0
 21  3  2  0  0  0  0
 22 13  1  0  0  0  0
 23 25  1  0  0  0  0
 24 28  1  1  0  0  0
 25 24  1  0  0  0  0
 26 28  1  0  0  0  0
 27 26  1  1  0  0  0
 27 25  1  0  0  0  0
 27 24  1  0  0  0  0
M  END
>  <MODEL>
9

>  <REMARK>
 VINA RESULT:      -6.9      2.928      4.655
  Name = 
  2 active torsions:
  status: ('A' for Active; 'I' for Inactive)
    1  A    between atoms: N_3  and  C_10
    2  A    between atoms: C_10  and  C_12
                            x       y       z     vdW  Elec       q    Type
                         _______ _______ _______ _____ _____    ______ ____

>  <TORSDO>
F 2

$$$$
