=
 OpenBabel11042418123D

 47 51  0  0  1  0  0  0  0  0999 V2000
  192.4060  174.5150  144.8400 C   0  0  2  0  0  3  0  0  0  0  0  0
  196.3500  173.5530  145.9590 C   0  0  0  0  0  1  0  0  0  0  0  0
  195.8320  174.9070  145.5100 C   0  0  2  0  0  3  0  0  0  0  0  0
  193.7560  175.0660  144.8310 N   0  0  0  0  0  0  0  0  0  0  0  0
  194.5030  175.0750  145.9730 O   0  0  0  0  0  0  0  0  0  0  0  0
  195.7380  174.9660  144.0250 C   0  0  0  0  0  0  0  0  0  0  0  0
  194.5180  175.0420  143.6660 N   0  0  0  0  0  0  0  0  0  0  0  0
  197.9270  175.5850  143.3700 O   0  0  0  0  0  0  0  0  0  0  0  0
  196.8610  174.9810  143.0740 C   0  0  0  0  0  0  0  0  0  0  0  0
  196.7510  174.2880  141.7570 C   0  0  0  0  0  2  0  0  0  0  0  0
  197.7750  175.8220  139.7600 O   0  0  0  0  0  0  0  0  0  0  0  0
  195.8040  176.9060  141.1020 O   0  0  0  0  0  1  0  0  0  0  0  0
  196.4590  175.4960  140.4300 P   0  0  2  0  0  0  0  0  0  0  0  0
  195.3860  174.8300  139.2960 O   0  0  0  0  0  0  0  0  0  0  0  0
  194.7820  173.7470  139.9430 C   0  0  0  0  0  2  0  0  0  0  0  0
  192.7090  174.6040  140.9800 C   0  0  0  0  0  1  0  0  0  0  0  0
  193.2780  173.8490  139.8000 C   0  0  0  0  0  2  0  0  0  0  0  0
  191.7700  174.7080  146.1080 O   0  0  0  0  0  0  0  0  0  0  0  0
  189.4800  174.8860  147.1970 C   0  0  0  0  0  2  0  0  0  0  0  0
  190.4810  176.6330  145.7380 C   0  0  0  0  0  3  0  0  0  0  0  0
  188.4010  177.1350  147.0500 C   0  0  2  0  0  3  0  0  0  0  0  0
  190.5820  175.4270  146.3080 C   0  0  0  0  0  0  0  0  0  0  0  0
  189.2420  177.4790  145.8190 C   0  0  0  0  0  2  0  0  0  0  0  0
  188.1540  175.6280  147.0330 C   0  0  0  0  0  2  0  0  0  0  0  0
  187.0770  177.9060  147.0440 C   0  0  2  0  0  3  0  0  0  0  0  0
  187.0610  178.9550  148.1480 C   0  0  0  0  0  1  0  0  0  0  0  0
  185.9080  176.9540  147.2550 C   0  0  0  0  0  2  0  0  0  0  0  0
  185.1440  176.7680  145.9580 C   0  0  0  0  0  2  0  0  0  0  0  0
  185.4960  178.5320  144.1350 N   0  0  0  0  0  2  0  0  0  0  0  0
  186.7530  176.6010  143.6700 O   0  0  0  0  0  0  0  0  0  0  0  0
  184.8530  178.0960  145.3410 C   0  0  0  0  0  0  0  0  0  0  0  0
  186.4470  177.7870  143.3610 C   0  0  0  0  0  0  0  0  0  0  0  0
  183.9990  178.8450  145.8840 O   0  0  0  0  0  0  0  0  0  0  0  0
  187.2040  177.3640  141.0490 C   0  0  0  0  0  2  0  0  0  0  0  0
  187.0480  178.4100  142.1410 C   0  0  0  0  0  3  0  0  0  0  0  0
  188.4060  177.7920  141.8620 C   0  0  0  0  0  2  0  0  0  0  0  0
  192.4150  173.0410  144.4490 C   0  0  0  0  0  2  0  0  0  0  0  0
  191.0120  172.4570  144.5140 C   0  0  0  0  0  2  0  0  0  0  0  0
  190.2910  172.6880  143.2270 C   0  0  0  0  0  0  0  0  0  0  0  0
  190.0790  171.4250  139.7080 C   0  0  0  0  0  3  0  0  0  0  0  0
  188.4720  173.1970  139.2600 S   0  0  0  0  0  0  0  0  0  0  0  0
  189.0250  173.1860  140.8240 C   0  0  0  0  0  0  0  0  0  0  0  0
  189.3780  173.7590  143.1150 C   0  0  0  0  0  3  0  0  0  0  0  0
  189.9190  172.1340  140.9120 C   0  0  0  0  0  0  0  0  0  0  0  0
  190.5710  171.8700  142.1160 C   0  0  0  0  0  3  0  0  0  0  0  0
  189.3330  171.8940  138.6700 N   0  0  0  0  0  0  0  0  0  0  0  0
  188.7290  174.0190  141.8980 C   0  0  0  0  0  3  0  0  0  0  0  0
  1 37  1  1  0  0  0
  1 18  1  0  0  0  0
  3  2  1  6  0  0  0
  3  5  1  0  0  0  0
  4  1  1  0  0  0  0
  4  5  1  0  0  0  0
  6  3  1  0  0  0  0
  7  6  2  0  0  0  0
  7  4  1  0  0  0  0
  9  8  2  0  0  0  0
  9  6  1  0  0  0  0
 10  9  1  0  0  0  0
 13 11  2  6  0  0  0
 13 12  1  0  0  0  0
 13 10  1  0  0  0  0
 14 15  1  0  0  0  0
 14 13  1  0  0  0  0
 17 15  1  0  0  0  0
 17 16  1  0  0  0  0
 18 22  1  0  0  0  0
 20 23  1  0  0  0  0
 20 22  2  0  0  0  0
 21 25  1  6  0  0  0
 22 19  1  0  0  0  0
 23 21  1  0  0  0  0
 24 21  1  0  0  0  0
 24 19  1  0  0  0  0
 25 27  1  0  0  0  0
 25 26  1  1  0  0  0
 28 27  1  0  0  0  0
 29 31  1  0  0  0  0
 31 33  2  0  0  0  0
 31 28  1  0  0  0  0
 32 30  2  0  0  0  0
 32 29  1  0  0  0  0
 34 36  1  0  0  0  0
 34 35  1  0  0  0  0
 35 32  1  0  0  0  0
 36 35  1  0  0  0  0
 37 38  1  0  0  0  0
 39 38  1  0  0  0  0
 40 44  1  0  0  0  0
 41 42  1  0  0  0  0
 42 44  2  0  0  0  0
 42 47  1  0  0  0  0
 43 39  1  0  0  0  0
 44 45  1  0  0  0  0
 45 39  2  0  0  0  0
 46 41  1  0  0  0  0
 46 40  2  0  0  0  0
 47 43  2  0  0  0  0
M  END
>  <MODEL>
1

>  <REMARK>
 VINA RESULT:      -7.1      0.000      0.000
  Name = 
  17 active torsions:
  status: ('A' for Active; 'I' for Inactive)
    1  A    between atoms: C_2  and  C_15
    2  A    between atoms: O_4  and  P_29
    3  A    between atoms: O_4  and  C_37
    4  A    between atoms: C_11  and  C_15
    5  A    between atoms: C_11  and  C_46
    6  A    between atoms: C_12  and  C_22
    7  A    between atoms: C_12  and  C_31
    8  A    between atoms: C_17  and  C_28
    9  A    between atoms: C_20  and  C_25
   10  A    between atoms: C_20  and  P_29
   11  A    between atoms: N_21  and  C_46
   12  A    between atoms: C_22  and  C_28
   13  A    between atoms: C_25  and  C_30
   14  A    between atoms: O_32  and  C_39
   15  A    between atoms: O_32  and  C_46
   16  A    between atoms: C_33  and  C_34
   17  A    between atoms: C_37  and  C_38
                            x       y       z     vdW  Elec       q    Type
                         _______ _______ _______ _____ _____    ______ ____

>  <TORSDO>
F 17

$$$$
=
 OpenBabel11042418123D

 47 51  0  0  1  0  0  0  0  0999 V2000
  188.4020  173.8720  141.0720 C   0  0  2  0  0  3  0  0  0  0  0  0
  189.9740  173.9460  137.1660 C   0  0  0  0  0  1  0  0  0  0  0  0
  188.8620  173.0530  137.6870 C   0  0  2  0  0  3  0  0  0  0  0  0
  188.3670  173.1260  139.8190 N   0  0  0  0  0  0  0  0  0  0  0  0
  188.1000  173.7680  138.6440 O   0  0  0  0  0  0  0  0  0  0  0  0
  189.4270  171.8910  138.4270 C   0  0  0  0  0  0  0  0  0  0  0  0
  189.1340  171.9750  139.6640 N   0  0  0  0  0  0  0  0  0  0  0  0
  189.5950  169.6790  137.6000 O   0  0  0  0  0  0  0  0  0  0  0  0
  190.1820  170.7660  137.8510 C   0  0  0  0  0  0  0  0  0  0  0  0
  191.6400  170.8980  137.5630 C   0  0  0  0  0  2  0  0  0  0  0  0
  194.0130  170.2620  138.7270 O   0  0  0  0  0  0  0  0  0  0  0  0
  191.8830  169.4890  140.0400 O   0  0  0  0  0  1  0  0  0  0  0  0
  192.6070  170.6880  139.0880 P   0  0  2  0  0  0  0  0  0  0  0  0
  192.6510  172.1620  139.9280 O   0  0  0  0  0  0  0  0  0  0  0  0
  193.9500  172.2650  140.4360 C   0  0  0  0  0  2  0  0  0  0  0  0
  193.5570  174.4790  139.4120 C   0  0  0  0  0  1  0  0  0  0  0  0
  194.3820  173.7160  140.4240 C   0  0  0  0  0  2  0  0  0  0  0  0
  188.2690  175.2800  140.8480 O   0  0  0  0  0  0  0  0  0  0  0  0
  187.3910  177.6210  141.3010 C   0  0  0  0  0  2  0  0  0  0  0  0
  186.7900  175.6130  142.6380 C   0  0  0  0  0  3  0  0  0  0  0  0
  185.5310  177.7600  142.9640 C   0  0  2  0  0  3  0  0  0  0  0  0
  187.4910  176.1450  141.6310 C   0  0  0  0  0  0  0  0  0  0  0  0
  185.9670  176.4340  143.5900 C   0  0  0  0  0  2  0  0  0  0  0  0
  186.7840  178.4520  142.4310 C   0  0  0  0  0  2  0  0  0  0  0  0
  184.8130  178.6430  143.9910 C   0  0  2  0  0  3  0  0  0  0  0  0
  185.4300  180.0340  144.0280 C   0  0  0  0  0  1  0  0  0  0  0  0
  184.9110  178.0260  145.3790 C   0  0  0  0  0  2  0  0  0  0  0  0
  186.0740  178.6330  146.1410 C   0  0  0  0  0  2  0  0  0  0  0  0
  187.6930  176.9490  147.1890 N   0  0  0  0  0  2  0  0  0  0  0  0
  188.5250  177.7230  145.1330 O   0  0  0  0  0  0  0  0  0  0  0  0
  186.4880  177.7250  147.2510 C   0  0  0  0  0  0  0  0  0  0  0  0
  188.6510  176.9480  146.1220 C   0  0  0  0  0  0  0  0  0  0  0  0
  185.7680  177.6560  148.2820 O   0  0  0  0  0  0  0  0  0  0  0  0
  189.4880  174.6690  145.6730 C   0  0  0  0  0  2  0  0  0  0  0  0
  189.8430  176.0480  146.2060 C   0  0  0  0  0  3  0  0  0  0  0  0
  189.5590  174.9060  147.1660 C   0  0  0  0  0  2  0  0  0  0  0  0
  189.6700  173.5580  141.8590 C   0  0  0  0  0  2  0  0  0  0  0  0
  190.7120  174.6480  141.6580 C   0  0  0  0  0  2  0  0  0  0  0  0
  191.6660  174.6750  142.8070 C   0  0  0  0  0  0  0  0  0  0  0  0
  193.7080  177.0330  144.8790 C   0  0  0  0  0  3  0  0  0  0  0  0
  194.6020  175.0960  146.0490 S   0  0  0  0  0  0  0  0  0  0  0  0
  193.5040  174.7060  144.8670 C   0  0  0  0  0  0  0  0  0  0  0  0
  192.0960  173.4640  143.3920 C   0  0  0  0  0  3  0  0  0  0  0  0
  193.0990  175.9030  144.3050 C   0  0  0  0  0  0  0  0  0  0  0  0
  192.1750  175.9070  143.2610 C   0  0  0  0  0  3  0  0  0  0  0  0
  194.5880  176.7570  145.8800 N   0  0  0  0  0  0  0  0  0  0  0  0
  193.0300  173.4700  144.4410 C   0  0  0  0  0  3  0  0  0  0  0  0
  1 37  1  6  0  0  0
  3  2  1  1  0  0  0
  3  6  1  0  0  0  0
  3  5  1  0  0  0  0
  4  1  1  0  0  0  0
  5  4  1  0  0  0  0
  6  7  2  0  0  0  0
  7  4  1  0  0  0  0
  8  9  2  0  0  0  0
  9  6  1  0  0  0  0
 10  9  1  0  0  0  0
 10 13  1  0  0  0  0
 13 11  2  6  0  0  0
 13 14  1  0  0  0  0
 13 12  1  0  0  0  0
 14 15  1  0  0  0  0
 16 17  1  0  0  0  0
 17 15  1  0  0  0  0
 18  1  1  0  0  0  0
 18 22  1  0  0  0  0
 19 22  1  0  0  0  0
 19 24  1  0  0  0  0
 20 23  1  0  0  0  0
 21 23  1  0  0  0  0
 21 25  1  1  0  0  0
 22 20  2  0  0  0  0
 24 21  1  0  0  0  0
 25 26  1  1  0  0  0
 25 27  1  0  0  0  0
 27 28  1  0  0  0  0
 28 31  1  0  0  0  0
 29 31  1  0  0  0  0
 30 32  2  0  0  0  0
 31 33  2  0  0  0  0
 32 35  1  0  0  0  0
 32 29  1  0  0  0  0
 34 35  1  0  0  0  0
 34 36  1  0  0  0  0
 35 36  1  0  0  0  0
 38 37  1  0  0  0  0
 38 39  1  0  0  0  0
 39 45  2  0  0  0  0
 39 43  1  0  0  0  0
 40 46  2  0  0  0  0
 42 41  1  0  0  0  0
 43 47  2  0  0  0  0
 44 42  2  0  0  0  0
 44 40  1  0  0  0  0
 45 44  1  0  0  0  0
 46 41  1  0  0  0  0
 47 42  1  0  0  0  0
M  END
>  <MODEL>
2

>  <REMARK>
 VINA RESULT:      -7.0      3.136      6.280
  Name = 
  17 active torsions:
  status: ('A' for Active; 'I' for Inactive)
    1  A    between atoms: C_2  and  C_15
    2  A    between atoms: O_4  and  P_29
    3  A    between atoms: O_4  and  C_37
    4  A    between atoms: C_11  and  C_15
    5  A    between atoms: C_11  and  C_46
    6  A    between atoms: C_12  and  C_22
    7  A    between atoms: C_12  and  C_31
    8  A    between atoms: C_17  and  C_28
    9  A    between atoms: C_20  and  C_25
   10  A    between atoms: C_20  and  P_29
   11  A    between atoms: N_21  and  C_46
   12  A    between atoms: C_22  and  C_28
   13  A    between atoms: C_25  and  C_30
   14  A    between atoms: O_32  and  C_39
   15  A    between atoms: O_32  and  C_46
   16  A    between atoms: C_33  and  C_34
   17  A    between atoms: C_37  and  C_38
                            x       y       z     vdW  Elec       q    Type
                         _______ _______ _______ _____ _____    ______ ____

>  <TORSDO>
F 17

$$$$
=
 OpenBabel11042418123D

 47 51  0  0  1  0  0  0  0  0999 V2000
  190.7930  173.5440  144.7620 C   0  0  2  0  0  3  0  0  0  0  0  0
  193.8490  171.6420  142.5750 C   0  0  0  0  0  1  0  0  0  0  0  0
  193.7040  171.6970  144.0860 C   0  0  2  0  0  3  0  0  0  0  0  0
  192.0920  172.9060  144.9440 N   0  0  0  0  0  0  0  0  0  0  0  0
  192.3280  171.6660  144.4240 O   0  0  0  0  0  0  0  0  0  0  0  0
  194.2070  172.9960  144.6130 C   0  0  0  0  0  0  0  0  0  0  0  0
  193.2410  173.6780  145.0880 N   0  0  0  0  0  0  0  0  0  0  0  0
  196.3470  173.1410  145.6130 O   0  0  0  0  0  0  0  0  0  0  0  0
  195.6060  173.4500  144.6410 C   0  0  0  0  0  0  0  0  0  0  0  0
  196.1600  174.2770  143.5290 C   0  0  0  0  0  2  0  0  0  0  0  0
  196.9160  176.8840  143.4070 O   0  0  0  0  0  0  0  0  0  0  0  0
  195.3150  176.2780  145.3890 O   0  0  0  0  0  1  0  0  0  0  0  0
  195.7240  176.0260  143.7650 P   0  0  2  0  0  0  0  0  0  0  0  0
  194.4130  176.4140  142.7590 O   0  0  0  0  0  0  0  0  0  0  0  0
  194.3810  175.4130  141.7830 C   0  0  0  0  0  2  0  0  0  0  0  0
  192.0210  175.8290  142.3820 C   0  0  0  0  0  1  0  0  0  0  0  0
  192.9550  174.9450  141.5880 C   0  0  0  0  0  2  0  0  0  0  0  0
  190.3690  174.2180  145.9520 O   0  0  0  0  0  0  0  0  0  0  0  0
  189.3940  176.3210  144.9120 C   0  0  0  0  0  2  0  0  0  0  0  0
  188.5290  175.2470  146.9810 C   0  0  0  0  0  3  0  0  0  0  0  0
  187.2120  177.0720  145.8700 C   0  0  2  0  0  3  0  0  0  0  0  0
  189.4310  175.2590  145.9920 C   0  0  0  0  0  0  0  0  0  0  0  0
  187.5100  176.3330  147.1760 C   0  0  0  0  0  2  0  0  0  0  0  0
  188.5460  177.5360  145.2880 C   0  0  0  0  0  2  0  0  0  0  0  0
  186.2780  178.2630  146.1140 C   0  0  2  0  0  3  0  0  0  0  0  0
  186.4310  178.7840  147.5360 C   0  0  0  0  0  1  0  0  0  0  0  0
  184.8290  177.8520  145.8950 C   0  0  0  0  0  2  0  0  0  0  0  0
  184.3540  178.3130  144.5300 C   0  0  0  0  0  2  0  0  0  0  0  0
  186.2090  179.0580  142.9300 N   0  0  0  0  0  2  0  0  0  0  0  0
  185.5900  176.8320  142.4980 O   0  0  0  0  0  0  0  0  0  0  0  0
  185.2850  179.3470  143.9880 C   0  0  0  0  0  0  0  0  0  0  0  0
  186.3550  177.8050  142.2450 C   0  0  0  0  0  0  0  0  0  0  0  0
  185.2390  180.5140  144.4590 O   0  0  0  0  0  0  0  0  0  0  0  0
  188.3860  176.5780  141.5660 C   0  0  0  0  0  2  0  0  0  0  0  0
  187.3980  177.6670  141.1820 C   0  0  0  0  0  3  0  0  0  0  0  0
  188.7600  178.0330  141.7470 C   0  0  0  0  0  2  0  0  0  0  0  0
  189.7480  172.5340  144.3000 C   0  0  0  0  0  2  0  0  0  0  0  0
  189.0360  173.0280  143.0500 C   0  0  0  0  0  2  0  0  0  0  0  0
  189.6840  172.4690  141.8270 C   0  0  0  0  0  0  0  0  0  0  0  0
  191.3450  169.3740  140.5310 C   0  0  0  0  0  3  0  0  0  0  0  0
  191.7760  170.5750  138.4590 S   0  0  0  0  0  0  0  0  0  0  0  0
  190.9680  171.4790  139.5920 C   0  0  0  0  0  0  0  0  0  0  0  0
  189.8640  173.2880  140.6900 C   0  0  0  0  0  3  0  0  0  0  0  0
  190.8050  170.6620  140.6950 C   0  0  0  0  0  0  0  0  0  0  0  0
  190.1630  171.1460  141.8340 C   0  0  0  0  0  3  0  0  0  0  0  0
  191.9330  169.1550  139.3220 N   0  0  0  0  0  0  0  0  0  0  0  0
  190.5140  172.7930  139.5490 C   0  0  0  0  0  3  0  0  0  0  0  0
  1 37  1  1  0  0  0
  1  4  1  0  0  0  0
  1 18  1  0  0  0  0
  3  2  1  6  0  0  0
  3  5  1  0  0  0  0
  3  6  1  0  0  0  0
  4  7  1  0  0  0  0
  5  4  1  0  0  0  0
  6  9  1  0  0  0  0
  6  7  2  0  0  0  0
  9  8  2  0  0  0  0
 10 13  1  0  0  0  0
 10  9  1  0  0  0  0
 13 11  2  6  0  0  0
 13 12  1  0  0  0  0
 14 13  1  0  0  0  0
 15 14  1  0  0  0  0
 17 15  1  0  0  0  0
 17 16  1  0  0  0  0
 18 22  1  0  0  0  0
 19 24  1  0  0  0  0
 19 22  1  0  0  0  0
 20 23  1  0  0  0  0
 21 25  1  1  0  0  0
 21 23  1  0  0  0  0
 22 20  2  0  0  0  0
 24 21  1  0  0  0  0
 25 26  1  1  0  0  0
 27 25  1  0  0  0  0
 28 27  1  0  0  0  0
 29 31  1  0  0  0  0
 31 33  2  0  0  0  0
 31 28  1  0  0  0  0
 32 30  2  0  0  0  0
 32 29  1  0  0  0  0
 34 36  1  0  0  0  0
 35 34  1  0  0  0  0
 35 36  1  0  0  0  0
 35 32  1  0  0  0  0
 38 37  1  0  0  0  0
 39 45  1  0  0  0  0
 39 38  1  0  0  0  0
 40 44  1  0  0  0  0
 41 46  1  0  0  0  0
 41 42  1  0  0  0  0
 42 44  1  0  0  0  0
 43 39  2  0  0  0  0
 44 45  2  0  0  0  0
 46 40  2  0  0  0  0
 47 42  2  0  0  0  0
 47 43  1  0  0  0  0
M  END
>  <MODEL>
3

>  <REMARK>
 VINA RESULT:      -7.0      1.852      2.648
  Name = 
  17 active torsions:
  status: ('A' for Active; 'I' for Inactive)
    1  A    between atoms: C_2  and  C_15
    2  A    between atoms: O_4  and  P_29
    3  A    between atoms: O_4  and  C_37
    4  A    between atoms: C_11  and  C_15
    5  A    between atoms: C_11  and  C_46
    6  A    between atoms: C_12  and  C_22
    7  A    between atoms: C_12  and  C_31
    8  A    between atoms: C_17  and  C_28
    9  A    between atoms: C_20  and  C_25
   10  A    between atoms: C_20  and  P_29
   11  A    between atoms: N_21  and  C_46
   12  A    between atoms: C_22  and  C_28
   13  A    between atoms: C_25  and  C_30
   14  A    between atoms: O_32  and  C_39
   15  A    between atoms: O_32  and  C_46
   16  A    between atoms: C_33  and  C_34
   17  A    between atoms: C_37  and  C_38
                            x       y       z     vdW  Elec       q    Type
                         _______ _______ _______ _____ _____    ______ ____

>  <TORSDO>
F 17

$$$$
=
 OpenBabel11042418123D

 47 51  0  0  1  0  0  0  0  0999 V2000
  189.1660  175.4290  146.1240 C   0  0  2  0  0  3  0  0  0  0  0  0
  187.1050  178.6020  147.9730 C   0  0  0  0  0  1  0  0  0  0  0  0
  186.4960  177.3900  147.2920 C   0  0  2  0  0  3  0  0  0  0  0  0
  187.8230  175.9800  146.2700 N   0  0  0  0  0  0  0  0  0  0  0  0
  187.3290  176.2640  147.5100 O   0  0  0  0  0  0  0  0  0  0  0  0
  186.4710  177.5770  145.8150 C   0  0  0  0  0  0  0  0  0  0  0  0
  187.2650  176.7530  145.2560 N   0  0  0  0  0  0  0  0  0  0  0  0
  185.7740  179.7690  145.2540 O   0  0  0  0  0  0  0  0  0  0  0  0
  185.6380  178.5300  145.0640 C   0  0  0  0  0  0  0  0  0  0  0  0
  184.6280  178.0450  144.0790 C   0  0  0  0  0  2  0  0  0  0  0  0
  186.3380  179.1520  142.2800 O   0  0  0  0  0  1  0  0  0  0  0  0
  184.0940  178.2460  141.2770 O   0  0  0  0  0  0  0  0  0  0  0  0
  185.3370  178.0250  142.4050 P   0  0  2  0  0  0  0  0  0  0  0  0
  186.1120  176.5370  142.1450 O   0  0  0  0  0  0  0  0  0  0  0  0
  187.1450  176.8060  141.2420 C   0  0  0  0  0  2  0  0  0  0  0  0
  189.2930  177.3180  142.3480 C   0  0  0  0  0  1  0  0  0  0  0  0
  188.4380  176.2170  141.7650 C   0  0  0  0  0  2  0  0  0  0  0  0
  190.1600  176.4590  146.1400 O   0  0  0  0  0  0  0  0  0  0  0  0
  192.4220  175.5040  146.7950 C   0  0  0  0  0  2  0  0  0  0  0  0
  191.9730  176.7240  144.6750 C   0  0  0  0  0  3  0  0  0  0  0  0
  194.1440  175.5030  144.9840 C   0  0  2  0  0  3  0  0  0  0  0  0
  191.5180  176.2670  145.8480 C   0  0  0  0  0  0  0  0  0  0  0  0
  193.4160  176.6400  144.2650 C   0  0  0  0  0  2  0  0  0  0  0  0
  193.9080  175.6790  146.4830 C   0  0  0  0  0  2  0  0  0  0  0  0
  195.6420  175.5180  144.6600 C   0  0  2  0  0  3  0  0  0  0  0  0
  195.9900  176.7120  143.7820 C   0  0  0  0  0  1  0  0  0  0  0  0
  196.0400  174.2420  143.9330 C   0  0  0  0  0  2  0  0  0  0  0  0
  197.2990  173.6600  144.5470 C   0  0  0  0  0  2  0  0  0  0  0  0
  196.6170  171.7040  146.0510 N   0  0  0  0  0  2  0  0  0  0  0  0
  196.8220  170.9970  143.8200 O   0  0  0  0  0  0  0  0  0  0  0  0
  196.9930  173.0790  145.8870 C   0  0  0  0  0  0  0  0  0  0  0  0
  196.5110  170.7210  145.0120 C   0  0  0  0  0  0  0  0  0  0  0  0
  197.0900  173.8120  146.9060 O   0  0  0  0  0  0  0  0  0  0  0  0
  194.6850  169.3710  145.9810 C   0  0  0  0  0  2  0  0  0  0  0  0
  196.0710  169.3330  145.3580 C   0  0  0  0  0  3  0  0  0  0  0  0
  195.9040  169.2050  146.8610 C   0  0  0  0  0  2  0  0  0  0  0  0
  189.2730  174.5810  144.8600 C   0  0  0  0  0  2  0  0  0  0  0  0
  189.9990  173.2760  145.1470 C   0  0  0  0  0  2  0  0  0  0  0  0
  191.1220  173.0810  144.1820 C   0  0  0  0  0  0  0  0  0  0  0  0
  192.1870  173.9420  140.6970 C   0  0  0  0  0  3  0  0  0  0  0  0
  194.1700  172.5790  141.0570 S   0  0  0  0  0  0  0  0  0  0  0  0
  193.1580  172.6340  142.3710 C   0  0  0  0  0  0  0  0  0  0  0  0
  192.2160  172.2610  144.5330 C   0  0  0  0  0  3  0  0  0  0  0  0
  192.0930  173.4380  142.0060 C   0  0  0  0  0  0  0  0  0  0  0  0
  191.0540  173.6720  142.9060 C   0  0  0  0  0  3  0  0  0  0  0  0
  193.3010  173.5540  140.0170 N   0  0  0  0  0  0  0  0  0  0  0  0
  193.2570  172.0290  143.6190 C   0  0  0  0  0  3  0  0  0  0  0  0
  1 37  1  6  0  0  0
  1 18  1  0  0  0  0
  1  4  1  0  0  0  0
  3  5  1  0  0  0  0
  3  2  1  1  0  0  0
  4  5  1  0  0  0  0
  6  3  1  0  0  0  0
  7  6  2  0  0  0  0
  7  4  1  0  0  0  0
  9  8  2  0  0  0  0
  9  6  1  0  0  0  0
 10  9  1  0  0  0  0
 11 13  1  0  0  0  0
 13 12  2  6  0  0  0
 13 10  1  0  0  0  0
 14 13  1  0  0  0  0
 15 17  1  0  0  0  0
 15 14  1  0  0  0  0
 17 16  1  0  0  0  0
 20 22  2  0  0  0  0
 21 25  1  1  0  0  0
 21 24  1  0  0  0  0
 22 18  1  0  0  0  0
 22 19  1  0  0  0  0
 23 20  1  0  0  0  0
 23 21  1  0  0  0  0
 24 19  1  0  0  0  0
 25 26  1  6  0  0  0
 27 28  1  0  0  0  0
 27 25  1  0  0  0  0
 28 31  1  0  0  0  0
 30 32  2  0  0  0  0
 31 29  1  0  0  0  0
 31 33  2  0  0  0  0
 32 35  1  0  0  0  0
 32 29  1  0  0  0  0
 34 36  1  0  0  0  0
 35 34  1  0  0  0  0
 35 36  1  0  0  0  0
 37 38  1  0  0  0  0
 39 43  1  0  0  0  0
 39 38  1  0  0  0  0
 40 44  1  0  0  0  0
 41 42  1  0  0  0  0
 42 47  1  0  0  0  0
 44 42  2  0  0  0  0
 44 45  1  0  0  0  0
 45 39  2  0  0  0  0
 46 40  2  0  0  0  0
 46 41  1  0  0  0  0
 47 43  2  0  0  0  0
M  END
>  <MODEL>
4

>  <REMARK>
 VINA RESULT:      -6.8      3.229      8.793
  Name = 
  17 active torsions:
  status: ('A' for Active; 'I' for Inactive)
    1  A    between atoms: C_2  and  C_15
    2  A    between atoms: O_4  and  P_29
    3  A    between atoms: O_4  and  C_37
    4  A    between atoms: C_11  and  C_15
    5  A    between atoms: C_11  and  C_46
    6  A    between atoms: C_12  and  C_22
    7  A    between atoms: C_12  and  C_31
    8  A    between atoms: C_17  and  C_28
    9  A    between atoms: C_20  and  C_25
   10  A    between atoms: C_20  and  P_29
   11  A    between atoms: N_21  and  C_46
   12  A    between atoms: C_22  and  C_28
   13  A    between atoms: C_25  and  C_30
   14  A    between atoms: O_32  and  C_39
   15  A    between atoms: O_32  and  C_46
   16  A    between atoms: C_33  and  C_34
   17  A    between atoms: C_37  and  C_38
                            x       y       z     vdW  Elec       q    Type
                         _______ _______ _______ _____ _____    ______ ____

>  <TORSDO>
F 17

$$$$
=
 OpenBabel11042418123D

 47 51  0  0  1  0  0  0  0  0999 V2000
  191.7420  177.1460  144.5820 C   0  0  2  0  0  3  0  0  0  0  0  0
  188.0110  175.8570  143.1160 C   0  0  0  0  0  1  0  0  0  0  0  0
  188.3100  177.1610  143.8320 C   0  0  2  0  0  3  0  0  0  0  0  0
  190.3240  177.4850  144.6290 N   0  0  0  0  0  0  0  0  0  0  0  0
  189.6080  177.6040  143.4730 O   0  0  0  0  0  0  0  0  0  0  0  0
  188.3640  176.9490  145.3050 C   0  0  0  0  0  0  0  0  0  0  0  0
  189.5520  177.1300  145.7300 N   0  0  0  0  0  0  0  0  0  0  0  0
  187.4470  176.1040  147.3170 O   0  0  0  0  0  0  0  0  0  0  0  0
  187.2330  176.6210  146.1870 C   0  0  0  0  0  0  0  0  0  0  0  0
  185.8300  176.8900  145.7560 C   0  0  0  0  0  2  0  0  0  0  0  0
  186.0450  179.0530  147.3880 O   0  0  0  0  0  1  0  0  0  0  0  0
  183.7030  178.7350  146.2580 O   0  0  0  0  0  0  0  0  0  0  0  0
  185.3850  178.6200  146.0980 P   0  0  2  0  0  0  0  0  0  0  0  0
  185.9250  179.5970  144.8190 O   0  0  0  0  0  0  0  0  0  0  0  0
  184.8960  179.5750  143.8720 C   0  0  0  0  0  2  0  0  0  0  0  0
  184.1000  178.1270  142.0360 C   0  0  0  0  0  1  0  0  0  0  0  0
  185.3210  178.7370  142.6850 C   0  0  0  0  0  2  0  0  0  0  0  0
  192.1830  176.9170  143.2400 O   0  0  0  0  0  0  0  0  0  0  0  0
  191.4800  174.6190  142.4120 C   0  0  0  0  0  2  0  0  0  0  0  0
  193.8240  175.4500  142.4300 C   0  0  0  0  0  3  0  0  0  0  0  0
  193.2540  173.3290  141.2150 C   0  0  2  0  0  3  0  0  0  0  0  0
  192.5350  175.6650  142.7150 C   0  0  0  0  0  0  0  0  0  0  0  0
  194.3440  174.1340  141.9230 C   0  0  0  0  0  2  0  0  0  0  0  0
  192.0640  173.2280  142.1670 C   0  0  0  0  0  2  0  0  0  0  0  0
  193.7630  171.9360  140.8270 C   0  0  2  0  0  3  0  0  0  0  0  0
  195.0390  171.6000  141.5870 C   0  0  0  0  0  1  0  0  0  0  0  0
  194.0520  171.8750  139.3340 C   0  0  0  0  0  2  0  0  0  0  0  0
  192.8550  171.3100  138.5930 C   0  0  0  0  0  2  0  0  0  0  0  0
  190.8070  172.7780  138.1370 N   0  0  0  0  0  2  0  0  0  0  0  0
  190.4130  171.3560  139.9660 O   0  0  0  0  0  0  0  0  0  0  0  0
  192.1580  172.3970  137.8430 C   0  0  0  0  0  0  0  0  0  0  0  0
  189.9710  172.2250  139.1630 C   0  0  0  0  0  0  0  0  0  0  0  0
  192.7850  173.0110  136.9400 O   0  0  0  0  0  0  0  0  0  0  0  0
  188.5740  174.1450  139.8410 C   0  0  0  0  0  2  0  0  0  0  0  0
  188.5670  172.7200  139.3110 C   0  0  0  0  0  3  0  0  0  0  0  0
  188.2690  172.9940  140.7740 C   0  0  0  0  0  2  0  0  0  0  0  0
  192.0460  175.9460  145.4730 C   0  0  0  0  0  2  0  0  0  0  0  0
  193.4200  176.0830  146.1120 C   0  0  0  0  0  2  0  0  0  0  0  0
  194.2320  174.8550  145.8690 C   0  0  0  0  0  0  0  0  0  0  0  0
  193.8880  171.1910  145.1750 C   0  0  0  0  0  3  0  0  0  0  0  0
  196.3140  171.0310  145.2710 S   0  0  0  0  0  0  0  0  0  0  0  0
  195.7420  172.5690  145.5190 C   0  0  0  0  0  0  0  0  0  0  0  0
  195.6400  174.9140  145.9550 C   0  0  0  0  0  3  0  0  0  0  0  0
  194.3640  172.4880  145.4340 C   0  0  0  0  0  0  0  0  0  0  0  0
  193.5850  173.6310  145.6130 C   0  0  0  0  0  3  0  0  0  0  0  0
  194.8580  170.2430  145.0540 N   0  0  0  0  0  0  0  0  0  0  0  0
  196.4160  173.7580  145.7760 C   0  0  0  0  0  3  0  0  0  0  0  0
  1  4  1  0  0  0  0
  1 37  1  1  0  0  0
  3  2  1  6  0  0  0
  3  6  1  0  0  0  0
  4  7  1  0  0  0  0
  5  3  1  0  0  0  0
  5  4  1  0  0  0  0
  6  7  2  0  0  0  0
  6  9  1  0  0  0  0
  9  8  2  0  0  0  0
 10 13  1  0  0  0  0
 10  9  1  0  0  0  0
 13 12  2  1  0  0  0
 13 11  1  0  0  0  0
 14 13  1  0  0  0  0
 15 14  1  0  0  0  0
 16 17  1  0  0  0  0
 17 15  1  0  0  0  0
 18  1  1  0  0  0  0
 19 22  1  0  0  0  0
 20 22  2  0  0  0  0
 21 25  1  1  0  0  0
 21 23  1  0  0  0  0
 21 24  1  0  0  0  0
 22 18  1  0  0  0  0
 23 20  1  0  0  0  0
 24 19  1  0  0  0  0
 25 26  1  1  0  0  0
 27 25  1  0  0  0  0
 28 27  1  0  0  0  0
 29 32  1  0  0  0  0
 31 29  1  0  0  0  0
 31 28  1  0  0  0  0
 32 35  1  0  0  0  0
 32 30  2  0  0  0  0
 33 31  2  0  0  0  0
 34 36  1  0  0  0  0
 35 34  1  0  0  0  0
 35 36  1  0  0  0  0
 37 38  1  0  0  0  0
 39 43  1  0  0  0  0
 39 38  1  0  0  0  0
 40 44  1  0  0  0  0
 41 42  1  0  0  0  0
 42 47  1  0  0  0  0
 44 42  2  0  0  0  0
 44 45  1  0  0  0  0
 45 39  2  0  0  0  0
 46 40  2  0  0  0  0
 46 41  1  0  0  0  0
 47 43  2  0  0  0  0
M  END
>  <MODEL>
5

>  <REMARK>
 VINA RESULT:      -6.7      3.567      8.854
  Name = 
  17 active torsions:
  status: ('A' for Active; 'I' for Inactive)
    1  A    between atoms: C_2  and  C_15
    2  A    between atoms: O_4  and  P_29
    3  A    between atoms: O_4  and  C_37
    4  A    between atoms: C_11  and  C_15
    5  A    between atoms: C_11  and  C_46
    6  A    between atoms: C_12  and  C_22
    7  A    between atoms: C_12  and  C_31
    8  A    between atoms: C_17  and  C_28
    9  A    between atoms: C_20  and  C_25
   10  A    between atoms: C_20  and  P_29
   11  A    between atoms: N_21  and  C_46
   12  A    between atoms: C_22  and  C_28
   13  A    between atoms: C_25  and  C_30
   14  A    between atoms: O_32  and  C_39
   15  A    between atoms: O_32  and  C_46
   16  A    between atoms: C_33  and  C_34
   17  A    between atoms: C_37  and  C_38
                            x       y       z     vdW  Elec       q    Type
                         _______ _______ _______ _____ _____    ______ ____

>  <TORSDO>
F 17

$$$$
=
 OpenBabel11042418123D

 47 51  0  0  1  0  0  0  0  0999 V2000
  191.0950  175.4210  144.0890 C   0  0  2  0  0  3  0  0  0  0  0  0
  194.0160  176.6910  146.8430 C   0  0  0  0  0  1  0  0  0  0  0  0
  193.9600  177.0080  145.3590 C   0  0  2  0  0  3  0  0  0  0  0  0
  192.4020  176.0660  144.1420 N   0  0  0  0  0  0  0  0  0  0  0  0
  192.6060  177.1390  144.9610 O   0  0  0  0  0  0  0  0  0  0  0  0
  194.4940  175.8700  144.5610 C   0  0  0  0  0  0  0  0  0  0  0  0
  193.5580  175.3370  143.8790 N   0  0  0  0  0  0  0  0  0  0  0  0
  196.6440  175.8170  143.5720 O   0  0  0  0  0  0  0  0  0  0  0  0
  195.8930  175.4170  144.5020 C   0  0  0  0  0  0  0  0  0  0  0  0
  196.4340  174.4850  145.5340 C   0  0  0  0  0  2  0  0  0  0  0  0
  196.4450  172.5510  143.6250 O   0  0  0  0  0  0  0  0  0  0  0  0
  194.4270  172.4630  145.2910 O   0  0  0  0  0  1  0  0  0  0  0  0
  196.0800  172.7620  145.0770 P   0  0  2  0  0  0  0  0  0  0  0  0
  196.9990  171.7250  146.0570 O   0  0  0  0  0  0  0  0  0  0  0  0
  196.6350  170.4290  145.6760 C   0  0  0  0  0  2  0  0  0  0  0  0
  194.9960  169.1770  147.0350 C   0  0  0  0  0  1  0  0  0  0  0  0
  196.4490  169.5740  146.9110 C   0  0  0  0  0  2  0  0  0  0  0  0
  190.2790  175.7960  145.2030 O   0  0  0  0  0  0  0  0  0  0  0  0
  188.1930  176.7210  146.3210 C   0  0  0  0  0  2  0  0  0  0  0  0
  188.8000  177.1080  143.9410 C   0  0  0  0  0  3  0  0  0  0  0  0
  186.9300  178.4160  144.9880 C   0  0  2  0  0  3  0  0  0  0  0  0
  189.0870  176.5300  145.1130 C   0  0  0  0  0  0  0  0  0  0  0  0
  187.5280  177.8680  143.6910 C   0  0  0  0  0  2  0  0  0  0  0  0
  186.8030  177.2490  145.9660 C   0  0  0  0  0  2  0  0  0  0  0  0
  185.5660  179.0670  144.7330 C   0  0  2  0  0  3  0  0  0  0  0  0
  184.4590  178.2810  145.4220 C   0  0  0  0  0  1  0  0  0  0  0  0
  185.2750  179.1180  143.2400 C   0  0  0  0  0  2  0  0  0  0  0  0
  183.9580  178.4270  142.9400 C   0  0  0  0  0  2  0  0  0  0  0  0
  182.5040  178.4030  140.8310 N   0  0  0  0  0  2  0  0  0  0  0  0
  181.2190  178.9710  142.7140 O   0  0  0  0  0  0  0  0  0  0  0  0
  183.7850  178.2740  141.4640 C   0  0  0  0  0  0  0  0  0  0  0  0
  181.2620  178.7120  141.4790 C   0  0  0  0  0  0  0  0  0  0  0  0
  184.7990  178.0460  140.7540 O   0  0  0  0  0  0  0  0  0  0  0  0
  179.7890  180.1930  140.1630 C   0  0  0  0  0  2  0  0  0  0  0  0
  180.0080  178.7760  140.6660 C   0  0  0  0  0  3  0  0  0  0  0  0
  178.9980  179.6820  141.3470 C   0  0  0  0  0  2  0  0  0  0  0  0
  191.2380  173.9050  143.9970 C   0  0  0  0  0  2  0  0  0  0  0  0
  189.8790  173.2460  143.8170 C   0  0  0  0  0  2  0  0  0  0  0  0
  189.4550  173.3100  142.3870 C   0  0  0  0  0  0  0  0  0  0  0  0
  190.0570  171.6910  139.0650 C   0  0  0  0  0  3  0  0  0  0  0  0
  188.5440  173.3260  138.0880 S   0  0  0  0  0  0  0  0  0  0  0  0
  188.7380  173.5010  139.7270 C   0  0  0  0  0  0  0  0  0  0  0  0
  188.5610  174.3180  141.9630 C   0  0  0  0  0  3  0  0  0  0  0  0
  189.6170  172.5080  140.1210 C   0  0  0  0  0  0  0  0  0  0  0  0
  189.9940  172.3990  141.4580 C   0  0  0  0  0  3  0  0  0  0  0  0
  189.5470  172.0150  137.8440 N   0  0  0  0  0  0  0  0  0  0  0  0
  188.1900  174.4220  140.6130 C   0  0  0  0  0  3  0  0  0  0  0  0
  1 37  1  1  0  0  0
  1  4  1  0  0  0  0
  1 18  1  0  0  0  0
  3  2  1  1  0  0  0
  4  5  1  0  0  0  0
  5  3  1  0  0  0  0
  6  3  1  0  0  0  0
  7  4  1  0  0  0  0
  7  6  2  0  0  0  0
  8  9  2  0  0  0  0
  9  6  1  0  0  0  0
  9 10  1  0  0  0  0
 13 11  2  6  0  0  0
 13 12  1  0  0  0  0
 13 10  1  0  0  0  0
 13 14  1  0  0  0  0
 15 14  1  0  0  0  0
 15 17  1  0  0  0  0
 17 16  1  0  0  0  0
 20 22  2  0  0  0  0
 21 25  1  6  0  0  0
 21 24  1  0  0  0  0
 22 18  1  0  0  0  0
 22 19  1  0  0  0  0
 23 20  1  0  0  0  0
 23 21  1  0  0  0  0
 24 19  1  0  0  0  0
 25 26  1  1  0  0  0
 27 25  1  0  0  0  0
 28 27  1  0  0  0  0
 29 31  1  0  0  0  0
 29 32  1  0  0  0  0
 31 28  1  0  0  0  0
 32 30  2  0  0  0  0
 33 31  2  0  0  0  0
 34 35  1  0  0  0  0
 34 36  1  0  0  0  0
 35 36  1  0  0  0  0
 35 32  1  0  0  0  0
 38 37  1  0  0  0  0
 39 38  1  0  0  0  0
 40 44  1  0  0  0  0
 41 42  1  0  0  0  0
 42 44  2  0  0  0  0
 42 47  1  0  0  0  0
 43 39  1  0  0  0  0
 44 45  1  0  0  0  0
 45 39  2  0  0  0  0
 46 41  1  0  0  0  0
 46 40  2  0  0  0  0
 47 43  2  0  0  0  0
M  END
>  <MODEL>
6

>  <REMARK>
 VINA RESULT:      -6.6      3.051      4.305
  Name = 
  17 active torsions:
  status: ('A' for Active; 'I' for Inactive)
    1  A    between atoms: C_2  and  C_15
    2  A    between atoms: O_4  and  P_29
    3  A    between atoms: O_4  and  C_37
    4  A    between atoms: C_11  and  C_15
    5  A    between atoms: C_11  and  C_46
    6  A    between atoms: C_12  and  C_22
    7  A    between atoms: C_12  and  C_31
    8  A    between atoms: C_17  and  C_28
    9  A    between atoms: C_20  and  C_25
   10  A    between atoms: C_20  and  P_29
   11  A    between atoms: N_21  and  C_46
   12  A    between atoms: C_22  and  C_28
   13  A    between atoms: C_25  and  C_30
   14  A    between atoms: O_32  and  C_39
   15  A    between atoms: O_32  and  C_46
   16  A    between atoms: C_33  and  C_34
   17  A    between atoms: C_37  and  C_38
                            x       y       z     vdW  Elec       q    Type
                         _______ _______ _______ _____ _____    ______ ____

>  <TORSDO>
F 17

$$$$
=
 OpenBabel11042418123D

 47 51  0  0  1  0  0  0  0  0999 V2000
  194.2620  176.0170  143.6510 C   0  0  2  0  0  3  0  0  0  0  0  0
  196.6910  172.8530  142.2990 C   0  0  0  0  0  1  0  0  0  0  0  0
  196.8890  174.3350  142.0350 C   0  0  2  0  0  3  0  0  0  0  0  0
  195.3630  175.7410  142.7340 N   0  0  0  0  0  0  0  0  0  0  0  0
  196.4690  175.0720  143.1710 O   0  0  0  0  0  0  0  0  0  0  0  0
  196.0070  174.7920  140.9250 C   0  0  0  0  0  0  0  0  0  0  0  0
  195.1230  175.5940  141.3710 N   0  0  0  0  0  0  0  0  0  0  0  0
  196.4080  175.3180  138.6530 O   0  0  0  0  0  0  0  0  0  0  0  0
  196.1250  174.4320  139.5040 C   0  0  0  0  0  0  0  0  0  0  0  0
  195.9120  173.0250  139.0560 C   0  0  0  0  0  2  0  0  0  0  0  0
  193.8880  171.8640  137.6620 O   0  0  0  0  0  0  0  0  0  0  0  0
  193.2840  174.1310  138.8270 O   0  0  0  0  0  1  0  0  0  0  0  0
  194.1340  172.6690  138.9180 P   0  0  2  0  0  0  0  0  0  0  0  0
  193.6370  171.7810  140.2770 O   0  0  0  0  0  0  0  0  0  0  0  0
  192.6100  172.5310  140.8590 C   0  0  0  0  0  2  0  0  0  0  0  0
  191.1740  172.1130  142.8250 C   0  0  0  0  0  1  0  0  0  0  0  0
  192.5990  172.2950  142.3540 C   0  0  0  0  0  2  0  0  0  0  0  0
  193.4170  177.0610  143.1560 O   0  0  0  0  0  0  0  0  0  0  0  0
  191.1560  178.1760  143.4740 C   0  0  0  0  0  2  0  0  0  0  0  0
  191.4740  175.8710  142.5970 C   0  0  0  0  0  3  0  0  0  0  0  0
  189.2170  176.9600  142.4690 C   0  0  2  0  0  3  0  0  0  0  0  0
  192.0180  176.9930  143.0830 C   0  0  0  0  0  0  0  0  0  0  0  0
  189.9910  175.6420  142.5240 C   0  0  0  0  0  2  0  0  0  0  0  0
  189.6800  177.8160  143.6470 C   0  0  0  0  0  2  0  0  0  0  0  0
  187.7060  176.7130  142.5350 C   0  0  2  0  0  3  0  0  0  0  0  0
  187.3980  175.2280  142.3980 C   0  0  0  0  0  1  0  0  0  0  0  0
  186.9970  177.4650  141.4160 C   0  0  0  0  0  2  0  0  0  0  0  0
  186.2560  178.6630  141.9790 C   0  0  0  0  0  2  0  0  0  0  0  0
  184.3180  178.2830  143.6100 N   0  0  0  0  0  2  0  0  0  0  0  0
  186.2180  179.0640  144.7520 O   0  0  0  0  0  0  0  0  0  0  0  0
  184.8390  178.2940  142.2740 C   0  0  0  0  0  0  0  0  0  0  0  0
  185.0310  178.6340  144.8040 C   0  0  0  0  0  0  0  0  0  0  0  0
  184.0730  178.0070  141.3160 O   0  0  0  0  0  0  0  0  0  0  0  0
  185.3560  178.6560  147.2520 C   0  0  0  0  0  2  0  0  0  0  0  0
  184.3400  178.5340  146.1270 C   0  0  0  0  0  3  0  0  0  0  0  0
  184.8170  177.2960  146.8650 C   0  0  0  0  0  2  0  0  0  0  0  0
  194.7840  176.3470  145.0460 C   0  0  0  0  0  2  0  0  0  0  0  0
  194.2890  175.3280  146.0610 C   0  0  0  0  0  2  0  0  0  0  0  0
  192.7990  175.3510  146.1390 C   0  0  0  0  0  0  0  0  0  0  0  0
  189.9460  177.5040  147.2570 C   0  0  0  0  0  3  0  0  0  0  0  0
  188.4480  175.6840  146.6550 S   0  0  0  0  0  0  0  0  0  0  0  0
  190.0470  175.3450  146.3710 C   0  0  0  0  0  0  0  0  0  0  0  0
  192.0560  174.2150  145.7490 C   0  0  0  0  0  3  0  0  0  0  0  0
  190.7560  176.4660  146.7630 C   0  0  0  0  0  0  0  0  0  0  0  0
  192.1460  176.4860  146.6570 C   0  0  0  0  0  3  0  0  0  0  0  0
  188.6120  177.2290  147.2660 N   0  0  0  0  0  0  0  0  0  0  0  0
  190.6570  174.2040  145.8620 C   0  0  0  0  0  3  0  0  0  0  0  0
  1 37  1  1  0  0  0
  3  2  1  1  0  0  0
  3  5  1  0  0  0  0
  4  5  1  0  0  0  0
  4  1  1  0  0  0  0
  6  7  2  0  0  0  0
  6  3  1  0  0  0  0
  7  4  1  0  0  0  0
  8  9  2  0  0  0  0
  9  6  1  0  0  0  0
 10  9  1  0  0  0  0
 12 13  1  0  0  0  0
 13 11  2  6  0  0  0
 13 10  1  0  0  0  0
 13 14  1  0  0  0  0
 14 15  1  0  0  0  0
 15 17  1  0  0  0  0
 17 16  1  0  0  0  0
 18  1  1  0  0  0  0
 19 24  1  0  0  0  0
 20 22  2  0  0  0  0
 21 23  1  0  0  0  0
 21 25  1  1  0  0  0
 21 24  1  0  0  0  0
 22 18  1  0  0  0  0
 22 19  1  0  0  0  0
 23 20  1  0  0  0  0
 25 26  1  6  0  0  0
 27 28  1  0  0  0  0
 27 25  1  0  0  0  0
 28 31  1  0  0  0  0
 29 32  1  0  0  0  0
 30 32  2  0  0  0  0
 31 29  1  0  0  0  0
 32 35  1  0  0  0  0
 33 31  2  0  0  0  0
 35 36  1  0  0  0  0
 35 34  1  0  0  0  0
 36 34  1  0  0  0  0
 37 38  1  0  0  0  0
 38 39  1  0  0  0  0
 39 45  1  0  0  0  0
 40 46  2  0  0  0  0
 41 46  1  0  0  0  0
 42 41  1  0  0  0  0
 42 44  1  0  0  0  0
 43 47  1  0  0  0  0
 43 39  2  0  0  0  0
 44 40  1  0  0  0  0
 45 44  2  0  0  0  0
 47 42  2  0  0  0  0
M  END
>  <MODEL>
7

>  <REMARK>
 VINA RESULT:      -6.6      2.502      4.874
  Name = 
  17 active torsions:
  status: ('A' for Active; 'I' for Inactive)
    1  A    between atoms: C_2  and  C_15
    2  A    between atoms: O_4  and  P_29
    3  A    between atoms: O_4  and  C_37
    4  A    between atoms: C_11  and  C_15
    5  A    between atoms: C_11  and  C_46
    6  A    between atoms: C_12  and  C_22
    7  A    between atoms: C_12  and  C_31
    8  A    between atoms: C_17  and  C_28
    9  A    between atoms: C_20  and  C_25
   10  A    between atoms: C_20  and  P_29
   11  A    between atoms: N_21  and  C_46
   12  A    between atoms: C_22  and  C_28
   13  A    between atoms: C_25  and  C_30
   14  A    between atoms: O_32  and  C_39
   15  A    between atoms: O_32  and  C_46
   16  A    between atoms: C_33  and  C_34
   17  A    between atoms: C_37  and  C_38
                            x       y       z     vdW  Elec       q    Type
                         _______ _______ _______ _____ _____    ______ ____

>  <TORSDO>
F 17

$$$$
=
 OpenBabel11042418123D

 47 51  0  0  1  0  0  0  0  0999 V2000
  191.2730  172.5160  143.1100 C   0  0  2  0  0  3  0  0  0  0  0  0
  194.8650  172.8150  140.9320 C   0  0  0  0  0  1  0  0  0  0  0  0
  194.5910  171.9150  142.1230 C   0  0  2  0  0  3  0  0  0  0  0  0
  192.6700  172.0970  143.1580 N   0  0  0  0  0  0  0  0  0  0  0  0
  193.2410  171.4840  142.0810 O   0  0  0  0  0  0  0  0  0  0  0  0
  194.7180  172.6770  143.3960 C   0  0  0  0  0  0  0  0  0  0  0  0
  193.5810  172.7770  143.9610 N   0  0  0  0  0  0  0  0  0  0  0  0
  196.4120  172.7350  145.0490 O   0  0  0  0  0  0  0  0  0  0  0  0
  195.9580  173.2170  143.9760 C   0  0  0  0  0  0  0  0  0  0  0  0
  196.6860  174.3350  143.3080 C   0  0  0  0  0  2  0  0  0  0  0  0
  194.8040  176.0650  142.3840 O   0  0  0  0  0  0  0  0  0  0  0  0
  196.8870  177.1800  143.5140 O   0  0  0  0  0  1  0  0  0  0  0  0
  195.7820  175.8980  143.5260 P   0  0  2  0  0  0  0  0  0  0  0  0
  194.9430  175.8550  145.0010 O   0  0  0  0  0  0  0  0  0  0  0  0
  193.7370  176.5220  144.7640 C   0  0  0  0  0  2  0  0  0  0  0  0
  193.0560  175.0650  146.6400 C   0  0  0  0  0  1  0  0  0  0  0  0
  192.8530  176.4150  145.9890 C   0  0  0  0  0  2  0  0  0  0  0  0
  190.7400  172.7150  144.4230 O   0  0  0  0  0  0  0  0  0  0  0  0
  189.8460  175.0370  143.9100 C   0  0  0  0  0  2  0  0  0  0  0  0
  189.6720  173.9230  146.1270 C   0  0  0  0  0  3  0  0  0  0  0  0
  188.3910  176.0350  145.6810 C   0  0  2  0  0  3  0  0  0  0  0  0
  190.1030  173.8850  144.8600 C   0  0  0  0  0  0  0  0  0  0  0  0
  189.0310  175.1360  146.7400 C   0  0  0  0  0  2  0  0  0  0  0  0
  189.4530  176.3310  144.6240 C   0  0  0  0  0  2  0  0  0  0  0  0
  187.8640  177.3310  146.3050 C   0  0  2  0  0  3  0  0  0  0  0  0
  188.8670  177.8910  147.3050 C   0  0  0  0  0  1  0  0  0  0  0  0
  186.5460  177.0770  147.0230 C   0  0  0  0  0  2  0  0  0  0  0  0
  185.3950  177.1280  146.0360 C   0  0  0  0  0  2  0  0  0  0  0  0
  185.7910  178.3610  143.8270 N   0  0  0  0  0  2  0  0  0  0  0  0
  185.9340  176.0370  143.5130 O   0  0  0  0  0  0  0  0  0  0  0  0
  185.4720  178.3790  145.2260 C   0  0  0  0  0  0  0  0  0  0  0  0
  186.0440  177.1970  143.0270 C   0  0  0  0  0  0  0  0  0  0  0  0
  185.2250  179.4810  145.7830 O   0  0  0  0  0  0  0  0  0  0  0  0
  187.5740  176.4660  141.2320 C   0  0  0  0  0  2  0  0  0  0  0  0
  186.3980  177.3630  141.5830 C   0  0  0  0  0  3  0  0  0  0  0  0
  187.7940  177.9460  141.4580 C   0  0  0  0  0  2  0  0  0  0  0  0
  190.4320  171.5190  142.3200 C   0  0  0  0  0  2  0  0  0  0  0  0
  189.1480  172.1680  141.8270 C   0  0  0  0  0  2  0  0  0  0  0  0
  189.3190  172.6670  140.4310 C   0  0  0  0  0  0  0  0  0  0  0  0
  191.8920  173.0400  137.7350 C   0  0  0  0  0  3  0  0  0  0  0  0
  190.2040  174.1720  136.3980 S   0  0  0  0  0  0  0  0  0  0  0  0
  189.6510  173.6820  137.8840 C   0  0  0  0  0  0  0  0  0  0  0  0
  188.2420  173.3040  139.7740 C   0  0  0  0  0  3  0  0  0  0  0  0
  190.7190  173.0660  138.5100 C   0  0  0  0  0  0  0  0  0  0  0  0
  190.5710  172.5510  139.7980 C   0  0  0  0  0  3  0  0  0  0  0  0
  191.7760  173.6240  136.5110 N   0  0  0  0  0  0  0  0  0  0  0  0
  188.4010  173.8220  138.4790 C   0  0  0  0  0  3  0  0  0  0  0  0
  1 37  1  1  0  0  0
  1  4  1  0  0  0  0
  1 18  1  0  0  0  0
  3  2  1  6  0  0  0
  3  6  1  0  0  0  0
  4  7  1  0  0  0  0
  5  3  1  0  0  0  0
  5  4  1  0  0  0  0
  6  7  2  0  0  0  0
  6  9  1  0  0  0  0
  9  8  2  0  0  0  0
 10 13  1  0  0  0  0
 10  9  1  0  0  0  0
 12 13  1  0  0  0  0
 13 11  2  6  0  0  0
 13 14  1  0  0  0  0
 15 14  1  0  0  0  0
 15 17  1  0  0  0  0
 17 16  1  0  0  0  0
 18 22  1  0  0  0  0
 19 24  1  0  0  0  0
 19 22  1  0  0  0  0
 20 23  1  0  0  0  0
 21 25  1  1  0  0  0
 21 23  1  0  0  0  0
 22 20  2  0  0  0  0
 24 21  1  0  0  0  0
 25 27  1  0  0  0  0
 25 26  1  1  0  0  0
 28 27  1  0  0  0  0
 29 31  1  0  0  0  0
 31 33  2  0  0  0  0
 31 28  1  0  0  0  0
 32 30  2  0  0  0  0
 32 29  1  0  0  0  0
 34 36  1  0  0  0  0
 34 35  1  0  0  0  0
 35 32  1  0  0  0  0
 36 35  1  0  0  0  0
 38 37  1  0  0  0  0
 39 38  1  0  0  0  0
 40 44  1  0  0  0  0
 41 46  1  0  0  0  0
 41 42  1  0  0  0  0
 42 47  2  0  0  0  0
 42 44  1  0  0  0  0
 43 39  2  0  0  0  0
 44 45  2  0  0  0  0
 45 39  1  0  0  0  0
 46 40  2  0  0  0  0
 47 43  1  0  0  0  0
M  END
>  <MODEL>
8

>  <REMARK>
 VINA RESULT:      -6.5      2.031      3.219
  Name = 
  17 active torsions:
  status: ('A' for Active; 'I' for Inactive)
    1  A    between atoms: C_2  and  C_15
    2  A    between atoms: O_4  and  P_29
    3  A    between atoms: O_4  and  C_37
    4  A    between atoms: C_11  and  C_15
    5  A    between atoms: C_11  and  C_46
    6  A    between atoms: C_12  and  C_22
    7  A    between atoms: C_12  and  C_31
    8  A    between atoms: C_17  and  C_28
    9  A    between atoms: C_20  and  C_25
   10  A    between atoms: C_20  and  P_29
   11  A    between atoms: N_21  and  C_46
   12  A    between atoms: C_22  and  C_28
   13  A    between atoms: C_25  and  C_30
   14  A    between atoms: O_32  and  C_39
   15  A    between atoms: O_32  and  C_46
   16  A    between atoms: C_33  and  C_34
   17  A    between atoms: C_37  and  C_38
                            x       y       z     vdW  Elec       q    Type
                         _______ _______ _______ _____ _____    ______ ____

>  <TORSDO>
F 17

$$$$
=
 OpenBabel11042418123D

 47 51  0  0  1  0  0  0  0  0999 V2000
  190.0370  174.5020  142.1460 C   0  0  2  0  0  3  0  0  0  0  0  0
  191.3020  171.7920  139.1810 C   0  0  0  0  0  1  0  0  0  0  0  0
  190.1340  171.6220  140.1360 C   0  0  2  0  0  3  0  0  0  0  0  0
  189.8170  173.1340  141.6870 N   0  0  0  0  0  0  0  0  0  0  0  0
  189.5390  172.8860  140.3750 O   0  0  0  0  0  0  0  0  0  0  0  0
  190.6110  171.1570  141.4680 C   0  0  0  0  0  0  0  0  0  0  0  0
  190.4250  172.0670  142.3410 N   0  0  0  0  0  0  0  0  0  0  0  0
  190.7660  168.8130  141.1780 O   0  0  0  0  0  0  0  0  0  0  0  0
  191.1780  169.8370  141.7860 C   0  0  0  0  0  0  0  0  0  0  0  0
  192.2390  169.6970  142.8270 C   0  0  0  0  0  2  0  0  0  0  0  0
  193.7320  169.7100  140.5550 O   0  0  0  0  0  0  0  0  0  0  0  0
  194.7690  168.3890  142.5660 O   0  0  0  0  0  1  0  0  0  0  0  0
  193.8870  169.7430  142.0600 P   0  0  2  0  0  0  0  0  0  0  0  0
  194.6780  171.1710  142.5250 O   0  0  0  0  0  0  0  0  0  0  0  0
  194.1160  172.1830  141.7390 C   0  0  0  0  0  2  0  0  0  0  0  0
  196.5560  172.5660  141.6500 C   0  0  0  0  0  1  0  0  0  0  0  0
  195.2210  172.9680  141.0640 C   0  0  0  0  0  2  0  0  0  0  0  0
  189.1820  175.4260  141.4650 O   0  0  0  0  0  0  0  0  0  0  0  0
  187.1400  175.5220  142.9750 C   0  0  0  0  0  2  0  0  0  0  0  0
  188.1770  177.5030  141.8880 C   0  0  0  0  0  3  0  0  0  0  0  0
  186.4250  177.8160  143.6580 C   0  0  2  0  0  3  0  0  0  0  0  0
  188.1680  176.1780  142.0760 C   0  0  0  0  0  0  0  0  0  0  0  0
  187.1150  178.4170  142.4320 C   0  0  0  0  0  2  0  0  0  0  0  0
  185.9400  176.4190  143.2760 C   0  0  0  0  0  2  0  0  0  0  0  0
  185.2550  178.6950  144.1150 C   0  0  2  0  0  3  0  0  0  0  0  0
  185.5660  180.1670  143.8850 C   0  0  0  0  0  1  0  0  0  0  0  0
  184.9780  178.4790  145.5960 C   0  0  0  0  0  2  0  0  0  0  0  0
  186.2520  178.6630  146.3990 C   0  0  0  0  0  2  0  0  0  0  0  0
  187.5720  176.6570  147.2880 N   0  0  0  0  0  2  0  0  0  0  0  0
  188.7550  177.7250  145.5620 O   0  0  0  0  0  0  0  0  0  0  0  0
  186.4290  177.5220  147.3460 C   0  0  0  0  0  0  0  0  0  0  0  0
  188.6770  176.7660  146.3790 C   0  0  0  0  0  0  0  0  0  0  0  0
  185.5600  177.3290  148.2360 O   0  0  0  0  0  0  0  0  0  0  0  0
  189.3460  174.4840  145.7170 C   0  0  0  0  0  2  0  0  0  0  0  0
  189.7760  175.7530  146.4360 C   0  0  0  0  0  3  0  0  0  0  0  0
  189.3190  174.5410  147.2290 C   0  0  0  0  0  2  0  0  0  0  0  0
  191.5030  174.8970  141.9990 C   0  0  0  0  0  2  0  0  0  0  0  0
  191.9610  175.7190  143.1950 C   0  0  0  0  0  2  0  0  0  0  0  0
  193.0640  175.0180  143.9170 C   0  0  0  0  0  0  0  0  0  0  0  0
  196.7880  175.0140  144.3060 C   0  0  0  0  0  3  0  0  0  0  0  0
  196.5490  173.0780  145.7600 S   0  0  0  0  0  0  0  0  0  0  0  0
  195.1040  173.6520  145.1800 C   0  0  0  0  0  0  0  0  0  0  0  0
  192.7720  173.9050  144.7350 C   0  0  0  0  0  3  0  0  0  0  0  0
  195.4110  174.7380  144.3810 C   0  0  0  0  0  0  0  0  0  0  0  0
  194.3950  175.4370  143.7310 C   0  0  0  0  0  3  0  0  0  0  0  0
  197.5770  174.1710  145.0280 N   0  0  0  0  0  0  0  0  0  0  0  0
  193.8030  173.2050  145.3830 C   0  0  0  0  0  3  0  0  0  0  0  0
  1 37  1  6  0  0  0
  3  2  1  6  0  0  0
  3  5  1  0  0  0  0
  3  6  1  0  0  0  0
  4  1  1  0  0  0  0
  4  7  1  0  0  0  0
  5  4  1  0  0  0  0
  6  9  1  0  0  0  0
  6  7  2  0  0  0  0
  8  9  2  0  0  0  0
  9 10  1  0  0  0  0
 13 11  2  6  0  0  0
 13 14  1  0  0  0  0
 13 12  1  0  0  0  0
 13 10  1  0  0  0  0
 15 14  1  0  0  0  0
 17 16  1  0  0  0  0
 17 15  1  0  0  0  0
 18 22  1  0  0  0  0
 18  1  1  0  0  0  0
 19 24  1  0  0  0  0
 20 22  2  0  0  0  0
 20 23  1  0  0  0  0
 21 25  1  6  0  0  0
 22 19  1  0  0  0  0
 23 21  1  0  0  0  0
 24 21  1  0  0  0  0
 25 26  1  1  0  0  0
 25 27  1  0  0  0  0
 27 28  1  0  0  0  0
 28 31  1  0  0  0  0
 29 31  1  0  0  0  0
 30 32  2  0  0  0  0
 31 33  2  0  0  0  0
 32 35  1  0  0  0  0
 32 29  1  0  0  0  0
 34 35  1  0  0  0  0
 34 36  1  0  0  0  0
 35 36  1  0  0  0  0
 37 38  1  0  0  0  0
 38 39  1  0  0  0  0
 39 43  1  0  0  0  0
 40 44  1  0  0  0  0
 40 46  2  0  0  0  0
 42 47  1  0  0  0  0
 42 41  1  0  0  0  0
 43 47  2  0  0  0  0
 44 42  2  0  0  0  0
 45 39  2  0  0  0  0
 45 44  1  0  0  0  0
 46 41  1  0  0  0  0
M  END
>  <MODEL>
9

>  <REMARK>
 VINA RESULT:      -6.5      3.290      5.915
  Name = 
  17 active torsions:
  status: ('A' for Active; 'I' for Inactive)
    1  A    between atoms: C_2  and  C_15
    2  A    between atoms: O_4  and  P_29
    3  A    between atoms: O_4  and  C_37
    4  A    between atoms: C_11  and  C_15
    5  A    between atoms: C_11  and  C_46
    6  A    between atoms: C_12  and  C_22
    7  A    between atoms: C_12  and  C_31
    8  A    between atoms: C_17  and  C_28
    9  A    between atoms: C_20  and  C_25
   10  A    between atoms: C_20  and  P_29
   11  A    between atoms: N_21  and  C_46
   12  A    between atoms: C_22  and  C_28
   13  A    between atoms: C_25  and  C_30
   14  A    between atoms: O_32  and  C_39
   15  A    between atoms: O_32  and  C_46
   16  A    between atoms: C_33  and  C_34
   17  A    between atoms: C_37  and  C_38
                            x       y       z     vdW  Elec       q    Type
                         _______ _______ _______ _____ _____    ______ ____

>  <TORSDO>
F 17

$$$$
