=
 OpenBabel11042419193D

 43 48  0  0  1  0  0  0  0  0999 V2000
  189.0220  177.3400  143.0840 O   0  0  0  0  0  0  0  0  0  0  0  0
  188.9260  176.1240  143.4030 C   0  0  0  0  0  0  0  0  0  0  0  0
  189.4510  175.6770  144.6710 N   0  0  0  0  0  0  0  0  0  0  0  0
  189.5320  174.8320  147.5120 C   0  0  0  0  0  1  0  0  0  0  0  0
  190.0010  176.6650  145.6150 C   0  0  2  0  0  3  0  0  0  0  0  0
  189.9680  176.2300  147.0880 C   0  0  2  0  0  0  0  0  0  0  0  0
  190.9890  176.7980  147.8490 O   0  0  0  0  0  1  0  0  0  0  0  0
  188.9580  177.2590  146.5970 C   0  0  2  0  0  3  0  0  0  0  0  0
  186.8110  176.4240  147.5370 O   0  0  0  0  0  1  0  0  0  0  0  0
  187.4700  176.8620  146.3880 C   0  0  1  0  0  3  0  0  0  0  0  0
  186.6960  178.0310  145.7800 C   0  0  0  0  0  2  0  0  0  0  0  0
  185.4540  178.4120  146.5860 C   0  0  1  0  0  3  0  0  0  0  0  0
  185.7520  179.4170  147.5120 O   0  0  0  0  0  1  0  0  0  0  0  0
  184.3120  178.8580  145.6800 C   0  0  0  0  0  1  0  0  0  0  0  0
  188.1250  175.1970  142.5130 C   0  0  2  0  0  3  0  0  0  0  0  0
  188.5740  175.2740  141.0630 C   0  0  0  0  0  2  0  0  0  0  0  0
  187.2460  175.8840  141.4510 C   0  0  2  0  0  3  0  0  0  0  0  0
  187.3630  177.3380  141.4590 N   0  0  0  0  0  2  0  0  0  0  0  0
  186.0780  179.3260  142.6390 O   0  0  0  0  0  0  0  0  0  0  0  0
  185.8380  178.0110  141.9430 S   0  0  0  0  0  0  0  0  0  0  0  0
  184.8230  178.2860  140.5080 C   0  0  0  0  0  1  0  0  0  0  0  0
  185.1300  177.0750  142.8850 O   0  0  0  0  0  0  0  0  0  0  0  0
  189.7630  174.2610  144.8610 C   0  0  0  0  0  2  0  0  0  0  0  0
  192.9130  172.2680  144.5870 C   0  0  0  0  0  0  0  0  0  0  0  0
  191.1990  171.5360  142.9920 C   0  0  0  0  0  3  0  0  0  0  0  0
  190.9200  173.8210  143.9640 C   0  0  1  0  0  3  0  0  0  0  0  0
  192.5290  174.3650  145.6470 O   0  0  0  0  0  0  0  0  0  0  0  0
  192.1480  173.5230  144.7900 C   0  0  0  0  0  0  0  0  0  0  0  0
  190.5000  172.6670  143.0880 C   0  0  0  0  0  3  0  0  0  0  0  0
  192.4450  171.3400  143.7490 C   0  0  0  0  0  3  0  0  0  0  0  0
  196.2090  172.2860  145.9540 C   0  0  0  0  0  0  0  0  0  0  0  0
  197.9400  173.7910  145.0700 N   0  0  0  0  0  2  0  0  0  0  0  0
  197.5340  174.5930  144.1570 N   0  0  0  0  0  2  0  0  0  0  0  0
  195.8360  174.2080  145.4060 C   0  0  1  0  0  3  0  0  0  0  0  0
  196.9030  173.5590  146.0770 C   0  0  1  0  0  3  0  0  0  0  0  0
  196.1720  174.9520  144.3860 C   0  0  2  0  0  3  0  0  0  0  0  0
  195.1380  172.9360  145.4990 N   0  0  0  0  0  0  0  0  0  0  0  0
  196.0110  170.9370  146.0520 C   0  0  0  0  0  3  0  0  0  0  0  0
  194.7090  170.7850  145.5970 N   0  0  0  0  0  0  0  0  0  0  0  0
  194.1960  172.0260  145.2750 C   0  0  0  0  0  0  0  0  0  0  0  0
  195.2720  175.2250  143.2970 C   0  0  0  0  0  0  0  0  0  0  0  0
  193.6390  175.7490  141.2540 C   0  0  0  0  0  1  0  0  0  0  0  0
  194.5310  175.4590  142.3760 C   0  0  0  0  0  0  0  0  0  0  0  0
  1  2  2  0  0  0  0
  2  3  1  0  0  0  0
  3 23  1  0  0  0  0
  5  3  1  6  0  0  0
  5  8  1  0  0  0  0
  5  6  1  0  0  0  0
  6  4  1  1  0  0  0
  6  7  1  0  0  0  0
  8 10  1  6  0  0  0
  8  6  1  0  0  0  0
 10  9  1  1  0  0  0
 11 10  1  0  0  0  0
 11 12  1  0  0  0  0
 12 14  1  6  0  0  0
 12 13  1  0  0  0  0
 15  2  1  1  0  0  0
 16 17  1  0  0  0  0
 16 15  1  0  0  0  0
 17 18  1  1  0  0  0
 17 15  1  0  0  0  0
 18 20  1  0  0  0  0
 20 19  2  0  0  0  0
 20 22  2  0  0  0  0
 21 20  1  0  0  0  0
 24 28  1  0  0  0  0
 24 40  1  0  0  0  0
 25 29  2  0  0  0  0
 25 30  1  0  0  0  0
 26 28  1  0  0  0  0
 26 23  1  1  0  0  0
 28 27  2  0  0  0  0
 29 26  1  0  0  0  0
 30 24  2  0  0  0  0
 31 38  2  0  0  0  0
 31 35  1  0  0  0  0
 33 36  1  0  0  0  0
 33 32  1  0  0  0  0
 34 37  1  6  0  0  0
 34 35  1  0  0  0  0
 35 32  1  6  0  0  0
 36 41  1  6  0  0  0
 36 34  1  0  0  0  0
 37 31  1  0  0  0  0
 39 38  1  0  0  0  0
 40 37  1  0  0  0  0
 40 39  2  0  0  0  0
 42 43  1  0  0  0  0
 43 41  3  0  0  0  0
M  END
>  <MODEL>
1

>  <REMARK>
 VINA RESULT:      -7.7      0.000      0.000
  Name = 
  11 active torsions:
  status: ('A' for Active; 'I' for Inactive)
    1  A    between atoms: C_1  and  C_38
    2  A    between atoms: C_3  and  C_43
    3  A    between atoms: N_6  and  S_12
    4  A    between atoms: N_6  and  C_41
    5  A    between atoms: C_10  and  C_28
    6  A    between atoms: C_13  and  C_27
    7  A    between atoms: C_14  and  C_17
    8  A    between atoms: C_19  and  N_29
    9  A    between atoms: C_28  and  N_29
   10  A    between atoms: C_35  and  C_38
   11  A    between atoms: C_35  and  C_42
                            x       y       z     vdW  Elec       q    Type
                         _______ _______ _______ _____ _____    ______ ____

>  <TORSDO>
F 11

$$$$
=
 OpenBabel11042419193D

 43 48  0  0  1  0  0  0  0  0999 V2000
  193.5620  172.8140  142.6040 O   0  0  0  0  0  0  0  0  0  0  0  0
  192.9780  173.9080  142.3730 C   0  0  0  0  0  0  0  0  0  0  0  0
  192.4690  174.6890  143.4750 N   0  0  0  0  0  0  0  0  0  0  0  0
  192.4060  176.8160  145.5400 C   0  0  0  0  0  1  0  0  0  0  0  0
  192.7270  174.2460  144.8570 C   0  0  2  0  0  3  0  0  0  0  0  0
  192.7560  175.3760  145.8960 C   0  0  2  0  0  0  0  0  0  0  0  0
  192.3660  174.9590  147.1680 O   0  0  0  0  0  1  0  0  0  0  0  0
  194.0700  174.7480  145.4480 C   0  0  2  0  0  3  0  0  0  0  0  0
  195.1170  176.8910  144.7410 O   0  0  0  0  0  1  0  0  0  0  0  0
  195.0280  175.5190  144.4980 C   0  0  1  0  0  3  0  0  0  0  0  0
  196.4270  174.9070  144.5520 C   0  0  0  0  0  2  0  0  0  0  0  0
  196.4100  173.3880  144.7310 C   0  0  1  0  0  3  0  0  0  0  0  0
  197.1010  172.7580  143.6920 O   0  0  0  0  0  1  0  0  0  0  0  0
  196.9990  172.9770  146.0760 C   0  0  0  0  0  1  0  0  0  0  0  0
  192.9650  174.4440  140.9570 C   0  0  2  0  0  3  0  0  0  0  0  0
  193.6780  173.5130  139.9920 C   0  0  0  0  0  2  0  0  0  0  0  0
  194.3400  174.8180  140.3720 C   0  0  2  0  0  3  0  0  0  0  0  0
  195.4470  174.5530  141.2840 N   0  0  0  0  0  2  0  0  0  0  0  0
  197.9390  175.3020  141.7570 O   0  0  0  0  0  0  0  0  0  0  0  0
  196.7380  175.6530  140.9180 S   0  0  0  0  0  0  0  0  0  0  0  0
  197.1690  175.5170  139.1960 C   0  0  0  0  0  1  0  0  0  0  0  0
  196.3210  177.0680  141.2180 O   0  0  0  0  0  0  0  0  0  0  0  0
  191.4250  175.6830  143.2300 C   0  0  0  0  0  2  0  0  0  0  0  0
  187.7160  176.0210  142.9150 C   0  0  0  0  0  0  0  0  0  0  0  0
  188.5100  173.7880  142.2830 C   0  0  0  0  0  3  0  0  0  0  0  0
  190.0550  175.1720  143.6770 C   0  0  1  0  0  3  0  0  0  0  0  0
  189.2740  177.3970  144.0770 O   0  0  0  0  0  0  0  0  0  0  0  0
  189.0220  176.2690  143.5750 C   0  0  0  0  0  0  0  0  0  0  0  0
  189.6790  173.9290  142.9100 C   0  0  0  0  0  3  0  0  0  0  0  0
  187.4990  174.8550  142.3010 C   0  0  0  0  0  3  0  0  0  0  0  0
  185.2510  178.4930  143.6510 C   0  0  0  0  0  0  0  0  0  0  0  0
  184.5750  178.9590  145.9690 N   0  0  0  0  0  2  0  0  0  0  0  0
  185.2290  178.3070  146.8560 N   0  0  0  0  0  2  0  0  0  0  0  0
  186.5650  178.5580  145.2000 C   0  0  1  0  0  3  0  0  0  0  0  0
  185.4280  179.3210  144.8350 C   0  0  1  0  0  3  0  0  0  0  0  0
  186.5690  178.0870  146.4190 C   0  0  2  0  0  3  0  0  0  0  0  0
  186.4220  177.9120  143.9050 N   0  0  0  0  0  0  0  0  0  0  0  0
  184.6590  178.0230  142.5120 C   0  0  0  0  0  3  0  0  0  0  0  0
  185.5630  177.0680  142.0700 N   0  0  0  0  0  0  0  0  0  0  0  0
  186.6380  177.0280  142.9370 C   0  0  0  0  0  0  0  0  0  0  0  0
  187.2980  176.9040  146.7910 C   0  0  0  0  0  0  0  0  0  0  0  0
  188.6880  174.7310  147.4730 C   0  0  0  0  0  1  0  0  0  0  0  0
  187.9210  175.9200  147.1010 C   0  0  0  0  0  0  0  0  0  0  0  0
  2  1  2  0  0  0  0
  2  3  1  0  0  0  0
  5  3  1  6  0  0  0
  5  8  1  0  0  0  0
  5  6  1  0  0  0  0
  6  4  1  6  0  0  0
  6  7  1  0  0  0  0
  8 10  1  6  0  0  0
  8  6  1  0  0  0  0
 10 11  1  0  0  0  0
 10  9  1  1  0  0  0
 11 12  1  0  0  0  0
 12 14  1  1  0  0  0
 13 12  1  0  0  0  0
 15  2  1  1  0  0  0
 16 17  1  0  0  0  0
 16 15  1  0  0  0  0
 17 15  1  0  0  0  0
 17 18  1  1  0  0  0
 20 22  2  0  0  0  0
 20 18  1  0  0  0  0
 20 19  2  0  0  0  0
 21 20  1  0  0  0  0
 23  3  1  0  0  0  0
 24 40  1  0  0  0  0
 24 28  1  0  0  0  0
 25 30  1  0  0  0  0
 25 29  2  0  0  0  0
 26 23  1  6  0  0  0
 28 26  1  0  0  0  0
 28 27  2  0  0  0  0
 29 26  1  0  0  0  0
 30 24  2  0  0  0  0
 31 37  1  0  0  0  0
 32 33  1  0  0  0  0
 34 37  1  6  0  0  0
 34 36  1  0  0  0  0
 35 31  1  6  0  0  0
 35 34  1  0  0  0  0
 35 32  1  0  0  0  0
 36 41  1  6  0  0  0
 36 33  1  0  0  0  0
 38 31  2  0  0  0  0
 39 38  1  0  0  0  0
 39 40  2  0  0  0  0
 40 37  1  0  0  0  0
 41 43  3  0  0  0  0
 43 42  1  0  0  0  0
M  END
>  <MODEL>
2

>  <REMARK>
 VINA RESULT:      -7.6      3.226      9.001
  Name = 
  11 active torsions:
  status: ('A' for Active; 'I' for Inactive)
    1  A    between atoms: C_1  and  C_38
    2  A    between atoms: C_3  and  C_43
    3  A    between atoms: N_6  and  S_12
    4  A    between atoms: N_6  and  C_41
    5  A    between atoms: C_10  and  C_28
    6  A    between atoms: C_13  and  C_27
    7  A    between atoms: C_14  and  C_17
    8  A    between atoms: C_19  and  N_29
    9  A    between atoms: C_28  and  N_29
   10  A    between atoms: C_35  and  C_38
   11  A    between atoms: C_35  and  C_42
                            x       y       z     vdW  Elec       q    Type
                         _______ _______ _______ _____ _____    ______ ____

>  <TORSDO>
F 11

$$$$
=
 OpenBabel11042419193D

 43 48  0  0  1  0  0  0  0  0999 V2000
  192.1210  171.5100  144.0660 O   0  0  0  0  0  0  0  0  0  0  0  0
  191.5460  172.5910  144.3660 C   0  0  0  0  0  0  0  0  0  0  0  0
  192.3140  173.6680  144.9440 N   0  0  0  0  0  0  0  0  0  0  0  0
  193.7770  176.1190  145.7470 C   0  0  0  0  0  1  0  0  0  0  0  0
  193.7740  173.5240  145.0820 C   0  0  2  0  0  3  0  0  0  0  0  0
  194.5150  174.8230  145.4310 C   0  0  2  0  0  0  0  0  0  0  0  0
  195.6860  174.6060  146.1560 O   0  0  0  0  0  1  0  0  0  0  0  0
  194.5950  174.2850  144.0080 C   0  0  2  0  0  3  0  0  0  0  0  0
  194.0130  176.3520  142.7530 O   0  0  0  0  0  1  0  0  0  0  0  0
  193.8070  174.9760  142.8610 C   0  0  1  0  0  3  0  0  0  0  0  0
  194.1370  174.3130  141.5240 C   0  0  0  0  0  2  0  0  0  0  0  0
  195.0080  175.1860  140.6200 C   0  0  1  0  0  3  0  0  0  0  0  0
  196.3630  174.8910  140.7990 O   0  0  0  0  0  1  0  0  0  0  0  0
  194.6270  175.0270  139.1530 C   0  0  0  0  0  1  0  0  0  0  0  0
  190.0980  172.7830  143.9680 C   0  0  2  0  0  3  0  0  0  0  0  0
  189.5970  171.6520  143.0860 C   0  0  0  0  0  2  0  0  0  0  0  0
  189.8410  173.0100  142.4670 C   0  0  2  0  0  3  0  0  0  0  0  0
  191.0560  172.9640  141.6600 N   0  0  0  0  0  2  0  0  0  0  0  0
  190.6310  171.2550  139.6880 O   0  0  0  0  0  0  0  0  0  0  0  0
  190.6080  172.7290  140.0010 S   0  0  0  0  0  0  0  0  0  0  0  0
  188.9650  173.3570  139.7310 C   0  0  0  0  0  1  0  0  0  0  0  0
  191.5710  173.4430  139.0920 O   0  0  0  0  0  0  0  0  0  0  0  0
  191.6280  174.7150  145.7000 C   0  0  0  0  0  2  0  0  0  0  0  0
  188.7360  177.0830  145.7020 C   0  0  0  0  0  0  0  0  0  0  0  0
  190.2830  177.4940  143.8430 C   0  0  0  0  0  3  0  0  0  0  0  0
  190.4170  175.2510  144.9350 C   0  0  1  0  0  3  0  0  0  0  0  0
  189.0090  175.0170  146.8530 O   0  0  0  0  0  0  0  0  0  0  0  0
  189.3640  175.7530  145.8940 C   0  0  0  0  0  0  0  0  0  0  0  0
  190.8460  176.2880  143.9280 C   0  0  0  0  0  3  0  0  0  0  0  0
  189.1900  177.8940  144.7420 C   0  0  0  0  0  3  0  0  0  0  0  0
  185.6410  178.1580  147.1140 C   0  0  0  0  0  0  0  0  0  0  0  0
  183.8100  178.9710  145.6870 N   0  0  0  0  0  2  0  0  0  0  0  0
  184.0430  178.8990  144.4300 N   0  0  0  0  0  2  0  0  0  0  0  0
  185.1600  177.3080  145.3310 C   0  0  1  0  0  3  0  0  0  0  0  0
  184.4080  177.8440  146.4070 C   0  0  1  0  0  3  0  0  0  0  0  0
  184.8670  177.7700  144.1440 C   0  0  2  0  0  3  0  0  0  0  0  0
  186.3210  177.4830  146.1880 N   0  0  0  0  0  0  0  0  0  0  0  0
  186.4410  178.6640  148.1000 C   0  0  0  0  0  3  0  0  0  0  0  0
  187.7070  178.2590  147.7030 N   0  0  0  0  0  0  0  0  0  0  0  0
  187.6030  177.5300  146.5350 C   0  0  0  0  0  0  0  0  0  0  0  0
  185.8170  177.7850  143.0640 C   0  0  0  0  0  0  0  0  0  0  0  0
  187.6120  177.8140  141.0910 C   0  0  0  0  0  1  0  0  0  0  0  0
  186.6240  177.7970  142.1690 C   0  0  0  0  0  0  0  0  0  0  0  0
  1  2  2  0  0  0  0
  2  3  1  0  0  0  0
  3 23  1  0  0  0  0
  5  3  1  6  0  0  0
  5  6  1  0  0  0  0
  6  4  1  1  0  0  0
  6  7  1  0  0  0  0
  8 10  1  6  0  0  0
  8  5  1  0  0  0  0
  8  6  1  0  0  0  0
 10  9  1  6  0  0  0
 11 10  1  0  0  0  0
 12 14  1  6  0  0  0
 12 13  1  0  0  0  0
 12 11  1  0  0  0  0
 15  2  1  6  0  0  0
 16 15  1  0  0  0  0
 17 18  1  6  0  0  0
 17 16  1  0  0  0  0
 17 15  1  0  0  0  0
 19 20  2  0  0  0  0
 20 18  1  0  0  0  0
 21 20  1  0  0  0  0
 22 20  2  0  0  0  0
 24 28  1  0  0  0  0
 24 40  1  0  0  0  0
 25 29  2  0  0  0  0
 25 30  1  0  0  0  0
 26 23  1  1  0  0  0
 26 28  1  0  0  0  0
 28 27  2  0  0  0  0
 29 26  1  0  0  0  0
 30 24  2  0  0  0  0
 31 38  2  0  0  0  0
 33 32  1  0  0  0  0
 34 37  1  1  0  0  0
 34 35  1  0  0  0  0
 35 32  1  6  0  0  0
 35 31  1  0  0  0  0
 36 41  1  1  0  0  0
 36 33  1  0  0  0  0
 36 34  1  0  0  0  0
 37 40  1  0  0  0  0
 37 31  1  0  0  0  0
 39 38  1  0  0  0  0
 40 39  2  0  0  0  0
 42 43  1  0  0  0  0
 43 41  3  0  0  0  0
M  END
>  <MODEL>
3

>  <REMARK>
 VINA RESULT:      -7.4      3.133      8.490
  Name = 
  11 active torsions:
  status: ('A' for Active; 'I' for Inactive)
    1  A    between atoms: C_1  and  C_38
    2  A    between atoms: C_3  and  C_43
    3  A    between atoms: N_6  and  S_12
    4  A    between atoms: N_6  and  C_41
    5  A    between atoms: C_10  and  C_28
    6  A    between atoms: C_13  and  C_27
    7  A    between atoms: C_14  and  C_17
    8  A    between atoms: C_19  and  N_29
    9  A    between atoms: C_28  and  N_29
   10  A    between atoms: C_35  and  C_38
   11  A    between atoms: C_35  and  C_42
                            x       y       z     vdW  Elec       q    Type
                         _______ _______ _______ _____ _____    ______ ____

>  <TORSDO>
F 11

$$$$
=
 OpenBabel11042419193D

 43 48  0  0  1  0  0  0  0  0999 V2000
  193.9730  172.9480  142.7100 O   0  0  0  0  0  0  0  0  0  0  0  0
  192.9180  173.2490  143.3320 C   0  0  0  0  0  0  0  0  0  0  0  0
  191.6920  173.4500  142.5980 N   0  0  0  0  0  0  0  0  0  0  0  0
  189.1130  172.4820  141.5000 C   0  0  0  0  0  1  0  0  0  0  0  0
  191.6690  173.2020  141.1450 C   0  0  2  0  0  3  0  0  0  0  0  0
  190.3440  172.6370  140.6130 C   0  0  2  0  0  0  0  0  0  0  0  0
  190.0900  172.9920  139.2900 O   0  0  0  0  0  1  0  0  0  0  0  0
  191.5420  171.7070  140.7550 C   0  0  2  0  0  3  0  0  0  0  0  0
  190.5040  169.7900  141.9540 O   0  0  0  0  0  1  0  0  0  0  0  0
  191.5950  170.6600  141.9010 C   0  0  1  0  0  3  0  0  0  0  0  0
  192.8830  169.8430  141.8090 C   0  0  0  0  0  2  0  0  0  0  0  0
  193.5140  169.5620  143.1730 C   0  0  1  0  0  3  0  0  0  0  0  0
  192.8430  168.5240  143.8260 O   0  0  0  0  0  1  0  0  0  0  0  0
  194.9960  169.2290  143.0460 C   0  0  0  0  0  1  0  0  0  0  0  0
  192.9360  173.2400  144.8460 C   0  0  2  0  0  3  0  0  0  0  0  0
  193.0020  174.6440  145.4210 C   0  0  0  0  0  2  0  0  0  0  0  0
  194.2270  173.7620  145.5030 C   0  0  2  0  0  3  0  0  0  0  0  0
  195.2210  174.2200  144.5380 N   0  0  0  0  0  2  0  0  0  0  0  0
  196.8490  173.6600  146.5450 O   0  0  0  0  0  0  0  0  0  0  0  0
  196.7800  173.6480  145.0390 S   0  0  0  0  0  0  0  0  0  0  0  0
  197.0230  171.9840  144.4570 C   0  0  0  0  0  1  0  0  0  0  0  0
  197.8640  174.5340  144.4870 O   0  0  0  0  0  0  0  0  0  0  0  0
  190.6080  174.2210  143.2050 C   0  0  0  0  0  2  0  0  0  0  0  0
  188.8540  177.5220  143.2130 C   0  0  0  0  0  0  0  0  0  0  0  0
  191.2870  177.7530  143.4290 C   0  0  0  0  0  3  0  0  0  0  0  0
  190.4450  175.5810  142.5250 C   0  0  1  0  0  3  0  0  0  0  0  0
  188.0620  175.3810  142.5350 O   0  0  0  0  0  0  0  0  0  0  0  0
  189.0550  176.1250  142.7550 C   0  0  0  0  0  0  0  0  0  0  0  0
  191.5330  176.5260  142.9670 C   0  0  0  0  0  3  0  0  0  0  0  0
  189.9130  178.2680  143.5390 C   0  0  0  0  0  3  0  0  0  0  0  0
  185.6050  178.7160  144.0780 C   0  0  0  0  0  0  0  0  0  0  0  0
  184.4390  177.8860  146.0780 N   0  0  0  0  0  2  0  0  0  0  0  0
  185.1220  177.0720  146.7920 N   0  0  0  0  0  2  0  0  0  0  0  0
  186.5440  178.3660  145.8460 C   0  0  1  0  0  3  0  0  0  0  0  0
  185.2910  178.9200  145.4840 C   0  0  1  0  0  3  0  0  0  0  0  0
  186.5090  177.4020  146.7280 C   0  0  2  0  0  3  0  0  0  0  0  0
  186.8460  178.3770  144.4240 N   0  0  0  0  0  0  0  0  0  0  0  0
  185.4060  178.7010  142.7260 C   0  0  0  0  0  3  0  0  0  0  0  0
  186.6420  178.3000  142.2400 N   0  0  0  0  0  0  0  0  0  0  0  0
  187.5080  178.1190  143.3000 C   0  0  0  0  0  0  0  0  0  0  0  0
  187.5280  176.3890  146.8090 C   0  0  0  0  0  0  0  0  0  0  0  0
  189.4080  174.5000  146.9170 C   0  0  0  0  0  1  0  0  0  0  0  0
  188.3790  175.5380  146.8630 C   0  0  0  0  0  0  0  0  0  0  0  0
  1  2  2  0  0  0  0
  3 23  1  0  0  0  0
  3  2  1  0  0  0  0
  5  3  1  1  0  0  0
  6  8  1  0  0  0  0
  6  5  1  0  0  0  0
  6  4  1  1  0  0  0
  7  6  1  0  0  0  0
  8  5  1  0  0  0  0
  8 10  1  1  0  0  0
 10  9  1  6  0  0  0
 11 10  1  0  0  0  0
 11 12  1  0  0  0  0
 12 14  1  6  0  0  0
 12 13  1  0  0  0  0
 15  2  1  6  0  0  0
 15 16  1  0  0  0  0
 15 17  1  0  0  0  0
 16 17  1  0  0  0  0
 17 18  1  6  0  0  0
 18 20  1  0  0  0  0
 20 19  2  0  0  0  0
 21 20  1  0  0  0  0
 22 20  2  0  0  0  0
 24 40  1  0  0  0  0
 24 30  2  0  0  0  0
 25 30  1  0  0  0  0
 26 28  1  0  0  0  0
 26 29  1  0  0  0  0
 26 23  1  1  0  0  0
 27 28  2  0  0  0  0
 28 24  1  0  0  0  0
 29 25  2  0  0  0  0
 31 37  1  0  0  0  0
 32 33  1  0  0  0  0
 34 37  1  6  0  0  0
 34 36  1  0  0  0  0
 35 31  1  6  0  0  0
 35 34  1  0  0  0  0
 35 32  1  0  0  0  0
 36 33  1  0  0  0  0
 36 41  1  6  0  0  0
 38 31  2  0  0  0  0
 39 38  1  0  0  0  0
 39 40  2  0  0  0  0
 40 37  1  0  0  0  0
 41 43  3  0  0  0  0
 43 42  1  0  0  0  0
M  END
>  <MODEL>
4

>  <REMARK>
 VINA RESULT:      -7.3      3.465      9.545
  Name = 
  11 active torsions:
  status: ('A' for Active; 'I' for Inactive)
    1  A    between atoms: C_1  and  C_38
    2  A    between atoms: C_3  and  C_43
    3  A    between atoms: N_6  and  S_12
    4  A    between atoms: N_6  and  C_41
    5  A    between atoms: C_10  and  C_28
    6  A    between atoms: C_13  and  C_27
    7  A    between atoms: C_14  and  C_17
    8  A    between atoms: C_19  and  N_29
    9  A    between atoms: C_28  and  N_29
   10  A    between atoms: C_35  and  C_38
   11  A    between atoms: C_35  and  C_42
                            x       y       z     vdW  Elec       q    Type
                         _______ _______ _______ _____ _____    ______ ____

>  <TORSDO>
F 11

$$$$
=
 OpenBabel11042419193D

 43 48  0  0  1  0  0  0  0  0999 V2000
  192.9000  173.9300  139.6010 O   0  0  0  0  0  0  0  0  0  0  0  0
  192.5460  174.0480  140.8060 C   0  0  0  0  0  0  0  0  0  0  0  0
  191.1650  173.8310  141.1660 N   0  0  0  0  0  0  0  0  0  0  0  0
  188.6950  172.5430  142.1810 C   0  0  0  0  0  1  0  0  0  0  0  0
  190.2110  173.3800  140.1370 C   0  0  2  0  0  3  0  0  0  0  0  0
  188.9730  172.6550  140.6870 C   0  0  2  0  0  0  0  0  0  0  0  0
  187.8500  172.8010  139.8750 O   0  0  0  0  0  1  0  0  0  0  0  0
  190.0760  171.8390  140.0250 C   0  0  2  0  0  3  0  0  0  0  0  0
  190.4460  170.3650  141.9950 O   0  0  0  0  0  1  0  0  0  0  0  0
  191.0370  170.9700  140.8840 C   0  0  1  0  0  3  0  0  0  0  0  0
  191.6920  169.8970  140.0170 C   0  0  0  0  0  2  0  0  0  0  0  0
  191.7970  170.2970  138.5440 C   0  0  1  0  0  3  0  0  0  0  0  0
  193.0750  170.7820  138.2510 O   0  0  0  0  0  1  0  0  0  0  0  0
  191.4550  169.1330  137.6220 C   0  0  0  0  0  1  0  0  0  0  0  0
  193.6090  174.2610  141.8630 C   0  0  2  0  0  3  0  0  0  0  0  0
  195.0110  174.1360  141.2900 C   0  0  0  0  0  2  0  0  0  0  0  0
  194.4860  173.0360  142.1850 C   0  0  2  0  0  3  0  0  0  0  0  0
  194.1610  171.8660  141.3770 N   0  0  0  0  0  2  0  0  0  0  0  0
  195.1610  169.4250  141.1870 O   0  0  0  0  0  0  0  0  0  0  0  0
  194.7300  170.4500  142.2040 S   0  0  0  0  0  0  0  0  0  0  0  0
  196.1210  170.8760  143.2300 C   0  0  0  0  0  1  0  0  0  0  0  0
  193.6370  169.8700  143.0600 O   0  0  0  0  0  0  0  0  0  0  0  0
  190.6520  174.3900  142.4160 C   0  0  0  0  0  2  0  0  0  0  0  0
  188.8170  177.4980  143.3890 C   0  0  0  0  0  0  0  0  0  0  0  0
  191.0940  177.4290  144.3000 C   0  0  0  0  0  3  0  0  0  0  0  0
  190.6150  175.9180  142.3690 C   0  0  1  0  0  3  0  0  0  0  0  0
  188.3260  175.9150  141.6790 O   0  0  0  0  0  0  0  0  0  0  0  0
  189.1920  176.4160  142.4450 C   0  0  0  0  0  0  0  0  0  0  0  0
  191.5060  176.5000  143.4360 C   0  0  0  0  0  3  0  0  0  0  0  0
  189.7190  177.9510  144.2630 C   0  0  0  0  0  3  0  0  0  0  0  0
  185.5290  178.7330  144.0170 C   0  0  0  0  0  0  0  0  0  0  0  0
  184.2440  177.9800  145.9740 N   0  0  0  0  0  2  0  0  0  0  0  0
  184.8800  177.1910  146.7570 N   0  0  0  0  0  2  0  0  0  0  0  0
  186.3610  178.4440  145.8490 C   0  0  1  0  0  3  0  0  0  0  0  0
  185.1340  178.9880  145.3940 C   0  0  1  0  0  3  0  0  0  0  0  0
  186.2690  177.5130  146.7620 C   0  0  2  0  0  3  0  0  0  0  0  0
  186.7460  178.4030  144.4480 N   0  0  0  0  0  0  0  0  0  0  0  0
  185.4100  178.6680  142.6570 C   0  0  0  0  0  3  0  0  0  0  0  0
  186.6700  178.2470  142.2600 N   0  0  0  0  0  0  0  0  0  0  0  0
  187.4710  178.1020  143.3750 C   0  0  0  0  0  0  0  0  0  0  0  0
  187.2760  176.5010  146.9400 C   0  0  0  0  0  0  0  0  0  0  0  0
  189.1730  174.6570  147.2840 C   0  0  0  0  0  1  0  0  0  0  0  0
  188.1290  175.6640  147.0950 C   0  0  0  0  0  0  0  0  0  0  0  0
  1  2  2  0  0  0  0
  2  3  1  0  0  0  0
  3 23  1  0  0  0  0
  5  6  1  0  0  0  0
  5  3  1  1  0  0  0
  6  4  1  1  0  0  0
  7  6  1  0  0  0  0
  8  5  1  0  0  0  0
  8  6  1  0  0  0  0
  8 10  1  1  0  0  0
 10  9  1  1  0  0  0
 11 10  1  0  0  0  0
 12 14  1  6  0  0  0
 12 11  1  0  0  0  0
 13 12  1  0  0  0  0
 15  2  1  6  0  0  0
 15 17  1  0  0  0  0
 16 15  1  0  0  0  0
 16 17  1  0  0  0  0
 17 18  1  6  0  0  0
 18 20  1  0  0  0  0
 19 20  2  0  0  0  0
 20 22  2  0  0  0  0
 20 21  1  0  0  0  0
 24 30  2  0  0  0  0
 26 23  1  1  0  0  0
 26 28  1  0  0  0  0
 26 29  1  0  0  0  0
 27 28  2  0  0  0  0
 28 24  1  0  0  0  0
 29 25  2  0  0  0  0
 30 25  1  0  0  0  0
 31 37  1  0  0  0  0
 32 33  1  0  0  0  0
 33 36  1  0  0  0  0
 34 37  1  6  0  0  0
 34 36  1  0  0  0  0
 35 31  1  6  0  0  0
 35 34  1  0  0  0  0
 35 32  1  0  0  0  0
 36 41  1  6  0  0  0
 38 31  2  0  0  0  0
 39 38  1  0  0  0  0
 39 40  2  0  0  0  0
 40 24  1  0  0  0  0
 40 37  1  0  0  0  0
 41 43  3  0  0  0  0
 43 42  1  0  0  0  0
M  END
>  <MODEL>
5

>  <REMARK>
 VINA RESULT:      -7.2      3.944      9.580
  Name = 
  11 active torsions:
  status: ('A' for Active; 'I' for Inactive)
    1  A    between atoms: C_1  and  C_38
    2  A    between atoms: C_3  and  C_43
    3  A    between atoms: N_6  and  S_12
    4  A    between atoms: N_6  and  C_41
    5  A    between atoms: C_10  and  C_28
    6  A    between atoms: C_13  and  C_27
    7  A    between atoms: C_14  and  C_17
    8  A    between atoms: C_19  and  N_29
    9  A    between atoms: C_28  and  N_29
   10  A    between atoms: C_35  and  C_38
   11  A    between atoms: C_35  and  C_42
                            x       y       z     vdW  Elec       q    Type
                         _______ _______ _______ _____ _____    ______ ____

>  <TORSDO>
F 11

$$$$
=
 OpenBabel11042419193D

 43 48  0  0  1  0  0  0  0  0999 V2000
  194.1170  172.9350  142.3170 O   0  0  0  0  0  0  0  0  0  0  0  0
  193.1130  173.2130  143.0290 C   0  0  0  0  0  0  0  0  0  0  0  0
  191.8220  173.3780  142.4040 N   0  0  0  0  0  0  0  0  0  0  0  0
  189.1410  172.4720  141.5210 C   0  0  0  0  0  1  0  0  0  0  0  0
  191.6780  173.1220  140.9600 C   0  0  2  0  0  3  0  0  0  0  0  0
  190.3010  172.5890  140.5390 C   0  0  2  0  0  0  0  0  0  0  0  0
  189.9530  172.9420  139.2370 O   0  0  0  0  0  1  0  0  0  0  0  0
  191.4820  171.6280  140.5930 C   0  0  2  0  0  3  0  0  0  0  0  0
  190.4420  169.8420  141.9780 O   0  0  0  0  0  1  0  0  0  0  0  0
  191.5980  170.5870  141.7410 C   0  0  1  0  0  3  0  0  0  0  0  0
  192.7620  169.6350  141.4710 C   0  0  0  0  0  2  0  0  0  0  0  0
  193.4630  169.9070  140.1400 C   0  0  1  0  0  3  0  0  0  0  0  0
  194.7950  170.2790  140.3460 O   0  0  0  0  0  1  0  0  0  0  0  0
  193.3950  168.6980  139.2140 C   0  0  0  0  0  1  0  0  0  0  0  0
  193.2640  173.2120  144.5350 C   0  0  2  0  0  3  0  0  0  0  0  0
  194.7220  173.1720  144.9590 C   0  0  0  0  0  2  0  0  0  0  0  0
  193.8720  171.9360  145.1460 C   0  0  2  0  0  3  0  0  0  0  0  0
  194.2410  170.9380  144.1470 N   0  0  0  0  0  2  0  0  0  0  0  0
  195.3330  168.5290  144.1630 O   0  0  0  0  0  0  0  0  0  0  0  0
  194.3670  169.3950  144.9310 S   0  0  0  0  0  0  0  0  0  0  0  0
  194.9720  169.6150  146.5900 C   0  0  0  0  0  1  0  0  0  0  0  0
  193.0230  168.7190  144.9740 O   0  0  0  0  0  0  0  0  0  0  0  0
  190.7770  174.1250  143.1020 C   0  0  0  0  0  2  0  0  0  0  0  0
  189.0590  177.4340  143.3780 C   0  0  0  0  0  0  0  0  0  0  0  0
  191.4240  177.5490  144.0200 C   0  0  0  0  0  3  0  0  0  0  0  0
  190.7330  175.5830  142.6420 C   0  0  1  0  0  3  0  0  0  0  0  0
  188.3810  175.4600  142.2320 O   0  0  0  0  0  0  0  0  0  0  0  0
  189.3270  176.1250  142.7310 C   0  0  0  0  0  0  0  0  0  0  0  0
  191.7380  176.4080  143.4050 C   0  0  0  0  0  3  0  0  0  0  0  0
  190.0530  178.0820  143.9910 C   0  0  0  0  0  3  0  0  0  0  0  0
  185.7710  178.6940  143.9560 C   0  0  0  0  0  0  0  0  0  0  0  0
  184.4420  177.9330  145.8800 N   0  0  0  0  0  2  0  0  0  0  0  0
  185.0550  177.1300  146.6660 N   0  0  0  0  0  2  0  0  0  0  0  0
  186.5650  178.3780  145.8000 C   0  0  1  0  0  3  0  0  0  0  0  0
  185.3530  178.9390  145.3280 C   0  0  1  0  0  3  0  0  0  0  0  0
  186.4470  177.4390  146.7010 C   0  0  2  0  0  3  0  0  0  0  0  0
  186.9760  178.3480  144.4060 N   0  0  0  0  0  0  0  0  0  0  0  0
  185.6770  178.6440  142.5930 C   0  0  0  0  0  3  0  0  0  0  0  0
  186.9410  178.2150  142.2160 N   0  0  0  0  0  0  0  0  0  0  0  0
  187.7190  178.0510  143.3450 C   0  0  0  0  0  0  0  0  0  0  0  0
  187.4410  176.4150  146.8880 C   0  0  0  0  0  0  0  0  0  0  0  0
  189.3160  174.5470  147.2180 C   0  0  0  0  0  1  0  0  0  0  0  0
  188.2850  175.5680  147.0400 C   0  0  0  0  0  0  0  0  0  0  0  0
  1  2  2  0  0  0  0
  3  2  1  0  0  0  0
  3 23  1  0  0  0  0
  5  3  1  1  0  0  0
  6  8  1  0  0  0  0
  6  5  1  0  0  0  0
  6  4  1  1  0  0  0
  7  6  1  0  0  0  0
  8  5  1  0  0  0  0
  8 10  1  1  0  0  0
 10  9  1  6  0  0  0
 11 10  1  0  0  0  0
 12 14  1  6  0  0  0
 12 13  1  0  0  0  0
 12 11  1  0  0  0  0
 15  2  1  6  0  0  0
 15 16  1  0  0  0  0
 15 17  1  0  0  0  0
 16 17  1  0  0  0  0
 17 18  1  6  0  0  0
 18 20  1  0  0  0  0
 19 20  2  0  0  0  0
 20 22  2  0  0  0  0
 20 21  1  0  0  0  0
 24 30  2  0  0  0  0
 26 28  1  0  0  0  0
 26 23  1  1  0  0  0
 26 29  1  0  0  0  0
 27 28  2  0  0  0  0
 28 24  1  0  0  0  0
 29 25  2  0  0  0  0
 30 25  1  0  0  0  0
 31 37  1  0  0  0  0
 32 33  1  0  0  0  0
 33 36  1  0  0  0  0
 34 37  1  6  0  0  0
 34 36  1  0  0  0  0
 35 31  1  6  0  0  0
 35 34  1  0  0  0  0
 35 32  1  0  0  0  0
 36 41  1  6  0  0  0
 38 31  2  0  0  0  0
 39 38  1  0  0  0  0
 39 40  2  0  0  0  0
 40 24  1  0  0  0  0
 40 37  1  0  0  0  0
 41 43  3  0  0  0  0
 43 42  1  0  0  0  0
M  END
>  <MODEL>
6

>  <REMARK>
 VINA RESULT:      -7.2      3.709      9.705
  Name = 
  11 active torsions:
  status: ('A' for Active; 'I' for Inactive)
    1  A    between atoms: C_1  and  C_38
    2  A    between atoms: C_3  and  C_43
    3  A    between atoms: N_6  and  S_12
    4  A    between atoms: N_6  and  C_41
    5  A    between atoms: C_10  and  C_28
    6  A    between atoms: C_13  and  C_27
    7  A    between atoms: C_14  and  C_17
    8  A    between atoms: C_19  and  N_29
    9  A    between atoms: C_28  and  N_29
   10  A    between atoms: C_35  and  C_38
   11  A    between atoms: C_35  and  C_42
                            x       y       z     vdW  Elec       q    Type
                         _______ _______ _______ _____ _____    ______ ____

>  <TORSDO>
F 11

$$$$
=
 OpenBabel11042419193D

 43 48  0  0  1  0  0  0  0  0999 V2000
  192.7140  172.4700  144.7020 O   0  0  0  0  0  0  0  0  0  0  0  0
  191.8330  173.3000  144.3490 C   0  0  0  0  0  0  0  0  0  0  0  0
  192.0300  174.7050  144.6170 N   0  0  0  0  0  0  0  0  0  0  0  0
  192.6610  177.5800  144.2630 C   0  0  0  0  0  1  0  0  0  0  0  0
  193.3020  175.1570  145.2080 C   0  0  2  0  0  3  0  0  0  0  0  0
  193.6370  176.6340  144.9520 C   0  0  2  0  0  0  0  0  0  0  0  0
  194.4140  177.2010  145.9600 O   0  0  0  0  0  1  0  0  0  0  0  0
  194.3810  175.5590  144.1690 C   0  0  2  0  0  3  0  0  0  0  0  0
  193.4530  176.3850  142.0140 O   0  0  0  0  0  1  0  0  0  0  0  0
  194.0590  175.3120  142.6690 C   0  0  1  0  0  3  0  0  0  0  0  0
  195.3290  174.9170  141.9170 C   0  0  0  0  0  2  0  0  0  0  0  0
  196.0000  176.0970  141.2130 C   0  0  1  0  0  3  0  0  0  0  0  0
  196.8670  176.7670  142.0830 O   0  0  0  0  0  1  0  0  0  0  0  0
  196.7530  175.6500  139.9660 C   0  0  0  0  0  1  0  0  0  0  0  0
  190.6640  172.8150  143.5180 C   0  0  2  0  0  3  0  0  0  0  0  0
  190.9420  171.4640  142.8830 C   0  0  0  0  0  2  0  0  0  0  0  0
  190.9250  172.6940  142.0050 C   0  0  2  0  0  3  0  0  0  0  0  0
  192.2910  173.0390  141.6260 N   0  0  0  0  0  2  0  0  0  0  0  0
  193.0660  174.2330  139.3970 O   0  0  0  0  0  0  0  0  0  0  0  0
  192.4180  172.9680  139.8960 S   0  0  0  0  0  0  0  0  0  0  0  0
  193.4190  171.5740  139.4270 C   0  0  0  0  0  1  0  0  0  0  0  0
  191.0530  172.8340  139.2770 O   0  0  0  0  0  0  0  0  0  0  0  0
  190.8750  175.6010  144.6430 C   0  0  0  0  0  2  0  0  0  0  0  0
  188.0540  176.5950  146.8850 C   0  0  0  0  0  0  0  0  0  0  0  0
  188.9680  174.3890  147.4500 C   0  0  0  0  0  3  0  0  0  0  0  0
  190.4230  175.8850  146.0760 C   0  0  1  0  0  3  0  0  0  0  0  0
  189.3710  177.9290  145.4180 O   0  0  0  0  0  0  0  0  0  0  0  0
  189.2740  176.8650  146.0850 C   0  0  0  0  0  0  0  0  0  0  0  0
  190.1120  174.5980  146.7960 C   0  0  0  0  0  3  0  0  0  0  0  0
  187.9210  175.4210  147.5080 C   0  0  0  0  0  3  0  0  0  0  0  0
  185.3310  178.8770  146.5620 C   0  0  0  0  0  0  0  0  0  0  0  0
  184.4420  179.4860  144.3520 N   0  0  0  0  0  2  0  0  0  0  0  0
  184.9830  178.8650  143.3710 N   0  0  0  0  0  2  0  0  0  0  0  0
  185.1020  177.5390  145.0490 C   0  0  1  0  0  3  0  0  0  0  0  0
  184.3330  178.6270  145.5330 C   0  0  1  0  0  3  0  0  0  0  0  0
  185.3630  177.5490  143.7690 C   0  0  2  0  0  3  0  0  0  0  0  0
  185.9410  177.7440  146.2190 N   0  0  0  0  0  0  0  0  0  0  0  0
  185.9410  179.5160  147.6050 C   0  0  0  0  0  3  0  0  0  0  0  0
  187.0160  178.6850  147.8850 N   0  0  0  0  0  0  0  0  0  0  0  0
  186.9860  177.6030  147.0280 C   0  0  0  0  0  0  0  0  0  0  0  0
  186.5160  176.8960  143.2090 C   0  0  0  0  0  0  0  0  0  0  0  0
  188.6480  175.6510  142.1970 C   0  0  0  0  0  1  0  0  0  0  0  0
  187.4790  176.3370  142.7480 C   0  0  0  0  0  0  0  0  0  0  0  0
  2  3  1  0  0  0  0
  2  1  2  0  0  0  0
  3 23  1  0  0  0  0
  5  3  1  6  0  0  0
  6  4  1  6  0  0  0
  6  5  1  0  0  0  0
  6  7  1  0  0  0  0
  8 10  1  6  0  0  0
  8  6  1  0  0  0  0
  8  5  1  0  0  0  0
 10  9  1  6  0  0  0
 11 10  1  0  0  0  0
 12 14  1  6  0  0  0
 12 11  1  0  0  0  0
 12 13  1  0  0  0  0
 15  2  1  1  0  0  0
 16 15  1  0  0  0  0
 17 18  1  1  0  0  0
 17 16  1  0  0  0  0
 17 15  1  0  0  0  0
 19 20  2  0  0  0  0
 20 18  1  0  0  0  0
 21 20  1  0  0  0  0
 22 20  2  0  0  0  0
 24 40  1  0  0  0  0
 24 30  2  0  0  0  0
 25 30  1  0  0  0  0
 26 23  1  6  0  0  0
 26 28  1  0  0  0  0
 26 29  1  0  0  0  0
 27 28  2  0  0  0  0
 28 24  1  0  0  0  0
 29 25  2  0  0  0  0
 31 38  2  0  0  0  0
 33 36  1  0  0  0  0
 33 32  1  0  0  0  0
 34 35  1  0  0  0  0
 34 37  1  1  0  0  0
 35 32  1  6  0  0  0
 35 31  1  0  0  0  0
 36 41  1  1  0  0  0
 36 34  1  0  0  0  0
 37 31  1  0  0  0  0
 37 40  1  0  0  0  0
 38 39  1  0  0  0  0
 40 39  2  0  0  0  0
 42 43  1  0  0  0  0
 43 41  3  0  0  0  0
M  END
>  <MODEL>
7

>  <REMARK>
 VINA RESULT:      -7.2      3.144      8.641
  Name = 
  11 active torsions:
  status: ('A' for Active; 'I' for Inactive)
    1  A    between atoms: C_1  and  C_38
    2  A    between atoms: C_3  and  C_43
    3  A    between atoms: N_6  and  S_12
    4  A    between atoms: N_6  and  C_41
    5  A    between atoms: C_10  and  C_28
    6  A    between atoms: C_13  and  C_27
    7  A    between atoms: C_14  and  C_17
    8  A    between atoms: C_19  and  N_29
    9  A    between atoms: C_28  and  N_29
   10  A    between atoms: C_35  and  C_38
   11  A    between atoms: C_35  and  C_42
                            x       y       z     vdW  Elec       q    Type
                         _______ _______ _______ _____ _____    ______ ____

>  <TORSDO>
F 11

$$$$
=
 OpenBabel11042419193D

 43 48  0  0  1  0  0  0  0  0999 V2000
  189.1480  177.2240  143.1820 O   0  0  0  0  0  0  0  0  0  0  0  0
  188.8780  176.0280  143.4790 C   0  0  0  0  0  0  0  0  0  0  0  0
  189.2760  175.5080  144.7660 N   0  0  0  0  0  0  0  0  0  0  0  0
  189.2970  174.5360  147.5670 C   0  0  0  0  0  1  0  0  0  0  0  0
  189.9010  176.4090  145.7490 C   0  0  2  0  0  3  0  0  0  0  0  0
  189.8380  175.9140  147.2020 C   0  0  2  0  0  0  0  0  0  0  0  0
  190.9000  176.3690  147.9810 O   0  0  0  0  0  1  0  0  0  0  0  0
  188.9070  177.0370  146.7610 C   0  0  2  0  0  3  0  0  0  0  0  0
  186.7120  176.2960  147.6660 O   0  0  0  0  0  1  0  0  0  0  0  0
  187.3930  176.7640  146.5420 C   0  0  1  0  0  3  0  0  0  0  0  0
  186.7020  178.0250  146.0250 C   0  0  0  0  0  2  0  0  0  0  0  0
  185.5750  178.5080  146.9390 C   0  0  1  0  0  3  0  0  0  0  0  0
  185.9270  179.7050  147.5720 O   0  0  0  0  0  1  0  0  0  0  0  0
  184.2700  178.6870  146.1710 C   0  0  0  0  0  1  0  0  0  0  0  0
  188.0100  175.2200  142.5380 C   0  0  2  0  0  3  0  0  0  0  0  0
  188.3500  175.4870  141.0820 C   0  0  0  0  0  2  0  0  0  0  0  0
  187.0570  176.0330  141.6440 C   0  0  2  0  0  3  0  0  0  0  0  0
  187.1790  177.4750  141.8310 N   0  0  0  0  0  2  0  0  0  0  0  0
  185.7880  179.4490  142.9090 O   0  0  0  0  0  0  0  0  0  0  0  0
  185.6160  178.1120  142.2350 S   0  0  0  0  0  0  0  0  0  0  0  0
  184.6560  178.3260  140.7510 C   0  0  0  0  0  1  0  0  0  0  0  0
  184.8940  177.1770  143.1660 O   0  0  0  0  0  0  0  0  0  0  0  0
  189.3910  174.0620  144.9520 C   0  0  0  0  0  2  0  0  0  0  0  0
  190.9270  172.9050  141.7460 C   0  0  0  0  0  0  0  0  0  0  0  0
  192.1280  174.8050  142.7290 C   0  0  0  0  0  3  0  0  0  0  0  0
  190.6380  173.5090  144.2610 C   0  0  1  0  0  3  0  0  0  0  0  0
  189.3680  171.8040  143.1690 O   0  0  0  0  0  0  0  0  0  0  0  0
  190.2550  172.6900  143.0520 C   0  0  0  0  0  0  0  0  0  0  0  0
  191.6020  174.6240  143.9420 C   0  0  0  0  0  3  0  0  0  0  0  0
  191.7930  173.9130  141.6090 C   0  0  0  0  0  3  0  0  0  0  0  0
  190.6530  170.2810  139.3450 C   0  0  0  0  0  0  0  0  0  0  0  0
  192.0060  168.2370  139.5400 N   0  0  0  0  0  2  0  0  0  0  0  0
  192.7320  168.1780  140.5930 N   0  0  0  0  0  2  0  0  0  0  0  0
  191.0240  169.3590  141.1180 C   0  0  1  0  0  3  0  0  0  0  0  0
  190.7290  168.9040  139.8090 C   0  0  1  0  0  3  0  0  0  0  0  0
  192.0850  168.8410  141.6780 C   0  0  2  0  0  3  0  0  0  0  0  0
  190.7410  170.6920  140.6090 N   0  0  0  0  0  0  0  0  0  0  0  0
  190.5210  171.3120  138.4580 C   0  0  0  0  0  3  0  0  0  0  0  0
  190.5510  172.4290  139.2810 N   0  0  0  0  0  0  0  0  0  0  0  0
  190.6760  172.0190  140.5940 C   0  0  0  0  0  0  0  0  0  0  0  0
  192.8350  169.5250  142.6980 C   0  0  0  0  0  0  0  0  0  0  0  0
  194.1950  170.7800  144.6190 C   0  0  0  0  0  1  0  0  0  0  0  0
  193.4540  170.0930  143.5620 C   0  0  0  0  0  0  0  0  0  0  0  0
  1  2  2  0  0  0  0
  2  3  1  0  0  0  0
  3 23  1  0  0  0  0
  5  3  1  6  0  0  0
  5  8  1  0  0  0  0
  5  6  1  0  0  0  0
  6  4  1  1  0  0  0
  6  7  1  0  0  0  0
  8 10  1  6  0  0  0
  8  6  1  0  0  0  0
 10  9  1  1  0  0  0
 11 10  1  0  0  0  0
 11 12  1  0  0  0  0
 12 14  1  6  0  0  0
 12 13  1  0  0  0  0
 15  2  1  1  0  0  0
 16 17  1  0  0  0  0
 16 15  1  0  0  0  0
 17 18  1  1  0  0  0
 17 15  1  0  0  0  0
 18 20  1  0  0  0  0
 20 19  2  0  0  0  0
 20 22  2  0  0  0  0
 21 20  1  0  0  0  0
 24 28  1  0  0  0  0
 25 29  2  0  0  0  0
 26 23  1  6  0  0  0
 28 27  2  0  0  0  0
 28 26  1  0  0  0  0
 29 26  1  0  0  0  0
 30 24  2  0  0  0  0
 30 25  1  0  0  0  0
 31 37  1  0  0  0  0
 32 35  1  0  0  0  0
 32 33  1  0  0  0  0
 33 36  1  0  0  0  0
 34 37  1  6  0  0  0
 34 36  1  0  0  0  0
 35 31  1  6  0  0  0
 35 34  1  0  0  0  0
 36 41  1  6  0  0  0
 38 39  1  0  0  0  0
 38 31  2  0  0  0  0
 39 40  2  0  0  0  0
 40 37  1  0  0  0  0
 40 24  1  0  0  0  0
 41 43  3  0  0  0  0
 43 42  1  0  0  0  0
M  END
>  <MODEL>
8

>  <REMARK>
 VINA RESULT:      -6.7      2.810      4.546
  Name = 
  11 active torsions:
  status: ('A' for Active; 'I' for Inactive)
    1  A    between atoms: C_1  and  C_38
    2  A    between atoms: C_3  and  C_43
    3  A    between atoms: N_6  and  S_12
    4  A    between atoms: N_6  and  C_41
    5  A    between atoms: C_10  and  C_28
    6  A    between atoms: C_13  and  C_27
    7  A    between atoms: C_14  and  C_17
    8  A    between atoms: C_19  and  N_29
    9  A    between atoms: C_28  and  N_29
   10  A    between atoms: C_35  and  C_38
   11  A    between atoms: C_35  and  C_42
                            x       y       z     vdW  Elec       q    Type
                         _______ _______ _______ _____ _____    ______ ____

>  <TORSDO>
F 11

$$$$
=
 OpenBabel11042419193D

 43 48  0  0  1  0  0  0  0  0999 V2000
  188.2790  177.8630  144.0380 O   0  0  0  0  0  0  0  0  0  0  0  0
  188.8890  176.7610  143.9870 C   0  0  0  0  0  0  0  0  0  0  0  0
  189.9270  176.4760  144.9490 N   0  0  0  0  0  0  0  0  0  0  0  0
  190.6140  175.2830  147.5750 C   0  0  0  0  0  1  0  0  0  0  0  0
  190.1880  177.4350  146.0370 C   0  0  2  0  0  3  0  0  0  0  0  0
  190.4740  176.7920  147.4020 C   0  0  2  0  0  0  0  0  0  0  0  0
  191.3020  177.5690  148.2100 O   0  0  0  0  0  1  0  0  0  0  0  0
  189.1160  177.4360  147.1580 C   0  0  2  0  0  3  0  0  0  0  0  0
  187.9120  175.2910  147.5320 O   0  0  0  0  0  1  0  0  0  0  0  0
  187.8540  176.5550  146.9430 C   0  0  1  0  0  3  0  0  0  0  0  0
  186.6100  177.2870  147.4470 C   0  0  0  0  0  2  0  0  0  0  0  0
  185.6690  177.7150  146.3210 C   0  0  1  0  0  3  0  0  0  0  0  0
  184.3950  177.1660  146.5030 O   0  0  0  0  0  1  0  0  0  0  0  0
  185.5740  179.2320  146.2160 C   0  0  0  0  0  1  0  0  0  0  0  0
  188.4100  175.7060  143.0120 C   0  0  2  0  0  3  0  0  0  0  0  0
  189.0830  175.8380  141.6570 C   0  0  0  0  0  2  0  0  0  0  0  0
  187.6290  176.2290  141.7920 C   0  0  2  0  0  3  0  0  0  0  0  0
  187.5120  177.6830  141.7620 N   0  0  0  0  0  2  0  0  0  0  0  0
  185.8040  179.4170  142.7970 O   0  0  0  0  0  0  0  0  0  0  0  0
  185.8550  178.1080  142.0500 S   0  0  0  0  0  0  0  0  0  0  0  0
  185.0050  178.2900  140.4970 C   0  0  0  0  0  1  0  0  0  0  0  0
  185.1770  177.0440  142.8690 O   0  0  0  0  0  0  0  0  0  0  0  0
  190.9280  175.4540  144.6460 C   0  0  0  0  0  2  0  0  0  0  0  0
  194.5570  174.8450  143.9880 C   0  0  0  0  0  0  0  0  0  0  0  0
  193.4820  176.1320  142.1970 C   0  0  0  0  0  3  0  0  0  0  0  0
  192.3020  176.0780  144.3980 C   0  0  1  0  0  3  0  0  0  0  0  0
  193.3250  174.6450  146.0160 O   0  0  0  0  0  0  0  0  0  0  0  0
  193.3970  175.1480  144.8630 C   0  0  0  0  0  0  0  0  0  0  0  0
  192.4430  176.4870  142.9540 C   0  0  0  0  0  3  0  0  0  0  0  0
  194.5730  175.3040  142.7340 C   0  0  0  0  0  3  0  0  0  0  0  0
  196.9120  172.4040  145.0920 C   0  0  0  0  0  0  0  0  0  0  0  0
  196.1940  170.1320  145.6990 N   0  0  0  0  0  2  0  0  0  0  0  0
  194.9490  169.8990  145.5110 N   0  0  0  0  0  2  0  0  0  0  0  0
  195.5030  171.3700  144.0550 C   0  0  1  0  0  3  0  0  0  0  0  0
  196.7320  171.0230  144.6690 C   0  0  1  0  0  3  0  0  0  0  0  0
  194.4720  170.6380  144.3870 C   0  0  2  0  0  3  0  0  0  0  0  0
  195.8590  172.7480  144.3530 N   0  0  0  0  0  0  0  0  0  0  0  0
  197.4940  173.4700  145.7190 C   0  0  0  0  0  3  0  0  0  0  0  0
  196.6950  174.5310  145.3200 N   0  0  0  0  0  0  0  0  0  0  0  0
  195.7080  174.0620  144.4760 C   0  0  0  0  0  0  0  0  0  0  0  0
  193.1210  171.1310  144.3280 C   0  0  0  0  0  0  0  0  0  0  0  0
  190.6070  172.0120  144.1870 C   0  0  0  0  0  1  0  0  0  0  0  0
  191.9860  171.5320  144.2690 C   0  0  0  0  0  0  0  0  0  0  0  0
  2  1  2  0  0  0  0
  2  3  1  0  0  0  0
  5  3  1  6  0  0  0
  5  8  1  0  0  0  0
  5  6  1  0  0  0  0
  6  4  1  1  0  0  0
  6  7  1  0  0  0  0
  8 10  1  6  0  0  0
  8  6  1  0  0  0  0
 10 11  1  0  0  0  0
 10  9  1  1  0  0  0
 12 14  1  1  0  0  0
 12 13  1  0  0  0  0
 12 11  1  0  0  0  0
 15  2  1  1  0  0  0
 16 17  1  0  0  0  0
 16 15  1  0  0  0  0
 17 18  1  1  0  0  0
 17 15  1  0  0  0  0
 18 20  1  0  0  0  0
 20 19  2  0  0  0  0
 20 22  2  0  0  0  0
 21 20  1  0  0  0  0
 23  3  1  0  0  0  0
 24 40  1  0  0  0  0
 24 28  1  0  0  0  0
 25 30  1  0  0  0  0
 25 29  2  0  0  0  0
 26 23  1  6  0  0  0
 26 28  1  0  0  0  0
 28 27  2  0  0  0  0
 29 26  1  0  0  0  0
 30 24  2  0  0  0  0
 31 38  2  0  0  0  0
 33 32  1  0  0  0  0
 34 37  1  1  0  0  0
 34 36  1  0  0  0  0
 34 35  1  0  0  0  0
 35 31  1  1  0  0  0
 35 32  1  0  0  0  0
 36 41  1  1  0  0  0
 36 33  1  0  0  0  0
 37 40  1  0  0  0  0
 37 31  1  0  0  0  0
 39 38  1  0  0  0  0
 40 39  2  0  0  0  0
 42 43  1  0  0  0  0
 43 41  3  0  0  0  0
M  END
>  <MODEL>
9

>  <REMARK>
 VINA RESULT:      -6.7      1.253      2.737
  Name = 
  11 active torsions:
  status: ('A' for Active; 'I' for Inactive)
    1  A    between atoms: C_1  and  C_38
    2  A    between atoms: C_3  and  C_43
    3  A    between atoms: N_6  and  S_12
    4  A    between atoms: N_6  and  C_41
    5  A    between atoms: C_10  and  C_28
    6  A    between atoms: C_13  and  C_27
    7  A    between atoms: C_14  and  C_17
    8  A    between atoms: C_19  and  N_29
    9  A    between atoms: C_28  and  N_29
   10  A    between atoms: C_35  and  C_38
   11  A    between atoms: C_35  and  C_42
                            x       y       z     vdW  Elec       q    Type
                         _______ _______ _______ _____ _____    ______ ____

>  <TORSDO>
F 11

$$$$
