=
 OpenBabel11042419163D

 43 45  0  0  1  0  0  0  0  0999 V2000
  187.3840  176.4940  140.8100 C   0  0  2  0  0  3  0  0  0  0  0  0
  186.6250  177.2240  139.7550 C   0  0  0  0  0  0  0  0  0  0  0  0
  185.9000  178.2100  140.0520 O   0  0  0  0  0  0  0  0  0  0  0  0
  186.7260  176.8060  138.3990 N   0  0  0  0  0  1  0  0  0  0  0  0
  187.5090  175.0880  140.4490 N   0  0  0  0  0  2  0  0  0  0  0  0
  189.7360  174.7580  141.3850 C   0  0  0  0  0  3  0  0  0  0  0  0
  190.2520  172.7010  139.5660 C   0  0  0  0  0  3  0  0  0  0  0  0
  190.9730  174.1060  141.4130 C   0  0  0  0  0  0  0  0  0  0  0  0
  188.7570  174.3900  140.4570 C   0  0  0  0  0  0  0  0  0  0  0  0
  189.0200  173.3570  139.5460 C   0  0  0  0  0  3  0  0  0  0  0  0
  191.2260  173.0750  140.4960 C   0  0  0  0  0  3  0  0  0  0  0  0
  193.2410  174.4100  144.5070 N   0  0  0  0  0  2  0  0  0  0  0  0
  194.0430  175.5710  144.2500 C   0  0  0  0  0  0  0  0  0  0  0  0
  193.8510  176.2770  143.2240 O   0  0  0  0  0  0  0  0  0  0  0  0
  192.2160  173.8980  143.6500 C   0  0  0  0  0  0  0  0  0  0  0  0
  191.5610  172.8890  144.0230 O   0  0  0  0  0  0  0  0  0  0  0  0
  191.9470  174.5180  142.3820 N   0  0  0  0  0  2  0  0  0  0  0  0
  194.7050  177.1650  146.0140 C   0  0  0  0  0  1  0  0  0  0  0  0
  195.1290  175.9570  145.2030 C   0  0  1  0  0  3  0  0  0  0  0  0
  195.4770  174.8070  146.1380 C   0  0  0  0  0  2  0  0  0  0  0  0
  196.5990  172.7290  145.8160 O   0  0  0  0  0  1  0  0  0  0  0  0
  197.4990  174.5190  144.7060 O   0  0  0  0  0  0  0  0  0  0  0  0
  196.5580  173.9580  145.5580 C   0  0  0  0  0  0  0  0  0  0  0  0
  186.6840  176.6340  142.1580 C   0  0  0  0  0  2  0  0  0  0  0  0
  189.7720  177.4840  142.8830 C   0  0  0  0  0  2  0  0  0  0  0  0
  184.9490  178.5880  146.7920 C   0  0  0  0  0  3  0  0  0  0  0  0
  190.5790  178.0230  144.0560 C   0  0  0  0  0  2  0  0  0  0  0  0
  186.7540  176.8730  147.0820 C   0  0  0  0  0  3  0  0  0  0  0  0
  190.0170  176.3400  145.8130 C   0  0  0  0  0  0  0  0  0  0  0  0
  190.9300  176.9650  144.9480 O   0  0  0  0  0  0  0  0  0  0  0  0
  185.6570  177.5060  147.4810 C   0  0  0  0  0  3  0  0  0  0  0  0
  188.7620  176.7030  145.8570 C   0  0  0  0  0  0  0  0  0  0  0  0
  185.0550  178.9610  145.5210 C   0  0  0  0  0  3  0  0  0  0  0  0
  186.9170  177.5280  144.5580 C   0  0  0  0  0  0  0  0  0  0  0  0
  187.6150  177.1160  143.2790 C   0  0  2  0  0  3  0  0  0  0  0  0
  185.8890  178.3760  144.4640 C   0  0  0  0  0  3  0  0  0  0  0  0
  187.5120  177.0880  145.8450 C   0  0  0  0  0  0  0  0  0  0  0  0
  188.5150  178.0970  142.8480 O   0  0  0  0  0  0  0  0  0  0  0  0
  189.4400  174.8460  147.5470 O   0  0  0  0  0  1  0  0  0  0  0  0
  190.4760  175.2290  146.6940 C   0  0  2  0  0  3  0  0  0  0  0  0
  191.6770  175.6740  147.5080 C   0  0  0  0  0  2  0  0  0  0  0  0
  191.2580  176.1530  148.7490 O   0  0  0  0  0  0  0  0  0  0  0  0
  191.6810  177.4810  148.7730 C   0  0  0  0  0  1  0  0  0  0  0  0
  1 24  1  1  0  0  0
  2  3  2  0  0  0  0
  2  1  1  0  0  0  0
  4  2  1  0  0  0  0
  5  9  1  0  0  0  0
  5  1  1  0  0  0  0
  6  8  1  0  0  0  0
  7 11  1  0  0  0  0
  8 17  1  0  0  0  0
  9  6  2  0  0  0  0
 10  7  2  0  0  0  0
 10  9  1  0  0  0  0
 11  8  2  0  0  0  0
 13 12  1  0  0  0  0
 13 19  1  0  0  0  0
 14 13  2  0  0  0  0
 15 16  2  0  0  0  0
 15 12  1  0  0  0  0
 17 15  1  0  0  0  0
 19 18  1  1  0  0  0
 19 20  1  0  0  0  0
 22 23  2  0  0  0  0
 23 21  1  0  0  0  0
 23 20  1  0  0  0  0
 25 27  1  0  0  0  0
 26 31  1  0  0  0  0
 27 30  1  0  0  0  0
 28 31  2  0  0  0  0
 29 32  2  0  0  0  0
 29 40  1  0  0  0  0
 30 29  1  0  0  0  0
 33 26  2  0  0  0  0
 34 37  1  0  0  0  0
 35 24  1  6  0  0  0
 35 34  1  0  0  0  0
 36 34  2  0  0  0  0
 36 33  1  0  0  0  0
 37 32  2  0  0  0  0
 37 28  1  0  0  0  0
 38 25  1  0  0  0  0
 38 35  1  0  0  0  0
 40 41  1  0  0  0  0
 40 39  1  1  0  0  0
 41 42  1  0  0  0  0
 42 43  1  0  0  0  0
M  END
>  <MODEL>
1

>  <REMARK>
 VINA RESULT:      -7.6      0.000      0.000
  Name = 
  12 active torsions:
  status: ('A' for Active; 'I' for Inactive)
    1  A    between atoms: C_5  and  C_17
    2  A    between atoms: C_8  and  C_23
    3  A    between atoms: C_10  and  C_15
    4  A    between atoms: C_15  and  C_33
    5  A    between atoms: C_17  and  N_19
    6  A    between atoms: C_17  and  C_43
    7  A    between atoms: N_19  and  C_30
    8  A    between atoms: C_23  and  C_41
    9  A    between atoms: O_24  and  C_41
   10  A    between atoms: C_25  and  N_42
   11  A    between atoms: C_31  and  C_43
   12  A    between atoms: C_33  and  C_37
                            x       y       z     vdW  Elec       q    Type
                         _______ _______ _______ _____ _____    ______ ____

>  <TORSDO>
F 12

$$$$
=
 OpenBabel11042419163D

 43 45  0  0  1  0  0  0  0  0999 V2000
  195.5730  175.0780  142.0030 C   0  0  2  0  0  3  0  0  0  0  0  0
  196.4420  175.4880  140.8620 C   0  0  0  0  0  0  0  0  0  0  0  0
  195.9520  175.6790  139.7180 O   0  0  0  0  0  0  0  0  0  0  0  0
  197.8370  175.6700  141.0720 N   0  0  0  0  0  1  0  0  0  0  0  0
  194.3030  175.7910  141.9410 N   0  0  0  0  0  2  0  0  0  0  0  0
  191.9460  175.9120  142.5530 C   0  0  0  0  0  3  0  0  0  0  0  0
  191.6470  173.1630  142.1500 C   0  0  0  0  0  3  0  0  0  0  0  0
  190.7000  175.3140  142.7680 C   0  0  0  0  0  0  0  0  0  0  0  0
  193.0410  175.1480  142.1380 C   0  0  0  0  0  0  0  0  0  0  0  0
  192.8870  173.7690  141.9370 C   0  0  0  0  0  3  0  0  0  0  0  0
  190.5570  173.9330  142.5650 C   0  0  0  0  0  3  0  0  0  0  0  0
  187.4040  177.2850  143.0040 N   0  0  0  0  0  2  0  0  0  0  0  0
  187.4420  177.8920  144.3030 C   0  0  0  0  0  0  0  0  0  0  0  0
  188.4550  177.7760  145.0430 O   0  0  0  0  0  0  0  0  0  0  0  0
  188.4300  176.4660  142.4350 C   0  0  0  0  0  0  0  0  0  0  0  0
  188.2790  176.0320  141.2630 O   0  0  0  0  0  0  0  0  0  0  0  0
  189.6050  176.1370  143.1930 N   0  0  0  0  0  2  0  0  0  0  0  0
  185.6730  179.4950  143.6730 C   0  0  0  0  0  1  0  0  0  0  0  0
  186.2670  178.6730  144.8000 C   0  0  1  0  0  3  0  0  0  0  0  0
  185.2020  177.7550  145.3830 C   0  0  0  0  0  2  0  0  0  0  0  0
  184.4590  178.4560  147.5360 O   0  0  0  0  0  1  0  0  0  0  0  0
  186.1780  176.9420  147.5300 O   0  0  0  0  0  0  0  0  0  0  0  0
  185.2610  177.7510  146.8730 C   0  0  0  0  0  0  0  0  0  0  0  0
  196.2740  175.3590  143.3280 C   0  0  0  0  0  2  0  0  0  0  0  0
  197.3200  172.6940  144.9370 C   0  0  0  0  0  2  0  0  0  0  0  0
  192.3750  176.0920  146.8740 C   0  0  0  0  0  3  0  0  0  0  0  0
  196.8940  171.7940  146.0880 C   0  0  0  0  0  2  0  0  0  0  0  0
  192.3150  173.8140  145.8280 C   0  0  0  0  0  3  0  0  0  0  0  0
  194.5980  171.1520  145.3410 C   0  0  0  0  0  0  0  0  0  0  0  0
  195.9340  170.8360  145.6420 O   0  0  0  0  0  0  0  0  0  0  0  0
  191.7300  174.8750  146.3750 C   0  0  0  0  0  3  0  0  0  0  0  0
  194.1440  172.3720  145.4610 C   0  0  0  0  0  0  0  0  0  0  0  0
  193.6050  176.5310  146.6270 C   0  0  0  0  0  3  0  0  0  0  0  0
  194.7070  174.6980  145.2580 C   0  0  0  0  0  0  0  0  0  0  0  0
  195.9230  174.3470  144.4280 C   0  0  2  0  0  3  0  0  0  0  0  0
  194.6360  175.9290  145.7740 C   0  0  0  0  0  3  0  0  0  0  0  0
  193.7450  173.6120  145.5730 C   0  0  0  0  0  0  0  0  0  0  0  0
  197.0190  174.0270  145.2370 O   0  0  0  0  0  0  0  0  0  0  0  0
  193.8360  168.9380  145.6440 O   0  0  0  0  0  1  0  0  0  0  0  0
  193.6760  170.0840  144.8620 C   0  0  2  0  0  3  0  0  0  0  0  0
  193.9660  169.7610  143.4080 C   0  0  0  0  0  2  0  0  0  0  0  0
  193.0740  168.7930  142.9500 O   0  0  0  0  0  0  0  0  0  0  0  0
  192.0220  169.5200  142.3940 C   0  0  0  0  0  1  0  0  0  0  0  0
  1 24  1  1  0  0  0
  2  4  1  0  0  0  0
  2  1  1  0  0  0  0
  3  2  2  0  0  0  0
  5  1  1  0  0  0  0
  5  9  1  0  0  0  0
  6  8  1  0  0  0  0
  7 11  1  0  0  0  0
  8 17  1  0  0  0  0
  9  6  2  0  0  0  0
 10  9  1  0  0  0  0
 10  7  2  0  0  0  0
 11  8  2  0  0  0  0
 12 13  1  0  0  0  0
 13 19  1  0  0  0  0
 13 14  2  0  0  0  0
 15 12  1  0  0  0  0
 15 17  1  0  0  0  0
 16 15  2  0  0  0  0
 19 18  1  6  0  0  0
 19 20  1  0  0  0  0
 20 23  1  0  0  0  0
 23 22  2  0  0  0  0
 23 21  1  0  0  0  0
 25 38  1  0  0  0  0
 25 27  1  0  0  0  0
 28 31  2  0  0  0  0
 29 32  2  0  0  0  0
 29 30  1  0  0  0  0
 30 27  1  0  0  0  0
 31 26  1  0  0  0  0
 32 37  2  0  0  0  0
 33 26  2  0  0  0  0
 34 37  1  0  0  0  0
 34 36  2  0  0  0  0
 35 24  1  1  0  0  0
 35 38  1  0  0  0  0
 35 34  1  0  0  0  0
 36 33  1  0  0  0  0
 37 28  1  0  0  0  0
 40 29  1  0  0  0  0
 40 39  1  1  0  0  0
 41 40  1  0  0  0  0
 42 41  1  0  0  0  0
 43 42  1  0  0  0  0
M  END
>  <MODEL>
2

>  <REMARK>
 VINA RESULT:      -7.6      2.846      8.147
  Name = 
  12 active torsions:
  status: ('A' for Active; 'I' for Inactive)
    1  A    between atoms: C_5  and  C_17
    2  A    between atoms: C_8  and  C_23
    3  A    between atoms: C_10  and  C_15
    4  A    between atoms: C_15  and  C_33
    5  A    between atoms: C_17  and  N_19
    6  A    between atoms: C_17  and  C_43
    7  A    between atoms: N_19  and  C_30
    8  A    between atoms: C_23  and  C_41
    9  A    between atoms: O_24  and  C_41
   10  A    between atoms: C_25  and  N_42
   11  A    between atoms: C_31  and  C_43
   12  A    between atoms: C_33  and  C_37
                            x       y       z     vdW  Elec       q    Type
                         _______ _______ _______ _____ _____    ______ ____

>  <TORSDO>
F 12

$$$$
=
 OpenBabel11042419163D

 43 45  0  0  1  0  0  0  0  0999 V2000
  195.3050  175.3130  143.3930 C   0  0  2  0  0  3  0  0  0  0  0  0
  196.6520  175.9530  143.3780 C   0  0  0  0  0  0  0  0  0  0  0  0
  196.7660  177.2070  143.3650 O   0  0  0  0  0  0  0  0  0  0  0  0
  197.8170  175.1380  143.3850 N   0  0  0  0  0  1  0  0  0  0  0  0
  194.3670  176.1120  142.6150 N   0  0  0  0  0  2  0  0  0  0  0  0
  191.9380  176.2960  142.7320 C   0  0  0  0  0  3  0  0  0  0  0  0
  191.6380  174.0800  141.0570 C   0  0  0  0  0  3  0  0  0  0  0  0
  190.6550  175.8540  142.3950 C   0  0  0  0  0  0  0  0  0  0  0  0
  193.0700  175.6410  142.2390 C   0  0  0  0  0  0  0  0  0  0  0  0
  192.9150  174.5290  141.3970 C   0  0  0  0  0  3  0  0  0  0  0  0
  190.5110  174.7400  141.5540 C   0  0  0  0  0  3  0  0  0  0  0  0
  187.2230  177.5120  142.9270 N   0  0  0  0  0  2  0  0  0  0  0  0
  187.2930  178.0630  144.2490 C   0  0  0  0  0  0  0  0  0  0  0  0
  188.3590  178.0070  144.9190 O   0  0  0  0  0  0  0  0  0  0  0  0
  188.2770  176.8120  142.2580 C   0  0  0  0  0  0  0  0  0  0  0  0
  188.0880  176.4170  141.0770 O   0  0  0  0  0  0  0  0  0  0  0  0
  189.5230  176.5580  142.9250 N   0  0  0  0  0  2  0  0  0  0  0  0
  185.1390  179.1660  143.7640 C   0  0  0  0  0  1  0  0  0  0  0  0
  186.0900  178.7140  144.8540 C   0  0  1  0  0  3  0  0  0  0  0  0
  185.3710  177.7680  145.8050 C   0  0  0  0  0  2  0  0  0  0  0  0
  185.9910  177.1100  148.0100 O   0  0  0  0  0  1  0  0  0  0  0  0
  185.8380  179.3690  147.6610 O   0  0  0  0  0  0  0  0  0  0  0  0
  185.7400  178.0550  147.2210 C   0  0  0  0  0  0  0  0  0  0  0  0
  194.8080  175.1610  144.8270 C   0  0  0  0  0  2  0  0  0  0  0  0
  194.8100  171.8790  144.7310 C   0  0  0  0  0  2  0  0  0  0  0  0
  190.1310  175.1850  147.3650 C   0  0  0  0  0  3  0  0  0  0  0  0
  193.8840  170.7100  145.0400 C   0  0  0  0  0  2  0  0  0  0  0  0
  190.0480  173.9310  145.1960 C   0  0  0  0  0  3  0  0  0  0  0  0
  191.8930  171.3260  143.6630 C   0  0  0  0  0  0  0  0  0  0  0  0
  192.9830  170.4880  143.9560 O   0  0  0  0  0  0  0  0  0  0  0  0
  189.4980  174.6830  146.1440 C   0  0  0  0  0  3  0  0  0  0  0  0
  191.6320  172.3810  144.3890 C   0  0  0  0  0  0  0  0  0  0  0  0
  191.4280  175.2630  147.6460 C   0  0  0  0  0  3  0  0  0  0  0  0
  192.6040  174.1530  145.6880 C   0  0  0  0  0  0  0  0  0  0  0  0
  193.9510  173.9060  145.0430 C   0  0  2  0  0  3  0  0  0  0  0  0
  192.5700  174.8880  146.8030 C   0  0  0  0  0  3  0  0  0  0  0  0
  191.4270  173.4390  145.1320 C   0  0  0  0  0  0  0  0  0  0  0  0
  194.6500  172.8810  145.6930 O   0  0  0  0  0  0  0  0  0  0  0  0
  189.6920  171.3170  142.8110 O   0  0  0  0  0  1  0  0  0  0  0  0
  191.0200  171.0210  142.4950 C   0  0  2  0  0  3  0  0  0  0  0  0
  191.1470  169.5560  142.1200 C   0  0  0  0  0  2  0  0  0  0  0  0
  190.9760  169.4010  140.7450 O   0  0  0  0  0  0  0  0  0  0  0  0
  192.2190  169.7190  140.2000 C   0  0  0  0  0  1  0  0  0  0  0  0
  1 24  1  1  0  0  0
  2  4  1  0  0  0  0
  2  1  1  0  0  0  0
  3  2  2  0  0  0  0
  5  1  1  0  0  0  0
  7 10  2  0  0  0  0
  7 11  1  0  0  0  0
  8  6  1  0  0  0  0
  8 17  1  0  0  0  0
  9  5  1  0  0  0  0
  9  6  2  0  0  0  0
 10  9  1  0  0  0  0
 11  8  2  0  0  0  0
 12 13  1  0  0  0  0
 13 19  1  0  0  0  0
 13 14  2  0  0  0  0
 15 17  1  0  0  0  0
 15 12  1  0  0  0  0
 16 15  2  0  0  0  0
 19 18  1  6  0  0  0
 19 20  1  0  0  0  0
 20 23  1  0  0  0  0
 23 22  2  0  0  0  0
 23 21  1  0  0  0  0
 25 27  1  0  0  0  0
 25 38  1  0  0  0  0
 26 33  2  0  0  0  0
 28 31  2  0  0  0  0
 29 30  1  0  0  0  0
 29 32  2  0  0  0  0
 30 27  1  0  0  0  0
 31 26  1  0  0  0  0
 32 37  2  0  0  0  0
 34 36  2  0  0  0  0
 35 24  1  1  0  0  0
 35 34  1  0  0  0  0
 35 38  1  0  0  0  0
 36 33  1  0  0  0  0
 37 28  1  0  0  0  0
 37 34  1  0  0  0  0
 40 39  1  1  0  0  0
 40 29  1  0  0  0  0
 41 40  1  0  0  0  0
 42 41  1  0  0  0  0
 43 42  1  0  0  0  0
M  END
>  <MODEL>
3

>  <REMARK>
 VINA RESULT:      -7.6      2.580      7.827
  Name = 
  12 active torsions:
  status: ('A' for Active; 'I' for Inactive)
    1  A    between atoms: C_5  and  C_17
    2  A    between atoms: C_8  and  C_23
    3  A    between atoms: C_10  and  C_15
    4  A    between atoms: C_15  and  C_33
    5  A    between atoms: C_17  and  N_19
    6  A    between atoms: C_17  and  C_43
    7  A    between atoms: N_19  and  C_30
    8  A    between atoms: C_23  and  C_41
    9  A    between atoms: O_24  and  C_41
   10  A    between atoms: C_25  and  N_42
   11  A    between atoms: C_31  and  C_43
   12  A    between atoms: C_33  and  C_37
                            x       y       z     vdW  Elec       q    Type
                         _______ _______ _______ _____ _____    ______ ____

>  <TORSDO>
F 12

$$$$
=
 OpenBabel11042419163D

 43 45  0  0  1  0  0  0  0  0999 V2000
  194.1660  174.0140  140.8420 C   0  0  2  0  0  3  0  0  0  0  0  0
  194.7800  173.8740  139.4900 C   0  0  0  0  0  0  0  0  0  0  0  0
  195.6410  172.9840  139.2650 O   0  0  0  0  0  0  0  0  0  0  0  0
  194.3820  174.7520  138.4440 N   0  0  0  0  0  1  0  0  0  0  0  0
  192.7190  174.1330  140.7210 N   0  0  0  0  0  2  0  0  0  0  0  0
  190.8830  174.8260  142.1690 C   0  0  0  0  0  3  0  0  0  0  0  0
  191.0040  172.4080  143.5640 C   0  0  0  0  0  3  0  0  0  0  0  0
  190.0010  174.5960  143.2300 C   0  0  0  0  0  0  0  0  0  0  0  0
  191.8240  173.8590  141.8010 C   0  0  0  0  0  0  0  0  0  0  0  0
  191.8800  172.6460  142.5030 C   0  0  0  0  0  3  0  0  0  0  0  0
  190.0670  173.3800  143.9260 C   0  0  0  0  0  3  0  0  0  0  0  0
  186.8660  176.8060  143.5390 N   0  0  0  0  0  2  0  0  0  0  0  0
  187.2570  177.8570  144.4340 C   0  0  0  0  0  0  0  0  0  0  0  0
  188.4390  177.9390  144.8610 O   0  0  0  0  0  0  0  0  0  0  0  0
  187.7070  175.7400  143.0880 C   0  0  0  0  0  0  0  0  0  0  0  0
  187.2410  174.9060  142.2670 O   0  0  0  0  0  0  0  0  0  0  0  0
  189.0540  175.6180  143.5710 N   0  0  0  0  0  2  0  0  0  0  0  0
  185.5260  179.4460  143.6760 C   0  0  0  0  0  1  0  0  0  0  0  0
  186.2540  178.8750  144.8770 C   0  0  1  0  0  3  0  0  0  0  0  0
  185.2480  178.2720  145.8470 C   0  0  0  0  0  2  0  0  0  0  0  0
  186.0700  176.9600  147.6600 O   0  0  0  0  0  0  0  0  0  0  0  0
  186.1950  179.2290  147.9480 O   0  0  0  0  0  1  0  0  0  0  0  0
  185.8490  178.1090  147.2030 C   0  0  0  0  0  0  0  0  0  0  0  0
  194.7400  175.2310  141.5590 C   0  0  0  0  0  2  0  0  0  0  0  0
  197.4360  174.4040  143.2420 C   0  0  0  0  0  2  0  0  0  0  0  0
  192.1280  176.2950  146.0710 C   0  0  0  0  0  3  0  0  0  0  0  0
  197.8780  174.1700  144.6800 C   0  0  0  0  0  2  0  0  0  0  0  0
  193.0520  173.9640  146.0150 C   0  0  0  0  0  3  0  0  0  0  0  0
  196.2010  172.4650  145.4030 C   0  0  0  0  0  0  0  0  0  0  0  0
  197.5170  172.8550  145.1050 O   0  0  0  0  0  0  0  0  0  0  0  0
  192.1470  174.8640  146.3860 C   0  0  0  0  0  3  0  0  0  0  0  0
  195.2050  173.3070  145.3130 C   0  0  0  0  0  0  0  0  0  0  0  0
  192.8100  176.9380  145.1290 C   0  0  0  0  0  3  0  0  0  0  0  0
  194.3380  175.1910  144.0990 C   0  0  0  0  0  0  0  0  0  0  0  0
  195.2900  174.9110  142.9560 C   0  0  2  0  0  3  0  0  0  0  0  0
  193.7440  176.3870  144.1400 C   0  0  0  0  0  3  0  0  0  0  0  0
  194.2400  174.1810  145.1830 C   0  0  0  0  0  0  0  0  0  0  0  0
  196.5470  175.4820  143.1850 O   0  0  0  0  0  0  0  0  0  0  0  0
  197.1260  170.3820  146.0150 O   0  0  0  0  0  1  0  0  0  0  0  0
  195.9230  171.0620  145.8200 C   0  0  2  0  0  3  0  0  0  0  0  0
  195.0990  170.3590  144.7570 C   0  0  0  0  0  2  0  0  0  0  0  0
  194.1460  169.5390  145.3600 O   0  0  0  0  0  0  0  0  0  0  0  0
  193.1630  169.3700  144.3860 C   0  0  0  0  0  1  0  0  0  0  0  0
  1 24  1  6  0  0  0
  2  1  1  0  0  0  0
  3  2  2  0  0  0  0
  4  2  1  0  0  0  0
  5  1  1  0  0  0  0
  5  9  1  0  0  0  0
  6  8  1  0  0  0  0
  7 11  1  0  0  0  0
  8 17  1  0  0  0  0
  8 11  2  0  0  0  0
  9  6  2  0  0  0  0
  9 10  1  0  0  0  0
 10  7  2  0  0  0  0
 12 13  1  0  0  0  0
 13 14  2  0  0  0  0
 13 19  1  0  0  0  0
 15 12  1  0  0  0  0
 15 17  1  0  0  0  0
 16 15  2  0  0  0  0
 19 18  1  6  0  0  0
 19 20  1  0  0  0  0
 20 23  1  0  0  0  0
 23 21  2  0  0  0  0
 23 22  1  0  0  0  0
 25 27  1  0  0  0  0
 26 31  1  0  0  0  0
 27 30  1  0  0  0  0
 28 31  2  0  0  0  0
 29 40  1  0  0  0  0
 30 29  1  0  0  0  0
 32 29  2  0  0  0  0
 33 26  2  0  0  0  0
 34 36  2  0  0  0  0
 34 37  1  0  0  0  0
 35 24  1  6  0  0  0
 35 38  1  0  0  0  0
 35 34  1  0  0  0  0
 36 33  1  0  0  0  0
 37 32  2  0  0  0  0
 37 28  1  0  0  0  0
 38 25  1  0  0  0  0
 40 39  1  6  0  0  0
 41 42  1  0  0  0  0
 41 40  1  0  0  0  0
 43 42  1  0  0  0  0
M  END
>  <MODEL>
4

>  <REMARK>
 VINA RESULT:      -7.4      2.667      7.724
  Name = 
  12 active torsions:
  status: ('A' for Active; 'I' for Inactive)
    1  A    between atoms: C_5  and  C_17
    2  A    between atoms: C_8  and  C_23
    3  A    between atoms: C_10  and  C_15
    4  A    between atoms: C_15  and  C_33
    5  A    between atoms: C_17  and  N_19
    6  A    between atoms: C_17  and  C_43
    7  A    between atoms: N_19  and  C_30
    8  A    between atoms: C_23  and  C_41
    9  A    between atoms: O_24  and  C_41
   10  A    between atoms: C_25  and  N_42
   11  A    between atoms: C_31  and  C_43
   12  A    between atoms: C_33  and  C_37
                            x       y       z     vdW  Elec       q    Type
                         _______ _______ _______ _____ _____    ______ ____

>  <TORSDO>
F 12

$$$$
=
 OpenBabel11042419163D

 43 45  0  0  1  0  0  0  0  0999 V2000
  193.6640  175.1770  141.4640 C   0  0  2  0  0  3  0  0  0  0  0  0
  194.7810  175.8870  140.7760 C   0  0  0  0  0  0  0  0  0  0  0  0
  195.2940  176.9190  141.2820 O   0  0  0  0  0  0  0  0  0  0  0  0
  195.2730  175.3880  139.5380 N   0  0  0  0  0  1  0  0  0  0  0  0
  194.0960  174.7320  142.7830 N   0  0  0  0  0  2  0  0  0  0  0  0
  192.4160  175.6980  144.2640 C   0  0  0  0  0  3  0  0  0  0  0  0
  194.3970  176.5400  146.0450 C   0  0  0  0  0  3  0  0  0  0  0  0
  192.0530  176.3870  145.4250 C   0  0  0  0  0  0  0  0  0  0  0  0
  193.7600  175.4270  143.9870 C   0  0  0  0  0  0  0  0  0  0  0  0
  194.7510  175.8500  144.8840 C   0  0  0  0  0  3  0  0  0  0  0  0
  193.0530  176.8080  146.3150 C   0  0  0  0  0  3  0  0  0  0  0  0
  188.4610  176.4020  146.8050 N   0  0  0  0  0  2  0  0  0  0  0  0
  187.7640  177.3450  145.9780 C   0  0  0  0  0  0  0  0  0  0  0  0
  188.3340  177.8920  144.9970 O   0  0  0  0  0  0  0  0  0  0  0  0
  189.8340  176.0260  146.6660 C   0  0  0  0  0  0  0  0  0  0  0  0
  190.3050  175.1510  147.4400 O   0  0  0  0  0  0  0  0  0  0  0  0
  190.6630  176.6430  145.6670 N   0  0  0  0  0  2  0  0  0  0  0  0
  186.0360  177.4290  147.7390 C   0  0  0  0  0  1  0  0  0  0  0  0
  186.3420  177.6960  146.2780 C   0  0  1  0  0  3  0  0  0  0  0  0
  186.0520  179.1540  145.9510 C   0  0  0  0  0  2  0  0  0  0  0  0
  185.7890  179.8450  143.6860 O   0  0  0  0  0  0  0  0  0  0  0  0
  184.0100  178.7160  144.5860 O   0  0  0  0  0  1  0  0  0  0  0  0
  185.2800  179.2710  144.6810 C   0  0  0  0  0  0  0  0  0  0  0  0
  193.2010  173.9870  140.6300 C   0  0  0  0  0  2  0  0  0  0  0  0
  190.4630  174.0840  138.8190 C   0  0  0  0  0  2  0  0  0  0  0  0
  190.6250  171.5160  144.5750 C   0  0  0  0  0  3  0  0  0  0  0  0
  188.9760  173.7880  138.9510 C   0  0  0  0  0  2  0  0  0  0  0  0
  189.5490  173.6860  143.9290 C   0  0  0  0  0  3  0  0  0  0  0  0
  188.4040  175.1930  140.9360 C   0  0  0  0  0  0  0  0  0  0  0  0
  188.3020  174.8850  139.5690 O   0  0  0  0  0  0  0  0  0  0  0  0
  189.8660  172.7460  144.8130 C   0  0  0  0  0  3  0  0  0  0  0  0
  189.1350  174.4700  141.7440 C   0  0  0  0  0  0  0  0  0  0  0  0
  191.4020  171.2160  143.5390 C   0  0  0  0  0  3  0  0  0  0  0  0
  191.1380  173.1570  141.9230 C   0  0  0  0  0  0  0  0  0  0  0  0
  191.6790  173.7830  140.6560 C   0  0  2  0  0  3  0  0  0  0  0  0
  191.7250  172.0430  142.3710 C   0  0  0  0  0  3  0  0  0  0  0  0
  189.8990  173.7310  142.5060 C   0  0  0  0  0  0  0  0  0  0  0  0
  191.2040  173.1240  139.5160 O   0  0  0  0  0  0  0  0  0  0  0  0
  186.9140  175.9850  142.5870 O   0  0  0  0  0  1  0  0  0  0  0  0
  187.6770  176.3730  141.4830 C   0  0  2  0  0  3  0  0  0  0  0  0
  186.7760  176.9680  140.4170 C   0  0  0  0  0  2  0  0  0  0  0  0
  186.1660  178.1240  140.9030 O   0  0  0  0  0  0  0  0  0  0  0  0
  184.9310  178.1660  140.2580 C   0  0  0  0  0  1  0  0  0  0  0  0
  1 24  1  6  0  0  0
  1  5  1  0  0  0  0
  2  3  2  0  0  0  0
  2  1  1  0  0  0  0
  4  2  1  0  0  0  0
  5  9  1  0  0  0  0
  6  8  1  0  0  0  0
  7 11  1  0  0  0  0
  8 17  1  0  0  0  0
  8 11  2  0  0  0  0
  9  6  2  0  0  0  0
  9 10  1  0  0  0  0
 10  7  2  0  0  0  0
 13 19  1  0  0  0  0
 13 12  1  0  0  0  0
 14 13  2  0  0  0  0
 15 12  1  0  0  0  0
 15 16  2  0  0  0  0
 17 15  1  0  0  0  0
 19 18  1  1  0  0  0
 20 19  1  0  0  0  0
 21 23  2  0  0  0  0
 22 23  1  0  0  0  0
 23 20  1  0  0  0  0
 25 27  1  0  0  0  0
 25 38  1  0  0  0  0
 26 31  1  0  0  0  0
 27 30  1  0  0  0  0
 28 31  2  0  0  0  0
 29 40  1  0  0  0  0
 29 32  2  0  0  0  0
 30 29  1  0  0  0  0
 32 37  2  0  0  0  0
 33 26  2  0  0  0  0
 34 36  2  0  0  0  0
 34 37  1  0  0  0  0
 35 24  1  1  0  0  0
 35 34  1  0  0  0  0
 36 33  1  0  0  0  0
 37 28  1  0  0  0  0
 38 35  1  0  0  0  0
 40 39  1  1  0  0  0
 41 42  1  0  0  0  0
 41 40  1  0  0  0  0
 43 42  1  0  0  0  0
M  END
>  <MODEL>
5

>  <REMARK>
 VINA RESULT:      -7.2      2.587      7.817
  Name = 
  12 active torsions:
  status: ('A' for Active; 'I' for Inactive)
    1  A    between atoms: C_5  and  C_17
    2  A    between atoms: C_8  and  C_23
    3  A    between atoms: C_10  and  C_15
    4  A    between atoms: C_15  and  C_33
    5  A    between atoms: C_17  and  N_19
    6  A    between atoms: C_17  and  C_43
    7  A    between atoms: N_19  and  C_30
    8  A    between atoms: C_23  and  C_41
    9  A    between atoms: O_24  and  C_41
   10  A    between atoms: C_25  and  N_42
   11  A    between atoms: C_31  and  C_43
   12  A    between atoms: C_33  and  C_37
                            x       y       z     vdW  Elec       q    Type
                         _______ _______ _______ _____ _____    ______ ____

>  <TORSDO>
F 12

$$$$
=
 OpenBabel11042419163D

 43 45  0  0  1  0  0  0  0  0999 V2000
  194.6730  175.4250  141.5910 C   0  0  2  0  0  3  0  0  0  0  0  0
  195.6580  175.6880  140.5020 C   0  0  0  0  0  0  0  0  0  0  0  0
  196.7550  176.2550  140.7520 O   0  0  0  0  0  0  0  0  0  0  0  0
  195.3560  175.2910  139.1700 N   0  0  0  0  0  1  0  0  0  0  0  0
  194.9800  176.2530  142.7500 N   0  0  0  0  0  2  0  0  0  0  0  0
  192.8980  176.4290  144.0070 C   0  0  0  0  0  3  0  0  0  0  0  0
  194.2080  175.7260  146.3730 C   0  0  0  0  0  3  0  0  0  0  0  0
  192.1740  176.3550  145.2010 C   0  0  0  0  0  0  0  0  0  0  0  0
  194.2690  176.1540  143.9860 C   0  0  0  0  0  0  0  0  0  0  0  0
  194.9220  175.8010  145.1760 C   0  0  0  0  0  3  0  0  0  0  0  0
  192.8380  176.0030  146.3860 C   0  0  0  0  0  3  0  0  0  0  0  0
  188.7120  177.9150  144.5800 N   0  0  0  0  0  2  0  0  0  0  0  0
  187.7990  177.0410  145.2570 C   0  0  0  0  0  0  0  0  0  0  0  0
  188.2180  176.0680  145.9390 O   0  0  0  0  0  0  0  0  0  0  0  0
  190.1350  177.7700  144.5440 C   0  0  0  0  0  0  0  0  0  0  0  0
  190.8190  178.6400  143.9420 O   0  0  0  0  0  0  0  0  0  0  0  0
  190.7700  176.6460  145.1740 N   0  0  0  0  0  2  0  0  0  0  0  0
  185.6600  176.9860  146.4880 C   0  0  0  0  0  1  0  0  0  0  0  0
  186.3250  177.2740  145.1570 C   0  0  1  0  0  3  0  0  0  0  0  0
  186.0210  178.7020  144.7290 C   0  0  0  0  0  2  0  0  0  0  0  0
  184.0880  178.6400  143.3360 O   0  0  0  0  0  1  0  0  0  0  0  0
  186.0850  178.8800  142.2410 O   0  0  0  0  0  0  0  0  0  0  0  0
  185.3400  178.7270  143.4020 C   0  0  0  0  0  0  0  0  0  0  0  0
  194.6920  173.9490  141.9740 C   0  0  0  0  0  2  0  0  0  0  0  0
  193.7360  171.8900  139.6010 C   0  0  0  0  0  2  0  0  0  0  0  0
  190.1780  173.1080  144.6620 C   0  0  0  0  0  3  0  0  0  0  0  0
  192.5030  171.1040  139.1770 C   0  0  0  0  0  2  0  0  0  0  0  0
  189.7740  173.8970  142.3170 C   0  0  0  0  0  3  0  0  0  0  0  0
  190.8070  172.9340  139.0700 C   0  0  0  0  0  0  0  0  0  0  0  0
  191.5980  171.9450  138.4620 O   0  0  0  0  0  0  0  0  0  0  0  0
  189.4500  173.8100  143.6030 C   0  0  0  0  0  3  0  0  0  0  0  0
  190.8520  173.1440  140.3600 C   0  0  0  0  0  0  0  0  0  0  0  0
  191.4350  172.6760  144.6480 C   0  0  0  0  0  3  0  0  0  0  0  0
  192.2740  173.1360  142.2960 C   0  0  0  0  0  0  0  0  0  0  0  0
  193.5020  173.1590  141.4120 C   0  0  2  0  0  3  0  0  0  0  0  0
  192.4340  172.8060  143.5810 C   0  0  0  0  0  3  0  0  0  0  0  0
  190.9510  173.3300  141.6500 C   0  0  0  0  0  0  0  0  0  0  0  0
  193.8580  171.8710  140.9950 O   0  0  0  0  0  0  0  0  0  0  0  0
  188.7430  174.0730  138.9480 O   0  0  0  0  0  1  0  0  0  0  0  0
  189.9060  173.7760  138.2340 C   0  0  2  0  0  3  0  0  0  0  0  0
  189.5520  173.0440  136.9530 C   0  0  0  0  0  2  0  0  0  0  0  0
  190.2730  173.5790  135.8860 O   0  0  0  0  0  0  0  0  0  0  0  0
  190.5860  172.4790  135.0890 C   0  0  0  0  0  1  0  0  0  0  0  0
  1 24  1  1  0  0  0
  1  5  1  0  0  0  0
  2  3  2  0  0  0  0
  2  1  1  0  0  0  0
  4  2  1  0  0  0  0
  5  9  1  0  0  0  0
  6  8  1  0  0  0  0
  7 11  1  0  0  0  0
  8 11  2  0  0  0  0
  9  6  2  0  0  0  0
  9 10  1  0  0  0  0
 10  7  2  0  0  0  0
 12 13  1  0  0  0  0
 13 14  2  0  0  0  0
 15 12  1  0  0  0  0
 15 17  1  0  0  0  0
 16 15  2  0  0  0  0
 17  8  1  0  0  0  0
 19 13  1  0  0  0  0
 19 18  1  1  0  0  0
 20 19  1  0  0  0  0
 21 23  1  0  0  0  0
 22 23  2  0  0  0  0
 23 20  1  0  0  0  0
 25 38  1  0  0  0  0
 27 25  1  0  0  0  0
 28 31  2  0  0  0  0
 29 32  2  0  0  0  0
 30 29  1  0  0  0  0
 30 27  1  0  0  0  0
 31 26  1  0  0  0  0
 32 37  2  0  0  0  0
 33 26  2  0  0  0  0
 34 36  2  0  0  0  0
 35 24  1  1  0  0  0
 35 34  1  0  0  0  0
 36 33  1  0  0  0  0
 37 34  1  0  0  0  0
 37 28  1  0  0  0  0
 38 35  1  0  0  0  0
 40 39  1  1  0  0  0
 40 29  1  0  0  0  0
 41 40  1  0  0  0  0
 42 41  1  0  0  0  0
 43 42  1  0  0  0  0
M  END
>  <MODEL>
6

>  <REMARK>
 VINA RESULT:      -7.1      2.926      8.615
  Name = 
  12 active torsions:
  status: ('A' for Active; 'I' for Inactive)
    1  A    between atoms: C_5  and  C_17
    2  A    between atoms: C_8  and  C_23
    3  A    between atoms: C_10  and  C_15
    4  A    between atoms: C_15  and  C_33
    5  A    between atoms: C_17  and  N_19
    6  A    between atoms: C_17  and  C_43
    7  A    between atoms: N_19  and  C_30
    8  A    between atoms: C_23  and  C_41
    9  A    between atoms: O_24  and  C_41
   10  A    between atoms: C_25  and  N_42
   11  A    between atoms: C_31  and  C_43
   12  A    between atoms: C_33  and  C_37
                            x       y       z     vdW  Elec       q    Type
                         _______ _______ _______ _____ _____    ______ ____

>  <TORSDO>
F 12

$$$$
=
 OpenBabel11042419163D

 43 45  0  0  1  0  0  0  0  0999 V2000
  194.2460  174.6690  139.9650 C   0  0  2  0  0  3  0  0  0  0  0  0
  194.4120  174.9710  138.5140 C   0  0  0  0  0  0  0  0  0  0  0  0
  195.5400  175.2820  138.0480 O   0  0  0  0  0  0  0  0  0  0  0  0
  193.2860  174.9000  137.6480 N   0  0  0  0  0  1  0  0  0  0  0  0
  194.8260  175.7400  140.7640 N   0  0  0  0  0  2  0  0  0  0  0  0
  193.1490  176.1710  142.4820 C   0  0  0  0  0  3  0  0  0  0  0  0
  195.1160  176.2010  144.4660 C   0  0  0  0  0  3  0  0  0  0  0  0
  192.7850  176.4000  143.8130 C   0  0  0  0  0  0  0  0  0  0  0  0
  194.4870  175.9570  142.1360 C   0  0  0  0  0  0  0  0  0  0  0  0
  195.4720  175.9720  143.1350 C   0  0  0  0  0  3  0  0  0  0  0  0
  193.7780  176.4150  144.8040 C   0  0  0  0  0  3  0  0  0  0  0  0
  189.2850  177.9080  144.3420 N   0  0  0  0  0  2  0  0  0  0  0  0
  188.4930  176.8130  144.8250 C   0  0  0  0  0  0  0  0  0  0  0  0
  189.0130  175.6900  145.0570 O   0  0  0  0  0  0  0  0  0  0  0  0
  190.6780  177.8520  144.0220 C   0  0  0  0  0  0  0  0  0  0  0  0
  191.2560  178.9060  143.6460 O   0  0  0  0  0  0  0  0  0  0  0  0
  191.4000  176.6140  144.1200 N   0  0  0  0  0  2  0  0  0  0  0  0
  186.7000  176.7850  146.5220 C   0  0  0  0  0  1  0  0  0  0  0  0
  187.0260  176.9950  145.0560 C   0  0  1  0  0  3  0  0  0  0  0  0
  186.5660  178.3790  144.6210 C   0  0  0  0  0  2  0  0  0  0  0  0
  184.6660  177.5410  143.4510 O   0  0  0  0  0  0  0  0  0  0  0  0
  184.2520  179.2680  144.8980 O   0  0  0  0  0  1  0  0  0  0  0  0
  185.1150  178.3740  144.2780 C   0  0  0  0  0  0  0  0  0  0  0  0
  194.9050  173.3370  140.3060 C   0  0  0  0  0  2  0  0  0  0  0  0
  192.5060  171.0960  140.2090 C   0  0  0  0  0  2  0  0  0  0  0  0
  195.8750  172.2250  145.4180 C   0  0  0  0  0  3  0  0  0  0  0  0
  191.7320  170.1860  141.1530 C   0  0  0  0  0  2  0  0  0  0  0  0
  193.4870  172.8690  145.0050 C   0  0  0  0  0  3  0  0  0  0  0  0
  190.8960  171.8540  142.8140 C   0  0  0  0  0  0  0  0  0  0  0  0
  190.6830  170.9110  141.7950 O   0  0  0  0  0  0  0  0  0  0  0  0
  194.5770  172.8110  145.7630 C   0  0  0  0  0  3  0  0  0  0  0  0
  192.0990  172.1250  143.2500 C   0  0  0  0  0  0  0  0  0  0  0  0
  196.3380  171.9050  144.2150 C   0  0  0  0  0  3  0  0  0  0  0  0
  194.4080  172.3300  142.6200 C   0  0  0  0  0  0  0  0  0  0  0  0
  194.0170  172.4210  141.1610 C   0  0  2  0  0  3  0  0  0  0  0  0
  195.6870  172.0740  142.9100 C   0  0  0  0  0  3  0  0  0  0  0  0
  193.3240  172.3780  143.6330 C   0  0  0  0  0  0  0  0  0  0  0  0
  193.8490  171.1520  140.5950 O   0  0  0  0  0  0  0  0  0  0  0  0
  189.3160  171.9160  144.5670 O   0  0  0  0  0  1  0  0  0  0  0  0
  189.7360  172.5750  143.4100 C   0  0  2  0  0  3  0  0  0  0  0  0
  188.5960  172.6370  142.4100 C   0  0  0  0  0  2  0  0  0  0  0  0
  188.1550  173.9530  142.2750 O   0  0  0  0  0  0  0  0  0  0  0  0
  188.7610  174.4080  141.1050 C   0  0  0  0  0  1  0  0  0  0  0  0
  1 24  1  1  0  0  0
  1  5  1  0  0  0  0
  2  1  1  0  0  0  0
  3  2  2  0  0  0  0
  4  2  1  0  0  0  0
  5  9  1  0  0  0  0
  6  8  1  0  0  0  0
  7 11  1  0  0  0  0
  8 17  1  0  0  0  0
  8 11  2  0  0  0  0
  9  6  2  0  0  0  0
  9 10  1  0  0  0  0
 10  7  2  0  0  0  0
 12 13  1  0  0  0  0
 13 19  1  0  0  0  0
 13 14  2  0  0  0  0
 15 17  1  0  0  0  0
 15 12  1  0  0  0  0
 16 15  2  0  0  0  0
 19 18  1  1  0  0  0
 20 19  1  0  0  0  0
 21 23  2  0  0  0  0
 23 20  1  0  0  0  0
 23 22  1  0  0  0  0
 25 38  1  0  0  0  0
 25 27  1  0  0  0  0
 26 31  1  0  0  0  0
 27 30  1  0  0  0  0
 28 31  2  0  0  0  0
 29 32  2  0  0  0  0
 29 40  1  0  0  0  0
 30 29  1  0  0  0  0
 32 37  2  0  0  0  0
 33 26  2  0  0  0  0
 34 36  2  0  0  0  0
 34 37  1  0  0  0  0
 35 24  1  6  0  0  0
 35 34  1  0  0  0  0
 36 33  1  0  0  0  0
 37 28  1  0  0  0  0
 38 35  1  0  0  0  0
 40 39  1  1  0  0  0
 41 40  1  0  0  0  0
 42 41  1  0  0  0  0
 43 42  1  0  0  0  0
M  END
>  <MODEL>
7

>  <REMARK>
 VINA RESULT:      -7.0      2.948      8.255
  Name = 
  12 active torsions:
  status: ('A' for Active; 'I' for Inactive)
    1  A    between atoms: C_5  and  C_17
    2  A    between atoms: C_8  and  C_23
    3  A    between atoms: C_10  and  C_15
    4  A    between atoms: C_15  and  C_33
    5  A    between atoms: C_17  and  N_19
    6  A    between atoms: C_17  and  C_43
    7  A    between atoms: N_19  and  C_30
    8  A    between atoms: C_23  and  C_41
    9  A    between atoms: O_24  and  C_41
   10  A    between atoms: C_25  and  N_42
   11  A    between atoms: C_31  and  C_43
   12  A    between atoms: C_33  and  C_37
                            x       y       z     vdW  Elec       q    Type
                         _______ _______ _______ _____ _____    ______ ____

>  <TORSDO>
F 12

$$$$
=
 OpenBabel11042419163D

 43 45  0  0  1  0  0  0  0  0999 V2000
  196.8340  174.8630  142.1060 C   0  0  2  0  0  3  0  0  0  0  0  0
  196.5660  175.8700  141.0380 C   0  0  0  0  0  0  0  0  0  0  0  0
  195.8250  176.8620  141.2630 O   0  0  0  0  0  0  0  0  0  0  0  0
  197.1590  175.7070  139.7550 N   0  0  0  0  0  1  0  0  0  0  0  0
  195.9720  173.7030  141.9220 N   0  0  0  0  0  2  0  0  0  0  0  0
  193.5940  174.2250  142.0550 C   0  0  0  0  0  3  0  0  0  0  0  0
  193.2290  173.4760  139.3880 C   0  0  0  0  0  3  0  0  0  0  0  0
  192.3190  174.3000  141.4850 C   0  0  0  0  0  0  0  0  0  0  0  0
  194.6860  173.7800  141.3030 C   0  0  0  0  0  0  0  0  0  0  0  0
  194.4980  173.4050  139.9640 C   0  0  0  0  0  3  0  0  0  0  0  0
  192.1420  173.9210  140.1450 C   0  0  0  0  0  3  0  0  0  0  0  0
  189.0560  174.6120  143.5010 N   0  0  0  0  0  2  0  0  0  0  0  0
  189.0740  175.9550  144.0050 C   0  0  0  0  0  0  0  0  0  0  0  0
  189.9920  176.7560  143.6830 O   0  0  0  0  0  0  0  0  0  0  0  0
  190.0540  174.0220  142.6620 C   0  0  0  0  0  0  0  0  0  0  0  0
  189.8880  172.8400  142.2600 O   0  0  0  0  0  0  0  0  0  0  0  0
  191.2290  174.7620  142.2940 N   0  0  0  0  0  2  0  0  0  0  0  0
  188.3730  176.1170  146.3660 C   0  0  0  0  0  1  0  0  0  0  0  0
  187.9960  176.4220  144.9300 C   0  0  1  0  0  3  0  0  0  0  0  0
  187.7410  177.9140  144.7710 C   0  0  0  0  0  2  0  0  0  0  0  0
  185.5200  177.2160  144.2620 O   0  0  0  0  0  1  0  0  0  0  0  0
  185.8800  179.4780  144.2090 O   0  0  0  0  0  0  0  0  0  0  0  0
  186.3230  178.1740  144.3900 C   0  0  0  0  0  0  0  0  0  0  0  0
  196.6040  175.4800  143.4820 C   0  0  0  0  0  2  0  0  0  0  0  0
  197.3640  172.6900  145.0380 C   0  0  0  0  0  2  0  0  0  0  0  0
  192.6260  176.4160  146.8890 C   0  0  0  0  0  3  0  0  0  0  0  0
  196.8170  171.7920  146.1390 C   0  0  0  0  0  2  0  0  0  0  0  0
  192.4300  174.1840  145.7630 C   0  0  0  0  0  3  0  0  0  0  0  0
  194.5120  171.3620  145.2770 C   0  0  0  0  0  0  0  0  0  0  0  0
  195.8040  170.9290  145.6210 O   0  0  0  0  0  0  0  0  0  0  0  0
  191.9080  175.2710  146.3210 C   0  0  0  0  0  3  0  0  0  0  0  0
  194.1520  172.6100  145.4200 C   0  0  0  0  0  0  0  0  0  0  0  0
  193.8960  176.7610  146.7080 C   0  0  0  0  0  3  0  0  0  0  0  0
  194.9070  174.8890  145.3220 C   0  0  0  0  0  0  0  0  0  0  0  0
  196.1260  174.4660  144.5300 C   0  0  2  0  0  3  0  0  0  0  0  0
  194.9120  176.1040  145.8770 C   0  0  0  0  0  3  0  0  0  0  0  0
  193.8480  173.8750  145.5600 C   0  0  0  0  0  0  0  0  0  0  0  0
  197.1570  174.0320  145.3720 O   0  0  0  0  0  0  0  0  0  0  0  0
  194.1980  169.2470  144.2770 O   0  0  0  0  0  1  0  0  0  0  0  0
  193.5290  170.3880  144.7240 C   0  0  2  0  0  3  0  0  0  0  0  0
  192.7620  171.0190  143.5770 C   0  0  0  0  0  2  0  0  0  0  0  0
  193.3540  170.6720  142.3630 O   0  0  0  0  0  0  0  0  0  0  0  0
  192.2810  170.3920  141.5170 C   0  0  0  0  0  1  0  0  0  0  0  0
  1 24  1  1  0  0  0
  2  3  2  0  0  0  0
  2  1  1  0  0  0  0
  4  2  1  0  0  0  0
  5  1  1  0  0  0  0
  7 10  2  0  0  0  0
  7 11  1  0  0  0  0
  8  6  1  0  0  0  0
  8 17  1  0  0  0  0
  9  5  1  0  0  0  0
  9  6  2  0  0  0  0
 10  9  1  0  0  0  0
 11  8  2  0  0  0  0
 12 13  1  0  0  0  0
 13 19  1  0  0  0  0
 14 13  2  0  0  0  0
 15 12  1  0  0  0  0
 16 15  2  0  0  0  0
 17 15  1  0  0  0  0
 19 18  1  1  0  0  0
 20 19  1  0  0  0  0
 21 23  1  0  0  0  0
 22 23  2  0  0  0  0
 23 20  1  0  0  0  0
 25 38  1  0  0  0  0
 25 27  1  0  0  0  0
 28 31  2  0  0  0  0
 29 32  2  0  0  0  0
 29 30  1  0  0  0  0
 30 27  1  0  0  0  0
 31 26  1  0  0  0  0
 32 37  2  0  0  0  0
 33 26  2  0  0  0  0
 34 37  1  0  0  0  0
 34 36  2  0  0  0  0
 35 24  1  1  0  0  0
 35 34  1  0  0  0  0
 35 38  1  0  0  0  0
 36 33  1  0  0  0  0
 37 28  1  0  0  0  0
 40 39  1  6  0  0  0
 40 29  1  0  0  0  0
 41 40  1  0  0  0  0
 42 41  1  0  0  0  0
 43 42  1  0  0  0  0
M  END
>  <MODEL>
8

>  <REMARK>
 VINA RESULT:      -7.0      2.602      7.786
  Name = 
  12 active torsions:
  status: ('A' for Active; 'I' for Inactive)
    1  A    between atoms: C_5  and  C_17
    2  A    between atoms: C_8  and  C_23
    3  A    between atoms: C_10  and  C_15
    4  A    between atoms: C_15  and  C_33
    5  A    between atoms: C_17  and  N_19
    6  A    between atoms: C_17  and  C_43
    7  A    between atoms: N_19  and  C_30
    8  A    between atoms: C_23  and  C_41
    9  A    between atoms: O_24  and  C_41
   10  A    between atoms: C_25  and  N_42
   11  A    between atoms: C_31  and  C_43
   12  A    between atoms: C_33  and  C_37
                            x       y       z     vdW  Elec       q    Type
                         _______ _______ _______ _____ _____    ______ ____

>  <TORSDO>
F 12

$$$$
=
 OpenBabel11042419163D

 43 45  0  0  1  0  0  0  0  0999 V2000
  194.2450  174.2310  141.9160 C   0  0  2  0  0  3  0  0  0  0  0  0
  194.9540  174.9980  140.8510 C   0  0  0  0  0  0  0  0  0  0  0  0
  195.4850  174.4030  139.8770 O   0  0  0  0  0  0  0  0  0  0  0  0
  195.0240  176.4160  140.9360 N   0  0  0  0  0  1  0  0  0  0  0  0
  194.9140  174.4230  143.1960 N   0  0  0  0  0  2  0  0  0  0  0  0
  192.9560  175.4630  144.2110 C   0  0  0  0  0  3  0  0  0  0  0  0
  194.4050  176.0490  146.5270 C   0  0  0  0  0  3  0  0  0  0  0  0
  192.3280  176.1280  145.2690 C   0  0  0  0  0  0  0  0  0  0  0  0
  194.3000  175.0890  144.3020 C   0  0  0  0  0  0  0  0  0  0  0  0
  195.0240  175.3850  145.4660 C   0  0  0  0  0  3  0  0  0  0  0  0
  193.0610  176.4200  146.4280 C   0  0  0  0  0  3  0  0  0  0  0  0
  189.0020  177.7840  144.2660 N   0  0  0  0  0  2  0  0  0  0  0  0
  188.0060  177.0630  145.0050 C   0  0  0  0  0  0  0  0  0  0  0  0
  188.3330  176.1700  145.8320 O   0  0  0  0  0  0  0  0  0  0  0  0
  190.4130  177.5540  144.3230 C   0  0  0  0  0  0  0  0  0  0  0  0
  191.1760  178.2930  143.6470 O   0  0  0  0  0  0  0  0  0  0  0  0
  190.9470  176.4920  145.1300 N   0  0  0  0  0  2  0  0  0  0  0  0
  186.0430  176.6390  143.5700 C   0  0  0  0  0  1  0  0  0  0  0  0
  186.5560  177.3650  144.7990 C   0  0  1  0  0  3  0  0  0  0  0  0
  185.7310  176.9650  146.0140 C   0  0  0  0  0  2  0  0  0  0  0  0
  185.1360  178.6010  147.6420 O   0  0  0  0  0  1  0  0  0  0  0  0
  183.9340  178.6660  145.6920 O   0  0  0  0  0  0  0  0  0  0  0  0
  184.9160  178.1130  146.5050 C   0  0  0  0  0  0  0  0  0  0  0  0
  194.2010  172.7490  141.5580 C   0  0  0  0  0  2  0  0  0  0  0  0
  192.6850  170.9860  139.2380 C   0  0  0  0  0  2  0  0  0  0  0  0
  189.6900  173.1360  144.3540 C   0  0  0  0  0  3  0  0  0  0  0  0
  191.2810  170.5440  138.8530 C   0  0  0  0  0  2  0  0  0  0  0  0
  189.4480  173.9810  142.0060 C   0  0  0  0  0  3  0  0  0  0  0  0
  190.1160  172.7510  138.7530 C   0  0  0  0  0  0  0  0  0  0  0  0
  190.6070  171.5840  138.1440 O   0  0  0  0  0  0  0  0  0  0  0  0
  189.1430  173.9930  143.2990 C   0  0  0  0  0  3  0  0  0  0  0  0
  190.2440  172.9540  140.0380 C   0  0  0  0  0  0  0  0  0  0  0  0
  190.7910  172.3920  144.3200 C   0  0  0  0  0  3  0  0  0  0  0  0
  191.6630  172.5950  141.9430 C   0  0  0  0  0  0  0  0  0  0  0  0
  192.8330  172.2910  141.0330 C   0  0  2  0  0  3  0  0  0  0  0  0
  191.7630  172.2470  143.2300 C   0  0  0  0  0  3  0  0  0  0  0  0
  190.4200  173.1210  141.3230 C   0  0  0  0  0  0  0  0  0  0  0  0
  192.8310  170.9500  140.6290 O   0  0  0  0  0  0  0  0  0  0  0  0
  188.1750  174.0570  138.4400 O   0  0  0  0  0  1  0  0  0  0  0  0
  189.4440  173.7910  137.9230 C   0  0  2  0  0  3  0  0  0  0  0  0
  189.3260  173.3130  136.4880 C   0  0  0  0  0  2  0  0  0  0  0  0
  189.9700  174.2090  135.6350 O   0  0  0  0  0  0  0  0  0  0  0  0
  188.9750  175.1110  135.2590 C   0  0  0  0  0  1  0  0  0  0  0  0
  1 24  1  6  0  0  0
  1  5  1  0  0  0  0
  2  4  1  0  0  0  0
  2  1  1  0  0  0  0
  3  2  2  0  0  0  0
  5  9  1  0  0  0  0
  6  9  2  0  0  0  0
  6  8  1  0  0  0  0
  8 11  2  0  0  0  0
  9 10  1  0  0  0  0
 10  7  2  0  0  0  0
 11  7  1  0  0  0  0
 12 15  1  0  0  0  0
 12 13  1  0  0  0  0
 13 14  2  0  0  0  0
 15 17  1  0  0  0  0
 16 15  2  0  0  0  0
 17  8  1  0  0  0  0
 19 18  1  6  0  0  0
 19 13  1  0  0  0  0
 19 20  1  0  0  0  0
 20 23  1  0  0  0  0
 22 23  2  0  0  0  0
 23 21  1  0  0  0  0
 25 38  1  0  0  0  0
 27 25  1  0  0  0  0
 28 31  2  0  0  0  0
 29 32  2  0  0  0  0
 30 29  1  0  0  0  0
 30 27  1  0  0  0  0
 31 26  1  0  0  0  0
 32 37  2  0  0  0  0
 33 26  2  0  0  0  0
 34 36  2  0  0  0  0
 35 24  1  1  0  0  0
 35 34  1  0  0  0  0
 36 33  1  0  0  0  0
 37 34  1  0  0  0  0
 37 28  1  0  0  0  0
 38 35  1  0  0  0  0
 40 39  1  1  0  0  0
 40 29  1  0  0  0  0
 41 40  1  0  0  0  0
 42 41  1  0  0  0  0
 43 42  1  0  0  0  0
M  END
>  <MODEL>
9

>  <REMARK>
 VINA RESULT:      -6.9      3.039      8.636
  Name = 
  12 active torsions:
  status: ('A' for Active; 'I' for Inactive)
    1  A    between atoms: C_5  and  C_17
    2  A    between atoms: C_8  and  C_23
    3  A    between atoms: C_10  and  C_15
    4  A    between atoms: C_15  and  C_33
    5  A    between atoms: C_17  and  N_19
    6  A    between atoms: C_17  and  C_43
    7  A    between atoms: N_19  and  C_30
    8  A    between atoms: C_23  and  C_41
    9  A    between atoms: O_24  and  C_41
   10  A    between atoms: C_25  and  N_42
   11  A    between atoms: C_31  and  C_43
   12  A    between atoms: C_33  and  C_37
                            x       y       z     vdW  Elec       q    Type
                         _______ _______ _______ _____ _____    ______ ____

>  <TORSDO>
F 12

$$$$
