=
 OpenBabel11042417473D

 25 26  0  0  1  0  0  0  0  0999 V2000
  188.6480  177.4900  144.6400 C   0  0  0  0  0  0  0  0  0  0  0  0
  188.0680  177.5140  145.8180 C   0  0  0  0  0  0  0  0  0  0  0  0
  187.4910  177.5340  146.9860 C   0  0  0  0  0  3  0  0  0  0  0  0
  186.8670  177.0900  140.6510 C   0  0  0  0  0  0  0  0  0  0  0  0
  187.0570  177.4060  139.4470 O   0  0  0  0  0  0  0  0  0  0  0  0
  187.7270  176.0510  141.2630 C   0  0  0  0  0  0  0  0  0  0  0  0
  186.3200  177.3190  143.6900 C   0  0  0  0  0  3  0  0  0  0  0  0
  188.1620  174.9060  140.4050 C   0  0  0  0  0  1  0  0  0  0  0  0
  188.7640  175.0040  143.1120 O   0  0  0  0  0  1  0  0  0  0  0  0
  188.1050  176.0950  142.5490 C   0  0  0  0  0  0  0  0  0  0  0  0
  185.7500  177.6710  141.3450 N   0  0  0  0  0  2  0  0  0  0  0  0
  185.4140  177.5190  142.7330 C   0  0  0  0  0  3  0  0  0  0  0  0
  187.7850  177.3050  143.3960 C   0  0  2  0  0  3  0  0  0  0  0  0
  194.2710  176.4590  144.5170 N   0  0  0  0  0  1  0  0  0  0  0  0
  190.7110  176.4330  145.5950 C   0  0  0  0  0  3  0  0  0  0  0  0
  190.1110  177.2370  144.6110 C   0  0  0  0  0  0  0  0  0  0  0  0
  192.8740  176.7190  144.5470 C   0  0  0  0  0  0  0  0  0  0  0  0
  192.0850  176.1780  145.5650 C   0  0  0  0  0  3  0  0  0  0  0  0
  190.9150  177.7680  143.5880 C   0  0  0  0  0  3  0  0  0  0  0  0
  192.2890  177.5130  143.5570 C   0  0  0  0  0  3  0  0  0  0  0  0
  186.1190  176.9810  147.1450 C   0  0  0  0  0  2  0  0  0  0  0  0
  185.8920  179.3880  147.6400 C   0  0  0  0  0  1  0  0  0  0  0  0
  185.1350  178.0850  147.4960 C   0  0  1  0  0  3  0  0  0  0  0  0
  184.0900  178.2440  146.4020 C   0  0  0  0  0  2  0  0  0  0  0  0
  184.3790  179.3600  145.6150 O   0  0  0  0  0  1  0  0  0  0  0  0
  1  2  2  0  0  0  0
  2  3  2  0  0  0  0
  3 21  1  0  0  0  0
  4  6  1  0  0  0  0
  4 11  1  0  0  0  0
  5  4  2  0  0  0  0
  6 10  2  0  0  0  0
  8  6  1  0  0  0  0
 10  9  1  0  0  0  0
 10 13  1  0  0  0  0
 11 12  1  0  0  0  0
 12  7  2  0  0  0  0
 13  7  1  0  0  0  0
 13  1  1  1  0  0  0
 14 17  1  0  0  0  0
 16  1  1  0  0  0  0
 16 15  2  0  0  0  0
 17 18  2  0  0  0  0
 18 15  1  0  0  0  0
 19 16  1  0  0  0  0
 20 19  2  0  0  0  0
 20 17  1  0  0  0  0
 21 23  1  0  0  0  0
 23 22  1  6  0  0  0
 24 23  1  0  0  0  0
 25 24  1  0  0  0  0
M  END
>  <MODEL>
1

>  <REMARK>
 VINA RESULT:      -7.2      0.000      0.000
  Name = 
  5 active torsions:
  status: ('A' for Active; 'I' for Inactive)
    1  A    between atoms: C_3  and  C_8
    2  A    between atoms: C_3  and  C_24
    3  A    between atoms: C_9  and  C_14
    4  A    between atoms: C_10  and  C_12
    5  A    between atoms: C_10  and  C_14
                            x       y       z     vdW  Elec       q    Type
                         _______ _______ _______ _____ _____    ______ ____

>  <TORSDO>
F 5

$$$$
=
 OpenBabel11042417473D

 25 26  0  0  1  0  0  0  0  0999 V2000
  189.3400  176.7610  144.9430 C   0  0  0  0  0  0  0  0  0  0  0  0
  188.4950  177.1090  145.8870 C   0  0  0  0  0  0  0  0  0  0  0  0
  187.6570  177.4510  146.8240 C   0  0  0  0  0  3  0  0  0  0  0  0
  188.5760  174.7660  141.1120 C   0  0  0  0  0  0  0  0  0  0  0  0
  189.1380  174.4610  140.0270 O   0  0  0  0  0  0  0  0  0  0  0  0
  188.9570  174.0370  142.3450 C   0  0  0  0  0  0  0  0  0  0  0  0
  187.3630  176.4440  143.4130 C   0  0  0  0  0  3  0  0  0  0  0  0
  189.2820  172.5820  142.2260 C   0  0  0  0  0  1  0  0  0  0  0  0
  189.1900  173.8550  144.6900 O   0  0  0  0  0  1  0  0  0  0  0  0
  188.9980  174.6290  143.5470 C   0  0  0  0  0  0  0  0  0  0  0  0
  187.5100  175.7300  141.0860 N   0  0  0  0  0  2  0  0  0  0  0  0
  186.8090  176.2810  142.2120 C   0  0  0  0  0  3  0  0  0  0  0  0
  188.8000  176.1220  143.6680 C   0  0  2  0  0  3  0  0  0  0  0  0
  194.8360  176.2080  146.4220 N   0  0  0  0  0  1  0  0  0  0  0  0
  191.1200  176.1290  146.5910 C   0  0  0  0  0  3  0  0  0  0  0  0
  190.7690  176.6330  145.3270 C   0  0  0  0  0  0  0  0  0  0  0  0
  193.4700  176.3490  146.0540 C   0  0  0  0  0  0  0  0  0  0  0  0
  192.4640  175.9900  146.9530 C   0  0  0  0  0  3  0  0  0  0  0  0
  191.7910  176.9830  144.4300 C   0  0  0  0  0  3  0  0  0  0  0  0
  193.1350  176.8440  144.7910 C   0  0  0  0  0  3  0  0  0  0  0  0
  186.2880  176.8660  146.8430 C   0  0  0  0  0  2  0  0  0  0  0  0
  185.8250  179.2150  147.4390 C   0  0  0  0  0  1  0  0  0  0  0  0
  185.2370  177.9640  146.8230 C   0  0  1  0  0  3  0  0  0  0  0  0
  184.8090  178.2740  145.3960 C   0  0  0  0  0  2  0  0  0  0  0  0
  185.4520  179.4250  144.9390 O   0  0  0  0  0  1  0  0  0  0  0  0
  1 16  1  0  0  0  0
  1  2  2  0  0  0  0
  2  3  2  0  0  0  0
  3 21  1  0  0  0  0
  4  6  1  0  0  0  0
  5  4  2  0  0  0  0
  6 10  2  0  0  0  0
  7 13  1  0  0  0  0
  8  6  1  0  0  0  0
 10 13  1  0  0  0  0
 10  9  1  0  0  0  0
 11  4  1  0  0  0  0
 11 12  1  0  0  0  0
 12  7  2  0  0  0  0
 13  1  1  1  0  0  0
 15 18  1  0  0  0  0
 16 15  2  0  0  0  0
 17 14  1  0  0  0  0
 17 18  2  0  0  0  0
 19 20  2  0  0  0  0
 19 16  1  0  0  0  0
 20 17  1  0  0  0  0
 23 21  1  0  0  0  0
 23 22  1  6  0  0  0
 24 23  1  0  0  0  0
 25 24  1  0  0  0  0
M  END
>  <MODEL>
2

>  <REMARK>
 VINA RESULT:      -7.1      1.564      1.824
  Name = 
  5 active torsions:
  status: ('A' for Active; 'I' for Inactive)
    1  A    between atoms: C_3  and  C_8
    2  A    between atoms: C_3  and  C_24
    3  A    between atoms: C_9  and  C_14
    4  A    between atoms: C_10  and  C_12
    5  A    between atoms: C_10  and  C_14
                            x       y       z     vdW  Elec       q    Type
                         _______ _______ _______ _____ _____    ______ ____

>  <TORSDO>
F 5

$$$$
=
 OpenBabel11042417473D

 25 26  0  0  1  0  0  0  0  0999 V2000
  188.5790  176.3810  144.3690 C   0  0  0  0  0  0  0  0  0  0  0  0
  188.5010  175.4650  143.4320 C   0  0  0  0  0  0  0  0  0  0  0  0
  188.4240  174.5520  142.5050 C   0  0  0  0  0  3  0  0  0  0  0  0
  192.3760  175.8480  146.4990 C   0  0  0  0  0  0  0  0  0  0  0  0
  193.2750  174.9940  146.7200 O   0  0  0  0  0  0  0  0  0  0  0  0
  192.2800  176.4550  145.1510 C   0  0  0  0  0  0  0  0  0  0  0  0
  189.6260  177.2700  146.4820 C   0  0  0  0  0  3  0  0  0  0  0  0
  193.5520  176.7190  144.4100 C   0  0  0  0  0  1  0  0  0  0  0  0
  191.0910  177.5160  143.4050 O   0  0  0  0  0  1  0  0  0  0  0  0
  191.1070  176.7890  144.5950 C   0  0  0  0  0  0  0  0  0  0  0  0
  191.5540  176.2780  147.5970 N   0  0  0  0  0  2  0  0  0  0  0  0
  190.4250  177.1630  147.5440 C   0  0  0  0  0  3  0  0  0  0  0  0
  189.8090  176.4150  145.2700 C   0  0  2  0  0  3  0  0  0  0  0  0
  183.6950  178.9780  145.8210 N   0  0  0  0  0  1  0  0  0  0  0  0
  186.9540  178.2800  144.1680 C   0  0  0  0  0  3  0  0  0  0  0  0
  187.3150  177.0580  144.7600 C   0  0  0  0  0  0  0  0  0  0  0  0
  184.9100  178.3330  145.4630 C   0  0  0  0  0  0  0  0  0  0  0  0
  185.7590  178.9150  144.5200 C   0  0  0  0  0  3  0  0  0  0  0  0
  186.4490  176.4800  145.7030 C   0  0  0  0  0  3  0  0  0  0  0  0
  185.2530  177.1140  146.0540 C   0  0  0  0  0  3  0  0  0  0  0  0
  189.2810  173.3380  142.5870 C   0  0  0  0  0  2  0  0  0  0  0  0
  189.6940  172.2220  144.7490 C   0  0  0  0  0  1  0  0  0  0  0  0
  190.1240  173.3630  143.8520 C   0  0  1  0  0  3  0  0  0  0  0  0
  191.6000  173.1970  143.5200 C   0  0  0  0  0  2  0  0  0  0  0  0
  191.9620  174.0590  142.4850 O   0  0  0  0  0  1  0  0  0  0  0  0
  1 16  1  0  0  0  0
  2  1  2  0  0  0  0
  3 21  1  0  0  0  0
  3  2  2  0  0  0  0
  4  5  2  0  0  0  0
  4 11  1  0  0  0  0
  6  4  1  0  0  0  0
  7 12  2  0  0  0  0
  8  6  1  0  0  0  0
  9 10  1  0  0  0  0
 10  6  2  0  0  0  0
 10 13  1  0  0  0  0
 12 11  1  0  0  0  0
 13  1  1  6  0  0  0
 13  7  1  0  0  0  0
 15 18  2  0  0  0  0
 15 16  1  0  0  0  0
 16 19  2  0  0  0  0
 17 14  1  0  0  0  0
 17 20  2  0  0  0  0
 18 17  1  0  0  0  0
 19 20  1  0  0  0  0
 21 23  1  0  0  0  0
 23 22  1  1  0  0  0
 24 23  1  0  0  0  0
 25 24  1  0  0  0  0
M  END
>  <MODEL>
3

>  <REMARK>
 VINA RESULT:      -7.0      2.822      6.852
  Name = 
  5 active torsions:
  status: ('A' for Active; 'I' for Inactive)
    1  A    between atoms: C_3  and  C_8
    2  A    between atoms: C_3  and  C_24
    3  A    between atoms: C_9  and  C_14
    4  A    between atoms: C_10  and  C_12
    5  A    between atoms: C_10  and  C_14
                            x       y       z     vdW  Elec       q    Type
                         _______ _______ _______ _____ _____    ______ ____

>  <TORSDO>
F 5

$$$$
=
 OpenBabel11042417473D

 25 26  0  0  1  0  0  0  0  0999 V2000
  188.8290  175.9500  145.2110 C   0  0  0  0  0  0  0  0  0  0  0  0
  189.9580  176.4730  145.6290 C   0  0  0  0  0  0  0  0  0  0  0  0
  191.0800  176.9940  146.0390 C   0  0  0  0  0  3  0  0  0  0  0  0
  188.2430  172.8370  142.1760 C   0  0  0  0  0  0  0  0  0  0  0  0
  187.3460  172.2840  141.4870 O   0  0  0  0  0  0  0  0  0  0  0  0
  188.6450  174.2240  141.8480 C   0  0  0  0  0  0  0  0  0  0  0  0
  189.9170  173.7570  144.6130 C   0  0  0  0  0  3  0  0  0  0  0  0
  188.6640  174.6260  140.4080 C   0  0  0  0  0  1  0  0  0  0  0  0
  189.5440  176.3380  142.4060 O   0  0  0  0  0  1  0  0  0  0  0  0
  189.0080  175.1090  142.7880 C   0  0  0  0  0  0  0  0  0  0  0  0
  188.9160  172.0570  143.1790 N   0  0  0  0  0  2  0  0  0  0  0  0
  189.8920  172.5160  144.1270 C   0  0  0  0  0  3  0  0  0  0  0  0
  188.8730  174.7640  144.2520 C   0  0  2  0  0  3  0  0  0  0  0  0
  184.0920  179.1090  145.7450 N   0  0  0  0  0  1  0  0  0  0  0  0
  187.3830  177.8780  144.5220 C   0  0  0  0  0  3  0  0  0  0  0  0
  187.6030  176.7750  145.3640 C   0  0  0  0  0  0  0  0  0  0  0  0
  185.2700  178.3240  145.6160 C   0  0  0  0  0  0  0  0  0  0  0  0
  186.2240  178.6500  144.6490 C   0  0  0  0  0  3  0  0  0  0  0  0
  186.6320  176.4540  146.3270 C   0  0  0  0  0  3  0  0  0  0  0  0
  185.4730  177.2250  146.4540 C   0  0  0  0  0  3  0  0  0  0  0  0
  192.3380  176.7300  145.2880 C   0  0  0  0  0  2  0  0  0  0  0  0
  193.2430  174.5680  146.0600 C   0  0  0  0  0  1  0  0  0  0  0  0
  193.3700  176.0710  146.1890 C   0  0  1  0  0  3  0  0  0  0  0  0
  194.7790  176.4810  145.7850 C   0  0  0  0  0  2  0  0  0  0  0  0
  194.8960  177.8710  145.7860 O   0  0  0  0  0  1  0  0  0  0  0  0
  1 16  1  0  0  0  0
  1  2  2  0  0  0  0
  2  3  2  0  0  0  0
  4 11  1  0  0  0  0
  5  4  2  0  0  0  0
  6  4  1  0  0  0  0
  6 10  2  0  0  0  0
  8  6  1  0  0  0  0
  9 10  1  0  0  0  0
 10 13  1  0  0  0  0
 11 12  1  0  0  0  0
 12  7  2  0  0  0  0
 13  7  1  0  0  0  0
 13  1  1  1  0  0  0
 15 18  2  0  0  0  0
 15 16  1  0  0  0  0
 16 19  2  0  0  0  0
 17 14  1  0  0  0  0
 17 20  2  0  0  0  0
 18 17  1  0  0  0  0
 19 20  1  0  0  0  0
 21  3  1  0  0  0  0
 21 23  1  0  0  0  0
 23 22  1  6  0  0  0
 24 25  1  0  0  0  0
 24 23  1  0  0  0  0
M  END
>  <MODEL>
4

>  <REMARK>
 VINA RESULT:      -7.0      2.878      6.183
  Name = 
  5 active torsions:
  status: ('A' for Active; 'I' for Inactive)
    1  A    between atoms: C_3  and  C_8
    2  A    between atoms: C_3  and  C_24
    3  A    between atoms: C_9  and  C_14
    4  A    between atoms: C_10  and  C_12
    5  A    between atoms: C_10  and  C_14
                            x       y       z     vdW  Elec       q    Type
                         _______ _______ _______ _____ _____    ______ ____

>  <TORSDO>
F 5

$$$$
=
 OpenBabel11042417473D

 25 26  0  0  1  0  0  0  0  0999 V2000
  188.6280  176.0420  144.8900 C   0  0  0  0  0  0  0  0  0  0  0  0
  188.7820  175.5120  146.0810 C   0  0  0  0  0  0  0  0  0  0  0  0
  188.9360  174.9890  147.2650 C   0  0  0  0  0  3  0  0  0  0  0  0
  192.3590  175.7410  142.6010 C   0  0  0  0  0  0  0  0  0  0  0  0
  193.4830  175.1740  142.6140 O   0  0  0  0  0  0  0  0  0  0  0  0
  191.1530  174.9350  142.2980 C   0  0  0  0  0  0  0  0  0  0  0  0
  189.9850  177.5590  143.4040 C   0  0  0  0  0  3  0  0  0  0  0  0
  191.2810  173.8360  141.2920 C   0  0  0  0  0  1  0  0  0  0  0  0
  188.8330  174.4980  142.4190 O   0  0  0  0  0  1  0  0  0  0  0  0
  189.9660  175.1710  142.8740 C   0  0  0  0  0  0  0  0  0  0  0  0
  192.3070  177.1670  142.7720 N   0  0  0  0  0  2  0  0  0  0  0  0
  191.1340  177.9880  142.8830 C   0  0  0  0  0  3  0  0  0  0  0  0
  189.8460  176.1890  143.9840 C   0  0  2  0  0  3  0  0  0  0  0  0
  183.8260  179.0150  143.9920 N   0  0  0  0  0  1  0  0  0  0  0  0
  186.5060  176.4610  143.6220 C   0  0  0  0  0  3  0  0  0  0  0  0
  187.3890  176.8260  144.6520 C   0  0  0  0  0  0  0  0  0  0  0  0
  185.0220  178.2790  144.2150 C   0  0  0  0  0  0  0  0  0  0  0  0
  185.3300  177.1850  143.4030 C   0  0  0  0  0  3  0  0  0  0  0  0
  187.0630  177.9240  145.4660 C   0  0  0  0  0  3  0  0  0  0  0  0
  185.8870  178.6480  145.2480 C   0  0  0  0  0  3  0  0  0  0  0  0
  190.2910  174.9270  147.8770 C   0  0  0  0  0  2  0  0  0  0  0  0
  191.4220  177.0530  148.4160 C   0  0  0  0  0  1  0  0  0  0  0  0
  191.1780  176.0320  147.3250 C   0  0  1  0  0  3  0  0  0  0  0  0
  192.5170  175.4730  146.8680 C   0  0  0  0  0  2  0  0  0  0  0  0
  192.3280  174.5430  145.8450 O   0  0  0  0  0  1  0  0  0  0  0  0
  1  2  2  0  0  0  0
  2  3  2  0  0  0  0
  3 21  1  0  0  0  0
  4  5  2  0  0  0  0
  4 11  1  0  0  0  0
  6  4  1  0  0  0  0
  6 10  2  0  0  0  0
  7 13  1  0  0  0  0
  8  6  1  0  0  0  0
  9 10  1  0  0  0  0
 10 13  1  0  0  0  0
 11 12  1  0  0  0  0
 12  7  2  0  0  0  0
 13  1  1  6  0  0  0
 14 17  1  0  0  0  0
 15 16  1  0  0  0  0
 16  1  1  0  0  0  0
 16 19  2  0  0  0  0
 17 20  2  0  0  0  0
 18 15  2  0  0  0  0
 18 17  1  0  0  0  0
 20 19  1  0  0  0  0
 23 21  1  0  0  0  0
 23 22  1  1  0  0  0
 24 23  1  0  0  0  0
 25 24  1  0  0  0  0
M  END
>  <MODEL>
5

>  <REMARK>
 VINA RESULT:      -6.9      2.611      5.745
  Name = 
  5 active torsions:
  status: ('A' for Active; 'I' for Inactive)
    1  A    between atoms: C_3  and  C_8
    2  A    between atoms: C_3  and  C_24
    3  A    between atoms: C_9  and  C_14
    4  A    between atoms: C_10  and  C_12
    5  A    between atoms: C_10  and  C_14
                            x       y       z     vdW  Elec       q    Type
                         _______ _______ _______ _____ _____    ______ ____

>  <TORSDO>
F 5

$$$$
=
 OpenBabel11042417473D

 25 26  0  0  1  0  0  0  0  0999 V2000
  188.0680  175.8990  143.3890 C   0  0  0  0  0  0  0  0  0  0  0  0
  187.1280  176.7650  143.0890 C   0  0  0  0  0  0  0  0  0  0  0  0
  186.1980  177.6280  142.7890 C   0  0  0  0  0  3  0  0  0  0  0  0
  191.2290  176.1580  146.4180 C   0  0  0  0  0  0  0  0  0  0  0  0
  192.1420  175.4770  146.9560 O   0  0  0  0  0  0  0  0  0  0  0  0
  191.4060  176.6160  145.0200 C   0  0  0  0  0  0  0  0  0  0  0  0
  188.4190  177.1310  145.5590 C   0  0  0  0  0  3  0  0  0  0  0  0
  192.7810  177.0020  144.5780 C   0  0  0  0  0  1  0  0  0  0  0  0
  190.5790  177.3130  142.9180 O   0  0  0  0  0  1  0  0  0  0  0  0
  190.3820  176.7110  144.1600 C   0  0  0  0  0  0  0  0  0  0  0  0
  190.1060  176.5560  147.2220 N   0  0  0  0  0  2  0  0  0  0  0  0
  188.9260  177.2470  146.7860 C   0  0  0  0  0  3  0  0  0  0  0  0
  189.0120  176.2050  144.5460 C   0  0  2  0  0  3  0  0  0  0  0  0
  189.3550  171.9820  139.4260 N   0  0  0  0  0  1  0  0  0  0  0  0
  188.8800  173.6200  142.7320 C   0  0  0  0  0  3  0  0  0  0  0  0
  188.4140  174.8900  142.3550 C   0  0  0  0  0  0  0  0  0  0  0  0
  189.0370  172.9580  140.4100 C   0  0  0  0  0  0  0  0  0  0  0  0
  189.1920  172.6600  141.7650 C   0  0  0  0  0  3  0  0  0  0  0  0
  188.2550  175.1740  140.9880 C   0  0  0  0  0  3  0  0  0  0  0  0
  188.5670  174.2150  140.0200 C   0  0  0  0  0  3  0  0  0  0  0  0
  186.3090  179.0330  143.2670 C   0  0  0  0  0  2  0  0  0  0  0  0
  183.8800  178.6690  143.5080 C   0  0  0  0  0  1  0  0  0  0  0  0
  185.0700  179.4300  144.0530 C   0  0  1  0  0  3  0  0  0  0  0  0
  185.2350  179.0920  145.5270 C   0  0  0  0  0  2  0  0  0  0  0  0
  184.0070  178.7320  146.0810 O   0  0  0  0  0  1  0  0  0  0  0  0
  2  1  2  0  0  0  0
  3  2  2  0  0  0  0
  3 21  1  0  0  0  0
  4  5  2  0  0  0  0
  4 11  1  0  0  0  0
  6  4  1  0  0  0  0
  7 12  2  0  0  0  0
  8  6  1  0  0  0  0
  9 10  1  0  0  0  0
 10 13  1  0  0  0  0
 10  6  2  0  0  0  0
 12 11  1  0  0  0  0
 13  1  1  6  0  0  0
 13  7  1  0  0  0  0
 14 17  1  0  0  0  0
 16 15  1  0  0  0  0
 16  1  1  0  0  0  0
 17 18  1  0  0  0  0
 18 15  2  0  0  0  0
 19 16  2  0  0  0  0
 20 17  2  0  0  0  0
 20 19  1  0  0  0  0
 21 23  1  0  0  0  0
 23 22  1  6  0  0  0
 23 24  1  0  0  0  0
 24 25  1  0  0  0  0
M  END
>  <MODEL>
6

>  <REMARK>
 VINA RESULT:      -6.9      2.497      5.120
  Name = 
  5 active torsions:
  status: ('A' for Active; 'I' for Inactive)
    1  A    between atoms: C_3  and  C_8
    2  A    between atoms: C_3  and  C_24
    3  A    between atoms: C_9  and  C_14
    4  A    between atoms: C_10  and  C_12
    5  A    between atoms: C_10  and  C_14
                            x       y       z     vdW  Elec       q    Type
                         _______ _______ _______ _____ _____    ______ ____

>  <TORSDO>
F 5

$$$$
=
 OpenBabel11042417473D

 25 26  0  0  1  0  0  0  0  0999 V2000
  188.7950  176.1280  144.9400 C   0  0  0  0  0  0  0  0  0  0  0  0
  189.8330  176.4610  145.6730 C   0  0  0  0  0  0  0  0  0  0  0  0
  190.8630  176.7940  146.3980 C   0  0  0  0  0  3  0  0  0  0  0  0
  190.2410  173.9300  141.4290 C   0  0  0  0  0  0  0  0  0  0  0  0
  191.2470  173.8140  140.6810 O   0  0  0  0  0  0  0  0  0  0  0  0
  190.3070  173.3920  142.8080 C   0  0  0  0  0  0  0  0  0  0  0  0
  187.7760  175.1430  142.8560 C   0  0  0  0  0  3  0  0  0  0  0  0
  191.0750  172.1280  143.0300 C   0  0  0  0  0  1  0  0  0  0  0  0
  189.6420  173.3360  145.0750 O   0  0  0  0  0  1  0  0  0  0  0  0
  189.6910  173.9830  143.8410 C   0  0  0  0  0  0  0  0  0  0  0  0
  189.0340  174.4820  140.8750 N   0  0  0  0  0  2  0  0  0  0  0  0
  187.8170  174.7850  141.5730 C   0  0  0  0  0  3  0  0  0  0  0  0
  189.0210  175.3250  143.6630 C   0  0  2  0  0  3  0  0  0  0  0  0
  183.9280  179.0160  145.7600 N   0  0  0  0  0  1  0  0  0  0  0  0
  187.2520  178.0320  144.4100 C   0  0  0  0  0  3  0  0  0  0  0  0
  187.5360  176.8820  145.1660 C   0  0  0  0  0  0  0  0  0  0  0  0
  185.1390  178.2980  145.5590 C   0  0  0  0  0  0  0  0  0  0  0  0
  186.0610  178.7370  144.6070 C   0  0  0  0  0  3  0  0  0  0  0  0
  186.5960  176.4480  146.1160 C   0  0  0  0  0  3  0  0  0  0  0  0
  185.4050  177.1520  146.3130 C   0  0  0  0  0  3  0  0  0  0  0  0
  192.2270  176.7680  145.8030 C   0  0  0  0  0  2  0  0  0  0  0  0
  192.9200  174.4000  145.8540 C   0  0  0  0  0  1  0  0  0  0  0  0
  193.1020  175.7490  146.5160 C   0  0  1  0  0  3  0  0  0  0  0  0
  194.5690  176.1440  146.4310 C   0  0  0  0  0  2  0  0  0  0  0  0
  194.6890  177.5250  146.2750 O   0  0  0  0  0  1  0  0  0  0  0  0
  1 16  1  0  0  0  0
  1  2  2  0  0  0  0
  2  3  2  0  0  0  0
  4  6  1  0  0  0  0
  5  4  2  0  0  0  0
  6  8  1  0  0  0  0
  6 10  2  0  0  0  0
  7 13  1  0  0  0  0
 10  9  1  0  0  0  0
 11  4  1  0  0  0  0
 11 12  1  0  0  0  0
 12  7  2  0  0  0  0
 13 10  1  0  0  0  0
 13  1  1  1  0  0  0
 15 18  2  0  0  0  0
 15 16  1  0  0  0  0
 16 19  2  0  0  0  0
 17 14  1  0  0  0  0
 17 20  2  0  0  0  0
 18 17  1  0  0  0  0
 19 20  1  0  0  0  0
 21  3  1  0  0  0  0
 21 23  1  0  0  0  0
 23 22  1  6  0  0  0
 24 23  1  0  0  0  0
 25 24  1  0  0  0  0
M  END
>  <MODEL>
7

>  <REMARK>
 VINA RESULT:      -6.9      3.000      6.048
  Name = 
  5 active torsions:
  status: ('A' for Active; 'I' for Inactive)
    1  A    between atoms: C_3  and  C_8
    2  A    between atoms: C_3  and  C_24
    3  A    between atoms: C_9  and  C_14
    4  A    between atoms: C_10  and  C_12
    5  A    between atoms: C_10  and  C_14
                            x       y       z     vdW  Elec       q    Type
                         _______ _______ _______ _____ _____    ______ ____

>  <TORSDO>
F 5

$$$$
=
 OpenBabel11042417473D

 25 26  0  0  1  0  0  0  0  0999 V2000
  187.9330  175.9220  143.8250 C   0  0  0  0  0  0  0  0  0  0  0  0
  187.0000  176.8350  143.9690 C   0  0  0  0  0  0  0  0  0  0  0  0
  186.0770  177.7440  144.1110 C   0  0  0  0  0  3  0  0  0  0  0  0
  191.6530  175.4210  146.0940 C   0  0  0  0  0  0  0  0  0  0  0  0
  192.7050  174.7300  146.1280 O   0  0  0  0  0  0  0  0  0  0  0  0
  191.4900  176.4240  145.0160 C   0  0  0  0  0  0  0  0  0  0  0  0
  188.6630  176.2150  146.2190 C   0  0  0  0  0  3  0  0  0  0  0  0
  192.7060  177.1620  144.5550 C   0  0  0  0  0  1  0  0  0  0  0  0
  190.1790  177.7730  143.5840 O   0  0  0  0  0  1  0  0  0  0  0  0
  190.2990  176.7000  144.4650 C   0  0  0  0  0  0  0  0  0  0  0  0
  190.7080  175.2850  147.1690 N   0  0  0  0  0  2  0  0  0  0  0  0
  189.4160  175.9030  147.2740 C   0  0  0  0  0  3  0  0  0  0  0  0
  189.0840  175.8770  144.8250 C   0  0  2  0  0  3  0  0  0  0  0  0
  188.3740  173.4250  138.6990 N   0  0  0  0  0  1  0  0  0  0  0  0
  187.7070  175.9710  141.3280 C   0  0  0  0  0  3  0  0  0  0  0  0
  188.0360  175.2640  142.4970 C   0  0  0  0  0  0  0  0  0  0  0  0
  188.2630  174.0430  139.9740 C   0  0  0  0  0  0  0  0  0  0  0  0
  187.8170  175.3630  140.0740 C   0  0  0  0  0  3  0  0  0  0  0  0
  188.4900  173.9390  142.3820 C   0  0  0  0  0  3  0  0  0  0  0  0
  188.6010  173.3310  141.1280 C   0  0  0  0  0  3  0  0  0  0  0  0
  186.3440  178.9460  144.9470 C   0  0  0  0  0  2  0  0  0  0  0  0
  183.9690  178.6670  145.5570 C   0  0  0  0  0  1  0  0  0  0  0  0
  185.3380  179.0420  146.0830 C   0  0  1  0  0  3  0  0  0  0  0  0
  185.7070  178.0910  147.2120 C   0  0  0  0  0  2  0  0  0  0  0  0
  186.6970  178.6560  148.0160 O   0  0  0  0  0  1  0  0  0  0  0  0
  1  2  2  0  0  0  0
  2  3  2  0  0  0  0
  3 21  1  0  0  0  0
  4  5  2  0  0  0  0
  4 11  1  0  0  0  0
  6  4  1  0  0  0  0
  7 12  2  0  0  0  0
  8  6  1  0  0  0  0
  9 10  1  0  0  0  0
 10 13  1  0  0  0  0
 10  6  2  0  0  0  0
 11 12  1  0  0  0  0
 13  1  1  6  0  0  0
 13  7  1  0  0  0  0
 14 17  1  0  0  0  0
 15 16  1  0  0  0  0
 16  1  1  0  0  0  0
 17 18  1  0  0  0  0
 17 20  2  0  0  0  0
 18 15  2  0  0  0  0
 19 16  2  0  0  0  0
 20 19  1  0  0  0  0
 21 23  1  0  0  0  0
 23 22  1  6  0  0  0
 23 24  1  0  0  0  0
 24 25  1  0  0  0  0
M  END
>  <MODEL>
8

>  <REMARK>
 VINA RESULT:      -6.8      2.300      5.219
  Name = 
  5 active torsions:
  status: ('A' for Active; 'I' for Inactive)
    1  A    between atoms: C_3  and  C_8
    2  A    between atoms: C_3  and  C_24
    3  A    between atoms: C_9  and  C_14
    4  A    between atoms: C_10  and  C_12
    5  A    between atoms: C_10  and  C_14
                            x       y       z     vdW  Elec       q    Type
                         _______ _______ _______ _____ _____    ______ ____

>  <TORSDO>
F 5

$$$$
=
 OpenBabel11042417473D

 25 26  0  0  1  0  0  0  0  0999 V2000
  188.5170  176.3150  144.1500 C   0  0  0  0  0  0  0  0  0  0  0  0
  188.3490  175.4720  143.1580 C   0  0  0  0  0  0  0  0  0  0  0  0
  188.1820  174.6320  142.1760 C   0  0  0  0  0  3  0  0  0  0  0  0
  192.3790  175.4540  146.0440 C   0  0  0  0  0  0  0  0  0  0  0  0
  193.2410  174.5440  146.1610 O   0  0  0  0  0  0  0  0  0  0  0  0
  192.2510  176.1560  144.7460 C   0  0  0  0  0  0  0  0  0  0  0  0
  189.7090  177.0050  146.2610 C   0  0  0  0  0  3  0  0  0  0  0  0
  193.4970  176.4080  143.9590 C   0  0  0  0  0  1  0  0  0  0  0  0
  191.0360  177.3900  143.1370 O   0  0  0  0  0  1  0  0  0  0  0  0
  191.0710  176.5840  144.2730 C   0  0  0  0  0  0  0  0  0  0  0  0
  191.6340  175.8470  147.2090 N   0  0  0  0  0  2  0  0  0  0  0  0
  190.5500  176.7870  147.2710 C   0  0  0  0  0  3  0  0  0  0  0  0
  189.7890  176.2270  144.9880 C   0  0  2  0  0  3  0  0  0  0  0  0
  183.8940  179.0390  146.1280 N   0  0  0  0  0  1  0  0  0  0  0  0
  186.5070  176.4360  145.6440 C   0  0  0  0  0  3  0  0  0  0  0  0
  187.3100  177.0210  144.6510 C   0  0  0  0  0  0  0  0  0  0  0  0
  185.0420  178.3620  145.6330 C   0  0  0  0  0  0  0  0  0  0  0  0
  185.3780  177.1010  146.1310 C   0  0  0  0  0  3  0  0  0  0  0  0
  186.9650  178.2940  144.1640 C   0  0  0  0  0  3  0  0  0  0  0  0
  185.8360  178.9600  144.6510 C   0  0  0  0  0  3  0  0  0  0  0  0
  188.9800  173.3760  142.1310 C   0  0  0  0  0  2  0  0  0  0  0  0
  188.5690  173.7830  139.7310 C   0  0  0  0  0  1  0  0  0  0  0  0
  188.8620  172.7170  140.7660 C   0  0  1  0  0  3  0  0  0  0  0  0
  190.1590  172.0140  140.3920 C   0  0  0  0  0  2  0  0  0  0  0  0
  190.7410  171.4420  141.5240 O   0  0  0  0  0  1  0  0  0  0  0  0
  1 16  1  0  0  0  0
  2  1  2  0  0  0  0
  3  2  2  0  0  0  0
  4  5  2  0  0  0  0
  4 11  1  0  0  0  0
  6  4  1  0  0  0  0
  7 12  2  0  0  0  0
  8  6  1  0  0  0  0
  9 10  1  0  0  0  0
 10  6  2  0  0  0  0
 10 13  1  0  0  0  0
 11 12  1  0  0  0  0
 13  1  1  6  0  0  0
 13  7  1  0  0  0  0
 15 18  1  0  0  0  0
 16 15  2  0  0  0  0
 17 14  1  0  0  0  0
 17 18  2  0  0  0  0
 19 16  1  0  0  0  0
 19 20  2  0  0  0  0
 20 17  1  0  0  0  0
 21  3  1  0  0  0  0
 23 22  1  6  0  0  0
 23 21  1  0  0  0  0
 24 23  1  0  0  0  0
 24 25  1  0  0  0  0
M  END
>  <MODEL>
9

>  <REMARK>
 VINA RESULT:      -6.5      2.758      7.001
  Name = 
  5 active torsions:
  status: ('A' for Active; 'I' for Inactive)
    1  A    between atoms: C_3  and  C_8
    2  A    between atoms: C_3  and  C_24
    3  A    between atoms: C_9  and  C_14
    4  A    between atoms: C_10  and  C_12
    5  A    between atoms: C_10  and  C_14
                            x       y       z     vdW  Elec       q    Type
                         _______ _______ _______ _____ _____    ______ ____

>  <TORSDO>
F 5

$$$$
