=
 OpenBabel11042418543D

 31 37  0  0  1  0  0  0  0  0999 V2000
  185.7690  177.3880  142.9680 C   0  0  0  0  0  2  0  0  0  0  0  0
  189.0670  175.8100  142.2950 C   0  0  0  0  0  0  0  0  0  0  0  0
  189.1870  174.6630  141.5550 C   0  0  0  0  0  0  0  0  0  0  0  0
  190.1120  172.4000  140.2520 C   0  0  0  0  0  0  0  0  0  0  0  0
  191.8760  170.9280  139.6990 C   0  0  0  0  0  3  0  0  0  0  0  0
  188.1260  177.8600  143.2520 N   0  0  1  0  0  0  0  0  0  0  0  0
  191.0120  173.1850  141.0120 C   0  0  0  0  0  0  0  0  0  0  0  0
  190.5190  174.3170  141.6570 C   0  0  0  0  0  0  0  0  0  0  0  0
  186.7870  178.2050  143.7720 C   0  0  2  0  0  3  0  0  0  0  0  0
  191.1780  175.1760  142.4130 O   0  0  0  0  0  0  0  0  0  0  0  0
  189.1780  177.7460  144.2930 C   0  0  0  0  0  2  0  0  0  0  0  0
  190.3010  176.0780  142.8150 C   0  0  0  0  0  0  0  0  0  0  0  0
  188.2720  173.9180  140.8170 C   0  0  0  0  0  3  0  0  0  0  0  0
  192.3470  172.7920  141.0840 C   0  0  0  0  0  3  0  0  0  0  0  0
  186.5630  176.2440  142.3770 C   0  0  0  0  0  2  0  0  0  0  0  0
  187.9390  176.6240  142.6030 N   0  0  0  0  0  0  0  0  0  0  0  0
  190.5280  177.2640  143.7060 C   0  0  2  0  0  3  0  0  0  0  0  0
  192.7520  171.6740  140.4270 N   0  0  0  0  0  0  0  0  0  0  0  0
  188.7520  172.7690  140.1580 C   0  0  0  0  0  3  0  0  0  0  0  0
  190.5670  171.2910  139.6150 N   0  0  0  0  0  0  0  0  0  0  0  0
  191.9930  176.2160  147.0180 N   0  0  0  0  0  0  0  0  0  0  0  0
  191.5000  176.9500  144.8010 C   0  0  0  0  0  0  0  0  0  0  0  0
  191.0780  176.4950  146.0550 C   0  0  0  0  0  3  0  0  0  0  0  0
  192.8680  177.1000  144.5790 C   0  0  0  0  0  3  0  0  0  0  0  0
  193.3230  176.3710  146.7820 C   0  0  0  0  0  3  0  0  0  0  0  0
  193.7530  176.8110  145.5690 N   0  0  0  0  0  0  0  0  0  0  0  0
  184.9250  177.2050  146.7800 C   0  0  0  0  0  2  0  0  0  0  0  0
  186.5920  178.0080  145.2920 C   0  0  1  0  0  3  0  0  0  0  0  0
  185.9510  179.1230  145.8520 O   0  0  0  0  0  0  0  0  0  0  0  0
  185.3310  178.6420  147.0130 C   0  0  0  0  0  2  0  0  0  0  0  0
  185.7930  176.7640  145.6420 C   0  0  0  0  0  2  0  0  0  0  0  0
  2 16  1  0  0  0  0
  2 12  2  0  0  0  0
  3  8  1  0  0  0  0
  3  2  1  0  0  0  0
  4  7  1  0  0  0  0
  5 18  1  0  0  0  0
  6  9  1  0  0  0  0
  6 11  1  1  0  0  0
  7 14  1  0  0  0  0
  7  8  2  0  0  0  0
  8 10  1  0  0  0  0
  9  1  1  6  0  0  0
  9 28  1  0  0  0  0
 10 12  1  0  0  0  0
 12 17  1  0  0  0  0
 13  3  2  0  0  0  0
 15 16  1  0  0  0  0
 15  1  1  0  0  0  0
 16  6  1  0  0  0  0
 17 11  1  0  0  0  0
 17 22  1  1  0  0  0
 18 14  2  0  0  0  0
 19  4  2  0  0  0  0
 19 13  1  0  0  0  0
 20  5  2  0  0  0  0
 20  4  1  0  0  0  0
 22 23  1  0  0  0  0
 23 21  2  0  0  0  0
 24 22  2  0  0  0  0
 24 26  1  0  0  0  0
 25 21  1  0  0  0  0
 26 25  2  0  0  0  0
 27 30  1  0  0  0  0
 28 31  1  6  0  0  0
 28 29  1  0  0  0  0
 29 30  1  0  0  0  0
 31 27  1  0  0  0  0
M  END
>  <MODEL>
1

>  <REMARK>
 VINA RESULT:      -8.1      0.000      0.000
  Name = 
  2 active torsions:
  status: ('A' for Active; 'I' for Inactive)
    1  A    between atoms: C_8  and  C_14
    2  A    between atoms: C_9  and  C_26
                            x       y       z     vdW  Elec       q    Type
                         _______ _______ _______ _____ _____    ______ ____

>  <TORSDO>
F 2

$$$$
=
 OpenBabel11042418543D

 31 37  0  0  1  0  0  0  0  0999 V2000
  186.3640  177.9920  140.9500 C   0  0  0  0  0  2  0  0  0  0  0  0
  189.0650  175.5790  141.7890 C   0  0  0  0  0  0  0  0  0  0  0  0
  189.2240  174.4000  141.1090 C   0  0  0  0  0  0  0  0  0  0  0  0
  190.0450  171.9050  140.2290 C   0  0  0  0  0  0  0  0  0  0  0  0
  191.4220  169.9980  140.4610 C   0  0  0  0  0  3  0  0  0  0  0  0
  188.3400  177.8540  142.3430 N   0  0  1  0  0  0  0  0  0  0  0  0
  190.6460  172.4730  141.3780 C   0  0  0  0  0  0  0  0  0  0  0  0
  190.2130  173.7280  141.7990 C   0  0  0  0  0  0  0  0  0  0  0  0
  187.0520  178.5620  142.1970 C   0  0  2  0  0  3  0  0  0  0  0  0
  190.6300  174.4290  142.8370 O   0  0  0  0  0  0  0  0  0  0  0  0
  188.7080  177.5290  143.7430 C   0  0  0  0  0  2  0  0  0  0  0  0
  189.9290  175.5480  142.8460 C   0  0  0  0  0  0  0  0  0  0  0  0
  188.6100  173.8760  139.9740 C   0  0  0  0  0  3  0  0  0  0  0  0
  191.6390  171.7520  142.0390 C   0  0  0  0  0  3  0  0  0  0  0  0
  187.0220  176.6500  140.7190 C   0  0  0  0  0  2  0  0  0  0  0  0
  188.1740  176.6730  141.5910 N   0  0  0  0  0  0  0  0  0  0  0  0
  190.0020  176.6830  143.8250 C   0  0  2  0  0  3  0  0  0  0  0  0
  192.0070  170.5320  141.5670 N   0  0  0  0  0  0  0  0  0  0  0  0
  189.0350  172.6070  139.5350 C   0  0  0  0  0  3  0  0  0  0  0  0
  190.4490  170.6830  139.7990 N   0  0  0  0  0  0  0  0  0  0  0  0
  189.4840  175.0630  147.1900 N   0  0  0  0  0  0  0  0  0  0  0  0
  190.2260  176.1910  145.2210 C   0  0  0  0  0  0  0  0  0  0  0  0
  189.2370  175.4980  145.9280 C   0  0  0  0  0  3  0  0  0  0  0  0
  191.4520  176.4120  145.8470 C   0  0  0  0  0  3  0  0  0  0  0  0
  190.6860  175.2910  147.7820 C   0  0  0  0  0  3  0  0  0  0  0  0
  191.6600  175.9620  147.1120 N   0  0  0  0  0  0  0  0  0  0  0  0
  183.8110  178.7660  143.9210 C   0  0  0  0  0  2  0  0  0  0  0  0
  186.1190  178.5080  143.4280 C   0  0  1  0  0  3  0  0  0  0  0  0
  185.9410  179.7920  143.9640 O   0  0  0  0  0  0  0  0  0  0  0  0
  184.7160  179.7370  144.6430 C   0  0  0  0  0  2  0  0  0  0  0  0
  184.7540  177.9160  143.1250 C   0  0  0  0  0  2  0  0  0  0  0  0
  2 12  2  0  0  0  0
  3  2  1  0  0  0  0
  3  8  1  0  0  0  0
  4  7  1  0  0  0  0
  5 18  1  0  0  0  0
  6 11  1  1  0  0  0
  7  8  2  0  0  0  0
  7 14  1  0  0  0  0
  8 10  1  0  0  0  0
  9  1  1  6  0  0  0
  9  6  1  0  0  0  0
  9 28  1  0  0  0  0
 10 12  1  0  0  0  0
 11 17  1  0  0  0  0
 12 17  1  0  0  0  0
 13  3  2  0  0  0  0
 15  1  1  0  0  0  0
 15 16  1  0  0  0  0
 16  2  1  0  0  0  0
 16  6  1  0  0  0  0
 17 22  1  1  0  0  0
 18 14  2  0  0  0  0
 19 13  1  0  0  0  0
 19  4  2  0  0  0  0
 20  4  1  0  0  0  0
 20  5  2  0  0  0  0
 21 25  1  0  0  0  0
 22 24  2  0  0  0  0
 22 23  1  0  0  0  0
 23 21  2  0  0  0  0
 24 26  1  0  0  0  0
 26 25  2  0  0  0  0
 27 30  1  0  0  0  0
 28 31  1  6  0  0  0
 28 29  1  0  0  0  0
 29 30  1  0  0  0  0
 31 27  1  0  0  0  0
M  END
>  <MODEL>
2

>  <REMARK>
 VINA RESULT:      -7.9      1.532      1.771
  Name = 
  2 active torsions:
  status: ('A' for Active; 'I' for Inactive)
    1  A    between atoms: C_8  and  C_14
    2  A    between atoms: C_9  and  C_26
                            x       y       z     vdW  Elec       q    Type
                         _______ _______ _______ _____ _____    ______ ____

>  <TORSDO>
F 2

$$$$
=
 OpenBabel11042418543D

 31 37  0  0  1  0  0  0  0  0999 V2000
  194.0510  176.1200  145.8770 C   0  0  0  0  0  2  0  0  0  0  0  0
  190.5120  176.5890  144.8420 C   0  0  0  0  0  0  0  0  0  0  0  0
  189.5500  177.0300  145.7130 C   0  0  0  0  0  0  0  0  0  0  0  0
  187.1780  177.7920  146.9250 C   0  0  0  0  0  0  0  0  0  0  0  0
  184.8330  178.0750  146.8470 C   0  0  0  0  0  3  0  0  0  0  0  0
  192.7060  176.1090  143.8640 N   0  0  1  0  0  0  0  0  0  0  0  0
  187.1590  177.3060  145.5950 C   0  0  0  0  0  0  0  0  0  0  0  0
  188.3670  176.9300  145.0110 C   0  0  0  0  0  0  0  0  0  0  0  0
  193.9730  175.6070  144.4350 C   0  0  2  0  0  3  0  0  0  0  0  0
  188.5710  176.4510  143.7980 O   0  0  0  0  0  0  0  0  0  0  0  0
  192.0000  175.1400  142.9890 C   0  0  0  0  0  2  0  0  0  0  0  0
  189.8690  176.2290  143.6910 C   0  0  0  0  0  0  0  0  0  0  0  0
  189.6110  177.5040  147.0220 C   0  0  0  0  0  3  0  0  0  0  0  0
  185.9370  177.2240  144.9300 C   0  0  0  0  0  3  0  0  0  0  0  0
  192.6240  176.4590  146.2500 C   0  0  0  0  0  2  0  0  0  0  0  0
  191.9180  176.4210  144.9890 N   0  0  0  0  0  0  0  0  0  0  0  0
  190.6240  175.6740  142.5200 C   0  0  2  0  0  3  0  0  0  0  0  0
  184.8010  177.6100  145.5680 N   0  0  0  0  0  0  0  0  0  0  0  0
  188.3990  177.8880  147.6290 C   0  0  0  0  0  3  0  0  0  0  0  0
  186.0150  178.1640  147.5170 N   0  0  0  0  0  0  0  0  0  0  0  0
  188.2290  173.8840  140.2220 N   0  0  0  0  0  0  0  0  0  0  0  0
  189.8480  174.5990  141.8260 C   0  0  0  0  0  0  0  0  0  0  0  0
  188.9070  174.8900  140.8320 C   0  0  0  0  0  3  0  0  0  0  0  0
  190.0620  173.2620  142.1600 C   0  0  0  0  0  3  0  0  0  0  0  0
  188.4530  172.5870  140.5650 C   0  0  0  0  0  3  0  0  0  0  0  0
  189.3630  172.2830  141.5280 N   0  0  0  0  0  0  0  0  0  0  0  0
  195.5340  172.4170  145.3860 C   0  0  0  0  0  2  0  0  0  0  0  0
  194.1720  174.0760  144.3700 C   0  0  1  0  0  3  0  0  0  0  0  0
  195.1930  173.7530  143.4640 O   0  0  0  0  0  0  0  0  0  0  0  0
  195.6700  172.5030  143.8830 C   0  0  0  0  0  2  0  0  0  0  0  0
  194.5040  173.4540  145.7160 C   0  0  0  0  0  2  0  0  0  0  0  0
  1 15  1  0  0  0  0
  2 16  1  0  0  0  0
  2  3  1  0  0  0  0
  3 13  1  0  0  0  0
  4 20  1  0  0  0  0
  4 19  1  0  0  0  0
  5 20  2  0  0  0  0
  6 11  1  6  0  0  0
  6  9  1  0  0  0  0
  6 16  1  0  0  0  0
  7  4  2  0  0  0  0
  8  7  1  0  0  0  0
  8  3  2  0  0  0  0
  9  1  1  1  0  0  0
 10  8  1  0  0  0  0
 12 10  1  0  0  0  0
 12  2  2  0  0  0  0
 13 19  2  0  0  0  0
 14 18  2  0  0  0  0
 14  7  1  0  0  0  0
 16 15  1  0  0  0  0
 17 22  1  1  0  0  0
 17 11  1  0  0  0  0
 17 12  1  0  0  0  0
 18  5  1  0  0  0  0
 21 25  2  0  0  0  0
 21 23  1  0  0  0  0
 22 24  1  0  0  0  0
 23 22  2  0  0  0  0
 25 26  1  0  0  0  0
 26 24  2  0  0  0  0
 27 31  1  0  0  0  0
 28  9  1  0  0  0  0
 28 31  1  1  0  0  0
 29 30  1  0  0  0  0
 29 28  1  0  0  0  0
 30 27  1  0  0  0  0
M  END
>  <MODEL>
3

>  <REMARK>
 VINA RESULT:      -7.5      2.519      7.882
  Name = 
  2 active torsions:
  status: ('A' for Active; 'I' for Inactive)
    1  A    between atoms: C_8  and  C_14
    2  A    between atoms: C_9  and  C_26
                            x       y       z     vdW  Elec       q    Type
                         _______ _______ _______ _____ _____    ______ ____

>  <TORSDO>
F 2

$$$$
=
 OpenBabel11042418543D

 31 37  0  0  1  0  0  0  0  0999 V2000
  189.0620  177.1080  146.8930 C   0  0  0  0  0  2  0  0  0  0  0  0
  191.5870  175.4630  144.7160 C   0  0  0  0  0  0  0  0  0  0  0  0
  192.8670  175.9370  144.5980 C   0  0  0  0  0  0  0  0  0  0  0  0
  195.5020  176.3860  143.8710 C   0  0  0  0  0  0  0  0  0  0  0  0
  197.3810  175.8580  142.5380 C   0  0  0  0  0  3  0  0  0  0  0  0
  189.3250  175.0890  145.5830 N   0  0  1  0  0  0  0  0  0  0  0  0
  194.7610  175.3690  143.2210 C   0  0  0  0  0  0  0  0  0  0  0  0
  193.4380  175.1660  143.6070 C   0  0  0  0  0  0  0  0  0  0  0  0
  188.3090  175.9910  146.1610 C   0  0  2  0  0  3  0  0  0  0  0  0
  192.5770  174.2850  143.1330 O   0  0  0  0  0  0  0  0  0  0  0  0
  188.9930  174.5740  144.2310 C   0  0  0  0  0  2  0  0  0  0  0  0
  191.4470  174.4670  143.7910 C   0  0  0  0  0  0  0  0  0  0  0  0
  193.5620  176.9450  145.2610 C   0  0  0  0  0  3  0  0  0  0  0  0
  195.3850  174.6190  142.2260 C   0  0  0  0  0  3  0  0  0  0  0  0
  190.4510  177.1020  146.2920 C   0  0  0  0  0  2  0  0  0  0  0  0
  190.4970  175.8700  145.5380 N   0  0  0  0  0  0  0  0  0  0  0  0
  190.1470  173.7350  143.6270 C   0  0  2  0  0  3  0  0  0  0  0  0
  196.6800  174.8780  141.9050 N   0  0  0  0  0  0  0  0  0  0  0  0
  194.9010  177.1660  144.8840 C   0  0  0  0  0  3  0  0  0  0  0  0
  196.7930  176.6040  143.5130 N   0  0  0  0  0  0  0  0  0  0  0  0
  189.9110  171.9180  140.3310 N   0  0  0  0  0  0  0  0  0  0  0  0
  189.8740  173.4160  142.1900 C   0  0  0  0  0  0  0  0  0  0  0  0
  190.1820  172.1680  141.6380 C   0  0  0  0  0  3  0  0  0  0  0  0
  189.2860  174.3750  141.3660 C   0  0  0  0  0  3  0  0  0  0  0  0
  189.3400  172.8680  139.5450 C   0  0  0  0  0  3  0  0  0  0  0  0
  189.0320  174.0870  140.0620 N   0  0  0  0  0  0  0  0  0  0  0  0
  186.3160  178.6660  144.6140 C   0  0  0  0  0  2  0  0  0  0  0  0
  187.2830  176.5670  145.1580 C   0  0  1  0  0  3  0  0  0  0  0  0
  186.0040  176.6070  145.7350 O   0  0  0  0  0  0  0  0  0  0  0  0
  185.3200  177.6100  145.0340 C   0  0  0  0  0  2  0  0  0  0  0  0
  187.6370  177.9600  144.6670 C   0  0  0  0  0  2  0  0  0  0  0  0
  2 16  1  0  0  0  0
  3  2  1  0  0  0  0
  3 13  1  0  0  0  0
  4 19  1  0  0  0  0
  5 20  2  0  0  0  0
  6 11  1  6  0  0  0
  6  9  1  0  0  0  0
  7  8  1  0  0  0  0
  7  4  2  0  0  0  0
  8  3  2  0  0  0  0
  9  1  1  6  0  0  0
 10  8  1  0  0  0  0
 10 12  1  0  0  0  0
 12  2  2  0  0  0  0
 14  7  1  0  0  0  0
 15  1  1  0  0  0  0
 16  6  1  0  0  0  0
 16 15  1  0  0  0  0
 17 22  1  6  0  0  0
 17 12  1  0  0  0  0
 17 11  1  0  0  0  0
 18 14  2  0  0  0  0
 18  5  1  0  0  0  0
 19 13  2  0  0  0  0
 20  4  1  0  0  0  0
 21 23  1  0  0  0  0
 23 22  2  0  0  0  0
 24 22  1  0  0  0  0
 25 26  1  0  0  0  0
 25 21  2  0  0  0  0
 26 24  2  0  0  0  0
 27 31  1  0  0  0  0
 27 30  1  0  0  0  0
 28 31  1  1  0  0  0
 28 29  1  0  0  0  0
 28  9  1  0  0  0  0
 30 29  1  0  0  0  0
M  END
>  <MODEL>
4

>  <REMARK>
 VINA RESULT:      -7.5      2.436      5.430
  Name = 
  2 active torsions:
  status: ('A' for Active; 'I' for Inactive)
    1  A    between atoms: C_8  and  C_14
    2  A    between atoms: C_9  and  C_26
                            x       y       z     vdW  Elec       q    Type
                         _______ _______ _______ _____ _____    ______ ____

>  <TORSDO>
F 2

$$$$
=
 OpenBabel11042418543D

 31 37  0  0  1  0  0  0  0  0999 V2000
  194.9610  176.7500  145.3670 C   0  0  0  0  0  2  0  0  0  0  0  0
  191.6840  176.3120  143.6680 C   0  0  0  0  0  0  0  0  0  0  0  0
  190.5120  176.7610  144.2190 C   0  0  0  0  0  0  0  0  0  0  0  0
  187.8600  177.3390  144.7720 C   0  0  0  0  0  0  0  0  0  0  0  0
  185.5660  177.1650  144.2320 C   0  0  0  0  0  3  0  0  0  0  0  0
  194.0780  176.0240  143.2320 N   0  0  1  0  0  0  0  0  0  0  0  0
  188.1830  176.5620  143.6350 C   0  0  0  0  0  0  0  0  0  0  0  0
  189.5250  176.2860  143.3810 C   0  0  0  0  0  0  0  0  0  0  0  0
  195.2540  175.9090  144.1180 C   0  0  2  0  0  3  0  0  0  0  0  0
  190.0390  175.5830  142.3890 O   0  0  0  0  0  0  0  0  0  0  0  0
  193.7050  174.7660  142.5390 C   0  0  0  0  0  2  0  0  0  0  0  0
  191.3480  175.5820  142.5630 C   0  0  0  0  0  0  0  0  0  0  0  0
  190.2360  177.5300  145.3470 C   0  0  0  0  0  3  0  0  0  0  0  0
  187.1480  176.1050  142.8210 C   0  0  0  0  0  3  0  0  0  0  0  0
  193.4560  176.9010  145.3930 C   0  0  0  0  0  2  0  0  0  0  0  0
  193.0390  176.4420  144.0870 N   0  0  0  0  0  0  0  0  0  0  0  0
  192.3970  174.9160  141.7230 C   0  0  2  0  0  3  0  0  0  0  0  0
  185.8620  176.4160  143.1350 N   0  0  0  0  0  0  0  0  0  0  0  0
  188.8840  177.8180  145.6200 C   0  0  0  0  0  3  0  0  0  0  0  0
  186.5600  177.6220  145.0420 N   0  0  0  0  0  0  0  0  0  0  0  0
  191.0530  172.1880  139.4930 N   0  0  0  0  0  0  0  0  0  0  0  0
  191.9330  173.5850  141.2180 C   0  0  0  0  0  0  0  0  0  0  0  0
  191.4580  173.4140  139.9130 C   0  0  0  0  0  3  0  0  0  0  0  0
  191.9780  172.4710  142.0550 C   0  0  0  0  0  3  0  0  0  0  0  0
  191.1030  171.1150  140.3260 C   0  0  0  0  0  3  0  0  0  0  0  0
  191.5630  171.2600  141.5980 N   0  0  0  0  0  0  0  0  0  0  0  0
  197.0000  173.3690  146.1230 C   0  0  0  0  0  2  0  0  0  0  0  0
  195.6660  174.4680  144.4950 C   0  0  1  0  0  3  0  0  0  0  0  0
  196.8850  174.1320  143.8880 O   0  0  0  0  0  0  0  0  0  0  0  0
  197.4280  173.1230  144.6950 C   0  0  0  0  0  2  0  0  0  0  0  0
  195.7940  174.2490  145.9930 C   0  0  0  0  0  2  0  0  0  0  0  0
  1 15  1  0  0  0  0
  2 16  1  0  0  0  0
  2  3  1  0  0  0  0
  3 13  1  0  0  0  0
  4 20  1  0  0  0  0
  4 19  1  0  0  0  0
  5 20  2  0  0  0  0
  6 11  1  1  0  0  0
  6 16  1  0  0  0  0
  6  9  1  0  0  0  0
  7  4  2  0  0  0  0
  8  7  1  0  0  0  0
  8  3  2  0  0  0  0
  9 28  1  0  0  0  0
  9  1  1  1  0  0  0
 10 12  1  0  0  0  0
 10  8  1  0  0  0  0
 12  2  2  0  0  0  0
 13 19  2  0  0  0  0
 14 18  2  0  0  0  0
 14  7  1  0  0  0  0
 16 15  1  0  0  0  0
 17 22  1  1  0  0  0
 17 11  1  0  0  0  0
 17 12  1  0  0  0  0
 18  5  1  0  0  0  0
 21 23  2  0  0  0  0
 21 25  1  0  0  0  0
 22 24  2  0  0  0  0
 23 22  1  0  0  0  0
 25 26  2  0  0  0  0
 26 24  1  0  0  0  0
 28 31  1  1  0  0  0
 29 28  1  0  0  0  0
 29 30  1  0  0  0  0
 30 27  1  0  0  0  0
 31 27  1  0  0  0  0
M  END
>  <MODEL>
5

>  <REMARK>
 VINA RESULT:      -7.5      2.452      7.694
  Name = 
  2 active torsions:
  status: ('A' for Active; 'I' for Inactive)
    1  A    between atoms: C_8  and  C_14
    2  A    between atoms: C_9  and  C_26
                            x       y       z     vdW  Elec       q    Type
                         _______ _______ _______ _____ _____    ______ ____

>  <TORSDO>
F 2

$$$$
=
 OpenBabel11042418543D

 31 37  0  0  1  0  0  0  0  0999 V2000
  188.6690  177.5400  145.6430 C   0  0  0  0  0  2  0  0  0  0  0  0
  191.3500  175.4240  144.1750 C   0  0  0  0  0  0  0  0  0  0  0  0
  192.6740  175.7640  144.2590 C   0  0  0  0  0  0  0  0  0  0  0  0
  195.4310  175.8850  144.0110 C   0  0  0  0  0  0  0  0  0  0  0  0
  197.4500  175.0330  143.1270 C   0  0  0  0  0  3  0  0  0  0  0  0
  188.9410  175.3610  144.6230 N   0  0  1  0  0  0  0  0  0  0  0  0
  194.7130  174.8670  143.3390 C   0  0  0  0  0  0  0  0  0  0  0  0
  193.3280  174.8310  143.4810 C   0  0  0  0  0  0  0  0  0  0  0  0
  187.9420  176.4140  144.8980 C   0  0  2  0  0  3  0  0  0  0  0  0
  192.4750  173.9780  142.9430 O   0  0  0  0  0  0  0  0  0  0  0  0
  188.8060  174.7170  143.2930 C   0  0  0  0  0  2  0  0  0  0  0  0
  191.2710  174.3390  143.3480 C   0  0  0  0  0  0  0  0  0  0  0  0
  193.3440  176.7800  144.9360 C   0  0  0  0  0  3  0  0  0  0  0  0
  195.4200  173.9480  142.5650 C   0  0  0  0  0  3  0  0  0  0  0  0
  190.1350  177.3370  145.3260 C   0  0  0  0  0  2  0  0  0  0  0  0
  190.1810  176.0230  144.7250 N   0  0  0  0  0  0  0  0  0  0  0  0
  189.9500  173.7110  143.0130 C   0  0  2  0  0  3  0  0  0  0  0  0
  196.7720  174.0490  142.4760 N   0  0  0  0  0  0  0  0  0  0  0  0
  194.7460  176.8330  144.8030 C   0  0  0  0  0  3  0  0  0  0  0  0
  196.7810  175.9420  143.8880 N   0  0  0  0  0  0  0  0  0  0  0  0
  189.6230  173.6590  139.2570 N   0  0  0  0  0  0  0  0  0  0  0  0
  189.9080  173.2450  141.5910 C   0  0  0  0  0  0  0  0  0  0  0  0
  189.6450  174.1220  140.5330 C   0  0  0  0  0  3  0  0  0  0  0  0
  190.1470  171.9040  141.2930 C   0  0  0  0  0  3  0  0  0  0  0  0
  189.8560  172.3470  138.9880 C   0  0  0  0  0  3  0  0  0  0  0  0
  190.1150  171.4790  140.0020 N   0  0  0  0  0  0  0  0  0  0  0  0
  185.9010  178.8540  143.0570 C   0  0  0  0  0  2  0  0  0  0  0  0
  187.1850  176.9520  143.6630 C   0  0  1  0  0  3  0  0  0  0  0  0
  185.8320  176.5860  143.7200 O   0  0  0  0  0  0  0  0  0  0  0  0
  185.1630  177.5410  142.9420 C   0  0  0  0  0  2  0  0  0  0  0  0
  187.2730  178.4610  143.5130 C   0  0  0  0  0  2  0  0  0  0  0  0
  2  3  1  0  0  0  0
  2 16  1  0  0  0  0
  3 13  1  0  0  0  0
  4 19  1  0  0  0  0
  5 20  2  0  0  0  0
  6 11  1  6  0  0  0
  6 16  1  0  0  0  0
  6  9  1  0  0  0  0
  7  8  1  0  0  0  0
  7  4  2  0  0  0  0
  8  3  2  0  0  0  0
  9  1  1  6  0  0  0
 10 12  1  0  0  0  0
 10  8  1  0  0  0  0
 12  2  2  0  0  0  0
 14  7  1  0  0  0  0
 15  1  1  0  0  0  0
 16 15  1  0  0  0  0
 17 22  1  6  0  0  0
 17 11  1  0  0  0  0
 17 12  1  0  0  0  0
 18 14  2  0  0  0  0
 18  5  1  0  0  0  0
 19 13  2  0  0  0  0
 20  4  1  0  0  0  0
 21 23  1  0  0  0  0
 23 22  2  0  0  0  0
 24 22  1  0  0  0  0
 25 21  2  0  0  0  0
 25 26  1  0  0  0  0
 26 24  2  0  0  0  0
 27 31  1  0  0  0  0
 28 31  1  1  0  0  0
 28 29  1  0  0  0  0
 28  9  1  0  0  0  0
 30 27  1  0  0  0  0
 30 29  1  0  0  0  0
M  END
>  <MODEL>
6

>  <REMARK>
 VINA RESULT:      -7.3      2.382      5.441
  Name = 
  2 active torsions:
  status: ('A' for Active; 'I' for Inactive)
    1  A    between atoms: C_8  and  C_14
    2  A    between atoms: C_9  and  C_26
                            x       y       z     vdW  Elec       q    Type
                         _______ _______ _______ _____ _____    ______ ____

>  <TORSDO>
F 2

$$$$
=
 OpenBabel11042418543D

 31 37  0  0  1  0  0  0  0  0999 V2000
  189.4000  173.4200  139.7060 C   0  0  0  0  0  2  0  0  0  0  0  0
  188.7450  175.0350  142.9900 C   0  0  0  0  0  0  0  0  0  0  0  0
  187.6630  175.8510  143.1970 C   0  0  0  0  0  0  0  0  0  0  0  0
  185.7860  177.5960  144.2480 C   0  0  0  0  0  0  0  0  0  0  0  0
  185.0260  178.9740  146.0110 C   0  0  0  0  0  3  0  0  0  0  0  0
  190.2250  173.3620  141.9820 N   0  0  1  0  0  0  0  0  0  0  0  0
  186.9200  177.2440  145.0180 C   0  0  0  0  0  0  0  0  0  0  0  0
  187.8480  176.3650  144.4640 C   0  0  0  0  0  0  0  0  0  0  0  0
  190.6060  173.0680  140.5860 C   0  0  2  0  0  3  0  0  0  0  0  0
  188.9660  175.9140  145.0030 O   0  0  0  0  0  0  0  0  0  0  0  0
  191.3060  173.9620  142.8020 C   0  0  0  0  0  2  0  0  0  0  0  0
  189.5230  175.1170  144.1100 C   0  0  0  0  0  0  0  0  0  0  0  0
  186.5610  176.1720  142.4090 C   0  0  0  0  0  3  0  0  0  0  0  0
  187.0610  177.7910  146.2920 C   0  0  0  0  0  3  0  0  0  0  0  0
  188.5680  174.3660  140.5440 C   0  0  0  0  0  2  0  0  0  0  0  0
  189.1420  174.2560  141.8660 N   0  0  0  0  0  0  0  0  0  0  0  0
  190.8140  174.3600  144.2160 C   0  0  2  0  0  3  0  0  0  0  0  0
  186.1120  178.6440  146.7620 N   0  0  0  0  0  0  0  0  0  0  0  0
  185.6120  177.0600  142.9520 C   0  0  0  0  0  3  0  0  0  0  0  0
  184.8680  178.4520  144.7640 N   0  0  0  0  0  0  0  0  0  0  0  0
  193.1640  175.6280  146.8790 N   0  0  0  0  0  0  0  0  0  0  0  0
  191.8590  175.1540  144.9350 C   0  0  0  0  0  0  0  0  0  0  0  0
  192.2050  174.8870  146.2650 C   0  0  0  0  0  3  0  0  0  0  0  0
  192.5240  176.1870  144.2750 C   0  0  0  0  0  3  0  0  0  0  0  0
  193.7980  176.6320  146.2170 C   0  0  0  0  0  3  0  0  0  0  0  0
  193.4770  176.9060  144.9250 N   0  0  0  0  0  0  0  0  0  0  0  0
  193.3050  173.7320  138.1790 C   0  0  0  0  0  2  0  0  0  0  0  0
  191.8900  173.7670  140.0850 C   0  0  1  0  0  3  0  0  0  0  0  0
  193.0220  173.0050  140.4110 O   0  0  0  0  0  0  0  0  0  0  0  0
  193.9960  173.3800  139.4760 C   0  0  0  0  0  2  0  0  0  0  0  0
  191.8940  174.0230  138.5880 C   0  0  0  0  0  2  0  0  0  0  0  0
  1 15  1  0  0  0  0
  2  3  1  0  0  0  0
  2 12  2  0  0  0  0
  3  8  1  0  0  0  0
  4 20  1  0  0  0  0
  4  7  1  0  0  0  0
  5 18  1  0  0  0  0
  6 11  1  1  0  0  0
  7 14  1  0  0  0  0
  8 10  1  0  0  0  0
  8  7  2  0  0  0  0
  9  1  1  6  0  0  0
  9  6  1  0  0  0  0
 11 17  1  0  0  0  0
 12 17  1  0  0  0  0
 12 10  1  0  0  0  0
 13 19  1  0  0  0  0
 13  3  2  0  0  0  0
 14 18  2  0  0  0  0
 15 16  1  0  0  0  0
 16  6  1  0  0  0  0
 16  2  1  0  0  0  0
 17 22  1  6  0  0  0
 19  4  2  0  0  0  0
 20  5  2  0  0  0  0
 22 23  2  0  0  0  0
 23 21  1  0  0  0  0
 24 26  2  0  0  0  0
 24 22  1  0  0  0  0
 25 21  2  0  0  0  0
 26 25  1  0  0  0  0
 27 31  1  0  0  0  0
 27 30  1  0  0  0  0
 28 31  1  6  0  0  0
 28 29  1  0  0  0  0
 28  9  1  0  0  0  0
 30 29  1  0  0  0  0
M  END
>  <MODEL>
7

>  <REMARK>
 VINA RESULT:      -7.2      2.067      6.842
  Name = 
  2 active torsions:
  status: ('A' for Active; 'I' for Inactive)
    1  A    between atoms: C_8  and  C_14
    2  A    between atoms: C_9  and  C_26
                            x       y       z     vdW  Elec       q    Type
                         _______ _______ _______ _____ _____    ______ ____

>  <TORSDO>
F 2

$$$$
=
 OpenBabel11042418543D

 31 37  0  0  1  0  0  0  0  0999 V2000
  189.0210  177.1550  145.3990 C   0  0  0  0  0  2  0  0  0  0  0  0
  191.5490  174.4820  144.8640 C   0  0  0  0  0  0  0  0  0  0  0  0
  192.8610  174.6370  145.2280 C   0  0  0  0  0  0  0  0  0  0  0  0
  195.5820  174.3220  145.6430 C   0  0  0  0  0  0  0  0  0  0  0  0
  197.5660  173.0680  145.3730 C   0  0  0  0  0  3  0  0  0  0  0  0
  189.1280  174.8330  144.7200 N   0  0  1  0  0  0  0  0  0  0  0  0
  194.8640  173.3300  144.9330 C   0  0  0  0  0  0  0  0  0  0  0  0
  193.4970  173.5150  144.7390 C   0  0  0  0  0  0  0  0  0  0  0  0
  188.2920  176.0480  144.6280 C   0  0  2  0  0  3  0  0  0  0  0  0
  192.6490  172.7250  144.1060 O   0  0  0  0  0  0  0  0  0  0  0  0
  189.1800  174.0270  143.4750 C   0  0  0  0  0  2  0  0  0  0  0  0
  191.4670  173.3110  144.1660 C   0  0  0  0  0  0  0  0  0  0  0  0
  193.5310  175.6340  145.9320 C   0  0  0  0  0  3  0  0  0  0  0  0
  195.5530  172.2160  144.4590 C   0  0  0  0  0  3  0  0  0  0  0  0
  190.4620  176.6990  145.4700 C   0  0  0  0  0  2  0  0  0  0  0  0
  190.4100  175.3180  145.0460 N   0  0  0  0  0  0  0  0  0  0  0  0
  190.1650  172.8370  143.5920 C   0  0  2  0  0  3  0  0  0  0  0  0
  196.8890  172.1070  144.6890 N   0  0  0  0  0  0  0  0  0  0  0  0
  194.9140  175.4650  146.1380 C   0  0  0  0  0  3  0  0  0  0  0  0
  196.9140  174.1660  145.8460 N   0  0  0  0  0  0  0  0  0  0  0  0
  190.6380  172.2800  139.8930 N   0  0  0  0  0  0  0  0  0  0  0  0
  190.3580  172.1780  142.2620 C   0  0  0  0  0  0  0  0  0  0  0  0
  190.4560  172.9170  141.0780 C   0  0  0  0  0  3  0  0  0  0  0  0
  190.4550  170.7890  142.1820 C   0  0  0  0  0  3  0  0  0  0  0  0
  190.7290  170.9250  139.8380 C   0  0  0  0  0  3  0  0  0  0  0  0
  190.6370  170.1890  140.9770 N   0  0  0  0  0  0  0  0  0  0  0  0
  187.0530  178.4210  142.1080 C   0  0  0  0  0  2  0  0  0  0  0  0
  187.9330  176.5020  143.1950 C   0  0  1  0  0  3  0  0  0  0  0  0
  186.5780  176.2540  142.9280 O   0  0  0  0  0  0  0  0  0  0  0  0
  186.2330  177.1660  141.9210 C   0  0  0  0  0  2  0  0  0  0  0  0
  188.2160  177.9720  142.9400 C   0  0  0  0  0  2  0  0  0  0  0  0
  1 15  1  0  0  0  0
  2 16  1  0  0  0  0
  2  3  1  0  0  0  0
  3 13  1  0  0  0  0
  4 20  1  0  0  0  0
  4 19  1  0  0  0  0
  5 20  2  0  0  0  0
  6 11  1  6  0  0  0
  6 16  1  0  0  0  0
  7  4  2  0  0  0  0
  8  7  1  0  0  0  0
  8  3  2  0  0  0  0
  9  6  1  0  0  0  0
  9  1  1  6  0  0  0
 10 12  1  0  0  0  0
 10  8  1  0  0  0  0
 11 17  1  0  0  0  0
 12  2  2  0  0  0  0
 13 19  2  0  0  0  0
 14 18  2  0  0  0  0
 14  7  1  0  0  0  0
 16 15  1  0  0  0  0
 17 22  1  6  0  0  0
 17 12  1  0  0  0  0
 18  5  1  0  0  0  0
 21 23  1  0  0  0  0
 23 22  2  0  0  0  0
 24 22  1  0  0  0  0
 25 21  2  0  0  0  0
 25 26  1  0  0  0  0
 26 24  2  0  0  0  0
 27 31  1  0  0  0  0
 28 31  1  1  0  0  0
 28  9  1  0  0  0  0
 29 28  1  0  0  0  0
 30 27  1  0  0  0  0
 30 29  1  0  0  0  0
M  END
>  <MODEL>
8

>  <REMARK>
 VINA RESULT:      -7.1      2.845      5.905
  Name = 
  2 active torsions:
  status: ('A' for Active; 'I' for Inactive)
    1  A    between atoms: C_8  and  C_14
    2  A    between atoms: C_9  and  C_26
                            x       y       z     vdW  Elec       q    Type
                         _______ _______ _______ _____ _____    ______ ____

>  <TORSDO>
F 2

$$$$
=
 OpenBabel11042418543D

 31 37  0  0  1  0  0  0  0  0999 V2000
  189.8950  172.9530  139.6190 C   0  0  0  0  0  2  0  0  0  0  0  0
  189.3760  174.5830  142.9200 C   0  0  0  0  0  0  0  0  0  0  0  0
  188.2650  175.3380  143.1930 C   0  0  0  0  0  0  0  0  0  0  0  0
  186.3660  176.9890  144.3510 C   0  0  0  0  0  0  0  0  0  0  0  0
  185.6510  178.3490  146.1460 C   0  0  0  0  0  3  0  0  0  0  0  0
  190.8780  172.9820  141.8310 N   0  0  1  0  0  0  0  0  0  0  0  0
  187.5710  176.7160  145.0430 C   0  0  0  0  0  0  0  0  0  0  0  0
  188.5080  175.8830  144.4360 C   0  0  0  0  0  0  0  0  0  0  0  0
  191.1780  172.6870  140.4150 C   0  0  2  0  0  3  0  0  0  0  0  0
  189.6850  175.5070  144.9000 O   0  0  0  0  0  0  0  0  0  0  0  0
  191.9780  173.6580  142.5640 C   0  0  0  0  0  2  0  0  0  0  0  0
  190.2250  174.7290  143.9800 C   0  0  0  0  0  0  0  0  0  0  0  0
  187.0940  175.5810  142.4800 C   0  0  0  0  0  3  0  0  0  0  0  0
  187.7670  177.2920  146.2970 C   0  0  0  0  0  3  0  0  0  0  0  0
  189.0680  173.8630  140.5010 C   0  0  0  0  0  2  0  0  0  0  0  0
  189.7390  173.8090  141.7800 N   0  0  0  0  0  0  0  0  0  0  0  0
  191.5630  174.0500  144.0040 C   0  0  2  0  0  3  0  0  0  0  0  0
  186.8050  178.0960  146.8220 N   0  0  0  0  0  0  0  0  0  0  0  0
  186.1350  176.4220  143.0780 C   0  0  0  0  0  3  0  0  0  0  0  0
  185.4370  177.7980  144.9200 N   0  0  0  0  0  0  0  0  0  0  0  0
  194.1240  176.7590  144.5740 N   0  0  0  0  0  0  0  0  0  0  0  0
  192.6070  174.9160  144.6380 C   0  0  0  0  0  0  0  0  0  0  0  0
  193.1850  175.9940  143.9590 C   0  0  0  0  0  3  0  0  0  0  0  0
  193.0190  174.6610  145.9450 C   0  0  0  0  0  3  0  0  0  0  0  0
  194.5130  176.4920  145.8490 C   0  0  0  0  0  3  0  0  0  0  0  0
  193.9630  175.4490  146.5250 N   0  0  0  0  0  0  0  0  0  0  0  0
  193.4310  173.7380  137.7060 C   0  0  0  0  0  2  0  0  0  0  0  0
  192.3810  173.4510  139.8160 C   0  0  1  0  0  3  0  0  0  0  0  0
  193.5200  172.6320  139.7950 O   0  0  0  0  0  0  0  0  0  0  0  0
  194.3260  173.1570  138.7750 C   0  0  0  0  0  2  0  0  0  0  0  0
  192.1280  173.9670  138.4090 C   0  0  0  0  0  2  0  0  0  0  0  0
  1 15  1  0  0  0  0
  2  3  1  0  0  0  0
  2 12  2  0  0  0  0
  3  8  1  0  0  0  0
  4 20  1  0  0  0  0
  4  7  1  0  0  0  0
  5 18  1  0  0  0  0
  6 11  1  6  0  0  0
  7 14  1  0  0  0  0
  8 10  1  0  0  0  0
  8  7  2  0  0  0  0
  9  1  1  6  0  0  0
  9  6  1  0  0  0  0
 11 17  1  0  0  0  0
 12 17  1  0  0  0  0
 12 10  1  0  0  0  0
 13 19  1  0  0  0  0
 13  3  2  0  0  0  0
 14 18  2  0  0  0  0
 15 16  1  0  0  0  0
 16  6  1  0  0  0  0
 16  2  1  0  0  0  0
 17 22  1  6  0  0  0
 19  4  2  0  0  0  0
 20  5  2  0  0  0  0
 21 25  1  0  0  0  0
 22 24  2  0  0  0  0
 23 21  2  0  0  0  0
 23 22  1  0  0  0  0
 24 26  1  0  0  0  0
 25 26  2  0  0  0  0
 27 31  1  0  0  0  0
 27 30  1  0  0  0  0
 28 31  1  6  0  0  0
 28  9  1  0  0  0  0
 29 28  1  0  0  0  0
 30 29  1  0  0  0  0
M  END
>  <MODEL>
9

>  <REMARK>
 VINA RESULT:      -6.9      2.224      6.936
  Name = 
  2 active torsions:
  status: ('A' for Active; 'I' for Inactive)
    1  A    between atoms: C_8  and  C_14
    2  A    between atoms: C_9  and  C_26
                            x       y       z     vdW  Elec       q    Type
                         _______ _______ _______ _____ _____    ______ ____

>  <TORSDO>
F 2

$$$$
