=
 OpenBabel11042414373D

 46 50  0  0  1  0  0  0  0  0999 V2000
  190.9140  175.6700  145.2920 C   0  0  2  0  0  3  0  0  0  0  0  0
  193.7290  174.5200  140.5800 N   0  0  0  0  0  1  0  0  0  0  0  0
  194.2770  176.1660  145.8750 N   0  0  0  0  0  0  0  0  0  0  0  0
  192.9150  174.6550  142.8790 C   0  0  0  0  0  2  0  0  0  0  0  0
  192.2550  174.9190  145.3870 C   0  0  2  0  0  3  0  0  0  0  0  0
  195.1770  176.1560  143.5360 C   0  0  0  0  0  0  0  0  0  0  0  0
  194.9820  175.7160  142.2610 N   0  0  0  0  0  0  0  0  0  0  0  0
  193.8830  174.9770  141.9180 C   0  0  0  0  0  0  0  0  0  0  0  0
  194.2220  175.8450  144.5030 C   0  0  0  0  0  0  0  0  0  0  0  0
  193.1080  175.5610  146.5120 C   0  0  0  0  0  3  0  0  0  0  0  0
  193.1100  175.1270  144.1780 C   0  0  0  0  0  0  0  0  0  0  0  0
  196.2040  176.8200  143.8300 O   0  0  0  0  0  0  0  0  0  0  0  0
  189.1460  177.1810  143.5070 N   0  0  0  0  0  2  0  0  0  0  0  0
  190.3390  177.7810  144.0280 C   0  0  0  0  0  0  0  0  0  0  0  0
  190.6790  178.9410  143.6710 O   0  0  0  0  0  0  0  0  0  0  0  0
  191.1510  177.0690  144.9620 N   0  0  0  0  0  2  0  0  0  0  0  0
  187.5460  178.7650  142.9930 F   0  0  0  0  0  0  0  0  0  0  0  0
  189.1410  178.3190  141.4730 F   0  0  0  0  0  0  0  0  0  0  0  0
  188.3260  177.7640  142.4450 C   0  0  0  0  0  0  0  0  0  0  0  0
  186.2500  177.0400  141.4690 O   0  0  0  0  0  0  0  0  0  0  0  0
  187.4180  176.7290  141.8280 C   0  0  0  0  0  0  0  0  0  0  0  0
  187.8730  175.4020  141.5870 N   0  0  0  0  0  2  0  0  0  0  0  0
  189.1290  174.8830  142.1010 C   0  0  0  0  0  2  0  0  0  0  0  0
  189.8260  174.1690  141.0450 N   0  0  0  0  0  0  0  0  0  0  0  0
  189.9800  172.0520  142.3180 C   0  0  0  0  0  0  0  0  0  0  0  0
  191.8050  170.3050  142.6910 C   0  0  0  0  0  2  0  0  0  0  0  0
  190.5830  172.5740  143.4520 F   0  0  0  0  0  0  0  0  0  0  0  0
  190.8580  172.2630  140.1590 O   0  0  0  0  0  0  0  0  0  0  0  0
  190.1970  172.9320  141.1570 C   0  0  0  0  0  0  0  0  0  0  0  0
  190.6310  170.7400  141.8330 C   0  0  2  0  0  3  0  0  0  0  0  0
  191.1210  170.9410  140.4510 N   0  0  2  0  0  0  0  0  0  0  0  0
  188.6280  171.8570  142.5360 F   0  0  0  0  0  0  0  0  0  0  0  0
  192.5730  170.7810  140.4830 C   0  0  0  0  0  2  0  0  0  0  0  0
  193.0210  170.7480  141.9270 C   0  0  0  0  0  2  0  0  0  0  0  0
  190.1710  175.5980  146.5430 N   0  0  0  0  0  2  0  0  0  0  0  0
  188.8520  175.2430  146.2150 N   0  0  0  0  0  2  0  0  0  0  0  0
  187.9970  175.6390  147.3260 C   0  0  0  0  0  2  0  0  0  0  0  0
  187.1030  176.7600  146.9240 C   0  0  0  0  0  0  0  0  0  0  0  0
  187.0590  177.9210  147.6990 C   0  0  0  0  0  3  0  0  0  0  0  0
  185.4700  178.8920  146.1540 C   0  0  0  0  0  3  0  0  0  0  0  0
  186.2000  180.4450  148.2770 Cl  0  0  0  0  0  0  0  0  0  0  0  0
  186.2430  178.9870  147.3120 C   0  0  0  0  0  0  0  0  0  0  0  0
  185.5020  177.7300  145.3780 C   0  0  0  0  0  0  0  0  0  0  0  0
  186.3270  176.6640  145.7670 C   0  0  0  0  0  3  0  0  0  0  0  0
  184.7010  177.6600  144.2330 O   0  0  0  0  0  0  0  0  0  0  0  0
  184.1380  178.8110  143.6190 C   0  0  0  0  0  1  0  0  0  0  0  0
  1 16  1  1  0  0  0
  1 35  1  0  0  0  0
  2  8  1  0  0  0  0
  3 10  2  0  0  0  0
  4 11  1  0  0  0  0
  5  1  1  6  0  0  0
  5 10  1  0  0  0  0
  6 12  2  0  0  0  0
  6  9  1  0  0  0  0
  7  6  1  0  0  0  0
  8  7  2  0  0  0  0
  8  4  1  0  0  0  0
  9  3  1  0  0  0  0
 11  9  2  0  0  0  0
 11  5  1  0  0  0  0
 13 14  1  0  0  0  0
 14 16  1  0  0  0  0
 15 14  2  0  0  0  0
 18 19  1  0  0  0  0
 19 17  1  0  0  0  0
 19 13  1  0  0  0  0
 20 21  2  0  0  0  0
 21 19  1  0  0  0  0
 22 21  1  0  0  0  0
 22 23  1  0  0  0  0
 24 29  2  0  0  0  0
 24 23  1  0  0  0  0
 25 32  1  0  0  0  0
 25 27  1  0  0  0  0
 28 31  1  0  0  0  0
 28 29  1  0  0  0  0
 29 25  1  0  0  0  0
 30 25  1  0  0  0  0
 30 26  1  1  0  0  0
 31 33  1  1  0  0  0
 31 30  1  0  0  0  0
 33 34  1  0  0  0  0
 34 26  1  0  0  0  0
 36 35  1  0  0  0  0
 36 37  1  0  0  0  0
 38 37  1  0  0  0  0
 38 39  1  0  0  0  0
 40 42  1  0  0  0  0
 42 39  2  0  0  0  0
 42 41  1  0  0  0  0
 43 44  1  0  0  0  0
 43 40  2  0  0  0  0
 44 38  2  0  0  0  0
 45 43  1  0  0  0  0
 46 45  1  0  0  0  0
M  END
>  <MODEL>
1

>  <REMARK>
 VINA RESULT:      -7.6      0.000      0.000
  Name = 
  11 active torsions:
  status: ('A' for Active; 'I' for Inactive)
    1  A    between atoms: N_1  and  C_19
    2  A    between atoms: N_1  and  N_30
    3  A    between atoms: N_2  and  C_11
    4  A    between atoms: N_6  and  C_29
    5  A    between atoms: C_10  and  C_19
    6  A    between atoms: C_11  and  N_42
    7  A    between atoms: C_14  and  C_29
    8  A    between atoms: O_15  and  C_41
    9  A    between atoms: C_20  and  C_35
   10  A    between atoms: N_30  and  C_35
   11  A    between atoms: N_34  and  C_35
                            x       y       z     vdW  Elec       q    Type
                         _______ _______ _______ _____ _____    ______ ____

>  <TORSDO>
F 11

$$$$
=
 OpenBabel11042414373D

 46 50  0  0  1  0  0  0  0  0999 V2000
  191.5630  175.8720  146.1650 C   0  0  2  0  0  3  0  0  0  0  0  0
  193.4200  171.1270  143.8220 N   0  0  0  0  0  1  0  0  0  0  0  0
  194.9310  176.2200  145.5060 N   0  0  0  0  0  0  0  0  0  0  0  0
  193.0900  173.1160  145.2030 C   0  0  0  0  0  3  0  0  0  0  0  0
  192.9440  175.3280  146.5740 C   0  0  2  0  0  3  0  0  0  0  0  0
  195.3270  174.2660  143.9890 C   0  0  0  0  0  0  0  0  0  0  0  0
  194.9050  173.0200  143.6290 N   0  0  0  0  0  0  0  0  0  0  0  0
  193.8140  172.4380  144.2130 C   0  0  0  0  0  0  0  0  0  0  0  0
  194.6170  174.9540  144.9700 C   0  0  0  0  0  0  0  0  0  0  0  0
  193.9630  176.4970  146.5680 C   0  0  0  0  0  2  0  0  0  0  0  0
  193.5150  174.4000  145.5500 C   0  0  0  0  0  0  0  0  0  0  0  0
  196.3440  174.7740  143.4490 O   0  0  0  0  0  0  0  0  0  0  0  0
  190.2430  175.5520  143.5670 N   0  0  0  0  0  2  0  0  0  0  0  0
  191.1370  176.6480  143.7980 C   0  0  0  0  0  0  0  0  0  0  0  0
  191.4200  177.4480  142.8660 O   0  0  0  0  0  0  0  0  0  0  0  0
  191.7110  176.8450  145.0900 N   0  0  0  0  0  2  0  0  0  0  0  0
  189.2270  176.3170  141.6400 F   0  0  0  0  0  0  0  0  0  0  0  0
  190.7310  174.6550  141.4720 F   0  0  0  0  0  0  0  0  0  0  0  0
  189.7160  175.1790  142.2540 C   0  0  0  0  0  0  0  0  0  0  0  0
  187.3930  174.5590  142.3120 O   0  0  0  0  0  0  0  0  0  0  0  0
  188.5930  174.1800  142.3800 C   0  0  0  0  0  0  0  0  0  0  0  0
  188.8610  172.7890  142.5220 N   0  0  0  0  0  2  0  0  0  0  0  0
  190.1870  172.2520  142.7750 C   0  0  0  0  0  2  0  0  0  0  0  0
  190.2640  170.8920  142.2720 N   0  0  0  0  0  0  0  0  0  0  0  0
  191.2570  171.5490  140.1020 C   0  0  0  0  0  0  0  0  0  0  0  0
  190.8820  170.8650  137.6700 C   0  0  0  0  0  2  0  0  0  0  0  0
  190.2890  172.4730  139.7400 F   0  0  0  0  0  0  0  0  0  0  0  0
  190.7970  169.3150  140.6250 O   0  0  0  0  0  0  0  0  0  0  0  0
  190.7300  170.6000  141.0980 C   0  0  0  0  0  0  0  0  0  0  0  0
  191.6500  170.5980  138.9520 C   0  0  2  0  0  3  0  0  0  0  0  0
  191.3700  169.2080  139.3750 N   0  0  2  0  0  0  0  0  0  0  0  0
  192.3800  172.1920  140.5890 F   0  0  0  0  0  0  0  0  0  0  0  0
  190.3500  168.6810  138.4710 C   0  0  0  0  0  2  0  0  0  0  0  0
  189.7960  169.8260  137.6530 C   0  0  0  0  0  2  0  0  0  0  0  0
  190.8840  176.5070  147.2870 N   0  0  0  0  0  2  0  0  0  0  0  0
  189.8490  177.2890  146.7490 N   0  0  0  0  0  2  0  0  0  0  0  0
  188.6200  176.5090  146.8220 C   0  0  0  0  0  2  0  0  0  0  0  0
  187.5610  177.1220  145.9750 C   0  0  0  0  0  0  0  0  0  0  0  0
  186.3230  177.4390  146.5380 C   0  0  0  0  0  3  0  0  0  0  0  0
  185.5810  178.3200  144.4090 C   0  0  0  0  0  3  0  0  0  0  0  0
  183.7890  178.4480  146.4650 Cl  0  0  0  0  0  0  0  0  0  0  0  0
  185.3340  178.0400  145.7540 C   0  0  0  0  0  0  0  0  0  0  0  0
  186.8140  177.9980  143.8360 C   0  0  0  0  0  0  0  0  0  0  0  0
  187.8070  177.4000  144.6280 C   0  0  0  0  0  3  0  0  0  0  0  0
  187.0230  178.2760  142.4820 O   0  0  0  0  0  0  0  0  0  0  0  0
  185.9640  178.3220  141.5360 C   0  0  0  0  0  1  0  0  0  0  0  0
  1 16  1  6  0  0  0
  1 35  1  0  0  0  0
  2  8  1  0  0  0  0
  3 10  1  0  0  0  0
  4 11  2  0  0  0  0
  5  1  1  6  0  0  0
  6  9  1  0  0  0  0
  7  6  1  0  0  0  0
  7  8  2  0  0  0  0
  8  4  1  0  0  0  0
  9  3  2  0  0  0  0
  9 11  1  0  0  0  0
 10  5  1  0  0  0  0
 11  5  1  0  0  0  0
 12  6  2  0  0  0  0
 13 14  1  0  0  0  0
 14 16  1  0  0  0  0
 15 14  2  0  0  0  0
 17 19  1  0  0  0  0
 18 19  1  0  0  0  0
 19 21  1  0  0  0  0
 19 13  1  0  0  0  0
 20 21  2  0  0  0  0
 21 22  1  0  0  0  0
 22 23  1  0  0  0  0
 24 23  1  0  0  0  0
 25 32  1  0  0  0  0
 25 29  1  0  0  0  0
 27 25  1  0  0  0  0
 28 29  1  0  0  0  0
 29 24  2  0  0  0  0
 30 26  1  6  0  0  0
 30 31  1  0  0  0  0
 30 25  1  0  0  0  0
 31 33  1  6  0  0  0
 31 28  1  0  0  0  0
 34 26  1  0  0  0  0
 34 33  1  0  0  0  0
 36 37  1  0  0  0  0
 36 35  1  0  0  0  0
 38 39  1  0  0  0  0
 38 37  1  0  0  0  0
 40 42  1  0  0  0  0
 42 41  1  0  0  0  0
 42 39  2  0  0  0  0
 43 40  2  0  0  0  0
 43 44  1  0  0  0  0
 44 38  2  0  0  0  0
 45 43  1  0  0  0  0
 46 45  1  0  0  0  0
M  END
>  <MODEL>
2

>  <REMARK>
 VINA RESULT:      -7.6      2.162      2.770
  Name = 
  11 active torsions:
  status: ('A' for Active; 'I' for Inactive)
    1  A    between atoms: N_1  and  C_19
    2  A    between atoms: N_1  and  N_30
    3  A    between atoms: N_2  and  C_11
    4  A    between atoms: N_6  and  C_29
    5  A    between atoms: C_10  and  C_19
    6  A    between atoms: C_11  and  N_42
    7  A    between atoms: C_14  and  C_29
    8  A    between atoms: O_15  and  C_41
    9  A    between atoms: C_20  and  C_35
   10  A    between atoms: N_30  and  C_35
   11  A    between atoms: N_34  and  C_35
                            x       y       z     vdW  Elec       q    Type
                         _______ _______ _______ _____ _____    ______ ____

>  <TORSDO>
F 11

$$$$
=
 OpenBabel11042414373D

 46 50  0  0  1  0  0  0  0  0999 V2000
  191.6640  172.7490  142.8450 C   0  0  2  0  0  3  0  0  0  0  0  0
  187.6910  176.6860  142.4390 N   0  0  0  0  0  1  0  0  0  0  0  0
  189.7870  172.1250  140.0190 N   0  0  0  0  0  0  0  0  0  0  0  0
  188.9550  174.5970  142.5310 C   0  0  0  0  0  3  0  0  0  0  0  0
  190.2510  172.3400  142.3900 C   0  0  2  0  0  3  0  0  0  0  0  0
  188.5360  174.2840  139.7880 C   0  0  0  0  0  0  0  0  0  0  0  0
  188.0460  175.3730  140.4450 N   0  0  0  0  0  0  0  0  0  0  0  0
  188.2370  175.5450  141.7880 C   0  0  0  0  0  0  0  0  0  0  0  0
  189.2530  173.3330  140.5120 C   0  0  0  0  0  0  0  0  0  0  0  0
  190.3730  171.4120  141.1540 C   0  0  0  0  0  2  0  0  0  0  0  0
  189.4720  173.4950  141.8480 C   0  0  0  0  0  0  0  0  0  0  0  0
  188.3330  174.1400  138.5540 O   0  0  0  0  0  0  0  0  0  0  0  0
  192.8340  175.1980  143.9520 N   0  0  0  0  0  2  0  0  0  0  0  0
  192.6590  175.0510  142.5370 C   0  0  0  0  0  0  0  0  0  0  0  0
  192.9410  176.0000  141.7570 O   0  0  0  0  0  0  0  0  0  0  0  0
  192.1660  173.8240  142.0000 N   0  0  0  0  0  2  0  0  0  0  0  0
  194.4720  176.8040  144.2180 F   0  0  0  0  0  0  0  0  0  0  0  0
  192.3200  177.4550  144.2280 F   0  0  0  0  0  0  0  0  0  0  0  0
  193.1950  176.4530  144.6130 C   0  0  0  0  0  0  0  0  0  0  0  0
  194.2560  176.1340  146.7480 O   0  0  0  0  0  0  0  0  0  0  0  0
  193.1790  176.3030  146.1140 C   0  0  0  0  0  0  0  0  0  0  0  0
  191.9650  176.4030  146.8490 N   0  0  0  0  0  2  0  0  0  0  0  0
  190.6530  176.4310  146.2250 C   0  0  0  0  0  2  0  0  0  0  0  0
  189.8600  177.4970  146.8120 N   0  0  0  0  0  0  0  0  0  0  0  0
  187.7440  176.2150  146.7520 C   0  0  0  0  0  0  0  0  0  0  0  0
  185.3280  176.7560  146.1260 C   0  0  0  0  0  2  0  0  0  0  0  0
  187.7700  175.8990  145.4020 F   0  0  0  0  0  0  0  0  0  0  0  0
  187.8410  178.4000  147.5830 O   0  0  0  0  0  0  0  0  0  0  0  0
  188.5860  177.3900  147.0320 C   0  0  0  0  0  0  0  0  0  0  0  0
  186.3630  176.7060  147.2350 C   0  0  2  0  0  3  0  0  0  0  0  0
  186.5160  178.0730  147.7820 N   0  0  2  0  0  0  0  0  0  0  0  0
  188.1520  175.1310  147.5090 F   0  0  0  0  0  0  0  0  0  0  0  0
  185.7150  178.9630  146.9460 C   0  0  0  0  0  2  0  0  0  0  0  0
  185.2780  178.2000  145.7150 C   0  0  0  0  0  2  0  0  0  0  0  0
  192.5910  171.6260  142.7840 N   0  0  0  0  0  2  0  0  0  0  0  0
  192.5550  170.9980  144.0390 N   0  0  0  0  0  2  0  0  0  0  0  0
  192.9010  171.9940  145.0440 C   0  0  0  0  0  2  0  0  0  0  0  0
  194.3630  171.9680  145.3250 C   0  0  0  0  0  0  0  0  0  0  0  0
  194.9650  170.7790  145.7440 C   0  0  0  0  0  3  0  0  0  0  0  0
  197.1140  171.8900  145.8080 C   0  0  0  0  0  3  0  0  0  0  0  0
  197.0950  169.2480  146.4940 Cl  0  0  0  0  0  0  0  0  0  0  0  0
  196.3410  170.7420  145.9830 C   0  0  0  0  0  0  0  0  0  0  0  0
  196.5170  173.0860  145.3970 C   0  0  0  0  0  0  0  0  0  0  0  0
  195.1360  173.1180  145.1520 C   0  0  0  0  0  3  0  0  0  0  0  0
  197.3170  174.2230  145.2480 O   0  0  0  0  0  0  0  0  0  0  0  0
  197.6260  174.7840  143.9800 C   0  0  0  0  0  1  0  0  0  0  0  0
  1 16  1  6  0  0  0
  3  9  2  0  0  0  0
  3 10  1  0  0  0  0
  5  1  1  6  0  0  0
  6  7  1  0  0  0  0
  6  9  1  0  0  0  0
  7  8  2  0  0  0  0
  8  2  1  0  0  0  0
  8  4  1  0  0  0  0
  9 11  1  0  0  0  0
 10  5  1  0  0  0  0
 11  5  1  0  0  0  0
 11  4  2  0  0  0  0
 12  6  2  0  0  0  0
 13 19  1  0  0  0  0
 14 13  1  0  0  0  0
 15 14  2  0  0  0  0
 16 14  1  0  0  0  0
 17 19  1  0  0  0  0
 18 19  1  0  0  0  0
 19 21  1  0  0  0  0
 21 20  2  0  0  0  0
 21 22  1  0  0  0  0
 23 24  1  0  0  0  0
 23 22  1  0  0  0  0
 24 29  2  0  0  0  0
 25 29  1  0  0  0  0
 25 30  1  0  0  0  0
 25 32  1  0  0  0  0
 27 25  1  0  0  0  0
 28 31  1  0  0  0  0
 29 28  1  0  0  0  0
 30 26  1  6  0  0  0
 30 31  1  0  0  0  0
 31 33  1  6  0  0  0
 34 26  1  0  0  0  0
 34 33  1  0  0  0  0
 35  1  1  0  0  0  0
 35 36  1  0  0  0  0
 36 37  1  0  0  0  0
 37 38  1  0  0  0  0
 38 39  1  0  0  0  0
 39 42  2  0  0  0  0
 40 42  1  0  0  0  0
 42 41  1  0  0  0  0
 43 40  2  0  0  0  0
 44 38  2  0  0  0  0
 44 43  1  0  0  0  0
 45 43  1  0  0  0  0
 46 45  1  0  0  0  0
M  END
>  <MODEL>
3

>  <REMARK>
 VINA RESULT:      -7.5      3.699      8.502
  Name = 
  11 active torsions:
  status: ('A' for Active; 'I' for Inactive)
    1  A    between atoms: N_1  and  C_19
    2  A    between atoms: N_1  and  N_30
    3  A    between atoms: N_2  and  C_11
    4  A    between atoms: N_6  and  C_29
    5  A    between atoms: C_10  and  C_19
    6  A    between atoms: C_11  and  N_42
    7  A    between atoms: C_14  and  C_29
    8  A    between atoms: O_15  and  C_41
    9  A    between atoms: C_20  and  C_35
   10  A    between atoms: N_30  and  C_35
   11  A    between atoms: N_34  and  C_35
                            x       y       z     vdW  Elec       q    Type
                         _______ _______ _______ _____ _____    ______ ____

>  <TORSDO>
F 11

$$$$
=
 OpenBabel11042414373D

 46 50  0  0  1  0  0  0  0  0999 V2000
  191.3320  172.8500  142.5170 C   0  0  2  0  0  3  0  0  0  0  0  0
  195.1230  176.7890  141.2630 N   0  0  0  0  0  1  0  0  0  0  0  0
  194.0040  171.3390  140.9430 N   0  0  0  0  0  0  0  0  0  0  0  0
  193.5490  174.9200  141.2300 C   0  0  0  0  0  3  0  0  0  0  0  0
  192.0640  172.7790  141.1640 C   0  0  2  0  0  3  0  0  0  0  0  0
  195.7150  173.1670  141.0400 C   0  0  0  0  0  0  0  0  0  0  0  0
  195.9160  174.5130  141.1160 N   0  0  0  0  0  0  0  0  0  0  0  0
  194.8690  175.3890  141.2070 C   0  0  0  0  0  0  0  0  0  0  0  0
  194.4070  172.6840  141.0640 C   0  0  0  0  0  0  0  0  0  0  0  0
  192.5410  171.3220  140.9310 C   0  0  0  0  0  2  0  0  0  0  0  0
  193.3510  173.5390  141.1740 C   0  0  0  0  0  0  0  0  0  0  0  0
  196.6930  172.3820  140.9400 O   0  0  0  0  0  0  0  0  0  0  0  0
  192.5320  174.0640  144.9000 N   0  0  0  0  0  2  0  0  0  0  0  0
  192.7070  172.6680  144.6290 C   0  0  0  0  0  0  0  0  0  0  0  0
  193.4370  171.9590  145.3750 O   0  0  0  0  0  0  0  0  0  0  0  0
  192.0520  172.0670  143.5130 N   0  0  0  0  0  2  0  0  0  0  0  0
  192.6820  174.5480  147.1530 F   0  0  0  0  0  0  0  0  0  0  0  0
  194.5820  174.3730  145.9650 F   0  0  0  0  0  0  0  0  0  0  0  0
  193.2670  174.8040  145.9280 C   0  0  0  0  0  0  0  0  0  0  0  0
  194.2700  176.9210  145.3850 O   0  0  0  0  0  0  0  0  0  0  0  0
  193.2170  176.2890  145.6700 C   0  0  0  0  0  0  0  0  0  0  0  0
  191.9820  176.9970  145.6880 N   0  0  0  0  0  2  0  0  0  0  0  0
  190.7360  176.4180  146.1610 C   0  0  0  0  0  2  0  0  0  0  0  0
  189.9470  177.4400  146.8250 N   0  0  0  0  0  0  0  0  0  0  0  0
  187.8160  176.1980  146.6190 C   0  0  0  0  0  0  0  0  0  0  0  0
  185.4180  176.8270  146.0030 C   0  0  0  0  0  2  0  0  0  0  0  0
  187.8610  176.0000  145.2470 F   0  0  0  0  0  0  0  0  0  0  0  0
  187.9270  178.3020  147.6380 O   0  0  0  0  0  0  0  0  0  0  0  0
  188.6690  177.3330  147.0140 C   0  0  0  0  0  0  0  0  0  0  0  0
  186.4330  176.6660  147.1200 C   0  0  2  0  0  3  0  0  0  0  0  0
  186.5950  177.9780  147.7860 N   0  0  2  0  0  0  0  0  0  0  0  0
  188.1960  175.0470  147.2850 F   0  0  0  0  0  0  0  0  0  0  0  0
  185.8200  178.9490  147.0170 C   0  0  0  0  0  2  0  0  0  0  0  0
  185.3950  178.3020  145.7180 C   0  0  0  0  0  2  0  0  0  0  0  0
  189.9680  172.3470  142.4150 N   0  0  0  0  0  2  0  0  0  0  0  0
  189.1330  173.3090  143.0070 N   0  0  0  0  0  2  0  0  0  0  0  0
  188.3100  173.8900  141.9550 C   0  0  0  0  0  2  0  0  0  0  0  0
  188.2850  175.3740  142.0690 C   0  0  0  0  0  0  0  0  0  0  0  0
  189.4370  176.0560  142.4660 C   0  0  0  0  0  3  0  0  0  0  0  0
  188.2670  178.1620  142.2400 C   0  0  0  0  0  3  0  0  0  0  0  0
  190.8750  178.3040  143.0320 Cl  0  0  0  0  0  0  0  0  0  0  0  0
  189.4270  177.4510  142.5490 C   0  0  0  0  0  0  0  0  0  0  0  0
  187.1070  177.4860  141.8510 C   0  0  0  0  0  0  0  0  0  0  0  0
  187.1230  176.0860  141.7620 C   0  0  0  0  0  3  0  0  0  0  0  0
  185.9570  178.2280  141.5650 O   0  0  0  0  0  0  0  0  0  0  0  0
  184.6930  177.9400  142.1480 C   0  0  0  0  0  1  0  0  0  0  0  0
  1 35  1  6  0  0  0
  1 16  1  0  0  0  0
  3  9  2  0  0  0  0
  5 11  1  0  0  0  0
  5  1  1  1  0  0  0
  6  9  1  0  0  0  0
  6  7  1  0  0  0  0
  7  8  2  0  0  0  0
  8  4  1  0  0  0  0
  8  2  1  0  0  0  0
  9 11  1  0  0  0  0
 10  3  1  0  0  0  0
 10  5  1  0  0  0  0
 11  4  2  0  0  0  0
 12  6  2  0  0  0  0
 13 19  1  0  0  0  0
 14 13  1  0  0  0  0
 14 15  2  0  0  0  0
 16 14  1  0  0  0  0
 19 18  1  0  0  0  0
 19 17  1  0  0  0  0
 20 21  2  0  0  0  0
 21 22  1  0  0  0  0
 21 19  1  0  0  0  0
 22 23  1  0  0  0  0
 23 24  1  0  0  0  0
 24 29  2  0  0  0  0
 25 29  1  0  0  0  0
 25 30  1  0  0  0  0
 25 32  1  0  0  0  0
 27 25  1  0  0  0  0
 28 31  1  0  0  0  0
 29 28  1  0  0  0  0
 30 26  1  6  0  0  0
 30 31  1  0  0  0  0
 31 33  1  6  0  0  0
 34 26  1  0  0  0  0
 34 33  1  0  0  0  0
 35 36  1  0  0  0  0
 37 38  1  0  0  0  0
 37 36  1  0  0  0  0
 38 39  1  0  0  0  0
 39 42  2  0  0  0  0
 40 42  1  0  0  0  0
 42 41  1  0  0  0  0
 43 40  2  0  0  0  0
 44 43  1  0  0  0  0
 44 38  2  0  0  0  0
 45 43  1  0  0  0  0
 45 46  1  0  0  0  0
M  END
>  <MODEL>
4

>  <REMARK>
 VINA RESULT:      -7.4      2.750      6.433
  Name = 
  11 active torsions:
  status: ('A' for Active; 'I' for Inactive)
    1  A    between atoms: N_1  and  C_19
    2  A    between atoms: N_1  and  N_30
    3  A    between atoms: N_2  and  C_11
    4  A    between atoms: N_6  and  C_29
    5  A    between atoms: C_10  and  C_19
    6  A    between atoms: C_11  and  N_42
    7  A    between atoms: C_14  and  C_29
    8  A    between atoms: O_15  and  C_41
    9  A    between atoms: C_20  and  C_35
   10  A    between atoms: N_30  and  C_35
   11  A    between atoms: N_34  and  C_35
                            x       y       z     vdW  Elec       q    Type
                         _______ _______ _______ _____ _____    ______ ____

>  <TORSDO>
F 11

$$$$
=
 OpenBabel11042414373D

 46 50  0  0  1  0  0  0  0  0999 V2000
  191.0450  176.4340  145.0300 C   0  0  2  0  0  3  0  0  0  0  0  0
  186.9060  177.6180  141.4350 N   0  0  0  0  0  1  0  0  0  0  0  0
  188.1540  176.9840  146.8290 N   0  0  0  0  0  0  0  0  0  0  0  0
  188.5100  177.6010  143.2790 C   0  0  0  0  0  2  0  0  0  0  0  0
  190.0300  177.5340  145.3950 C   0  0  2  0  0  3  0  0  0  0  0  0
  186.4330  176.9000  145.0090 C   0  0  0  0  0  0  0  0  0  0  0  0
  186.1970  177.0770  143.6780 N   0  0  0  0  0  0  0  0  0  0  0  0
  187.1990  177.4230  142.8140 C   0  0  0  0  0  0  0  0  0  0  0  0
  187.7310  177.0720  145.4870 C   0  0  0  0  0  0  0  0  0  0  0  0
  189.5750  177.3270  146.8630 C   0  0  0  0  0  3  0  0  0  0  0  0
  188.7480  177.3970  144.6390 C   0  0  0  0  0  0  0  0  0  0  0  0
  185.4910  176.5990  145.7880 O   0  0  0  0  0  0  0  0  0  0  0  0
  190.2810  174.2360  143.2490 N   0  0  0  0  0  2  0  0  0  0  0  0
  190.1330  174.1060  144.6680 C   0  0  0  0  0  0  0  0  0  0  0  0
  189.6080  173.0720  145.1640 O   0  0  0  0  0  0  0  0  0  0  0  0
  190.5840  175.1470  145.5340 N   0  0  0  0  0  2  0  0  0  0  0  0
  190.1400  172.0210  142.6080 F   0  0  0  0  0  0  0  0  0  0  0  0
  188.3430  173.3390  142.3130 F   0  0  0  0  0  0  0  0  0  0  0  0
  189.7260  173.2970  142.2720 C   0  0  0  0  0  0  0  0  0  0  0  0
  189.3910  173.7130  139.9270 O   0  0  0  0  0  0  0  0  0  0  0  0
  190.2110  173.6100  140.8790 C   0  0  0  0  0  0  0  0  0  0  0  0
  191.5900  173.8490  140.6170 N   0  0  0  0  0  2  0  0  0  0  0  0
  192.6420  173.6000  141.5880 C   0  0  0  0  0  2  0  0  0  0  0  0
  193.1900  174.8650  142.0440 N   0  0  0  0  0  0  0  0  0  0  0  0
  195.4320  174.4610  141.0750 C   0  0  0  0  0  0  0  0  0  0  0  0
  197.8310  174.8120  141.8780 C   0  0  0  0  0  2  0  0  0  0  0  0
  195.6640  173.2350  141.6790 F   0  0  0  0  0  0  0  0  0  0  0  0
  194.9290  176.4200  142.2520 O   0  0  0  0  0  0  0  0  0  0  0  0
  194.4150  175.2270  141.8160 C   0  0  0  0  0  0  0  0  0  0  0  0
  196.6440  175.4130  141.1470 C   0  0  2  0  0  3  0  0  0  0  0  0
  196.2350  176.6410  141.8660 N   0  0  2  0  0  0  0  0  0  0  0  0
  195.0460  174.2850  139.7590 F   0  0  0  0  0  0  0  0  0  0  0  0
  197.0430  176.7170  143.0800 C   0  0  0  0  0  2  0  0  0  0  0  0
  197.7650  175.4000  143.2600 C   0  0  0  0  0  2  0  0  0  0  0  0
  192.3620  176.7160  145.5860 N   0  0  0  0  0  2  0  0  0  0  0  0
  192.7820  175.5530  146.2510 N   0  0  0  0  0  2  0  0  0  0  0  0
  194.2190  175.4200  146.0480 C   0  0  0  0  0  2  0  0  0  0  0  0
  194.5590  174.0430  145.5970 C   0  0  0  0  0  0  0  0  0  0  0  0
  193.5410  173.1780  145.1910 C   0  0  0  0  0  3  0  0  0  0  0  0
  195.1860  171.4720  144.7010 C   0  0  0  0  0  3  0  0  0  0  0  0
  192.5810  170.8160  144.2190 Cl  0  0  0  0  0  0  0  0  0  0  0  0
  193.8560  171.8930  144.7410 C   0  0  0  0  0  0  0  0  0  0  0  0
  196.2100  172.3290  145.1140 C   0  0  0  0  0  0  0  0  0  0  0  0
  195.8900  173.6210  145.5590 C   0  0  0  0  0  3  0  0  0  0  0  0
  197.5300  171.8700  145.0780 O   0  0  0  0  0  0  0  0  0  0  0  0
  197.8620  170.4930  144.9790 C   0  0  0  0  0  1  0  0  0  0  0  0
  1 16  1  1  0  0  0
  1 35  1  0  0  0  0
  2  8  1  0  0  0  0
  3 10  2  0  0  0  0
  4 11  1  0  0  0  0
  5  1  1  6  0  0  0
  5 10  1  0  0  0  0
  6  9  1  0  0  0  0
  6 12  2  0  0  0  0
  7  6  1  0  0  0  0
  8  4  1  0  0  0  0
  8  7  2  0  0  0  0
  9  3  1  0  0  0  0
 11  5  1  0  0  0  0
 11  9  2  0  0  0  0
 13 14  1  0  0  0  0
 14 15  2  0  0  0  0
 14 16  1  0  0  0  0
 19 18  1  0  0  0  0
 19 17  1  0  0  0  0
 19 13  1  0  0  0  0
 20 21  2  0  0  0  0
 21 19  1  0  0  0  0
 22 21  1  0  0  0  0
 22 23  1  0  0  0  0
 23 24  1  0  0  0  0
 25 30  1  0  0  0  0
 25 27  1  0  0  0  0
 25 29  1  0  0  0  0
 26 34  1  0  0  0  0
 29 24  2  0  0  0  0
 29 28  1  0  0  0  0
 30 31  1  0  0  0  0
 30 26  1  1  0  0  0
 31 28  1  0  0  0  0
 31 33  1  1  0  0  0
 32 25  1  0  0  0  0
 33 34  1  0  0  0  0
 35 36  1  0  0  0  0
 37 36  1  0  0  0  0
 38 37  1  0  0  0  0
 39 38  2  0  0  0  0
 40 42  2  0  0  0  0
 40 43  1  0  0  0  0
 41 42  1  0  0  0  0
 42 39  1  0  0  0  0
 43 44  2  0  0  0  0
 44 38  1  0  0  0  0
 45 43  1  0  0  0  0
 46 45  1  0  0  0  0
M  END
>  <MODEL>
5

>  <REMARK>
 VINA RESULT:      -7.4      3.221      7.502
  Name = 
  11 active torsions:
  status: ('A' for Active; 'I' for Inactive)
    1  A    between atoms: N_1  and  C_19
    2  A    between atoms: N_1  and  N_30
    3  A    between atoms: N_2  and  C_11
    4  A    between atoms: N_6  and  C_29
    5  A    between atoms: C_10  and  C_19
    6  A    between atoms: C_11  and  N_42
    7  A    between atoms: C_14  and  C_29
    8  A    between atoms: O_15  and  C_41
    9  A    between atoms: C_20  and  C_35
   10  A    between atoms: N_30  and  C_35
   11  A    between atoms: N_34  and  C_35
                            x       y       z     vdW  Elec       q    Type
                         _______ _______ _______ _____ _____    ______ ____

>  <TORSDO>
F 11

$$$$
=
 OpenBabel11042414373D

 46 50  0  0  1  0  0  0  0  0999 V2000
  190.1340  174.2280  142.0420 C   0  0  2  0  0  3  0  0  0  0  0  0
  189.4860  170.2830  138.1090 N   0  0  0  0  0  1  0  0  0  0  0  0
  192.9250  174.2320  140.0150 N   0  0  0  0  0  0  0  0  0  0  0  0
  190.3050  171.7340  139.8950 C   0  0  0  0  0  3  0  0  0  0  0  0
  191.3460  173.3670  141.6400 C   0  0  2  0  0  3  0  0  0  0  0  0
  192.1200  172.8470  138.0870 C   0  0  0  0  0  0  0  0  0  0  0  0
  191.2540  171.8730  137.6900 N   0  0  0  0  0  0  0  0  0  0  0  0
  190.3590  171.3120  138.5600 C   0  0  0  0  0  0  0  0  0  0  0  0
  192.0780  173.2790  139.4120 C   0  0  0  0  0  0  0  0  0  0  0  0
  192.5710  174.2950  141.4330 C   0  0  0  0  0  2  0  0  0  0  0  0
  191.1810  172.7480  140.2900 C   0  0  0  0  0  0  0  0  0  0  0  0
  192.9460  173.3350  137.2730 O   0  0  0  0  0  0  0  0  0  0  0  0
  188.5730  176.7000  141.8260 N   0  0  0  0  0  2  0  0  0  0  0  0
  189.8700  176.7100  142.4360 C   0  0  0  0  0  0  0  0  0  0  0  0
  190.3840  177.7940  142.8250 O   0  0  0  0  0  0  0  0  0  0  0  0
  190.5890  175.4890  142.6120 N   0  0  0  0  0  2  0  0  0  0  0  0
  187.3900  178.5100  142.6360 F   0  0  0  0  0  0  0  0  0  0  0  0
  188.6370  178.7850  140.7860 F   0  0  0  0  0  0  0  0  0  0  0  0
  187.8190  177.9030  141.4710 C   0  0  0  0  0  0  0  0  0  0  0  0
  186.7530  177.1470  139.4510 O   0  0  0  0  0  0  0  0  0  0  0  0
  186.6110  177.5620  140.6330 C   0  0  0  0  0  0  0  0  0  0  0  0
  185.2960  177.6460  141.1710 N   0  0  0  0  0  2  0  0  0  0  0  0
  184.9950  178.2610  142.4530 C   0  0  0  0  0  2  0  0  0  0  0  0
  185.1520  177.2780  143.5110 N   0  0  0  0  0  0  0  0  0  0  0  0
  184.8160  178.9130  145.3390 C   0  0  0  0  0  0  0  0  0  0  0  0
  185.9400  179.3520  147.5900 C   0  0  0  0  0  2  0  0  0  0  0  0
  185.7920  179.8160  144.9470 F   0  0  0  0  0  0  0  0  0  0  0  0
  185.2290  176.6490  145.7650 O   0  0  0  0  0  0  0  0  0  0  0  0
  185.0770  177.5790  144.7700 C   0  0  0  0  0  0  0  0  0  0  0  0
  184.8410  178.6090  146.8520 C   0  0  2  0  0  3  0  0  0  0  0  0
  185.0630  177.1580  147.0360 N   0  0  2  0  0  0  0  0  0  0  0  0
  183.5630  179.3650  144.9670 F   0  0  0  0  0  0  0  0  0  0  0  0
  186.3360  177.0040  147.7380 C   0  0  0  0  0  2  0  0  0  0  0  0
  187.0410  178.3420  147.7520 C   0  0  0  0  0  2  0  0  0  0  0  0
  189.2910  173.5450  143.0140 N   0  0  0  0  0  2  0  0  0  0  0  0
  190.1490  172.9730  143.9680 N   0  0  0  0  0  2  0  0  0  0  0  0
  189.6930  173.3970  145.2850 C   0  0  0  0  0  2  0  0  0  0  0  0
  190.6580  174.3560  145.8890 C   0  0  0  0  0  0  0  0  0  0  0  0
  192.0140  174.2680  145.5670 C   0  0  0  0  0  3  0  0  0  0  0  0
  192.4730  176.1810  146.9750 C   0  0  0  0  0  3  0  0  0  0  0  0
  194.6160  175.0780  145.6950 Cl  0  0  0  0  0  0  0  0  0  0  0  0
  192.9210  175.1830  146.1100 C   0  0  0  0  0  0  0  0  0  0  0  0
  191.1190  176.2710  147.3090 C   0  0  0  0  0  0  0  0  0  0  0  0
  190.2110  175.3550  146.7570 C   0  0  0  0  0  3  0  0  0  0  0  0
  190.7060  177.2730  148.1930 O   0  0  0  0  0  0  0  0  0  0  0  0
  191.5670  177.8350  149.1740 C   0  0  0  0  0  1  0  0  0  0  0  0
  1 16  1  1  0  0  0
  1 35  1  0  0  0  0
  2  8  1  0  0  0  0
  3 10  1  0  0  0  0
  4 11  2  0  0  0  0
  5  1  1  6  0  0  0
  6  9  1  0  0  0  0
  7  6  1  0  0  0  0
  7  8  2  0  0  0  0
  8  4  1  0  0  0  0
  9  3  2  0  0  0  0
  9 11  1  0  0  0  0
 10  5  1  0  0  0  0
 11  5  1  0  0  0  0
 12  6  2  0  0  0  0
 13 14  1  0  0  0  0
 14 16  1  0  0  0  0
 14 15  2  0  0  0  0
 18 19  1  0  0  0  0
 19 13  1  0  0  0  0
 19 17  1  0  0  0  0
 20 21  2  0  0  0  0
 21 22  1  0  0  0  0
 21 19  1  0  0  0  0
 22 23  1  0  0  0  0
 23 24  1  0  0  0  0
 24 29  2  0  0  0  0
 25 30  1  0  0  0  0
 26 34  1  0  0  0  0
 27 25  1  0  0  0  0
 28 31  1  0  0  0  0
 29 25  1  0  0  0  0
 29 28  1  0  0  0  0
 30 31  1  0  0  0  0
 30 26  1  1  0  0  0
 31 33  1  1  0  0  0
 32 25  1  0  0  0  0
 33 34  1  0  0  0  0
 35 36  1  0  0  0  0
 36 37  1  0  0  0  0
 37 38  1  0  0  0  0
 38 44  1  0  0  0  0
 39 38  2  0  0  0  0
 39 42  1  0  0  0  0
 40 43  1  0  0  0  0
 41 42  1  0  0  0  0
 42 40  2  0  0  0  0
 43 45  1  0  0  0  0
 44 43  2  0  0  0  0
 45 46  1  0  0  0  0
M  END
>  <MODEL>
6

>  <REMARK>
 VINA RESULT:      -7.4      3.081      6.731
  Name = 
  11 active torsions:
  status: ('A' for Active; 'I' for Inactive)
    1  A    between atoms: N_1  and  C_19
    2  A    between atoms: N_1  and  N_30
    3  A    between atoms: N_2  and  C_11
    4  A    between atoms: N_6  and  C_29
    5  A    between atoms: C_10  and  C_19
    6  A    between atoms: C_11  and  N_42
    7  A    between atoms: C_14  and  C_29
    8  A    between atoms: O_15  and  C_41
    9  A    between atoms: C_20  and  C_35
   10  A    between atoms: N_30  and  C_35
   11  A    between atoms: N_34  and  C_35
                            x       y       z     vdW  Elec       q    Type
                         _______ _______ _______ _____ _____    ______ ____

>  <TORSDO>
F 11

$$$$
=
 OpenBabel11042414373D

 46 50  0  0  1  0  0  0  0  0999 V2000
  192.5500  173.8420  142.3380 C   0  0  2  0  0  3  0  0  0  0  0  0
  189.6580  174.9080  147.0240 N   0  0  0  0  0  1  0  0  0  0  0  0
  194.1110  176.4110  144.0290 N   0  0  0  0  0  0  0  0  0  0  0  0
  190.8760  175.0420  144.9100 C   0  0  0  0  0  3  0  0  0  0  0  0
  192.3520  175.3040  142.7780 C   0  0  2  0  0  3  0  0  0  0  0  0
  192.9890  176.2650  146.2650 C   0  0  0  0  0  0  0  0  0  0  0  0
  191.8670  175.8770  146.9350 N   0  0  0  0  0  0  0  0  0  0  0  0
  190.8200  175.2790  146.2900 C   0  0  0  0  0  0  0  0  0  0  0  0
  193.0620  176.0350  144.8920 C   0  0  0  0  0  0  0  0  0  0  0  0
  193.7100  176.0450  142.6700 C   0  0  0  0  0  2  0  0  0  0  0  0
  192.0370  175.4220  144.2350 C   0  0  0  0  0  0  0  0  0  0  0  0
  193.9330  176.8290  146.8780 O   0  0  0  0  0  0  0  0  0  0  0  0
  189.7560  174.3160  141.5880 N   0  0  0  0  0  2  0  0  0  0  0  0
  190.6910  173.8130  140.6260 C   0  0  0  0  0  0  0  0  0  0  0  0
  190.3100  173.5040  139.4650 O   0  0  0  0  0  0  0  0  0  0  0  0
  192.0680  173.6640  140.9750 N   0  0  0  0  0  2  0  0  0  0  0  0
  187.8970  173.1720  140.8320 F   0  0  0  0  0  0  0  0  0  0  0  0
  187.6660  174.5500  142.5930 F   0  0  0  0  0  0  0  0  0  0  0  0
  188.3080  174.3720  141.3790 C   0  0  0  0  0  0  0  0  0  0  0  0
  187.6940  175.2360  139.2200 O   0  0  0  0  0  0  0  0  0  0  0  0
  187.9380  175.4860  140.4310 C   0  0  0  0  0  0  0  0  0  0  0  0
  187.8010  176.8270  140.8900 N   0  0  0  0  0  2  0  0  0  0  0  0
  188.2110  177.2630  142.2140 C   0  0  0  0  0  2  0  0  0  0  0  0
  187.1710  178.0960  142.7930 N   0  0  0  0  0  0  0  0  0  0  0  0
  187.6700  177.4280  145.1240 C   0  0  0  0  0  0  0  0  0  0  0  0
  186.2590  176.8030  147.1580 C   0  0  0  0  0  2  0  0  0  0  0  0
  187.5740  176.0570  144.9360 F   0  0  0  0  0  0  0  0  0  0  0  0
  185.9580  178.9380  144.6100 O   0  0  0  0  0  0  0  0  0  0  0  0
  186.9430  178.1540  144.0680 C   0  0  0  0  0  0  0  0  0  0  0  0
  186.9410  177.9210  146.3910 C   0  0  2  0  0  3  0  0  0  0  0  0
  185.9070  178.8990  145.9880 N   0  0  2  0  0  0  0  0  0  0  0  0
  188.9960  177.8180  145.1580 F   0  0  0  0  0  0  0  0  0  0  0  0
  184.6120  178.3360  146.3620 C   0  0  0  0  0  2  0  0  0  0  0  0
  184.8140  176.8880  146.7520 C   0  0  0  0  0  2  0  0  0  0  0  0
  191.8400  172.9190  143.2150 N   0  0  0  0  0  2  0  0  0  0  0  0
  192.7400  171.8920  143.5410 N   0  0  0  0  0  2  0  0  0  0  0  0
  192.9790  171.9510  144.9770 C   0  0  0  0  0  2  0  0  0  0  0  0
  194.4400  171.9400  145.2660 C   0  0  0  0  0  0  0  0  0  0  0  0
  195.0440  170.7700  145.7290 C   0  0  0  0  0  3  0  0  0  0  0  0
  197.1880  171.8920  145.7620 C   0  0  0  0  0  3  0  0  0  0  0  0
  197.1780  169.2760  146.5420 Cl  0  0  0  0  0  0  0  0  0  0  0  0
  196.4200  170.7470  145.9750 C   0  0  0  0  0  0  0  0  0  0  0  0
  196.5890  173.0700  145.3080 C   0  0  0  0  0  0  0  0  0  0  0  0
  195.2080  173.0870  145.0550 C   0  0  0  0  0  3  0  0  0  0  0  0
  197.3840  174.2050  145.1220 O   0  0  0  0  0  0  0  0  0  0  0  0
  197.4510  174.9020  143.8860 C   0  0  0  0  0  1  0  0  0  0  0  0
  1 16  1  6  0  0  0
  1 35  1  0  0  0  0
  3  9  2  0  0  0  0
  4  8  1  0  0  0  0
  5  1  1  1  0  0  0
  5 11  1  0  0  0  0
  6 12  2  0  0  0  0
  6  7  1  0  0  0  0
  8  7  2  0  0  0  0
  8  2  1  0  0  0  0
  9  6  1  0  0  0  0
 10  5  1  0  0  0  0
 10  3  1  0  0  0  0
 11  9  1  0  0  0  0
 11  4  2  0  0  0  0
 14 16  1  0  0  0  0
 14 13  1  0  0  0  0
 15 14  2  0  0  0  0
 17 19  1  0  0  0  0
 19 13  1  0  0  0  0
 19 18  1  0  0  0  0
 20 21  2  0  0  0  0
 21 22  1  0  0  0  0
 21 19  1  0  0  0  0
 22 23  1  0  0  0  0
 23 24  1  0  0  0  0
 24 29  2  0  0  0  0
 25 32  1  0  0  0  0
 25 30  1  0  0  0  0
 27 25  1  0  0  0  0
 28 31  1  0  0  0  0
 29 28  1  0  0  0  0
 29 25  1  0  0  0  0
 30 26  1  6  0  0  0
 31 33  1  6  0  0  0
 31 30  1  0  0  0  0
 33 34  1  0  0  0  0
 34 26  1  0  0  0  0
 35 36  1  0  0  0  0
 36 37  1  0  0  0  0
 37 38  1  0  0  0  0
 38 39  1  0  0  0  0
 39 42  2  0  0  0  0
 40 42  1  0  0  0  0
 42 41  1  0  0  0  0
 43 40  2  0  0  0  0
 44 38  2  0  0  0  0
 44 43  1  0  0  0  0
 45 43  1  0  0  0  0
 46 45  1  0  0  0  0
M  END
>  <MODEL>
7

>  <REMARK>
 VINA RESULT:      -7.3      3.415      7.748
  Name = 
  11 active torsions:
  status: ('A' for Active; 'I' for Inactive)
    1  A    between atoms: N_1  and  C_19
    2  A    between atoms: N_1  and  N_30
    3  A    between atoms: N_2  and  C_11
    4  A    between atoms: N_6  and  C_29
    5  A    between atoms: C_10  and  C_19
    6  A    between atoms: C_11  and  N_42
    7  A    between atoms: C_14  and  C_29
    8  A    between atoms: O_15  and  C_41
    9  A    between atoms: C_20  and  C_35
   10  A    between atoms: N_30  and  C_35
   11  A    between atoms: N_34  and  C_35
                            x       y       z     vdW  Elec       q    Type
                         _______ _______ _______ _____ _____    ______ ____

>  <TORSDO>
F 11

$$$$
=
 OpenBabel11042414373D

 46 50  0  0  1  0  0  0  0  0999 V2000
  193.0170  172.1540  141.6460 C   0  0  2  0  0  3  0  0  0  0  0  0
  188.2150  172.7380  138.8090 N   0  0  0  0  0  1  0  0  0  0  0  0
  193.7560  173.2000  138.4430 N   0  0  0  0  0  0  0  0  0  0  0  0
  190.4700  172.1660  139.5570 C   0  0  0  0  0  3  0  0  0  0  0  0
  192.9590  171.7010  140.1760 C   0  0  2  0  0  3  0  0  0  0  0  0
  191.4940  173.9180  137.6390 C   0  0  0  0  0  0  0  0  0  0  0  0
  190.1480  173.7520  137.7790 N   0  0  0  0  0  0  0  0  0  0  0  0
  189.6260  172.8970  138.7100 C   0  0  0  0  0  0  0  0  0  0  0  0
  192.3470  173.1990  138.4750 C   0  0  0  0  0  0  0  0  0  0  0  0
  194.2160  172.2320  139.4390 C   0  0  0  0  0  2  0  0  0  0  0  0
  191.8460  172.3570  139.4230 C   0  0  0  0  0  0  0  0  0  0  0  0
  191.9520  174.6970  136.7630 O   0  0  0  0  0  0  0  0  0  0  0  0
  191.0090  173.6970  143.1210 N   0  0  0  0  0  2  0  0  0  0  0  0
  192.0260  174.3650  142.3640 C   0  0  0  0  0  0  0  0  0  0  0  0
  192.0290  175.6220  142.2660 O   0  0  0  0  0  0  0  0  0  0  0  0
  193.0500  173.6090  141.7170 N   0  0  0  0  0  2  0  0  0  0  0  0
  189.3960  173.6120  144.7720 F   0  0  0  0  0  0  0  0  0  0  0  0
  190.1980  175.6200  144.1590 F   0  0  0  0  0  0  0  0  0  0  0  0
  189.8420  174.3630  143.7010 C   0  0  0  0  0  0  0  0  0  0  0  0
  188.2410  173.4440  142.1600 O   0  0  0  0  0  0  0  0  0  0  0  0
  188.7240  174.4780  142.6950 C   0  0  0  0  0  0  0  0  0  0  0  0
  188.1560  175.7420  142.3690 N   0  0  0  0  0  2  0  0  0  0  0  0
  188.7300  177.0090  142.7900 C   0  0  0  0  0  2  0  0  0  0  0  0
  187.6640  177.9420  143.1090 N   0  0  0  0  0  0  0  0  0  0  0  0
  187.6990  177.4490  145.5340 C   0  0  0  0  0  0  0  0  0  0  0  0
  185.9130  177.0750  147.3210 C   0  0  0  0  0  2  0  0  0  0  0  0
  187.5440  176.0740  145.4340 F   0  0  0  0  0  0  0  0  0  0  0  0
  186.2110  179.0000  144.6100 O   0  0  0  0  0  0  0  0  0  0  0  0
  187.2200  178.1200  144.3140 C   0  0  0  0  0  0  0  0  0  0  0  0
  186.7940  178.0860  146.6100 C   0  0  2  0  0  3  0  0  0  0  0  0
  185.9160  179.0810  145.9550 N   0  0  2  0  0  0  0  0  0  0  0  0
  189.0220  177.7680  145.7780 F   0  0  0  0  0  0  0  0  0  0  0  0
  184.5410  178.6220  146.1300 C   0  0  0  0  0  2  0  0  0  0  0  0
  184.5720  177.2040  146.6560 C   0  0  0  0  0  2  0  0  0  0  0  0
  194.1920  171.6210  142.3230 N   0  0  0  0  0  2  0  0  0  0  0  0
  193.8360  171.4300  143.6690 N   0  0  0  0  0  2  0  0  0  0  0  0
  194.8830  172.0200  144.4920 C   0  0  0  0  0  2  0  0  0  0  0  0
  194.5340  173.4200  144.8580 C   0  0  0  0  0  0  0  0  0  0  0  0
  193.4500  173.6640  145.7040 C   0  0  0  0  0  3  0  0  0  0  0  0
  193.8980  176.0400  145.5920 C   0  0  0  0  0  3  0  0  0  0  0  0
  191.7850  175.2770  147.1420 Cl  0  0  0  0  0  0  0  0  0  0  0  0
  193.1340  174.9750  146.0710 C   0  0  0  0  0  0  0  0  0  0  0  0
  194.9790  175.8040  144.7380 C   0  0  0  0  0  0  0  0  0  0  0  0
  195.2970  174.4860  144.3760 C   0  0  0  0  0  3  0  0  0  0  0  0
  195.7130  176.8950  144.2620 O   0  0  0  0  0  0  0  0  0  0  0  0
  196.7360  176.7640  143.2850 C   0  0  0  0  0  1  0  0  0  0  0  0
  1 16  1  6  0  0  0
  1 35  1  0  0  0  0
  3  9  2  0  0  0  0
  3 10  1  0  0  0  0
  5  1  1  1  0  0  0
  6  7  1  0  0  0  0
  6  9  1  0  0  0  0
  7  8  2  0  0  0  0
  8  2  1  0  0  0  0
  8  4  1  0  0  0  0
  9 11  1  0  0  0  0
 10  5  1  0  0  0  0
 11  4  2  0  0  0  0
 11  5  1  0  0  0  0
 12  6  2  0  0  0  0
 13 19  1  0  0  0  0
 14 13  1  0  0  0  0
 15 14  2  0  0  0  0
 16 14  1  0  0  0  0
 19 18  1  0  0  0  0
 19 17  1  0  0  0  0
 20 21  2  0  0  0  0
 21 19  1  0  0  0  0
 22 21  1  0  0  0  0
 22 23  1  0  0  0  0
 23 24  1  0  0  0  0
 24 29  2  0  0  0  0
 25 32  1  0  0  0  0
 25 30  1  0  0  0  0
 27 25  1  0  0  0  0
 28 31  1  0  0  0  0
 29 28  1  0  0  0  0
 29 25  1  0  0  0  0
 30 26  1  6  0  0  0
 31 33  1  6  0  0  0
 31 30  1  0  0  0  0
 33 34  1  0  0  0  0
 34 26  1  0  0  0  0
 35 36  1  0  0  0  0
 36 37  1  0  0  0  0
 37 38  1  0  0  0  0
 38 39  1  0  0  0  0
 39 42  2  0  0  0  0
 40 42  1  0  0  0  0
 42 41  1  0  0  0  0
 43 40  2  0  0  0  0
 44 43  1  0  0  0  0
 44 38  2  0  0  0  0
 45 43  1  0  0  0  0
 46 45  1  0  0  0  0
M  END
>  <MODEL>
8

>  <REMARK>
 VINA RESULT:      -7.3      2.688      7.457
  Name = 
  11 active torsions:
  status: ('A' for Active; 'I' for Inactive)
    1  A    between atoms: N_1  and  C_19
    2  A    between atoms: N_1  and  N_30
    3  A    between atoms: N_2  and  C_11
    4  A    between atoms: N_6  and  C_29
    5  A    between atoms: C_10  and  C_19
    6  A    between atoms: C_11  and  N_42
    7  A    between atoms: C_14  and  C_29
    8  A    between atoms: O_15  and  C_41
    9  A    between atoms: C_20  and  C_35
   10  A    between atoms: N_30  and  C_35
   11  A    between atoms: N_34  and  C_35
                            x       y       z     vdW  Elec       q    Type
                         _______ _______ _______ _____ _____    ______ ____

>  <TORSDO>
F 11

$$$$
=
 OpenBabel11042414373D

 46 50  0  0  1  0  0  0  0  0999 V2000
  190.8410  173.6260  142.2290 C   0  0  2  0  0  3  0  0  0  0  0  0
  190.1950  173.9800  136.6690 N   0  0  0  0  0  1  0  0  0  0  0  0
  190.5580  170.4340  140.9520 N   0  0  0  0  0  0  0  0  0  0  0  0
  189.9960  173.4630  139.0490 C   0  0  0  0  0  2  0  0  0  0  0  0
  189.8470  172.6800  141.5310 C   0  0  2  0  0  3  0  0  0  0  0  0
  190.8690  170.8670  138.5040 C   0  0  0  0  0  0  0  0  0  0  0  0
  190.7520  171.7840  137.5020 N   0  0  0  0  0  0  0  0  0  0  0  0
  190.3230  173.0600  137.7470 C   0  0  0  0  0  0  0  0  0  0  0  0
  190.5490  171.2520  139.8040 C   0  0  0  0  0  0  0  0  0  0  0  0
  190.0650  171.2410  142.0680 C   0  0  0  0  0  3  0  0  0  0  0  0
  190.1390  172.5250  140.0720 C   0  0  0  0  0  0  0  0  0  0  0  0
  191.2490  169.6940  138.2510 O   0  0  0  0  0  0  0  0  0  0  0  0
  193.5990  173.6900  143.2210 N   0  0  0  0  0  2  0  0  0  0  0  0
  192.5700  173.0370  143.9750 C   0  0  0  0  0  0  0  0  0  0  0  0
  192.8510  172.4230  145.0400 O   0  0  0  0  0  0  0  0  0  0  0  0
  191.2150  173.0820  143.5280 N   0  0  0  0  0  2  0  0  0  0  0  0
  195.2050  173.6930  144.8800 F   0  0  0  0  0  0  0  0  0  0  0  0
  195.5040  172.3510  143.1010 F   0  0  0  0  0  0  0  0  0  0  0  0
  195.0290  173.5850  143.5140 C   0  0  0  0  0  0  0  0  0  0  0  0
  196.5070  174.4430  141.8210 O   0  0  0  0  0  0  0  0  0  0  0  0
  195.8060  174.6880  142.8390 C   0  0  0  0  0  0  0  0  0  0  0  0
  195.7230  176.0330  143.3000 N   0  0  0  0  0  2  0  0  0  0  0  0
  195.0860  176.4110  144.5500 C   0  0  0  0  0  2  0  0  0  0  0  0
  193.7120  176.8060  144.2940 N   0  0  0  0  0  0  0  0  0  0  0  0
  192.9520  176.3620  146.6080 C   0  0  0  0  0  0  0  0  0  0  0  0
  190.8950  175.2620  147.6470 C   0  0  0  0  0  2  0  0  0  0  0  0
  193.3970  175.0510  146.6880 F   0  0  0  0  0  0  0  0  0  0  0  0
  191.4910  177.1450  144.9560 O   0  0  0  0  0  0  0  0  0  0  0  0
  192.7870  176.7750  145.2030 C   0  0  0  0  0  0  0  0  0  0  0  0
  191.5210  176.5530  147.1520 C   0  0  2  0  0  3  0  0  0  0  0  0
  190.6720  177.0890  146.0640 N   0  0  2  0  0  0  0  0  0  0  0  0
  193.8260  177.2090  147.2650 F   0  0  0  0  0  0  0  0  0  0  0  0
  189.6400  176.0910  145.7950 C   0  0  0  0  0  2  0  0  0  0  0  0
  190.0030  174.8160  146.5230 C   0  0  0  0  0  2  0  0  0  0  0  0
  190.2730  174.9540  142.4180 N   0  0  0  0  0  2  0  0  0  0  0  0
  188.8770  174.8110  142.3710 N   0  0  0  0  0  2  0  0  0  0  0  0
  188.3470  175.8980  141.5570 C   0  0  0  0  0  2  0  0  0  0  0  0
  187.1760  176.5290  142.2260 C   0  0  0  0  0  0  0  0  0  0  0  0
  186.9990  176.3730  143.6020 C   0  0  0  0  0  3  0  0  0  0  0  0
  185.0110  177.7490  143.5010 C   0  0  0  0  0  3  0  0  0  0  0  0
  185.7040  176.8000  145.9650 Cl  0  0  0  0  0  0  0  0  0  0  0  0
  185.9160  176.9860  144.2390 C   0  0  0  0  0  0  0  0  0  0  0  0
  185.1770  177.9030  142.1220 C   0  0  0  0  0  0  0  0  0  0  0  0
  186.2690  177.2910  141.4870 C   0  0  0  0  0  3  0  0  0  0  0  0
  184.2420  178.6600  141.4100 O   0  0  0  0  0  0  0  0  0  0  0  0
  183.2950  178.0770  140.5250 C   0  0  0  0  0  1  0  0  0  0  0  0
  1 35  1  1  0  0  0
  1 16  1  0  0  0  0
  2  8  1  0  0  0  0
  3 10  2  0  0  0  0
  4 11  1  0  0  0  0
  5 10  1  0  0  0  0
  5  1  1  1  0  0  0
  6  9  1  0  0  0  0
  7  8  2  0  0  0  0
  7  6  1  0  0  0  0
  8  4  1  0  0  0  0
  9 11  2  0  0  0  0
  9  3  1  0  0  0  0
 11  5  1  0  0  0  0
 12  6  2  0  0  0  0
 13 19  1  0  0  0  0
 13 14  1  0  0  0  0
 14 15  2  0  0  0  0
 16 14  1  0  0  0  0
 18 19  1  0  0  0  0
 19 17  1  0  0  0  0
 20 21  2  0  0  0  0
 21 22  1  0  0  0  0
 21 19  1  0  0  0  0
 22 23  1  0  0  0  0
 24 23  1  0  0  0  0
 24 29  2  0  0  0  0
 25 27  1  0  0  0  0
 25 30  1  0  0  0  0
 25 32  1  0  0  0  0
 28 29  1  0  0  0  0
 28 31  1  0  0  0  0
 29 25  1  0  0  0  0
 30 26  1  6  0  0  0
 31 33  1  6  0  0  0
 31 30  1  0  0  0  0
 33 34  1  0  0  0  0
 34 26  1  0  0  0  0
 36 35  1  0  0  0  0
 37 38  1  0  0  0  0
 37 36  1  0  0  0  0
 38 39  1  0  0  0  0
 39 42  2  0  0  0  0
 40 42  1  0  0  0  0
 42 41  1  0  0  0  0
 43 40  2  0  0  0  0
 44 43  1  0  0  0  0
 44 38  2  0  0  0  0
 45 43  1  0  0  0  0
 46 45  1  0  0  0  0
M  END
>  <MODEL>
9

>  <REMARK>
 VINA RESULT:      -7.3      2.918      6.559
  Name = 
  11 active torsions:
  status: ('A' for Active; 'I' for Inactive)
    1  A    between atoms: N_1  and  C_19
    2  A    between atoms: N_1  and  N_30
    3  A    between atoms: N_2  and  C_11
    4  A    between atoms: N_6  and  C_29
    5  A    between atoms: C_10  and  C_19
    6  A    between atoms: C_11  and  N_42
    7  A    between atoms: C_14  and  C_29
    8  A    between atoms: O_15  and  C_41
    9  A    between atoms: C_20  and  C_35
   10  A    between atoms: N_30  and  C_35
   11  A    between atoms: N_34  and  C_35
                            x       y       z     vdW  Elec       q    Type
                         _______ _______ _______ _____ _____    ______ ____

>  <TORSDO>
F 11

$$$$
