=
 OpenBabel11042417223D

 26 28  0  0  1  0  0  0  0  0999 V2000
  189.3550  176.2780  146.5650 N   0  0  0  0  0  0  0  0  0  0  0  0
  189.3730  175.0220  147.3040 C   0  0  0  0  0  1  0  0  0  0  0  0
  187.5900  177.6230  145.5360 C   0  0  2  0  0  3  0  0  0  0  0  0
  188.2360  176.2410  145.6230 C   0  0  2  0  0  3  0  0  0  0  0  0
  186.9420  176.5180  146.3560 C   0  0  0  0  0  2  0  0  0  0  0  0
  187.5790  177.9340  143.0170 C   0  0  0  0  0  0  0  0  0  0  0  0
  184.7910  178.1520  142.9870 C   0  0  0  0  0  3  0  0  0  0  0  0
  185.4540  177.9510  144.2000 C   0  0  0  0  0  0  0  0  0  0  0  0
  184.8410  178.4260  140.5940 O   0  0  0  0  0  1  0  0  0  0  0  0
  185.5090  178.2340  141.7950 C   0  0  0  0  0  0  0  0  0  0  0  0
  188.9670  177.8720  143.0000 O   0  0  0  0  0  1  0  0  0  0  0  0
  186.9000  178.1330  141.8120 C   0  0  0  0  0  3  0  0  0  0  0  0
  184.6890  177.9110  145.4020 N   0  0  0  0  0  1  0  0  0  0  0  0
  186.8600  177.8060  144.2260 C   0  0  0  0  0  0  0  0  0  0  0  0
  190.6440  176.4170  145.8680 C   0  0  2  0  0  3  0  0  0  0  0  0
  190.7530  175.4530  144.8620 O   0  0  0  0  0  1  0  0  0  0  0  0
  191.8580  176.3610  146.8030 C   0  0  0  0  0  2  0  0  0  0  0  0
  193.6040  174.6880  146.1870 N   0  0  0  0  0  0  0  0  0  0  0  0
  195.8420  176.4420  143.8820 C   0  0  0  0  0  1  0  0  0  0  0  0
  194.6880  174.7290  145.3900 C   0  0  1  0  0  3  0  0  0  0  0  0
  193.7660  176.7440  145.2410 N   0  0  0  0  0  0  0  0  0  0  0  0
  194.7840  175.9760  144.8190 C   0  0  0  0  0  0  0  0  0  0  0  0
  193.0730  175.9230  146.0610 C   0  0  0  0  0  0  0  0  0  0  0  0
  194.9200  172.2670  145.3880 C   0  0  0  0  0  1  0  0  0  0  0  0
  196.8030  173.6950  146.1450 C   0  0  0  0  0  1  0  0  0  0  0  0
  195.6340  173.5900  145.1860 C   0  0  0  0  0  3  0  0  0  0  0  0
  1  2  1  0  0  0  0
  3 14  1  6  0  0  0
  3  4  1  0  0  0  0
  3  5  1  0  0  0  0
  4  5  1  0  0  0  0
  4  1  1  1  0  0  0
  6 14  1  0  0  0  0
  7  8  1  0  0  0  0
  8 14  2  0  0  0  0
  8 13  1  0  0  0  0
  9 10  1  0  0  0  0
 10 12  1  0  0  0  0
 10  7  2  0  0  0  0
 11  6  1  0  0  0  0
 12  6  2  0  0  0  0
 15 16  1  6  0  0  0
 15  1  1  0  0  0  0
 15 17  1  0  0  0  0
 19 22  1  0  0  0  0
 20 26  1  1  0  0  0
 20 18  1  0  0  0  0
 21 23  1  0  0  0  0
 22 21  2  0  0  0  0
 22 20  1  0  0  0  0
 23 18  2  0  0  0  0
 23 17  1  0  0  0  0
 26 24  1  0  0  0  0
 26 25  1  0  0  0  0
M  END
>  <MODEL>
1

>  <REMARK>
 VINA RESULT:      -6.9      0.000      0.000
  Name = 
  6 active torsions:
  status: ('A' for Active; 'I' for Inactive)
    1  A    between atoms: N_7  and  C_14
    2  A    between atoms: N_7  and  C_23
    3  A    between atoms: C_10  and  C_21
    4  A    between atoms: C_11  and  C_26
    5  A    between atoms: C_14  and  C_24
    6  A    between atoms: C_17  and  C_24
                            x       y       z     vdW  Elec       q    Type
                         _______ _______ _______ _____ _____    ______ ____

>  <TORSDO>
F 6

$$$$
=
 OpenBabel11042417223D

 26 28  0  0  1  0  0  0  0  0999 V2000
  189.0520  176.3320  146.4470 N   0  0  0  0  0  0  0  0  0  0  0  0
  189.0000  175.0950  147.2170 C   0  0  0  0  0  1  0  0  0  0  0  0
  187.3270  177.7540  145.4560 C   0  0  2  0  0  3  0  0  0  0  0  0
  187.9150  176.3460  145.5250 C   0  0  2  0  0  3  0  0  0  0  0  0
  186.6480  176.6750  146.2830 C   0  0  0  0  0  2  0  0  0  0  0  0
  185.1740  178.0700  144.1480 C   0  0  0  0  0  0  0  0  0  0  0  0
  186.5760  178.1620  141.7290 C   0  0  0  0  0  3  0  0  0  0  0  0
  187.2760  177.9900  142.9270 C   0  0  0  0  0  0  0  0  0  0  0  0
  184.5030  178.4770  140.5440 O   0  0  0  0  0  1  0  0  0  0  0  0
  185.1880  178.2980  141.7360 C   0  0  0  0  0  0  0  0  0  0  0  0
  184.4420  177.9870  145.3260 O   0  0  0  0  0  1  0  0  0  0  0  0
  184.4900  178.2440  142.9420 C   0  0  0  0  0  3  0  0  0  0  0  0
  188.6900  177.8170  142.8770 N   0  0  0  0  0  1  0  0  0  0  0  0
  186.5830  177.9750  144.1590 C   0  0  0  0  0  0  0  0  0  0  0  0
  190.3340  176.3680  145.7250 C   0  0  2  0  0  3  0  0  0  0  0  0
  190.3940  175.3220  144.8000 O   0  0  0  0  0  1  0  0  0  0  0  0
  191.5600  176.3450  146.6470 C   0  0  0  0  0  2  0  0  0  0  0  0
  193.3410  174.6730  146.1390 N   0  0  0  0  0  0  0  0  0  0  0  0
  195.4380  176.2520  143.5870 C   0  0  0  0  0  1  0  0  0  0  0  0
  194.3960  174.6670  145.3020 C   0  0  1  0  0  3  0  0  0  0  0  0
  193.3990  176.6250  144.9850 N   0  0  0  0  0  0  0  0  0  0  0  0
  194.4290  175.8510  144.6050 C   0  0  0  0  0  0  0  0  0  0  0  0
  192.7640  175.8720  145.9080 C   0  0  0  0  0  0  0  0  0  0  0  0
  194.7150  172.2270  145.5450 C   0  0  0  0  0  1  0  0  0  0  0  0
  196.5720  173.7840  146.0750 C   0  0  0  0  0  1  0  0  0  0  0  0
  195.3730  173.5430  145.1790 C   0  0  0  0  0  3  0  0  0  0  0  0
  1  2  1  0  0  0  0
  3 14  1  6  0  0  0
  3  4  1  0  0  0  0
  3  5  1  0  0  0  0
  4  5  1  0  0  0  0
  4  1  1  1  0  0  0
  6 14  1  0  0  0  0
  6 11  1  0  0  0  0
  7 10  2  0  0  0  0
  7  8  1  0  0  0  0
  8 14  2  0  0  0  0
  9 10  1  0  0  0  0
 10 12  1  0  0  0  0
 12  6  2  0  0  0  0
 13  8  1  0  0  0  0
 15 16  1  6  0  0  0
 15  1  1  0  0  0  0
 15 17  1  0  0  0  0
 19 22  1  0  0  0  0
 20 26  1  1  0  0  0
 20 18  1  0  0  0  0
 21 23  1  0  0  0  0
 22 21  2  0  0  0  0
 22 20  1  0  0  0  0
 23 18  2  0  0  0  0
 23 17  1  0  0  0  0
 26 24  1  0  0  0  0
 26 25  1  0  0  0  0
M  END
>  <MODEL>
2

>  <REMARK>
 VINA RESULT:      -6.8      1.272      1.695
  Name = 
  6 active torsions:
  status: ('A' for Active; 'I' for Inactive)
    1  A    between atoms: N_7  and  C_14
    2  A    between atoms: N_7  and  C_23
    3  A    between atoms: C_10  and  C_21
    4  A    between atoms: C_11  and  C_26
    5  A    between atoms: C_14  and  C_24
    6  A    between atoms: C_17  and  C_24
                            x       y       z     vdW  Elec       q    Type
                         _______ _______ _______ _____ _____    ______ ____

>  <TORSDO>
F 6

$$$$
=
 OpenBabel11042417223D

 26 28  0  0  1  0  0  0  0  0999 V2000
  191.2040  176.4220  144.2020 N   0  0  0  0  0  0  0  0  0  0  0  0
  191.9140  177.1060  143.1280 C   0  0  0  0  0  1  0  0  0  0  0  0
  188.7730  176.6950  144.2060 C   0  0  2  0  0  3  0  0  0  0  0  0
  190.1100  177.2850  144.6520 C   0  0  2  0  0  3  0  0  0  0  0  0
  189.3910  177.8630  143.4530 C   0  0  0  0  0  2  0  0  0  0  0  0
  187.4750  176.6450  146.3870 C   0  0  0  0  0  0  0  0  0  0  0  0
  185.6170  178.4900  145.4010 C   0  0  0  0  0  3  0  0  0  0  0  0
  186.6780  178.0790  144.5910 C   0  0  0  0  0  0  0  0  0  0  0  0
  184.4350  178.4140  147.4990 O   0  0  0  0  0  1  0  0  0  0  0  0
  185.4870  177.9940  146.6980 C   0  0  0  0  0  0  0  0  0  0  0  0
  188.3540  175.6960  146.8930 O   0  0  0  0  0  1  0  0  0  0  0  0
  186.4090  177.0680  147.1850 C   0  0  0  0  0  3  0  0  0  0  0  0
  186.7560  178.5780  143.2570 N   0  0  0  0  0  1  0  0  0  0  0  0
  187.6430  177.1720  145.0870 C   0  0  0  0  0  0  0  0  0  0  0  0
  192.1620  176.1560  145.2860 C   0  0  2  0  0  3  0  0  0  0  0  0
  191.5480  176.3410  146.5280 O   0  0  0  0  0  1  0  0  0  0  0  0
  193.4470  176.9880  145.1910 C   0  0  0  0  0  2  0  0  0  0  0  0
  195.4260  176.0600  143.9850 N   0  0  0  0  0  0  0  0  0  0  0  0
  196.8490  173.5670  146.2570 C   0  0  0  0  0  1  0  0  0  0  0  0
  196.3420  175.1220  144.2910 C   0  0  1  0  0  3  0  0  0  0  0  0
  195.0000  175.2380  146.0570 N   0  0  0  0  0  0  0  0  0  0  0  0
  196.0810  174.6250  145.5460 C   0  0  0  0  0  0  0  0  0  0  0  0
  194.6400  176.1020  145.0830 C   0  0  0  0  0  0  0  0  0  0  0  0
  197.9410  175.8650  142.5580 C   0  0  0  0  0  1  0  0  0  0  0  0
  196.9840  173.5780  142.4710 C   0  0  0  0  0  1  0  0  0  0  0  0
  197.4500  174.6930  143.3850 C   0  0  0  0  0  3  0  0  0  0  0  0
  1 15  1  0  0  0  0
  2  1  1  0  0  0  0
  3  4  1  0  0  0  0
  3 14  1  1  0  0  0
  4  1  1  6  0  0  0
  5  3  1  0  0  0  0
  5  4  1  0  0  0  0
  6 11  1  0  0  0  0
  6 12  1  0  0  0  0
  7 10  1  0  0  0  0
  8 14  1  0  0  0  0
  8  7  2  0  0  0  0
 10 12  2  0  0  0  0
 10  9  1  0  0  0  0
 13  8  1  0  0  0  0
 14  6  2  0  0  0  0
 15 16  1  1  0  0  0
 17 15  1  0  0  0  0
 18 20  1  0  0  0  0
 18 23  2  0  0  0  0
 20 26  1  6  0  0  0
 20 22  1  0  0  0  0
 22 21  2  0  0  0  0
 22 19  1  0  0  0  0
 23 17  1  0  0  0  0
 23 21  1  0  0  0  0
 24 26  1  0  0  0  0
 25 26  1  0  0  0  0
M  END
>  <MODEL>
3

>  <REMARK>
 VINA RESULT:      -6.7      2.427      3.523
  Name = 
  6 active torsions:
  status: ('A' for Active; 'I' for Inactive)
    1  A    between atoms: N_7  and  C_14
    2  A    between atoms: N_7  and  C_23
    3  A    between atoms: C_10  and  C_21
    4  A    between atoms: C_11  and  C_26
    5  A    between atoms: C_14  and  C_24
    6  A    between atoms: C_17  and  C_24
                            x       y       z     vdW  Elec       q    Type
                         _______ _______ _______ _____ _____    ______ ____

>  <TORSDO>
F 6

$$$$
=
 OpenBabel11042417223D

 26 28  0  0  1  0  0  0  0  0999 V2000
  189.0290  177.2010  145.8330 N   0  0  0  0  0  0  0  0  0  0  0  0
  189.0870  176.1970  146.8880 C   0  0  0  0  0  1  0  0  0  0  0  0
  186.9900  178.1950  144.9180 C   0  0  2  0  0  3  0  0  0  0  0  0
  187.8480  176.9350  145.0100 C   0  0  2  0  0  3  0  0  0  0  0  0
  186.5990  177.0640  145.8540 C   0  0  0  0  0  2  0  0  0  0  0  0
  186.7110  178.1300  142.3950 C   0  0  0  0  0  0  0  0  0  0  0  0
  183.9320  178.3330  142.6280 C   0  0  0  0  0  3  0  0  0  0  0  0
  184.7210  178.3150  143.7810 C   0  0  0  0  0  0  0  0  0  0  0  0
  183.7280  178.2490  140.2300 O   0  0  0  0  0  1  0  0  0  0  0  0
  184.5200  178.2390  141.3680 C   0  0  0  0  0  0  0  0  0  0  0  0
  188.0910  178.0710  142.2410 O   0  0  0  0  0  1  0  0  0  0  0  0
  185.9070  178.1470  141.2530 C   0  0  0  0  0  3  0  0  0  0  0  0
  184.0870  178.4510  145.0500 N   0  0  0  0  0  1  0  0  0  0  0  0
  186.1250  178.1800  143.6790 C   0  0  0  0  0  0  0  0  0  0  0  0
  190.2680  177.1080  145.0450 C   0  0  2  0  0  3  0  0  0  0  0  0
  190.4810  178.2970  144.3420 O   0  0  0  0  0  1  0  0  0  0  0  0
  190.3040  175.9050  144.0940 C   0  0  0  0  0  2  0  0  0  0  0  0
  192.7830  175.6560  144.2370 N   0  0  0  0  0  0  0  0  0  0  0  0
  193.3550  172.0900  144.8340 C   0  0  0  0  0  1  0  0  0  0  0  0
  193.6000  174.6040  144.4350 C   0  0  1  0  0  3  0  0  0  0  0  0
  191.5390  173.7780  144.5110 N   0  0  0  0  0  0  0  0  0  0  0  0
  192.8430  173.4670  144.6000 C   0  0  0  0  0  0  0  0  0  0  0  0
  191.5490  175.1120  144.2980 C   0  0  0  0  0  0  0  0  0  0  0  0
  195.5990  174.7860  145.8790 C   0  0  0  0  0  1  0  0  0  0  0  0
  195.5690  175.8730  143.6490 C   0  0  0  0  0  1  0  0  0  0  0  0
  195.0920  174.6810  144.4540 C   0  0  0  0  0  3  0  0  0  0  0  0
  1  2  1  0  0  0  0
  3 14  1  6  0  0  0
  3  4  1  0  0  0  0
  3  5  1  0  0  0  0
  4  1  1  1  0  0  0
  4  5  1  0  0  0  0
  6 14  1  0  0  0  0
  7  8  1  0  0  0  0
  8 13  1  0  0  0  0
  9 10  1  0  0  0  0
 10  7  2  0  0  0  0
 11  6  1  0  0  0  0
 12 10  1  0  0  0  0
 12  6  2  0  0  0  0
 14  8  2  0  0  0  0
 15 16  1  6  0  0  0
 15  1  1  0  0  0  0
 17 23  1  0  0  0  0
 17 15  1  0  0  0  0
 18 23  2  0  0  0  0
 18 20  1  0  0  0  0
 20 26  1  6  0  0  0
 20 22  1  0  0  0  0
 21 22  2  0  0  0  0
 22 19  1  0  0  0  0
 23 21  1  0  0  0  0
 25 26  1  0  0  0  0
 26 24  1  0  0  0  0
M  END
>  <MODEL>
4

>  <REMARK>
 VINA RESULT:      -6.7      1.431      2.158
  Name = 
  6 active torsions:
  status: ('A' for Active; 'I' for Inactive)
    1  A    between atoms: N_7  and  C_14
    2  A    between atoms: N_7  and  C_23
    3  A    between atoms: C_10  and  C_21
    4  A    between atoms: C_11  and  C_26
    5  A    between atoms: C_14  and  C_24
    6  A    between atoms: C_17  and  C_24
                            x       y       z     vdW  Elec       q    Type
                         _______ _______ _______ _____ _____    ______ ____

>  <TORSDO>
F 6

$$$$
=
 OpenBabel11042417223D

 26 28  0  0  1  0  0  0  0  0999 V2000
  190.3920  174.8890  145.8410 N   0  0  0  0  0  0  0  0  0  0  0  0
  190.0130  175.2700  147.1960 C   0  0  0  0  0  1  0  0  0  0  0  0
  192.6980  174.5490  145.0980 C   0  0  2  0  0  3  0  0  0  0  0  0
  191.6410  175.5750  145.5040 C   0  0  2  0  0  3  0  0  0  0  0  0
  192.7220  175.1750  146.4840 C   0  0  0  0  0  2  0  0  0  0  0  0
  193.4440  175.5810  142.9020 C   0  0  0  0  0  0  0  0  0  0  0  0
  196.0750  175.8090  143.8260 C   0  0  0  0  0  3  0  0  0  0  0  0
  195.0960  175.2620  144.6590 C   0  0  0  0  0  0  0  0  0  0  0  0
  196.7220  176.8000  141.7270 O   0  0  0  0  0  1  0  0  0  0  0  0
  195.7450  176.2500  142.5450 C   0  0  0  0  0  0  0  0  0  0  0  0
  192.1580  175.4440  142.3960 O   0  0  0  0  0  1  0  0  0  0  0  0
  194.4350  176.1280  142.0830 C   0  0  0  0  0  3  0  0  0  0  0  0
  195.4790  174.7880  145.9480 N   0  0  0  0  0  1  0  0  0  0  0  0
  193.7560  175.1710  144.2180 C   0  0  0  0  0  0  0  0  0  0  0  0
  189.3010  175.2790  144.9340 C   0  0  2  0  0  3  0  0  0  0  0  0
  189.1850  174.3520  143.8950 O   0  0  0  0  0  1  0  0  0  0  0  0
  189.4420  176.7010  144.3770 C   0  0  0  0  0  2  0  0  0  0  0  0
  187.5990  177.6950  145.7350 N   0  0  0  0  0  0  0  0  0  0  0  0
  185.2900  179.1510  143.2970 C   0  0  0  0  0  1  0  0  0  0  0  0
  186.4700  178.3570  145.4220 C   0  0  1  0  0  3  0  0  0  0  0  0
  187.4570  177.9180  143.4820 N   0  0  0  0  0  0  0  0  0  0  0  0
  186.3860  178.4900  144.0560 C   0  0  0  0  0  0  0  0  0  0  0  0
  188.1670  177.4560  144.5330 C   0  0  0  0  0  0  0  0  0  0  0  0
  186.1210  179.0200  147.7780 C   0  0  0  0  0  1  0  0  0  0  0  0
  184.3100  177.8790  146.5250 C   0  0  0  0  0  1  0  0  0  0  0  0
  185.4710  178.8470  146.4190 C   0  0  0  0  0  3  0  0  0  0  0  0
  1  2  1  0  0  0  0
  3 14  1  6  0  0  0
  3  4  1  0  0  0  0
  3  5  1  0  0  0  0
  4  1  1  1  0  0  0
  4  5  1  0  0  0  0
  6 14  1  0  0  0  0
  7  8  1  0  0  0  0
  8 13  1  0  0  0  0
  9 10  1  0  0  0  0
 10  7  2  0  0  0  0
 11  6  1  0  0  0  0
 12 10  1  0  0  0  0
 12  6  2  0  0  0  0
 14  8  2  0  0  0  0
 15 16  1  6  0  0  0
 15  1  1  0  0  0  0
 17 23  1  0  0  0  0
 17 15  1  0  0  0  0
 19 22  1  0  0  0  0
 20 18  1  0  0  0  0
 20 26  1  6  0  0  0
 21 22  2  0  0  0  0
 21 23  1  0  0  0  0
 22 20  1  0  0  0  0
 23 18  2  0  0  0  0
 26 25  1  0  0  0  0
 26 24  1  0  0  0  0
M  END
>  <MODEL>
5

>  <REMARK>
 VINA RESULT:      -6.7      2.309      8.144
  Name = 
  6 active torsions:
  status: ('A' for Active; 'I' for Inactive)
    1  A    between atoms: N_7  and  C_14
    2  A    between atoms: N_7  and  C_23
    3  A    between atoms: C_10  and  C_21
    4  A    between atoms: C_11  and  C_26
    5  A    between atoms: C_14  and  C_24
    6  A    between atoms: C_17  and  C_24
                            x       y       z     vdW  Elec       q    Type
                         _______ _______ _______ _____ _____    ______ ____

>  <TORSDO>
F 6

$$$$
=
 OpenBabel11042417223D

 26 28  0  0  1  0  0  0  0  0999 V2000
  188.1070  174.7230  141.8610 N   0  0  0  0  0  0  0  0  0  0  0  0
  188.2210  175.0000  140.4350 C   0  0  0  0  0  1  0  0  0  0  0  0
  186.4230  175.9940  143.0980 C   0  0  2  0  0  3  0  0  0  0  0  0
  187.8510  175.9850  142.5560 C   0  0  2  0  0  3  0  0  0  0  0  0
  186.7710  176.7570  141.8300 C   0  0  0  0  0  2  0  0  0  0  0  0
  187.1240  176.8170  145.3950 C   0  0  0  0  0  0  0  0  0  0  0  0
  185.1120  178.7610  145.3870 C   0  0  0  0  0  3  0  0  0  0  0  0
  185.2530  177.9090  144.2890 C   0  0  0  0  0  0  0  0  0  0  0  0
  185.8330  179.5100  147.5600 O   0  0  0  0  0  1  0  0  0  0  0  0
  185.9740  178.6540  146.4780 C   0  0  0  0  0  0  0  0  0  0  0  0
  188.1050  175.8360  145.4510 O   0  0  0  0  0  1  0  0  0  0  0  0
  186.9710  177.6790  146.4840 C   0  0  0  0  0  3  0  0  0  0  0  0
  184.3290  178.0230  143.2090 N   0  0  0  0  0  1  0  0  0  0  0  0
  186.2850  176.9430  144.2650 C   0  0  0  0  0  0  0  0  0  0  0  0
  189.3660  174.1060  142.3090 C   0  0  2  0  0  3  0  0  0  0  0  0
  189.1770  173.4590  143.5330 O   0  0  0  0  0  1  0  0  0  0  0  0
  190.5380  175.0920  142.3950 C   0  0  0  0  0  2  0  0  0  0  0  0
  191.3990  175.5830  144.6860 N   0  0  0  0  0  0  0  0  0  0  0  0
  193.8520  172.9540  145.3700 C   0  0  0  0  0  1  0  0  0  0  0  0
  192.3080  174.9890  145.4810 C   0  0  1  0  0  3  0  0  0  0  0  0
  192.2400  173.7560  143.6360 N   0  0  0  0  0  0  0  0  0  0  0  0
  192.8170  173.8830  144.8420 C   0  0  0  0  0  0  0  0  0  0  0  0
  191.3850  174.8000  143.5850 C   0  0  0  0  0  0  0  0  0  0  0  0
  191.4840  176.0100  147.5780 C   0  0  0  0  0  1  0  0  0  0  0  0
  193.7430  176.5740  146.7210 C   0  0  0  0  0  1  0  0  0  0  0  0
  192.6980  175.4830  146.8370 C   0  0  0  0  0  3  0  0  0  0  0  0
  1 15  1  0  0  0  0
  2  1  1  0  0  0  0
  3 14  1  1  0  0  0
  4  1  1  6  0  0  0
  4  3  1  0  0  0  0
  5  4  1  0  0  0  0
  5  3  1  0  0  0  0
  6 11  1  0  0  0  0
  6 12  1  0  0  0  0
  7 10  1  0  0  0  0
  8  7  2  0  0  0  0
 10 12  2  0  0  0  0
 10  9  1  0  0  0  0
 13  8  1  0  0  0  0
 14  8  1  0  0  0  0
 14  6  2  0  0  0  0
 15 17  1  0  0  0  0
 15 16  1  1  0  0  0
 17 23  1  0  0  0  0
 18 20  1  0  0  0  0
 20 26  1  6  0  0  0
 21 22  2  0  0  0  0
 22 19  1  0  0  0  0
 22 20  1  0  0  0  0
 23 21  1  0  0  0  0
 23 18  2  0  0  0  0
 25 26  1  0  0  0  0
 26 24  1  0  0  0  0
M  END
>  <MODEL>
6

>  <REMARK>
 VINA RESULT:      -6.7      2.638      4.013
  Name = 
  6 active torsions:
  status: ('A' for Active; 'I' for Inactive)
    1  A    between atoms: N_7  and  C_14
    2  A    between atoms: N_7  and  C_23
    3  A    between atoms: C_10  and  C_21
    4  A    between atoms: C_11  and  C_26
    5  A    between atoms: C_14  and  C_24
    6  A    between atoms: C_17  and  C_24
                            x       y       z     vdW  Elec       q    Type
                         _______ _______ _______ _____ _____    ______ ____

>  <TORSDO>
F 6

$$$$
=
 OpenBabel11042417223D

 26 28  0  0  1  0  0  0  0  0999 V2000
  190.6300  175.8360  147.3250 N   0  0  0  0  0  0  0  0  0  0  0  0
  190.6390  177.2260  147.7660 C   0  0  0  0  0  1  0  0  0  0  0  0
  192.6540  174.6860  146.5730 C   0  0  2  0  0  3  0  0  0  0  0  0
  191.5720  175.7020  146.2120 C   0  0  2  0  0  3  0  0  0  0  0  0
  192.9420  176.1770  146.6430 C   0  0  0  0  0  2  0  0  0  0  0  0
  192.5250  173.2310  144.4970 C   0  0  0  0  0  0  0  0  0  0  0  0
  195.2210  173.6970  143.9190 C   0  0  0  0  0  3  0  0  0  0  0  0
  194.6460  174.2850  145.0490 C   0  0  0  0  0  0  0  0  0  0  0  0
  195.0340  172.3190  141.9520 O   0  0  0  0  0  1  0  0  0  0  0  0
  194.4570  172.8920  143.0760 C   0  0  0  0  0  0  0  0  0  0  0  0
  191.1950  172.9430  144.7770 O   0  0  0  0  0  1  0  0  0  0  0  0
  193.1150  172.6530  143.3700 C   0  0  0  0  0  3  0  0  0  0  0  0
  195.4680  175.0710  145.9080 N   0  0  0  0  0  1  0  0  0  0  0  0
  193.2760  174.0840  145.3350 C   0  0  0  0  0  0  0  0  0  0  0  0
  189.2590  175.4950  146.9160 C   0  0  2  0  0  3  0  0  0  0  0  0
  188.9390  174.2010  147.3360 O   0  0  0  0  0  1  0  0  0  0  0  0
  189.0080  175.6510  145.4110 C   0  0  0  0  0  2  0  0  0  0  0  0
  187.2770  177.2990  146.1310 N   0  0  0  0  0  0  0  0  0  0  0  0
  186.1450  178.9090  143.0440 C   0  0  0  0  0  1  0  0  0  0  0  0
  186.5020  178.1780  145.4690 C   0  0  1  0  0  3  0  0  0  0  0  0
  187.7420  177.1920  143.9120 N   0  0  0  0  0  0  0  0  0  0  0  0
  186.7850  178.1110  144.1250 C   0  0  0  0  0  0  0  0  0  0  0  0
  188.0150  176.7310  145.1520 C   0  0  0  0  0  0  0  0  0  0  0  0
  185.8580  179.3280  147.5610 C   0  0  0  0  0  1  0  0  0  0  0  0
  184.1110  178.4370  146.0410 C   0  0  0  0  0  1  0  0  0  0  0  0
  185.4880  179.0660  146.1140 C   0  0  0  0  0  3  0  0  0  0  0  0
  1  2  1  0  0  0  0
  3 14  1  6  0  0  0
  3  5  1  0  0  0  0
  4  3  1  0  0  0  0
  4  5  1  0  0  0  0
  4  1  1  1  0  0  0
  6 11  1  0  0  0  0
  6 14  1  0  0  0  0
  7  8  1  0  0  0  0
  8 14  2  0  0  0  0
  8 13  1  0  0  0  0
  9 10  1  0  0  0  0
 10 12  1  0  0  0  0
 10  7  2  0  0  0  0
 12  6  2  0  0  0  0
 15  1  1  0  0  0  0
 15 16  1  6  0  0  0
 17 15  1  0  0  0  0
 19 22  1  0  0  0  0
 20 26  1  6  0  0  0
 20 18  1  0  0  0  0
 21 22  2  0  0  0  0
 21 23  1  0  0  0  0
 22 20  1  0  0  0  0
 23 17  1  0  0  0  0
 23 18  2  0  0  0  0
 25 26  1  0  0  0  0
 26 24  1  0  0  0  0
M  END
>  <MODEL>
7

>  <REMARK>
 VINA RESULT:      -6.7      2.632      8.198
  Name = 
  6 active torsions:
  status: ('A' for Active; 'I' for Inactive)
    1  A    between atoms: N_7  and  C_14
    2  A    between atoms: N_7  and  C_23
    3  A    between atoms: C_10  and  C_21
    4  A    between atoms: C_11  and  C_26
    5  A    between atoms: C_14  and  C_24
    6  A    between atoms: C_17  and  C_24
                            x       y       z     vdW  Elec       q    Type
                         _______ _______ _______ _____ _____    ______ ____

>  <TORSDO>
F 6

$$$$
=
 OpenBabel11042417223D

 26 28  0  0  1  0  0  0  0  0999 V2000
  189.4770  176.1180  146.3530 N   0  0  0  0  0  0  0  0  0  0  0  0
  189.3130  174.9970  147.2700 C   0  0  0  0  0  1  0  0  0  0  0  0
  187.7550  177.5400  145.3560 C   0  0  2  0  0  3  0  0  0  0  0  0
  188.3370  176.1300  145.4350 C   0  0  2  0  0  3  0  0  0  0  0  0
  187.0740  176.4710  146.1950 C   0  0  0  0  0  2  0  0  0  0  0  0
  187.7040  177.8410  142.8350 C   0  0  0  0  0  0  0  0  0  0  0  0
  184.9300  178.1940  142.8640 C   0  0  0  0  0  3  0  0  0  0  0  0
  185.6090  177.9660  144.0640 C   0  0  0  0  0  0  0  0  0  0  0  0
  184.9420  178.4540  140.4690 O   0  0  0  0  0  1  0  0  0  0  0  0
  185.6260  178.2350  141.6560 C   0  0  0  0  0  0  0  0  0  0  0  0
  189.0870  177.7120  142.7890 O   0  0  0  0  0  1  0  0  0  0  0  0
  187.0100  178.0680  141.6440 C   0  0  0  0  0  3  0  0  0  0  0  0
  184.8700  177.9680  145.2820 N   0  0  0  0  0  1  0  0  0  0  0  0
  187.0070  177.7530  144.0600 C   0  0  0  0  0  0  0  0  0  0  0  0
  190.7480  175.9380  145.6340 C   0  0  2  0  0  3  0  0  0  0  0  0
  191.0010  174.5780  145.4370 O   0  0  0  0  0  1  0  0  0  0  0  0
  191.9420  176.6170  146.3160 C   0  0  0  0  0  2  0  0  0  0  0  0
  193.6350  176.4200  144.4930 N   0  0  0  0  0  0  0  0  0  0  0  0
  196.2240  174.2010  145.8250 C   0  0  0  0  0  1  0  0  0  0  0  0
  194.7980  175.7520  144.3750 C   0  0  1  0  0  3  0  0  0  0  0  0
  194.0550  175.2940  146.4170 N   0  0  0  0  0  0  0  0  0  0  0  0
  195.0490  175.0700  145.5420 C   0  0  0  0  0  0  0  0  0  0  0  0
  193.2250  176.1210  145.7450 C   0  0  0  0  0  0  0  0  0  0  0  0
  196.7500  176.7970  143.2750 C   0  0  0  0  0  1  0  0  0  0  0  0
  194.8180  176.0300  141.9190 C   0  0  0  0  0  1  0  0  0  0  0  0
  195.6560  175.7540  143.1520 C   0  0  0  0  0  3  0  0  0  0  0  0
  1  2  1  0  0  0  0
  3 14  1  6  0  0  0
  3  4  1  0  0  0  0
  3  5  1  0  0  0  0
  4  5  1  0  0  0  0
  4  1  1  1  0  0  0
  6 14  1  0  0  0  0
  7  8  1  0  0  0  0
  8 13  1  0  0  0  0
  9 10  1  0  0  0  0
 10  7  2  0  0  0  0
 11  6  1  0  0  0  0
 12 10  1  0  0  0  0
 12  6  2  0  0  0  0
 14  8  2  0  0  0  0
 15 16  1  1  0  0  0
 15 17  1  0  0  0  0
 15  1  1  0  0  0  0
 18 23  2  0  0  0  0
 20 26  1  6  0  0  0
 20 18  1  0  0  0  0
 20 22  1  0  0  0  0
 22 19  1  0  0  0  0
 22 21  2  0  0  0  0
 23 17  1  0  0  0  0
 23 21  1  0  0  0  0
 25 26  1  0  0  0  0
 26 24  1  0  0  0  0
M  END
>  <MODEL>
8

>  <REMARK>
 VINA RESULT:      -6.7      0.705      1.849
  Name = 
  6 active torsions:
  status: ('A' for Active; 'I' for Inactive)
    1  A    between atoms: N_7  and  C_14
    2  A    between atoms: N_7  and  C_23
    3  A    between atoms: C_10  and  C_21
    4  A    between atoms: C_11  and  C_26
    5  A    between atoms: C_14  and  C_24
    6  A    between atoms: C_17  and  C_24
                            x       y       z     vdW  Elec       q    Type
                         _______ _______ _______ _____ _____    ______ ____

>  <TORSDO>
F 6

$$$$
=
 OpenBabel11042417223D

 26 28  0  0  1  0  0  0  0  0999 V2000
  191.0890  175.9050  146.5930 N   0  0  0  0  0  0  0  0  0  0  0  0
  191.2610  176.2070  148.0080 C   0  0  0  0  0  1  0  0  0  0  0  0
  193.1300  175.2230  145.4300 C   0  0  2  0  0  3  0  0  0  0  0  0
  192.2630  176.4000  145.8710 C   0  0  2  0  0  3  0  0  0  0  0  0
  193.5180  176.0540  146.6420 C   0  0  0  0  0  2  0  0  0  0  0  0
  193.3930  176.0140  143.0320 C   0  0  0  0  0  0  0  0  0  0  0  0
  196.1720  175.7280  143.1710 C   0  0  0  0  0  3  0  0  0  0  0  0
  195.3900  175.4180  144.2860 C   0  0  0  0  0  0  0  0  0  0  0  0
  196.3610  176.5020  140.8970 O   0  0  0  0  0  1  0  0  0  0  0  0
  195.5760  176.1880  141.9970 C   0  0  0  0  0  0  0  0  0  0  0  0
  192.0140  176.1260  142.9140 O   0  0  0  0  0  1  0  0  0  0  0  0
  194.1900  176.3210  141.9260 C   0  0  0  0  0  3  0  0  0  0  0  0
  196.0310  174.9150  145.4560 N   0  0  0  0  0  1  0  0  0  0  0  0
  193.9870  175.5880  144.2410 C   0  0  0  0  0  0  0  0  0  0  0  0
  189.8560  176.5610  146.1320 C   0  0  2  0  0  3  0  0  0  0  0  0
  189.6980  177.7930  146.7730 O   0  0  0  0  0  1  0  0  0  0  0  0
  188.5990  175.6990  146.3020 C   0  0  0  0  0  2  0  0  0  0  0  0
  186.9990  176.9510  144.8510 N   0  0  0  0  0  0  0  0  0  0  0  0
  184.4780  178.2920  147.1410 C   0  0  0  0  0  1  0  0  0  0  0  0
  185.8810  177.6570  145.0990 C   0  0  1  0  0  3  0  0  0  0  0  0
  186.5580  176.9060  147.0760 N   0  0  0  0  0  0  0  0  0  0  0  0
  185.6160  177.6290  146.4480 C   0  0  0  0  0  0  0  0  0  0  0  0
  187.3700  176.5090  146.0730 C   0  0  0  0  0  0  0  0  0  0  0  0
  185.1660  177.6320  142.7320 C   0  0  0  0  0  1  0  0  0  0  0  0
  185.5680  179.7900  143.8890 C   0  0  0  0  0  1  0  0  0  0  0  0
  185.0780  178.3650  144.0570 C   0  0  0  0  0  3  0  0  0  0  0  0
  1  2  1  0  0  0  0
  3 14  1  6  0  0  0
  3  4  1  0  0  0  0
  3  5  1  0  0  0  0
  4  1  1  1  0  0  0
  4  5  1  0  0  0  0
  6 14  1  0  0  0  0
  7  8  1  0  0  0  0
  8 13  1  0  0  0  0
  9 10  1  0  0  0  0
 10  7  2  0  0  0  0
 11  6  1  0  0  0  0
 12 10  1  0  0  0  0
 12  6  2  0  0  0  0
 14  8  2  0  0  0  0
 15 17  1  0  0  0  0
 15  1  1  0  0  0  0
 15 16  1  1  0  0  0
 18 20  1  0  0  0  0
 18 23  2  0  0  0  0
 20 26  1  1  0  0  0
 20 22  1  0  0  0  0
 22 21  2  0  0  0  0
 22 19  1  0  0  0  0
 23 17  1  0  0  0  0
 23 21  1  0  0  0  0
 24 26  1  0  0  0  0
 25 26  1  0  0  0  0
M  END
>  <MODEL>
9

>  <REMARK>
 VINA RESULT:      -6.6      2.437      8.325
  Name = 
  6 active torsions:
  status: ('A' for Active; 'I' for Inactive)
    1  A    between atoms: N_7  and  C_14
    2  A    between atoms: N_7  and  C_23
    3  A    between atoms: C_10  and  C_21
    4  A    between atoms: C_11  and  C_26
    5  A    between atoms: C_14  and  C_24
    6  A    between atoms: C_17  and  C_24
                            x       y       z     vdW  Elec       q    Type
                         _______ _______ _______ _____ _____    ______ ____

>  <TORSDO>
F 6

$$$$
