=
 OpenBabel11042418233D

 28 30  0  0  1  0  0  0  0  0999 V2000
  190.2430  176.0070  146.0730 C   0  0  2  0  0  3  0  0  0  0  0  0
  189.3330  177.1490  145.6100 C   0  0  1  0  0  3  0  0  0  0  0  0
  190.3680  176.5660  144.6680 C   0  0  1  0  0  3  0  0  0  0  0  0
  191.1030  178.4050  143.6890 C   0  0  0  0  0  1  0  0  0  0  0  0
  191.4700  177.4200  144.6080 O   0  0  0  0  0  0  0  0  0  0  0  0
  187.9980  176.6890  145.2170 N   0  0  0  0  0  2  0  0  0  0  0  0
  186.9930  177.7250  145.4930 C   0  0  1  0  0  3  0  0  0  0  0  0
  184.8140  177.7380  146.7070 C   0  0  0  0  0  3  0  0  0  0  0  0
  186.5950  176.5700  147.6880 O   0  0  0  0  0  1  0  0  0  0  0  0
  183.9840  178.4970  143.2560 C   0  0  0  0  0  3  0  0  0  0  0  0
  184.7920  178.4050  144.3180 C   0  0  0  0  0  0  0  0  0  0  0  0
  186.2480  178.1340  144.2420 C   0  0  0  0  0  0  0  0  0  0  0  0
  186.8870  178.2960  143.1650 O   0  0  0  0  0  0  0  0  0  0  0  0
  184.1980  178.6360  145.6710 C   0  0  0  0  0  2  0  0  0  0  0  0
  186.0890  177.3410  146.6490 C   0  0  0  0  0  0  0  0  0  0  0  0
  184.4220  178.2970  141.8420 C   0  0  0  0  0  2  0  0  0  0  0  0
  182.3240  177.9500  140.3070 N   0  0  0  0  0  0  0  0  0  0  0  0
  183.2500  178.1020  140.9870 C   0  0  0  0  0  0  0  0  0  0  0  0
  189.6110  174.6200  146.0020 C   0  0  0  0  0  2  0  0  0  0  0  0
  190.4040  173.7290  145.0620 C   0  0  0  0  0  2  0  0  0  0  0  0
  189.6310  172.4620  144.7360 C   0  0  1  0  0  3  0  0  0  0  0  0
  189.3960  172.3950  143.2920 N   0  0  0  0  0  0  0  0  0  0  0  0
  189.2710  172.5720  140.9780 O   0  0  0  0  0  0  0  0  0  0  0  0
  188.9140  173.0110  142.1010 C   0  0  0  0  0  0  0  0  0  0  0  0
  190.3610  171.6680  144.0070 O   0  0  0  0  0  0  0  0  0  0  0  0
  187.9350  174.1290  142.1850 C   0  0  0  0  0  2  0  0  0  0  0  0
  188.5820  175.3740  141.8110 N   0  0  0  0  0  2  0  0  0  0  0  0
  187.7770  175.9600  140.7550 C   0  0  0  0  0  1  0  0  0  0  0  0
  1 19  1  6  0  0  0
  2  6  1  6  0  0  0
  2  1  1  0  0  0  0
  3  5  1  1  0  0  0
  3  2  1  0  0  0  0
  3  1  1  0  0  0  0
  4  5  1  0  0  0  0
  7  6  1  6  0  0  0
  7 15  1  0  0  0  0
 10 11  2  0  0  0  0
 11 14  1  0  0  0  0
 12 11  1  0  0  0  0
 12  7  1  0  0  0  0
 13 12  2  0  0  0  0
 14  8  1  0  0  0  0
 15  8  2  0  0  0  0
 15  9  1  0  0  0  0
 16 10  1  0  0  0  0
 17 18  3  0  0  0  0
 18 16  1  0  0  0  0
 20 19  1  0  0  0  0
 21 20  1  6  0  0  0
 22 25  1  0  0  0  0
 22 21  1  0  0  0  0
 23 24  2  0  0  0  0
 24 26  1  0  0  0  0
 24 22  1  0  0  0  0
 25 21  1  0  0  0  0
 27 26  1  0  0  0  0
 28 27  1  0  0  0  0
M  END
>  <MODEL>
1

>  <REMARK>
 VINA RESULT:      -6.2      0.000      0.000
  Name = 
  10 active torsions:
  status: ('A' for Active; 'I' for Inactive)
    1  A    between atoms: C_1  and  N_8
    2  A    between atoms: C_4  and  C_21
    3  A    between atoms: C_5  and  C_27
    4  A    between atoms: N_8  and  C_9
    5  A    between atoms: C_10  and  C_19
    6  A    between atoms: N_11  and  C_18
    7  A    between atoms: O_17  and  C_26
    8  A    between atoms: C_18  and  C_20
    9  A    between atoms: C_19  and  C_28
   10  A    between atoms: C_21  and  C_27
                            x       y       z     vdW  Elec       q    Type
                         _______ _______ _______ _____ _____    ______ ____

>  <TORSDO>
F 10

$$$$
=
 OpenBabel11042418233D

 28 30  0  0  1  0  0  0  0  0999 V2000
  185.9330  177.9940  142.4000 C   0  0  2  0  0  3  0  0  0  0  0  0
  186.5000  176.6050  142.0910 C   0  0  1  0  0  3  0  0  0  0  0  0
  186.9250  177.8040  141.2680 C   0  0  1  0  0  3  0  0  0  0  0  0
  184.9350  178.1630  140.3790 C   0  0  0  0  0  1  0  0  0  0  0  0
  186.2410  177.7970  140.0520 O   0  0  0  0  0  0  0  0  0  0  0  0
  187.5860  176.2190  142.9940 N   0  0  0  0  0  2  0  0  0  0  0  0
  188.7720  175.8070  142.2300 C   0  0  1  0  0  3  0  0  0  0  0  0
  189.9940  173.6480  141.9660 C   0  0  0  0  0  3  0  0  0  0  0  0
  187.6500  173.5780  141.9390 O   0  0  0  0  0  1  0  0  0  0  0  0
  192.3620  175.8920  143.5570 C   0  0  0  0  0  3  0  0  0  0  0  0
  191.2750  175.5830  142.8410 C   0  0  0  0  0  0  0  0  0  0  0  0
  190.0410  176.4050  142.7940 C   0  0  0  0  0  0  0  0  0  0  0  0
  190.0470  177.6120  143.1620 O   0  0  0  0  0  0  0  0  0  0  0  0
  191.3220  174.3520  141.9940 C   0  0  0  0  0  2  0  0  0  0  0  0
  188.8310  174.3020  142.0460 C   0  0  0  0  0  0  0  0  0  0  0  0
  192.4760  177.0860  144.4480 C   0  0  0  0  0  2  0  0  0  0  0  0
  194.2110  176.6000  146.3520 N   0  0  0  0  0  0  0  0  0  0  0  0
  193.4430  176.8150  145.5120 C   0  0  0  0  0  0  0  0  0  0  0  0
  186.6240  178.7210  143.5500 C   0  0  0  0  0  2  0  0  0  0  0  0
  185.5950  179.3960  144.4390 C   0  0  0  0  0  2  0  0  0  0  0  0
  184.5730  178.3920  144.9450 C   0  0  1  0  0  3  0  0  0  0  0  0
  184.9730  177.9200  146.2720 N   0  0  0  0  0  0  0  0  0  0  0  0
  185.8580  177.4520  148.3700 O   0  0  0  0  0  0  0  0  0  0  0  0
  185.9680  177.3540  147.1200 C   0  0  0  0  0  0  0  0  0  0  0  0
  183.9690  178.8620  145.9980 O   0  0  0  0  0  0  0  0  0  0  0  0
  187.1010  176.5890  146.5310 C   0  0  0  0  0  2  0  0  0  0  0  0
  188.2880  177.4250  146.4920 N   0  0  0  0  0  2  0  0  0  0  0  0
  189.4280  176.5330  146.5930 C   0  0  0  0  0  1  0  0  0  0  0  0
  1 19  1  1  0  0  0
  2  1  1  0  0  0  0
  2  6  1  1  0  0  0
  3  5  1  6  0  0  0
  3  2  1  0  0  0  0
  3  1  1  0  0  0  0
  5  4  1  0  0  0  0
  7 12  1  0  0  0  0
  7  6  1  1  0  0  0
  8 14  1  0  0  0  0
  8 15  2  0  0  0  0
  9 15  1  0  0  0  0
 10 16  1  0  0  0  0
 11 10  2  0  0  0  0
 12 11  1  0  0  0  0
 12 13  2  0  0  0  0
 14 11  1  0  0  0  0
 15  7  1  0  0  0  0
 16 18  1  0  0  0  0
 18 17  3  0  0  0  0
 19 20  1  0  0  0  0
 21 20  1  1  0  0  0
 21 25  1  0  0  0  0
 21 22  1  0  0  0  0
 22 24  1  0  0  0  0
 24 23  2  0  0  0  0
 25 22  1  0  0  0  0
 26 24  1  0  0  0  0
 27 26  1  0  0  0  0
 27 28  1  0  0  0  0
M  END
>  <MODEL>
2

>  <REMARK>
 VINA RESULT:      -6.1      2.348      7.331
  Name = 
  10 active torsions:
  status: ('A' for Active; 'I' for Inactive)
    1  A    between atoms: C_1  and  N_8
    2  A    between atoms: C_4  and  C_21
    3  A    between atoms: C_5  and  C_27
    4  A    between atoms: N_8  and  C_9
    5  A    between atoms: C_10  and  C_19
    6  A    between atoms: N_11  and  C_18
    7  A    between atoms: O_17  and  C_26
    8  A    between atoms: C_18  and  C_20
    9  A    between atoms: C_19  and  C_28
   10  A    between atoms: C_21  and  C_27
                            x       y       z     vdW  Elec       q    Type
                         _______ _______ _______ _____ _____    ______ ____

>  <TORSDO>
F 10

$$$$
=
 OpenBabel11042418233D

 28 30  0  0  1  0  0  0  0  0999 V2000
  187.8100  176.0700  142.1850 C   0  0  2  0  0  3  0  0  0  0  0  0
  188.5300  175.3010  143.2970 C   0  0  1  0  0  3  0  0  0  0  0  0
  189.1240  175.3660  141.9050 C   0  0  1  0  0  3  0  0  0  0  0  0
  189.0200  173.1820  142.2160 C   0  0  0  0  0  1  0  0  0  0  0  0
  188.8720  174.1670  141.2380 O   0  0  0  0  0  0  0  0  0  0  0  0
  189.2880  176.1760  144.1960 N   0  0  0  0  0  2  0  0  0  0  0  0
  190.0900  175.3800  145.1360 C   0  0  1  0  0  3  0  0  0  0  0  0
  190.3640  175.3930  147.6150 C   0  0  0  0  0  3  0  0  0  0  0  0
  188.1920  175.6260  146.7630 O   0  0  0  0  0  1  0  0  0  0  0  0
  193.6250  176.2840  146.2940 C   0  0  0  0  0  3  0  0  0  0  0  0
  192.3980  175.7560  146.2420 C   0  0  0  0  0  0  0  0  0  0  0  0
  191.5660  175.6870  145.0160 C   0  0  0  0  0  0  0  0  0  0  0  0
  192.0800  175.8230  143.8710 O   0  0  0  0  0  0  0  0  0  0  0  0
  191.8430  175.1510  147.4920 C   0  0  0  0  0  2  0  0  0  0  0  0
  189.5570  175.4720  146.5530 C   0  0  0  0  0  0  0  0  0  0  0  0
  194.3210  176.9220  145.1360 C   0  0  0  0  0  2  0  0  0  0  0  0
  196.2590  175.3640  144.3040 N   0  0  0  0  0  0  0  0  0  0  0  0
  195.4040  176.0540  144.6730 C   0  0  0  0  0  0  0  0  0  0  0  0
  188.0450  177.5770  142.1990 C   0  0  0  0  0  2  0  0  0  0  0  0
  186.7200  178.3170  142.1640 C   0  0  0  0  0  2  0  0  0  0  0  0
  185.5610  177.3640  142.4070 C   0  0  1  0  0  3  0  0  0  0  0  0
  184.7560  177.8550  143.5270 N   0  0  0  0  0  0  0  0  0  0  0  0
  183.6790  178.9520  145.2710 O   0  0  0  0  0  0  0  0  0  0  0  0
  184.6850  178.3060  144.8770 C   0  0  0  0  0  0  0  0  0  0  0  0
  184.4310  177.9650  142.1660 O   0  0  0  0  0  0  0  0  0  0  0  0
  185.7670  177.9560  145.8370 C   0  0  0  0  0  2  0  0  0  0  0  0
  185.3430  178.2760  147.1890 N   0  0  0  0  0  2  0  0  0  0  0  0
  186.5480  178.5610  147.9460 C   0  0  0  0  0  1  0  0  0  0  0  0
  1 19  1  1  0  0  0
  1  2  1  0  0  0  0
  2  6  1  1  0  0  0
  3  5  1  6  0  0  0
  3  1  1  0  0  0  0
  3  2  1  0  0  0  0
  5  4  1  0  0  0  0
  7  6  1  6  0  0  0
  7 15  1  0  0  0  0
 11 10  2  0  0  0  0
 11 14  1  0  0  0  0
 12  7  1  0  0  0  0
 12 11  1  0  0  0  0
 13 12  2  0  0  0  0
 14  8  1  0  0  0  0
 15  9  1  0  0  0  0
 15  8  2  0  0  0  0
 16 10  1  0  0  0  0
 17 18  3  0  0  0  0
 18 16  1  0  0  0  0
 20 19  1  0  0  0  0
 21 20  1  6  0  0  0
 21 22  1  0  0  0  0
 22 24  1  0  0  0  0
 24 23  2  0  0  0  0
 24 26  1  0  0  0  0
 25 21  1  0  0  0  0
 25 22  1  0  0  0  0
 26 27  1  0  0  0  0
 27 28  1  0  0  0  0
M  END
>  <MODEL>
3

>  <REMARK>
 VINA RESULT:      -6.1      2.767      7.364
  Name = 
  10 active torsions:
  status: ('A' for Active; 'I' for Inactive)
    1  A    between atoms: C_1  and  N_8
    2  A    between atoms: C_4  and  C_21
    3  A    between atoms: C_5  and  C_27
    4  A    between atoms: N_8  and  C_9
    5  A    between atoms: C_10  and  C_19
    6  A    between atoms: N_11  and  C_18
    7  A    between atoms: O_17  and  C_26
    8  A    between atoms: C_18  and  C_20
    9  A    between atoms: C_19  and  C_28
   10  A    between atoms: C_21  and  C_27
                            x       y       z     vdW  Elec       q    Type
                         _______ _______ _______ _____ _____    ______ ____

>  <TORSDO>
F 10

$$$$
=
 OpenBabel11042418233D

 28 30  0  0  1  0  0  0  0  0999 V2000
  189.5230  174.6050  142.0410 C   0  0  2  0  0  3  0  0  0  0  0  0
  188.4700  175.2330  141.1220 C   0  0  1  0  0  3  0  0  0  0  0  0
  188.0520  174.2870  142.2300 C   0  0  1  0  0  3  0  0  0  0  0  0
  188.6450  172.9210  140.5990 C   0  0  0  0  0  1  0  0  0  0  0  0
  187.7770  173.0320  141.6870 O   0  0  0  0  0  0  0  0  0  0  0  0
  188.1350  176.6090  141.4990 N   0  0  0  0  0  2  0  0  0  0  0  0
  186.6810  176.7680  141.6310 C   0  0  1  0  0  3  0  0  0  0  0  0
  184.9910  178.2180  140.5050 C   0  0  0  0  0  3  0  0  0  0  0  0
  186.6360  177.2240  139.1610 O   0  0  0  0  0  1  0  0  0  0  0  0
  184.9630  179.2520  143.9840 C   0  0  0  0  0  3  0  0  0  0  0  0
  185.2010  178.4150  142.9690 C   0  0  0  0  0  0  0  0  0  0  0  0
  186.3030  177.4230  142.9420 C   0  0  0  0  0  0  0  0  0  0  0  0
  186.8920  177.0720  144.0020 O   0  0  0  0  0  0  0  0  0  0  0  0
  184.2660  178.4470  141.8020 C   0  0  0  0  0  2  0  0  0  0  0  0
  186.0720  177.4370  140.4130 C   0  0  0  0  0  0  0  0  0  0  0  0
  185.7990  179.3410  145.2190 C   0  0  0  0  0  2  0  0  0  0  0  0
  184.4610  178.3890  147.2630 N   0  0  0  0  0  0  0  0  0  0  0  0
  185.0500  178.8120  146.3600 C   0  0  0  0  0  0  0  0  0  0  0  0
  189.9900  175.5030  143.1820 C   0  0  0  0  0  2  0  0  0  0  0  0
  191.4520  175.2390  143.4950 C   0  0  0  0  0  2  0  0  0  0  0  0
  192.2340  176.5400  143.5690 C   0  0  1  0  0  3  0  0  0  0  0  0
  193.0640  176.5390  144.7750 N   0  0  0  0  0  0  0  0  0  0  0  0
  194.2950  176.1700  146.7120 O   0  0  0  0  0  0  0  0  0  0  0  0
  193.1710  176.3790  146.1870 C   0  0  0  0  0  0  0  0  0  0  0  0
  193.5090  176.3010  143.4650 O   0  0  0  0  0  0  0  0  0  0  0  0
  191.9640  176.5270  147.0460 C   0  0  0  0  0  2  0  0  0  0  0  0
  191.5280  175.2190  147.5050 N   0  0  0  0  0  2  0  0  0  0  0  0
  190.1160  175.1160  147.1840 C   0  0  0  0  0  1  0  0  0  0  0  0
  1  3  1  0  0  0  0
  1 19  1  1  0  0  0
  2  6  1  1  0  0  0
  2  1  1  0  0  0  0
  2  3  1  0  0  0  0
  3  5  1  6  0  0  0
  4  5  1  0  0  0  0
  7  6  1  6  0  0  0
  7 12  1  0  0  0  0
  8 14  1  0  0  0  0
  9 15  1  0  0  0  0
 10 16  1  0  0  0  0
 11 10  2  0  0  0  0
 12 11  1  0  0  0  0
 12 13  2  0  0  0  0
 14 11  1  0  0  0  0
 15  8  2  0  0  0  0
 15  7  1  0  0  0  0
 16 18  1  0  0  0  0
 18 17  3  0  0  0  0
 19 20  1  0  0  0  0
 21 20  1  1  0  0  0
 21 22  1  0  0  0  0
 22 24  1  0  0  0  0
 24 23  2  0  0  0  0
 24 26  1  0  0  0  0
 25 21  1  0  0  0  0
 25 22  1  0  0  0  0
 26 27  1  0  0  0  0
 28 27  1  0  0  0  0
M  END
>  <MODEL>
4

>  <REMARK>
 VINA RESULT:      -6.0      2.478      5.367
  Name = 
  10 active torsions:
  status: ('A' for Active; 'I' for Inactive)
    1  A    between atoms: C_1  and  N_8
    2  A    between atoms: C_4  and  C_21
    3  A    between atoms: C_5  and  C_27
    4  A    between atoms: N_8  and  C_9
    5  A    between atoms: C_10  and  C_19
    6  A    between atoms: N_11  and  C_18
    7  A    between atoms: O_17  and  C_26
    8  A    between atoms: C_18  and  C_20
    9  A    between atoms: C_19  and  C_28
   10  A    between atoms: C_21  and  C_27
                            x       y       z     vdW  Elec       q    Type
                         _______ _______ _______ _____ _____    ______ ____

>  <TORSDO>
F 10

$$$$
=
 OpenBabel11042418233D

 28 30  0  0  1  0  0  0  0  0999 V2000
  189.7680  174.9220  142.1250 C   0  0  2  0  0  3  0  0  0  0  0  0
  188.5850  175.3770  141.2630 C   0  0  1  0  0  3  0  0  0  0  0  0
  188.3530  174.5130  142.4870 C   0  0  1  0  0  3  0  0  0  0  0  0
  188.5960  173.1450  140.7690 C   0  0  0  0  0  1  0  0  0  0  0  0
  188.1360  173.1940  142.0870 O   0  0  0  0  0  0  0  0  0  0  0  0
  188.1700  176.7530  141.5480 N   0  0  0  0  0  2  0  0  0  0  0  0
  186.7100  176.8330  141.6880 C   0  0  1  0  0  3  0  0  0  0  0  0
  184.9370  178.1840  140.5680 C   0  0  0  0  0  3  0  0  0  0  0  0
  186.6260  177.2770  139.2170 O   0  0  0  0  0  1  0  0  0  0  0  0
  184.8730  179.2270  144.0440 C   0  0  0  0  0  3  0  0  0  0  0  0
  185.1500  178.4010  143.0290 C   0  0  0  0  0  0  0  0  0  0  0  0
  186.3050  177.4700  142.9990 C   0  0  0  0  0  0  0  0  0  0  0  0
  186.9180  177.1560  144.0570 O   0  0  0  0  0  0  0  0  0  0  0  0
  184.2080  178.3770  141.8680 C   0  0  0  0  0  2  0  0  0  0  0  0
  186.0580  177.4630  140.4720 C   0  0  0  0  0  0  0  0  0  0  0  0
  185.7090  179.3670  145.2730 C   0  0  0  0  0  2  0  0  0  0  0  0
  184.4480  178.3290  147.3240 N   0  0  0  0  0  0  0  0  0  0  0  0
  185.0030  178.7890  146.4170 C   0  0  0  0  0  0  0  0  0  0  0  0
  190.2590  175.9590  143.1300 C   0  0  0  0  0  2  0  0  0  0  0  0
  191.7020  175.6800  143.5100 C   0  0  0  0  0  2  0  0  0  0  0  0
  191.8550  175.5770  145.0180 C   0  0  1  0  0  3  0  0  0  0  0  0
  192.9850  176.4030  145.4490 N   0  0  0  0  0  0  0  0  0  0  0  0
  194.7680  177.8560  145.7830 O   0  0  0  0  0  0  0  0  0  0  0  0
  194.3580  176.7600  145.3210 C   0  0  0  0  0  0  0  0  0  0  0  0
  191.6260  176.7330  145.5710 O   0  0  0  0  0  0  0  0  0  0  0  0
  195.3200  175.8080  144.7020 C   0  0  0  0  0  2  0  0  0  0  0  0
  195.4200  176.0710  143.2770 N   0  0  0  0  0  2  0  0  0  0  0  0
  196.6860  176.7490  143.0680 C   0  0  0  0  0  1  0  0  0  0  0  0
  1  3  1  0  0  0  0
  1 19  1  1  0  0  0
  2  6  1  1  0  0  0
  2  1  1  0  0  0  0
  2  3  1  0  0  0  0
  3  5  1  6  0  0  0
  4  5  1  0  0  0  0
  7  6  1  6  0  0  0
  7 12  1  0  0  0  0
  8 14  1  0  0  0  0
  9 15  1  0  0  0  0
 10 16  1  0  0  0  0
 11 10  2  0  0  0  0
 12 11  1  0  0  0  0
 12 13  2  0  0  0  0
 14 11  1  0  0  0  0
 15  8  2  0  0  0  0
 15  7  1  0  0  0  0
 16 18  1  0  0  0  0
 18 17  3  0  0  0  0
 19 20  1  0  0  0  0
 21 20  1  6  0  0  0
 21 22  1  0  0  0  0
 21 25  1  0  0  0  0
 22 25  1  0  0  0  0
 24 22  1  0  0  0  0
 24 23  2  0  0  0  0
 26 24  1  0  0  0  0
 27 26  1  0  0  0  0
 28 27  1  0  0  0  0
M  END
>  <MODEL>
5

>  <REMARK>
 VINA RESULT:      -5.9      2.945      5.547
  Name = 
  10 active torsions:
  status: ('A' for Active; 'I' for Inactive)
    1  A    between atoms: C_1  and  N_8
    2  A    between atoms: C_4  and  C_21
    3  A    between atoms: C_5  and  C_27
    4  A    between atoms: N_8  and  C_9
    5  A    between atoms: C_10  and  C_19
    6  A    between atoms: N_11  and  C_18
    7  A    between atoms: O_17  and  C_26
    8  A    between atoms: C_18  and  C_20
    9  A    between atoms: C_19  and  C_28
   10  A    between atoms: C_21  and  C_27
                            x       y       z     vdW  Elec       q    Type
                         _______ _______ _______ _____ _____    ______ ____

>  <TORSDO>
F 10

$$$$
=
 OpenBabel11042418233D

 28 30  0  0  1  0  0  0  0  0999 V2000
  187.5880  176.7750  145.2410 C   0  0  2  0  0  3  0  0  0  0  0  0
  188.9120  176.0130  145.3590 C   0  0  1  0  0  3  0  0  0  0  0  0
  188.8840  177.5220  145.4950 C   0  0  1  0  0  3  0  0  0  0  0  0
  190.0650  177.0990  143.6770 C   0  0  0  0  0  1  0  0  0  0  0  0
  189.3240  178.1010  144.3040 O   0  0  0  0  0  0  0  0  0  0  0  0
  189.1020  175.4050  146.6790 N   0  0  0  0  0  2  0  0  0  0  0  0
  190.3990  174.7170  146.7470 C   0  0  1  0  0  3  0  0  0  0  0  0
  192.7690  175.4770  146.5770 C   0  0  0  0  0  3  0  0  0  0  0  0
  191.2960  176.7940  147.8400 O   0  0  0  0  0  1  0  0  0  0  0  0
  192.2690  173.2790  143.7320 C   0  0  0  0  0  3  0  0  0  0  0  0
  191.9960  173.7790  144.9420 C   0  0  0  0  0  0  0  0  0  0  0  0
  190.6390  173.8440  145.5360 C   0  0  0  0  0  0  0  0  0  0  0  0
  189.6940  173.1400  145.0830 O   0  0  0  0  0  0  0  0  0  0  0  0
  193.1410  174.2620  145.7740 C   0  0  0  0  0  2  0  0  0  0  0  0
  191.5340  175.6790  147.0450 C   0  0  0  0  0  0  0  0  0  0  0  0
  191.2410  172.7550  142.7840 C   0  0  0  0  0  2  0  0  0  0  0  0
  191.6170  173.7990  140.4080 N   0  0  0  0  0  0  0  0  0  0  0  0
  191.4530  173.3350  141.4570 C   0  0  0  0  0  0  0  0  0  0  0  0
  186.7470  176.7910  146.5130 C   0  0  0  0  0  2  0  0  0  0  0  0
  185.3160  177.1850  146.1930 C   0  0  0  0  0  2  0  0  0  0  0  0
  185.2440  178.6260  145.7160 C   0  0  1  0  0  3  0  0  0  0  0  0
  184.4970  178.6840  144.4580 N   0  0  0  0  0  0  0  0  0  0  0  0
  183.2150  178.4200  142.5380 O   0  0  0  0  0  0  0  0  0  0  0  0
  184.3100  178.2200  143.1250 C   0  0  0  0  0  0  0  0  0  0  0  0
  184.0090  179.0390  145.7260 O   0  0  0  0  0  0  0  0  0  0  0  0
  185.4310  177.5590  142.4020 C   0  0  0  0  0  2  0  0  0  0  0  0
  186.5250  178.5000  142.2330 N   0  0  0  0  0  2  0  0  0  0  0  0
  187.4320  177.9130  141.2640 C   0  0  0  0  0  1  0  0  0  0  0  0
  1  2  1  0  0  0  0
  1  3  1  0  0  0  0
  1 19  1  1  0  0  0
  2  3  1  0  0  0  0
  2  6  1  1  0  0  0
  3  5  1  6  0  0  0
  4  5  1  0  0  0  0
  7  6  1  6  0  0  0
  7 15  1  0  0  0  0
  8 15  2  0  0  0  0
 10 11  2  0  0  0  0
 11 12  1  0  0  0  0
 11 14  1  0  0  0  0
 12  7  1  0  0  0  0
 13 12  2  0  0  0  0
 14  8  1  0  0  0  0
 15  9  1  0  0  0  0
 16 10  1  0  0  0  0
 17 18  3  0  0  0  0
 18 16  1  0  0  0  0
 20 19  1  0  0  0  0
 21 25  1  0  0  0  0
 21 20  1  1  0  0  0
 22 21  1  0  0  0  0
 22 25  1  0  0  0  0
 23 24  2  0  0  0  0
 24 22  1  0  0  0  0
 26 24  1  0  0  0  0
 27 26  1  0  0  0  0
 28 27  1  0  0  0  0
M  END
>  <MODEL>
6

>  <REMARK>
 VINA RESULT:      -5.8      2.371      6.608
  Name = 
  10 active torsions:
  status: ('A' for Active; 'I' for Inactive)
    1  A    between atoms: C_1  and  N_8
    2  A    between atoms: C_4  and  C_21
    3  A    between atoms: C_5  and  C_27
    4  A    between atoms: N_8  and  C_9
    5  A    between atoms: C_10  and  C_19
    6  A    between atoms: N_11  and  C_18
    7  A    between atoms: O_17  and  C_26
    8  A    between atoms: C_18  and  C_20
    9  A    between atoms: C_19  and  C_28
   10  A    between atoms: C_21  and  C_27
                            x       y       z     vdW  Elec       q    Type
                         _______ _______ _______ _____ _____    ______ ____

>  <TORSDO>
F 10

$$$$
=
 OpenBabel11042418233D

 28 30  0  0  1  0  0  0  0  0999 V2000
  190.2130  174.8260  146.1610 C   0  0  2  0  0  3  0  0  0  0  0  0
  189.2790  175.8880  146.7480 C   0  0  1  0  0  3  0  0  0  0  0  0
  190.4240  176.2940  145.8420 C   0  0  1  0  0  3  0  0  0  0  0  0
  191.1580  176.4100  147.9220 C   0  0  0  0  0  1  0  0  0  0  0  0
  191.4730  176.7890  146.6160 O   0  0  0  0  0  0  0  0  0  0  0  0
  188.0120  175.9980  146.0190 N   0  0  0  0  0  2  0  0  0  0  0  0
  187.5350  177.3880  146.0200 C   0  0  1  0  0  3  0  0  0  0  0  0
  185.4020  178.4820  146.7070 C   0  0  0  0  0  3  0  0  0  0  0  0
  186.2670  176.8160  148.1120 O   0  0  0  0  0  1  0  0  0  0  0  0
  185.6500  179.0480  143.1300 C   0  0  0  0  0  3  0  0  0  0  0  0
  186.1210  178.7680  144.3510 C   0  0  0  0  0  0  0  0  0  0  0  0
  187.2940  177.9010  144.6170 C   0  0  0  0  0  0  0  0  0  0  0  0
  188.1270  177.6310  143.7070 O   0  0  0  0  0  0  0  0  0  0  0  0
  185.4500  179.4080  145.5240 C   0  0  0  0  0  2  0  0  0  0  0  0
  186.3570  177.5810  146.9550 C   0  0  0  0  0  0  0  0  0  0  0  0
  186.2100  178.4940  141.8610 C   0  0  0  0  0  2  0  0  0  0  0  0
  184.2720  178.1100  140.1370 N   0  0  0  0  0  0  0  0  0  0  0  0
  185.1290  178.2820  140.8980 C   0  0  0  0  0  0  0  0  0  0  0  0
  189.6740  174.1190  144.9210 C   0  0  0  0  0  2  0  0  0  0  0  0
  190.1430  172.6750  144.8940 C   0  0  0  0  0  2  0  0  0  0  0  0
  191.1700  172.4590  143.7950 C   0  0  1  0  0  3  0  0  0  0  0  0
  192.4820  172.2150  144.3980 N   0  0  0  0  0  0  0  0  0  0  0  0
  194.3740  171.7930  145.6790 O   0  0  0  0  0  0  0  0  0  0  0  0
  193.5100  172.6230  145.2960 C   0  0  0  0  0  0  0  0  0  0  0  0
  191.6310  171.2430  143.8470 O   0  0  0  0  0  0  0  0  0  0  0  0
  193.6010  174.0440  145.7270 C   0  0  0  0  0  2  0  0  0  0  0  0
  194.7930  174.6510  145.1590 N   0  0  0  0  0  2  0  0  0  0  0  0
  194.4230  175.1390  143.8430 C   0  0  0  0  0  1  0  0  0  0  0  0
  1 19  1  6  0  0  0
  1  2  1  0  0  0  0
  2  6  1  6  0  0  0
  3  1  1  0  0  0  0
  3  5  1  1  0  0  0
  3  2  1  0  0  0  0
  5  4  1  0  0  0  0
  7  6  1  6  0  0  0
  7 15  1  0  0  0  0
  8 15  2  0  0  0  0
 10 11  2  0  0  0  0
 11 12  1  0  0  0  0
 11 14  1  0  0  0  0
 12  7  1  0  0  0  0
 13 12  2  0  0  0  0
 14  8  1  0  0  0  0
 15  9  1  0  0  0  0
 16 10  1  0  0  0  0
 17 18  3  0  0  0  0
 18 16  1  0  0  0  0
 20 19  1  0  0  0  0
 21 25  1  0  0  0  0
 21 22  1  0  0  0  0
 21 20  1  1  0  0  0
 22 24  1  0  0  0  0
 24 23  2  0  0  0  0
 24 26  1  0  0  0  0
 25 22  1  0  0  0  0
 27 26  1  0  0  0  0
 28 27  1  0  0  0  0
M  END
>  <MODEL>
7

>  <REMARK>
 VINA RESULT:      -5.8      2.277      3.299
  Name = 
  10 active torsions:
  status: ('A' for Active; 'I' for Inactive)
    1  A    between atoms: C_1  and  N_8
    2  A    between atoms: C_4  and  C_21
    3  A    between atoms: C_5  and  C_27
    4  A    between atoms: N_8  and  C_9
    5  A    between atoms: C_10  and  C_19
    6  A    between atoms: N_11  and  C_18
    7  A    between atoms: O_17  and  C_26
    8  A    between atoms: C_18  and  C_20
    9  A    between atoms: C_19  and  C_28
   10  A    between atoms: C_21  and  C_27
                            x       y       z     vdW  Elec       q    Type
                         _______ _______ _______ _____ _____    ______ ____

>  <TORSDO>
F 10

$$$$
=
 OpenBabel11042418233D

 28 30  0  0  1  0  0  0  0  0999 V2000
  188.8320  175.6470  143.9140 C   0  0  2  0  0  3  0  0  0  0  0  0
  190.2660  175.4570  143.4070 C   0  0  1  0  0  3  0  0  0  0  0  0
  189.2450  176.1900  142.5590 C   0  0  1  0  0  3  0  0  0  0  0  0
  188.7850  174.0700  142.1430 C   0  0  0  0  0  1  0  0  0  0  0  0
  188.7780  175.3370  141.5590 O   0  0  0  0  0  0  0  0  0  0  0  0
  191.2060  176.4210  143.9850 N   0  0  0  0  0  2  0  0  0  0  0  0
  192.3390  175.7240  144.6100 C   0  0  1  0  0  3  0  0  0  0  0  0
  193.7690  176.1900  146.6010 C   0  0  0  0  0  3  0  0  0  0  0  0
  191.4610  176.5450  146.8160 O   0  0  0  0  0  1  0  0  0  0  0  0
  196.0190  176.3450  143.7580 C   0  0  0  0  0  3  0  0  0  0  0  0
  194.9030  175.9910  144.4040 C   0  0  0  0  0  0  0  0  0  0  0  0
  193.5850  175.7960  143.7550 C   0  0  0  0  0  0  0  0  0  0  0  0
  193.4900  175.6310  142.5070 O   0  0  0  0  0  0  0  0  0  0  0  0
  195.0000  175.7270  145.8730 C   0  0  0  0  0  2  0  0  0  0  0  0
  192.5540  176.1670  146.0450 C   0  0  0  0  0  0  0  0  0  0  0  0
  196.0910  176.6400  142.2950 C   0  0  0  0  0  2  0  0  0  0  0  0
  197.8560  175.0680  141.1590 N   0  0  0  0  0  0  0  0  0  0  0  0
  197.0770  175.7620  141.6630 C   0  0  0  0  0  0  0  0  0  0  0  0
  188.6490  176.8120  144.8820 C   0  0  0  0  0  2  0  0  0  0  0  0
  187.4830  176.5400  145.8160 C   0  0  0  0  0  2  0  0  0  0  0  0
  187.2710  177.7030  146.7710 C   0  0  1  0  0  3  0  0  0  0  0  0
  185.9530  178.2940  146.5300 N   0  0  0  0  0  0  0  0  0  0  0  0
  183.7960  178.9260  145.9370 O   0  0  0  0  0  0  0  0  0  0  0  0
  185.0120  178.8540  145.6190 C   0  0  0  0  0  0  0  0  0  0  0  0
  186.2930  177.4370  147.5890 O   0  0  0  0  0  0  0  0  0  0  0  0
  185.4750  179.4130  144.3190 C   0  0  0  0  0  2  0  0  0  0  0  0
  185.4500  178.3750  143.3040 N   0  0  0  0  0  2  0  0  0  0  0  0
  186.5410  178.6630  142.3900 C   0  0  0  0  0  1  0  0  0  0  0  0
  1 19  1  1  0  0  0
  2  1  1  0  0  0  0
  2  6  1  1  0  0  0
  3  5  1  6  0  0  0
  3  2  1  0  0  0  0
  3  1  1  0  0  0  0
  5  4  1  0  0  0  0
  7  6  1  6  0  0  0
  7 15  1  0  0  0  0
 10 11  2  0  0  0  0
 11 14  1  0  0  0  0
 12 11  1  0  0  0  0
 12  7  1  0  0  0  0
 13 12  2  0  0  0  0
 14  8  1  0  0  0  0
 15  8  2  0  0  0  0
 15  9  1  0  0  0  0
 16 10  1  0  0  0  0
 17 18  3  0  0  0  0
 18 16  1  0  0  0  0
 19 20  1  0  0  0  0
 21 20  1  6  0  0  0
 21 25  1  0  0  0  0
 22 21  1  0  0  0  0
 22 25  1  0  0  0  0
 24 23  2  0  0  0  0
 24 22  1  0  0  0  0
 26 24  1  0  0  0  0
 27 26  1  0  0  0  0
 28 27  1  0  0  0  0
M  END
>  <MODEL>
8

>  <REMARK>
 VINA RESULT:      -5.8      3.614      7.913
  Name = 
  10 active torsions:
  status: ('A' for Active; 'I' for Inactive)
    1  A    between atoms: C_1  and  N_8
    2  A    between atoms: C_4  and  C_21
    3  A    between atoms: C_5  and  C_27
    4  A    between atoms: N_8  and  C_9
    5  A    between atoms: C_10  and  C_19
    6  A    between atoms: N_11  and  C_18
    7  A    between atoms: O_17  and  C_26
    8  A    between atoms: C_18  and  C_20
    9  A    between atoms: C_19  and  C_28
   10  A    between atoms: C_21  and  C_27
                            x       y       z     vdW  Elec       q    Type
                         _______ _______ _______ _____ _____    ______ ____

>  <TORSDO>
F 10

$$$$
=
 OpenBabel11042418233D

 28 30  0  0  1  0  0  0  0  0999 V2000
  190.8360  175.2970  144.5210 C   0  0  2  0  0  3  0  0  0  0  0  0
  189.3980  175.4470  144.0140 C   0  0  1  0  0  3  0  0  0  0  0  0
  189.6900  174.6220  145.2510 C   0  0  1  0  0  3  0  0  0  0  0  0
  189.6620  173.2460  143.5230 C   0  0  0  0  0  1  0  0  0  0  0  0
  189.6670  173.2670  144.9190 O   0  0  0  0  0  0  0  0  0  0  0  0
  188.7860  176.7190  144.4060 N   0  0  0  0  0  2  0  0  0  0  0  0
  187.4690  176.8750  143.7730 C   0  0  1  0  0  3  0  0  0  0  0  0
  186.4230  178.6590  142.3770 C   0  0  0  0  0  3  0  0  0  0  0  0
  188.6500  178.0870  141.9150 O   0  0  0  0  0  1  0  0  0  0  0  0
  184.4420  178.5450  145.4160 C   0  0  0  0  0  3  0  0  0  0  0  0
  185.2900  178.0630  144.5020 C   0  0  0  0  0  0  0  0  0  0  0  0
  186.3760  177.0950  144.7940 C   0  0  0  0  0  0  0  0  0  0  0  0
  186.3710  176.4100  145.8540 O   0  0  0  0  0  0  0  0  0  0  0  0
  185.1050  178.4910  143.0810 C   0  0  0  0  0  2  0  0  0  0  0  0
  187.4930  177.9120  142.6660 C   0  0  0  0  0  0  0  0  0  0  0  0
  184.4900  178.2150  146.8720 C   0  0  0  0  0  2  0  0  0  0  0  0
  186.3030  179.6980  148.0490 N   0  0  0  0  0  0  0  0  0  0  0  0
  185.5010  179.0420  147.5310 C   0  0  0  0  0  0  0  0  0  0  0  0
  191.3400  176.4670  145.3610 C   0  0  0  0  0  2  0  0  0  0  0  0
  192.6670  176.9700  144.8210 C   0  0  0  0  0  2  0  0  0  0  0  0
  193.8240  176.4500  145.6560 C   0  0  1  0  0  3  0  0  0  0  0  0
  195.0770  176.6400  144.9220 N   0  0  0  0  0  0  0  0  0  0  0  0
  196.8600  177.1560  143.5230 O   0  0  0  0  0  0  0  0  0  0  0  0
  195.8360  176.4540  143.7310 C   0  0  0  0  0  0  0  0  0  0  0  0
  194.6140  177.4310  145.9860 O   0  0  0  0  0  0  0  0  0  0  0  0
  195.4590  175.3860  142.7660 C   0  0  0  0  0  2  0  0  0  0  0  0
  195.4520  174.0990  143.4400 N   0  0  0  0  0  2  0  0  0  0  0  0
  196.8150  173.6030  143.4010 C   0  0  0  0  0  1  0  0  0  0  0  0
  1  3  1  0  0  0  0
  1 19  1  1  0  0  0
  2  6  1  1  0  0  0
  2  1  1  0  0  0  0
  2  3  1  0  0  0  0
  3  5  1  6  0  0  0
  4  5  1  0  0  0  0
  7  6  1  1  0  0  0
  7 12  1  0  0  0  0
  8 15  2  0  0  0  0
  8 14  1  0  0  0  0
  9 15  1  0  0  0  0
 10 16  1  0  0  0  0
 11 12  1  0  0  0  0
 11 10  2  0  0  0  0
 12 13  2  0  0  0  0
 14 11  1  0  0  0  0
 15  7  1  0  0  0  0
 16 18  1  0  0  0  0
 18 17  3  0  0  0  0
 20 19  1  0  0  0  0
 21 20  1  6  0  0  0
 21 25  1  0  0  0  0
 22 21  1  0  0  0  0
 22 25  1  0  0  0  0
 23 24  2  0  0  0  0
 24 22  1  0  0  0  0
 26 27  1  0  0  0  0
 26 24  1  0  0  0  0
 28 27  1  0  0  0  0
M  END
>  <MODEL>
9

>  <REMARK>
 VINA RESULT:      -5.8      3.320      5.487
  Name = 
  10 active torsions:
  status: ('A' for Active; 'I' for Inactive)
    1  A    between atoms: C_1  and  N_8
    2  A    between atoms: C_4  and  C_21
    3  A    between atoms: C_5  and  C_27
    4  A    between atoms: N_8  and  C_9
    5  A    between atoms: C_10  and  C_19
    6  A    between atoms: N_11  and  C_18
    7  A    between atoms: O_17  and  C_26
    8  A    between atoms: C_18  and  C_20
    9  A    between atoms: C_19  and  C_28
   10  A    between atoms: C_21  and  C_27
                            x       y       z     vdW  Elec       q    Type
                         _______ _______ _______ _____ _____    ______ ____

>  <TORSDO>
F 10

$$$$
