=
 OpenBabel11042417363D

 68 78  0  0  1  0  0  0  0  0999 V2000
  189.4950  176.9400  146.2530 C   0  0  0  0  0  0  0  0  0  0  0  0
  184.4400  176.3300  146.5380 F   0  0  0  0  0  0  0  0  0  0  0  0
  190.7810  172.4110  144.4110 O   0  0  0  0  0  0  0  0  0  0  0  0
  188.6700  177.6740  147.1640 N   0  0  0  0  0  2  0  0  0  0  0  0
  191.8950  172.5440  143.5580 C   0  0  2  0  0  0  0  0  0  0  0  0
  189.7040  175.4330  144.3210 C   0  0  2  0  0  3  0  0  0  0  0  0
  191.1200  175.7950  144.2160 N   0  0  0  0  0  0  0  0  0  0  0  0
  187.3380  176.2820  141.5750 C   0  0  0  0  0  3  0  0  0  0  0  0
  192.8540  177.1370  145.0790 O   0  0  0  0  0  0  0  0  0  0  0  0
  192.9770  175.9280  142.7990 F   0  0  0  0  0  0  0  0  0  0  0  0
  190.9670  176.9070  146.4950 C   0  0  0  0  0  2  0  0  0  0  0  0
  191.9700  175.0810  143.2310 C   0  0  2  0  0  0  0  0  0  0  0  0
  191.7780  171.4240  144.5260 C   0  0  0  0  0  2  0  0  0  0  0  0
  191.7590  173.5200  141.3310 O   0  0  0  0  0  0  0  0  0  0  0  0
  191.1870  174.6680  141.9360 C   0  0  1  0  0  3  0  0  0  0  0  0
  189.0850  174.8920  140.6340 N   0  0  0  0  0  0  0  0  0  0  0  0
  191.7010  176.6500  145.2240 C   0  0  0  0  0  0  0  0  0  0  0  0
  186.5320  178.3360  147.9810 N   0  0  0  0  0  0  0  0  0  0  0  0
  185.2240  178.2130  147.5830 O   0  0  0  0  0  0  0  0  0  0  0  0
  189.1010  175.4950  142.9960 N   0  0  0  0  0  0  0  0  0  0  0  0
  192.6540  173.8390  143.8640 C   0  0  1  0  0  3  0  0  0  0  0  0
  187.6380  175.1250  140.6880 C   0  0  0  0  0  2  0  0  0  0  0  0
  189.6360  174.5870  141.9750 C   0  0  2  0  0  3  0  0  0  0  0  0
  188.9660  176.2790  145.2690 N   0  0  0  0  0  0  0  0  0  0  0  0
  191.4510  172.3700  142.1010 C   0  0  1  0  0  3  0  0  0  0  0  0
  187.2450  177.7600  147.0800 C   0  0  0  0  0  0  0  0  0  0  0  0
  185.1260  177.5150  146.3460 C   0  0  1  0  0  3  0  0  0  0  0  0
  186.4840  177.2350  146.0470 O   0  0  0  0  0  0  0  0  0  0  0  0
  188.0360  176.4130  142.6960 C   0  0  0  0  0  3  0  0  0  0  0  0
  190.3680  170.7580  140.0080 O   0  0  0  0  0  0  0  0  0  0  0  0
  192.1030  171.2140  141.5040 N   0  0  0  0  0  2  0  0  0  0  0  0
  192.1820  169.3140  139.9380 N   0  0  0  0  0  1  0  0  0  0  0  0
  191.4980  170.4440  140.4660 C   0  0  0  0  0  0  0  0  0  0  0  0
  193.1780  174.0190  145.2970 C   0  0  0  0  0  2  0  0  0  0  0  0
  194.6910  173.8640  145.3900 C   0  0  0  0  0  2  0  0  0  0  0  0
  196.0190  175.8900  144.6020 C   0  0  0  0  0  1  0  0  0  0  0  0
  195.4210  174.5380  144.2280 C   0  0  1  0  0  3  0  0  0  0  0  0
  196.3420  173.6740  143.5900 O   0  0  0  0  0  0  0  0  0  0  0  0
  195.6740  172.9010  142.6140 C   0  0  1  0  0  3  0  0  0  0  0  0
  196.6160  172.1980  141.8370 O   0  0  0  0  0  0  0  0  0  0  0  0
  195.9040  171.4310  142.7820 C   0  0  1  0  0  3  0  0  0  0  0  0
  196.7630  169.6760  144.1370 C   0  0  0  0  0  0  0  0  0  0  0  0
  196.7900  171.0490  143.9800 C   0  0  1  0  0  3  0  0  0  0  0  0
  196.1690  168.5430  144.4940 C   0  0  0  0  0  3  0  0  0  0  0  0
  197.9410  170.4170  143.5840 O   0  0  0  0  0  0  0  0  0  0  0  0
  194.7840  168.5320  145.0580 C   0  0  1  0  0  3  0  0  0  0  0  0
  194.7130  169.2720  146.3910 C   0  0  0  0  0  2  0  0  0  0  0  0
  194.8230  168.3790  147.4610 O   0  0  0  0  0  1  0  0  0  0  0  0
  193.7510  168.1660  143.1290 C   0  0  0  0  0  1  0  0  0  0  0  0
  193.9000  169.1130  144.1460 O   0  0  0  0  0  0  0  0  0  0  0  0
  189.3480  173.8000  139.6860 C   0  0  0  0  0  2  0  0  0  0  0  0
  188.3380  173.7170  138.5330 C   0  0  0  0  0  2  0  0  0  0  0  0
  188.9290  174.2570  137.2320 C   0  0  0  0  0  2  0  0  0  0  0  0
  195.3410  169.9840  135.3970 C   0  0  0  0  0  2  0  0  0  0  0  0
  193.5610  170.4780  136.9180 O   0  0  0  0  0  0  0  0  0  0  0  0
  195.3610  172.3770  136.0440 C   0  0  0  0  0  2  0  0  0  0  0  0
  189.2680  171.5340  136.6890 O   0  0  0  0  0  0  0  0  0  0  0  0
  190.2870  172.2640  136.5630 C   0  0  0  0  0  0  0  0  0  0  0  0
  194.2090  172.5510  138.7650 C   0  0  0  0  0  1  0  0  0  0  0  0
  190.2250  173.6590  136.8900 N   0  0  0  0  0  0  0  0  0  0  0  0
  194.8680  171.3700  135.0110 C   0  0  2  0  0  3  0  0  0  0  0  0
  192.6290  171.5350  137.1290 C   0  0  1  0  0  3  0  0  0  0  0  0
  194.2600  173.3670  136.4160 C   0  0  0  0  0  2  0  0  0  0  0  0
  193.8750  170.3300  135.5460 C   0  0  1  0  0  3  0  0  0  0  0  0
  193.3540  172.8450  137.5390 C   0  0  2  0  0  0  0  0  0  0  0  0
  192.3900  173.9530  137.9840 C   0  0  0  0  0  2  0  0  0  0  0  0
  191.5460  171.6650  136.0360 C   0  0  0  0  0  2  0  0  0  0  0  0
  191.4550  174.4500  136.8900 C   0  0  0  0  0  2  0  0  0  0  0  0
  1 11  1  0  0  0  0
  1  4  1  0  0  0  0
  3 13  1  0  0  0  0
  5 21  1  0  0  0  0
  5  3  1  0  0  0  0
  5 13  1  1  0  0  0
  6 24  1  1  0  0  0
  7  6  1  0  0  0  0
  7 17  1  0  0  0  0
  8 29  2  0  0  0  0
  9 17  2  0  0  0  0
 12 10  1  6  0  0  0
 12 21  1  0  0  0  0
 12  7  1  0  0  0  0
 14 25  1  0  0  0  0
 15 14  1  1  0  0  0
 15 23  1  0  0  0  0
 15 12  1  0  0  0  0
 16 22  1  0  0  0  0
 17 11  1  0  0  0  0
 19 18  1  0  0  0  0
 20  6  1  0  0  0  0
 21 34  1  1  0  0  0
 22  8  1  0  0  0  0
 23 16  1  6  0  0  0
 23 20  1  0  0  0  0
 24  1  2  0  0  0  0
 25 31  1  6  0  0  0
 25  5  1  0  0  0  0
 26  4  1  0  0  0  0
 26 18  2  0  0  0  0
 27  2  1  1  0  0  0
 27 19  1  0  0  0  0
 28 27  1  0  0  0  0
 28 26  1  0  0  0  0
 29 20  1  0  0  0  0
 30 33  2  0  0  0  0
 32 33  1  0  0  0  0
 33 31  1  0  0  0  0
 34 35  1  0  0  0  0
 37 36  1  1  0  0  0
 37 35  1  0  0  0  0
 38 37  1  0  0  0  0
 39 41  1  0  0  0  0
 39 38  1  1  0  0  0
 40 39  1  0  0  0  0
 41 40  1  6  0  0  0
 41 43  1  0  0  0  0
 42 44  2  0  0  0  0
 43 45  1  6  0  0  0
 43 42  1  0  0  0  0
 45 42  1  0  0  0  0
 46 44  1  6  0  0  0
 46 47  1  0  0  0  0
 47 48  1  0  0  0  0
 49 50  1  0  0  0  0
 50 46  1  0  0  0  0
 51 16  1  0  0  0  0
 52 51  1  0  0  0  0
 53 52  1  0  0  0  0
 55 62  1  0  0  0  0
 56 63  1  0  0  0  0
 58 57  2  0  0  0  0
 58 60  1  0  0  0  0
 60 53  1  0  0  0  0
 61 54  1  1  0  0  0
 61 64  1  0  0  0  0
 61 56  1  0  0  0  0
 62 67  1  6  0  0  0
 62 65  1  0  0  0  0
 63 65  1  0  0  0  0
 64 54  1  1  0  0  0
 64 55  1  0  0  0  0
 65 66  1  0  0  0  0
 65 59  1  1  0  0  0
 67 58  1  0  0  0  0
 68 60  1  0  0  0  0
 68 66  1  0  0  0  0
M  END
>  <MODEL>
1

>  <REMARK>
 VINA RESULT:      -6.9      0.000      0.000
  Name = 
  14 active torsions:
  status: ('A' for Active; 'I' for Inactive)
    1  A    between atoms: C_3  and  C_31
    2  A    between atoms: C_4  and  O_64
    3  A    between atoms: C_14  and  C_58
    4  A    between atoms: C_18  and  C_31
    5  A    between atoms: C_21  and  C_48
    6  A    between atoms: C_21  and  O_64
    7  A    between atoms: N_26  and  C_47
    8  A    between atoms: O_30  and  C_31
    9  A    between atoms: N_39  and  C_50
   10  A    between atoms: C_43  and  C_48
   11  A    between atoms: C_43  and  C_51
   12  A    between atoms: N_45  and  C_62
   13  A    between atoms: C_47  and  C_49
   14  A    between atoms: C_49  and  C_50
                            x       y       z     vdW  Elec       q    Type
                         _______ _______ _______ _____ _____    ______ ____

>  <TORSDO>
F 14

$$$$
=
 OpenBabel11042417363D

 68 78  0  0  1  0  0  0  0  0999 V2000
  193.2110  169.6170  140.6480 C   0  0  0  0  0  0  0  0  0  0  0  0
  189.6180  171.3740  137.4850 F   0  0  0  0  0  0  0  0  0  0  0  0
  194.8020  173.9910  142.6180 O   0  0  0  0  0  0  0  0  0  0  0  0
  192.7910  168.9120  139.4740 N   0  0  0  0  0  2  0  0  0  0  0  0
  195.1820  173.7970  143.9620 C   0  0  2  0  0  0  0  0  0  0  0  0
  192.8800  171.4460  142.2570 C   0  0  2  0  0  3  0  0  0  0  0  0
  193.8090  170.7810  143.1750 N   0  0  0  0  0  0  0  0  0  0  0  0
  189.3080  171.9020  143.1990 C   0  0  0  0  0  3  0  0  0  0  0  0
  195.1560  168.8830  143.5410 O   0  0  0  0  0  0  0  0  0  0  0  0
  194.4750  170.5380  145.4040 F   0  0  0  0  0  0  0  0  0  0  0  0
  194.4990  169.2240  141.2900 C   0  0  0  0  0  2  0  0  0  0  0  0
  194.2030  171.4770  144.4240 C   0  0  2  0  0  0  0  0  0  0  0  0
  195.9780  174.6420  143.0370 C   0  0  0  0  0  2  0  0  0  0  0  0
  193.5800  173.4550  145.7630 O   0  0  0  0  0  0  0  0  0  0  0  0
  193.0560  172.3730  145.0100 C   0  0  1  0  0  3  0  0  0  0  0  0
  190.6570  173.0010  144.8850 N   0  0  0  0  0  0  0  0  0  0  0  0
  194.4970  169.5910  142.7340 C   0  0  0  0  0  0  0  0  0  0  0  0
  191.3210  168.6230  137.6210 N   0  0  0  0  0  0  0  0  0  0  0  0
  190.1330  169.1610  137.1910 O   0  0  0  0  0  0  0  0  0  0  0  0
  191.6970  171.8580  142.9990 N   0  0  0  0  0  0  0  0  0  0  0  0
  195.4920  172.3200  144.2240 C   0  0  1  0  0  3  0  0  0  0  0  0
  189.4750  173.1280  144.0260 C   0  0  0  0  0  2  0  0  0  0  0  0
  191.8920  172.8250  144.0860 C   0  0  2  0  0  3  0  0  0  0  0  0
  192.5100  170.6060  141.1090 N   0  0  0  0  0  0  0  0  0  0  0  0
  194.1340  174.4240  144.8890 C   0  0  1  0  0  3  0  0  0  0  0  0
  191.6040  169.2050  138.7320 C   0  0  0  0  0  0  0  0  0  0  0  0
  189.6490  170.1390  138.1040 C   0  0  1  0  0  3  0  0  0  0  0  0
  190.6500  170.1370  139.1100 O   0  0  0  0  0  0  0  0  0  0  0  0
  190.3940  171.3350  142.6890 C   0  0  0  0  0  3  0  0  0  0  0  0
  193.1660  177.1050  145.0400 O   0  0  0  0  0  0  0  0  0  0  0  0
  194.7260  175.4900  145.6810 N   0  0  0  0  0  2  0  0  0  0  0  0
  194.8360  177.8160  146.4840 N   0  0  0  0  0  1  0  0  0  0  0  0
  194.1970  176.8150  145.7020 C   0  0  0  0  0  0  0  0  0  0  0  0
  196.5880  171.6740  143.3620 C   0  0  0  0  0  2  0  0  0  0  0  0
  196.6580  172.2710  141.9610 C   0  0  0  0  0  2  0  0  0  0  0  0
  197.9410  170.0960  141.6220 C   0  0  0  0  0  1  0  0  0  0  0  0
  197.4650  171.4030  140.9950 C   0  0  1  0  0  3  0  0  0  0  0  0
  196.8140  171.2240  139.7520 O   0  0  0  0  0  0  0  0  0  0  0  0
  197.0110  172.3640  138.9410 C   0  0  1  0  0  3  0  0  0  0  0  0
  197.0210  171.9870  137.5830 O   0  0  0  0  0  0  0  0  0  0  0  0
  195.8530  172.6370  138.0320 C   0  0  1  0  0  3  0  0  0  0  0  0
  193.6490  172.0660  137.3450 C   0  0  0  0  0  0  0  0  0  0  0  0
  194.6790  171.6530  138.1700 C   0  0  1  0  0  3  0  0  0  0  0  0
  192.6470  172.8790  137.0290 C   0  0  0  0  0  3  0  0  0  0  0  0
  194.5190  170.8850  137.0440 O   0  0  0  0  0  0  0  0  0  0  0  0
  192.2600  174.0210  137.9140 C   0  0  1  0  0  3  0  0  0  0  0  0
  192.1190  173.5840  139.3690 C   0  0  0  0  0  2  0  0  0  0  0  0
  190.7710  173.4600  139.7210 O   0  0  0  0  0  1  0  0  0  0  0  0
  193.0830  175.5340  136.5160 C   0  0  0  0  0  1  0  0  0  0  0  0
  193.2150  175.0360  137.8150 O   0  0  0  0  0  0  0  0  0  0  0  0
  190.7400  174.1890  145.7460 C   0  0  0  0  0  2  0  0  0  0  0  0
  189.3940  174.6280  146.3370 C   0  0  0  0  0  2  0  0  0  0  0  0
  189.2230  176.1440  146.2740 C   0  0  0  0  0  2  0  0  0  0  0  0
  184.5690  178.5910  140.3500 C   0  0  0  0  0  2  0  0  0  0  0  0
  186.3900  179.0080  141.8460 O   0  0  0  0  0  0  0  0  0  0  0  0
  183.8560  178.3410  142.7110 C   0  0  0  0  0  2  0  0  0  0  0  0
  189.7640  176.7380  143.5950 O   0  0  0  0  0  0  0  0  0  0  0  0
  188.5560  176.7920  143.9500 C   0  0  0  0  0  0  0  0  0  0  0  0
  185.5630  180.1390  144.3290 C   0  0  0  0  0  1  0  0  0  0  0  0
  188.1930  176.5740  145.3200 N   0  0  0  0  0  0  0  0  0  0  0  0
  184.3790  177.6050  141.4840 C   0  0  2  0  0  3  0  0  0  0  0  0
  186.8920  178.4570  143.0600 C   0  0  1  0  0  3  0  0  0  0  0  0
  184.5780  177.8820  143.9760 C   0  0  0  0  0  2  0  0  0  0  0  0
  185.7890  178.0150  141.0370 C   0  0  1  0  0  3  0  0  0  0  0  0
  185.8820  178.6540  144.2220 C   0  0  2  0  0  0  0  0  0  0  0  0
  186.4580  178.2720  145.5920 C   0  0  0  0  0  2  0  0  0  0  0  0
  187.5100  177.0480  142.9200 C   0  0  0  0  0  2  0  0  0  0  0  0
  186.8110  176.7980  145.7390 C   0  0  0  0  0  2  0  0  0  0  0  0
  1 24  2  0  0  0  0
  1 11  1  0  0  0  0
  3 13  1  0  0  0  0
  3  5  1  0  0  0  0
  4  1  1  0  0  0  0
  5 13  1  1  0  0  0
  5 21  1  0  0  0  0
  5 25  1  0  0  0  0
  6 24  1  6  0  0  0
  6 20  1  0  0  0  0
  6  7  1  0  0  0  0
  7 12  1  0  0  0  0
  8 22  1  0  0  0  0
 11 17  1  0  0  0  0
 12 15  1  0  0  0  0
 12 10  1  1  0  0  0
 15 14  1  6  0  0  0
 16 51  1  0  0  0  0
 17  7  1  0  0  0  0
 17  9  2  0  0  0  0
 18 26  2  0  0  0  0
 19 18  1  0  0  0  0
 19 27  1  0  0  0  0
 21 34  1  6  0  0  0
 21 12  1  0  0  0  0
 22 16  1  0  0  0  0
 23 20  1  6  0  0  0
 23 16  1  0  0  0  0
 23 15  1  0  0  0  0
 25 31  1  1  0  0  0
 25 14  1  0  0  0  0
 26 28  1  0  0  0  0
 26  4  1  0  0  0  0
 27  2  1  6  0  0  0
 27 28  1  0  0  0  0
 29 20  1  0  0  0  0
 29  8  2  0  0  0  0
 30 33  2  0  0  0  0
 31 33  1  0  0  0  0
 33 32  1  0  0  0  0
 35 34  1  0  0  0  0
 37 36  1  1  0  0  0
 37 35  1  0  0  0  0
 38 37  1  0  0  0  0
 39 38  1  1  0  0  0
 40 39  1  0  0  0  0
 41 40  1  6  0  0  0
 41 43  1  0  0  0  0
 41 39  1  0  0  0  0
 42 43  1  0  0  0  0
 43 45  1  6  0  0  0
 44 42  2  0  0  0  0
 45 42  1  0  0  0  0
 46 44  1  6  0  0  0
 46 47  1  0  0  0  0
 47 48  1  0  0  0  0
 49 50  1  0  0  0  0
 50 46  1  0  0  0  0
 51 52  1  0  0  0  0
 53 52  1  0  0  0  0
 55 62  1  0  0  0  0
 56 63  1  0  0  0  0
 57 58  2  0  0  0  0
 58 60  1  0  0  0  0
 60 68  1  0  0  0  0
 60 53  1  0  0  0  0
 61 54  1  6  0  0  0
 61 56  1  0  0  0  0
 62 67  1  6  0  0  0
 62 65  1  0  0  0  0
 63 65  1  0  0  0  0
 64 54  1  6  0  0  0
 64 61  1  0  0  0  0
 64 55  1  0  0  0  0
 65 59  1  1  0  0  0
 65 66  1  0  0  0  0
 66 68  1  0  0  0  0
 67 58  1  0  0  0  0
M  END
>  <MODEL>
2

>  <REMARK>
 VINA RESULT:      -6.8      2.850      8.874
  Name = 
  14 active torsions:
  status: ('A' for Active; 'I' for Inactive)
    1  A    between atoms: C_3  and  C_31
    2  A    between atoms: C_4  and  O_64
    3  A    between atoms: C_14  and  C_58
    4  A    between atoms: C_18  and  C_31
    5  A    between atoms: C_21  and  C_48
    6  A    between atoms: C_21  and  O_64
    7  A    between atoms: N_26  and  C_47
    8  A    between atoms: O_30  and  C_31
    9  A    between atoms: N_39  and  C_50
   10  A    between atoms: C_43  and  C_48
   11  A    between atoms: C_43  and  C_51
   12  A    between atoms: N_45  and  C_62
   13  A    between atoms: C_47  and  C_49
   14  A    between atoms: C_49  and  C_50
                            x       y       z     vdW  Elec       q    Type
                         _______ _______ _______ _____ _____    ______ ____

>  <TORSDO>
F 14

$$$$
=
 OpenBabel11042417363D

 68 78  0  0  1  0  0  0  0  0999 V2000
  190.0180  175.9730  144.9330 C   0  0  0  0  0  0  0  0  0  0  0  0
  185.0390  176.5750  145.8520 F   0  0  0  0  0  0  0  0  0  0  0  0
  189.8930  171.5260  142.5310 O   0  0  0  0  0  0  0  0  0  0  0  0
  189.5140  176.7680  146.0110 N   0  0  0  0  0  2  0  0  0  0  0  0
  190.9020  171.4880  141.5490 C   0  0  2  0  0  0  0  0  0  0  0  0
  189.6210  174.7070  142.8630 C   0  0  2  0  0  3  0  0  0  0  0  0
  191.0620  174.7250  142.5970 N   0  0  0  0  0  0  0  0  0  0  0  0
  187.2630  176.4310  140.5550 C   0  0  0  0  0  3  0  0  0  0  0  0
  193.1650  175.4920  143.3320 O   0  0  0  0  0  0  0  0  0  0  0  0
  192.7230  174.5760  140.9570 F   0  0  0  0  0  0  0  0  0  0  0  0
  191.4500  175.5550  144.9670 C   0  0  0  0  0  2  0  0  0  0  0  0
  191.5870  173.9520  141.4450 C   0  0  2  0  0  0  0  0  0  0  0  0
  190.6110  170.3210  142.4180 C   0  0  0  0  0  2  0  0  0  0  0  0
  190.7760  172.7320  139.4590 O   0  0  0  0  0  0  0  0  0  0  0  0
  190.5870  173.9020  140.2370 C   0  0  1  0  0  3  0  0  0  0  0  0
  188.4810  174.7850  139.2620 N   0  0  0  0  0  0  0  0  0  0  0  0
  191.9490  175.2840  143.5890 C   0  0  0  0  0  0  0  0  0  0  0  0
  187.7190  177.8240  147.1710 N   0  0  0  0  0  0  0  0  0  0  0  0
  186.3880  178.0700  146.9450 O   0  0  0  0  0  0  0  0  0  0  0  0
  188.9120  175.0740  141.6440 N   0  0  0  0  0  0  0  0  0  0  0  0
  191.9970  172.5140  141.8630 C   0  0  1  0  0  3  0  0  0  0  0  0
  187.1570  175.3530  139.5350 C   0  0  0  0  0  2  0  0  0  0  0  0
  189.0810  174.1950  140.4810 C   0  0  2  0  0  3  0  0  0  0  0  0
  189.2320  175.5840  143.9760 N   0  0  0  0  0  0  0  0  0  0  0  0
  190.2710  171.6050  140.1570 C   0  0  1  0  0  3  0  0  0  0  0  0
  188.1570  177.2060  146.1320 C   0  0  0  0  0  0  0  0  0  0  0  0
  185.9790  177.5720  145.6760 C   0  0  1  0  0  3  0  0  0  0  0  0
  187.1790  177.0110  145.1690 O   0  0  0  0  0  0  0  0  0  0  0  0
  188.0900  176.2520  141.5770 C   0  0  0  0  0  3  0  0  0  0  0  0
  192.7790  170.9240  138.9760 O   0  0  0  0  0  0  0  0  0  0  0  0
  190.5370  170.4080  139.3740 N   0  0  0  0  0  2  0  0  0  0  0  0
  192.0020  168.9540  138.0300 N   0  0  0  0  0  1  0  0  0  0  0  0
  191.8150  170.1340  138.8010 C   0  0  0  0  0  0  0  0  0  0  0  0
  192.7030  172.3860  143.2210 C   0  0  0  0  0  2  0  0  0  0  0  0
  193.7100  171.2410  143.2510 C   0  0  0  0  0  2  0  0  0  0  0  0
  196.1740  170.5960  143.2130 C   0  0  0  0  0  1  0  0  0  0  0  0
  195.1550  171.7290  143.1520 C   0  0  1  0  0  3  0  0  0  0  0  0
  195.3580  172.6090  142.0640 O   0  0  0  0  0  0  0  0  0  0  0  0
  196.7230  172.6100  141.6990 C   0  0  1  0  0  3  0  0  0  0  0  0
  196.8630  173.0870  140.3800 O   0  0  0  0  0  0  0  0  0  0  0  0
  197.2440  173.9810  141.4010 C   0  0  1  0  0  3  0  0  0  0  0  0
  196.5000  175.8050  142.7330 C   0  0  0  0  0  0  0  0  0  0  0  0
  196.2160  175.1130  141.5710 C   0  0  1  0  0  3  0  0  0  0  0  0
  196.5280  175.9260  144.0560 C   0  0  0  0  0  3  0  0  0  0  0  0
  196.7760  176.3480  141.3650 O   0  0  0  0  0  0  0  0  0  0  0  0
  196.0140  174.8410  144.9490 C   0  0  1  0  0  3  0  0  0  0  0  0
  197.1490  173.9900  145.5120 C   0  0  0  0  0  2  0  0  0  0  0  0
  196.6460  172.8510  146.1470 O   0  0  0  0  0  1  0  0  0  0  0  0
  195.0400  176.7240  145.6030 C   0  0  0  0  0  1  0  0  0  0  0  0
  195.2800  175.4040  145.9960 O   0  0  0  0  0  0  0  0  0  0  0  0
  188.3510  173.7860  138.1920 C   0  0  0  0  0  2  0  0  0  0  0  0
  188.8650  174.2620  136.8260 C   0  0  0  0  0  2  0  0  0  0  0  0
  189.6600  173.1670  136.1160 C   0  0  0  0  0  2  0  0  0  0  0  0
  197.4520  173.8630  134.8790 C   0  0  0  0  0  2  0  0  0  0  0  0
  195.6430  172.9990  136.1860 O   0  0  0  0  0  0  0  0  0  0  0  0
  195.9650  175.6880  135.6540 C   0  0  0  0  0  2  0  0  0  0  0  0
  191.6250  171.2850  135.4710 O   0  0  0  0  0  0  0  0  0  0  0  0
  191.9930  172.4890  135.5160 C   0  0  0  0  0  0  0  0  0  0  0  0
  194.7650  174.8030  138.2120 C   0  0  0  0  0  1  0  0  0  0  0  0
  191.0710  173.5150  135.9100 N   0  0  0  0  0  0  0  0  0  0  0  0
  196.2590  174.7210  134.5130 C   0  0  2  0  0  3  0  0  0  0  0  0
  194.2490  173.2500  136.3350 C   0  0  1  0  0  3  0  0  0  0  0  0
  194.4660  175.7640  135.9370 C   0  0  0  0  0  2  0  0  0  0  0  0
  196.0730  173.2380  134.8590 C   0  0  1  0  0  3  0  0  0  0  0  0
  193.9940  174.6710  136.9050 C   0  0  2  0  0  0  0  0  0  0  0  0
  192.5270  174.9140  137.2840 C   0  0  0  0  0  2  0  0  0  0  0  0
  193.3870  172.8350  135.1210 C   0  0  0  0  0  2  0  0  0  0  0  0
  191.5590  174.8780  136.1100 C   0  0  0  0  0  2  0  0  0  0  0  0
  1 11  1  0  0  0  0
  1  4  1  0  0  0  0
  4 26  1  0  0  0  0
  5 21  1  0  0  0  0
  5 13  1  1  0  0  0
  5  3  1  0  0  0  0
  6 24  1  1  0  0  0
  7  6  1  0  0  0  0
  7 17  1  0  0  0  0
  8 29  2  0  0  0  0
  9 17  2  0  0  0  0
 12 10  1  6  0  0  0
 12 21  1  0  0  0  0
 12  7  1  0  0  0  0
 13  3  1  0  0  0  0
 14 25  1  0  0  0  0
 15 14  1  1  0  0  0
 15 23  1  0  0  0  0
 15 12  1  0  0  0  0
 16 22  1  0  0  0  0
 17 11  1  0  0  0  0
 19 18  1  0  0  0  0
 20  6  1  0  0  0  0
 21 34  1  1  0  0  0
 22  8  1  0  0  0  0
 23 16  1  6  0  0  0
 23 20  1  0  0  0  0
 24  1  2  0  0  0  0
 25 31  1  6  0  0  0
 25  5  1  0  0  0  0
 26 18  2  0  0  0  0
 27  2  1  1  0  0  0
 27 19  1  0  0  0  0
 28 27  1  0  0  0  0
 28 26  1  0  0  0  0
 29 20  1  0  0  0  0
 32 33  1  0  0  0  0
 33 30  2  0  0  0  0
 33 31  1  0  0  0  0
 34 35  1  0  0  0  0
 37 36  1  6  0  0  0
 37 35  1  0  0  0  0
 38 37  1  0  0  0  0
 39 38  1  1  0  0  0
 40 39  1  0  0  0  0
 41 40  1  6  0  0  0
 41 43  1  0  0  0  0
 41 39  1  0  0  0  0
 42 44  2  0  0  0  0
 43 45  1  6  0  0  0
 43 42  1  0  0  0  0
 45 42  1  0  0  0  0
 46 44  1  6  0  0  0
 46 47  1  0  0  0  0
 46 50  1  0  0  0  0
 47 48  1  0  0  0  0
 49 50  1  0  0  0  0
 51 16  1  0  0  0  0
 52 51  1  0  0  0  0
 53 52  1  0  0  0  0
 55 62  1  0  0  0  0
 56 63  1  0  0  0  0
 57 58  2  0  0  0  0
 58 60  1  0  0  0  0
 60 68  1  0  0  0  0
 60 53  1  0  0  0  0
 61 64  1  0  0  0  0
 61 54  1  1  0  0  0
 61 56  1  0  0  0  0
 62 67  1  6  0  0  0
 62 65  1  0  0  0  0
 63 65  1  0  0  0  0
 64 54  1  1  0  0  0
 64 55  1  0  0  0  0
 65 66  1  0  0  0  0
 65 59  1  1  0  0  0
 67 58  1  0  0  0  0
 68 66  1  0  0  0  0
M  END
>  <MODEL>
3

>  <REMARK>
 VINA RESULT:      -6.7      1.927      3.209
  Name = 
  14 active torsions:
  status: ('A' for Active; 'I' for Inactive)
    1  A    between atoms: C_3  and  C_31
    2  A    between atoms: C_4  and  O_64
    3  A    between atoms: C_14  and  C_58
    4  A    between atoms: C_18  and  C_31
    5  A    between atoms: C_21  and  C_48
    6  A    between atoms: C_21  and  O_64
    7  A    between atoms: N_26  and  C_47
    8  A    between atoms: O_30  and  C_31
    9  A    between atoms: N_39  and  C_50
   10  A    between atoms: C_43  and  C_48
   11  A    between atoms: C_43  and  C_51
   12  A    between atoms: N_45  and  C_62
   13  A    between atoms: C_47  and  C_49
   14  A    between atoms: C_49  and  C_50
                            x       y       z     vdW  Elec       q    Type
                         _______ _______ _______ _____ _____    ______ ____

>  <TORSDO>
F 14

$$$$
=
 OpenBabel11042417363D

 68 78  0  0  1  0  0  0  0  0999 V2000
  189.8070  176.7240  146.0900 C   0  0  0  0  0  0  0  0  0  0  0  0
  184.7460  176.1860  146.4130 F   0  0  0  0  0  0  0  0  0  0  0  0
  191.0130  172.1850  144.2220 O   0  0  0  0  0  0  0  0  0  0  0  0
  189.0000  177.4670  147.0100 N   0  0  0  0  0  2  0  0  0  0  0  0
  192.1220  172.3050  143.3600 C   0  0  2  0  0  0  0  0  0  0  0  0
  189.9790  175.2220  144.1510 C   0  0  2  0  0  3  0  0  0  0  0  0
  191.3990  175.5640  144.0360 N   0  0  0  0  0  0  0  0  0  0  0  0
  187.6040  176.1160  141.4270 C   0  0  0  0  0  3  0  0  0  0  0  0
  193.1590  176.8770  144.8910 O   0  0  0  0  0  0  0  0  0  0  0  0
  193.2460  175.6760  142.6050 F   0  0  0  0  0  0  0  0  0  0  0  0
  191.2800  176.6700  146.3200 C   0  0  0  0  0  2  0  0  0  0  0  0
  192.2310  174.8420  143.0420 C   0  0  2  0  0  0  0  0  0  0  0  0
  191.9970  171.1830  144.3240 C   0  0  0  0  0  2  0  0  0  0  0  0
  191.9820  173.2910  141.1380 O   0  0  0  0  0  0  0  0  0  0  0  0
  191.4320  174.4450  141.7510 C   0  0  1  0  0  3  0  0  0  0  0  0
  189.3230  174.7040  140.4670 N   0  0  0  0  0  0  0  0  0  0  0  0
  192.0000  176.4060  145.0430 C   0  0  0  0  0  0  0  0  0  0  0  0
  186.8780  178.1560  147.8470 N   0  0  0  0  0  0  0  0  0  0  0  0
  185.5650  178.0530  147.4580 O   0  0  0  0  0  0  0  0  0  0  0  0
  189.3670  175.2980  142.8310 N   0  0  0  0  0  0  0  0  0  0  0  0
  192.9020  173.5870  143.6640 C   0  0  1  0  0  3  0  0  0  0  0  0
  187.8800  174.9570  140.5340 C   0  0  0  0  0  2  0  0  0  0  0  0
  189.8800  174.3860  141.8020 C   0  0  2  0  0  3  0  0  0  0  0  0
  189.2600  176.0750  145.1080 N   0  0  0  0  0  0  0  0  0  0  0  0
  191.6640  172.1420  141.9060 C   0  0  1  0  0  3  0  0  0  0  0  0
  187.5750  177.5730  146.9380 C   0  0  0  0  0  0  0  0  0  0  0  0
  185.4480  177.3610  146.2200 C   0  0  1  0  0  3  0  0  0  0  0  0
  186.7990  177.0630  145.9090 O   0  0  0  0  0  0  0  0  0  0  0  0
  188.3120  176.2320  142.5430 C   0  0  0  0  0  3  0  0  0  0  0  0
  190.4490  169.5790  141.5870 O   0  0  0  0  0  0  0  0  0  0  0  0
  192.2950  170.9800  141.2990 N   0  0  0  0  0  2  0  0  0  0  0  0
  192.3130  168.6200  140.5950 N   0  0  0  0  0  1  0  0  0  0  0  0
  191.6320  169.7220  141.1820 C   0  0  0  0  0  0  0  0  0  0  0  0
  193.4390  173.7540  145.0940 C   0  0  0  0  0  2  0  0  0  0  0  0
  194.6810  172.9090  145.3550 C   0  0  0  0  0  2  0  0  0  0  0  0
  196.8950  173.8060  146.2400 C   0  0  0  0  0  1  0  0  0  0  0  0
  195.9760  173.6560  145.0330 C   0  0  1  0  0  3  0  0  0  0  0  0
  196.6310  173.1400  143.8900 O   0  0  0  0  0  0  0  0  0  0  0  0
  195.6760  172.6320  142.9810 C   0  0  1  0  0  3  0  0  0  0  0  0
  196.2320  172.5810  141.6860 O   0  0  0  0  0  0  0  0  0  0  0  0
  196.1040  171.3440  142.3500 C   0  0  1  0  0  3  0  0  0  0  0  0
  197.3030  169.5430  143.3370 C   0  0  0  0  0  0  0  0  0  0  0  0
  197.4690  170.8150  142.8230 C   0  0  1  0  0  3  0  0  0  0  0  0
  196.8940  168.6960  144.2750 C   0  0  0  0  0  3  0  0  0  0  0  0
  197.9410  169.8160  142.0100 O   0  0  0  0  0  0  0  0  0  0  0  0
  196.2440  169.1780  145.5330 C   0  0  1  0  0  3  0  0  0  0  0  0
  195.2310  168.1680  146.0670 C   0  0  0  0  0  2  0  0  0  0  0  0
  193.9360  168.5050  145.6630 O   0  0  0  0  0  1  0  0  0  0  0  0
  196.6750  168.9500  147.6970 C   0  0  0  0  0  1  0  0  0  0  0  0
  197.2200  169.4250  146.5010 O   0  0  0  0  0  0  0  0  0  0  0  0
  189.5630  173.6120  139.5130 C   0  0  0  0  0  2  0  0  0  0  0  0
  188.9700  173.8590  138.1190 C   0  0  0  0  0  2  0  0  0  0  0  0
  189.7650  173.1320  137.0360 C   0  0  0  0  0  2  0  0  0  0  0  0
  197.2080  175.7650  136.3990 C   0  0  0  0  0  2  0  0  0  0  0  0
  195.2320  174.8990  135.3600 O   0  0  0  0  0  0  0  0  0  0  0  0
  196.5440  173.6020  137.4130 C   0  0  0  0  0  2  0  0  0  0  0  0
  190.8510  175.3760  135.7700 O   0  0  0  0  0  0  0  0  0  0  0  0
  191.6510  174.6610  136.4310 C   0  0  0  0  0  0  0  0  0  0  0  0
  195.1490  172.0490  135.3130 C   0  0  0  0  0  1  0  0  0  0  0  0
  191.1970  173.4510  137.0530 N   0  0  0  0  0  0  0  0  0  0  0  0
  196.4250  175.1180  137.5220 C   0  0  2  0  0  3  0  0  0  0  0  0
  194.0420  174.2340  135.7710 C   0  0  1  0  0  3  0  0  0  0  0  0
  195.1930  172.9270  137.6400 C   0  0  0  0  0  2  0  0  0  0  0  0
  195.6950  175.7940  136.3540 C   0  0  1  0  0  3  0  0  0  0  0  0
  194.3600  172.8310  136.3550 C   0  0  2  0  0  0  0  0  0  0  0  0
  193.1040  171.9880  136.6150 C   0  0  0  0  0  2  0  0  0  0  0  0
  193.0640  175.1090  136.5850 C   0  0  0  0  0  2  0  0  0  0  0  0
  192.1720  172.5580  137.6750 C   0  0  0  0  0  2  0  0  0  0  0  0
  1 11  1  0  0  0  0
  1  4  1  0  0  0  0
  3 13  1  0  0  0  0
  5 21  1  0  0  0  0
  5  3  1  0  0  0  0
  5 13  1  1  0  0  0
  6 24  1  1  0  0  0
  7  6  1  0  0  0  0
  7 17  1  0  0  0  0
  8 29  2  0  0  0  0
  9 17  2  0  0  0  0
 12 10  1  6  0  0  0
 12 21  1  0  0  0  0
 12  7  1  0  0  0  0
 14 25  1  0  0  0  0
 15 14  1  1  0  0  0
 15 23  1  0  0  0  0
 15 12  1  0  0  0  0
 16 22  1  0  0  0  0
 17 11  1  0  0  0  0
 19 18  1  0  0  0  0
 20  6  1  0  0  0  0
 21 34  1  1  0  0  0
 22  8  1  0  0  0  0
 23 16  1  6  0  0  0
 23 20  1  0  0  0  0
 24  1  2  0  0  0  0
 25 31  1  6  0  0  0
 25  5  1  0  0  0  0
 26  4  1  0  0  0  0
 26 18  2  0  0  0  0
 27  2  1  1  0  0  0
 27 19  1  0  0  0  0
 28 27  1  0  0  0  0
 28 26  1  0  0  0  0
 29 20  1  0  0  0  0
 32 33  1  0  0  0  0
 33 31  1  0  0  0  0
 33 30  2  0  0  0  0
 34 35  1  0  0  0  0
 37 35  1  0  0  0  0
 37 36  1  1  0  0  0
 38 37  1  0  0  0  0
 39 38  1  1  0  0  0
 40 39  1  0  0  0  0
 41 40  1  6  0  0  0
 41 43  1  0  0  0  0
 41 39  1  0  0  0  0
 42 44  2  0  0  0  0
 43 45  1  6  0  0  0
 43 42  1  0  0  0  0
 45 42  1  0  0  0  0
 46 44  1  6  0  0  0
 46 47  1  0  0  0  0
 46 50  1  0  0  0  0
 48 47  1  0  0  0  0
 50 49  1  0  0  0  0
 51 16  1  0  0  0  0
 52 51  1  0  0  0  0
 53 60  1  0  0  0  0
 53 52  1  0  0  0  0
 55 62  1  0  0  0  0
 55 64  1  0  0  0  0
 56 61  1  0  0  0  0
 56 63  1  0  0  0  0
 57 58  2  0  0  0  0
 58 67  1  0  0  0  0
 58 60  1  0  0  0  0
 60 68  1  0  0  0  0
 61 54  1  6  0  0  0
 62 65  1  0  0  0  0
 62 67  1  1  0  0  0
 64 54  1  6  0  0  0
 64 61  1  0  0  0  0
 65 59  1  6  0  0  0
 65 66  1  0  0  0  0
 65 63  1  0  0  0  0
 66 68  1  0  0  0  0
M  END
>  <MODEL>
4

>  <REMARK>
 VINA RESULT:      -6.7      1.421      2.071
  Name = 
  14 active torsions:
  status: ('A' for Active; 'I' for Inactive)
    1  A    between atoms: C_3  and  C_31
    2  A    between atoms: C_4  and  O_64
    3  A    between atoms: C_14  and  C_58
    4  A    between atoms: C_18  and  C_31
    5  A    between atoms: C_21  and  C_48
    6  A    between atoms: C_21  and  O_64
    7  A    between atoms: N_26  and  C_47
    8  A    between atoms: O_30  and  C_31
    9  A    between atoms: N_39  and  C_50
   10  A    between atoms: C_43  and  C_48
   11  A    between atoms: C_43  and  C_51
   12  A    between atoms: N_45  and  C_62
   13  A    between atoms: C_47  and  C_49
   14  A    between atoms: C_49  and  C_50
                            x       y       z     vdW  Elec       q    Type
                         _______ _______ _______ _____ _____    ______ ____

>  <TORSDO>
F 14

$$$$
=
 OpenBabel11042417363D

 68 78  0  0  1  0  0  0  0  0999 V2000
  192.0950  174.9620  144.1150 C   0  0  0  0  0  0  0  0  0  0  0  0
  196.4360  177.2620  142.7470 F   0  0  0  0  0  0  0  0  0  0  0  0
  190.2140  173.9350  139.5370 O   0  0  0  0  0  0  0  0  0  0  0  0
  192.7740  175.9080  144.9490 N   0  0  0  0  0  2  0  0  0  0  0  0
  189.4990  172.7210  139.5790 C   0  0  2  0  0  0  0  0  0  0  0  0
  192.0720  173.5220  142.1220 C   0  0  2  0  0  3  0  0  0  0  0  0
  190.9160  172.8090  142.6740 N   0  0  0  0  0  0  0  0  0  0  0  0
  195.3000  171.7470  141.5930 C   0  0  0  0  0  3  0  0  0  0  0  0
  189.4530  172.6040  144.5090 O   0  0  0  0  0  0  0  0  0  0  0  0
  189.6970  170.8130  142.6640 F   0  0  0  0  0  0  0  0  0  0  0  0
  190.6730  174.6340  144.4240 C   0  0  0  0  0  2  0  0  0  0  0  0
  190.2430  171.7830  141.8410 C   0  0  2  0  0  0  0  0  0  0  0  0
  188.9950  173.9030  138.8350 C   0  0  0  0  0  2  0  0  0  0  0  0
  190.5760  170.5430  139.7320 O   0  0  0  0  0  0  0  0  0  0  0  0
  191.2340  171.0190  140.8950 C   0  0  1  0  0  3  0  0  0  0  0  0
  193.6080  170.5890  140.3050 N   0  0  0  0  0  0  0  0  0  0  0  0
  190.3210  173.2850  143.9000 C   0  0  0  0  0  0  0  0  0  0  0  0
  194.6560  177.2800  145.4520 N   0  0  0  0  0  0  0  0  0  0  0  0
  195.9330  177.4440  144.9750 O   0  0  0  0  0  0  0  0  0  0  0  0
  193.0410  172.5480  141.6400 N   0  0  0  0  0  0  0  0  0  0  0  0
  189.0780  172.3950  141.0150 C   0  0  1  0  0  3  0  0  0  0  0  0
  194.9730  171.1240  140.2820 C   0  0  0  0  0  2  0  0  0  0  0  0
  192.6110  171.6550  140.5580 C   0  0  2  0  0  3  0  0  0  0  0  0
  192.6910  174.4420  143.0860 N   0  0  0  0  0  0  0  0  0  0  0  0
  190.2980  171.6270  138.8620 C   0  0  1  0  0  3  0  0  0  0  0  0
  194.1210  176.3470  144.7480 C   0  0  0  0  0  0  0  0  0  0  0  0
  196.2030  176.5450  143.9060 C   0  0  1  0  0  3  0  0  0  0  0  0
  194.9800  175.8360  143.7880 O   0  0  0  0  0  0  0  0  0  0  0  0
  194.3600  172.4560  142.2050 C   0  0  0  0  0  3  0  0  0  0  0  0
  190.5170  172.6330  136.1990 O   0  0  0  0  0  0  0  0  0  0  0  0
  189.5620  171.1290  137.7100 N   0  0  0  0  0  2  0  0  0  0  0  0
  188.9480  171.1670  135.3250 N   0  0  0  0  0  1  0  0  0  0  0  0
  189.7110  171.6880  136.4050 C   0  0  0  0  0  0  0  0  0  0  0  0
  188.2150  173.4360  141.7430 C   0  0  0  0  0  2  0  0  0  0  0  0
  188.5080  174.8610  141.2860 C   0  0  0  0  0  2  0  0  0  0  0  0
  188.9720  177.0190  142.5570 C   0  0  0  0  0  1  0  0  0  0  0  0
  187.9680  175.9100  142.2590 C   0  0  1  0  0  3  0  0  0  0  0  0
  186.6920  176.3920  141.8860 O   0  0  0  0  0  0  0  0  0  0  0  0
  186.8070  177.7060  141.3790 C   0  0  1  0  0  3  0  0  0  0  0  0
  185.8040  177.9340  140.4160 O   0  0  0  0  0  0  0  0  0  0  0  0
  185.6040  178.5470  141.6680 C   0  0  1  0  0  3  0  0  0  0  0  0
  184.2680  178.5480  143.6360 C   0  0  0  0  0  0  0  0  0  0  0  0
  184.4990  177.8390  142.4720 C   0  0  1  0  0  3  0  0  0  0  0  0
  184.6020  178.9440  144.8600 C   0  0  0  0  0  3  0  0  0  0  0  0
  183.3280  178.5530  142.4710 O   0  0  0  0  0  0  0  0  0  0  0  0
  185.8670  178.4840  145.5120 C   0  0  1  0  0  3  0  0  0  0  0  0
  185.9330  178.9090  146.9760 C   0  0  0  0  0  2  0  0  0  0  0  0
  184.7150  178.6670  147.6190 O   0  0  0  0  0  1  0  0  0  0  0  0
  187.2420  176.7850  145.8930 C   0  0  0  0  0  1  0  0  0  0  0  0
  185.9630  177.0940  145.4180 O   0  0  0  0  0  0  0  0  0  0  0  0
  193.3510  169.9080  139.0280 C   0  0  0  0  0  2  0  0  0  0  0  0
  194.6190  169.4220  138.3130 C   0  0  0  0  0  2  0  0  0  0  0  0
  194.5620  169.7120  136.8140 C   0  0  0  0  0  2  0  0  0  0  0  0
  196.8150  177.1450  135.2590 C   0  0  0  0  0  2  0  0  0  0  0  0
  196.6710  175.3140  136.7940 O   0  0  0  0  0  0  0  0  0  0  0  0
  194.4680  176.3960  135.5320 C   0  0  0  0  0  2  0  0  0  0  0  0
  197.0860  170.9090  136.6710 O   0  0  0  0  0  0  0  0  0  0  0  0
  196.1000  171.6360  136.3730 C   0  0  0  0  0  0  0  0  0  0  0  0
  194.2260  175.2740  138.2620 C   0  0  0  0  0  1  0  0  0  0  0  0
  194.7640  171.1290  136.4880 N   0  0  0  0  0  0  0  0  0  0  0  0
  195.7330  176.2450  134.6970 C   0  0  2  0  0  3  0  0  0  0  0  0
  195.9450  174.0930  136.8990 C   0  0  1  0  0  3  0  0  0  0  0  0
  193.8320  175.0370  135.8160 C   0  0  0  0  0  2  0  0  0  0  0  0
  196.9330  175.6470  135.4440 C   0  0  1  0  0  3  0  0  0  0  0  0
  194.4250  174.3590  137.0600 C   0  0  2  0  0  0  0  0  0  0  0  0
  193.6230  173.0930  137.3890 C   0  0  0  0  0  2  0  0  0  0  0  0
  196.3470  173.0160  135.8670 C   0  0  0  0  0  2  0  0  0  0  0  0
  193.6350  172.0360  136.2930 C   0  0  0  0  0  2  0  0  0  0  0  0
  1 11  1  0  0  0  0
  1  4  1  0  0  0  0
  3  5  1  0  0  0  0
  5 13  1  6  0  0  0
  5 21  1  0  0  0  0
  6  7  1  0  0  0  0
  6 24  1  1  0  0  0
  7 17  1  0  0  0  0
  8 29  2  0  0  0  0
 12 10  1  1  0  0  0
 12  7  1  0  0  0  0
 13  3  1  0  0  0  0
 15 14  1  6  0  0  0
 15 12  1  0  0  0  0
 17 11  1  0  0  0  0
 17  9  2  0  0  0  0
 19 18  1  0  0  0  0
 20  6  1  0  0  0  0
 20 29  1  0  0  0  0
 21 34  1  1  0  0  0
 21 12  1  0  0  0  0
 22 16  1  0  0  0  0
 22  8  1  0  0  0  0
 23 16  1  1  0  0  0
 23 15  1  0  0  0  0
 23 20  1  0  0  0  0
 24  1  2  0  0  0  0
 25 31  1  6  0  0  0
 25  5  1  0  0  0  0
 25 14  1  0  0  0  0
 26  4  1  0  0  0  0
 26 18  2  0  0  0  0
 27  2  1  6  0  0  0
 27 19  1  0  0  0  0
 28 27  1  0  0  0  0
 28 26  1  0  0  0  0
 30 33  2  0  0  0  0
 32 33  1  0  0  0  0
 33 31  1  0  0  0  0
 35 34  1  0  0  0  0
 35 37  1  0  0  0  0
 37 36  1  6  0  0  0
 38 37  1  0  0  0  0
 39 41  1  0  0  0  0
 39 38  1  1  0  0  0
 40 39  1  0  0  0  0
 41 40  1  6  0  0  0
 41 43  1  0  0  0  0
 42 44  2  0  0  0  0
 43 45  1  6  0  0  0
 43 42  1  0  0  0  0
 45 42  1  0  0  0  0
 46 44  1  1  0  0  0
 46 47  1  0  0  0  0
 47 48  1  0  0  0  0
 50 46  1  0  0  0  0
 50 49  1  0  0  0  0
 51 16  1  0  0  0  0
 52 51  1  0  0  0  0
 53 52  1  0  0  0  0
 55 62  1  0  0  0  0
 56 63  1  0  0  0  0
 58 60  1  0  0  0  0
 58 57  2  0  0  0  0
 60 53  1  0  0  0  0
 61 54  1  1  0  0  0
 61 64  1  0  0  0  0
 61 56  1  0  0  0  0
 62 67  1  6  0  0  0
 62 65  1  0  0  0  0
 63 65  1  0  0  0  0
 64 54  1  1  0  0  0
 64 55  1  0  0  0  0
 65 66  1  0  0  0  0
 65 59  1  1  0  0  0
 67 58  1  0  0  0  0
 68 60  1  0  0  0  0
 68 66  1  0  0  0  0
M  END
>  <MODEL>
5

>  <REMARK>
 VINA RESULT:      -6.3      3.001      8.005
  Name = 
  14 active torsions:
  status: ('A' for Active; 'I' for Inactive)
    1  A    between atoms: C_3  and  C_31
    2  A    between atoms: C_4  and  O_64
    3  A    between atoms: C_14  and  C_58
    4  A    between atoms: C_18  and  C_31
    5  A    between atoms: C_21  and  C_48
    6  A    between atoms: C_21  and  O_64
    7  A    between atoms: N_26  and  C_47
    8  A    between atoms: O_30  and  C_31
    9  A    between atoms: N_39  and  C_50
   10  A    between atoms: C_43  and  C_48
   11  A    between atoms: C_43  and  C_51
   12  A    between atoms: N_45  and  C_62
   13  A    between atoms: C_47  and  C_49
   14  A    between atoms: C_49  and  C_50
                            x       y       z     vdW  Elec       q    Type
                         _______ _______ _______ _____ _____    ______ ____

>  <TORSDO>
F 14

$$$$
=
 OpenBabel11042417363D

 68 78  0  0  1  0  0  0  0  0999 V2000
  191.0330  176.6110  142.7550 C   0  0  0  0  0  0  0  0  0  0  0  0
  186.0380  175.5970  142.9210 F   0  0  0  0  0  0  0  0  0  0  0  0
  192.8160  172.3780  144.8650 O   0  0  0  0  0  0  0  0  0  0  0  0
  190.0290  177.6320  142.7770 N   0  0  0  0  0  2  0  0  0  0  0  0
  194.0570  172.0450  144.2860 C   0  0  2  0  0  0  0  0  0  0  0  0
  191.6440  174.2410  142.5280 C   0  0  2  0  0  3  0  0  0  0  0  0
  193.0400  174.6390  142.3270 N   0  0  0  0  0  0  0  0  0  0  0  0
  189.7690  172.5260  139.8080 C   0  0  0  0  0  3  0  0  0  0  0  0
  194.5350  176.4490  142.1170 O   0  0  0  0  0  0  0  0  0  0  0  0
  195.1110  174.0260  141.4290 F   0  0  0  0  0  0  0  0  0  0  0  0
  192.4380  176.9900  143.0810 C   0  0  0  0  0  2  0  0  0  0  0  0
  194.0810  173.5860  142.2420 C   0  0  2  0  0  0  0  0  0  0  0  0
  193.8190  171.9310  145.7460 C   0  0  0  0  0  2  0  0  0  0  0  0
  194.2760  171.1330  142.0380 O   0  0  0  0  0  0  0  0  0  0  0  0
  193.5580  172.2650  141.5750 C   0  0  1  0  0  3  0  0  0  0  0  0
  191.7120  171.1740  140.3230 N   0  0  0  0  0  0  0  0  0  0  0  0
  193.3960  176.0320  142.4600 C   0  0  0  0  0  0  0  0  0  0  0  0
  187.7540  178.3310  142.6650 N   0  0  0  0  0  0  0  0  0  0  0  0
  186.5430  177.7600  142.3580 O   0  0  0  0  0  0  0  0  0  0  0  0
  191.2840  173.2570  141.5160 N   0  0  0  0  0  0  0  0  0  0  0  0
  194.6940  173.2760  143.6350 C   0  0  1  0  0  3  0  0  0  0  0  0
  190.2700  171.1470  140.0590 C   0  0  0  0  0  2  0  0  0  0  0  0
  192.0290  171.9930  141.5170 C   0  0  2  0  0  3  0  0  0  0  0  0
  190.7150  175.3790  142.5040 N   0  0  0  0  0  0  0  0  0  0  0  0
  193.8860  170.8290  143.3670 C   0  0  1  0  0  3  0  0  0  0  0  0
  188.6390  177.4090  142.5250 C   0  0  0  0  0  0  0  0  0  0  0  0
  186.6960  176.3910  142.0000 C   0  0  1  0  0  3  0  0  0  0  0  0
  188.0960  176.1990  142.1210 O   0  0  0  0  0  0  0  0  0  0  0  0
  190.2500  173.5150  140.5500 C   0  0  0  0  0  3  0  0  0  0  0  0
  196.7200  170.5890  143.1190 O   0  0  0  0  0  0  0  0  0  0  0  0
  194.6820  169.7110  143.8480 N   0  0  0  0  0  2  0  0  0  0  0  0
  196.8150  168.5170  144.1570 N   0  0  0  0  0  1  0  0  0  0  0  0
  196.0980  169.6490  143.6800 C   0  0  0  0  0  0  0  0  0  0  0  0
  194.9480  174.4910  144.5400 C   0  0  0  0  0  2  0  0  0  0  0  0
  193.9230  174.6080  145.6630 C   0  0  0  0  0  2  0  0  0  0  0  0
  194.9250  176.9500  145.6800 C   0  0  0  0  0  1  0  0  0  0  0  0
  193.9380  175.9850  146.3280 C   0  0  1  0  0  3  0  0  0  0  0  0
  192.6410  176.5280  146.4830 O   0  0  0  0  0  0  0  0  0  0  0  0
  191.6740  175.5140  146.3040 C   0  0  1  0  0  3  0  0  0  0  0  0
  190.9050  175.3790  147.4780 O   0  0  0  0  0  0  0  0  0  0  0  0
  190.2710  176.0270  146.3990 C   0  0  1  0  0  3  0  0  0  0  0  0
  188.9460  177.8020  147.2640 C   0  0  0  0  0  0  0  0  0  0  0  0
  190.1520  177.5410  146.6420 C   0  0  1  0  0  3  0  0  0  0  0  0
  187.6220  177.9180  147.2650 C   0  0  0  0  0  3  0  0  0  0  0  0
  190.2640  177.8560  147.9730 O   0  0  0  0  0  0  0  0  0  0  0  0
  186.8180  177.6940  146.0240 C   0  0  1  0  0  3  0  0  0  0  0  0
  185.6800  176.7050  146.2620 C   0  0  0  0  0  2  0  0  0  0  0  0
  185.7690  176.1440  147.5400 O   0  0  0  0  0  1  0  0  0  0  0  0
  184.9870  178.6280  145.1890 C   0  0  0  0  0  1  0  0  0  0  0  0
  186.3010  178.9110  145.5740 O   0  0  0  0  0  0  0  0  0  0  0  0
  192.1850  169.7920  140.4810 C   0  0  0  0  0  2  0  0  0  0  0  0
  192.7500  169.1740  139.1940 C   0  0  0  0  0  2  0  0  0  0  0  0
  194.2610  169.3700  139.0970 C   0  0  0  0  0  2  0  0  0  0  0  0
  197.2120  176.0430  136.0130 C   0  0  0  0  0  2  0  0  0  0  0  0
  196.2440  174.8830  137.8700 O   0  0  0  0  0  0  0  0  0  0  0  0
  195.0380  175.0270  135.3920 C   0  0  0  0  0  2  0  0  0  0  0  0
  196.5320  170.8760  139.7270 O   0  0  0  0  0  0  0  0  0  0  0  0
  195.8630  171.2580  138.7300 C   0  0  0  0  0  0  0  0  0  0  0  0
  193.3930  174.9230  137.8510 C   0  0  0  0  0  1  0  0  0  0  0  0
  194.6440  170.5900  138.3760 N   0  0  0  0  0  0  0  0  0  0  0  0
  196.5480  174.8220  135.4110 C   0  0  2  0  0  3  0  0  0  0  0  0
  195.5330  173.6690  138.0870 C   0  0  1  0  0  3  0  0  0  0  0  0
  194.3070  173.7660  135.8470 C   0  0  0  0  0  2  0  0  0  0  0  0
  197.1740  174.7560  136.8100 C   0  0  1  0  0  3  0  0  0  0  0  0
  194.1550  173.6930  137.3730 C   0  0  2  0  0  0  0  0  0  0  0  0
  193.2610  172.5040  137.7470 C   0  0  0  0  0  2  0  0  0  0  0  0
  196.3760  172.3880  137.9040 C   0  0  0  0  0  2  0  0  0  0  0  0
  193.8040  171.1480  137.3180 C   0  0  0  0  0  2  0  0  0  0  0  0
  1  4  1  0  0  0  0
  1 11  1  0  0  0  0
  3 13  1  0  0  0  0
  5  3  1  0  0  0  0
  5 13  1  1  0  0  0
  6 24  1  6  0  0  0
  7 17  1  0  0  0  0
  7  6  1  0  0  0  0
  8 22  1  0  0  0  0
  8 29  2  0  0  0  0
  9 17  2  0  0  0  0
 12 10  1  6  0  0  0
 12  7  1  0  0  0  0
 12 21  1  0  0  0  0
 14 25  1  0  0  0  0
 15 14  1  1  0  0  0
 15 12  1  0  0  0  0
 16 51  1  0  0  0  0
 17 11  1  0  0  0  0
 19 18  1  0  0  0  0
 20 23  1  0  0  0  0
 20  6  1  0  0  0  0
 21  5  1  0  0  0  0
 21 34  1  1  0  0  0
 22 16  1  0  0  0  0
 23 16  1  6  0  0  0
 23 15  1  0  0  0  0
 24  1  2  0  0  0  0
 25 31  1  1  0  0  0
 25  5  1  0  0  0  0
 26 18  2  0  0  0  0
 26  4  1  0  0  0  0
 27 28  1  0  0  0  0
 27 19  1  0  0  0  0
 27  2  1  1  0  0  0
 28 26  1  0  0  0  0
 29 20  1  0  0  0  0
 30 33  2  0  0  0  0
 33 31  1  0  0  0  0
 33 32  1  0  0  0  0
 34 35  1  0  0  0  0
 35 37  1  0  0  0  0
 37 36  1  6  0  0  0
 37 38  1  0  0  0  0
 39 41  1  0  0  0  0
 39 38  1  1  0  0  0
 39 40  1  0  0  0  0
 41 43  1  0  0  0  0
 41 40  1  1  0  0  0
 42 44  2  0  0  0  0
 42 45  1  0  0  0  0
 43 42  1  1  0  0  0
 43 45  1  0  0  0  0
 46 47  1  1  0  0  0
 46 44  1  0  0  0  0
 47 48  1  0  0  0  0
 49 50  1  0  0  0  0
 50 46  1  0  0  0  0
 52 51  1  0  0  0  0
 53 52  1  0  0  0  0
 55 62  1  0  0  0  0
 56 63  1  0  0  0  0
 58 57  2  0  0  0  0
 60 58  1  0  0  0  0
 60 53  1  0  0  0  0
 61 56  1  1  0  0  0
 61 54  1  0  0  0  0
 61 64  1  0  0  0  0
 62 67  1  6  0  0  0
 63 65  1  0  0  0  0
 64 54  1  6  0  0  0
 64 55  1  0  0  0  0
 65 66  1  0  0  0  0
 65 59  1  1  0  0  0
 65 62  1  0  0  0  0
 67 58  1  0  0  0  0
 68 66  1  0  0  0  0
 68 60  1  0  0  0  0
M  END
>  <MODEL>
6

>  <REMARK>
 VINA RESULT:      -6.2      2.519      6.104
  Name = 
  14 active torsions:
  status: ('A' for Active; 'I' for Inactive)
    1  A    between atoms: C_3  and  C_31
    2  A    between atoms: C_4  and  O_64
    3  A    between atoms: C_14  and  C_58
    4  A    between atoms: C_18  and  C_31
    5  A    between atoms: C_21  and  C_48
    6  A    between atoms: C_21  and  O_64
    7  A    between atoms: N_26  and  C_47
    8  A    between atoms: O_30  and  C_31
    9  A    between atoms: N_39  and  C_50
   10  A    between atoms: C_43  and  C_48
   11  A    between atoms: C_43  and  C_51
   12  A    between atoms: N_45  and  C_62
   13  A    between atoms: C_47  and  C_49
   14  A    between atoms: C_49  and  C_50
                            x       y       z     vdW  Elec       q    Type
                         _______ _______ _______ _____ _____    ______ ____

>  <TORSDO>
F 14

$$$$
=
 OpenBabel11042417363D

 68 78  0  0  1  0  0  0  0  0999 V2000
  192.9270  170.5890  139.8750 C   0  0  0  0  0  0  0  0  0  0  0  0
  189.1280  172.7940  137.2850 F   0  0  0  0  0  0  0  0  0  0  0  0
  194.5540  174.5730  142.5260 O   0  0  0  0  0  0  0  0  0  0  0  0
  192.4520  170.0980  138.6160 N   0  0  0  0  0  2  0  0  0  0  0  0
  195.0140  174.1480  143.7890 C   0  0  2  0  0  0  0  0  0  0  0  0
  192.6590  172.0850  141.8070 C   0  0  2  0  0  3  0  0  0  0  0  0
  193.6500  171.2890  142.5370 N   0  0  0  0  0  0  0  0  0  0  0  0
  189.1400  172.2640  143.0080 C   0  0  0  0  0  3  0  0  0  0  0  0
  195.0480  169.3940  142.4770 O   0  0  0  0  0  0  0  0  0  0  0  0
  194.4480  170.6630  144.6450 F   0  0  0  0  0  0  0  0  0  0  0  0
  194.2560  170.1210  140.3640 C   0  0  0  0  0  2  0  0  0  0  0  0
  194.1030  171.7570  143.8700 C   0  0  2  0  0  0  0  0  0  0  0  0
  195.7420  175.1680  142.9930 C   0  0  0  0  0  2  0  0  0  0  0  0
  193.5250  173.4400  145.5810 O   0  0  0  0  0  0  0  0  0  0  0  0
  192.9780  172.5000  144.6710 C   0  0  1  0  0  3  0  0  0  0  0  0
  190.5650  173.0740  144.7920 N   0  0  0  0  0  0  0  0  0  0  0  0
  194.3320  170.2190  141.8490 C   0  0  0  0  0  0  0  0  0  0  0  0
  190.8820  170.1120  136.8230 N   0  0  0  0  0  0  0  0  0  0  0  0
  189.6630  170.6860  136.5640 O   0  0  0  0  0  0  0  0  0  0  0  0
  191.5130  172.3230  142.6750 N   0  0  0  0  0  0  0  0  0  0  0  0
  195.3650  172.6570  143.7590 C   0  0  1  0  0  3  0  0  0  0  0  0
  189.3330  173.3230  144.0360 C   0  0  0  0  0  2  0  0  0  0  0  0
  191.7540  173.0800  143.9090 C   0  0  2  0  0  3  0  0  0  0  0  0
  192.2370  171.4580  140.5470 N   0  0  0  0  0  0  0  0  0  0  0  0
  194.0110  174.5670  144.8700 C   0  0  1  0  0  3  0  0  0  0  0  0
  191.2200  170.4900  138.0050 C   0  0  0  0  0  0  0  0  0  0  0  0
  189.2160  171.4680  137.6650 C   0  0  1  0  0  3  0  0  0  0  0  0
  190.2730  171.3100  138.5990 O   0  0  0  0  0  0  0  0  0  0  0  0
  190.2040  171.8290  142.3450 C   0  0  0  0  0  3  0  0  0  0  0  0
  193.3670  177.3340  145.1450 O   0  0  0  0  0  0  0  0  0  0  0  0
  194.6300  175.4870  145.8110 N   0  0  0  0  0  2  0  0  0  0  0  0
  194.9260  177.7150  146.8190 N   0  0  0  0  0  1  0  0  0  0  0  0
  194.2680  176.8650  145.8880 C   0  0  0  0  0  0  0  0  0  0  0  0
  196.4200  172.2090  142.7360 C   0  0  0  0  0  2  0  0  0  0  0  0
  196.4020  173.0550  141.4680 C   0  0  0  0  0  2  0  0  0  0  0  0
  197.9410  171.3500  140.3670 C   0  0  0  0  0  1  0  0  0  0  0  0
  197.6360  172.8270  140.5950 C   0  0  1  0  0  3  0  0  0  0  0  0
  197.6050  173.5850  139.4000 O   0  0  0  0  0  0  0  0  0  0  0  0
  196.3570  174.2380  139.2820 C   0  0  1  0  0  3  0  0  0  0  0  0
  196.5580  175.6280  139.1630 O   0  0  0  0  0  0  0  0  0  0  0  0
  196.2000  174.9550  137.9770 C   0  0  1  0  0  3  0  0  0  0  0  0
  196.9250  174.7000  135.7270 C   0  0  0  0  0  0  0  0  0  0  0  0
  197.3970  174.8240  137.0200 C   0  0  1  0  0  3  0  0  0  0  0  0
  196.3440  174.0190  134.7450 C   0  0  0  0  0  3  0  0  0  0  0  0
  197.5630  175.9490  136.2520 O   0  0  0  0  0  0  0  0  0  0  0  0
  195.8880  172.6080  134.9380 C   0  0  1  0  0  3  0  0  0  0  0  0
  197.0600  171.6700  135.2150 C   0  0  0  0  0  2  0  0  0  0  0  0
  197.0810  171.2860  136.5590 O   0  0  0  0  0  1  0  0  0  0  0  0
  193.7600  172.9680  135.4470 C   0  0  0  0  0  1  0  0  0  0  0  0
  194.9760  172.5500  135.9940 O   0  0  0  0  0  0  0  0  0  0  0  0
  190.6770  174.0870  145.8500 C   0  0  0  0  0  2  0  0  0  0  0  0
  189.3320  174.5160  146.4500 C   0  0  0  0  0  2  0  0  0  0  0  0
  189.1680  176.0350  146.4270 C   0  0  0  0  0  2  0  0  0  0  0  0
  184.7140  178.6610  140.4270 C   0  0  0  0  0  2  0  0  0  0  0  0
  186.4980  179.0230  141.9810 O   0  0  0  0  0  0  0  0  0  0  0  0
  183.9320  178.3740  142.7610 C   0  0  0  0  0  2  0  0  0  0  0  0
  189.7910  176.6740  143.7770 O   0  0  0  0  0  0  0  0  0  0  0  0
  188.5750  176.7370  144.1000 C   0  0  0  0  0  0  0  0  0  0  0  0
  185.6160  180.1160  144.4620 C   0  0  0  0  0  1  0  0  0  0  0  0
  188.1710  176.4970  145.4540 N   0  0  0  0  0  0  0  0  0  0  0  0
  184.4800  177.6550  141.5340 C   0  0  2  0  0  3  0  0  0  0  0  0
  186.9580  178.4420  143.1970 C   0  0  1  0  0  3  0  0  0  0  0  0
  184.6110  177.8800  144.0370 C   0  0  0  0  0  2  0  0  0  0  0  0
  185.9070  178.0550  141.1350 C   0  0  1  0  0  3  0  0  0  0  0  0
  185.9180  178.6290  144.3340 C   0  0  2  0  0  0  0  0  0  0  0  0
  186.4500  178.2130  145.7120 C   0  0  0  0  0  2  0  0  0  0  0  0
  187.5620  177.0280  143.0460 C   0  0  0  0  0  2  0  0  0  0  0  0
  186.7800  176.7310  145.8380 C   0  0  0  0  0  2  0  0  0  0  0  0
  1 11  1  0  0  0  0
  1 24  2  0  0  0  0
  3 13  1  0  0  0  0
  3  5  1  0  0  0  0
  4  1  1  0  0  0  0
  5 13  1  1  0  0  0
  5 25  1  0  0  0  0
  6 24  1  6  0  0  0
  6  7  1  0  0  0  0
  6 20  1  0  0  0  0
  7 12  1  0  0  0  0
  8 22  1  0  0  0  0
 11 17  1  0  0  0  0
 12 10  1  1  0  0  0
 12 15  1  0  0  0  0
 15 14  1  6  0  0  0
 16 51  1  0  0  0  0
 17  9  2  0  0  0  0
 17  7  1  0  0  0  0
 18 26  2  0  0  0  0
 19 18  1  0  0  0  0
 19 27  1  0  0  0  0
 21 34  1  6  0  0  0
 21  5  1  0  0  0  0
 21 12  1  0  0  0  0
 22 16  1  0  0  0  0
 23 20  1  6  0  0  0
 23 15  1  0  0  0  0
 23 16  1  0  0  0  0
 25 14  1  0  0  0  0
 25 31  1  1  0  0  0
 26 28  1  0  0  0  0
 26  4  1  0  0  0  0
 27  2  1  6  0  0  0
 27 28  1  0  0  0  0
 29 20  1  0  0  0  0
 29  8  2  0  0  0  0
 30 33  2  0  0  0  0
 31 33  1  0  0  0  0
 33 32  1  0  0  0  0
 35 34  1  0  0  0  0
 37 36  1  6  0  0  0
 37 35  1  0  0  0  0
 38 37  1  0  0  0  0
 39 38  1  6  0  0  0
 40 39  1  0  0  0  0
 41 40  1  1  0  0  0
 41 39  1  0  0  0  0
 42 45  1  0  0  0  0
 43 42  1  6  0  0  0
 43 41  1  0  0  0  0
 44 42  2  0  0  0  0
 45 43  1  0  0  0  0
 46 44  1  1  0  0  0
 46 47  1  0  0  0  0
 46 50  1  0  0  0  0
 47 48  1  0  0  0  0
 49 50  1  0  0  0  0
 51 52  1  0  0  0  0
 53 52  1  0  0  0  0
 55 62  1  0  0  0  0
 56 63  1  0  0  0  0
 57 58  2  0  0  0  0
 58 60  1  0  0  0  0
 60 68  1  0  0  0  0
 60 53  1  0  0  0  0
 61 54  1  6  0  0  0
 61 56  1  0  0  0  0
 62 67  1  6  0  0  0
 62 65  1  0  0  0  0
 63 65  1  0  0  0  0
 64 54  1  6  0  0  0
 64 61  1  0  0  0  0
 64 55  1  0  0  0  0
 65 59  1  1  0  0  0
 65 66  1  0  0  0  0
 66 68  1  0  0  0  0
 67 58  1  0  0  0  0
M  END
>  <MODEL>
7

>  <REMARK>
 VINA RESULT:      -6.1      2.879      8.969
  Name = 
  14 active torsions:
  status: ('A' for Active; 'I' for Inactive)
    1  A    between atoms: C_3  and  C_31
    2  A    between atoms: C_4  and  O_64
    3  A    between atoms: C_14  and  C_58
    4  A    between atoms: C_18  and  C_31
    5  A    between atoms: C_21  and  C_48
    6  A    between atoms: C_21  and  O_64
    7  A    between atoms: N_26  and  C_47
    8  A    between atoms: O_30  and  C_31
    9  A    between atoms: N_39  and  C_50
   10  A    between atoms: C_43  and  C_48
   11  A    between atoms: C_43  and  C_51
   12  A    between atoms: N_45  and  C_62
   13  A    between atoms: C_47  and  C_49
   14  A    between atoms: C_49  and  C_50
                            x       y       z     vdW  Elec       q    Type
                         _______ _______ _______ _____ _____    ______ ____

>  <TORSDO>
F 14

$$$$
=
 OpenBabel11042417363D

 68 78  0  0  1  0  0  0  0  0999 V2000
  190.1570  175.0300  141.5830 C   0  0  0  0  0  0  0  0  0  0  0  0
  189.1750  172.1810  137.4690 F   0  0  0  0  0  0  0  0  0  0  0  0
  193.3920  171.9650  143.9690 O   0  0  0  0  0  0  0  0  0  0  0  0
  188.9460  175.1420  140.8260 N   0  0  0  0  0  2  0  0  0  0  0  0
  194.3550  172.7320  144.6560 C   0  0  2  0  0  0  0  0  0  0  0  0
  192.4400  174.1470  141.8160 C   0  0  2  0  0  3  0  0  0  0  0  0
  192.6850  175.1170  142.8870 N   0  0  0  0  0  0  0  0  0  0  0  0
  194.3790  174.3200  138.6430 C   0  0  0  0  0  3  0  0  0  0  0  0
  191.7970  176.9150  144.1230 O   0  0  0  0  0  0  0  0  0  0  0  0
  194.3090  176.3170  144.0680 F   0  0  0  0  0  0  0  0  0  0  0  0
  190.1950  175.6170  142.9540 C   0  0  0  0  0  2  0  0  0  0  0  0
  193.9630  175.0470  143.6370 C   0  0  2  0  0  0  0  0  0  0  0  0
  193.7360  171.5270  145.2620 C   0  0  0  0  0  2  0  0  0  0  0  0
  196.1580  173.9230  143.5330 O   0  0  0  0  0  0  0  0  0  0  0  0
  195.1650  174.5650  142.7510 C   0  0  1  0  0  3  0  0  0  0  0  0
  195.9630  174.0510  140.4560 N   0  0  0  0  0  0  0  0  0  0  0  0
  191.5950  175.9460  143.3430 C   0  0  0  0  0  0  0  0  0  0  0  0
  187.6150  174.6190  138.9200 N   0  0  0  0  0  0  0  0  0  0  0  0
  187.7980  173.9960  137.7110 O   0  0  0  0  0  0  0  0  0  0  0  0
  193.5680  174.1670  140.8940 N   0  0  0  0  0  0  0  0  0  0  0  0
  193.8350  174.1530  144.9000 C   0  0  1  0  0  3  0  0  0  0  0  0
  195.5930  173.5980  139.1120 C   0  0  0  0  0  2  0  0  0  0  0  0
  194.8800  173.7930  141.4340 C   0  0  2  0  0  3  0  0  0  0  0  0
  191.1780  174.3890  141.1030 N   0  0  0  0  0  0  0  0  0  0  0  0
  195.7010  172.6400  143.9280 C   0  0  1  0  0  3  0  0  0  0  0  0
  188.7520  174.5930  139.5200 C   0  0  0  0  0  0  0  0  0  0  0  0
  189.1430  173.5600  137.5530 C   0  0  1  0  0  3  0  0  0  0  0  0
  189.7420  173.9760  138.7700 O   0  0  0  0  0  0  0  0  0  0  0  0
  193.4070  174.5470  139.5170 C   0  0  0  0  0  3  0  0  0  0  0  0
  196.3200  169.8540  144.0160 O   0  0  0  0  0  0  0  0  0  0  0  0
  196.7030  172.0260  144.7860 N   0  0  0  0  0  2  0  0  0  0  0  0
  197.9360  170.0830  145.6650 N   0  0  0  0  0  1  0  0  0  0  0  0
  196.9540  170.6210  144.7880 C   0  0  0  0  0  0  0  0  0  0  0  0
  192.5240  174.2900  145.6880 C   0  0  0  0  0  2  0  0  0  0  0  0
  192.6530  175.2330  146.8790 C   0  0  0  0  0  2  0  0  0  0  0  0
  191.4130  176.7590  148.4980 C   0  0  0  0  0  1  0  0  0  0  0  0
  191.2960  175.7070  147.4000 C   0  0  1  0  0  3  0  0  0  0  0  0
  190.4130  176.0760  146.3590 O   0  0  0  0  0  0  0  0  0  0  0  0
  189.2710  175.2450  146.3850 C   0  0  1  0  0  3  0  0  0  0  0  0
  188.6010  175.3940  147.6160 O   0  0  0  0  0  0  0  0  0  0  0  0
  187.9940  176.0160  146.5060 C   0  0  1  0  0  3  0  0  0  0  0  0
  186.9670  178.1400  146.2080 C   0  0  0  0  0  0  0  0  0  0  0  0
  188.1650  177.5440  146.5540 C   0  0  1  0  0  3  0  0  0  0  0  0
  186.0370  178.4900  145.3260 C   0  0  0  0  0  3  0  0  0  0  0  0
  187.4900  178.1020  147.6110 O   0  0  0  0  0  0  0  0  0  0  0  0
  186.1770  178.1620  143.8730 C   0  0  1  0  0  3  0  0  0  0  0  0
  185.6880  176.7490  143.5650 C   0  0  0  0  0  2  0  0  0  0  0  0
  186.7520  175.9310  143.1750 O   0  0  0  0  0  1  0  0  0  0  0  0
  184.2180  178.4860  142.8840 C   0  0  0  0  0  1  0  0  0  0  0  0
  185.4590  179.0880  143.1120 O   0  0  0  0  0  0  0  0  0  0  0  0
  197.2100  173.3810  140.8500 C   0  0  0  0  0  2  0  0  0  0  0  0
  197.0720  171.8650  141.0380 C   0  0  0  0  0  2  0  0  0  0  0  0
  197.5220  171.1030  139.7930 C   0  0  0  0  0  2  0  0  0  0  0  0
  191.9710  168.8490  134.6110 C   0  0  0  0  0  2  0  0  0  0  0  0
  193.1010  170.6010  135.7890 O   0  0  0  0  0  0  0  0  0  0  0  0
  191.8640  168.4870  137.0610 C   0  0  0  0  0  2  0  0  0  0  0  0
  197.2370  171.5500  137.0470 O   0  0  0  0  0  0  0  0  0  0  0  0
  196.3810  170.7990  137.5860 C   0  0  0  0  0  0  0  0  0  0  0  0
  191.9520  171.1560  138.3390 C   0  0  0  0  0  1  0  0  0  0  0  0
  196.4050  170.5720  139.0020 N   0  0  0  0  0  0  0  0  0  0  0  0
  192.6370  168.1660  135.7870 C   0  0  2  0  0  3  0  0  0  0  0  0
  193.9540  170.7150  136.9230 C   0  0  1  0  0  3  0  0  0  0  0  0
  192.8120  168.8250  138.2090 C   0  0  0  0  0  2  0  0  0  0  0  0
  193.3000  169.3730  135.1120 C   0  0  1  0  0  3  0  0  0  0  0  0
  193.2120  170.3070  138.2240 C   0  0  2  0  0  0  0  0  0  0  0  0
  194.0130  170.6130  139.4960 C   0  0  0  0  0  2  0  0  0  0  0  0
  195.3670  170.1230  136.7280 C   0  0  0  0  0  2  0  0  0  0  0  0
  195.3120  169.8290  139.6260 C   0  0  0  0  0  2  0  0  0  0  0  0
  1 11  1  0  0  0  0
  3  5  1  0  0  0  0
  3 13  1  0  0  0  0
  4  1  1  0  0  0  0
  5 21  1  0  0  0  0
  5 13  1  1  0  0  0
  6 24  1  6  0  0  0
  6  7  1  0  0  0  0
  7 17  1  0  0  0  0
  7 12  1  0  0  0  0
  8 22  1  0  0  0  0
  8 29  2  0  0  0  0
 11 17  1  0  0  0  0
 12 10  1  1  0  0  0
 12 21  1  0  0  0  0
 14 25  1  0  0  0  0
 15 14  1  1  0  0  0
 15 12  1  0  0  0  0
 16 51  1  0  0  0  0
 17  9  2  0  0  0  0
 18 26  2  0  0  0  0
 19 18  1  0  0  0  0
 20 23  1  0  0  0  0
 20  6  1  0  0  0  0
 21 34  1  6  0  0  0
 22 16  1  0  0  0  0
 23 16  1  6  0  0  0
 23 15  1  0  0  0  0
 24  1  2  0  0  0  0
 25  5  1  0  0  0  0
 25 31  1  1  0  0  0
 26  4  1  0  0  0  0
 27  2  1  1  0  0  0
 27 19  1  0  0  0  0
 27 28  1  0  0  0  0
 28 26  1  0  0  0  0
 29 20  1  0  0  0  0
 30 33  2  0  0  0  0
 31 33  1  0  0  0  0
 33 32  1  0  0  0  0
 34 35  1  0  0  0  0
 35 37  1  0  0  0  0
 37 36  1  1  0  0  0
 38 37  1  0  0  0  0
 39 38  1  1  0  0  0
 39 41  1  0  0  0  0
 39 40  1  0  0  0  0
 41 43  1  0  0  0  0
 41 40  1  1  0  0  0
 42 45  1  0  0  0  0
 43 42  1  6  0  0  0
 43 45  1  0  0  0  0
 44 42  2  0  0  0  0
 46 47  1  1  0  0  0
 46 44  1  0  0  0  0
 48 47  1  0  0  0  0
 49 50  1  0  0  0  0
 50 46  1  0  0  0  0
 51 52  1  0  0  0  0
 53 52  1  0  0  0  0
 55 62  1  0  0  0  0
 56 63  1  0  0  0  0
 57 58  2  0  0  0  0
 58 60  1  0  0  0  0
 60 68  1  0  0  0  0
 60 53  1  0  0  0  0
 61 54  1  6  0  0  0
 61 56  1  0  0  0  0
 62 67  1  6  0  0  0
 62 65  1  0  0  0  0
 63 65  1  0  0  0  0
 64 54  1  6  0  0  0
 64 61  1  0  0  0  0
 64 55  1  0  0  0  0
 65 59  1  1  0  0  0
 65 66  1  0  0  0  0
 66 68  1  0  0  0  0
 67 58  1  0  0  0  0
M  END
>  <MODEL>
8

>  <REMARK>
 VINA RESULT:      -5.9      2.804      7.446
  Name = 
  14 active torsions:
  status: ('A' for Active; 'I' for Inactive)
    1  A    between atoms: C_3  and  C_31
    2  A    between atoms: C_4  and  O_64
    3  A    between atoms: C_14  and  C_58
    4  A    between atoms: C_18  and  C_31
    5  A    between atoms: C_21  and  C_48
    6  A    between atoms: C_21  and  O_64
    7  A    between atoms: N_26  and  C_47
    8  A    between atoms: O_30  and  C_31
    9  A    between atoms: N_39  and  C_50
   10  A    between atoms: C_43  and  C_48
   11  A    between atoms: C_43  and  C_51
   12  A    between atoms: N_45  and  C_62
   13  A    between atoms: C_47  and  C_49
   14  A    between atoms: C_49  and  C_50
                            x       y       z     vdW  Elec       q    Type
                         _______ _______ _______ _____ _____    ______ ____

>  <TORSDO>
F 14

$$$$
=
 OpenBabel11042417363D

 68 78  0  0  1  0  0  0  0  0999 V2000
  189.7430  177.1190  142.8780 C   0  0  0  0  0  0  0  0  0  0  0  0
  184.6610  176.7910  142.6040 F   0  0  0  0  0  0  0  0  0  0  0  0
  190.8390  172.2870  143.8820 O   0  0  0  0  0  0  0  0  0  0  0  0
  188.8740  178.2290  143.1290 N   0  0  0  0  0  2  0  0  0  0  0  0
  192.0660  171.9440  143.2790 C   0  0  2  0  0  0  0  0  0  0  0  0
  190.0700  174.8210  142.0680 C   0  0  2  0  0  3  0  0  0  0  0  0
  191.5150  175.0620  142.0250 N   0  0  0  0  0  0  0  0  0  0  0  0
  188.1880  174.1210  138.9330 C   0  0  0  0  0  3  0  0  0  0  0  0
  193.2330  176.6430  142.3420 O   0  0  0  0  0  0  0  0  0  0  0  0
  193.5510  174.4170  141.0710 F   0  0  0  0  0  0  0  0  0  0  0  0
  191.1580  177.2060  143.3400 C   0  0  0  0  0  2  0  0  0  0  0  0
  192.4200  173.9310  141.7060 C   0  0  2  0  0  0  0  0  0  0  0  0
  191.7160  171.4990  144.6520 C   0  0  0  0  0  2  0  0  0  0  0  0
  192.3240  171.6060  140.8820 O   0  0  0  0  0  0  0  0  0  0  0  0
  191.7850  172.9060  140.7030 C   0  0  1  0  0  3  0  0  0  0  0  0
  189.9090  172.4300  139.1480 N   0  0  0  0  0  0  0  0  0  0  0  0
  192.0310  176.3140  142.5260 C   0  0  0  0  0  0  0  0  0  0  0  0
  186.7150  179.2390  143.1230 N   0  0  0  0  0  0  0  0  0  0  0  0
  185.4680  178.9350  142.6370 O   0  0  0  0  0  0  0  0  0  0  0  0
  189.6610  174.1830  140.8240 N   0  0  0  0  0  0  0  0  0  0  0  0
  192.8940  173.2000  142.9920 C   0  0  1  0  0  3  0  0  0  0  0  0
  188.4960  172.6680  138.8360 C   0  0  0  0  0  2  0  0  0  0  0  0
  190.2430  172.8700  140.5230 C   0  0  2  0  0  3  0  0  0  0  0  0
  189.2920  176.0450  142.3070 N   0  0  0  0  0  0  0  0  0  0  0  0
  191.8090  171.0340  142.0720 C   0  0  1  0  0  3  0  0  0  0  0  0
  187.4870  178.2690  142.7810 C   0  0  0  0  0  0  0  0  0  0  0  0
  185.4740  177.6930  141.9430 C   0  0  1  0  0  3  0  0  0  0  0  0
  186.8280  177.2860  142.0590 O   0  0  0  0  0  0  0  0  0  0  0  0
  188.7360  174.8150  139.9220 C   0  0  0  0  0  3  0  0  0  0  0  0
  194.5980  170.4700  141.8360 O   0  0  0  0  0  0  0  0  0  0  0  0
  192.4260  169.7320  142.2750 N   0  0  0  0  0  2  0  0  0  0  0  0
  194.3660  168.2150  142.3210 N   0  0  0  0  0  1  0  0  0  0  0  0
  193.8300  169.5170  142.1280 C   0  0  0  0  0  0  0  0  0  0  0  0
  193.2330  174.1010  144.1890 C   0  0  0  0  0  2  0  0  0  0  0  0
  192.0710  174.2370  145.1660 C   0  0  0  0  0  2  0  0  0  0  0  0
  193.3190  176.1740  146.2510 C   0  0  0  0  0  1  0  0  0  0  0  0
  192.4810  174.9190  146.4720 C   0  0  1  0  0  3  0  0  0  0  0  0
  191.3880  175.1210  147.3470 O   0  0  0  0  0  0  0  0  0  0  0  0
  191.1340  176.5040  147.4830 C   0  0  1  0  0  3  0  0  0  0  0  0
  190.7000  177.0320  146.2500 O   0  0  0  0  0  0  0  0  0  0  0  0
  189.7020  176.8590  147.2300 C   0  0  1  0  0  3  0  0  0  0  0  0
  187.7520  176.1010  146.0990 C   0  0  0  0  0  0  0  0  0  0  0  0
  188.7900  175.6650  146.9010 C   0  0  1  0  0  3  0  0  0  0  0  0
  186.6100  176.7490  145.8990 C   0  0  0  0  0  3  0  0  0  0  0  0
  188.8990  175.2850  145.5870 O   0  0  0  0  0  0  0  0  0  0  0  0
  185.8990  177.4410  147.0190 C   0  0  1  0  0  3  0  0  0  0  0  0
  186.3740  178.8830  147.1820 C   0  0  0  0  0  2  0  0  0  0  0  0
  187.0610  179.0450  148.3890 O   0  0  0  0  0  1  0  0  0  0  0  0
  184.2430  178.6310  146.1480 C   0  0  0  0  0  1  0  0  0  0  0  0
  184.5230  177.4190  146.7860 O   0  0  0  0  0  0  0  0  0  0  0  0
  190.1950  171.0010  138.9580 C   0  0  0  0  0  2  0  0  0  0  0  0
  190.2930  170.5730  137.4880 C   0  0  0  0  0  2  0  0  0  0  0  0
  191.6760  170.0140  137.1580 C   0  0  0  0  0  2  0  0  0  0  0  0
  196.7830  175.9590  136.0140 C   0  0  0  0  0  2  0  0  0  0  0  0
  195.7460  173.9530  135.2210 O   0  0  0  0  0  0  0  0  0  0  0  0
  197.1000  174.0990  137.6210 C   0  0  0  0  0  2  0  0  0  0  0  0
  191.7240  172.1050  135.3020 O   0  0  0  0  0  0  0  0  0  0  0  0
  192.6280  172.1120  136.1800 C   0  0  0  0  0  0  0  0  0  0  0  0
  197.1020  171.5870  136.0540 C   0  0  0  0  0  1  0  0  0  0  0  0
  192.7250  171.0410  137.1280 N   0  0  0  0  0  0  0  0  0  0  0  0
  196.2240  175.2910  137.2520 C   0  0  2  0  0  3  0  0  0  0  0  0
  194.9900  172.8790  135.7730 C   0  0  1  0  0  3  0  0  0  0  0  0
  196.2500  172.8880  137.9960 C   0  0  0  0  0  2  0  0  0  0  0  0
  195.4980  175.1670  135.9070 C   0  0  1  0  0  3  0  0  0  0  0  0
  195.8430  172.0530  136.7740 C   0  0  2  0  0  0  0  0  0  0  0  0
  195.1500  170.7640  137.2350 C   0  0  0  0  0  2  0  0  0  0  0  0
  193.5700  173.2650  136.2410 C   0  0  0  0  0  2  0  0  0  0  0  0
  193.8720  170.9870  138.0320 C   0  0  0  0  0  2  0  0  0  0  0  0
  1  4  1  0  0  0  0
  1 11  1  0  0  0  0
  3 13  1  0  0  0  0
  5  3  1  0  0  0  0
  5 13  1  1  0  0  0
  6 24  1  6  0  0  0
  7  6  1  0  0  0  0
  7 17  1  0  0  0  0
  8 29  2  0  0  0  0
  9 17  2  0  0  0  0
 12 10  1  6  0  0  0
 12  7  1  0  0  0  0
 12 21  1  0  0  0  0
 14 25  1  0  0  0  0
 15 14  1  1  0  0  0
 15 12  1  0  0  0  0
 17 11  1  0  0  0  0
 19 18  1  0  0  0  0
 20  6  1  0  0  0  0
 21  5  1  0  0  0  0
 21 34  1  1  0  0  0
 22  8  1  0  0  0  0
 22 16  1  0  0  0  0
 23 16  1  6  0  0  0
 23 15  1  0  0  0  0
 23 20  1  0  0  0  0
 24  1  2  0  0  0  0
 25 31  1  1  0  0  0
 25  5  1  0  0  0  0
 26 18  2  0  0  0  0
 26  4  1  0  0  0  0
 27 28  1  0  0  0  0
 27  2  1  1  0  0  0
 27 19  1  0  0  0  0
 28 26  1  0  0  0  0
 29 20  1  0  0  0  0
 30 33  2  0  0  0  0
 33 31  1  0  0  0  0
 33 32  1  0  0  0  0
 34 35  1  0  0  0  0
 35 37  1  0  0  0  0
 37 36  1  6  0  0  0
 37 38  1  0  0  0  0
 39 38  1  6  0  0  0
 40 39  1  0  0  0  0
 41 40  1  6  0  0  0
 41 39  1  0  0  0  0
 42 43  1  0  0  0  0
 43 45  1  6  0  0  0
 43 41  1  0  0  0  0
 44 42  2  0  0  0  0
 45 42  1  0  0  0  0
 46 44  1  6  0  0  0
 46 47  1  0  0  0  0
 47 48  1  0  0  0  0
 49 50  1  0  0  0  0
 50 46  1  0  0  0  0
 51 16  1  0  0  0  0
 52 51  1  0  0  0  0
 53 52  1  0  0  0  0
 55 62  1  0  0  0  0
 55 64  1  0  0  0  0
 56 63  1  0  0  0  0
 57 58  2  0  0  0  0
 58 67  1  0  0  0  0
 58 60  1  0  0  0  0
 60 53  1  0  0  0  0
 60 68  1  0  0  0  0
 61 54  1  6  0  0  0
 61 56  1  0  0  0  0
 62 67  1  1  0  0  0
 62 65  1  0  0  0  0
 64 54  1  6  0  0  0
 64 61  1  0  0  0  0
 65 59  1  6  0  0  0
 65 66  1  0  0  0  0
 65 63  1  0  0  0  0
 66 68  1  0  0  0  0
M  END
>  <MODEL>
9

>  <REMARK>
 VINA RESULT:      -5.7      2.407      5.751
  Name = 
  14 active torsions:
  status: ('A' for Active; 'I' for Inactive)
    1  A    between atoms: C_3  and  C_31
    2  A    between atoms: C_4  and  O_64
    3  A    between atoms: C_14  and  C_58
    4  A    between atoms: C_18  and  C_31
    5  A    between atoms: C_21  and  C_48
    6  A    between atoms: C_21  and  O_64
    7  A    between atoms: N_26  and  C_47
    8  A    between atoms: O_30  and  C_31
    9  A    between atoms: N_39  and  C_50
   10  A    between atoms: C_43  and  C_48
   11  A    between atoms: C_43  and  C_51
   12  A    between atoms: N_45  and  C_62
   13  A    between atoms: C_47  and  C_49
   14  A    between atoms: C_49  and  C_50
                            x       y       z     vdW  Elec       q    Type
                         _______ _______ _______ _____ _____    ______ ____

>  <TORSDO>
F 14

$$$$
