=
 OpenBabel11042417233D

 56 59  0  0  1  0  0  0  0  0999 V2000
  189.5640  175.4460  144.7190 C   0  0  0  0  0  3  0  0  0  0  0  0
  191.7560  174.3940  144.6060 C   0  0  0  0  0  0  0  0  0  0  0  0
  189.7070  175.6000  146.1020 C   0  0  0  0  0  3  0  0  0  0  0  0
  191.8680  174.5400  145.9980 C   0  0  0  0  0  3  0  0  0  0  0  0
  190.9810  175.2720  148.1190 O   0  0  0  0  0  1  0  0  0  0  0  0
  190.8510  175.1330  146.7420 C   0  0  0  0  0  0  0  0  0  0  0  0
  190.5740  174.8350  143.9620 C   0  0  0  0  0  0  0  0  0  0  0  0
  192.8310  173.6950  143.8630 C   0  0  0  0  0  0  0  0  0  0  0  0
  192.8520  172.4070  143.8540 N   0  0  0  0  0  2  0  0  0  0  0  0
  193.9670  174.3850  143.3330 N   0  0  0  0  0  2  0  0  0  0  0  0
  195.8150  176.1820  141.2980 C   0  0  2  0  0  3  0  0  0  0  0  0
  196.6430  175.2730  142.2020 C   0  0  0  0  0  2  0  0  0  0  0  0
  194.0820  175.8340  143.1750 C   0  0  2  0  0  3  0  0  0  0  0  0
  194.3300  176.1740  141.6920 C   0  0  0  0  0  2  0  0  0  0  0  0
  195.2270  176.3700  144.0440 C   0  0  2  0  0  3  0  0  0  0  0  0
  196.5730  175.7420  143.6560 C   0  0  0  0  0  2  0  0  0  0  0  0
  194.9540  176.1260  145.5090 C   0  0  0  0  0  1  0  0  0  0  0  0
  195.9480  175.8160  139.9570 O   0  0  0  0  0  0  0  0  0  0  0  0
  195.7510  174.4310  139.9080 C   0  0  0  0  0  2  0  0  0  0  0  0
  195.5240  174.0180  138.5900 O   0  0  0  0  0  0  0  0  0  0  0  0
  194.3650  174.6270  138.2380 N   0  0  0  0  0  2  0  0  0  0  0  0
  193.7940  173.8830  137.1170 C   0  0  1  0  0  3  0  0  0  0  0  0
  192.3250  172.0680  136.7920 O   0  0  0  0  0  0  0  0  0  0  0  0
  192.6790  172.9560  137.5430 C   0  0  0  0  0  0  0  0  0  0  0  0
  192.0330  173.0390  138.9020 C   0  0  1  0  0  3  0  0  0  0  0  0
  190.5280  172.7580  138.8910 C   0  0  0  0  0  2  0  0  0  0  0  0
  189.8470  173.7700  138.2130 O   0  0  0  0  0  1  0  0  0  0  0  0
  192.6820  172.1950  139.8050 O   0  0  0  0  0  0  0  0  0  0  0  0
  192.1690  169.9860  139.7250 O   0  0  0  0  0  1  0  0  0  0  0  0
  191.7370  171.2350  140.1600 C   0  0  0  0  0  2  0  0  0  0  0  0
  193.4380  174.7000  136.0160 O   0  0  0  0  0  0  0  0  0  0  0  0
  192.5850  175.7420  136.4180 C   0  0  0  0  0  3  0  0  0  0  0  0
  192.8250  176.9510  135.5270 C   0  0  0  0  0  2  0  0  0  0  0  0
  191.6090  176.0910  135.3070 C   0  0  0  0  0  2  0  0  0  0  0  0
  190.4170  174.6890  142.5410 N   0  0  0  0  0  2  0  0  0  0  0  0
  189.1330  174.5100  141.8840 C   0  0  1  0  0  3  0  0  0  0  0  0
  187.4210  172.8290  141.7640 O   0  0  0  0  0  0  0  0  0  0  0  0
  189.3810  172.1770  142.8190 N   0  0  0  0  0  1  0  0  0  0  0  0
  188.5800  173.1410  142.1490 C   0  0  0  0  0  0  0  0  0  0  0  0
  188.1640  175.6050  142.3000 C   0  0  0  0  0  2  0  0  0  0  0  0
  187.4650  176.1540  141.1450 N   0  0  0  0  0  2  0  0  0  0  0  0
  187.7010  177.5860  141.1210 C   0  0  2  0  0  3  0  0  0  0  0  0
  188.7250  177.9500  142.1840 C   0  0  0  0  0  1  0  0  0  0  0  0
  186.3460  178.8550  142.6220 C   0  0  0  0  0  2  0  0  0  0  0  0
  186.4280  178.2880  141.2900 N   0  0  0  0  0  0  0  0  0  0  0  0
  184.8800  178.8610  142.9290 C   0  0  1  0  0  3  0  0  0  0  0  0
  184.3250  177.9770  141.8420 C   0  0  0  0  0  2  0  0  0  0  0  0
  185.4050  177.4070  141.1610 O   0  0  0  0  0  0  0  0  0  0  0  0
  184.5830  178.3160  144.3320 C   0  0  2  0  0  3  0  0  0  0  0  0
  183.7440  179.1880  145.0330 O   0  0  0  0  0  1  0  0  0  0  0  0
  185.8770  178.1220  145.1110 C   0  0  0  0  0  2  0  0  0  0  0  0
  184.7100  176.4840  146.3470 O   0  0  0  0  0  0  0  0  0  0  0  0
  185.6800  177.2280  146.2910 C   0  0  0  0  0  0  0  0  0  0  0  0
  186.6880  177.2300  147.3890 C   0  0  0  0  0  2  0  0  0  0  0  0
  185.7750  179.3590  147.9360 O   0  0  0  0  0  1  0  0  0  0  0  0
  186.9730  178.6470  147.8340 C   0  0  0  0  0  2  0  0  0  0  0  0
  1  3  1  0  0  0  0
  2  4  2  0  0  0  0
  3  6  2  0  0  0  0
  4  6  1  0  0  0  0
  6  5  1  0  0  0  0
  7  2  1  0  0  0  0
  7  1  2  0  0  0  0
  8  2  1  0  0  0  0
  9  8  2  0  0  0  0
 10  8  1  0  0  0  0
 11 18  1  6  0  0  0
 11 14  1  0  0  0  0
 11 12  1  0  0  0  0
 12 16  1  0  0  0  0
 13 10  1  6  0  0  0
 13 15  1  0  0  0  0
 14 13  1  0  0  0  0
 15 17  1  1  0  0  0
 16 15  1  0  0  0  0
 19 18  1  0  0  0  0
 20 19  1  0  0  0  0
 21 20  1  0  0  0  0
 22 31  1  6  0  0  0
 22 24  1  0  0  0  0
 22 21  1  0  0  0  0
 23 24  2  0  0  0  0
 24 25  1  0  0  0  0
 25 26  1  6  0  0  0
 25 28  1  0  0  0  0
 27 26  1  0  0  0  0
 28 30  1  0  0  0  0
 29 30  1  0  0  0  0
 31 32  1  0  0  0  0
 33 32  1  0  0  0  0
 34 33  1  0  0  0  0
 34 32  1  0  0  0  0
 35  7  1  0  0  0  0
 36 39  1  0  0  0  0
 36 40  1  1  0  0  0
 36 35  1  0  0  0  0
 37 39  2  0  0  0  0
 39 38  1  0  0  0  0
 41 40  1  0  0  0  0
 42 41  1  0  0  0  0
 42 45  1  0  0  0  0
 42 43  1  1  0  0  0
 44 46  1  0  0  0  0
 45 44  1  0  0  0  0
 46 49  1  1  0  0  0
 47 46  1  0  0  0  0
 48 45  1  0  0  0  0
 48 47  1  0  0  0  0
 49 50  1  1  0  0  0
 49 51  1  0  0  0  0
 51 53  1  0  0  0  0
 53 52  2  0  0  0  0
 53 54  1  0  0  0  0
 54 56  1  0  0  0  0
 56 55  1  0  0  0  0
M  END
>  <MODEL>
1

>  <REMARK>
 VINA RESULT:      -5.7      0.000      0.000
  Name = 
  26 active torsions:
  status: ('A' for Active; 'I' for Inactive)
    1  A    between atoms: C_1  and  C_8
    2  A    between atoms: O_3  and  C_15
    3  A    between atoms: O_3  and  C_44
    4  A    between atoms: N_4  and  C_25
    5  A    between atoms: C_10  and  C_14
    6  A    between atoms: C_10  and  C_42
    7  A    between atoms: C_12  and  C_18
    8  A    between atoms: C_12  and  N_30
    9  A    between atoms: C_12  and  C_33
   10  A    between atoms: N_13  and  C_28
   11  A    between atoms: C_15  and  N_43
   12  A    between atoms: C_15  and  C_56
   13  A    between atoms: C_18  and  N_29
   14  A    between atoms: C_22  and  O_38
   15  A    between atoms: C_23  and  O_37
   16  A    between atoms: C_23  and  O_38
   17  A    between atoms: C_27  and  C_52
   18  A    between atoms: C_28  and  N_29
   19  A    between atoms: N_30  and  C_48
   20  A    between atoms: C_31  and  O_51
   21  A    between atoms: C_34  and  C_35
   22  A    between atoms: C_35  and  C_39
   23  A    between atoms: O_37  and  N_43
   24  A    between atoms: C_39  and  C_42
   25  A    between atoms: O_51  and  C_52
   26  A    between atoms: C_52  and  C_56
                            x       y       z     vdW  Elec       q    Type
                         _______ _______ _______ _____ _____    ______ ____

>  <TORSDO>
F 26

$$$$
=
 OpenBabel11042417233D

 56 59  0  0  1  0  0  0  0  0999 V2000
  191.9070  175.3460  146.0070 C   0  0  0  0  0  3  0  0  0  0  0  0
  193.9620  174.7540  144.8470 C   0  0  0  0  0  0  0  0  0  0  0  0
  192.5880  176.3450  146.7090 C   0  0  0  0  0  3  0  0  0  0  0  0
  194.6290  175.7480  145.5790 C   0  0  0  0  0  3  0  0  0  0  0  0
  194.6290  177.5160  147.2210 O   0  0  0  0  0  1  0  0  0  0  0  0
  193.9520  176.5340  146.5070 C   0  0  0  0  0  0  0  0  0  0  0  0
  192.5820  174.5370  145.0830 C   0  0  0  0  0  0  0  0  0  0  0  0
  194.7360  173.8940  143.9210 C   0  0  0  0  0  0  0  0  0  0  0  0
  195.0710  172.7090  144.2970 N   0  0  0  0  0  2  0  0  0  0  0  0
  195.3110  174.3970  142.7100 N   0  0  0  0  0  2  0  0  0  0  0  0
  195.0580  175.2280  139.5430 C   0  0  2  0  0  3  0  0  0  0  0  0
  196.4420  174.6970  139.9070 C   0  0  0  0  0  2  0  0  0  0  0  0
  194.9800  175.6750  142.0810 C   0  0  2  0  0  3  0  0  0  0  0  0
  194.1800  175.4210  140.7890 C   0  0  0  0  0  2  0  0  0  0  0  0
  196.2630  176.4570  141.7700 C   0  0  2  0  0  3  0  0  0  0  0  0
  197.1810  175.6810  140.8140 C   0  0  0  0  0  2  0  0  0  0  0  0
  197.0130  176.7930  143.0370 C   0  0  0  0  0  1  0  0  0  0  0  0
  194.4140  174.3780  138.6410 O   0  0  0  0  0  0  0  0  0  0  0  0
  193.1100  174.2090  139.1240 C   0  0  0  0  0  2  0  0  0  0  0  0
  192.2100  174.0810  138.0600 O   0  0  0  0  0  0  0  0  0  0  0  0
  192.3640  172.8020  137.6370 N   0  0  0  0  0  2  0  0  0  0  0  0
  191.0330  172.2160  137.4960 C   0  0  1  0  0  3  0  0  0  0  0  0
  190.6010  170.1000  136.5500 O   0  0  0  0  0  0  0  0  0  0  0  0
  191.0590  170.7050  137.5000 C   0  0  0  0  0  0  0  0  0  0  0  0
  191.7040  169.9100  138.6060 C   0  0  1  0  0  3  0  0  0  0  0  0
  190.7520  169.5570  139.7520 C   0  0  0  0  0  2  0  0  0  0  0  0
  191.3200  168.5830  140.5750 O   0  0  0  0  0  1  0  0  0  0  0  0
  192.3040  168.7570  138.0950 O   0  0  0  0  0  0  0  0  0  0  0  0
  194.1700  169.7830  138.8810 O   0  0  0  0  0  1  0  0  0  0  0  0
  193.6130  169.1260  137.7880 C   0  0  0  0  0  2  0  0  0  0  0  0
  190.0790  172.7500  138.3980 O   0  0  0  0  0  0  0  0  0  0  0  0
  188.8310  172.9110  137.7720 C   0  0  0  0  0  3  0  0  0  0  0  0
  188.2190  174.2300  138.2200 C   0  0  0  0  0  2  0  0  0  0  0  0
  188.8460  174.1230  136.8560 C   0  0  0  0  0  2  0  0  0  0  0  0
  191.8680  173.5180  144.3630 N   0  0  0  0  0  2  0  0  0  0  0  0
  190.7290  173.7850  143.5020 C   0  0  1  0  0  3  0  0  0  0  0  0
  189.5440  172.6570  141.7430 O   0  0  0  0  0  0  0  0  0  0  0  0
  191.0160  171.3370  142.9540 N   0  0  0  0  0  1  0  0  0  0  0  0
  190.3800  172.5770  142.6830 C   0  0  0  0  0  0  0  0  0  0  0  0
  189.5460  174.2810  144.3190 C   0  0  0  0  0  2  0  0  0  0  0  0
  188.7030  175.1720  143.5330 N   0  0  0  0  0  2  0  0  0  0  0  0
  189.5330  176.2620  143.0520 C   0  0  2  0  0  3  0  0  0  0  0  0
  189.8840  177.1810  144.2110 C   0  0  0  0  0  1  0  0  0  0  0  0
  187.9730  177.9810  142.5000 C   0  0  0  0  0  2  0  0  0  0  0  0
  188.8420  176.9520  141.9630 N   0  0  0  0  0  0  0  0  0  0  0  0
  186.8580  178.0780  141.5040 C   0  0  1  0  0  3  0  0  0  0  0  0
  187.0660  176.8360  140.6760 C   0  0  0  0  0  2  0  0  0  0  0  0
  188.0590  176.0690  141.2940 O   0  0  0  0  0  0  0  0  0  0  0  0
  185.4820  178.1020  142.1820 C   0  0  2  0  0  3  0  0  0  0  0  0
  184.5000  178.5380  141.2860 O   0  0  0  0  0  1  0  0  0  0  0  0
  185.5040  179.0190  143.3960 C   0  0  0  0  0  2  0  0  0  0  0  0
  183.8940  178.8040  145.1090 O   0  0  0  0  0  0  0  0  0  0  0  0
  184.9110  178.3570  144.5970 C   0  0  0  0  0  0  0  0  0  0  0  0
  185.5520  177.1310  145.1500 C   0  0  0  0  0  2  0  0  0  0  0  0
  187.0960  176.4110  146.8120 O   0  0  0  0  0  1  0  0  0  0  0  0
  186.7250  177.5060  146.0290 C   0  0  0  0  0  2  0  0  0  0  0  0
  1  3  1  0  0  0  0
  2  7  1  0  0  0  0
  2  4  2  0  0  0  0
  4  6  1  0  0  0  0
  6  3  2  0  0  0  0
  6  5  1  0  0  0  0
  7  1  2  0  0  0  0
  8  9  2  0  0  0  0
  8  2  1  0  0  0  0
 10  8  1  0  0  0  0
 11 18  1  6  0  0  0
 11 12  1  0  0  0  0
 11 14  1  0  0  0  0
 12 16  1  0  0  0  0
 13 10  1  6  0  0  0
 14 13  1  0  0  0  0
 15 13  1  0  0  0  0
 15 17  1  1  0  0  0
 16 15  1  0  0  0  0
 18 19  1  0  0  0  0
 20 19  1  0  0  0  0
 21 20  1  0  0  0  0
 22 24  1  1  0  0  0
 22 21  1  0  0  0  0
 22 31  1  0  0  0  0
 23 24  2  0  0  0  0
 24 25  1  0  0  0  0
 25 26  1  1  0  0  0
 26 27  1  0  0  0  0
 28 25  1  0  0  0  0
 30 28  1  0  0  0  0
 30 29  1  0  0  0  0
 32 33  1  0  0  0  0
 32 31  1  0  0  0  0
 34 32  1  0  0  0  0
 34 33  1  0  0  0  0
 35  7  1  0  0  0  0
 36 40  1  1  0  0  0
 36 35  1  0  0  0  0
 37 39  2  0  0  0  0
 39 38  1  0  0  0  0
 39 36  1  0  0  0  0
 41 40  1  0  0  0  0
 42 41  1  0  0  0  0
 42 43  1  1  0  0  0
 45 44  1  0  0  0  0
 45 42  1  0  0  0  0
 46 49  1  1  0  0  0
 46 44  1  0  0  0  0
 47 48  1  0  0  0  0
 47 46  1  0  0  0  0
 48 45  1  0  0  0  0
 49 50  1  6  0  0  0
 49 51  1  0  0  0  0
 51 53  1  0  0  0  0
 53 52  2  0  0  0  0
 53 54  1  0  0  0  0
 54 56  1  0  0  0  0
 56 55  1  0  0  0  0
M  END
>  <MODEL>
2

>  <REMARK>
 VINA RESULT:      -5.7      1.960      3.017
  Name = 
  26 active torsions:
  status: ('A' for Active; 'I' for Inactive)
    1  A    between atoms: C_1  and  C_8
    2  A    between atoms: O_3  and  C_15
    3  A    between atoms: O_3  and  C_44
    4  A    between atoms: N_4  and  C_25
    5  A    between atoms: C_10  and  C_14
    6  A    between atoms: C_10  and  C_42
    7  A    between atoms: C_12  and  C_18
    8  A    between atoms: C_12  and  N_30
    9  A    between atoms: C_12  and  C_33
   10  A    between atoms: N_13  and  C_28
   11  A    between atoms: C_15  and  N_43
   12  A    between atoms: C_15  and  C_56
   13  A    between atoms: C_18  and  N_29
   14  A    between atoms: C_22  and  O_38
   15  A    between atoms: C_23  and  O_37
   16  A    between atoms: C_23  and  O_38
   17  A    between atoms: C_27  and  C_52
   18  A    between atoms: C_28  and  N_29
   19  A    between atoms: N_30  and  C_48
   20  A    between atoms: C_31  and  O_51
   21  A    between atoms: C_34  and  C_35
   22  A    between atoms: C_35  and  C_39
   23  A    between atoms: O_37  and  N_43
   24  A    between atoms: C_39  and  C_42
   25  A    between atoms: O_51  and  C_52
   26  A    between atoms: C_52  and  C_56
                            x       y       z     vdW  Elec       q    Type
                         _______ _______ _______ _____ _____    ______ ____

>  <TORSDO>
F 26

$$$$
=
 OpenBabel11042417233D

 56 59  0  0  1  0  0  0  0  0999 V2000
  192.4870  174.5190  146.2500 C   0  0  0  0  0  3  0  0  0  0  0  0
  194.5570  174.3820  144.9790 C   0  0  0  0  0  0  0  0  0  0  0  0
  192.8980  175.7400  146.7920 C   0  0  0  0  0  3  0  0  0  0  0  0
  194.9570  175.5990  145.5520 C   0  0  0  0  0  3  0  0  0  0  0  0
  194.5510  177.4770  147.0120 O   0  0  0  0  0  1  0  0  0  0  0  0
  194.1390  176.2720  146.4560 C   0  0  0  0  0  0  0  0  0  0  0  0
  193.3090  173.8240  145.3530 C   0  0  0  0  0  0  0  0  0  0  0  0
  195.4880  173.6660  144.0750 C   0  0  0  0  0  0  0  0  0  0  0  0
  196.2480  172.7460  144.5600 N   0  0  0  0  0  2  0  0  0  0  0  0
  195.7330  174.0960  142.7320 N   0  0  0  0  0  2  0  0  0  0  0  0
  194.6080  174.0180  139.6480 C   0  0  2  0  0  3  0  0  0  0  0  0
  196.1310  173.9460  139.7250 C   0  0  0  0  0  2  0  0  0  0  0  0
  194.9200  175.0560  141.9870 C   0  0  2  0  0  3  0  0  0  0  0  0
  193.9840  174.3010  141.0230 C   0  0  0  0  0  2  0  0  0  0  0  0
  195.8240  176.0200  141.2080 C   0  0  2  0  0  3  0  0  0  0  0  0
  196.7150  175.2740  140.2050 C   0  0  0  0  0  2  0  0  0  0  0  0
  196.6820  176.8340  142.1470 C   0  0  0  0  0  1  0  0  0  0  0  0
  194.0730  172.8400  139.1210 O   0  0  0  0  0  0  0  0  0  0  0  0
  192.7060  173.0790  138.9370 C   0  0  0  0  0  2  0  0  0  0  0  0
  192.5120  174.0810  137.9800 O   0  0  0  0  0  0  0  0  0  0  0  0
  192.4200  173.4140  136.8030 N   0  0  0  0  0  2  0  0  0  0  0  0
  191.6190  174.2290  135.8920 C   0  0  1  0  0  3  0  0  0  0  0  0
  189.4520  174.2280  134.9630 O   0  0  0  0  0  0  0  0  0  0  0  0
  190.1740  173.7880  135.8360 C   0  0  0  0  0  0  0  0  0  0  0  0
  189.6060  172.7580  136.7780 C   0  0  1  0  0  3  0  0  0  0  0  0
  188.5490  173.3120  137.7370 C   0  0  0  0  0  2  0  0  0  0  0  0
  188.9630  173.1600  139.0610 O   0  0  0  0  0  1  0  0  0  0  0  0
  189.1000  171.6690  136.0650 O   0  0  0  0  0  0  0  0  0  0  0  0
  189.7650  170.0540  137.5140 O   0  0  0  0  0  1  0  0  0  0  0  0
  190.0100  170.6350  136.2740 C   0  0  0  0  0  2  0  0  0  0  0  0
  191.7600  175.6230  136.1040 O   0  0  0  0  0  0  0  0  0  0  0  0
  192.3610  176.2410  134.9940 C   0  0  0  0  0  3  0  0  0  0  0  0
  193.3940  177.2440  135.4860 C   0  0  0  0  0  2  0  0  0  0  0  0
  193.8440  175.9150  134.9400 C   0  0  0  0  0  2  0  0  0  0  0  0
  192.8720  172.5730  144.7980 N   0  0  0  0  0  2  0  0  0  0  0  0
  192.1690  172.4520  143.5320 C   0  0  1  0  0  3  0  0  0  0  0  0
  191.9900  170.8000  141.7980 O   0  0  0  0  0  0  0  0  0  0  0  0
  193.9220  170.6920  143.0760 N   0  0  0  0  0  1  0  0  0  0  0  0
  192.6650  171.2710  142.7520 C   0  0  0  0  0  0  0  0  0  0  0  0
  190.6670  172.3940  143.7590 C   0  0  0  0  0  2  0  0  0  0  0  0
  189.9590  173.2400  142.8070 N   0  0  0  0  0  2  0  0  0  0  0  0
  190.1140  174.6190  143.2360 C   0  0  2  0  0  3  0  0  0  0  0  0
  189.5190  174.7870  144.6250 C   0  0  0  0  0  1  0  0  0  0  0  0
  189.2210  176.7960  142.8380 C   0  0  0  0  0  2  0  0  0  0  0  0
  189.5070  175.5050  142.2430 N   0  0  0  0  0  0  0  0  0  0  0  0
  188.0330  177.2970  142.0760 C   0  0  1  0  0  3  0  0  0  0  0  0
  187.5800  176.0590  141.3470 C   0  0  0  0  0  2  0  0  0  0  0  0
  188.3260  174.9790  141.8290 O   0  0  0  0  0  0  0  0  0  0  0  0
  186.9470  177.8560  143.0060 C   0  0  2  0  0  3  0  0  0  0  0  0
  186.4300  179.0510  142.4970 O   0  0  0  0  0  1  0  0  0  0  0  0
  187.5140  178.1010  144.3970 C   0  0  0  0  0  2  0  0  0  0  0  0
  187.3090  176.8930  146.4150 O   0  0  0  0  0  0  0  0  0  0  0  0
  186.7380  177.3720  145.4440 C   0  0  0  0  0  0  0  0  0  0  0  0
  185.2580  177.2550  145.3120 C   0  0  0  0  0  2  0  0  0  0  0  0
  184.3540  178.3500  147.2220 O   0  0  0  0  0  1  0  0  0  0  0  0
  184.5860  178.4970  145.8520 C   0  0  0  0  0  2  0  0  0  0  0  0
  1  3  1  0  0  0  0
  2  7  1  0  0  0  0
  2  4  2  0  0  0  0
  4  6  1  0  0  0  0
  6  3  2  0  0  0  0
  6  5  1  0  0  0  0
  7  1  2  0  0  0  0
  8  9  2  0  0  0  0
  8  2  1  0  0  0  0
 10  8  1  0  0  0  0
 11 18  1  1  0  0  0
 11 12  1  0  0  0  0
 11 14  1  0  0  0  0
 12 16  1  0  0  0  0
 13 10  1  6  0  0  0
 14 13  1  0  0  0  0
 15 13  1  0  0  0  0
 15 17  1  1  0  0  0
 16 15  1  0  0  0  0
 19 18  1  0  0  0  0
 20 19  1  0  0  0  0
 21 20  1  0  0  0  0
 22 24  1  1  0  0  0
 22 31  1  0  0  0  0
 22 21  1  0  0  0  0
 23 24  2  0  0  0  0
 24 25  1  0  0  0  0
 25 26  1  6  0  0  0
 26 27  1  0  0  0  0
 28 30  1  0  0  0  0
 28 25  1  0  0  0  0
 30 29  1  0  0  0  0
 32 33  1  0  0  0  0
 32 31  1  0  0  0  0
 34 32  1  0  0  0  0
 34 33  1  0  0  0  0
 35  7  1  0  0  0  0
 36 40  1  1  0  0  0
 36 35  1  0  0  0  0
 37 39  2  0  0  0  0
 39 38  1  0  0  0  0
 39 36  1  0  0  0  0
 41 42  1  0  0  0  0
 41 40  1  0  0  0  0
 42 43  1  1  0  0  0
 45 44  1  0  0  0  0
 45 42  1  0  0  0  0
 46 44  1  0  0  0  0
 46 49  1  1  0  0  0
 47 48  1  0  0  0  0
 47 46  1  0  0  0  0
 48 45  1  0  0  0  0
 49 50  1  6  0  0  0
 49 51  1  0  0  0  0
 51 53  1  0  0  0  0
 53 52  2  0  0  0  0
 54 53  1  0  0  0  0
 54 56  1  0  0  0  0
 56 55  1  0  0  0  0
M  END
>  <MODEL>
3

>  <REMARK>
 VINA RESULT:      -5.7      1.961      3.335
  Name = 
  26 active torsions:
  status: ('A' for Active; 'I' for Inactive)
    1  A    between atoms: C_1  and  C_8
    2  A    between atoms: O_3  and  C_15
    3  A    between atoms: O_3  and  C_44
    4  A    between atoms: N_4  and  C_25
    5  A    between atoms: C_10  and  C_14
    6  A    between atoms: C_10  and  C_42
    7  A    between atoms: C_12  and  C_18
    8  A    between atoms: C_12  and  N_30
    9  A    between atoms: C_12  and  C_33
   10  A    between atoms: N_13  and  C_28
   11  A    between atoms: C_15  and  N_43
   12  A    between atoms: C_15  and  C_56
   13  A    between atoms: C_18  and  N_29
   14  A    between atoms: C_22  and  O_38
   15  A    between atoms: C_23  and  O_37
   16  A    between atoms: C_23  and  O_38
   17  A    between atoms: C_27  and  C_52
   18  A    between atoms: C_28  and  N_29
   19  A    between atoms: N_30  and  C_48
   20  A    between atoms: C_31  and  O_51
   21  A    between atoms: C_34  and  C_35
   22  A    between atoms: C_35  and  C_39
   23  A    between atoms: O_37  and  N_43
   24  A    between atoms: C_39  and  C_42
   25  A    between atoms: O_51  and  C_52
   26  A    between atoms: C_52  and  C_56
                            x       y       z     vdW  Elec       q    Type
                         _______ _______ _______ _____ _____    ______ ____

>  <TORSDO>
F 26

$$$$
=
 OpenBabel11042417233D

 56 59  0  0  1  0  0  0  0  0999 V2000
  192.0260  175.2390  145.9980 C   0  0  0  0  0  3  0  0  0  0  0  0
  194.0390  174.7040  144.7400 C   0  0  0  0  0  0  0  0  0  0  0  0
  192.6930  176.3000  146.6180 C   0  0  0  0  0  3  0  0  0  0  0  0
  194.6940  175.7610  145.3910 C   0  0  0  0  0  3  0  0  0  0  0  0
  194.6940  177.5950  146.9590 O   0  0  0  0  0  1  0  0  0  0  0  0
  194.0300  176.5510  146.3260 C   0  0  0  0  0  0  0  0  0  0  0  0
  192.6890  174.4270  145.0670 C   0  0  0  0  0  0  0  0  0  0  0  0
  194.8030  173.8470  143.8030 C   0  0  0  0  0  0  0  0  0  0  0  0
  195.1150  172.6490  144.1610 N   0  0  0  0  0  2  0  0  0  0  0  0
  195.3930  174.3600  142.6040 N   0  0  0  0  0  2  0  0  0  0  0  0
  195.4120  175.3110  139.4610 C   0  0  2  0  0  3  0  0  0  0  0  0
  196.7700  174.7970  139.9320 C   0  0  0  0  0  2  0  0  0  0  0  0
  195.0880  175.6540  141.9960 C   0  0  2  0  0  3  0  0  0  0  0  0
  194.4170  175.4340  140.6260 C   0  0  0  0  0  2  0  0  0  0  0  0
  196.3730  176.4770  141.8350 C   0  0  2  0  0  3  0  0  0  0  0  0
  197.3960  175.7610  140.9410 C   0  0  0  0  0  2  0  0  0  0  0  0
  196.9930  176.7790  143.1780 C   0  0  0  0  0  1  0  0  0  0  0  0
  194.8760  174.4840  138.4710 O   0  0  0  0  0  0  0  0  0  0  0  0
  193.5280  174.3010  138.8000 C   0  0  0  0  0  2  0  0  0  0  0  0
  192.8290  173.7670  137.7110 O   0  0  0  0  0  0  0  0  0  0  0  0
  192.6110  172.4720  138.0510 N   0  0  0  0  0  2  0  0  0  0  0  0
  192.2020  172.4430  139.4530 C   0  0  1  0  0  3  0  0  0  0  0  0
  190.3770  173.6510  140.3330 O   0  0  0  0  0  0  0  0  0  0  0  0
  190.7260  172.7190  139.6340 C   0  0  0  0  0  0  0  0  0  0  0  0
  189.6620  171.9290  138.9160 C   0  0  1  0  0  3  0  0  0  0  0  0
  189.1740  172.5830  137.6210 C   0  0  0  0  0  2  0  0  0  0  0  0
  188.1360  173.4780  137.8870 O   0  0  0  0  0  1  0  0  0  0  0  0
  190.1010  170.6260  138.6720 O   0  0  0  0  0  0  0  0  0  0  0  0
  190.7130  169.4840  136.8090 O   0  0  0  0  0  1  0  0  0  0  0  0
  189.7820  170.3710  137.3400 C   0  0  0  0  0  2  0  0  0  0  0  0
  192.6320  171.2850  140.1470 O   0  0  0  0  0  0  0  0  0  0  0  0
  193.8680  171.5070  140.7770 C   0  0  0  0  0  3  0  0  0  0  0  0
  194.2760  170.2470  141.5260 C   0  0  0  0  0  2  0  0  0  0  0  0
  194.9300  170.5790  140.2110 C   0  0  0  0  0  2  0  0  0  0  0  0
  191.9900  173.3430  144.4330 N   0  0  0  0  0  2  0  0  0  0  0  0
  190.6840  173.4790  143.8100 C   0  0  1  0  0  3  0  0  0  0  0  0
  188.9390  171.9730  143.1340 O   0  0  0  0  0  0  0  0  0  0  0  0
  191.0810  171.0820  143.1190 N   0  0  0  0  0  1  0  0  0  0  0  0
  190.1690  172.1480  143.3470 C   0  0  0  0  0  0  0  0  0  0  0  0
  189.7120  174.1670  144.7550 C   0  0  0  0  0  2  0  0  0  0  0  0
  188.7930  175.0310  144.0250 N   0  0  0  0  0  2  0  0  0  0  0  0
  189.5460  176.1760  143.5450 C   0  0  2  0  0  3  0  0  0  0  0  0
  189.3930  177.3300  144.5240 C   0  0  0  0  0  1  0  0  0  0  0  0
  188.3290  177.7370  142.2120 C   0  0  0  0  0  2  0  0  0  0  0  0
  189.1040  176.5120  142.1910 N   0  0  0  0  0  0  0  0  0  0  0  0
  187.3750  177.5880  141.0660 C   0  0  1  0  0  3  0  0  0  0  0  0
  187.5090  176.1250  140.7320 C   0  0  0  0  0  2  0  0  0  0  0  0
  188.2950  175.5290  141.7230 O   0  0  0  0  0  0  0  0  0  0  0  0
  185.9410  177.9670  141.4580 C   0  0  2  0  0  3  0  0  0  0  0  0
  185.2680  178.5380  140.3730 O   0  0  0  0  0  1  0  0  0  0  0  0
  185.9500  178.9500  142.6210 C   0  0  0  0  0  2  0  0  0  0  0  0
  183.7910  178.7480  143.5520 O   0  0  0  0  0  0  0  0  0  0  0  0
  184.9890  178.5450  143.6910 C   0  0  0  0  0  0  0  0  0  0  0  0
  185.4990  177.8690  144.9170 C   0  0  0  0  0  2  0  0  0  0  0  0
  184.2500  178.2790  146.9010 O   0  0  0  0  0  1  0  0  0  0  0  0
  185.3060  178.7600  146.1230 C   0  0  0  0  0  2  0  0  0  0  0  0
  1  3  1  0  0  0  0
  2  7  1  0  0  0  0
  2  4  2  0  0  0  0
  4  6  1  0  0  0  0
  6  3  2  0  0  0  0
  6  5  1  0  0  0  0
  7  1  2  0  0  0  0
  8  9  2  0  0  0  0
  8  2  1  0  0  0  0
 10  8  1  0  0  0  0
 11 18  1  6  0  0  0
 11 12  1  0  0  0  0
 11 14  1  0  0  0  0
 12 16  1  0  0  0  0
 13 10  1  6  0  0  0
 14 13  1  0  0  0  0
 15 13  1  0  0  0  0
 15 17  1  1  0  0  0
 16 15  1  0  0  0  0
 18 19  1  0  0  0  0
 20 21  1  0  0  0  0
 20 19  1  0  0  0  0
 22 21  1  6  0  0  0
 22 24  1  0  0  0  0
 22 31  1  0  0  0  0
 24 23  2  0  0  0  0
 25 26  1  6  0  0  0
 25 24  1  0  0  0  0
 26 27  1  0  0  0  0
 28 25  1  0  0  0  0
 29 30  1  0  0  0  0
 30 28  1  0  0  0  0
 31 32  1  0  0  0  0
 32 33  1  0  0  0  0
 34 32  1  0  0  0  0
 34 33  1  0  0  0  0
 35  7  1  0  0  0  0
 36 35  1  0  0  0  0
 36 40  1  1  0  0  0
 37 39  2  0  0  0  0
 38 39  1  0  0  0  0
 39 36  1  0  0  0  0
 41 40  1  0  0  0  0
 42 41  1  0  0  0  0
 42 43  1  1  0  0  0
 45 44  1  0  0  0  0
 45 42  1  0  0  0  0
 46 49  1  1  0  0  0
 46 44  1  0  0  0  0
 47 46  1  0  0  0  0
 47 48  1  0  0  0  0
 48 45  1  0  0  0  0
 49 50  1  6  0  0  0
 49 51  1  0  0  0  0
 51 53  1  0  0  0  0
 52 53  2  0  0  0  0
 53 54  1  0  0  0  0
 54 56  1  0  0  0  0
 56 55  1  0  0  0  0
M  END
>  <MODEL>
4

>  <REMARK>
 VINA RESULT:      -5.6      1.925      3.420
  Name = 
  26 active torsions:
  status: ('A' for Active; 'I' for Inactive)
    1  A    between atoms: C_1  and  C_8
    2  A    between atoms: O_3  and  C_15
    3  A    between atoms: O_3  and  C_44
    4  A    between atoms: N_4  and  C_25
    5  A    between atoms: C_10  and  C_14
    6  A    between atoms: C_10  and  C_42
    7  A    between atoms: C_12  and  C_18
    8  A    between atoms: C_12  and  N_30
    9  A    between atoms: C_12  and  C_33
   10  A    between atoms: N_13  and  C_28
   11  A    between atoms: C_15  and  N_43
   12  A    between atoms: C_15  and  C_56
   13  A    between atoms: C_18  and  N_29
   14  A    between atoms: C_22  and  O_38
   15  A    between atoms: C_23  and  O_37
   16  A    between atoms: C_23  and  O_38
   17  A    between atoms: C_27  and  C_52
   18  A    between atoms: C_28  and  N_29
   19  A    between atoms: N_30  and  C_48
   20  A    between atoms: C_31  and  O_51
   21  A    between atoms: C_34  and  C_35
   22  A    between atoms: C_35  and  C_39
   23  A    between atoms: O_37  and  N_43
   24  A    between atoms: C_39  and  C_42
   25  A    between atoms: O_51  and  C_52
   26  A    between atoms: C_52  and  C_56
                            x       y       z     vdW  Elec       q    Type
                         _______ _______ _______ _____ _____    ______ ____

>  <TORSDO>
F 26

$$$$
=
 OpenBabel11042417233D

 56 59  0  0  1  0  0  0  0  0999 V2000
  191.7820  172.1880  141.4000 C   0  0  0  0  0  3  0  0  0  0  0  0
  191.3530  174.2760  142.5750 C   0  0  0  0  0  0  0  0  0  0  0  0
  190.5000  171.7370  141.7300 C   0  0  0  0  0  3  0  0  0  0  0  0
  190.0790  173.7930  142.9110 C   0  0  0  0  0  3  0  0  0  0  0  0
  188.3890  172.0720  142.8380 O   0  0  0  0  0  1  0  0  0  0  0  0
  189.6550  172.5320  142.4980 C   0  0  0  0  0  0  0  0  0  0  0  0
  192.2250  173.4480  141.8250 C   0  0  0  0  0  0  0  0  0  0  0  0
  191.7870  175.5940  143.0930 C   0  0  0  0  0  0  0  0  0  0  0  0
  191.4730  176.6590  142.4410 N   0  0  0  0  0  2  0  0  0  0  0  0
  192.7200  175.7220  144.1710 N   0  0  0  0  0  2  0  0  0  0  0  0
  192.1050  175.2680  147.3650 C   0  0  2  0  0  3  0  0  0  0  0  0
  192.8410  176.5760  147.0840 C   0  0  0  0  0  2  0  0  0  0  0  0
  193.1210  174.6480  145.0780 C   0  0  2  0  0  3  0  0  0  0  0  0
  192.0010  174.3940  146.1060 C   0  0  0  0  0  2  0  0  0  0  0  0
  194.4270  175.0210  145.7930 C   0  0  2  0  0  3  0  0  0  0  0  0
  194.2720  176.3060  146.6190 C   0  0  0  0  0  2  0  0  0  0  0  0
  195.5570  175.1820  144.8050 C   0  0  0  0  0  1  0  0  0  0  0  0
  190.8290  175.5080  147.8790 O   0  0  0  0  0  0  0  0  0  0  0  0
  190.2470  176.4720  147.0470 C   0  0  0  0  0  2  0  0  0  0  0  0
  188.9260  176.1210  146.7460 O   0  0  0  0  0  0  0  0  0  0  0  0
  188.8170  176.3230  145.4100 N   0  0  0  0  0  2  0  0  0  0  0  0
  187.6190  177.1280  145.1780 C   0  0  1  0  0  3  0  0  0  0  0  0
  188.5470  178.0390  143.2110 O   0  0  0  0  0  0  0  0  0  0  0  0
  187.5350  177.6500  143.7620 C   0  0  0  0  0  0  0  0  0  0  0  0
  186.2520  177.6390  142.9700 C   0  0  1  0  0  3  0  0  0  0  0  0
  185.6540  179.0290  142.7410 C   0  0  0  0  0  2  0  0  0  0  0  0
  185.6100  179.7450  143.9380 O   0  0  0  0  0  1  0  0  0  0  0  0
  186.4340  176.9770  141.7550 O   0  0  0  0  0  0  0  0  0  0  0  0
  186.0350  177.2550  139.5380 O   0  0  0  0  0  1  0  0  0  0  0  0
  186.0570  177.8930  140.7740 C   0  0  0  0  0  2  0  0  0  0  0  0
  186.4220  176.4990  145.6020 O   0  0  0  0  0  0  0  0  0  0  0  0
  185.6230  177.3870  146.3420 C   0  0  0  0  0  3  0  0  0  0  0  0
  185.7860  177.0850  147.8240 C   0  0  0  0  0  2  0  0  0  0  0  0
  186.4860  178.2750  147.2220 C   0  0  0  0  0  2  0  0  0  0  0  0
  193.5430  173.9020  141.4750 N   0  0  0  0  0  2  0  0  0  0  0  0
  194.1970  173.5900  140.2150 C   0  0  1  0  0  3  0  0  0  0  0  0
  194.0560  175.1680  138.4100 O   0  0  0  0  0  0  0  0  0  0  0  0
  195.6020  175.6820  140.0600 N   0  0  0  0  0  1  0  0  0  0  0  0
  194.6050  174.8410  139.4970 C   0  0  0  0  0  0  0  0  0  0  0  0
  195.3740  172.6540  140.4430 C   0  0  0  0  0  2  0  0  0  0  0  0
  195.3840  171.5760  139.4630 N   0  0  0  0  0  2  0  0  0  0  0  0
  195.0310  170.3470  140.1500 C   0  0  2  0  0  3  0  0  0  0  0  0
  196.2970  169.5900  140.5190 C   0  0  0  0  0  1  0  0  0  0  0  0
  193.8470  170.2820  138.0790 C   0  0  0  0  0  2  0  0  0  0  0  0
  194.1230  169.5660  139.3090 N   0  0  0  0  0  0  0  0  0  0  0  0
  192.4700  169.8350  137.6950 C   0  0  1  0  0  3  0  0  0  0  0  0
  191.9950  169.1570  138.9540 C   0  0  0  0  0  2  0  0  0  0  0  0
  192.9420  169.3980  139.9550 O   0  0  0  0  0  0  0  0  0  0  0  0
  191.5720  171.0150  137.2960 C   0  0  2  0  0  3  0  0  0  0  0  0
  192.0420  172.2040  137.8610 O   0  0  0  0  0  1  0  0  0  0  0  0
  190.1400  170.7700  137.7490 C   0  0  0  0  0  2  0  0  0  0  0  0
  189.1410  172.4940  136.4840 O   0  0  0  0  0  0  0  0  0  0  0  0
  189.2960  171.9910  137.5890 C   0  0  0  0  0  0  0  0  0  0  0  0
  188.6210  172.5780  138.7810 C   0  0  0  0  0  2  0  0  0  0  0  0
  188.2860  174.7090  139.7870 O   0  0  0  0  0  1  0  0  0  0  0  0
  189.2250  173.9250  139.1120 C   0  0  0  0  0  2  0  0  0  0  0  0
  1  3  2  0  0  0  0
  1  7  1  0  0  0  0
  2  4  1  0  0  0  0
  2  8  1  0  0  0  0
  3  6  1  0  0  0  0
  6  5  1  0  0  0  0
  6  4  2  0  0  0  0
  7  2  2  0  0  0  0
  8 10  1  0  0  0  0
  9  8  2  0  0  0  0
 11 18  1  6  0  0  0
 12 11  1  0  0  0  0
 13 10  1  6  0  0  0
 13 15  1  0  0  0  0
 13 14  1  0  0  0  0
 14 11  1  0  0  0  0
 15 17  1  6  0  0  0
 15 16  1  0  0  0  0
 16 12  1  0  0  0  0
 19 18  1  0  0  0  0
 20 19  1  0  0  0  0
 21 20  1  0  0  0  0
 22 24  1  6  0  0  0
 22 21  1  0  0  0  0
 22 31  1  0  0  0  0
 23 24  2  0  0  0  0
 25 26  1  6  0  0  0
 25 24  1  0  0  0  0
 26 27  1  0  0  0  0
 28 25  1  0  0  0  0
 29 30  1  0  0  0  0
 30 28  1  0  0  0  0
 31 32  1  0  0  0  0
 32 34  1  0  0  0  0
 32 33  1  0  0  0  0
 34 33  1  0  0  0  0
 35  7  1  0  0  0  0
 36 40  1  1  0  0  0
 36 35  1  0  0  0  0
 37 39  2  0  0  0  0
 39 38  1  0  0  0  0
 39 36  1  0  0  0  0
 41 42  1  0  0  0  0
 41 40  1  0  0  0  0
 42 43  1  6  0  0  0
 44 45  1  0  0  0  0
 45 48  1  0  0  0  0
 45 42  1  0  0  0  0
 46 49  1  1  0  0  0
 46 44  1  0  0  0  0
 46 47  1  0  0  0  0
 47 48  1  0  0  0  0
 49 51  1  0  0  0  0
 49 50  1  1  0  0  0
 52 53  2  0  0  0  0
 53 51  1  0  0  0  0
 53 54  1  0  0  0  0
 54 56  1  0  0  0  0
 56 55  1  0  0  0  0
M  END
>  <MODEL>
5

>  <REMARK>
 VINA RESULT:      -5.5      2.368      8.915
  Name = 
  26 active torsions:
  status: ('A' for Active; 'I' for Inactive)
    1  A    between atoms: C_1  and  C_8
    2  A    between atoms: O_3  and  C_15
    3  A    between atoms: O_3  and  C_44
    4  A    between atoms: N_4  and  C_25
    5  A    between atoms: C_10  and  C_14
    6  A    between atoms: C_10  and  C_42
    7  A    between atoms: C_12  and  C_18
    8  A    between atoms: C_12  and  N_30
    9  A    between atoms: C_12  and  C_33
   10  A    between atoms: N_13  and  C_28
   11  A    between atoms: C_15  and  N_43
   12  A    between atoms: C_15  and  C_56
   13  A    between atoms: C_18  and  N_29
   14  A    between atoms: C_22  and  O_38
   15  A    between atoms: C_23  and  O_37
   16  A    between atoms: C_23  and  O_38
   17  A    between atoms: C_27  and  C_52
   18  A    between atoms: C_28  and  N_29
   19  A    between atoms: N_30  and  C_48
   20  A    between atoms: C_31  and  O_51
   21  A    between atoms: C_34  and  C_35
   22  A    between atoms: C_35  and  C_39
   23  A    between atoms: O_37  and  N_43
   24  A    between atoms: C_39  and  C_42
   25  A    between atoms: O_51  and  C_52
   26  A    between atoms: C_52  and  C_56
                            x       y       z     vdW  Elec       q    Type
                         _______ _______ _______ _____ _____    ______ ____

>  <TORSDO>
F 26

$$$$
=
 OpenBabel11042417233D

 56 59  0  0  1  0  0  0  0  0999 V2000
  193.3310  171.8850  143.3380 C   0  0  0  0  0  3  0  0  0  0  0  0
  191.5260  171.1810  141.8650 C   0  0  0  0  0  0  0  0  0  0  0  0
  192.4000  172.1980  144.3330 C   0  0  0  0  0  3  0  0  0  0  0  0
  190.6090  171.5220  142.8710 C   0  0  0  0  0  3  0  0  0  0  0  0
  190.1160  172.3600  145.0800 O   0  0  0  0  0  1  0  0  0  0  0  0
  191.0390  172.0310  144.0940 C   0  0  0  0  0  0  0  0  0  0  0  0
  192.9090  171.3880  142.0980 C   0  0  0  0  0  0  0  0  0  0  0  0
  191.0210  170.7080  140.5550 C   0  0  0  0  0  0  0  0  0  0  0  0
  190.7760  169.4540  140.3940 N   0  0  0  0  0  2  0  0  0  0  0  0
  190.9950  171.5470  139.3970 N   0  0  0  0  0  2  0  0  0  0  0  0
  188.7850  173.9490  139.7660 C   0  0  2  0  0  3  0  0  0  0  0  0
  188.4830  173.0450  138.5740 C   0  0  0  0  0  2  0  0  0  0  0  0
  191.1550  173.0010  139.3990 C   0  0  2  0  0  3  0  0  0  0  0  0
  190.1530  173.6280  140.3880 C   0  0  0  0  0  2  0  0  0  0  0  0
  190.9310  173.5580  137.9870 C   0  0  2  0  0  3  0  0  0  0  0  0
  189.5220  173.2370  137.4690 C   0  0  0  0  0  2  0  0  0  0  0  0
  191.9630  173.0230  137.0240 C   0  0  0  0  0  1  0  0  0  0  0  0
  187.7900  173.8480  140.7410 O   0  0  0  0  0  0  0  0  0  0  0  0
  188.3970  174.1830  141.9570 C   0  0  0  0  0  2  0  0  0  0  0  0
  187.6530  175.1680  142.6170 O   0  0  0  0  0  0  0  0  0  0  0  0
  188.5570  175.8060  143.4020 N   0  0  0  0  0  2  0  0  0  0  0  0
  187.8940  176.9690  143.9880 C   0  0  1  0  0  3  0  0  0  0  0  0
  188.0500  178.2290  142.0010 O   0  0  0  0  0  0  0  0  0  0  0  0
  187.3480  177.9140  142.9420 C   0  0  0  0  0  0  0  0  0  0  0  0
  185.9310  178.4270  142.9770 C   0  0  1  0  0  3  0  0  0  0  0  0
  185.7070  179.5640  143.9770 C   0  0  0  0  0  2  0  0  0  0  0  0
  184.3570  179.6560  144.3170 O   0  0  0  0  0  1  0  0  0  0  0  0
  185.5190  178.8110  141.6990 O   0  0  0  0  0  0  0  0  0  0  0  0
  183.7890  178.5320  140.2570 O   0  0  0  0  0  1  0  0  0  0  0  0
  184.3310  178.1180  141.4690 C   0  0  0  0  0  2  0  0  0  0  0  0
  186.9390  176.6380  144.9810 O   0  0  0  0  0  0  0  0  0  0  0  0
  187.5260  176.6190  146.2570 C   0  0  0  0  0  3  0  0  0  0  0  0
  187.1020  177.8670  147.0170 C   0  0  0  0  0  2  0  0  0  0  0  0
  186.4590  176.5440  147.3350 C   0  0  0  0  0  2  0  0  0  0  0  0
  193.8770  171.0650  141.0850 N   0  0  0  0  0  2  0  0  0  0  0  0
  195.2870  171.4000  141.1810 C   0  0  1  0  0  3  0  0  0  0  0  0
  197.3900  170.2420  141.2620 O   0  0  0  0  0  0  0  0  0  0  0  0
  195.5120  168.8850  141.1700 N   0  0  0  0  0  1  0  0  0  0  0  0
  196.1340  170.1620  141.1980 C   0  0  0  0  0  0  0  0  0  0  0  0
  195.6880  172.3480  140.0610 C   0  0  0  0  0  2  0  0  0  0  0  0
  195.7560  173.7230  140.5360 N   0  0  0  0  0  2  0  0  0  0  0  0
  194.6490  174.4540  139.9450 C   0  0  2  0  0  3  0  0  0  0  0  0
  195.0850  175.0450  138.6140 C   0  0  0  0  0  1  0  0  0  0  0  0
  195.2390  175.8200  141.8110 C   0  0  0  0  0  2  0  0  0  0  0  0
  194.1760  175.4640  140.8920 N   0  0  0  0  0  0  0  0  0  0  0  0
  194.5240  176.2090  143.0680 C   0  0  1  0  0  3  0  0  0  0  0  0
  193.1290  175.7020  142.8080 C   0  0  0  0  0  2  0  0  0  0  0  0
  193.1580  174.9510  141.6280 O   0  0  0  0  0  0  0  0  0  0  0  0
  195.1540  175.5660  144.3110 C   0  0  2  0  0  3  0  0  0  0  0  0
  195.8550  174.4070  143.9650 O   0  0  0  0  0  1  0  0  0  0  0  0
  194.0800  175.2220  145.3340 C   0  0  0  0  0  2  0  0  0  0  0  0
  194.6200  177.2840  146.3480 O   0  0  0  0  0  0  0  0  0  0  0  0
  193.8210  176.3610  146.2650 C   0  0  0  0  0  0  0  0  0  0  0  0
  192.5690  176.3780  147.0720 C   0  0  0  0  0  2  0  0  0  0  0  0
  190.5310  175.2020  147.4320 O   0  0  0  0  0  1  0  0  0  0  0  0
  191.8150  175.0790  146.8950 C   0  0  0  0  0  2  0  0  0  0  0  0
  1  3  1  0  0  0  0
  2  7  1  0  0  0  0
  2  4  2  0  0  0  0
  4  6  1  0  0  0  0
  6  3  2  0  0  0  0
  6  5  1  0  0  0  0
  7  1  2  0  0  0  0
  8  2  1  0  0  0  0
  9  8  2  0  0  0  0
 10  8  1  0  0  0  0
 11 14  1  0  0  0  0
 11 18  1  1  0  0  0
 12 11  1  0  0  0  0
 13 10  1  6  0  0  0
 13 14  1  0  0  0  0
 15 17  1  6  0  0  0
 15 13  1  0  0  0  0
 16 15  1  0  0  0  0
 16 12  1  0  0  0  0
 18 19  1  0  0  0  0
 19 20  1  0  0  0  0
 20 21  1  0  0  0  0
 21 22  1  0  0  0  0
 22 24  1  6  0  0  0
 22 31  1  0  0  0  0
 23 24  2  0  0  0  0
 24 25  1  0  0  0  0
 25 26  1  1  0  0  0
 26 27  1  0  0  0  0
 28 25  1  0  0  0  0
 29 30  1  0  0  0  0
 30 28  1  0  0  0  0
 31 32  1  0  0  0  0
 32 33  1  0  0  0  0
 32 34  1  0  0  0  0
 33 34  1  0  0  0  0
 35 36  1  0  0  0  0
 35  7  1  0  0  0  0
 36 40  1  6  0  0  0
 36 39  1  0  0  0  0
 38 39  1  0  0  0  0
 39 37  2  0  0  0  0
 40 41  1  0  0  0  0
 42 43  1  6  0  0  0
 42 41  1  0  0  0  0
 42 45  1  0  0  0  0
 44 46  1  0  0  0  0
 45 48  1  0  0  0  0
 45 44  1  0  0  0  0
 46 49  1  1  0  0  0
 47 46  1  0  0  0  0
 48 47  1  0  0  0  0
 49 50  1  6  0  0  0
 49 51  1  0  0  0  0
 51 53  1  0  0  0  0
 53 52  2  0  0  0  0
 53 54  1  0  0  0  0
 56 54  1  0  0  0  0
 56 55  1  0  0  0  0
M  END
>  <MODEL>
6

>  <REMARK>
 VINA RESULT:      -5.5      2.484      8.485
  Name = 
  26 active torsions:
  status: ('A' for Active; 'I' for Inactive)
    1  A    between atoms: C_1  and  C_8
    2  A    between atoms: O_3  and  C_15
    3  A    between atoms: O_3  and  C_44
    4  A    between atoms: N_4  and  C_25
    5  A    between atoms: C_10  and  C_14
    6  A    between atoms: C_10  and  C_42
    7  A    between atoms: C_12  and  C_18
    8  A    between atoms: C_12  and  N_30
    9  A    between atoms: C_12  and  C_33
   10  A    between atoms: N_13  and  C_28
   11  A    between atoms: C_15  and  N_43
   12  A    between atoms: C_15  and  C_56
   13  A    between atoms: C_18  and  N_29
   14  A    between atoms: C_22  and  O_38
   15  A    between atoms: C_23  and  O_37
   16  A    between atoms: C_23  and  O_38
   17  A    between atoms: C_27  and  C_52
   18  A    between atoms: C_28  and  N_29
   19  A    between atoms: N_30  and  C_48
   20  A    between atoms: C_31  and  O_51
   21  A    between atoms: C_34  and  C_35
   22  A    between atoms: C_35  and  C_39
   23  A    between atoms: O_37  and  N_43
   24  A    between atoms: C_39  and  C_42
   25  A    between atoms: O_51  and  C_52
   26  A    between atoms: C_52  and  C_56
                            x       y       z     vdW  Elec       q    Type
                         _______ _______ _______ _____ _____    ______ ____

>  <TORSDO>
F 26

$$$$
=
 OpenBabel11042417233D

 56 59  0  0  1  0  0  0  0  0999 V2000
  190.5140  175.9480  144.4460 C   0  0  0  0  0  3  0  0  0  0  0  0
  192.3180  174.3900  143.9530 C   0  0  0  0  0  0  0  0  0  0  0  0
  190.8720  175.9370  145.7980 C   0  0  0  0  0  3  0  0  0  0  0  0
  192.6450  174.3790  145.3180 C   0  0  0  0  0  3  0  0  0  0  0  0
  192.2660  175.1200  147.5830 O   0  0  0  0  0  1  0  0  0  0  0  0
  191.9260  175.1410  146.2350 C   0  0  0  0  0  0  0  0  0  0  0  0
  191.2200  175.1710  143.5160 C   0  0  0  0  0  0  0  0  0  0  0  0
  193.0650  173.5110  143.0220 C   0  0  0  0  0  0  0  0  0  0  0  0
  192.7010  172.2820  142.8920 N   0  0  0  0  0  2  0  0  0  0  0  0
  194.3020  173.9080  142.4220 N   0  0  0  0  0  2  0  0  0  0  0  0
  196.1400  175.4390  140.1720 C   0  0  2  0  0  3  0  0  0  0  0  0
  196.8150  174.1930  140.7400 C   0  0  0  0  0  2  0  0  0  0  0  0
  194.8270  175.2720  142.3850 C   0  0  2  0  0  3  0  0  0  0  0  0
  194.8470  175.7780  140.9300 C   0  0  0  0  0  2  0  0  0  0  0  0
  196.2400  175.3080  142.9820 C   0  0  2  0  0  3  0  0  0  0  0  0
  197.2070  174.4060  142.2020 C   0  0  0  0  0  2  0  0  0  0  0  0
  196.2240  174.9020  144.4360 C   0  0  0  0  0  1  0  0  0  0  0  0
  195.8620  175.2860  138.8120 O   0  0  0  0  0  0  0  0  0  0  0  0
  196.2820  173.9960  138.4690 C   0  0  0  0  0  2  0  0  0  0  0  0
  195.8040  173.6490  137.2000 O   0  0  0  0  0  0  0  0  0  0  0  0
  195.2630  172.4170  137.3660 N   0  0  0  0  0  2  0  0  0  0  0  0
  193.8100  172.5690  137.3920 C   0  0  1  0  0  3  0  0  0  0  0  0
  193.5430  172.7870  135.0600 O   0  0  0  0  0  0  0  0  0  0  0  0
  193.2740  173.2470  136.1520 C   0  0  0  0  0  0  0  0  0  0  0  0
  192.3490  174.4350  136.2160 C   0  0  1  0  0  3  0  0  0  0  0  0
  190.9650  174.1130  136.7870 C   0  0  0  0  0  2  0  0  0  0  0  0
  190.4900  172.9100  136.2630 O   0  0  0  0  0  1  0  0  0  0  0  0
  192.9420  175.4790  136.9290 O   0  0  0  0  0  0  0  0  0  0  0  0
  192.2930  177.1250  135.5090 O   0  0  0  0  0  1  0  0  0  0  0  0
  193.3790  176.3850  135.9640 C   0  0  0  0  0  2  0  0  0  0  0  0
  193.1190  171.3720  137.7050 O   0  0  0  0  0  0  0  0  0  0  0  0
  192.6340  171.4010  139.0240 C   0  0  0  0  0  3  0  0  0  0  0  0
  192.1330  170.0140  139.3980 C   0  0  0  0  0  2  0  0  0  0  0  0
  193.4630  170.4930  139.9170 C   0  0  0  0  0  2  0  0  0  0  0  0
  190.8460  175.1960  142.1280 N   0  0  0  0  0  2  0  0  0  0  0  0
  189.5140  174.8710  141.6450 C   0  0  1  0  0  3  0  0  0  0  0  0
  188.5790  172.9500  142.7430 O   0  0  0  0  0  0  0  0  0  0  0  0
  189.7130  172.5110  140.7680 N   0  0  0  0  0  1  0  0  0  0  0  0
  189.2420  173.4010  141.7700 C   0  0  0  0  0  0  0  0  0  0  0  0
  188.4670  175.7070  142.3630 C   0  0  0  0  0  2  0  0  0  0  0  0
  187.4260  176.1470  141.4430 N   0  0  0  0  0  2  0  0  0  0  0  0
  187.6370  177.5580  141.1730 C   0  0  2  0  0  3  0  0  0  0  0  0
  188.7890  178.0700  142.0220 C   0  0  0  0  0  1  0  0  0  0  0  0
  186.3670  178.8200  142.7500 C   0  0  0  0  0  2  0  0  0  0  0  0
  186.3890  178.2860  141.4020 N   0  0  0  0  0  0  0  0  0  0  0  0
  184.9120  178.8550  143.1080 C   0  0  1  0  0  3  0  0  0  0  0  0
  184.2990  178.0120  142.0200 C   0  0  0  0  0  2  0  0  0  0  0  0
  185.3400  177.4330  141.2870 O   0  0  0  0  0  0  0  0  0  0  0  0
  184.6500  178.2810  144.5070 C   0  0  2  0  0  3  0  0  0  0  0  0
  184.5890  179.3060  145.4560 O   0  0  0  0  0  1  0  0  0  0  0  0
  185.7480  177.2980  144.8920 C   0  0  0  0  0  2  0  0  0  0  0  0
  184.5070  176.4220  146.6980 O   0  0  0  0  0  0  0  0  0  0  0  0
  185.5920  176.8230  146.2990 C   0  0  0  0  0  0  0  0  0  0  0  0
  186.7740  176.8170  147.2070 C   0  0  0  0  0  2  0  0  0  0  0  0
  188.8730  177.8570  147.6240 O   0  0  0  0  0  1  0  0  0  0  0  0
  187.7230  177.9350  146.8360 C   0  0  0  0  0  2  0  0  0  0  0  0
  1  3  1  0  0  0  0
  2  4  2  0  0  0  0
  3  6  2  0  0  0  0
  4  6  1  0  0  0  0
  6  5  1  0  0  0  0
  7  2  1  0  0  0  0
  7  1  2  0  0  0  0
  8  2  1  0  0  0  0
  9  8  2  0  0  0  0
 10  8  1  0  0  0  0
 11 18  1  6  0  0  0
 11 12  1  0  0  0  0
 11 14  1  0  0  0  0
 12 16  1  0  0  0  0
 13 10  1  6  0  0  0
 13 15  1  0  0  0  0
 14 13  1  0  0  0  0
 15 17  1  1  0  0  0
 16 15  1  0  0  0  0
 19 18  1  0  0  0  0
 20 21  1  0  0  0  0
 20 19  1  0  0  0  0
 21 22  1  0  0  0  0
 22 24  1  6  0  0  0
 22 31  1  0  0  0  0
 23 24  2  0  0  0  0
 24 25  1  0  0  0  0
 25 26  1  1  0  0  0
 25 28  1  0  0  0  0
 27 26  1  0  0  0  0
 29 30  1  0  0  0  0
 30 28  1  0  0  0  0
 31 32  1  0  0  0  0
 32 33  1  0  0  0  0
 32 34  1  0  0  0  0
 33 34  1  0  0  0  0
 35  7  1  0  0  0  0
 36 39  1  0  0  0  0
 36 35  1  0  0  0  0
 36 40  1  1  0  0  0
 38 39  1  0  0  0  0
 39 37  2  0  0  0  0
 41 40  1  0  0  0  0
 42 45  1  0  0  0  0
 42 41  1  0  0  0  0
 42 43  1  1  0  0  0
 44 46  1  0  0  0  0
 45 44  1  0  0  0  0
 46 49  1  1  0  0  0
 47 46  1  0  0  0  0
 48 45  1  0  0  0  0
 48 47  1  0  0  0  0
 49 51  1  0  0  0  0
 49 50  1  1  0  0  0
 51 53  1  0  0  0  0
 53 52  2  0  0  0  0
 53 54  1  0  0  0  0
 56 54  1  0  0  0  0
 56 55  1  0  0  0  0
M  END
>  <MODEL>
7

>  <REMARK>
 VINA RESULT:      -5.3      1.312      2.648
  Name = 
  26 active torsions:
  status: ('A' for Active; 'I' for Inactive)
    1  A    between atoms: C_1  and  C_8
    2  A    between atoms: O_3  and  C_15
    3  A    between atoms: O_3  and  C_44
    4  A    between atoms: N_4  and  C_25
    5  A    between atoms: C_10  and  C_14
    6  A    between atoms: C_10  and  C_42
    7  A    between atoms: C_12  and  C_18
    8  A    between atoms: C_12  and  N_30
    9  A    between atoms: C_12  and  C_33
   10  A    between atoms: N_13  and  C_28
   11  A    between atoms: C_15  and  N_43
   12  A    between atoms: C_15  and  C_56
   13  A    between atoms: C_18  and  N_29
   14  A    between atoms: C_22  and  O_38
   15  A    between atoms: C_23  and  O_37
   16  A    between atoms: C_23  and  O_38
   17  A    between atoms: C_27  and  C_52
   18  A    between atoms: C_28  and  N_29
   19  A    between atoms: N_30  and  C_48
   20  A    between atoms: C_31  and  O_51
   21  A    between atoms: C_34  and  C_35
   22  A    between atoms: C_35  and  C_39
   23  A    between atoms: O_37  and  N_43
   24  A    between atoms: C_39  and  C_42
   25  A    between atoms: O_51  and  C_52
   26  A    between atoms: C_52  and  C_56
                            x       y       z     vdW  Elec       q    Type
                         _______ _______ _______ _____ _____    ______ ____

>  <TORSDO>
F 26

$$$$
=
 OpenBabel11042417233D

 56 59  0  0  1  0  0  0  0  0999 V2000
  186.7690  178.2400  144.5610 C   0  0  0  0  0  3  0  0  0  0  0  0
  188.2500  176.4650  145.3220 C   0  0  0  0  0  0  0  0  0  0  0  0
  186.3140  178.4240  145.8700 C   0  0  0  0  0  3  0  0  0  0  0  0
  187.7630  176.6540  146.6240 C   0  0  0  0  0  3  0  0  0  0  0  0
  186.3310  177.7960  148.1950 O   0  0  0  0  0  1  0  0  0  0  0  0
  186.7990  177.6210  146.8980 C   0  0  0  0  0  0  0  0  0  0  0  0
  187.7270  177.2580  144.2710 C   0  0  0  0  0  0  0  0  0  0  0  0
  189.2250  175.3790  145.0640 C   0  0  0  0  0  0  0  0  0  0  0  0
  188.7890  174.1950  144.8040 N   0  0  0  0  0  2  0  0  0  0  0  0
  190.6280  175.5380  145.2980 N   0  0  0  0  0  2  0  0  0  0  0  0
  193.6530  176.5130  144.4740 C   0  0  2  0  0  3  0  0  0  0  0  0
  193.6530  175.2880  145.3840 C   0  0  0  0  0  2  0  0  0  0  0  0
  191.3120  176.8120  145.5130 C   0  0  2  0  0  3  0  0  0  0  0  0
  192.2440  177.1050  144.3210 C   0  0  0  0  0  2  0  0  0  0  0  0
  192.1170  176.7640  146.8190 C   0  0  2  0  0  3  0  0  0  0  0  0
  193.1770  175.6540  146.7900 C   0  0  0  0  0  2  0  0  0  0  0  0
  191.2070  176.5690  148.0080 C   0  0  0  0  0  1  0  0  0  0  0  0
  194.1750  176.2070  143.2150 O   0  0  0  0  0  0  0  0  0  0  0  0
  194.1820  174.8100  143.1240 C   0  0  0  0  0  2  0  0  0  0  0  0
  194.9810  174.3960  142.0520 O   0  0  0  0  0  0  0  0  0  0  0  0
  194.8880  173.0430  142.0620 N   0  0  0  0  0  2  0  0  0  0  0  0
  194.6610  172.6230  143.4430 C   0  0  1  0  0  3  0  0  0  0  0  0
  192.6250  171.9300  144.4110 O   0  0  0  0  0  0  0  0  0  0  0  0
  193.4790  171.6900  143.5790 C   0  0  0  0  0  0  0  0  0  0  0  0
  193.2740  170.5070  142.6690 C   0  0  1  0  0  3  0  0  0  0  0  0
  194.4510  169.5280  142.6510 C   0  0  0  0  0  2  0  0  0  0  0  0
  194.0140  168.2350  142.9440 O   0  0  0  0  0  1  0  0  0  0  0  0
  192.0890  169.8420  142.9900 O   0  0  0  0  0  0  0  0  0  0  0  0
  190.1110  170.7690  142.3720 O   0  0  0  0  0  1  0  0  0  0  0  0
  191.2300  170.0780  141.9180 C   0  0  0  0  0  2  0  0  0  0  0  0
  195.8240  172.1330  144.0860 O   0  0  0  0  0  0  0  0  0  0  0  0
  195.6720  172.1540  145.4830 C   0  0  0  0  0  3  0  0  0  0  0  0
  196.8470  171.4270  146.1200 C   0  0  0  0  0  2  0  0  0  0  0  0
  196.8050  172.9320  146.1320 C   0  0  0  0  0  2  0  0  0  0  0  0
  188.1900  177.0830  142.9220 N   0  0  0  0  0  2  0  0  0  0  0  0
  187.4760  176.3160  141.9150 C   0  0  1  0  0  3  0  0  0  0  0  0
  187.1920  177.5020  139.8470 O   0  0  0  0  0  0  0  0  0  0  0  0
  185.4630  177.7410  141.3740 N   0  0  0  0  0  1  0  0  0  0  0  0
  186.7260  177.2190  140.9830 C   0  0  0  0  0  0  0  0  0  0  0  0
  188.4300  175.3940  141.1710 C   0  0  0  0  0  2  0  0  0  0  0  0
  187.7880  174.1270  140.8460 N   0  0  0  0  0  2  0  0  0  0  0  0
  188.8330  173.1530  140.5870 C   0  0  2  0  0  3  0  0  0  0  0  0
  190.1900  173.7760  140.8700 C   0  0  0  0  0  1  0  0  0  0  0  0
  189.9490  172.0520  138.7870 C   0  0  0  0  0  2  0  0  0  0  0  0
  188.7050  172.6600  139.2150 N   0  0  0  0  0  0  0  0  0  0  0  0
  189.9750  172.2700  137.3050 C   0  0  1  0  0  3  0  0  0  0  0  0
  188.8760  173.2830  137.1160 C   0  0  0  0  0  2  0  0  0  0  0  0
  188.4550  173.7020  138.3820 O   0  0  0  0  0  0  0  0  0  0  0  0
  191.3360  172.7900  136.8240 C   0  0  2  0  0  3  0  0  0  0  0  0
  191.2200  174.0970  136.3400 O   0  0  0  0  0  1  0  0  0  0  0  0
  191.8900  171.8910  135.7270 C   0  0  0  0  0  2  0  0  0  0  0  0
  193.0360  170.3640  137.1150 O   0  0  0  0  0  0  0  0  0  0  0  0
  192.1950  170.5220  136.2400 C   0  0  0  0  0  0  0  0  0  0  0  0
  191.4480  169.3520  135.6980 C   0  0  0  0  0  2  0  0  0  0  0  0
  190.4500  168.3470  137.6110 O   0  0  0  0  0  1  0  0  0  0  0  0
  191.4860  168.2060  136.6840 C   0  0  0  0  0  2  0  0  0  0  0  0
  1  3  1  0  0  0  0
  2  4  2  0  0  0  0
  3  6  2  0  0  0  0
  4  6  1  0  0  0  0
  6  5  1  0  0  0  0
  7  1  2  0  0  0  0
  7  2  1  0  0  0  0
  8 10  1  0  0  0  0
  8  2  1  0  0  0  0
  9  8  2  0  0  0  0
 11 18  1  6  0  0  0
 11 12  1  0  0  0  0
 12 16  1  0  0  0  0
 13 10  1  6  0  0  0
 13 15  1  0  0  0  0
 14 11  1  0  0  0  0
 14 13  1  0  0  0  0
 15 17  1  1  0  0  0
 16 15  1  0  0  0  0
 19 18  1  0  0  0  0
 20 21  1  0  0  0  0
 20 19  1  0  0  0  0
 22 21  1  6  0  0  0
 22 24  1  0  0  0  0
 22 31  1  0  0  0  0
 24 23  2  0  0  0  0
 25 26  1  1  0  0  0
 25 28  1  0  0  0  0
 25 24  1  0  0  0  0
 26 27  1  0  0  0  0
 30 29  1  0  0  0  0
 30 28  1  0  0  0  0
 31 32  1  0  0  0  0
 32 33  1  0  0  0  0
 32 34  1  0  0  0  0
 33 34  1  0  0  0  0
 35  7  1  0  0  0  0
 36 40  1  6  0  0  0
 36 35  1  0  0  0  0
 37 39  2  0  0  0  0
 39 38  1  0  0  0  0
 39 36  1  0  0  0  0
 41 40  1  0  0  0  0
 42 41  1  0  0  0  0
 42 43  1  6  0  0  0
 44 45  1  0  0  0  0
 45 42  1  0  0  0  0
 46 49  1  1  0  0  0
 46 44  1  0  0  0  0
 47 46  1  0  0  0  0
 47 48  1  0  0  0  0
 48 45  1  0  0  0  0
 49 50  1  6  0  0  0
 51 53  1  0  0  0  0
 51 49  1  0  0  0  0
 53 52  2  0  0  0  0
 54 53  1  0  0  0  0
 54 56  1  0  0  0  0
 56 55  1  0  0  0  0
M  END
>  <MODEL>
8

>  <REMARK>
 VINA RESULT:      -5.2      2.635      7.558
  Name = 
  26 active torsions:
  status: ('A' for Active; 'I' for Inactive)
    1  A    between atoms: C_1  and  C_8
    2  A    between atoms: O_3  and  C_15
    3  A    between atoms: O_3  and  C_44
    4  A    between atoms: N_4  and  C_25
    5  A    between atoms: C_10  and  C_14
    6  A    between atoms: C_10  and  C_42
    7  A    between atoms: C_12  and  C_18
    8  A    between atoms: C_12  and  N_30
    9  A    between atoms: C_12  and  C_33
   10  A    between atoms: N_13  and  C_28
   11  A    between atoms: C_15  and  N_43
   12  A    between atoms: C_15  and  C_56
   13  A    between atoms: C_18  and  N_29
   14  A    between atoms: C_22  and  O_38
   15  A    between atoms: C_23  and  O_37
   16  A    between atoms: C_23  and  O_38
   17  A    between atoms: C_27  and  C_52
   18  A    between atoms: C_28  and  N_29
   19  A    between atoms: N_30  and  C_48
   20  A    between atoms: C_31  and  O_51
   21  A    between atoms: C_34  and  C_35
   22  A    between atoms: C_35  and  C_39
   23  A    between atoms: O_37  and  N_43
   24  A    between atoms: C_39  and  C_42
   25  A    between atoms: O_51  and  C_52
   26  A    between atoms: C_52  and  C_56
                            x       y       z     vdW  Elec       q    Type
                         _______ _______ _______ _____ _____    ______ ____

>  <TORSDO>
F 26

$$$$
=
 OpenBabel11042417233D

 56 59  0  0  1  0  0  0  0  0999 V2000
  186.5320  176.9260  144.4730 C   0  0  0  0  0  3  0  0  0  0  0  0
  188.4970  175.8310  145.4030 C   0  0  0  0  0  0  0  0  0  0  0  0
  186.3200  177.5830  145.6890 C   0  0  0  0  0  3  0  0  0  0  0  0
  188.2520  176.4850  146.6200 C   0  0  0  0  0  3  0  0  0  0  0  0
  186.9450  177.9910  147.9790 O   0  0  0  0  0  1  0  0  0  0  0  0
  187.1700  177.3500  146.7670 C   0  0  0  0  0  0  0  0  0  0  0  0
  187.6070  176.0400  144.3200 C   0  0  0  0  0  0  0  0  0  0  0  0
  189.6180  174.8660  145.3120 C   0  0  0  0  0  0  0  0  0  0  0  0
  189.3570  173.6090  145.2060 N   0  0  0  0  0  2  0  0  0  0  0  0
  190.9770  175.2470  145.5500 N   0  0  0  0  0  2  0  0  0  0  0  0
  193.7900  176.5550  144.4730 C   0  0  2  0  0  3  0  0  0  0  0  0
  194.0070  175.4420  145.4940 C   0  0  0  0  0  2  0  0  0  0  0  0
  191.4740  176.6210  145.6050 C   0  0  2  0  0  3  0  0  0  0  0  0
  192.3030  176.9210  144.3410 C   0  0  0  0  0  2  0  0  0  0  0  0
  192.3290  176.8220  146.8640 C   0  0  2  0  0  3  0  0  0  0  0  0
  193.5390  175.8780  146.8820 C   0  0  0  0  0  2  0  0  0  0  0  0
  191.5060  176.6220  148.1130 C   0  0  0  0  0  1  0  0  0  0  0  0
  194.3000  176.1990  143.2220 O   0  0  0  0  0  0  0  0  0  0  0  0
  193.8830  174.8830  142.9890 C   0  0  0  0  0  2  0  0  0  0  0  0
  194.4550  174.3930  141.8100 O   0  0  0  0  0  0  0  0  0  0  0  0
  194.4490  173.0460  141.9640 N   0  0  0  0  0  2  0  0  0  0  0  0
  195.8390  172.6000  142.0380 C   0  0  1  0  0  3  0  0  0  0  0  0
  196.8590  173.0560  144.1140 O   0  0  0  0  0  0  0  0  0  0  0  0
  196.2580  172.2380  143.4440 C   0  0  0  0  0  0  0  0  0  0  0  0
  195.8930  170.9230  144.0840 C   0  0  1  0  0  3  0  0  0  0  0  0
  196.3320  170.8020  145.5450 C   0  0  0  0  0  2  0  0  0  0  0  0
  197.5810  170.1860  145.6300 O   0  0  0  0  0  1  0  0  0  0  0  0
  194.5230  170.6840  143.9620 O   0  0  0  0  0  0  0  0  0  0  0  0
  193.0540  172.0900  144.9690 O   0  0  0  0  0  1  0  0  0  0  0  0
  193.9700  171.0650  145.1830 C   0  0  0  0  0  2  0  0  0  0  0  0
  196.1650  171.5970  141.0920 O   0  0  0  0  0  0  0  0  0  0  0  0
  195.0590  171.2950  140.2790 C   0  0  0  0  0  3  0  0  0  0  0  0
  195.5280  171.1510  138.8390 C   0  0  0  0  0  2  0  0  0  0  0  0
  195.2190  169.9210  139.6500 C   0  0  0  0  0  2  0  0  0  0  0  0
  187.8170  175.3760  143.0620 N   0  0  0  0  0  2  0  0  0  0  0  0
  187.7230  176.0390  141.7730 C   0  0  1  0  0  3  0  0  0  0  0  0
  189.7370  177.3220  142.0260 O   0  0  0  0  0  0  0  0  0  0  0  0
  187.8510  178.5400  141.4480 N   0  0  0  0  0  1  0  0  0  0  0  0
  188.5030  177.3200  141.7690 C   0  0  0  0  0  0  0  0  0  0  0  0
  188.1610  175.1030  140.6570 C   0  0  0  0  0  2  0  0  0  0  0  0
  188.8200  173.9200  141.1950 N   0  0  0  0  0  2  0  0  0  0  0  0
  190.1110  173.7950  140.5420 C   0  0  2  0  0  3  0  0  0  0  0  0
  189.9080  173.4320  139.0800 C   0  0  0  0  0  1  0  0  0  0  0  0
  191.3570  171.7660  140.3650 C   0  0  0  0  0  2  0  0  0  0  0  0
  190.9260  172.8180  141.2660 N   0  0  0  0  0  0  0  0  0  0  0  0
  191.4900  170.5610  141.2450 C   0  0  1  0  0  3  0  0  0  0  0  0
  190.7890  171.0080  142.5010 C   0  0  0  0  0  2  0  0  0  0  0  0
  190.1790  172.2380  142.2380 O   0  0  0  0  0  0  0  0  0  0  0  0
  190.8370  169.3200  140.6230 C   0  0  2  0  0  3  0  0  0  0  0  0
  190.5290  168.3790  141.6110 O   0  0  0  0  0  1  0  0  0  0  0  0
  191.7660  168.6890  139.5950 C   0  0  0  0  0  2  0  0  0  0  0  0
  190.0670  168.7810  137.9600 O   0  0  0  0  0  0  0  0  0  0  0  0
  191.2610  168.8860  138.2030 C   0  0  0  0  0  0  0  0  0  0  0  0
  192.2200  169.2360  137.1180 C   0  0  0  0  0  2  0  0  0  0  0  0
  193.2330  171.1550  136.1390 O   0  0  0  0  0  1  0  0  0  0  0  0
  192.0530  170.6860  136.7220 C   0  0  0  0  0  2  0  0  0  0  0  0
  1  3  1  0  0  0  0
  2  4  2  0  0  0  0
  3  6  2  0  0  0  0
  4  6  1  0  0  0  0
  6  5  1  0  0  0  0
  7  1  2  0  0  0  0
  7  2  1  0  0  0  0
  8  2  1  0  0  0  0
  8 10  1  0  0  0  0
  9  8  2  0  0  0  0
 11 18  1  6  0  0  0
 11 12  1  0  0  0  0
 12 16  1  0  0  0  0
 13 10  1  6  0  0  0
 13 15  1  0  0  0  0
 14 11  1  0  0  0  0
 14 13  1  0  0  0  0
 15 16  1  0  0  0  0
 15 17  1  1  0  0  0
 19 18  1  0  0  0  0
 20 21  1  0  0  0  0
 20 19  1  0  0  0  0
 21 22  1  0  0  0  0
 22 31  1  6  0  0  0
 22 24  1  0  0  0  0
 24 25  1  0  0  0  0
 24 23  2  0  0  0  0
 25 26  1  1  0  0  0
 26 27  1  0  0  0  0
 28 25  1  0  0  0  0
 28 30  1  0  0  0  0
 29 30  1  0  0  0  0
 32 31  1  0  0  0  0
 33 34  1  0  0  0  0
 33 32  1  0  0  0  0
 34 32  1  0  0  0  0
 35  7  1  0  0  0  0
 36 40  1  6  0  0  0
 36 35  1  0  0  0  0
 38 39  1  0  0  0  0
 39 36  1  0  0  0  0
 39 37  2  0  0  0  0
 40 41  1  0  0  0  0
 42 43  1  6  0  0  0
 42 41  1  0  0  0  0
 42 45  1  0  0  0  0
 44 46  1  0  0  0  0
 44 45  1  0  0  0  0
 45 48  1  0  0  0  0
 46 49  1  6  0  0  0
 46 47  1  0  0  0  0
 48 47  1  0  0  0  0
 49 50  1  1  0  0  0
 51 49  1  0  0  0  0
 52 53  2  0  0  0  0
 53 51  1  0  0  0  0
 54 53  1  0  0  0  0
 55 56  1  0  0  0  0
 56 54  1  0  0  0  0
M  END
>  <MODEL>
9

>  <REMARK>
 VINA RESULT:      -5.1      2.873      7.358
  Name = 
  26 active torsions:
  status: ('A' for Active; 'I' for Inactive)
    1  A    between atoms: C_1  and  C_8
    2  A    between atoms: O_3  and  C_15
    3  A    between atoms: O_3  and  C_44
    4  A    between atoms: N_4  and  C_25
    5  A    between atoms: C_10  and  C_14
    6  A    between atoms: C_10  and  C_42
    7  A    between atoms: C_12  and  C_18
    8  A    between atoms: C_12  and  N_30
    9  A    between atoms: C_12  and  C_33
   10  A    between atoms: N_13  and  C_28
   11  A    between atoms: C_15  and  N_43
   12  A    between atoms: C_15  and  C_56
   13  A    between atoms: C_18  and  N_29
   14  A    between atoms: C_22  and  O_38
   15  A    between atoms: C_23  and  O_37
   16  A    between atoms: C_23  and  O_38
   17  A    between atoms: C_27  and  C_52
   18  A    between atoms: C_28  and  N_29
   19  A    between atoms: N_30  and  C_48
   20  A    between atoms: C_31  and  O_51
   21  A    between atoms: C_34  and  C_35
   22  A    between atoms: C_35  and  C_39
   23  A    between atoms: O_37  and  N_43
   24  A    between atoms: C_39  and  C_42
   25  A    between atoms: O_51  and  C_52
   26  A    between atoms: C_52  and  C_56
                            x       y       z     vdW  Elec       q    Type
                         _______ _______ _______ _____ _____    ______ ____

>  <TORSDO>
F 26

$$$$
