=
 OpenBabel11042419253D

 40 44  0  0  1  0  0  0  0  0999 V2000
  190.4620  176.3760  146.5230 N   0  0  0  0  0  0  0  0  0  0  0  0
  188.2540  176.0550  146.0050 C   0  0  2  0  0  3  0  0  0  0  0  0
  190.2640  176.9750  145.2660 C   0  0  0  0  0  0  0  0  0  0  0  0
  189.2880  175.7900  147.0240 N   0  0  0  0  0  2  0  0  0  0  0  0
  191.1640  177.5880  144.6320 O   0  0  0  0  0  0  0  0  0  0  0  0
  188.8770  176.8110  144.8150 C   0  0  1  0  0  3  0  0  0  0  0  0
  188.8030  175.9810  143.5640 C   0  0  0  0  0  0  0  0  0  0  0  0
  188.6700  174.4600  141.3080 N   0  0  0  0  0  0  0  0  0  0  0  0
  188.9440  174.6290  143.6320 N   0  0  0  0  0  0  0  0  0  0  0  0
  188.5310  175.7830  141.2140 N   0  0  0  0  0  0  0  0  0  0  0  0
  189.0160  172.4550  142.5980 N   0  0  0  0  0  1  0  0  0  0  0  0
  188.4230  178.0510  142.1630 C   0  0  0  0  0  1  0  0  0  0  0  0
  188.5900  176.5780  142.3140 C   0  0  0  0  0  0  0  0  0  0  0  0
  188.8770  173.8680  142.5110 C   0  0  0  0  0  0  0  0  0  0  0  0
  187.0840  176.8280  146.6100 C   0  0  0  0  0  2  0  0  0  0  0  0
  185.6740  178.8850  146.5070 C   0  0  2  0  0  3  0  0  0  0  0  0
  185.2510  177.9700  145.3660 C   0  0  1  0  0  0  0  0  0  0  0  0
  186.7060  178.0510  145.7780 C   0  0  2  0  0  3  0  0  0  0  0  0
  184.3200  178.2080  146.5370 C   0  0  0  0  0  2  0  0  0  0  0  0
  184.9450  178.8720  144.1850 C   0  0  0  0  0  2  0  0  0  0  0  0
  183.2270  178.3760  142.4060 N   0  0  0  0  0  1  0  0  0  0  0  0
  184.4670  178.0640  143.0290 C   0  0  0  0  0  0  0  0  0  0  0  0
  185.1750  177.1230  142.5840 O   0  0  0  0  0  0  0  0  0  0  0  0
  191.7270  176.4180  147.2500 C   0  0  0  0  0  2  0  0  0  0  0  0
  192.7430  175.4520  146.6660 C   0  0  0  0  0  2  0  0  0  0  0  0
  193.9990  176.2050  146.2790 C   0  0  0  0  0  2  0  0  0  0  0  0
  195.1400  175.2330  146.0390 C   0  0  0  0  0  2  0  0  0  0  0  0
  195.0410  173.8080  143.9640 C   0  0  0  0  0  0  0  0  0  0  0  0
  195.9270  174.7000  143.2800 N   0  0  0  0  0  2  0  0  0  0  0  0
  194.5930  172.7840  143.3820 O   0  0  0  0  0  0  0  0  0  0  0  0
  194.6580  174.0690  145.3140 N   0  0  0  0  0  2  0  0  0  0  0  0
  195.9890  176.8960  141.7460 O   0  0  0  0  0  1  0  0  0  0  0  0
  197.3620  173.4280  141.5970 C   0  0  0  0  0  1  0  0  0  0  0  0
  196.4090  175.7690  141.0360 C   0  0  1  0  0  3  0  0  0  0  0  0
  196.3310  174.5130  141.8900 C   0  0  2  0  0  0  0  0  0  0  0  0
  195.2300  174.8080  140.8820 C   0  0  2  0  0  3  0  0  0  0  0  0
  195.3810  174.0310  139.5820 C   0  0  0  0  0  2  0  0  0  0  0  0
  194.1190  173.7230  139.0700 O   0  0  0  0  0  0  0  0  0  0  0  0
  191.8360  173.5710  139.7190 C   0  0  0  0  0  1  0  0  0  0  0  0
  193.2490  173.9140  140.1460 C   0  0  0  0  0  2  0  0  0  0  0  0
  1  4  1  0  0  0  0
  1 24  1  0  0  0  0
  2 15  1  1  0  0  0
  2  4  1  0  0  0  0
  3  1  1  0  0  0  0
  5  3  2  0  0  0  0
  6  7  1  6  0  0  0
  6  3  1  0  0  0  0
  6  2  1  0  0  0  0
  7  9  2  0  0  0  0
  8 14  2  0  0  0  0
 10  8  1  0  0  0  0
 10 13  2  0  0  0  0
 12 13  1  0  0  0  0
 13  7  1  0  0  0  0
 14 11  1  0  0  0  0
 14  9  1  0  0  0  0
 16 19  1  1  0  0  0
 17 20  1  6  0  0  0
 17 18  1  0  0  0  0
 17 16  1  0  0  0  0
 17 19  1  0  0  0  0
 18 16  1  0  0  0  0
 18 15  1  1  0  0  0
 21 22  1  0  0  0  0
 22 20  1  0  0  0  0
 23 22  2  0  0  0  0
 25 24  1  0  0  0  0
 26 25  1  0  0  0  0
 27 26  1  0  0  0  0
 28 31  1  0  0  0  0
 29 28  1  0  0  0  0
 30 28  2  0  0  0  0
 31 27  1  0  0  0  0
 34 32  1  1  0  0  0
 34 35  1  0  0  0  0
 35 33  1  6  0  0  0
 35 29  1  0  0  0  0
 36 37  1  6  0  0  0
 36 34  1  0  0  0  0
 36 35  1  0  0  0  0
 38 37  1  0  0  0  0
 38 40  1  0  0  0  0
 39 40  1  0  0  0  0
M  END
>  <MODEL>
1

>  <REMARK>
 VINA RESULT:      -6.8      0.000      0.000
  Name = 
  14 active torsions:
  status: ('A' for Active; 'I' for Inactive)
    1  A    between atoms: O_1  and  C_3
    2  A    between atoms: O_1  and  C_38
    3  A    between atoms: N_2  and  C_21
    4  A    between atoms: C_3  and  C_31
    5  A    between atoms: C_5  and  C_16
    6  A    between atoms: C_5  and  C_29
    7  A    between atoms: C_6  and  C_39
    8  A    between atoms: N_8  and  C_30
    9  A    between atoms: C_9  and  C_11
   10  A    between atoms: C_9  and  C_35
   11  A    between atoms: C_14  and  C_18
   12  A    between atoms: C_14  and  C_22
   13  A    between atoms: C_18  and  N_37
   14  A    between atoms: C_21  and  C_22
                            x       y       z     vdW  Elec       q    Type
                         _______ _______ _______ _____ _____    ______ ____

>  <TORSDO>
F 14

$$$$
=
 OpenBabel11042419253D

 40 44  0  0  1  0  0  0  0  0999 V2000
  191.9320  175.0900  146.1280 N   0  0  0  0  0  0  0  0  0  0  0  0
  192.6060  174.1530  144.1500 C   0  0  2  0  0  3  0  0  0  0  0  0
  193.1240  175.7450  145.7710 C   0  0  0  0  0  0  0  0  0  0  0  0
  191.5660  174.1060  145.1960 N   0  0  0  0  0  2  0  0  0  0  0  0
  193.6340  176.6850  146.4380 O   0  0  0  0  0  0  0  0  0  0  0  0
  193.6670  175.2080  144.5180 C   0  0  1  0  0  3  0  0  0  0  0  0
  195.0050  174.5580  144.7370 C   0  0  0  0  0  0  0  0  0  0  0  0
  197.4200  173.3630  145.1400 N   0  0  0  0  0  0  0  0  0  0  0  0
  195.0840  173.3480  145.3550 N   0  0  0  0  0  0  0  0  0  0  0  0
  197.3700  174.5500  144.5340 N   0  0  0  0  0  0  0  0  0  0  0  0
  196.3500  171.4790  146.1930 N   0  0  0  0  0  1  0  0  0  0  0  0
  196.1790  176.5030  143.6270 C   0  0  0  0  0  1  0  0  0  0  0  0
  196.1870  175.1800  144.3140 C   0  0  0  0  0  0  0  0  0  0  0  0
  196.2840  172.7490  145.5560 C   0  0  0  0  0  0  0  0  0  0  0  0
  191.9860  174.4360  142.7830 C   0  0  0  0  0  2  0  0  0  0  0  0
  190.8590  172.2640  142.2900 C   0  0  2  0  0  3  0  0  0  0  0  0
  190.5080  173.2380  141.1740 C   0  0  1  0  0  0  0  0  0  0  0  0
  190.6450  173.7310  142.5980 C   0  0  2  0  0  3  0  0  0  0  0  0
  191.4140  172.0560  140.8980 C   0  0  0  0  0  2  0  0  0  0  0  0
  189.0620  172.9630  140.8050 C   0  0  0  0  0  2  0  0  0  0  0  0
  188.1560  175.3100  140.6190 N   0  0  0  0  0  1  0  0  0  0  0  0
  188.5150  174.0840  139.9920 C   0  0  0  0  0  0  0  0  0  0  0  0
  188.3980  173.9580  138.7450 O   0  0  0  0  0  0  0  0  0  0  0  0
  191.1350  175.4400  147.3000 C   0  0  0  0  0  2  0  0  0  0  0  0
  189.7340  174.8580  147.2200 C   0  0  0  0  0  2  0  0  0  0  0  0
  188.7240  175.9790  147.0790 C   0  0  0  0  0  2  0  0  0  0  0  0
  189.3850  177.2080  146.4830 C   0  0  0  0  0  2  0  0  0  0  0  0
  188.0730  177.6860  144.3860 C   0  0  0  0  0  0  0  0  0  0  0  0
  186.9880  178.2130  145.1580 N   0  0  0  0  0  2  0  0  0  0  0  0
  188.0030  177.6510  143.1290 O   0  0  0  0  0  0  0  0  0  0  0  0
  189.2460  177.1960  145.0360 N   0  0  0  0  0  2  0  0  0  0  0  0
  184.7110  177.2060  146.1500 O   0  0  0  0  0  1  0  0  0  0  0  0
  185.7170  180.1420  144.0740 C   0  0  0  0  0  1  0  0  0  0  0  0
  184.4560  178.1570  145.1590 C   0  0  1  0  0  3  0  0  0  0  0  0
  185.7470  178.6970  144.5610 C   0  0  2  0  0  0  0  0  0  0  0  0
  184.9610  177.6280  143.8160 C   0  0  2  0  0  3  0  0  0  0  0  0
  184.0950  178.1870  142.6960 C   0  0  0  0  0  2  0  0  0  0  0  0
  184.7450  178.0210  141.4720 O   0  0  0  0  0  0  0  0  0  0  0  0
  182.4010  178.2190  141.1180 C   0  0  0  0  0  1  0  0  0  0  0  0
  183.7850  178.3640  140.5180 C   0  0  0  0  0  2  0  0  0  0  0  0
  1 24  1  0  0  0  0
  2 15  1  6  0  0  0
  2  6  1  0  0  0  0
  2  4  1  0  0  0  0
  3  1  1  0  0  0  0
  3  5  2  0  0  0  0
  4  1  1  0  0  0  0
  6  7  1  1  0  0  0
  6  3  1  0  0  0  0
  7  9  2  0  0  0  0
  8 14  2  0  0  0  0
  9 14  1  0  0  0  0
 10  8  1  0  0  0  0
 12 13  1  0  0  0  0
 13 10  2  0  0  0  0
 13  7  1  0  0  0  0
 14 11  1  0  0  0  0
 16 19  1  6  0  0  0
 16 18  1  0  0  0  0
 17 20  1  6  0  0  0
 17 16  1  0  0  0  0
 17 18  1  0  0  0  0
 18 15  1  6  0  0  0
 19 17  1  0  0  0  0
 22 21  1  0  0  0  0
 22 20  1  0  0  0  0
 23 22  2  0  0  0  0
 25 24  1  0  0  0  0
 26 25  1  0  0  0  0
 27 26  1  0  0  0  0
 28 31  1  0  0  0  0
 28 29  1  0  0  0  0
 30 28  2  0  0  0  0
 31 27  1  0  0  0  0
 34 32  1  1  0  0  0
 35 33  1  6  0  0  0
 35 29  1  0  0  0  0
 35 34  1  0  0  0  0
 36 37  1  6  0  0  0
 36 35  1  0  0  0  0
 36 34  1  0  0  0  0
 38 37  1  0  0  0  0
 40 39  1  0  0  0  0
 40 38  1  0  0  0  0
M  END
>  <MODEL>
2

>  <REMARK>
 VINA RESULT:      -6.3      2.607      8.286
  Name = 
  14 active torsions:
  status: ('A' for Active; 'I' for Inactive)
    1  A    between atoms: O_1  and  C_3
    2  A    between atoms: O_1  and  C_38
    3  A    between atoms: N_2  and  C_21
    4  A    between atoms: C_3  and  C_31
    5  A    between atoms: C_5  and  C_16
    6  A    between atoms: C_5  and  C_29
    7  A    between atoms: C_6  and  C_39
    8  A    between atoms: N_8  and  C_30
    9  A    between atoms: C_9  and  C_11
   10  A    between atoms: C_9  and  C_35
   11  A    between atoms: C_14  and  C_18
   12  A    between atoms: C_14  and  C_22
   13  A    between atoms: C_18  and  N_37
   14  A    between atoms: C_21  and  C_22
                            x       y       z     vdW  Elec       q    Type
                         _______ _______ _______ _____ _____    ______ ____

>  <TORSDO>
F 14

$$$$
=
 OpenBabel11042419253D

 40 44  0  0  1  0  0  0  0  0999 V2000
  192.4800  173.4140  143.0190 N   0  0  0  0  0  0  0  0  0  0  0  0
  193.4030  173.0520  145.0840 C   0  0  2  0  0  3  0  0  0  0  0  0
  192.7150  174.6850  143.5710 C   0  0  0  0  0  0  0  0  0  0  0  0
  192.8640  172.3780  143.8860 N   0  0  0  0  0  2  0  0  0  0  0  0
  192.4790  175.7660  142.9670 O   0  0  0  0  0  0  0  0  0  0  0  0
  193.2910  174.5800  144.9170 C   0  0  1  0  0  3  0  0  0  0  0  0
  192.3670  175.1580  145.9520 C   0  0  0  0  0  0  0  0  0  0  0  0
  190.6800  176.1900  147.8260 N   0  0  0  0  0  0  0  0  0  0  0  0
  191.1260  174.6290  146.1320 N   0  0  0  0  0  0  0  0  0  0  0  0
  191.8900  176.7280  147.6680 N   0  0  0  0  0  0  0  0  0  0  0  0
  188.9930  174.5700  147.2500 N   0  0  0  0  0  1  0  0  0  0  0  0
  194.1070  176.8720  146.6080 C   0  0  0  0  0  1  0  0  0  0  0  0
  192.7620  176.2430  146.7460 C   0  0  0  0  0  0  0  0  0  0  0  0
  190.2830  175.1390  147.0650 C   0  0  0  0  0  0  0  0  0  0  0  0
  194.8450  172.6210  145.3420 C   0  0  0  0  0  2  0  0  0  0  0  0
  197.1910  172.6600  144.4910 C   0  0  2  0  0  3  0  0  0  0  0  0
  196.5850  174.0370  144.2560 C   0  0  1  0  0  0  0  0  0  0  0  0
  195.7320  172.7950  144.1120 C   0  0  2  0  0  3  0  0  0  0  0  0
  197.6790  173.8520  145.2870 C   0  0  0  0  0  2  0  0  0  0  0  0
  197.1180  174.5170  142.9190 C   0  0  0  0  0  2  0  0  0  0  0  0
  196.0650  176.6880  143.6590 N   0  0  0  0  0  1  0  0  0  0  0  0
  196.5970  175.8790  142.6160 C   0  0  0  0  0  0  0  0  0  0  0  0
  196.6540  176.3260  141.4410 O   0  0  0  0  0  0  0  0  0  0  0  0
  191.9590  173.1980  141.6720 C   0  0  0  0  0  2  0  0  0  0  0  0
  190.7380  172.2950  141.6800 C   0  0  0  0  0  2  0  0  0  0  0  0
  189.6690  172.8910  142.5730 C   0  0  0  0  0  2  0  0  0  0  0  0
  188.3360  172.9180  141.8480 C   0  0  0  0  0  2  0  0  0  0  0  0
  187.8810  175.3790  141.5620 C   0  0  0  0  0  0  0  0  0  0  0  0
  187.5990  175.5130  142.9590 N   0  0  0  0  0  2  0  0  0  0  0  0
  187.8130  176.3790  140.7990 O   0  0  0  0  0  0  0  0  0  0  0  0
  188.2430  174.1090  141.0200 N   0  0  0  0  0  2  0  0  0  0  0  0
  189.5520  177.2630  143.5140 O   0  0  0  0  0  1  0  0  0  0  0  0
  185.8350  177.3450  143.1690 C   0  0  0  0  0  1  0  0  0  0  0  0
  188.2970  177.7810  143.8430 C   0  0  1  0  0  3  0  0  0  0  0  0
  187.1900  176.7730  143.5720 C   0  0  2  0  0  0  0  0  0  0  0  0
  187.7040  176.9650  144.9920 C   0  0  2  0  0  3  0  0  0  0  0  0
  186.8130  177.8610  145.8390 C   0  0  0  0  0  2  0  0  0  0  0  0
  186.2870  177.1290  146.9040 O   0  0  0  0  0  0  0  0  0  0  0  0
  184.2270  178.2820  146.6090 C   0  0  0  0  0  1  0  0  0  0  0  0
  184.9430  176.9460  146.5740 C   0  0  0  0  0  2  0  0  0  0  0  0
  1  3  1  0  0  0  0
  1  4  1  0  0  0  0
  2 15  1  6  0  0  0
  3  6  1  0  0  0  0
  4  2  1  0  0  0  0
  5  3  2  0  0  0  0
  6  2  1  0  0  0  0
  6  7  1  1  0  0  0
  7  9  2  0  0  0  0
  7 13  1  0  0  0  0
  9 14  1  0  0  0  0
 10  8  1  0  0  0  0
 12 13  1  0  0  0  0
 13 10  2  0  0  0  0
 14 11  1  0  0  0  0
 14  8  2  0  0  0  0
 16 19  1  1  0  0  0
 17 20  1  6  0  0  0
 17 16  1  0  0  0  0
 17 19  1  0  0  0  0
 18 17  1  0  0  0  0
 18 16  1  0  0  0  0
 18 15  1  1  0  0  0
 22 20  1  0  0  0  0
 22 21  1  0  0  0  0
 23 22  2  0  0  0  0
 24 25  1  0  0  0  0
 24  1  1  0  0  0  0
 25 26  1  0  0  0  0
 27 26  1  0  0  0  0
 28 29  1  0  0  0  0
 29 35  1  0  0  0  0
 30 28  2  0  0  0  0
 31 28  1  0  0  0  0
 31 27  1  0  0  0  0
 34 32  1  6  0  0  0
 34 36  1  0  0  0  0
 35 33  1  6  0  0  0
 35 34  1  0  0  0  0
 35 36  1  0  0  0  0
 36 37  1  1  0  0  0
 37 38  1  0  0  0  0
 40 39  1  0  0  0  0
 40 38  1  0  0  0  0
M  END
>  <MODEL>
3

>  <REMARK>
 VINA RESULT:      -6.3      2.128      8.875
  Name = 
  14 active torsions:
  status: ('A' for Active; 'I' for Inactive)
    1  A    between atoms: O_1  and  C_3
    2  A    between atoms: O_1  and  C_38
    3  A    between atoms: N_2  and  C_21
    4  A    between atoms: C_3  and  C_31
    5  A    between atoms: C_5  and  C_16
    6  A    between atoms: C_5  and  C_29
    7  A    between atoms: C_6  and  C_39
    8  A    between atoms: N_8  and  C_30
    9  A    between atoms: C_9  and  C_11
   10  A    between atoms: C_9  and  C_35
   11  A    between atoms: C_14  and  C_18
   12  A    between atoms: C_14  and  C_22
   13  A    between atoms: C_18  and  N_37
   14  A    between atoms: C_21  and  C_22
                            x       y       z     vdW  Elec       q    Type
                         _______ _______ _______ _____ _____    ______ ____

>  <TORSDO>
F 14

$$$$
=
 OpenBabel11042419253D

 40 44  0  0  1  0  0  0  0  0999 V2000
  191.7810  176.3640  144.7090 N   0  0  0  0  0  0  0  0  0  0  0  0
  189.7850  175.2450  144.8060 C   0  0  2  0  0  3  0  0  0  0  0  0
  191.0530  176.7660  143.5760 C   0  0  0  0  0  0  0  0  0  0  0  0
  191.0780  175.4350  145.4930 N   0  0  0  0  0  2  0  0  0  0  0  0
  191.4660  177.6150  142.7410 O   0  0  0  0  0  0  0  0  0  0  0  0
  189.7510  176.0900  143.5170 C   0  0  1  0  0  3  0  0  0  0  0  0
  189.6500  175.2050  142.3070 C   0  0  0  0  0  0  0  0  0  0  0  0
  189.4820  173.5890  140.1200 N   0  0  0  0  0  0  0  0  0  0  0  0
  190.6230  174.2900  142.0460 N   0  0  0  0  0  0  0  0  0  0  0  0
  188.5160  174.4790  140.3510 N   0  0  0  0  0  0  0  0  0  0  0  0
  191.5610  172.5240  140.7050 N   0  0  0  0  0  1  0  0  0  0  0  0
  187.4550  176.2790  141.6530 C   0  0  0  0  0  1  0  0  0  0  0  0
  188.5610  175.3030  141.4300 C   0  0  0  0  0  0  0  0  0  0  0  0
  190.5420  173.4820  140.9590 C   0  0  0  0  0  0  0  0  0  0  0  0
  188.6230  175.5920  145.7340 C   0  0  0  0  0  2  0  0  0  0  0  0
  187.6520  177.5450  146.9480 C   0  0  2  0  0  3  0  0  0  0  0  0
  186.7190  177.1980  145.7970 C   0  0  1  0  0  0  0  0  0  0  0  0
  188.2170  177.0600  145.6300 C   0  0  2  0  0  3  0  0  0  0  0  0
  186.2860  176.9550  147.2280 C   0  0  0  0  0  2  0  0  0  0  0  0
  186.2060  178.5170  145.2490 C   0  0  0  0  0  2  0  0  0  0  0  0
  183.7650  179.0200  144.8560 N   0  0  0  0  0  1  0  0  0  0  0  0
  184.9410  178.3050  144.4930 C   0  0  0  0  0  0  0  0  0  0  0  0
  184.9180  177.5150  143.5140 O   0  0  0  0  0  0  0  0  0  0  0  0
  193.0920  176.9020  145.0630 C   0  0  0  0  0  2  0  0  0  0  0  0
  193.5030  176.5000  146.4680 C   0  0  0  0  0  2  0  0  0  0  0  0
  194.8090  175.7330  146.4180 C   0  0  0  0  0  2  0  0  0  0  0  0
  195.3330  175.6850  144.9940 C   0  0  0  0  0  2  0  0  0  0  0  0
  195.9740  173.3190  144.4150 C   0  0  0  0  0  0  0  0  0  0  0  0
  194.6180  173.0110  144.0740 N   0  0  0  0  0  2  0  0  0  0  0  0
  196.8700  172.4400  144.3210 O   0  0  0  0  0  0  0  0  0  0  0  0
  196.3230  174.6290  144.8640 N   0  0  0  0  0  2  0  0  0  0  0  0
  192.1050  172.3130  144.6870 O   0  0  0  0  0  1  0  0  0  0  0  0
  194.7600  171.1490  142.3350 C   0  0  0  0  0  1  0  0  0  0  0  0
  192.7450  171.3120  143.9530 C   0  0  1  0  0  3  0  0  0  0  0  0
  194.1860  171.6850  143.6420 C   0  0  2  0  0  0  0  0  0  0  0  0
  193.8850  170.7300  144.7880 C   0  0  2  0  0  3  0  0  0  0  0  0
  194.0830  169.2670  144.4210 C   0  0  0  0  0  2  0  0  0  0  0  0
  194.3680  168.5280  145.5700 O   0  0  0  0  0  0  0  0  0  0  0  0
  195.8770  168.8400  147.3830 C   0  0  0  0  0  1  0  0  0  0  0  0
  194.8300  169.4730  146.4880 C   0  0  0  0  0  2  0  0  0  0  0  0
  1 24  1  0  0  0  0
  1  4  1  0  0  0  0
  2  4  1  0  0  0  0
  2 15  1  1  0  0  0
  3  1  1  0  0  0  0
  5  3  2  0  0  0  0
  6  7  1  6  0  0  0
  6  3  1  0  0  0  0
  6  2  1  0  0  0  0
  8 10  1  0  0  0  0
  8 14  2  0  0  0  0
  9  7  2  0  0  0  0
 10 13  2  0  0  0  0
 11 14  1  0  0  0  0
 13 12  1  0  0  0  0
 13  7  1  0  0  0  0
 14  9  1  0  0  0  0
 16 19  1  1  0  0  0
 17 20  1  6  0  0  0
 17 16  1  0  0  0  0
 17 19  1  0  0  0  0
 18 15  1  1  0  0  0
 18 17  1  0  0  0  0
 18 16  1  0  0  0  0
 22 21  1  0  0  0  0
 22 20  1  0  0  0  0
 23 22  2  0  0  0  0
 24 25  1  0  0  0  0
 26 25  1  0  0  0  0
 27 26  1  0  0  0  0
 28 31  1  0  0  0  0
 29 28  1  0  0  0  0
 30 28  2  0  0  0  0
 31 27  1  0  0  0  0
 34 32  1  1  0  0  0
 34 36  1  0  0  0  0
 35 33  1  6  0  0  0
 35 34  1  0  0  0  0
 35 29  1  0  0  0  0
 35 36  1  0  0  0  0
 36 37  1  6  0  0  0
 37 38  1  0  0  0  0
 38 40  1  0  0  0  0
 40 39  1  0  0  0  0
M  END
>  <MODEL>
4

>  <REMARK>
 VINA RESULT:      -6.3      2.402      3.705
  Name = 
  14 active torsions:
  status: ('A' for Active; 'I' for Inactive)
    1  A    between atoms: O_1  and  C_3
    2  A    between atoms: O_1  and  C_38
    3  A    between atoms: N_2  and  C_21
    4  A    between atoms: C_3  and  C_31
    5  A    between atoms: C_5  and  C_16
    6  A    between atoms: C_5  and  C_29
    7  A    between atoms: C_6  and  C_39
    8  A    between atoms: N_8  and  C_30
    9  A    between atoms: C_9  and  C_11
   10  A    between atoms: C_9  and  C_35
   11  A    between atoms: C_14  and  C_18
   12  A    between atoms: C_14  and  C_22
   13  A    between atoms: C_18  and  N_37
   14  A    between atoms: C_21  and  C_22
                            x       y       z     vdW  Elec       q    Type
                         _______ _______ _______ _____ _____    ______ ____

>  <TORSDO>
F 14

$$$$
=
 OpenBabel11042419253D

 40 44  0  0  1  0  0  0  0  0999 V2000
  190.6830  176.6400  146.1440 N   0  0  0  0  0  0  0  0  0  0  0  0
  188.4330  176.3270  145.8490 C   0  0  2  0  0  3  0  0  0  0  0  0
  190.3700  177.2030  144.8940 C   0  0  0  0  0  0  0  0  0  0  0  0
  189.5580  176.0820  146.7730 N   0  0  0  0  0  2  0  0  0  0  0  0
  191.2100  177.7880  144.1600 O   0  0  0  0  0  0  0  0  0  0  0  0
  188.9450  177.0410  144.5830 C   0  0  1  0  0  3  0  0  0  0  0  0
  188.7460  176.1750  143.3710 C   0  0  0  0  0  0  0  0  0  0  0  0
  188.3840  174.5890  141.1860 N   0  0  0  0  0  0  0  0  0  0  0  0
  188.7600  174.8190  143.4900 N   0  0  0  0  0  0  0  0  0  0  0  0
  188.3680  175.9140  141.0410 N   0  0  0  0  0  0  0  0  0  0  0  0
  188.5850  172.6110  142.5450 N   0  0  0  0  0  1  0  0  0  0  0  0
  188.5120  178.2170  141.8980 C   0  0  0  0  0  1  0  0  0  0  0  0
  188.5440  176.7410  142.1050 C   0  0  0  0  0  0  0  0  0  0  0  0
  188.5790  174.0260  142.4050 C   0  0  0  0  0  0  0  0  0  0  0  0
  187.3330  177.1310  146.5390 C   0  0  0  0  0  2  0  0  0  0  0  0
  185.6560  178.9700  146.3450 C   0  0  2  0  0  3  0  0  0  0  0  0
  185.4070  177.9870  145.2100 C   0  0  1  0  0  0  0  0  0  0  0  0
  186.8190  178.2750  145.6690 C   0  0  2  0  0  3  0  0  0  0  0  0
  184.4090  178.1120  146.3430 C   0  0  0  0  0  2  0  0  0  0  0  0
  185.0220  178.8190  144.0000 C   0  0  0  0  0  2  0  0  0  0  0  0
  185.0230  178.6330  141.4840 N   0  0  0  0  0  1  0  0  0  0  0  0
  185.1470  178.0090  142.7570 C   0  0  0  0  0  0  0  0  0  0  0  0
  185.3910  176.7770  142.8310 O   0  0  0  0  0  0  0  0  0  0  0  0
  192.0120  176.6900  146.7460 C   0  0  0  0  0  2  0  0  0  0  0  0
  192.6180  175.3050  146.8860 C   0  0  0  0  0  2  0  0  0  0  0  0
  193.9540  175.2590  146.1720 C   0  0  0  0  0  2  0  0  0  0  0  0
  194.2620  176.6080  145.5480 C   0  0  0  0  0  2  0  0  0  0  0  0
  195.1900  175.4150  143.5330 C   0  0  0  0  0  0  0  0  0  0  0  0
  194.1080  174.4780  143.5600 N   0  0  0  0  0  2  0  0  0  0  0  0
  196.0850  175.3290  142.6510 O   0  0  0  0  0  0  0  0  0  0  0  0
  195.2630  176.4570  144.5050 N   0  0  0  0  0  2  0  0  0  0  0  0
  192.7380  174.9600  141.3080 O   0  0  0  0  0  1  0  0  0  0  0  0
  195.1610  172.3950  142.5280 C   0  0  0  0  0  1  0  0  0  0  0  0
  193.2510  173.6610  141.3220 C   0  0  1  0  0  3  0  0  0  0  0  0
  193.9900  173.3690  142.6190 C   0  0  2  0  0  0  0  0  0  0  0  0
  192.5670  172.8640  142.4330 C   0  0  2  0  0  3  0  0  0  0  0  0
  192.4940  171.3980  142.0300 C   0  0  0  0  0  2  0  0  0  0  0  0
  191.3950  170.7960  142.6440 O   0  0  0  0  0  0  0  0  0  0  0  0
  190.7630  170.4140  140.3830 C   0  0  0  0  0  1  0  0  0  0  0  0
  190.9970  169.8010  141.7490 C   0  0  0  0  0  2  0  0  0  0  0  0
  1 24  1  0  0  0  0
  1  4  1  0  0  0  0
  2 15  1  1  0  0  0
  2  4  1  0  0  0  0
  3  1  1  0  0  0  0
  5  3  2  0  0  0  0
  6  7  1  6  0  0  0
  6  3  1  0  0  0  0
  6  2  1  0  0  0  0
  7  9  2  0  0  0  0
  8 14  2  0  0  0  0
 10  8  1  0  0  0  0
 10 13  2  0  0  0  0
 12 13  1  0  0  0  0
 13  7  1  0  0  0  0
 14 11  1  0  0  0  0
 14  9  1  0  0  0  0
 16 19  1  1  0  0  0
 17 20  1  6  0  0  0
 17 18  1  0  0  0  0
 17 19  1  0  0  0  0
 17 16  1  0  0  0  0
 18 16  1  0  0  0  0
 18 15  1  1  0  0  0
 21 22  1  0  0  0  0
 22 23  2  0  0  0  0
 22 20  1  0  0  0  0
 24 25  1  0  0  0  0
 26 25  1  0  0  0  0
 27 26  1  0  0  0  0
 28 29  1  0  0  0  0
 28 31  1  0  0  0  0
 30 28  2  0  0  0  0
 31 27  1  0  0  0  0
 34 32  1  1  0  0  0
 34 36  1  0  0  0  0
 34 35  1  0  0  0  0
 35 33  1  6  0  0  0
 35 29  1  0  0  0  0
 36 37  1  6  0  0  0
 36 35  1  0  0  0  0
 37 38  1  0  0  0  0
 39 40  1  0  0  0  0
 40 38  1  0  0  0  0
M  END
>  <MODEL>
5

>  <REMARK>
 VINA RESULT:      -6.1      1.610      2.100
  Name = 
  14 active torsions:
  status: ('A' for Active; 'I' for Inactive)
    1  A    between atoms: O_1  and  C_3
    2  A    between atoms: O_1  and  C_38
    3  A    between atoms: N_2  and  C_21
    4  A    between atoms: C_3  and  C_31
    5  A    between atoms: C_5  and  C_16
    6  A    between atoms: C_5  and  C_29
    7  A    between atoms: C_6  and  C_39
    8  A    between atoms: N_8  and  C_30
    9  A    between atoms: C_9  and  C_11
   10  A    between atoms: C_9  and  C_35
   11  A    between atoms: C_14  and  C_18
   12  A    between atoms: C_14  and  C_22
   13  A    between atoms: C_18  and  N_37
   14  A    between atoms: C_21  and  C_22
                            x       y       z     vdW  Elec       q    Type
                         _______ _______ _______ _____ _____    ______ ____

>  <TORSDO>
F 14

$$$$
=
 OpenBabel11042419253D

 40 44  0  0  1  0  0  0  0  0999 V2000
  191.0760  176.1880  146.2790 N   0  0  0  0  0  0  0  0  0  0  0  0
  188.8540  175.6700  146.0770 C   0  0  2  0  0  3  0  0  0  0  0  0
  190.6520  176.7540  145.0640 C   0  0  0  0  0  0  0  0  0  0  0  0
  190.0410  175.5070  146.9390 N   0  0  0  0  0  2  0  0  0  0  0  0
  191.3960  177.4380  144.3120 O   0  0  0  0  0  0  0  0  0  0  0  0
  189.2350  176.4670  144.8130 C   0  0  1  0  0  3  0  0  0  0  0  0
  189.0590  175.6210  143.5830 C   0  0  0  0  0  0  0  0  0  0  0  0
  188.7400  174.0720  141.3650 N   0  0  0  0  0  0  0  0  0  0  0  0
  189.1210  174.2640  143.6720 N   0  0  0  0  0  0  0  0  0  0  0  0
  188.6780  175.3990  141.2500 N   0  0  0  0  0  0  0  0  0  0  0  0
  189.0170  172.0720  142.6790 N   0  0  0  0  0  1  0  0  0  0  0  0
  188.7480  177.6860  142.1570 C   0  0  0  0  0  1  0  0  0  0  0  0
  188.8310  176.2070  142.3310 C   0  0  0  0  0  0  0  0  0  0  0  0
  188.9610  173.4890  142.5700 C   0  0  0  0  0  0  0  0  0  0  0  0
  187.7180  176.3450  146.8420 C   0  0  0  0  0  2  0  0  0  0  0  0
  186.3610  178.4150  147.1640 C   0  0  2  0  0  3  0  0  0  0  0  0
  185.9330  177.7730  145.8510 C   0  0  1  0  0  0  0  0  0  0  0  0
  187.3820  177.7250  146.2840 C   0  0  2  0  0  3  0  0  0  0  0  0
  184.9910  177.7840  147.0380 C   0  0  0  0  0  2  0  0  0  0  0  0
  185.6660  178.9120  144.8850 C   0  0  0  0  0  2  0  0  0  0  0  0
  185.3410  177.0070  143.2630 N   0  0  0  0  0  1  0  0  0  0  0  0
  185.5650  178.3930  143.4920 C   0  0  0  0  0  0  0  0  0  0  0  0
  185.6470  179.1860  142.5180 O   0  0  0  0  0  0  0  0  0  0  0  0
  192.4220  176.3470  146.8210 C   0  0  0  0  0  2  0  0  0  0  0  0
  193.4570  175.6280  145.9740 C   0  0  0  0  0  2  0  0  0  0  0  0
  193.2200  174.1330  146.0390 C   0  0  0  0  0  2  0  0  0  0  0  0
  192.6530  173.6340  144.7220 C   0  0  0  0  0  2  0  0  0  0  0  0
  193.4110  172.1950  142.7990 C   0  0  0  0  0  0  0  0  0  0  0  0
  192.4180  172.7740  141.9440 N   0  0  0  0  0  2  0  0  0  0  0  0
  194.1910  171.3090  142.3600 O   0  0  0  0  0  0  0  0  0  0  0  0
  193.5250  172.6180  144.1580 N   0  0  0  0  0  2  0  0  0  0  0  0
  194.0010  173.9350  140.1200 O   0  0  0  0  0  1  0  0  0  0  0  0
  191.8090  170.9180  140.3020 C   0  0  0  0  0  1  0  0  0  0  0  0
  193.1550  172.9920  139.5320 C   0  0  1  0  0  3  0  0  0  0  0  0
  192.2240  172.3640  140.5570 C   0  0  2  0  0  0  0  0  0  0  0  0
  191.7090  173.4730  139.6520 C   0  0  2  0  0  3  0  0  0  0  0  0
  190.9070  172.9580  138.4650 C   0  0  0  0  0  2  0  0  0  0  0  0
  189.9290  173.8920  138.1190 O   0  0  0  0  0  0  0  0  0  0  0  0
  189.7000  171.9590  136.7510 C   0  0  0  0  0  1  0  0  0  0  0  0
  189.0130  173.1700  137.3500 C   0  0  0  0  0  2  0  0  0  0  0  0
  1 24  1  0  0  0  0
  1  4  1  0  0  0  0
  2 15  1  1  0  0  0
  2  4  1  0  0  0  0
  3  1  1  0  0  0  0
  5  3  2  0  0  0  0
  6  7  1  6  0  0  0
  6  3  1  0  0  0  0
  6  2  1  0  0  0  0
  7  9  2  0  0  0  0
  8 14  2  0  0  0  0
 10  8  1  0  0  0  0
 10 13  2  0  0  0  0
 12 13  1  0  0  0  0
 13  7  1  0  0  0  0
 14 11  1  0  0  0  0
 14  9  1  0  0  0  0
 16 19  1  1  0  0  0
 17 20  1  6  0  0  0
 17 18  1  0  0  0  0
 17 19  1  0  0  0  0
 17 16  1  0  0  0  0
 18 15  1  1  0  0  0
 18 16  1  0  0  0  0
 21 22  1  0  0  0  0
 22 20  1  0  0  0  0
 23 22  2  0  0  0  0
 25 26  1  0  0  0  0
 25 24  1  0  0  0  0
 27 26  1  0  0  0  0
 28 31  1  0  0  0  0
 29 28  1  0  0  0  0
 30 28  2  0  0  0  0
 31 27  1  0  0  0  0
 34 36  1  0  0  0  0
 34 32  1  1  0  0  0
 34 35  1  0  0  0  0
 35 33  1  6  0  0  0
 35 29  1  0  0  0  0
 36 37  1  6  0  0  0
 36 35  1  0  0  0  0
 38 37  1  0  0  0  0
 39 40  1  0  0  0  0
 40 38  1  0  0  0  0
M  END
>  <MODEL>
6

>  <REMARK>
 VINA RESULT:      -6.1      1.869      2.592
  Name = 
  14 active torsions:
  status: ('A' for Active; 'I' for Inactive)
    1  A    between atoms: O_1  and  C_3
    2  A    between atoms: O_1  and  C_38
    3  A    between atoms: N_2  and  C_21
    4  A    between atoms: C_3  and  C_31
    5  A    between atoms: C_5  and  C_16
    6  A    between atoms: C_5  and  C_29
    7  A    between atoms: C_6  and  C_39
    8  A    between atoms: N_8  and  C_30
    9  A    between atoms: C_9  and  C_11
   10  A    between atoms: C_9  and  C_35
   11  A    between atoms: C_14  and  C_18
   12  A    between atoms: C_14  and  C_22
   13  A    between atoms: C_18  and  N_37
   14  A    between atoms: C_21  and  C_22
                            x       y       z     vdW  Elec       q    Type
                         _______ _______ _______ _____ _____    ______ ____

>  <TORSDO>
F 14

$$$$
=
 OpenBabel11042419253D

 40 44  0  0  1  0  0  0  0  0999 V2000
  192.5860  172.8250  142.9850 N   0  0  0  0  0  0  0  0  0  0  0  0
  193.9180  173.1150  144.8240 C   0  0  2  0  0  3  0  0  0  0  0  0
  192.5800  174.2040  143.2580 C   0  0  0  0  0  0  0  0  0  0  0  0
  193.3680  172.1030  143.9010 N   0  0  0  0  0  2  0  0  0  0  0  0
  191.9730  175.0560  142.5550 O   0  0  0  0  0  0  0  0  0  0  0  0
  193.3910  174.5110  144.4420 C   0  0  1  0  0  3  0  0  0  0  0  0
  192.5470  175.0790  145.5490 C   0  0  0  0  0  0  0  0  0  0  0  0
  191.0050  176.0920  147.5530 N   0  0  0  0  0  0  0  0  0  0  0  0
  191.3090  174.5690  145.7950 N   0  0  0  0  0  0  0  0  0  0  0  0
  192.2130  176.6120  147.3310 N   0  0  0  0  0  0  0  0  0  0  0  0
  189.2520  174.5200  147.0450 N   0  0  0  0  0  1  0  0  0  0  0  0
  194.3600  176.7420  146.1350 C   0  0  0  0  0  1  0  0  0  0  0  0
  193.0140  176.1350  146.3430 C   0  0  0  0  0  0  0  0  0  0  0  0
  190.5390  175.0690  146.7930 C   0  0  0  0  0  0  0  0  0  0  0  0
  195.4450  173.0730  144.8230 C   0  0  0  0  0  2  0  0  0  0  0  0
  197.4240  171.7550  145.5810 C   0  0  2  0  0  3  0  0  0  0  0  0
  196.2800  170.7810  145.3330 C   0  0  1  0  0  0  0  0  0  0  0  0
  196.0010  172.1540  145.9070 C   0  0  2  0  0  3  0  0  0  0  0  0
  197.4870  170.7900  144.4170 C   0  0  0  0  0  2  0  0  0  0  0  0
  196.3770  169.7220  146.4150 C   0  0  0  0  0  2  0  0  0  0  0  0
  194.5870  168.5820  147.7800 N   0  0  0  0  0  1  0  0  0  0  0  0
  195.1000  168.9620  146.5080 C   0  0  0  0  0  0  0  0  0  0  0  0
  194.4590  168.6800  145.4620 O   0  0  0  0  0  0  0  0  0  0  0  0
  191.9090  172.2230  141.8390 C   0  0  0  0  0  2  0  0  0  0  0  0
  190.4970  171.7860  142.1880 C   0  0  0  0  0  2  0  0  0  0  0  0
  189.5290  172.3140  141.1480 C   0  0  0  0  0  2  0  0  0  0  0  0
  188.4970  173.2150  141.8020 C   0  0  0  0  0  2  0  0  0  0  0  0
  187.8760  175.6450  141.5640 C   0  0  0  0  0  0  0  0  0  0  0  0
  187.6560  175.7510  142.9740 N   0  0  0  0  0  2  0  0  0  0  0  0
  187.7090  176.6440  140.8160 O   0  0  0  0  0  0  0  0  0  0  0  0
  188.2900  174.4040  140.9920 N   0  0  0  0  0  2  0  0  0  0  0  0
  189.5360  177.2510  144.1550 O   0  0  0  0  0  1  0  0  0  0  0  0
  186.0190  177.7080  142.9890 C   0  0  0  0  0  1  0  0  0  0  0  0
  188.2770  177.8490  144.2490 C   0  0  1  0  0  3  0  0  0  0  0  0
  187.2000  176.9780  143.6200 C   0  0  2  0  0  0  0  0  0  0  0  0
  187.3760  176.9830  145.1310 C   0  0  2  0  0  3  0  0  0  0  0  0
  186.3730  177.8720  145.8520 C   0  0  0  0  0  2  0  0  0  0  0  0
  185.4670  177.0800  146.5590 O   0  0  0  0  0  0  0  0  0  0  0  0
  184.2310  178.9720  145.8170 C   0  0  0  0  0  1  0  0  0  0  0  0
  184.4450  177.9590  146.9240 C   0  0  0  0  0  2  0  0  0  0  0  0
  1  3  1  0  0  0  0
  1  4  1  0  0  0  0
  2 15  1  6  0  0  0
  3  6  1  0  0  0  0
  4  2  1  0  0  0  0
  5  3  2  0  0  0  0
  6  2  1  0  0  0  0
  6  7  1  1  0  0  0
  7  9  2  0  0  0  0
  7 13  1  0  0  0  0
  9 14  1  0  0  0  0
 10  8  1  0  0  0  0
 12 13  1  0  0  0  0
 13 10  2  0  0  0  0
 14 11  1  0  0  0  0
 14  8  2  0  0  0  0
 16 19  1  6  0  0  0
 16 18  1  0  0  0  0
 17 16  1  0  0  0  0
 17 18  1  0  0  0  0
 17 20  1  1  0  0  0
 18 15  1  6  0  0  0
 19 17  1  0  0  0  0
 20 22  1  0  0  0  0
 22 21  1  0  0  0  0
 23 22  2  0  0  0  0
 24 25  1  0  0  0  0
 24  1  1  0  0  0  0
 26 27  1  0  0  0  0
 26 25  1  0  0  0  0
 28 29  1  0  0  0  0
 29 35  1  0  0  0  0
 30 28  2  0  0  0  0
 31 28  1  0  0  0  0
 31 27  1  0  0  0  0
 34 32  1  6  0  0  0
 34 36  1  0  0  0  0
 35 33  1  6  0  0  0
 35 34  1  0  0  0  0
 35 36  1  0  0  0  0
 36 37  1  1  0  0  0
 37 38  1  0  0  0  0
 38 40  1  0  0  0  0
 39 40  1  0  0  0  0
M  END
>  <MODEL>
7

>  <REMARK>
 VINA RESULT:      -6.0      2.672      9.417
  Name = 
  14 active torsions:
  status: ('A' for Active; 'I' for Inactive)
    1  A    between atoms: O_1  and  C_3
    2  A    between atoms: O_1  and  C_38
    3  A    between atoms: N_2  and  C_21
    4  A    between atoms: C_3  and  C_31
    5  A    between atoms: C_5  and  C_16
    6  A    between atoms: C_5  and  C_29
    7  A    between atoms: C_6  and  C_39
    8  A    between atoms: N_8  and  C_30
    9  A    between atoms: C_9  and  C_11
   10  A    between atoms: C_9  and  C_35
   11  A    between atoms: C_14  and  C_18
   12  A    between atoms: C_14  and  C_22
   13  A    between atoms: C_18  and  N_37
   14  A    between atoms: C_21  and  C_22
                            x       y       z     vdW  Elec       q    Type
                         _______ _______ _______ _____ _____    ______ ____

>  <TORSDO>
F 14

$$$$
=
 OpenBabel11042419253D

 40 44  0  0  1  0  0  0  0  0999 V2000
  191.3110  175.9670  144.4880 N   0  0  0  0  0  0  0  0  0  0  0  0
  189.0730  175.5330  144.7070 C   0  0  2  0  0  3  0  0  0  0  0  0
  190.6520  176.8700  143.6350 C   0  0  0  0  0  0  0  0  0  0  0  0
  190.4160  175.1200  145.1610 N   0  0  0  0  0  2  0  0  0  0  0  0
  191.2450  177.7470  142.9510 O   0  0  0  0  0  0  0  0  0  0  0  0
  189.1990  176.6690  143.6740 C   0  0  1  0  0  3  0  0  0  0  0  0
  188.6730  176.2290  142.3370 C   0  0  0  0  0  0  0  0  0  0  0  0
  187.7280  175.4120  139.9160 N   0  0  0  0  0  0  0  0  0  0  0  0
  189.0590  175.0350  141.8100 N   0  0  0  0  0  0  0  0  0  0  0  0
  187.3360  176.5870  140.4080 N   0  0  0  0  0  0  0  0  0  0  0  0
  188.9940  173.3680  140.0720 N   0  0  0  0  0  1  0  0  0  0  0  0
  187.3120  178.3500  142.1260 C   0  0  0  0  0  1  0  0  0  0  0  0
  187.7830  177.0320  141.6110 C   0  0  0  0  0  0  0  0  0  0  0  0
  188.5900  174.6230  140.6060 C   0  0  0  0  0  0  0  0  0  0  0  0
  188.2050  175.9480  145.8930 C   0  0  0  0  0  2  0  0  0  0  0  0
  187.4550  177.8840  147.2790 C   0  0  2  0  0  3  0  0  0  0  0  0
  186.4470  177.6940  146.1540 C   0  0  1  0  0  0  0  0  0  0  0  0
  187.9190  177.4470  145.9050 C   0  0  2  0  0  3  0  0  0  0  0  0
  186.0580  177.3880  147.5850 C   0  0  0  0  0  2  0  0  0  0  0  0
  186.0230  179.0850  145.7190 C   0  0  0  0  0  2  0  0  0  0  0  0
  183.5230  178.7650  145.8300 N   0  0  0  0  0  1  0  0  0  0  0  0
  184.6890  179.0350  145.0600 C   0  0  0  0  0  0  0  0  0  0  0  0
  184.5880  179.2620  143.8260 O   0  0  0  0  0  0  0  0  0  0  0  0
  192.7560  175.9590  144.6990 C   0  0  0  0  0  2  0  0  0  0  0  0
  193.1120  175.5890  146.1280 C   0  0  0  0  0  2  0  0  0  0  0  0
  194.5480  175.9820  146.4140 C   0  0  0  0  0  2  0  0  0  0  0  0
  195.4560  175.4930  145.3010 C   0  0  0  0  0  2  0  0  0  0  0  0
  195.8070  172.9980  145.3250 C   0  0  0  0  0  0  0  0  0  0  0  0
  194.6830  172.8090  144.4590 N   0  0  0  0  0  2  0  0  0  0  0  0
  196.4720  172.0090  145.7320 O   0  0  0  0  0  0  0  0  0  0  0  0
  196.1850  174.3130  145.7350 N   0  0  0  0  0  2  0  0  0  0  0  0
  195.7140  171.8670  142.1720 O   0  0  0  0  0  1  0  0  0  0  0  0
  193.8870  170.4750  145.1150 C   0  0  0  0  0  1  0  0  0  0  0  0
  194.8430  170.9430  142.7550 C   0  0  1  0  0  3  0  0  0  0  0  0
  194.2210  171.4920  144.0300 C   0  0  2  0  0  0  0  0  0  0  0  0
  193.4240  171.5100  142.7340 C   0  0  2  0  0  3  0  0  0  0  0  0
  192.4260  170.3660  142.6250 C   0  0  0  0  0  2  0  0  0  0  0  0
  191.2670  170.8120  141.9870 O   0  0  0  0  0  0  0  0  0  0  0  0
  189.7660  171.8530  143.5110 C   0  0  0  0  0  1  0  0  0  0  0  0
  190.9720  172.0270  142.6090 C   0  0  0  0  0  2  0  0  0  0  0  0
  1 24  1  0  0  0  0
  1  4  1  0  0  0  0
  2  4  1  0  0  0  0
  2 15  1  1  0  0  0
  3  6  1  0  0  0  0
  3  1  1  0  0  0  0
  5  3  2  0  0  0  0
  6  7  1  6  0  0  0
  6  2  1  0  0  0  0
  8 10  1  0  0  0  0
  8 14  2  0  0  0  0
  9  7  2  0  0  0  0
 10 13  2  0  0  0  0
 11 14  1  0  0  0  0
 13 12  1  0  0  0  0
 13  7  1  0  0  0  0
 14  9  1  0  0  0  0
 16 19  1  1  0  0  0
 17 20  1  6  0  0  0
 17 16  1  0  0  0  0
 17 19  1  0  0  0  0
 18 15  1  1  0  0  0
 18 17  1  0  0  0  0
 18 16  1  0  0  0  0
 22 20  1  0  0  0  0
 22 21  1  0  0  0  0
 23 22  2  0  0  0  0
 24 25  1  0  0  0  0
 25 26  1  0  0  0  0
 27 31  1  0  0  0  0
 27 26  1  0  0  0  0
 28 30  2  0  0  0  0
 28 31  1  0  0  0  0
 29 28  1  0  0  0  0
 34 32  1  6  0  0  0
 34 35  1  0  0  0  0
 35 29  1  0  0  0  0
 35 33  1  1  0  0  0
 36 37  1  1  0  0  0
 36 34  1  0  0  0  0
 36 35  1  0  0  0  0
 38 40  1  0  0  0  0
 38 37  1  0  0  0  0
 40 39  1  0  0  0  0
M  END
>  <MODEL>
8

>  <REMARK>
 VINA RESULT:      -6.0      2.424      2.899
  Name = 
  14 active torsions:
  status: ('A' for Active; 'I' for Inactive)
    1  A    between atoms: O_1  and  C_3
    2  A    between atoms: O_1  and  C_38
    3  A    between atoms: N_2  and  C_21
    4  A    between atoms: C_3  and  C_31
    5  A    between atoms: C_5  and  C_16
    6  A    between atoms: C_5  and  C_29
    7  A    between atoms: C_6  and  C_39
    8  A    between atoms: N_8  and  C_30
    9  A    between atoms: C_9  and  C_11
   10  A    between atoms: C_9  and  C_35
   11  A    between atoms: C_14  and  C_18
   12  A    between atoms: C_14  and  C_22
   13  A    between atoms: C_18  and  N_37
   14  A    between atoms: C_21  and  C_22
                            x       y       z     vdW  Elec       q    Type
                         _______ _______ _______ _____ _____    ______ ____

>  <TORSDO>
F 14

$$$$
=
 OpenBabel11042419253D

 40 44  0  0  1  0  0  0  0  0999 V2000
  189.3320  174.0620  143.4760 N   0  0  0  0  0  0  0  0  0  0  0  0
  189.2680  175.8150  144.9480 C   0  0  2  0  0  3  0  0  0  0  0  0
  190.2320  173.7400  144.5060 C   0  0  0  0  0  0  0  0  0  0  0  0
  188.7200  175.3100  143.6740 N   0  0  0  0  0  2  0  0  0  0  0  0
  190.8770  172.6590  144.5610 O   0  0  0  0  0  0  0  0  0  0  0  0
  190.2940  174.8110  145.5080 C   0  0  1  0  0  3  0  0  0  0  0  0
  191.6630  175.4290  145.5620 C   0  0  0  0  0  0  0  0  0  0  0  0
  194.1460  176.5480  145.6390 N   0  0  0  0  0  0  0  0  0  0  0  0
  192.4390  175.4710  144.4440 N   0  0  0  0  0  0  0  0  0  0  0  0
  193.4080  176.5170  146.7490 N   0  0  0  0  0  0  0  0  0  0  0  0
  194.4690  176.0760  143.2990 N   0  0  0  0  0  1  0  0  0  0  0  0
  191.3720  175.9610  148.0170 C   0  0  0  0  0  1  0  0  0  0  0  0
  192.1650  175.9690  146.7540 C   0  0  0  0  0  0  0  0  0  0  0  0
  193.6750  176.0290  144.4780 C   0  0  0  0  0  0  0  0  0  0  0  0
  188.1470  176.0860  145.9490 C   0  0  0  0  0  2  0  0  0  0  0  0
  186.4350  177.7000  146.7840 C   0  0  2  0  0  3  0  0  0  0  0  0
  186.1790  177.4700  145.3010 C   0  0  1  0  0  0  0  0  0  0  0  0
  187.5960  177.5050  145.8310 C   0  0  2  0  0  3  0  0  0  0  0  0
  185.2030  176.9440  146.3340 C   0  0  0  0  0  2  0  0  0  0  0  0
  185.7550  178.8100  144.7280 C   0  0  0  0  0  2  0  0  0  0  0  0
  184.2580  178.3930  142.7410 N   0  0  0  0  0  1  0  0  0  0  0  0
  185.5470  178.6990  143.2580 C   0  0  0  0  0  0  0  0  0  0  0  0
  186.5070  178.9060  142.4700 O   0  0  0  0  0  0  0  0  0  0  0  0
  189.0200  173.1690  142.3630 C   0  0  0  0  0  2  0  0  0  0  0  0
  189.5310  173.7190  141.0420 C   0  0  0  0  0  2  0  0  0  0  0  0
  190.2840  172.6360  140.2960 C   0  0  0  0  0  2  0  0  0  0  0  0
  191.2050  171.8910  141.2440 C   0  0  0  0  0  2  0  0  0  0  0  0
  193.5820  172.0730  142.0590 C   0  0  0  0  0  0  0  0  0  0  0  0
  193.5690  170.7040  142.4760 N   0  0  0  0  0  2  0  0  0  0  0  0
  194.6130  172.7780  142.2200 O   0  0  0  0  0  0  0  0  0  0  0  0
  192.4250  172.6520  141.4550 N   0  0  0  0  0  2  0  0  0  0  0  0
  193.0160  169.2240  144.6410 O   0  0  0  0  0  1  0  0  0  0  0  0
  195.8570  169.5990  142.2480 C   0  0  0  0  0  1  0  0  0  0  0  0
  194.3780  169.1830  144.3320 C   0  0  1  0  0  3  0  0  0  0  0  0
  194.7020  170.0590  143.1310 C   0  0  2  0  0  0  0  0  0  0  0  0
  194.9790  170.5740  144.5360 C   0  0  2  0  0  3  0  0  0  0  0  0
  196.4360  170.4370  144.9520 C   0  0  0  0  0  2  0  0  0  0  0  0
  197.0640  171.6810  144.8820 O   0  0  0  0  0  0  0  0  0  0  0  0
  196.9350  173.8020  145.9520 C   0  0  0  0  0  1  0  0  0  0  0  0
  196.7420  172.3050  146.0890 C   0  0  0  0  0  2  0  0  0  0  0  0
  1  4  1  0  0  0  0
  1  3  1  0  0  0  0
  2  6  1  0  0  0  0
  2 15  1  1  0  0  0
  3  5  2  0  0  0  0
  3  6  1  0  0  0  0
  4  2  1  0  0  0  0
  6  7  1  6  0  0  0
  7 13  1  0  0  0  0
  8 10  1  0  0  0  0
  9 14  1  0  0  0  0
  9  7  2  0  0  0  0
 10 13  2  0  0  0  0
 11 14  1  0  0  0  0
 13 12  1  0  0  0  0
 14  8  2  0  0  0  0
 16 19  1  1  0  0  0
 17 20  1  6  0  0  0
 17 18  1  0  0  0  0
 17 19  1  0  0  0  0
 17 16  1  0  0  0  0
 18 15  1  1  0  0  0
 18 16  1  0  0  0  0
 21 22  1  0  0  0  0
 22 20  1  0  0  0  0
 23 22  2  0  0  0  0
 24  1  1  0  0  0  0
 25 24  1  0  0  0  0
 26 25  1  0  0  0  0
 26 27  1  0  0  0  0
 27 31  1  0  0  0  0
 28 30  2  0  0  0  0
 28 29  1  0  0  0  0
 29 35  1  0  0  0  0
 31 28  1  0  0  0  0
 34 36  1  0  0  0  0
 34 32  1  1  0  0  0
 35 33  1  6  0  0  0
 35 34  1  0  0  0  0
 35 36  1  0  0  0  0
 36 37  1  6  0  0  0
 38 37  1  0  0  0  0
 38 40  1  0  0  0  0
 39 40  1  0  0  0  0
M  END
>  <MODEL>
9

>  <REMARK>
 VINA RESULT:      -6.0      2.503      5.107
  Name = 
  14 active torsions:
  status: ('A' for Active; 'I' for Inactive)
    1  A    between atoms: O_1  and  C_3
    2  A    between atoms: O_1  and  C_38
    3  A    between atoms: N_2  and  C_21
    4  A    between atoms: C_3  and  C_31
    5  A    between atoms: C_5  and  C_16
    6  A    between atoms: C_5  and  C_29
    7  A    between atoms: C_6  and  C_39
    8  A    between atoms: N_8  and  C_30
    9  A    between atoms: C_9  and  C_11
   10  A    between atoms: C_9  and  C_35
   11  A    between atoms: C_14  and  C_18
   12  A    between atoms: C_14  and  C_22
   13  A    between atoms: C_18  and  N_37
   14  A    between atoms: C_21  and  C_22
                            x       y       z     vdW  Elec       q    Type
                         _______ _______ _______ _____ _____    ______ ____

>  <TORSDO>
F 14

$$$$
