=
 OpenBabel11042418053D

 45 50  0  0  1  0  0  0  0  0999 V2000
  192.4780  174.8910  145.9980 C   0  0  0  0  0  1  0  0  0  0  0  0
  190.9700  175.2320  142.8360 C   0  0  0  0  0  0  0  0  0  0  0  0
  184.4160  179.3040  145.4490 C   0  0  0  0  0  3  0  0  0  0  0  0
  193.5540  175.7430  143.9390 C   0  0  0  0  0  0  0  0  0  0  0  0
  188.8070  176.7330  145.0920 C   0  0  0  0  0  0  0  0  0  0  0  0
  188.7640  176.1880  142.0270 C   0  0  0  0  0  2  0  0  0  0  0  0
  192.0630  174.9970  142.1710 N   0  0  0  0  0  0  0  0  0  0  0  0
  187.9540  177.2980  143.9750 C   0  0  2  0  0  3  0  0  0  0  0  0
  188.1870  176.2620  146.3050 N   0  0  0  0  0  0  0  0  0  0  0  0
  185.0010  178.2920  146.2130 C   0  0  0  0  0  3  0  0  0  0  0  0
  184.9980  179.6910  144.2400 C   0  0  0  0  0  3  0  0  0  0  0  0
  189.6100  174.9260  142.2280 C   0  0  1  0  0  3  0  0  0  0  0  0
  186.7360  178.0160  144.5310 C   0  0  0  0  0  0  0  0  0  0  0  0
  191.0650  175.8200  144.1910 C   0  0  0  0  0  0  0  0  0  0  0  0
  188.9210  175.4210  147.2480 C   0  0  0  0  0  1  0  0  0  0  0  0
  186.4790  176.5220  142.1760 C   0  0  0  0  0  1  0  0  0  0  0  0
  187.6570  176.2300  142.9840 N   0  0  0  0  0  0  0  0  0  0  0  0
  186.8480  176.6670  146.6220 C   0  0  0  0  0  0  0  0  0  0  0  0
  189.9850  176.3010  144.7360 C   0  0  0  0  0  0  0  0  0  0  0  0
  186.2730  176.2150  147.6510 O   0  0  0  0  0  0  0  0  0  0  0  0
  186.1650  177.6500  145.7660 C   0  0  0  0  0  0  0  0  0  0  0  0
  192.3930  175.9230  144.8860 C   0  0  1  0  0  3  0  0  0  0  0  0
  186.1540  179.0510  143.7850 C   0  0  0  0  0  3  0  0  0  0  0  0
  193.3700  175.2860  142.6910 C   0  0  0  0  0  3  0  0  0  0  0  0
  194.8360  176.0490  144.4030 O   0  0  0  0  0  0  0  0  0  0  0  0
  195.8550  175.1190  144.3860 N   0  0  0  0  0  2  0  0  0  0  0  0
  196.0080  174.6300  145.7470 C   0  0  0  0  0  2  0  0  0  0  0  0
  197.6380  170.3490  145.2120 C   0  0  0  0  0  2  0  0  0  0  0  0
  195.1790  170.8580  145.7580 C   0  0  0  0  0  2  0  0  0  0  0  0
  197.5970  171.4960  144.1980 C   0  0  0  0  0  2  0  0  0  0  0  0
  195.1160  172.3360  145.3310 C   0  0  0  0  0  2  0  0  0  0  0  0
  197.5650  172.8890  144.8370 C   0  0  0  0  0  2  0  0  0  0  0  0
  196.5470  170.4090  146.2880 C   0  0  0  0  0  2  0  0  0  0  0  0
  196.3490  173.1480  145.7410 C   0  0  0  0  0  3  0  0  0  0  0  0
  189.6560  174.0670  140.9620 C   0  0  0  0  0  2  0  0  0  0  0  0
  189.3240  172.6780  141.2530 N   0  0  0  0  0  2  0  0  0  0  0  0
  189.9320  171.2390  139.5140 O   0  0  0  0  0  1  0  0  0  0  0  0
  190.3800  171.8520  140.6880 C   0  0  2  0  0  3  0  0  0  0  0  0
  193.0040  170.7910  140.5670 O   0  0  0  0  0  1  0  0  0  0  0  0
  192.7640  169.9330  142.7310 C   0  0  0  0  0  0  0  0  0  0  0  0
  193.7750  169.2260  142.9750 O   0  0  0  0  0  0  0  0  0  0  0  0
  190.8540  170.8180  141.7140 C   0  0  1  0  0  3  0  0  0  0  0  0
  192.1520  170.0510  141.3920 C   0  0  1  0  0  3  0  0  0  0  0  0
  192.1110  170.6930  143.7280 N   0  0  0  0  0  2  0  0  0  0  0  0
  191.0090  171.4100  143.1180 C   0  0  0  0  0  2  0  0  0  0  0  0
  2 14  1  0  0  0  0
  3 10  1  0  0  0  0
  4 25  1  0  0  0  0
  4 22  1  0  0  0  0
  5  9  1  0  0  0  0
  6 12  1  0  0  0  0
  6 17  1  0  0  0  0
  7 24  1  0  0  0  0
  7  2  2  0  0  0  0
  8 13  1  1  0  0  0
  8  5  1  0  0  0  0
  9 18  1  0  0  0  0
  9 15  1  0  0  0  0
 11  3  2  0  0  0  0
 12 35  1  6  0  0  0
 12  2  1  0  0  0  0
 13 21  1  0  0  0  0
 14 19  2  0  0  0  0
 14 22  1  0  0  0  0
 16 17  1  0  0  0  0
 17  8  1  0  0  0  0
 18 20  2  0  0  0  0
 19  5  2  0  0  0  0
 21 10  2  0  0  0  0
 21 18  1  0  0  0  0
 22  1  1  1  0  0  0
 23 11  1  0  0  0  0
 23 13  2  0  0  0  0
 24  4  2  0  0  0  0
 26 25  1  0  0  0  0
 26 27  1  0  0  0  0
 28 33  1  0  0  0  0
 29 33  1  0  0  0  0
 30 32  1  0  0  0  0
 30 28  1  0  0  0  0
 31 34  1  0  0  0  0
 31 29  1  0  0  0  0
 32 34  1  0  0  0  0
 34 27  1  0  0  0  0
 35 36  1  0  0  0  0
 38 37  1  6  0  0  0
 38 36  1  0  0  0  0
 40 41  2  0  0  0  0
 40 44  1  0  0  0  0
 42 38  1  6  0  0  0
 42 45  1  0  0  0  0
 43 39  1  6  0  0  0
 43 42  1  0  0  0  0
 43 40  1  0  0  0  0
 45 44  1  0  0  0  0
M  END
>  <MODEL>
1

>  <REMARK>
 VINA RESULT:      -8.7      0.000      0.000
  Name = 
  8 active torsions:
  status: ('A' for Active; 'I' for Inactive)
    1  A    between atoms: C_7  and  O_29
    2  A    between atoms: N_15  and  C_30
    3  A    between atoms: N_15  and  C_39
    4  A    between atoms: C_21  and  C_28
    5  A    between atoms: C_21  and  N_33
    6  A    between atoms: C_22  and  C_39
    7  A    between atoms: O_29  and  N_33
    8  A    between atoms: C_30  and  C_36
                            x       y       z     vdW  Elec       q    Type
                         _______ _______ _______ _____ _____    ______ ____

>  <TORSDO>
F 8

$$$$
=
 OpenBabel11042418053D

 45 50  0  0  1  0  0  0  0  0999 V2000
  189.8340  173.7330  140.8600 C   0  0  0  0  0  1  0  0  0  0  0  0
  190.5120  174.2490  144.2750 C   0  0  0  0  0  0  0  0  0  0  0  0
  183.9790  178.8840  145.7560 C   0  0  0  0  0  3  0  0  0  0  0  0
  190.3470  171.9880  142.5380 C   0  0  0  0  0  0  0  0  0  0  0  0
  187.6020  176.0090  143.6050 C   0  0  0  0  0  0  0  0  0  0  0  0
  189.4170  175.6240  146.1040 C   0  0  0  0  0  2  0  0  0  0  0  0
  191.3290  173.2410  144.3750 N   0  0  0  0  0  0  0  0  0  0  0  0
  187.3720  176.2880  145.0750 C   0  0  2  0  0  3  0  0  0  0  0  0
  187.2770  177.0120  142.6200 N   0  0  0  0  0  0  0  0  0  0  0  0
  184.6660  178.9540  144.5420 C   0  0  0  0  0  3  0  0  0  0  0  0
  184.3620  177.9510  146.7220 C   0  0  0  0  0  3  0  0  0  0  0  0
  190.6430  175.4490  145.2010 C   0  0  1  0  0  3  0  0  0  0  0  0
  186.1600  177.1810  145.2770 C   0  0  0  0  0  0  0  0  0  0  0  0
  189.4390  174.2080  143.2570 C   0  0  0  0  0  0  0  0  0  0  0  0
  187.7830  176.9170  141.2540 C   0  0  0  0  0  1  0  0  0  0  0  0
  188.3970  177.5330  146.9230 C   0  0  0  0  0  1  0  0  0  0  0  0
  188.6300  176.7870  145.6920 N   0  0  0  0  0  0  0  0  0  0  0  0
  186.4000  178.0910  142.9710 C   0  0  0  0  0  0  0  0  0  0  0  0
  188.4720  175.0750  143.3390 C   0  0  0  0  0  0  0  0  0  0  0  0
  186.1540  179.0070  142.1380 O   0  0  0  0  0  0  0  0  0  0  0  0
  185.7500  178.1010  144.2910 C   0  0  0  0  0  0  0  0  0  0  0  0
  189.4320  173.1400  142.2010 C   0  0  1  0  0  3  0  0  0  0  0  0
  185.4460  177.1020  146.4820 C   0  0  0  0  0  3  0  0  0  0  0  0
  191.2370  172.0770  143.5400 C   0  0  0  0  0  3  0  0  0  0  0  0
  190.2580  170.8270  141.7660 O   0  0  0  0  0  0  0  0  0  0  0  0
  191.3520  170.3130  141.1000 N   0  0  0  0  0  2  0  0  0  0  0  0
  190.8440  169.5780  139.9520 C   0  0  0  0  0  2  0  0  0  0  0  0
  189.4630  171.8140  136.1630 C   0  0  0  0  0  2  0  0  0  0  0  0
  191.3570  172.6580  137.6800 C   0  0  0  0  0  2  0  0  0  0  0  0
  190.0590  170.4090  136.2860 C   0  0  0  0  0  2  0  0  0  0  0  0
  191.7010  171.3530  138.4210 C   0  0  0  0  0  2  0  0  0  0  0  0
  189.8460  169.7630  137.6600 C   0  0  0  0  0  2  0  0  0  0  0  0
  189.8830  172.7870  137.2720 C   0  0  0  0  0  2  0  0  0  0  0  0
  190.4720  170.5360  138.8330 C   0  0  0  0  0  3  0  0  0  0  0  0
  191.9480  175.4990  146.0000 C   0  0  0  0  0  2  0  0  0  0  0  0
  192.8850  176.4540  145.4220 N   0  0  0  0  0  2  0  0  0  0  0  0
  194.4880  177.3470  146.8700 O   0  0  0  0  0  1  0  0  0  0  0  0
  194.1710  176.2460  146.0710 C   0  0  2  0  0  3  0  0  0  0  0  0
  195.2650  173.6530  145.7420 O   0  0  0  0  0  1  0  0  0  0  0  0
  196.2170  174.3050  143.7060 C   0  0  0  0  0  0  0  0  0  0  0  0
  196.9500  173.3640  143.3090 O   0  0  0  0  0  0  0  0  0  0  0  0
  195.2580  175.9810  145.0240 C   0  0  1  0  0  3  0  0  0  0  0  0
  196.0290  174.6510  145.1300 C   0  0  1  0  0  3  0  0  0  0  0  0
  195.4940  175.1320  142.8160 N   0  0  0  0  0  2  0  0  0  0  0  0
  194.7330  176.0930  143.5890 C   0  0  0  0  0  2  0  0  0  0  0  0
  2  7  2  0  0  0  0
  2 12  1  0  0  0  0
  3 11  1  0  0  0  0
  4 24  2  0  0  0  0
  8  5  1  6  0  0  0
  8 13  1  0  0  0  0
  8 17  1  0  0  0  0
  9 18  1  0  0  0  0
  9  5  1  0  0  0  0
 10  3  2  0  0  0  0
 12 35  1  1  0  0  0
 12  6  1  0  0  0  0
 13 23  1  0  0  0  0
 14 19  2  0  0  0  0
 14  2  1  0  0  0  0
 15  9  1  0  0  0  0
 17  6  1  0  0  0  0
 17 16  1  0  0  0  0
 18 21  1  0  0  0  0
 19  5  2  0  0  0  0
 20 18  2  0  0  0  0
 21 10  1  0  0  0  0
 21 13  2  0  0  0  0
 22  1  1  6  0  0  0
 22  4  1  0  0  0  0
 22 14  1  0  0  0  0
 23 11  2  0  0  0  0
 24  7  1  0  0  0  0
 25  4  1  0  0  0  0
 26 25  1  0  0  0  0
 27 26  1  0  0  0  0
 28 30  1  0  0  0  0
 28 33  1  0  0  0  0
 29 31  1  0  0  0  0
 30 32  1  0  0  0  0
 31 34  1  0  0  0  0
 32 34  1  0  0  0  0
 33 29  1  0  0  0  0
 34 27  1  0  0  0  0
 36 35  1  0  0  0  0
 36 38  1  0  0  0  0
 38 37  1  6  0  0  0
 40 43  1  0  0  0  0
 41 40  2  0  0  0  0
 42 43  1  0  0  0  0
 42 38  1  1  0  0  0
 43 39  1  1  0  0  0
 44 45  1  0  0  0  0
 44 40  1  0  0  0  0
 45 42  1  0  0  0  0
M  END
>  <MODEL>
2

>  <REMARK>
 VINA RESULT:      -8.7      2.331      6.340
  Name = 
  8 active torsions:
  status: ('A' for Active; 'I' for Inactive)
    1  A    between atoms: C_7  and  O_29
    2  A    between atoms: N_15  and  C_30
    3  A    between atoms: N_15  and  C_39
    4  A    between atoms: C_21  and  C_28
    5  A    between atoms: C_21  and  N_33
    6  A    between atoms: C_22  and  C_39
    7  A    between atoms: O_29  and  N_33
    8  A    between atoms: C_30  and  C_36
                            x       y       z     vdW  Elec       q    Type
                         _______ _______ _______ _____ _____    ______ ____

>  <TORSDO>
F 8

$$$$
=
 OpenBabel11042418053D

 45 50  0  0  1  0  0  0  0  0999 V2000
  189.7810  173.7180  140.7570 C   0  0  0  0  0  1  0  0  0  0  0  0
  190.4980  174.1670  144.1740 C   0  0  0  0  0  0  0  0  0  0  0  0
  184.0470  178.8690  145.7930 C   0  0  0  0  0  3  0  0  0  0  0  0
  190.2850  171.9380  142.4000 C   0  0  0  0  0  0  0  0  0  0  0  0
  187.6080  175.9790  143.5600 C   0  0  0  0  0  0  0  0  0  0  0  0
  189.4410  175.5260  146.0360 C   0  0  0  0  0  2  0  0  0  0  0  0
  191.3010  173.1450  144.2480 N   0  0  0  0  0  0  0  0  0  0  0  0
  187.3960  176.2360  145.0370 C   0  0  2  0  0  3  0  0  0  0  0  0
  187.2890  177.0030  142.5960 N   0  0  0  0  0  0  0  0  0  0  0  0
  184.7240  178.9500  144.5740 C   0  0  0  0  0  3  0  0  0  0  0  0
  184.4260  177.9150  146.7400 C   0  0  0  0  0  3  0  0  0  0  0  0
  190.6550  175.3480  145.1180 C   0  0  1  0  0  3  0  0  0  0  0  0
  186.1980  177.1430  145.2650 C   0  0  0  0  0  0  0  0  0  0  0  0
  189.4150  174.1570  143.1650 C   0  0  0  0  0  0  0  0  0  0  0  0
  187.7800  176.9240  141.2230 C   0  0  0  0  0  1  0  0  0  0  0  0
  188.4560  177.4350  146.8960 C   0  0  0  0  0  1  0  0  0  0  0  0
  188.6660  176.7070  145.6510 N   0  0  0  0  0  0  0  0  0  0  0  0
  186.4300  178.0890  142.9730 C   0  0  0  0  0  0  0  0  0  0  0  0
  188.4620  175.0370  143.2710 C   0  0  0  0  0  0  0  0  0  0  0  0
  186.1900  179.0220  142.1570 O   0  0  0  0  0  0  0  0  0  0  0  0
  185.7930  178.0860  144.2990 C   0  0  0  0  0  0  0  0  0  0  0  0
  189.3840  173.1080  142.0910 C   0  0  1  0  0  3  0  0  0  0  0  0
  185.4950  177.0540  146.4750 C   0  0  0  0  0  3  0  0  0  0  0  0
  191.1850  171.9970  143.3950 C   0  0  0  0  0  3  0  0  0  0  0  0
  190.1720  170.7910  141.6100 O   0  0  0  0  0  0  0  0  0  0  0  0
  191.2820  170.0920  141.1830 N   0  0  0  0  0  2  0  0  0  0  0  0
  191.7060  170.6930  139.9280 C   0  0  0  0  0  2  0  0  0  0  0  0
  196.1430  171.5480  140.8510 C   0  0  0  0  0  2  0  0  0  0  0  0
  194.5910  173.2510  139.7140 C   0  0  0  0  0  2  0  0  0  0  0  0
  195.0020  171.2340  141.8230 C   0  0  0  0  0  2  0  0  0  0  0  0
  193.2230  172.6660  140.1110 C   0  0  0  0  0  2  0  0  0  0  0  0
  193.8530  170.4350  141.1950 C   0  0  0  0  0  2  0  0  0  0  0  0
  195.7010  172.2070  139.5380 C   0  0  0  0  0  2  0  0  0  0  0  0
  193.1560  171.1390  140.0180 C   0  0  0  0  0  3  0  0  0  0  0  0
  191.9680  175.3660  145.9050 C   0  0  0  0  0  2  0  0  0  0  0  0
  192.9390  176.2620  145.2930 N   0  0  0  0  0  2  0  0  0  0  0  0
  194.3500  177.2920  146.8460 O   0  0  0  0  0  1  0  0  0  0  0  0
  194.1730  176.1530  146.0570 C   0  0  2  0  0  3  0  0  0  0  0  0
  195.3510  173.5890  145.7910 O   0  0  0  0  0  1  0  0  0  0  0  0
  196.4830  174.3010  143.8710 C   0  0  0  0  0  0  0  0  0  0  0  0
  197.2730  173.3830  143.5320 O   0  0  0  0  0  0  0  0  0  0  0  0
  195.3630  175.9310  145.1180 C   0  0  1  0  0  3  0  0  0  0  0  0
  196.1490  174.6150  145.2750 C   0  0  1  0  0  3  0  0  0  0  0  0
  195.8330  175.1300  142.9290 N   0  0  0  0  0  2  0  0  0  0  0  0
  194.9790  176.0610  143.6400 C   0  0  0  0  0  2  0  0  0  0  0  0
  2  7  2  0  0  0  0
  2 12  1  0  0  0  0
  3 11  1  0  0  0  0
  4 24  2  0  0  0  0
  8  5  1  6  0  0  0
  8 13  1  0  0  0  0
  8 17  1  0  0  0  0
  9 18  1  0  0  0  0
  9  5  1  0  0  0  0
 10  3  2  0  0  0  0
 12 35  1  1  0  0  0
 12  6  1  0  0  0  0
 13 23  1  0  0  0  0
 14 19  2  0  0  0  0
 14  2  1  0  0  0  0
 15  9  1  0  0  0  0
 17  6  1  0  0  0  0
 17 16  1  0  0  0  0
 18 21  1  0  0  0  0
 19  5  2  0  0  0  0
 20 18  2  0  0  0  0
 21 10  1  0  0  0  0
 21 13  2  0  0  0  0
 22  1  1  6  0  0  0
 22  4  1  0  0  0  0
 22 14  1  0  0  0  0
 23 11  2  0  0  0  0
 24  7  1  0  0  0  0
 25  4  1  0  0  0  0
 26 25  1  0  0  0  0
 27 34  1  0  0  0  0
 27 26  1  0  0  0  0
 28 30  1  0  0  0  0
 29 31  1  0  0  0  0
 32 30  1  0  0  0  0
 33 29  1  0  0  0  0
 33 28  1  0  0  0  0
 34 31  1  0  0  0  0
 34 32  1  0  0  0  0
 36 35  1  0  0  0  0
 36 38  1  0  0  0  0
 38 37  1  6  0  0  0
 40 43  1  0  0  0  0
 41 40  2  0  0  0  0
 42 43  1  0  0  0  0
 42 38  1  1  0  0  0
 43 39  1  6  0  0  0
 44 45  1  0  0  0  0
 44 40  1  0  0  0  0
 45 42  1  0  0  0  0
M  END
>  <MODEL>
3

>  <REMARK>
 VINA RESULT:      -8.1      2.247      5.347
  Name = 
  8 active torsions:
  status: ('A' for Active; 'I' for Inactive)
    1  A    between atoms: C_7  and  O_29
    2  A    between atoms: N_15  and  C_30
    3  A    between atoms: N_15  and  C_39
    4  A    between atoms: C_21  and  C_28
    5  A    between atoms: C_21  and  N_33
    6  A    between atoms: C_22  and  C_39
    7  A    between atoms: O_29  and  N_33
    8  A    between atoms: C_30  and  C_36
                            x       y       z     vdW  Elec       q    Type
                         _______ _______ _______ _____ _____    ______ ____

>  <TORSDO>
F 8

$$$$
=
 OpenBabel11042418053D

 45 50  0  0  1  0  0  0  0  0999 V2000
  192.5990  175.3240  146.1730 C   0  0  0  0  0  1  0  0  0  0  0  0
  191.0820  175.6880  143.0180 C   0  0  0  0  0  0  0  0  0  0  0  0
  184.1850  179.0430  145.7650 C   0  0  0  0  0  3  0  0  0  0  0  0
  193.6060  176.3670  144.1680 C   0  0  0  0  0  0  0  0  0  0  0  0
  188.7860  176.8830  145.3230 C   0  0  0  0  0  0  0  0  0  0  0  0
  188.8050  176.4870  142.2360 C   0  0  0  0  0  2  0  0  0  0  0  0
  192.1950  175.5810  142.3520 N   0  0  0  0  0  0  0  0  0  0  0  0
  187.8920  177.4250  144.2280 C   0  0  2  0  0  3  0  0  0  0  0  0
  188.2030  176.3000  146.5070 N   0  0  0  0  0  0  0  0  0  0  0  0
  184.8530  178.0480  146.4840 C   0  0  0  0  0  3  0  0  0  0  0  0
  184.7380  179.5370  144.5810 C   0  0  0  0  0  3  0  0  0  0  0  0
  189.7570  175.2950  142.3830 C   0  0  1  0  0  3  0  0  0  0  0  0
  186.6130  178.0070  144.8060 C   0  0  0  0  0  0  0  0  0  0  0  0
  191.1180  176.2140  144.4010 C   0  0  0  0  0  0  0  0  0  0  0  0
  189.0030  175.4820  147.4150 C   0  0  0  0  0  1  0  0  0  0  0  0
  186.4990  176.6140  142.3800 C   0  0  0  0  0  1  0  0  0  0  0  0
  187.6940  176.3860  143.1830 N   0  0  0  0  0  0  0  0  0  0  0  0
  186.8330  176.5730  146.8310 C   0  0  0  0  0  0  0  0  0  0  0  0
  189.9980  176.5730  144.9580 C   0  0  0  0  0  0  0  0  0  0  0  0
  186.2940  176.0230  147.8310 O   0  0  0  0  0  0  0  0  0  0  0  0
  186.0700  177.5330  146.0170 C   0  0  0  0  0  0  0  0  0  0  0  0
  192.4290  176.3980  145.1110 C   0  0  1  0  0  3  0  0  0  0  0  0
  185.9470  179.0230  144.1060 C   0  0  0  0  0  3  0  0  0  0  0  0
  193.4690  175.9570  142.8970 C   0  0  0  0  0  3  0  0  0  0  0  0
  194.8540  176.7600  144.6580 O   0  0  0  0  0  0  0  0  0  0  0  0
  195.5720  175.9710  145.5330 N   0  0  0  0  0  2  0  0  0  0  0  0
  196.2800  174.9830  144.7340 C   0  0  0  0  0  2  0  0  0  0  0  0
  195.4820  170.6590  146.1270 C   0  0  0  0  0  2  0  0  0  0  0  0
  194.5000  171.6440  143.9660 C   0  0  0  0  0  2  0  0  0  0  0  0
  196.8140  171.3220  145.7630 C   0  0  0  0  0  2  0  0  0  0  0  0
  195.4510  172.8380  143.7650 C   0  0  0  0  0  2  0  0  0  0  0  0
  196.8160  172.8460  145.9300 C   0  0  0  0  0  2  0  0  0  0  0  0
  194.2560  171.2660  145.4330 C   0  0  0  0  0  2  0  0  0  0  0  0
  195.7840  173.5840  145.0610 C   0  0  0  0  0  3  0  0  0  0  0  0
  189.8840  174.5060  141.0780 C   0  0  0  0  0  2  0  0  0  0  0  0
  188.6050  173.9290  140.6820 N   0  0  0  0  0  2  0  0  0  0  0  0
  189.5760  171.8170  140.9300 O   0  0  0  0  0  1  0  0  0  0  0  0
  188.8840  172.6500  140.0470 C   0  0  2  0  0  3  0  0  0  0  0  0
  189.3240  170.4980  138.2570 O   0  0  0  0  0  1  0  0  0  0  0  0
  189.9770  172.0080  136.5920 C   0  0  0  0  0  0  0  0  0  0  0  0
  190.4050  171.3380  135.6170 O   0  0  0  0  0  0  0  0  0  0  0  0
  189.6670  172.8610  138.7460 C   0  0  1  0  0  3  0  0  0  0  0  0
  190.1460  171.6000  138.0010 C   0  0  1  0  0  3  0  0  0  0  0  0
  189.2840  173.2290  136.4280 N   0  0  0  0  0  2  0  0  0  0  0  0
  188.9070  173.7280  137.7360 C   0  0  0  0  0  2  0  0  0  0  0  0
  2 14  1  0  0  0  0
  3 10  1  0  0  0  0
  4 25  1  0  0  0  0
  4 22  1  0  0  0  0
  5  9  1  0  0  0  0
  6 12  1  0  0  0  0
  6 17  1  0  0  0  0
  7 24  1  0  0  0  0
  7  2  2  0  0  0  0
  8 13  1  1  0  0  0
  8  5  1  0  0  0  0
  9 18  1  0  0  0  0
  9 15  1  0  0  0  0
 11  3  2  0  0  0  0
 12 35  1  6  0  0  0
 12  2  1  0  0  0  0
 13 21  1  0  0  0  0
 14 19  2  0  0  0  0
 14 22  1  0  0  0  0
 16 17  1  0  0  0  0
 17  8  1  0  0  0  0
 18 20  2  0  0  0  0
 19  5  2  0  0  0  0
 21 10  2  0  0  0  0
 21 18  1  0  0  0  0
 22  1  1  1  0  0  0
 23 11  1  0  0  0  0
 23 13  2  0  0  0  0
 24  4  2  0  0  0  0
 25 26  1  0  0  0  0
 27 34  1  0  0  0  0
 27 26  1  0  0  0  0
 29 33  1  0  0  0  0
 30 32  1  0  0  0  0
 30 28  1  0  0  0  0
 31 29  1  0  0  0  0
 31 34  1  0  0  0  0
 33 28  1  0  0  0  0
 34 32  1  0  0  0  0
 36 35  1  0  0  0  0
 38 36  1  0  0  0  0
 38 37  1  1  0  0  0
 40 43  1  0  0  0  0
 41 40  2  0  0  0  0
 42 38  1  1  0  0  0
 43 39  1  1  0  0  0
 43 42  1  0  0  0  0
 44 40  1  0  0  0  0
 44 45  1  0  0  0  0
 45 42  1  0  0  0  0
M  END
>  <MODEL>
4

>  <REMARK>
 VINA RESULT:      -8.1      1.759      2.663
  Name = 
  8 active torsions:
  status: ('A' for Active; 'I' for Inactive)
    1  A    between atoms: C_7  and  O_29
    2  A    between atoms: N_15  and  C_30
    3  A    between atoms: N_15  and  C_39
    4  A    between atoms: C_21  and  C_28
    5  A    between atoms: C_21  and  N_33
    6  A    between atoms: C_22  and  C_39
    7  A    between atoms: O_29  and  N_33
    8  A    between atoms: C_30  and  C_36
                            x       y       z     vdW  Elec       q    Type
                         _______ _______ _______ _____ _____    ______ ____

>  <TORSDO>
F 8

$$$$
=
 OpenBabel11042418053D

 45 50  0  0  1  0  0  0  0  0999 V2000
  189.2990  173.8000  140.0770 C   0  0  0  0  0  1  0  0  0  0  0  0
  191.0980  174.3380  143.0550 C   0  0  0  0  0  0  0  0  0  0  0  0
  185.3270  178.7340  146.7600 C   0  0  0  0  0  3  0  0  0  0  0  0
  190.4190  172.0740  141.4520 C   0  0  0  0  0  0  0  0  0  0  0  0
  188.0790  175.9930  143.4530 C   0  0  0  0  0  0  0  0  0  0  0  0
  190.6570  175.6710  145.1670 C   0  0  0  0  0  2  0  0  0  0  0  0
  191.9320  173.3600  142.8530 N   0  0  0  0  0  0  0  0  0  0  0  0
  188.3610  176.2620  144.9160 C   0  0  2  0  0  3  0  0  0  0  0  0
  187.4000  176.9840  142.6550 N   0  0  0  0  0  0  0  0  0  0  0  0
  185.5500  178.8300  145.3840 C   0  0  0  0  0  3  0  0  0  0  0  0
  186.0520  177.8150  147.5220 C   0  0  0  0  0  3  0  0  0  0  0  0
  191.5000  175.5410  143.8940 C   0  0  1  0  0  3  0  0  0  0  0  0
  187.2640  177.1110  145.5350 C   0  0  0  0  0  0  0  0  0  0  0  0
  189.7410  174.2580  142.4690 C   0  0  0  0  0  0  0  0  0  0  0  0
  187.4060  176.9080  141.1960 C   0  0  0  0  0  1  0  0  0  0  0  0
  189.9190  177.5410  146.3130 C   0  0  0  0  0  1  0  0  0  0  0  0
  189.7370  176.8050  145.0680 N   0  0  0  0  0  0  0  0  0  0  0  0
  186.6620  178.0310  143.3010 C   0  0  0  0  0  0  0  0  0  0  0  0
  188.8330  175.0900  142.8910 C   0  0  0  0  0  0  0  0  0  0  0  0
  186.1130  178.9380  142.6160 O   0  0  0  0  0  0  0  0  0  0  0  0
  186.5090  178.0160  144.7640 C   0  0  0  0  0  0  0  0  0  0  0  0
  189.4060  173.1920  141.4660 C   0  0  1  0  0  3  0  0  0  0  0  0
  187.0140  177.0050  146.9110 C   0  0  0  0  0  3  0  0  0  0  0  0
  191.5960  172.1930  142.0860 C   0  0  0  0  0  3  0  0  0  0  0  0
  190.1080  170.9110  140.7430 O   0  0  0  0  0  0  0  0  0  0  0  0
  191.0830  170.1520  140.1280 N   0  0  0  0  0  2  0  0  0  0  0  0
  190.4460  169.4530  139.0230 C   0  0  0  0  0  2  0  0  0  0  0  0
  192.1800  171.7760  135.4350 C   0  0  0  0  0  2  0  0  0  0  0  0
  189.6920  171.1680  135.6460 C   0  0  0  0  0  2  0  0  0  0  0  0
  192.1560  172.1700  136.9150 C   0  0  0  0  0  2  0  0  0  0  0  0
  189.6160  170.8910  137.1580 C   0  0  0  0  0  2  0  0  0  0  0  0
  192.0720  170.9770  137.8740 C   0  0  0  0  0  2  0  0  0  0  0  0
  191.0470  170.8350  135.0060 C   0  0  0  0  0  2  0  0  0  0  0  0
  190.8160  170.1070  137.7010 C   0  0  0  0  0  3  0  0  0  0  0  0
  192.9980  175.6370  144.1940 C   0  0  0  0  0  2  0  0  0  0  0  0
  193.3200  175.0280  145.4780 N   0  0  0  0  0  2  0  0  0  0  0  0
  195.3980  175.8020  144.7350 O   0  0  0  0  0  1  0  0  0  0  0  0
  194.7620  174.8330  145.5160 C   0  0  2  0  0  3  0  0  0  0  0  0
  197.0670  173.5210  146.5130 O   0  0  0  0  0  1  0  0  0  0  0  0
  196.2810  171.4840  145.6690 C   0  0  0  0  0  0  0  0  0  0  0  0
  197.1910  170.6300  145.8260 O   0  0  0  0  0  0  0  0  0  0  0  0
  195.1200  173.4170  145.0510 C   0  0  1  0  0  3  0  0  0  0  0  0
  196.5390  172.9080  145.3730 C   0  0  1  0  0  3  0  0  0  0  0  0
  194.9090  171.1580  145.7630 N   0  0  0  0  0  2  0  0  0  0  0  0
  194.1300  172.3630  145.5600 C   0  0  0  0  0  2  0  0  0  0  0  0
  2 12  1  0  0  0  0
  3 11  1  0  0  0  0
  4 22  1  0  0  0  0
  4 24  2  0  0  0  0
  7  2  2  0  0  0  0
  8  5  1  6  0  0  0
  8 17  1  0  0  0  0
  8 13  1  0  0  0  0
  9 18  1  0  0  0  0
  9  5  1  0  0  0  0
 10  3  2  0  0  0  0
 12 35  1  1  0  0  0
 12  6  1  0  0  0  0
 13 23  1  0  0  0  0
 14 19  2  0  0  0  0
 14  2  1  0  0  0  0
 15  9  1  0  0  0  0
 17  6  1  0  0  0  0
 17 16  1  0  0  0  0
 18 21  1  0  0  0  0
 19  5  2  0  0  0  0
 20 18  2  0  0  0  0
 21 10  1  0  0  0  0
 21 13  2  0  0  0  0
 22  1  1  6  0  0  0
 22 14  1  0  0  0  0
 23 11  2  0  0  0  0
 24  7  1  0  0  0  0
 25  4  1  0  0  0  0
 26 25  1  0  0  0  0
 27 26  1  0  0  0  0
 28 30  1  0  0  0  0
 29 31  1  0  0  0  0
 30 32  1  0  0  0  0
 31 34  1  0  0  0  0
 33 28  1  0  0  0  0
 33 29  1  0  0  0  0
 34 32  1  0  0  0  0
 34 27  1  0  0  0  0
 35 36  1  0  0  0  0
 36 38  1  0  0  0  0
 38 37  1  6  0  0  0
 40 44  1  0  0  0  0
 40 41  2  0  0  0  0
 42 43  1  0  0  0  0
 42 38  1  1  0  0  0
 42 45  1  0  0  0  0
 43 40  1  0  0  0  0
 43 39  1  1  0  0  0
 45 44  1  0  0  0  0
M  END
>  <MODEL>
5

>  <REMARK>
 VINA RESULT:      -8.1      2.566      6.256
  Name = 
  8 active torsions:
  status: ('A' for Active; 'I' for Inactive)
    1  A    between atoms: C_7  and  O_29
    2  A    between atoms: N_15  and  C_30
    3  A    between atoms: N_15  and  C_39
    4  A    between atoms: C_21  and  C_28
    5  A    between atoms: C_21  and  N_33
    6  A    between atoms: C_22  and  C_39
    7  A    between atoms: O_29  and  N_33
    8  A    between atoms: C_30  and  C_36
                            x       y       z     vdW  Elec       q    Type
                         _______ _______ _______ _____ _____    ______ ____

>  <TORSDO>
F 8

$$$$
=
 OpenBabel11042418053D

 45 50  0  0  1  0  0  0  0  0999 V2000
  189.3020  174.1830  146.8150 C   0  0  0  0  0  1  0  0  0  0  0  0
  191.4340  176.0520  144.7290 C   0  0  0  0  0  0  0  0  0  0  0  0
  190.3780  171.4550  138.0870 C   0  0  0  0  0  3  0  0  0  0  0  0
  189.2500  176.6330  146.4760 C   0  0  0  0  0  0  0  0  0  0  0  0
  190.2510  173.4360  142.7860 C   0  0  0  0  0  0  0  0  0  0  0  0
  192.2480  175.7830  142.3420 C   0  0  0  0  0  2  0  0  0  0  0  0
  191.4160  177.1130  145.4820 N   0  0  0  0  0  0  0  0  0  0  0  0
  190.8460  174.0350  141.5290 C   0  0  2  0  0  3  0  0  0  0  0  0
  190.2530  172.0070  142.9750 N   0  0  0  0  0  0  0  0  0  0  0  0
  190.4120  170.8960  139.3670 C   0  0  0  0  0  3  0  0  0  0  0  0
  190.4520  172.8410  137.9290 C   0  0  0  0  0  3  0  0  0  0  0  0
  192.6230  175.7600  143.8270 C   0  0  1  0  0  3  0  0  0  0  0  0
  190.6410  173.1140  140.3380 C   0  0  0  0  0  0  0  0  0  0  0  0
  190.2700  175.1380  144.7470 C   0  0  0  0  0  0  0  0  0  0  0  0
  190.0000  171.4210  144.2890 C   0  0  0  0  0  1  0  0  0  0  0  0
  193.0400  174.5410  140.5570 C   0  0  0  0  0  1  0  0  0  0  0  0
  192.2560  174.4310  141.7820 N   0  0  0  0  0  0  0  0  0  0  0  0
  190.4500  171.1420  141.8480 C   0  0  0  0  0  0  0  0  0  0  0  0
  190.1700  174.2420  143.8080 C   0  0  0  0  0  0  0  0  0  0  0  0
  190.5120  169.8920  142.0080 O   0  0  0  0  0  0  0  0  0  0  0  0
  190.5330  171.7180  140.4960 C   0  0  0  0  0  0  0  0  0  0  0  0
  189.1950  175.2940  145.7840 C   0  0  1  0  0  3  0  0  0  0  0  0
  190.5810  173.6660  139.0500 C   0  0  0  0  0  3  0  0  0  0  0  0
  190.3100  177.4460  146.3350 C   0  0  0  0  0  3  0  0  0  0  0  0
  188.1740  177.0030  147.2860 O   0  0  0  0  0  0  0  0  0  0  0  0
  187.1500  177.7990  146.8140 N   0  0  0  0  0  2  0  0  0  0  0  0
  186.1210  176.9090  146.3000 C   0  0  0  0  0  2  0  0  0  0  0  0
  185.4740  177.5400  141.7770 C   0  0  0  0  0  2  0  0  0  0  0  0
  185.1950  179.4150  143.5120 C   0  0  0  0  0  2  0  0  0  0  0  0
  186.7470  177.1160  142.5160 C   0  0  0  0  0  2  0  0  0  0  0  0
  185.9850  178.8080  144.6850 C   0  0  0  0  0  2  0  0  0  0  0  0
  186.4840  176.4350  143.8640 C   0  0  0  0  0  2  0  0  0  0  0  0
  184.5020  178.3840  142.6110 C   0  0  0  0  0  2  0  0  0  0  0  0
  185.7350  177.3090  144.8850 C   0  0  0  0  0  3  0  0  0  0  0  0
  193.8640  176.6100  144.1120 C   0  0  0  0  0  2  0  0  0  0  0  0
  195.0570  175.7820  144.2260 N   0  0  0  0  0  2  0  0  0  0  0  0
  194.7490  175.9080  146.5400 O   0  0  0  0  0  1  0  0  0  0  0  0
  194.9480  175.0330  145.4690 C   0  0  2  0  0  3  0  0  0  0  0  0
  194.8450  172.2310  145.0610 O   0  0  0  0  0  1  0  0  0  0  0  0
  197.1830  172.1370  145.0660 C   0  0  0  0  0  0  0  0  0  0  0  0
  197.5170  170.9250  145.0390 O   0  0  0  0  0  0  0  0  0  0  0  0
  196.1930  174.1650  145.6780 C   0  0  1  0  0  3  0  0  0  0  0  0
  195.9820  172.6400  145.7630 C   0  0  1  0  0  3  0  0  0  0  0  0
  197.9360  173.1460  144.4220 N   0  0  0  0  0  2  0  0  0  0  0  0
  197.2720  174.4190  144.6200 C   0  0  0  0  0  2  0  0  0  0  0  0
  2 14  1  0  0  0  0
  2  7  2  0  0  0  0
  3 10  1  0  0  0  0
  4 25  1  0  0  0  0
  5  9  1  0  0  0  0
  5 19  2  0  0  0  0
  6 12  1  0  0  0  0
  7 24  1  0  0  0  0
  8 13  1  6  0  0  0
  8 17  1  0  0  0  0
  8  5  1  0  0  0  0
  9 15  1  0  0  0  0
 10 21  2  0  0  0  0
 11  3  2  0  0  0  0
 11 23  1  0  0  0  0
 12 35  1  6  0  0  0
 12  2  1  0  0  0  0
 13 21  1  0  0  0  0
 14 22  1  0  0  0  0
 16 17  1  0  0  0  0
 17  6  1  0  0  0  0
 18 20  2  0  0  0  0
 18  9  1  0  0  0  0
 19 14  2  0  0  0  0
 21 18  1  0  0  0  0
 22  4  1  0  0  0  0
 22  1  1  1  0  0  0
 23 13  2  0  0  0  0
 24  4  2  0  0  0  0
 26 25  1  0  0  0  0
 27 26  1  0  0  0  0
 28 30  1  0  0  0  0
 28 33  1  0  0  0  0
 29 31  1  0  0  0  0
 30 32  1  0  0  0  0
 31 34  1  0  0  0  0
 32 34  1  0  0  0  0
 33 29  1  0  0  0  0
 34 27  1  0  0  0  0
 35 36  1  0  0  0  0
 36 38  1  0  0  0  0
 38 37  1  1  0  0  0
 40 43  1  0  0  0  0
 41 40  2  0  0  0  0
 42 38  1  6  0  0  0
 42 43  1  0  0  0  0
 43 39  1  6  0  0  0
 44 45  1  0  0  0  0
 44 40  1  0  0  0  0
 45 42  1  0  0  0  0
M  END
>  <MODEL>
6

>  <REMARK>
 VINA RESULT:      -8.1      1.866      8.123
  Name = 
  8 active torsions:
  status: ('A' for Active; 'I' for Inactive)
    1  A    between atoms: C_7  and  O_29
    2  A    between atoms: N_15  and  C_30
    3  A    between atoms: N_15  and  C_39
    4  A    between atoms: C_21  and  C_28
    5  A    between atoms: C_21  and  N_33
    6  A    between atoms: C_22  and  C_39
    7  A    between atoms: O_29  and  N_33
    8  A    between atoms: C_30  and  C_36
                            x       y       z     vdW  Elec       q    Type
                         _______ _______ _______ _____ _____    ______ ____

>  <TORSDO>
F 8

$$$$
=
 OpenBabel11042418053D

 45 50  0  0  1  0  0  0  0  0999 V2000
  192.3120  176.5950  145.4030 C   0  0  0  0  0  1  0  0  0  0  0  0
  190.9960  173.4250  144.6260 C   0  0  0  0  0  0  0  0  0  0  0  0
  197.9410  169.3160  145.7380 C   0  0  0  0  0  3  0  0  0  0  0  0
  190.2680  175.5780  146.3560 C   0  0  0  0  0  0  0  0  0  0  0  0
  194.3540  172.9190  145.3180 C   0  0  0  0  0  0  0  0  0  0  0  0
  191.9950  171.1040  144.4050 C   0  0  0  0  0  2  0  0  0  0  0  0
  189.7560  173.7780  144.8040 N   0  0  0  0  0  0  0  0  0  0  0  0
  194.1830  171.4150  145.2990 C   0  0  2  0  0  3  0  0  0  0  0  0
  195.5560  173.5150  144.7910 N   0  0  0  0  0  0  0  0  0  0  0  0
  197.9300  170.6030  145.1940 C   0  0  0  0  0  3  0  0  0  0  0  0
  196.7490  168.7340  146.1740 C   0  0  0  0  0  3  0  0  0  0  0  0
  191.3500  172.2890  143.6780 C   0  0  1  0  0  3  0  0  0  0  0  0
  195.5180  170.7120  145.4810 C   0  0  0  0  0  0  0  0  0  0  0  0
  192.0600  174.1340  145.3710 C   0  0  0  0  0  0  0  0  0  0  0  0
  195.6180  174.9420  144.4890 C   0  0  0  0  0  1  0  0  0  0  0  0
  193.6320  169.6160  143.7250 C   0  0  0  0  0  1  0  0  0  0  0  0
  193.4210  171.0130  144.0870 N   0  0  0  0  0  0  0  0  0  0  0  0
  196.7280  172.7070  144.6100 C   0  0  0  0  0  0  0  0  0  0  0  0
  193.2510  173.6090  145.4010 C   0  0  0  0  0  0  0  0  0  0  0  0
  197.7680  173.2020  144.0940 O   0  0  0  0  0  0  0  0  0  0  0  0
  196.7260  171.3100  145.0710 C   0  0  0  0  0  0  0  0  0  0  0  0
  191.7480  175.3890  146.1350 C   0  0  1  0  0  3  0  0  0  0  0  0
  195.5440  169.4300  146.0480 C   0  0  0  0  0  3  0  0  0  0  0  0
  189.3660  174.8290  145.7010 C   0  0  0  0  0  3  0  0  0  0  0  0
  189.8560  176.5690  147.2490 O   0  0  0  0  0  0  0  0  0  0  0  0
  189.1290  177.6650  146.8320 N   0  0  0  0  0  2  0  0  0  0  0  0
  187.8370  177.5980  147.4980 C   0  0  0  0  0  2  0  0  0  0  0  0
  184.0940  179.0340  145.2180 C   0  0  0  0  0  2  0  0  0  0  0  0
  185.4830  176.9970  144.4960 C   0  0  0  0  0  2  0  0  0  0  0  0
  184.2080  178.5360  146.6620 C   0  0  0  0  0  2  0  0  0  0  0  0
  186.2270  176.7060  145.8120 C   0  0  0  0  0  2  0  0  0  0  0  0
  185.6030  178.7140  147.2720 C   0  0  0  0  0  2  0  0  0  0  0  0
  185.1590  178.4790  144.2640 C   0  0  0  0  0  2  0  0  0  0  0  0
  186.7240  177.9650  146.5300 C   0  0  0  0  0  3  0  0  0  0  0  0
  190.2070  171.8400  142.7640 C   0  0  0  0  0  2  0  0  0  0  0  0
  190.2710  172.5070  141.4710 N   0  0  0  0  0  2  0  0  0  0  0  0
  188.3760  172.6730  140.1120 O   0  0  0  0  0  1  0  0  0  0  0  0
  188.9930  173.1720  141.2620 C   0  0  2  0  0  3  0  0  0  0  0  0
  187.3160  174.9320  142.7180 O   0  0  0  0  0  1  0  0  0  0  0  0
  188.8110  176.6890  142.3290 C   0  0  0  0  0  0  0  0  0  0  0  0
  188.2770  177.7460  142.7550 O   0  0  0  0  0  0  0  0  0  0  0  0
  189.1900  174.6890  141.1790 C   0  0  1  0  0  3  0  0  0  0  0  0
  188.0530  175.5770  141.7210 C   0  0  1  0  0  3  0  0  0  0  0  0
  190.2050  176.4650  142.3930 N   0  0  0  0  0  2  0  0  0  0  0  0
  190.4890  175.1520  141.8480 C   0  0  0  0  0  2  0  0  0  0  0  0
  2  7  2  0  0  0  0
  2 14  1  0  0  0  0
  3 11  1  0  0  0  0
  4 25  1  0  0  0  0
  5 19  2  0  0  0  0
  7 24  1  0  0  0  0
  8  5  1  6  0  0  0
  8 13  1  0  0  0  0
  9  5  1  0  0  0  0
 10  3  2  0  0  0  0
 12 35  1  1  0  0  0
 12  6  1  0  0  0  0
 12  2  1  0  0  0  0
 13 23  1  0  0  0  0
 14 19  2  0  0  0  0
 14 22  1  0  0  0  0
 15  9  1  0  0  0  0
 16 17  1  0  0  0  0
 17  6  1  0  0  0  0
 17  8  1  0  0  0  0
 18  9  1  0  0  0  0
 18 21  1  0  0  0  0
 20 18  2  0  0  0  0
 21 10  1  0  0  0  0
 21 13  2  0  0  0  0
 22  1  1  6  0  0  0
 22  4  1  0  0  0  0
 23 11  2  0  0  0  0
 24  4  2  0  0  0  0
 26 25  1  0  0  0  0
 26 27  1  0  0  0  0
 28 30  1  0  0  0  0
 29 31  1  0  0  0  0
 30 32  1  0  0  0  0
 31 34  1  0  0  0  0
 33 29  1  0  0  0  0
 33 28  1  0  0  0  0
 34 32  1  0  0  0  0
 34 27  1  0  0  0  0
 36 35  1  0  0  0  0
 38 37  1  6  0  0  0
 38 36  1  0  0  0  0
 40 44  1  0  0  0  0
 40 41  2  0  0  0  0
 42 38  1  1  0  0  0
 42 43  1  0  0  0  0
 42 45  1  0  0  0  0
 43 40  1  0  0  0  0
 43 39  1  1  0  0  0
 45 44  1  0  0  0  0
M  END
>  <MODEL>
7

>  <REMARK>
 VINA RESULT:      -8.0      2.043      9.199
  Name = 
  8 active torsions:
  status: ('A' for Active; 'I' for Inactive)
    1  A    between atoms: C_7  and  O_29
    2  A    between atoms: N_15  and  C_30
    3  A    between atoms: N_15  and  C_39
    4  A    between atoms: C_21  and  C_28
    5  A    between atoms: C_21  and  N_33
    6  A    between atoms: C_22  and  C_39
    7  A    between atoms: O_29  and  N_33
    8  A    between atoms: C_30  and  C_36
                            x       y       z     vdW  Elec       q    Type
                         _______ _______ _______ _____ _____    ______ ____

>  <TORSDO>
F 8

$$$$
=
 OpenBabel11042418053D

 45 50  0  0  1  0  0  0  0  0999 V2000
  190.1210  176.9330  142.7030 C   0  0  0  0  0  1  0  0  0  0  0  0
  190.7880  173.9110  141.0260 C   0  0  0  0  0  0  0  0  0  0  0  0
  196.5910  171.3540  146.1400 C   0  0  0  0  0  3  0  0  0  0  0  0
  188.4570  175.2440  141.9960 C   0  0  0  0  0  0  0  0  0  0  0  0
  192.9650  174.0060  143.7210 C   0  0  0  0  0  0  0  0  0  0  0  0
  192.4760  172.0460  141.3520 C   0  0  0  0  0  2  0  0  0  0  0  0
  189.6650  173.9040  140.3680 N   0  0  0  0  0  0  0  0  0  0  0  0
  193.3990  172.5740  143.4860 C   0  0  2  0  0  3  0  0  0  0  0  0
  193.9260  174.9870  144.1610 N   0  0  0  0  0  0  0  0  0  0  0  0
  196.4410  172.7060  145.8190 C   0  0  0  0  0  3  0  0  0  0  0  0
  195.6870  170.4150  145.6400 C   0  0  0  0  0  3  0  0  0  0  0  0
  192.0180  173.2110  140.4690 C   0  0  1  0  0  3  0  0  0  0  0  0
  194.5020  172.1730  144.4510 C   0  0  0  0  0  0  0  0  0  0  0  0
  190.8510  174.5960  142.3360 C   0  0  0  0  0  0  0  0  0  0  0  0
  193.6340  176.4160  144.0790 C   0  0  0  0  0  1  0  0  0  0  0  0
  194.5930  171.2340  141.8150 C   0  0  0  0  0  1  0  0  0  0  0  0
  193.7200  172.3780  142.0480 N   0  0  0  0  0  0  0  0  0  0  0  0
  195.1660  174.5570  144.7400 C   0  0  0  0  0  0  0  0  0  0  0  0
  191.8760  174.3720  143.1060 C   0  0  0  0  0  0  0  0  0  0  0  0
  196.0400  175.4040  145.0750 O   0  0  0  0  0  0  0  0  0  0  0  0
  195.3960  173.1230  144.9840 C   0  0  0  0  0  0  0  0  0  0  0  0
  189.7180  175.4700  142.7930 C   0  0  1  0  0  3  0  0  0  0  0  0
  194.6460  170.8230  144.8010 C   0  0  0  0  0  3  0  0  0  0  0  0
  188.4710  174.5320  140.8580 C   0  0  0  0  0  3  0  0  0  0  0  0
  187.2690  175.8120  142.4650 O   0  0  0  0  0  0  0  0  0  0  0  0
  186.6030  176.7910  141.7550 N   0  0  0  0  0  2  0  0  0  0  0  0
  186.6860  178.0140  142.5370 C   0  0  0  0  0  2  0  0  0  0  0  0
  184.4170  177.9350  146.5520 C   0  0  0  0  0  2  0  0  0  0  0  0
  186.8940  177.2920  146.3250 C   0  0  0  0  0  2  0  0  0  0  0  0
  184.6930  179.1240  145.6270 C   0  0  0  0  0  2  0  0  0  0  0  0
  187.2160  177.9600  144.9760 C   0  0  0  0  0  2  0  0  0  0  0  0
  184.9160  178.7330  144.1620 C   0  0  0  0  0  2  0  0  0  0  0  0
  185.4470  176.8020  146.4610 C   0  0  0  0  0  2  0  0  0  0  0  0
  186.1120  177.7930  143.9270 C   0  0  0  0  0  3  0  0  0  0  0  0
  191.9060  172.7970  138.9990 C   0  0  0  0  0  2  0  0  0  0  0  0
  193.1690  172.9880  138.2990 N   0  0  0  0  0  2  0  0  0  0  0  0
  193.1470  175.1850  137.5020 O   0  0  0  0  0  1  0  0  0  0  0  0
  193.5950  174.3590  138.5360 C   0  0  2  0  0  3  0  0  0  0  0  0
  194.7730  175.4200  140.8840 O   0  0  0  0  0  1  0  0  0  0  0  0
  196.8380  174.5100  140.2670 C   0  0  0  0  0  0  0  0  0  0  0  0
  197.6990  174.9310  141.0820 O   0  0  0  0  0  0  0  0  0  0  0  0
  195.1180  174.4260  138.6870 C   0  0  1  0  0  3  0  0  0  0  0  0
  195.6750  175.3050  139.8230 C   0  0  1  0  0  3  0  0  0  0  0  0
  196.9040  173.2210  139.6930 N   0  0  0  0  0  2  0  0  0  0  0  0
  195.7570  173.0390  138.8260 C   0  0  0  0  0  2  0  0  0  0  0  0
  2 14  1  0  0  0  0
  4 25  1  0  0  0  0
  4 22  1  0  0  0  0
  5  9  1  0  0  0  0
  6 17  1  0  0  0  0
  7 24  1  0  0  0  0
  7  2  2  0  0  0  0
  8  5  1  6  0  0  0
  8 13  1  0  0  0  0
  9 18  1  0  0  0  0
 10  3  1  0  0  0  0
 11  3  2  0  0  0  0
 12 35  1  6  0  0  0
 12  2  1  0  0  0  0
 12  6  1  0  0  0  0
 13 23  2  0  0  0  0
 13 21  1  0  0  0  0
 14 22  1  0  0  0  0
 14 19  2  0  0  0  0
 15  9  1  0  0  0  0
 16 17  1  0  0  0  0
 17  8  1  0  0  0  0
 18 21  1  0  0  0  0
 18 20  2  0  0  0  0
 19  5  2  0  0  0  0
 21 10  2  0  0  0  0
 22  1  1  6  0  0  0
 23 11  1  0  0  0  0
 24  4  2  0  0  0  0
 26 25  1  0  0  0  0
 26 27  1  0  0  0  0
 27 34  1  0  0  0  0
 29 33  1  0  0  0  0
 30 28  1  0  0  0  0
 31 29  1  0  0  0  0
 32 30  1  0  0  0  0
 33 28  1  0  0  0  0
 34 32  1  0  0  0  0
 34 31  1  0  0  0  0
 36 38  1  0  0  0  0
 36 35  1  0  0  0  0
 38 37  1  6  0  0  0
 40 41  2  0  0  0  0
 42 38  1  1  0  0  0
 42 45  1  0  0  0  0
 42 43  1  0  0  0  0
 43 40  1  0  0  0  0
 43 39  1  1  0  0  0
 44 40  1  0  0  0  0
 45 44  1  0  0  0  0
M  END
>  <MODEL>
8

>  <REMARK>
 VINA RESULT:      -7.9      2.610      8.635
  Name = 
  8 active torsions:
  status: ('A' for Active; 'I' for Inactive)
    1  A    between atoms: C_7  and  O_29
    2  A    between atoms: N_15  and  C_30
    3  A    between atoms: N_15  and  C_39
    4  A    between atoms: C_21  and  C_28
    5  A    between atoms: C_21  and  N_33
    6  A    between atoms: C_22  and  C_39
    7  A    between atoms: O_29  and  N_33
    8  A    between atoms: C_30  and  C_36
                            x       y       z     vdW  Elec       q    Type
                         _______ _______ _______ _____ _____    ______ ____

>  <TORSDO>
F 8

$$$$
=
 OpenBabel11042418053D

 45 50  0  0  1  0  0  0  0  0999 V2000
  188.4070  174.1470  138.8210 C   0  0  0  0  0  1  0  0  0  0  0  0
  190.5670  174.3850  141.5910 C   0  0  0  0  0  0  0  0  0  0  0  0
  185.3770  178.4470  146.3780 C   0  0  0  0  0  3  0  0  0  0  0  0
  189.6540  172.2900  139.8780 C   0  0  0  0  0  0  0  0  0  0  0  0
  187.6500  176.0150  142.5130 C   0  0  0  0  0  0  0  0  0  0  0  0
  190.4130  175.5140  143.8570 C   0  0  0  0  0  2  0  0  0  0  0  0
  191.3520  173.4250  141.1960 N   0  0  0  0  0  0  0  0  0  0  0  0
  188.1150  176.1420  143.9480 C   0  0  2  0  0  3  0  0  0  0  0  0
  186.8980  177.0830  141.9020 N   0  0  0  0  0  0  0  0  0  0  0  0
  185.4310  178.6720  145.0010 C   0  0  0  0  0  3  0  0  0  0  0  0
  186.1720  177.4540  146.9550 C   0  0  0  0  0  3  0  0  0  0  0  0
  191.0910  175.4990  142.4830 C   0  0  1  0  0  3  0  0  0  0  0  0
  187.1180  176.9350  144.7760 C   0  0  0  0  0  0  0  0  0  0  0  0
  189.1470  174.3720  141.1720 C   0  0  0  0  0  0  0  0  0  0  0  0
  186.7230  177.1470  140.4530 C   0  0  0  0  0  1  0  0  0  0  0  0
  189.8560  177.2710  145.2560 C   0  0  0  0  0  1  0  0  0  0  0  0
  189.5090  176.6580  143.9790 N   0  0  0  0  0  0  0  0  0  0  0  0
  186.2640  178.0680  142.7300 C   0  0  0  0  0  0  0  0  0  0  0  0
  188.3140  175.1650  141.7800 C   0  0  0  0  0  0  0  0  0  0  0  0
  185.6520  179.0410  142.2060 O   0  0  0  0  0  0  0  0  0  0  0  0
  186.2910  177.9150  144.1930 C   0  0  0  0  0  0  0  0  0  0  0  0
  188.6720  173.4080  140.1230 C   0  0  1  0  0  3  0  0  0  0  0  0
  187.0360  176.7000  146.1570 C   0  0  0  0  0  3  0  0  0  0  0  0
  190.9030  172.3400  140.3700 C   0  0  0  0  0  3  0  0  0  0  0  0
  189.2370  171.2020  139.1070 O   0  0  0  0  0  0  0  0  0  0  0  0
  190.0550  170.1120  138.8870 N   0  0  0  0  0  2  0  0  0  0  0  0
  190.2040  169.9750  137.4470 C   0  0  0  0  0  2  0  0  0  0  0  0
  190.0020  173.8630  134.9730 C   0  0  0  0  0  2  0  0  0  0  0  0
  192.1380  173.0560  136.1510 C   0  0  0  0  0  2  0  0  0  0  0  0
  189.7690  172.4200  134.5170 C   0  0  0  0  0  2  0  0  0  0  0  0
  191.7810  171.5720  136.3550 C   0  0  0  0  0  2  0  0  0  0  0  0
  189.3260  171.4760  135.6410 C   0  0  0  0  0  2  0  0  0  0  0  0
  190.9360  174.0080  136.1810 C   0  0  0  0  0  2  0  0  0  0  0  0
  190.3320  171.3430  136.7960 C   0  0  0  0  0  3  0  0  0  0  0  0
  192.6160  175.5560  142.6030 C   0  0  0  0  0  2  0  0  0  0  0  0
  193.1170  174.5100  143.4840 N   0  0  0  0  0  2  0  0  0  0  0  0
  195.3900  174.2390  143.9580 O   0  0  0  0  0  1  0  0  0  0  0  0
  194.2730  175.0480  144.1850 C   0  0  2  0  0  3  0  0  0  0  0  0
  193.2750  177.4760  145.2500 O   0  0  0  0  0  1  0  0  0  0  0  0
  192.6970  176.3770  147.2330 C   0  0  0  0  0  0  0  0  0  0  0  0
  192.3150  177.2490  148.0550 O   0  0  0  0  0  0  0  0  0  0  0  0
  193.9740  175.1820  145.6820 C   0  0  1  0  0  3  0  0  0  0  0  0
  193.7580  176.6060  146.2310 C   0  0  1  0  0  3  0  0  0  0  0  0
  192.1380  175.0790  147.1890 N   0  0  0  0  0  2  0  0  0  0  0  0
  192.7740  174.3350  146.1200 C   0  0  0  0  0  2  0  0  0  0  0  0
  2 12  1  0  0  0  0
  3 11  1  0  0  0  0
  4 22  1  0  0  0  0
  4 24  2  0  0  0  0
  6 17  1  0  0  0  0
  7  2  2  0  0  0  0
  8  5  1  6  0  0  0
  8 17  1  0  0  0  0
  8 13  1  0  0  0  0
  9  5  1  0  0  0  0
  9 18  1  0  0  0  0
 10  3  2  0  0  0  0
 12 35  1  1  0  0  0
 12  6  1  0  0  0  0
 13 23  1  0  0  0  0
 14  2  1  0  0  0  0
 14 19  2  0  0  0  0
 15  9  1  0  0  0  0
 17 16  1  0  0  0  0
 18 21  1  0  0  0  0
 19  5  2  0  0  0  0
 20 18  2  0  0  0  0
 21 13  2  0  0  0  0
 21 10  1  0  0  0  0
 22  1  1  6  0  0  0
 22 14  1  0  0  0  0
 23 11  2  0  0  0  0
 24  7  1  0  0  0  0
 25  4  1  0  0  0  0
 26 25  1  0  0  0  0
 27 26  1  0  0  0  0
 28 33  1  0  0  0  0
 29 33  1  0  0  0  0
 29 31  1  0  0  0  0
 30 28  1  0  0  0  0
 30 32  1  0  0  0  0
 31 34  1  0  0  0  0
 32 34  1  0  0  0  0
 34 27  1  0  0  0  0
 35 36  1  0  0  0  0
 36 38  1  0  0  0  0
 38 37  1  1  0  0  0
 40 41  2  0  0  0  0
 42 38  1  6  0  0  0
 42 45  1  0  0  0  0
 42 43  1  0  0  0  0
 43 39  1  6  0  0  0
 43 40  1  0  0  0  0
 44 40  1  0  0  0  0
 45 44  1  0  0  0  0
M  END
>  <MODEL>
9

>  <REMARK>
 VINA RESULT:      -7.9      2.812      6.968
  Name = 
  8 active torsions:
  status: ('A' for Active; 'I' for Inactive)
    1  A    between atoms: C_7  and  O_29
    2  A    between atoms: N_15  and  C_30
    3  A    between atoms: N_15  and  C_39
    4  A    between atoms: C_21  and  C_28
    5  A    between atoms: C_21  and  N_33
    6  A    between atoms: C_22  and  C_39
    7  A    between atoms: O_29  and  N_33
    8  A    between atoms: C_30  and  C_36
                            x       y       z     vdW  Elec       q    Type
                         _______ _______ _______ _____ _____    ______ ____

>  <TORSDO>
F 8

$$$$
