=
 OpenBabel11042416183D

 33 35  0  0  1  0  0  0  0  0999 V2000
  188.8700  177.3490  147.2540 O   0  0  0  0  0  1  0  0  0  0  0  0
  188.3320  176.8460  144.9390 C   0  0  0  0  0  0  0  0  0  0  0  0
  187.3130  177.9250  145.0280 C   0  0  0  0  0  3  0  0  0  0  0  0
  186.2350  178.2130  144.2730 C   0  0  0  0  0  0  0  0  0  0  0  0
  188.6080  176.0970  143.7700 C   0  0  0  0  0  0  0  0  0  0  0  0
  185.7620  177.4060  143.1190 C   0  0  0  0  0  0  0  0  0  0  0  0
  189.1030  176.6170  146.0920 C   0  0  0  0  0  0  0  0  0  0  0  0
  189.6270  175.1140  143.8020 C   0  0  0  0  0  0  0  0  0  0  0  0
  190.1100  175.6480  146.0730 C   0  0  0  0  0  0  0  0  0  0  0  0
  186.4210  176.1450  142.6950 C   0  0  0  0  0  2  0  0  0  0  0  0
  190.3430  174.9370  144.9430 N   0  0  0  0  0  0  0  0  0  0  0  0
  184.7220  177.7900  142.4530 N   0  0  0  0  0  2  0  0  0  0  0  0
  187.8920  176.3940  142.4980 C   0  0  0  0  0  2  0  0  0  0  0  0
  190.2950  172.5330  140.9250 C   0  0  0  0  0  0  0  0  0  0  0  0
  191.1360  174.3900  141.8880 C   0  0  0  0  0  3  0  0  0  0  0  0
  189.1560  172.8800  142.1160 S   0  0  0  0  0  0  0  0  0  0  0  0
  191.3000  173.4360  140.9330 N   0  0  0  0  0  0  0  0  0  0  0  0
  189.9730  174.2580  142.6450 C   0  0  0  0  0  0  0  0  0  0  0  0
  190.2550  171.3860  140.0050 C   0  0  0  0  0  0  0  0  0  0  0  0
  190.8260  170.1790  140.3850 O   0  0  0  0  0  1  0  0  0  0  0  0
  189.6770  171.4830  138.8140 C   0  0  0  0  0  2  0  0  0  0  0  0
  185.4460  179.4080  144.6370 C   0  0  0  0  0  3  0  0  0  0  0  0
  184.5150  179.3740  145.5360 N   0  0  0  0  0  2  0  0  0  0  0  0
  190.9560  175.4010  147.2760 C   0  0  0  0  0  2  0  0  0  0  0  0
  192.3820  175.1130  146.8540 C   0  0  0  0  0  2  0  0  0  0  0  0
  193.1120  176.4190  146.6080 C   0  0  0  0  0  2  0  0  0  0  0  0
  194.5540  176.1480  146.2170 C   0  0  0  0  0  2  0  0  0  0  0  0
  194.9460  177.0260  145.1160 N   0  0  0  0  0  2  0  0  0  0  0  0
  196.0650  174.9490  144.6100 C   0  0  0  0  0  1  0  0  0  0  0  0
  196.6580  176.9640  143.5120 O   0  0  0  0  0  1  0  0  0  0  0  0
  195.5670  176.2600  144.0340 C   0  0  2  0  0  0  0  0  0  0  0  0
  194.8230  174.6940  142.2870 N   0  0  0  0  0  1  0  0  0  0  0  0
  194.5460  175.9700  142.9320 C   0  0  0  0  0  2  0  0  0  0  0  0
  2  3  1  0  0  0  0
  2  7  1  0  0  0  0
  4 22  1  0  0  0  0
  4  3  2  0  0  0  0
  5  8  1  0  0  0  0
  5  2  2  0  0  0  0
  6  4  1  0  0  0  0
  7  1  1  0  0  0  0
  8 11  2  0  0  0  0
  9  7  2  0  0  0  0
  9 24  1  0  0  0  0
 10  6  1  0  0  0  0
 11  9  1  0  0  0  0
 12  6  2  0  0  0  0
 13 10  1  0  0  0  0
 13  5  1  0  0  0  0
 14 17  2  0  0  0  0
 14 16  1  0  0  0  0
 15 18  2  0  0  0  0
 16 18  1  0  0  0  0
 17 15  1  0  0  0  0
 18  8  1  0  0  0  0
 19 20  1  0  0  0  0
 19 14  1  0  0  0  0
 21 19  2  0  0  0  0
 22 23  2  0  0  0  0
 25 24  1  0  0  0  0
 26 25  1  0  0  0  0
 27 26  1  0  0  0  0
 28 27  1  0  0  0  0
 30 31  1  0  0  0  0
 31 29  1  1  0  0  0
 31 28  1  0  0  0  0
 32 33  1  0  0  0  0
 33 31  1  0  0  0  0
M  END
>  <MODEL>
1

>  <REMARK>
 VINA RESULT:      -6.7      0.000      0.000
  Name = 
  10 active torsions:
  status: ('A' for Active; 'I' for Inactive)
    1  A    between atoms: C_1  and  C_8
    2  A    between atoms: C_3  and  C_5
    3  A    between atoms: C_9  and  N_17
    4  A    between atoms: C_9  and  C_22
    5  A    between atoms: N_17  and  C_28
    6  A    between atoms: C_18  and  C_33
    7  A    between atoms: C_22  and  C_32
    8  A    between atoms: C_24  and  C_25
    9  A    between atoms: C_24  and  C_32
   10  A    between atoms: C_28  and  C_31
                            x       y       z     vdW  Elec       q    Type
                         _______ _______ _______ _____ _____    ______ ____

>  <TORSDO>
F 10

$$$$
=
 OpenBabel11042416183D

 33 35  0  0  1  0  0  0  0  0999 V2000
  192.5970  173.0450  144.9670 O   0  0  0  0  0  1  0  0  0  0  0  0
  190.5600  173.7300  143.8330 C   0  0  0  0  0  0  0  0  0  0  0  0
  190.7590  172.5570  142.9430 C   0  0  0  0  0  3  0  0  0  0  0  0
  190.2580  172.2480  141.7310 C   0  0  0  0  0  0  0  0  0  0  0  0
  189.4600  174.6180  143.7580 C   0  0  0  0  0  0  0  0  0  0  0  0
  189.3610  173.1210  140.9310 C   0  0  0  0  0  0  0  0  0  0  0  0
  191.5110  173.9110  144.8520 C   0  0  0  0  0  0  0  0  0  0  0  0
  189.3650  175.6840  144.6860 C   0  0  0  0  0  0  0  0  0  0  0  0
  191.3690  174.9670  145.7570 C   0  0  0  0  0  0  0  0  0  0  0  0
  188.9480  174.4760  141.3790 C   0  0  0  0  0  2  0  0  0  0  0  0
  190.3110  175.8090  145.6530 N   0  0  0  0  0  0  0  0  0  0  0  0
  188.9240  172.7120  139.7850 N   0  0  0  0  0  2  0  0  0  0  0  0
  188.3720  174.3870  142.7670 C   0  0  0  0  0  2  0  0  0  0  0  0
  186.2300  178.0320  144.8780 C   0  0  0  0  0  0  0  0  0  0  0  0
  188.1120  177.6610  143.6950 C   0  0  0  0  0  3  0  0  0  0  0  0
  186.9340  176.7410  145.6980 S   0  0  0  0  0  0  0  0  0  0  0  0
  186.9840  178.4100  143.8230 N   0  0  0  0  0  0  0  0  0  0  0  0
  188.2720  176.6820  144.6730 C   0  0  0  0  0  0  0  0  0  0  0  0
  184.9460  178.6670  145.2150 C   0  0  0  0  0  0  0  0  0  0  0  0
  184.4070  179.6220  144.3630 O   0  0  0  0  0  1  0  0  0  0  0  0
  184.2880  178.3390  146.3200 C   0  0  0  0  0  2  0  0  0  0  0  0
  190.6530  170.9540  141.1380 C   0  0  0  0  0  3  0  0  0  0  0  0
  190.6710  169.8560  141.8230 N   0  0  0  0  0  2  0  0  0  0  0  0
  192.3520  175.1670  146.8600 C   0  0  0  0  0  2  0  0  0  0  0  0
  193.3680  176.2180  146.4610 C   0  0  0  0  0  2  0  0  0  0  0  0
  194.7500  175.5960  146.4150 C   0  0  0  0  0  2  0  0  0  0  0  0
  195.1800  175.3800  144.9750 C   0  0  0  0  0  2  0  0  0  0  0  0
  194.4720  176.3100  144.0970 N   0  0  0  0  0  2  0  0  0  0  0  0
  194.8750  174.3550  142.7420 C   0  0  0  0  0  1  0  0  0  0  0  0
  195.3200  176.5330  141.9210 O   0  0  0  0  0  1  0  0  0  0  0  0
  194.4350  175.8070  142.7240 C   0  0  2  0  0  0  0  0  0  0  0  0
  192.2390  176.9120  142.8570 N   0  0  0  0  0  1  0  0  0  0  0  0
  193.0140  175.8950  142.1610 C   0  0  0  0  0  2  0  0  0  0  0  0
  2  7  1  0  0  0  0
  3  2  1  0  0  0  0
  4  3  2  0  0  0  0
  5  2  2  0  0  0  0
  5  8  1  0  0  0  0
  6 10  1  0  0  0  0
  6  4  1  0  0  0  0
  7  1  1  0  0  0  0
  7  9  2  0  0  0  0
  8 11  2  0  0  0  0
  9 24  1  0  0  0  0
 10 13  1  0  0  0  0
 11  9  1  0  0  0  0
 12  6  2  0  0  0  0
 13  5  1  0  0  0  0
 14 19  1  0  0  0  0
 14 16  1  0  0  0  0
 15 17  1  0  0  0  0
 15 18  2  0  0  0  0
 17 14  2  0  0  0  0
 18  8  1  0  0  0  0
 18 16  1  0  0  0  0
 19 21  2  0  0  0  0
 20 19  1  0  0  0  0
 22  4  1  0  0  0  0
 22 23  2  0  0  0  0
 25 24  1  0  0  0  0
 26 25  1  0  0  0  0
 27 26  1  0  0  0  0
 28 27  1  0  0  0  0
 30 31  1  0  0  0  0
 31 29  1  1  0  0  0
 31 28  1  0  0  0  0
 33 31  1  0  0  0  0
 33 32  1  0  0  0  0
M  END
>  <MODEL>
2

>  <REMARK>
 VINA RESULT:      -6.6      2.384      5.887
  Name = 
  10 active torsions:
  status: ('A' for Active; 'I' for Inactive)
    1  A    between atoms: C_1  and  C_8
    2  A    between atoms: C_3  and  C_5
    3  A    between atoms: C_9  and  N_17
    4  A    between atoms: C_9  and  C_22
    5  A    between atoms: N_17  and  C_28
    6  A    between atoms: C_18  and  C_33
    7  A    between atoms: C_22  and  C_32
    8  A    between atoms: C_24  and  C_25
    9  A    between atoms: C_24  and  C_32
   10  A    between atoms: C_28  and  C_31
                            x       y       z     vdW  Elec       q    Type
                         _______ _______ _______ _____ _____    ______ ____

>  <TORSDO>
F 10

$$$$
=
 OpenBabel11042416183D

 33 35  0  0  1  0  0  0  0  0999 V2000
  192.1860  173.2590  142.4030 O   0  0  0  0  0  1  0  0  0  0  0  0
  191.7490  175.0140  144.0230 C   0  0  0  0  0  0  0  0  0  0  0  0
  193.2050  175.3060  143.9780 C   0  0  0  0  0  3  0  0  0  0  0  0
  194.0190  175.9770  144.8160 C   0  0  0  0  0  0  0  0  0  0  0  0
  190.8090  175.7410  144.7930 C   0  0  0  0  0  0  0  0  0  0  0  0
  193.6030  176.5770  146.1100 C   0  0  0  0  0  0  0  0  0  0  0  0
  191.2900  173.9820  143.1880 C   0  0  0  0  0  0  0  0  0  0  0  0
  189.4390  175.3870  144.7290 C   0  0  0  0  0  0  0  0  0  0  0  0
  189.9270  173.6780  143.1420 C   0  0  0  0  0  0  0  0  0  0  0  0
  192.2220  176.4570  146.6450 C   0  0  0  0  0  2  0  0  0  0  0  0
  189.0510  174.3820  143.9000 N   0  0  0  0  0  0  0  0  0  0  0  0
  194.4680  177.2180  146.8270 N   0  0  0  0  0  2  0  0  0  0  0  0
  191.2420  176.9170  145.5990 C   0  0  0  0  0  2  0  0  0  0  0  0
  186.6970  177.5260  146.5430 C   0  0  0  0  0  0  0  0  0  0  0  0
  188.0930  175.7820  146.8480 C   0  0  0  0  0  3  0  0  0  0  0  0
  187.4550  177.3910  145.0450 S   0  0  0  0  0  0  0  0  0  0  0  0
  187.1510  176.5910  147.4050 N   0  0  0  0  0  0  0  0  0  0  0  0
  188.3830  176.0640  145.5150 C   0  0  0  0  0  0  0  0  0  0  0  0
  185.6970  178.5400  146.9120 C   0  0  0  0  0  0  0  0  0  0  0  0
  186.0610  179.5970  147.7350 O   0  0  0  0  0  1  0  0  0  0  0  0
  184.4490  178.4640  146.4680 C   0  0  0  0  0  2  0  0  0  0  0  0
  195.4400  176.1040  144.4340 C   0  0  0  0  0  3  0  0  0  0  0  0
  196.2890  175.1410  144.5970 N   0  0  0  0  0  2  0  0  0  0  0  0
  189.4130  172.6010  142.2470 C   0  0  0  0  0  2  0  0  0  0  0  0
  188.2770  173.1340  141.3990 C   0  0  0  0  0  2  0  0  0  0  0  0
  188.8390  173.9520  140.2520 C   0  0  0  0  0  2  0  0  0  0  0  0
  187.9810  175.1810  140.0140 C   0  0  0  0  0  2  0  0  0  0  0  0
  187.5760  175.7630  141.2910 N   0  0  0  0  0  2  0  0  0  0  0  0
  186.6810  177.2690  139.6320 C   0  0  0  0  0  1  0  0  0  0  0  0
  187.9630  178.0720  141.4570 O   0  0  0  0  0  1  0  0  0  0  0  0
  187.0190  177.1030  141.1010 C   0  0  2  0  0  0  0  0  0  0  0  0
  185.4550  178.6810  142.1610 N   0  0  0  0  0  1  0  0  0  0  0  0
  185.7450  177.2730  141.9330 C   0  0  0  0  0  2  0  0  0  0  0  0
  1  7  1  0  0  0  0
  2  5  1  0  0  0  0
  3  2  1  0  0  0  0
  3  4  2  0  0  0  0
  4  6  1  0  0  0  0
  5 13  1  0  0  0  0
  6 10  1  0  0  0  0
  6 12  2  0  0  0  0
  7  2  2  0  0  0  0
  8  5  2  0  0  0  0
  8 18  1  0  0  0  0
  9  7  1  0  0  0  0
  9 11  2  0  0  0  0
 11  8  1  0  0  0  0
 13 10  1  0  0  0  0
 14 19  1  0  0  0  0
 14 17  2  0  0  0  0
 15 17  1  0  0  0  0
 16 18  1  0  0  0  0
 16 14  1  0  0  0  0
 18 15  2  0  0  0  0
 19 20  1  0  0  0  0
 21 19  2  0  0  0  0
 22 23  2  0  0  0  0
 22  4  1  0  0  0  0
 24  9  1  0  0  0  0
 25 24  1  0  0  0  0
 26 25  1  0  0  0  0
 27 26  1  0  0  0  0
 27 28  1  0  0  0  0
 31 29  1  6  0  0  0
 31 28  1  0  0  0  0
 31 30  1  0  0  0  0
 31 33  1  0  0  0  0
 33 32  1  0  0  0  0
M  END
>  <MODEL>
3

>  <REMARK>
 VINA RESULT:      -6.4      2.538      8.075
  Name = 
  10 active torsions:
  status: ('A' for Active; 'I' for Inactive)
    1  A    between atoms: C_1  and  C_8
    2  A    between atoms: C_3  and  C_5
    3  A    between atoms: C_9  and  N_17
    4  A    between atoms: C_9  and  C_22
    5  A    between atoms: N_17  and  C_28
    6  A    between atoms: C_18  and  C_33
    7  A    between atoms: C_22  and  C_32
    8  A    between atoms: C_24  and  C_25
    9  A    between atoms: C_24  and  C_32
   10  A    between atoms: C_28  and  C_31
                            x       y       z     vdW  Elec       q    Type
                         _______ _______ _______ _____ _____    ______ ____

>  <TORSDO>
F 10

$$$$
=
 OpenBabel11042416183D

 33 35  0  0  1  0  0  0  0  0999 V2000
  189.1600  178.0170  144.3910 O   0  0  0  0  0  1  0  0  0  0  0  0
  189.9800  175.8030  143.8170 C   0  0  0  0  0  0  0  0  0  0  0  0
  190.6500  175.7970  145.1440 C   0  0  0  0  0  3  0  0  0  0  0  0
  191.6560  175.0540  145.6440 C   0  0  0  0  0  0  0  0  0  0  0  0
  190.0070  174.7250  142.9000 C   0  0  0  0  0  0  0  0  0  0  0  0
  192.4150  174.0260  144.8860 C   0  0  0  0  0  0  0  0  0  0  0  0
  189.2230  176.9450  143.5030 C   0  0  0  0  0  0  0  0  0  0  0  0
  189.3010  174.8390  141.6760 C   0  0  0  0  0  0  0  0  0  0  0  0
  188.5290  177.0080  142.2920 C   0  0  0  0  0  0  0  0  0  0  0  0
  192.1650  173.7360  143.4520 C   0  0  0  0  0  2  0  0  0  0  0  0
  188.5830  175.9650  141.4260 N   0  0  0  0  0  0  0  0  0  0  0  0
  193.3520  173.3580  145.4760 N   0  0  0  0  0  2  0  0  0  0  0  0
  190.7000  173.4540  143.2500 C   0  0  0  0  0  2  0  0  0  0  0  0
  189.6200  172.2470  138.7500 C   0  0  0  0  0  0  0  0  0  0  0  0
  188.1550  173.0750  140.2490 C   0  0  0  0  0  3  0  0  0  0  0  0
  190.5580  173.3450  139.6170 S   0  0  0  0  0  0  0  0  0  0  0  0
  188.3500  172.2210  139.2100 N   0  0  0  0  0  0  0  0  0  0  0  0
  189.2900  173.7830  140.6390 C   0  0  0  0  0  0  0  0  0  0  0  0
  190.0790  171.4360  137.6130 C   0  0  0  0  0  0  0  0  0  0  0  0
  189.9330  170.0550  137.6500 O   0  0  0  0  0  1  0  0  0  0  0  0
  190.6270  172.0010  136.5440 C   0  0  0  0  0  2  0  0  0  0  0  0
  192.0540  175.2980  147.0460 C   0  0  0  0  0  3  0  0  0  0  0  0
  191.1920  175.3680  148.0080 N   0  0  0  0  0  2  0  0  0  0  0  0
  187.7020  178.1990  141.9450 C   0  0  0  0  0  2  0  0  0  0  0  0
  186.2640  177.7800  141.7160 C   0  0  0  0  0  2  0  0  0  0  0  0
  185.6950  177.1970  142.9960 C   0  0  0  0  0  2  0  0  0  0  0  0
  185.0560  178.2910  143.8320 C   0  0  0  0  0  2  0  0  0  0  0  0
  185.9610  178.6890  144.9090 N   0  0  0  0  0  2  0  0  0  0  0  0
  183.8880  178.6650  146.1430 C   0  0  0  0  0  1  0  0  0  0  0  0
  185.9380  179.2220  147.1940 O   0  0  0  0  0  1  0  0  0  0  0  0
  185.3780  178.3920  146.2170 C   0  0  2  0  0  0  0  0  0  0  0  0
  187.0210  176.6270  146.7130 N   0  0  0  0  0  1  0  0  0  0  0  0
  185.6010  176.9210  146.5790 C   0  0  0  0  0  2  0  0  0  0  0  0
  2  3  1  0  0  0  0
  3  4  2  0  0  0  0
  4 22  1  0  0  0  0
  5 13  1  0  0  0  0
  5  2  2  0  0  0  0
  6 12  2  0  0  0  0
  6  4  1  0  0  0  0
  7  2  1  0  0  0  0
  7  1  1  0  0  0  0
  8  5  1  0  0  0  0
  9  7  2  0  0  0  0
 10  6  1  0  0  0  0
 11  8  2  0  0  0  0
 11  9  1  0  0  0  0
 13 10  1  0  0  0  0
 14 17  2  0  0  0  0
 14 16  1  0  0  0  0
 15 18  2  0  0  0  0
 16 18  1  0  0  0  0
 17 15  1  0  0  0  0
 18  8  1  0  0  0  0
 19 20  1  0  0  0  0
 19 14  1  0  0  0  0
 21 19  2  0  0  0  0
 22 23  2  0  0  0  0
 24  9  1  0  0  0  0
 25 24  1  0  0  0  0
 25 26  1  0  0  0  0
 26 27  1  0  0  0  0
 27 28  1  0  0  0  0
 28 31  1  0  0  0  0
 31 29  1  6  0  0  0
 31 33  1  0  0  0  0
 31 30  1  0  0  0  0
 33 32  1  0  0  0  0
M  END
>  <MODEL>
4

>  <REMARK>
 VINA RESULT:      -6.2      2.646      6.740
  Name = 
  10 active torsions:
  status: ('A' for Active; 'I' for Inactive)
    1  A    between atoms: C_1  and  C_8
    2  A    between atoms: C_3  and  C_5
    3  A    between atoms: C_9  and  N_17
    4  A    between atoms: C_9  and  C_22
    5  A    between atoms: N_17  and  C_28
    6  A    between atoms: C_18  and  C_33
    7  A    between atoms: C_22  and  C_32
    8  A    between atoms: C_24  and  C_25
    9  A    between atoms: C_24  and  C_32
   10  A    between atoms: C_28  and  C_31
                            x       y       z     vdW  Elec       q    Type
                         _______ _______ _______ _____ _____    ______ ____

>  <TORSDO>
F 10

$$$$
=
 OpenBabel11042416183D

 33 35  0  0  1  0  0  0  0  0999 V2000
  191.2710  175.3880  147.7420 O   0  0  0  0  0  1  0  0  0  0  0  0
  191.7370  175.0780  145.3780 C   0  0  0  0  0  0  0  0  0  0  0  0
  193.1730  175.0070  145.7550 C   0  0  0  0  0  3  0  0  0  0  0  0
  194.3040  175.1500  145.0360 C   0  0  0  0  0  0  0  0  0  0  0  0
  191.2450  174.9220  144.0600 C   0  0  0  0  0  0  0  0  0  0  0  0
  194.3580  175.4950  143.5920 C   0  0  0  0  0  0  0  0  0  0  0  0
  190.8210  175.2500  146.4300 C   0  0  0  0  0  0  0  0  0  0  0  0
  189.8480  174.9780  143.8310 C   0  0  0  0  0  0  0  0  0  0  0  0
  189.4510  175.2820  146.1600 C   0  0  0  0  0  0  0  0  0  0  0  0
  193.1420  175.7650  142.7830 C   0  0  0  0  0  2  0  0  0  0  0  0
  189.0080  175.1430  144.8870 N   0  0  0  0  0  0  0  0  0  0  0  0
  195.5040  175.5870  142.9980 N   0  0  0  0  0  2  0  0  0  0  0  0
  192.1770  174.6200  142.9380 C   0  0  0  0  0  2  0  0  0  0  0  0
  188.5460  174.3660  140.1820 C   0  0  0  0  0  0  0  0  0  0  0  0
  188.4860  175.8570  141.8720 C   0  0  0  0  0  3  0  0  0  0  0  0
  189.4480  173.6020  141.3820 S   0  0  0  0  0  0  0  0  0  0  0  0
  188.1010  175.5720  140.6000 N   0  0  0  0  0  0  0  0  0  0  0  0
  189.2350  174.8560  142.4890 C   0  0  0  0  0  0  0  0  0  0  0  0
  188.2890  173.8400  138.8330 C   0  0  0  0  0  0  0  0  0  0  0  0
  188.5330  172.5000  138.5600 O   0  0  0  0  0  1  0  0  0  0  0  0
  187.8220  174.6230  137.8690 C   0  0  0  0  0  2  0  0  0  0  0  0
  195.5900  174.9790  145.7430 C   0  0  0  0  0  3  0  0  0  0  0  0
  196.2010  173.8400  145.7990 N   0  0  0  0  0  2  0  0  0  0  0  0
  188.4580  175.4420  147.2620 C   0  0  0  0  0  2  0  0  0  0  0  0
  187.9020  176.8510  147.2560 C   0  0  0  0  0  2  0  0  0  0  0  0
  186.3870  176.8000  147.3050 C   0  0  0  0  0  2  0  0  0  0  0  0
  185.7970  177.8320  146.3620 C   0  0  0  0  0  2  0  0  0  0  0  0
  186.1260  177.4920  144.9790 N   0  0  0  0  0  2  0  0  0  0  0  0
  185.9440  179.6170  143.8510 C   0  0  0  0  0  1  0  0  0  0  0  0
  184.0180  178.4360  144.5670 O   0  0  0  0  0  1  0  0  0  0  0  0
  185.3020  178.2560  144.0430 C   0  0  2  0  0  0  0  0  0  0  0  0
  185.5990  178.4370  141.6050 N   0  0  0  0  0  1  0  0  0  0  0  0
  185.2270  177.5410  142.6910 C   0  0  0  0  0  2  0  0  0  0  0  0
  2  3  1  0  0  0  0
  2  7  1  0  0  0  0
  4 22  1  0  0  0  0
  4  3  2  0  0  0  0
  5  2  2  0  0  0  0
  6  4  1  0  0  0  0
  7  1  1  0  0  0  0
  8  5  1  0  0  0  0
  8 11  2  0  0  0  0
  9  7  2  0  0  0  0
  9 24  1  0  0  0  0
 10 13  1  0  0  0  0
 10  6  1  0  0  0  0
 11  9  1  0  0  0  0
 12  6  2  0  0  0  0
 13  5  1  0  0  0  0
 14 17  2  0  0  0  0
 14 16  1  0  0  0  0
 15 18  2  0  0  0  0
 16 18  1  0  0  0  0
 17 15  1  0  0  0  0
 18  8  1  0  0  0  0
 19 14  1  0  0  0  0
 20 19  1  0  0  0  0
 21 19  2  0  0  0  0
 22 23  2  0  0  0  0
 25 24  1  0  0  0  0
 25 26  1  0  0  0  0
 27 26  1  0  0  0  0
 28 27  1  0  0  0  0
 31 29  1  6  0  0  0
 31 30  1  0  0  0  0
 31 28  1  0  0  0  0
 32 33  1  0  0  0  0
 33 31  1  0  0  0  0
M  END
>  <MODEL>
5

>  <REMARK>
 VINA RESULT:      -6.1      2.273      6.980
  Name = 
  10 active torsions:
  status: ('A' for Active; 'I' for Inactive)
    1  A    between atoms: C_1  and  C_8
    2  A    between atoms: C_3  and  C_5
    3  A    between atoms: C_9  and  N_17
    4  A    between atoms: C_9  and  C_22
    5  A    between atoms: N_17  and  C_28
    6  A    between atoms: C_18  and  C_33
    7  A    between atoms: C_22  and  C_32
    8  A    between atoms: C_24  and  C_25
    9  A    between atoms: C_24  and  C_32
   10  A    between atoms: C_28  and  C_31
                            x       y       z     vdW  Elec       q    Type
                         _______ _______ _______ _____ _____    ______ ____

>  <TORSDO>
F 10

$$$$
=
 OpenBabel11042416183D

 33 35  0  0  1  0  0  0  0  0999 V2000
  193.0260  174.6680  142.7790 O   0  0  0  0  0  1  0  0  0  0  0  0
  190.6460  174.7640  142.3060 C   0  0  0  0  0  0  0  0  0  0  0  0
  190.8490  173.5600  141.4590 C   0  0  0  0  0  3  0  0  0  0  0  0
  190.1040  173.0060  140.4830 C   0  0  0  0  0  0  0  0  0  0  0  0
  189.3930  175.3840  142.5320 C   0  0  0  0  0  0  0  0  0  0  0  0
  188.8310  173.5650  139.9600 C   0  0  0  0  0  0  0  0  0  0  0  0
  191.7810  175.2650  142.9650 C   0  0  0  0  0  0  0  0  0  0  0  0
  189.3220  176.5110  143.3870 C   0  0  0  0  0  0  0  0  0  0  0  0
  191.6620  176.3690  143.8130 C   0  0  0  0  0  0  0  0  0  0  0  0
  188.2570  174.8470  140.4440 C   0  0  0  0  0  2  0  0  0  0  0  0
  190.4510  176.9510  144.0010 N   0  0  0  0  0  0  0  0  0  0  0  0
  188.1890  172.9360  139.0300 N   0  0  0  0  0  2  0  0  0  0  0  0
  188.1500  174.8090  141.9450 C   0  0  0  0  0  2  0  0  0  0  0  0
  185.8930  178.1260  144.3940 C   0  0  0  0  0  0  0  0  0  0  0  0
  187.4660  178.1390  142.7810 C   0  0  0  0  0  3  0  0  0  0  0  0
  187.0380  177.0430  144.9860 S   0  0  0  0  0  0  0  0  0  0  0  0
  186.2680  178.6280  143.1980 N   0  0  0  0  0  0  0  0  0  0  0  0
  188.0680  177.2470  143.6660 C   0  0  0  0  0  0  0  0  0  0  0  0
  184.6220  178.4760  145.0480 C   0  0  0  0  0  0  0  0  0  0  0  0
  183.5980  179.0430  144.3010 O   0  0  0  0  0  1  0  0  0  0  0  0
  184.4340  178.2540  146.3430 C   0  0  0  0  0  2  0  0  0  0  0  0
  190.6050  171.7610  139.8640 C   0  0  0  0  0  3  0  0  0  0  0  0
  190.7240  170.6580  140.5290 N   0  0  0  0  0  2  0  0  0  0  0  0
  192.8480  176.9070  144.5420 C   0  0  0  0  0  2  0  0  0  0  0  0
  192.8410  176.4130  145.9740 C   0  0  0  0  0  2  0  0  0  0  0  0
  194.2570  176.4040  146.5140 C   0  0  0  0  0  2  0  0  0  0  0  0
  195.1880  175.7100  145.5360 C   0  0  0  0  0  2  0  0  0  0  0  0
  195.0870  174.2610  145.6920 N   0  0  0  0  0  2  0  0  0  0  0  0
  196.8150  172.6380  146.1410 C   0  0  0  0  0  1  0  0  0  0  0  0
  197.2300  174.5300  144.7740 O   0  0  0  0  0  1  0  0  0  0  0  0
  196.2470  173.5900  145.1060 C   0  0  2  0  0  0  0  0  0  0  0  0
  196.4400  173.3500  142.6630 N   0  0  0  0  0  1  0  0  0  0  0  0
  195.8340  172.7950  143.8650 C   0  0  0  0  0  2  0  0  0  0  0  0
  1  7  1  0  0  0  0
  2  5  2  0  0  0  0
  2  7  1  0  0  0  0
  3  2  1  0  0  0  0
  4  3  2  0  0  0  0
  5  8  1  0  0  0  0
  6 10  1  0  0  0  0
  6  4  1  0  0  0  0
  7  9  2  0  0  0  0
  8 18  1  0  0  0  0
  8 11  2  0  0  0  0
  9 11  1  0  0  0  0
  9 24  1  0  0  0  0
 10 13  1  0  0  0  0
 12  6  2  0  0  0  0
 13  5  1  0  0  0  0
 14 16  1  0  0  0  0
 14 19  1  0  0  0  0
 15 17  1  0  0  0  0
 15 18  2  0  0  0  0
 17 14  2  0  0  0  0
 18 16  1  0  0  0  0
 19 21  2  0  0  0  0
 20 19  1  0  0  0  0
 22  4  1  0  0  0  0
 22 23  2  0  0  0  0
 24 25  1  0  0  0  0
 25 26  1  0  0  0  0
 27 28  1  0  0  0  0
 27 26  1  0  0  0  0
 30 31  1  0  0  0  0
 31 28  1  0  0  0  0
 31 29  1  1  0  0  0
 32 33  1  0  0  0  0
 33 31  1  0  0  0  0
M  END
>  <MODEL>
6

>  <REMARK>
 VINA RESULT:      -6.1      2.491      5.991
  Name = 
  10 active torsions:
  status: ('A' for Active; 'I' for Inactive)
    1  A    between atoms: C_1  and  C_8
    2  A    between atoms: C_3  and  C_5
    3  A    between atoms: C_9  and  N_17
    4  A    between atoms: C_9  and  C_22
    5  A    between atoms: N_17  and  C_28
    6  A    between atoms: C_18  and  C_33
    7  A    between atoms: C_22  and  C_32
    8  A    between atoms: C_24  and  C_25
    9  A    between atoms: C_24  and  C_32
   10  A    between atoms: C_28  and  C_31
                            x       y       z     vdW  Elec       q    Type
                         _______ _______ _______ _____ _____    ______ ____

>  <TORSDO>
F 10

$$$$
=
 OpenBabel11042416183D

 33 35  0  0  1  0  0  0  0  0999 V2000
  193.4820  174.1830  142.2280 O   0  0  0  0  0  1  0  0  0  0  0  0
  191.0960  174.3120  141.7890 C   0  0  0  0  0  0  0  0  0  0  0  0
  191.2180  172.9620  141.1810 C   0  0  0  0  0  3  0  0  0  0  0  0
  190.4210  172.2740  140.3400 C   0  0  0  0  0  0  0  0  0  0  0  0
  189.8810  175.0270  141.9180 C   0  0  0  0  0  0  0  0  0  0  0  0
  189.1620  172.7910  139.7450 C   0  0  0  0  0  0  0  0  0  0  0  0
  192.2720  174.8680  142.3210 C   0  0  0  0  0  0  0  0  0  0  0  0
  189.8870  176.2970  142.5460 C   0  0  0  0  0  0  0  0  0  0  0  0
  192.2290  176.1160  142.9480 C   0  0  0  0  0  0  0  0  0  0  0  0
  188.6630  174.1680  139.9890 C   0  0  0  0  0  2  0  0  0  0  0  0
  191.0530  176.7840  143.0460 N   0  0  0  0  0  0  0  0  0  0  0  0
  188.4640  172.0330  138.9630 N   0  0  0  0  0  2  0  0  0  0  0  0
  188.5970  174.4180  141.4720 C   0  0  0  0  0  2  0  0  0  0  0  0
  186.5260  178.1990  143.2270 C   0  0  0  0  0  0  0  0  0  0  0  0
  188.2330  178.0600  141.7610 C   0  0  0  0  0  3  0  0  0  0  0  0
  187.5220  177.0360  143.9280 S   0  0  0  0  0  0  0  0  0  0  0  0
  187.0460  178.6500  142.0650 N   0  0  0  0  0  0  0  0  0  0  0  0
  188.6780  177.1360  142.7040 C   0  0  0  0  0  0  0  0  0  0  0  0
  185.2350  178.6600  143.7600 C   0  0  0  0  0  0  0  0  0  0  0  0
  184.0570  178.2970  143.1200 O   0  0  0  0  0  1  0  0  0  0  0  0
  185.1740  179.4170  144.8490 C   0  0  0  0  0  2  0  0  0  0  0  0
  190.8450  170.9110  139.9570 C   0  0  0  0  0  3  0  0  0  0  0  0
  190.8770  169.9340  140.8050 N   0  0  0  0  0  2  0  0  0  0  0  0
  193.4590  176.7180  143.5400 C   0  0  0  0  0  2  0  0  0  0  0  0
  193.3380  176.7600  145.0490 C   0  0  0  0  0  2  0  0  0  0  0  0
  193.7440  175.4200  145.6290 C   0  0  0  0  0  2  0  0  0  0  0  0
  192.6620  174.9000  146.5580 C   0  0  0  0  0  2  0  0  0  0  0  0
  191.3440  175.2590  146.0390 N   0  0  0  0  0  2  0  0  0  0  0  0
  190.0400  177.1630  146.7430 C   0  0  0  0  0  1  0  0  0  0  0  0
  191.1870  175.8090  148.3150 O   0  0  0  0  0  1  0  0  0  0  0  0
  190.4790  175.7580  147.1090 C   0  0  2  0  0  0  0  0  0  0  0  0
  188.0240  175.6630  147.2640 N   0  0  0  0  0  1  0  0  0  0  0  0
  189.2430  174.8670  147.2560 C   0  0  0  0  0  2  0  0  0  0  0  0
  1  7  1  0  0  0  0
  2  5  2  0  0  0  0
  2  7  1  0  0  0  0
  3  2  1  0  0  0  0
  4  3  2  0  0  0  0
  5  8  1  0  0  0  0
  6 10  1  0  0  0  0
  6  4  1  0  0  0  0
  7  9  2  0  0  0  0
  8 18  1  0  0  0  0
  8 11  2  0  0  0  0
  9 11  1  0  0  0  0
  9 24  1  0  0  0  0
 10 13  1  0  0  0  0
 12  6  2  0  0  0  0
 13  5  1  0  0  0  0
 14 19  1  0  0  0  0
 14 16  1  0  0  0  0
 15 17  1  0  0  0  0
 15 18  2  0  0  0  0
 17 14  2  0  0  0  0
 18 16  1  0  0  0  0
 19 21  2  0  0  0  0
 20 19  1  0  0  0  0
 22  4  1  0  0  0  0
 22 23  2  0  0  0  0
 24 25  1  0  0  0  0
 25 26  1  0  0  0  0
 26 27  1  0  0  0  0
 28 27  1  0  0  0  0
 28 31  1  0  0  0  0
 31 29  1  6  0  0  0
 31 33  1  0  0  0  0
 31 30  1  0  0  0  0
 33 32  1  0  0  0  0
M  END
>  <MODEL>
7

>  <REMARK>
 VINA RESULT:      -6.0      2.479      6.642
  Name = 
  10 active torsions:
  status: ('A' for Active; 'I' for Inactive)
    1  A    between atoms: C_1  and  C_8
    2  A    between atoms: C_3  and  C_5
    3  A    between atoms: C_9  and  N_17
    4  A    between atoms: C_9  and  C_22
    5  A    between atoms: N_17  and  C_28
    6  A    between atoms: C_18  and  C_33
    7  A    between atoms: C_22  and  C_32
    8  A    between atoms: C_24  and  C_25
    9  A    between atoms: C_24  and  C_32
   10  A    between atoms: C_28  and  C_31
                            x       y       z     vdW  Elec       q    Type
                         _______ _______ _______ _____ _____    ______ ____

>  <TORSDO>
F 10

$$$$
=
 OpenBabel11042416183D

 33 35  0  0  1  0  0  0  0  0999 V2000
  192.1660  173.1580  144.6320 O   0  0  0  0  0  1  0  0  0  0  0  0
  190.4230  173.5300  142.9830 C   0  0  0  0  0  0  0  0  0  0  0  0
  190.7970  172.2100  142.4110 C   0  0  0  0  0  3  0  0  0  0  0  0
  190.5620  171.6470  141.2100 C   0  0  0  0  0  0  0  0  0  0  0  0
  189.3700  174.3440  142.5000 C   0  0  0  0  0  0  0  0  0  0  0  0
  189.8610  172.3090  140.0800 C   0  0  0  0  0  0  0  0  0  0  0  0
  191.1370  173.9450  144.1200 C   0  0  0  0  0  0  0  0  0  0  0  0
  189.0890  175.5710  143.1500 C   0  0  0  0  0  0  0  0  0  0  0  0
  190.8140  175.1550  144.7400 C   0  0  0  0  0  0  0  0  0  0  0  0
  189.3740  173.7110  140.1460 C   0  0  0  0  0  2  0  0  0  0  0  0
  189.8100  175.9210  144.2480 N   0  0  0  0  0  0  0  0  0  0  0  0
  189.6740  171.6630  138.9750 N   0  0  0  0  0  2  0  0  0  0  0  0
  188.5150  173.8810  141.3710 C   0  0  0  0  0  2  0  0  0  0  0  0
  186.0010  177.7190  142.0400 C   0  0  0  0  0  0  0  0  0  0  0  0
  188.2420  177.5810  141.8440 C   0  0  0  0  0  3  0  0  0  0  0  0
  186.3740  176.3810  142.9920 S   0  0  0  0  0  0  0  0  0  0  0  0
  187.1140  178.2510  141.4890 N   0  0  0  0  0  0  0  0  0  0  0  0
  188.0310  176.5070  142.7070 C   0  0  0  0  0  0  0  0  0  0  0  0
  184.6510  178.2440  141.7870 C   0  0  0  0  0  0  0  0  0  0  0  0
  184.3050  178.6660  140.5100 O   0  0  0  0  0  1  0  0  0  0  0  0
  183.7510  178.3210  142.7600 C   0  0  0  0  0  2  0  0  0  0  0  0
  191.0630  170.2750  140.9880 C   0  0  0  0  0  3  0  0  0  0  0  0
  190.7460  169.2890  141.7650 N   0  0  0  0  0  2  0  0  0  0  0  0
  191.5430  175.6070  145.9610 C   0  0  0  0  0  2  0  0  0  0  0  0
  190.7480  176.6860  146.6660 C   0  0  0  0  0  2  0  0  0  0  0  0
  189.4240  176.1160  147.1360 C   0  0  0  0  0  2  0  0  0  0  0  0
  188.3840  177.2170  147.2360 C   0  0  0  0  0  2  0  0  0  0  0  0
  187.2030  176.8620  146.4530 N   0  0  0  0  0  2  0  0  0  0  0  0
  184.8060  177.1390  146.5080 C   0  0  0  0  0  1  0  0  0  0  0  0
  186.2200  178.8290  145.6350 O   0  0  0  0  0  1  0  0  0  0  0  0
  186.1400  177.8510  146.6320 C   0  0  2  0  0  0  0  0  0  0  0  0
  186.2940  179.9470  147.9140 N   0  0  0  0  0  1  0  0  0  0  0  0
  186.2390  178.4960  148.0170 C   0  0  0  0  0  2  0  0  0  0  0  0
  2  7  1  0  0  0  0
  3  2  1  0  0  0  0
  4  3  2  0  0  0  0
  5  2  2  0  0  0  0
  5  8  1  0  0  0  0
  6 10  1  0  0  0  0
  6  4  1  0  0  0  0
  7  1  1  0  0  0  0
  7  9  2  0  0  0  0
  8 11  2  0  0  0  0
  9 24  1  0  0  0  0
 10 13  1  0  0  0  0
 11  9  1  0  0  0  0
 12  6  2  0  0  0  0
 13  5  1  0  0  0  0
 14 16  1  0  0  0  0
 15 18  2  0  0  0  0
 17 15  1  0  0  0  0
 17 14  2  0  0  0  0
 18 16  1  0  0  0  0
 18  8  1  0  0  0  0
 19 14  1  0  0  0  0
 19 21  2  0  0  0  0
 20 19  1  0  0  0  0
 22  4  1  0  0  0  0
 22 23  2  0  0  0  0
 24 25  1  0  0  0  0
 25 26  1  0  0  0  0
 26 27  1  0  0  0  0
 28 31  1  0  0  0  0
 28 27  1  0  0  0  0
 30 31  1  0  0  0  0
 31 29  1  6  0  0  0
 31 33  1  0  0  0  0
 32 33  1  0  0  0  0
M  END
>  <MODEL>
8

>  <REMARK>
 VINA RESULT:      -5.9      3.005      7.339
  Name = 
  10 active torsions:
  status: ('A' for Active; 'I' for Inactive)
    1  A    between atoms: C_1  and  C_8
    2  A    between atoms: C_3  and  C_5
    3  A    between atoms: C_9  and  N_17
    4  A    between atoms: C_9  and  C_22
    5  A    between atoms: N_17  and  C_28
    6  A    between atoms: C_18  and  C_33
    7  A    between atoms: C_22  and  C_32
    8  A    between atoms: C_24  and  C_25
    9  A    between atoms: C_24  and  C_32
   10  A    between atoms: C_28  and  C_31
                            x       y       z     vdW  Elec       q    Type
                         _______ _______ _______ _____ _____    ______ ____

>  <TORSDO>
F 10

$$$$
=
 OpenBabel11042416183D

 33 35  0  0  1  0  0  0  0  0999 V2000
  190.3260  178.3340  144.1980 O   0  0  0  0  0  1  0  0  0  0  0  0
  191.5850  176.3590  143.5550 C   0  0  0  0  0  0  0  0  0  0  0  0
  192.6530  176.8430  144.4680 C   0  0  0  0  0  3  0  0  0  0  0  0
  193.9620  176.5400  144.5690 C   0  0  0  0  0  0  0  0  0  0  0  0
  191.6430  175.1470  142.8250 C   0  0  0  0  0  0  0  0  0  0  0  0
  194.6940  175.6130  143.6680 C   0  0  0  0  0  0  0  0  0  0  0  0
  190.4230  177.1450  143.4780 C   0  0  0  0  0  0  0  0  0  0  0  0
  190.5450  174.7770  142.0090 C   0  0  0  0  0  0  0  0  0  0  0  0
  189.3570  176.7330  142.6740 C   0  0  0  0  0  0  0  0  0  0  0  0
  194.0510  174.9410  142.5100 C   0  0  0  0  0  2  0  0  0  0  0  0
  189.4450  175.5740  141.9750 N   0  0  0  0  0  0  0  0  0  0  0  0
  195.9500  175.3820  143.8700 N   0  0  0  0  0  2  0  0  0  0  0  0
  192.8080  174.2310  142.9750 C   0  0  0  0  0  2  0  0  0  0  0  0
  190.5090  171.7860  139.4730 C   0  0  0  0  0  0  0  0  0  0  0  0
  189.9030  172.3570  141.5670 C   0  0  0  0  0  3  0  0  0  0  0  0
  191.0490  173.3760  139.5930 S   0  0  0  0  0  0  0  0  0  0  0  0
  189.9120  171.3850  140.6170 N   0  0  0  0  0  0  0  0  0  0  0  0
  190.5180  173.5480  141.1850 C   0  0  0  0  0  0  0  0  0  0  0  0
  190.6210  170.9280  138.2840 C   0  0  0  0  0  0  0  0  0  0  0  0
  191.5890  171.2020  137.3260 O   0  0  0  0  0  1  0  0  0  0  0  0
  189.8130  169.8890  138.1090 C   0  0  0  0  0  2  0  0  0  0  0  0
  194.7370  177.2010  145.6390 C   0  0  0  0  0  3  0  0  0  0  0  0
  194.3200  177.2530  146.8630 N   0  0  0  0  0  2  0  0  0  0  0  0
  188.1050  177.5390  142.5910 C   0  0  0  0  0  2  0  0  0  0  0  0
  186.9720  176.6800  142.0660 C   0  0  0  0  0  2  0  0  0  0  0  0
  185.9210  176.5090  143.1450 C   0  0  0  0  0  2  0  0  0  0  0  0
  186.5670  176.5520  144.5180 C   0  0  0  0  0  2  0  0  0  0  0  0
  185.5480  176.7650  145.5430 N   0  0  0  0  0  2  0  0  0  0  0  0
  187.5560  177.7980  146.3920 C   0  0  0  0  0  1  0  0  0  0  0  0
  186.0270  176.7100  147.8400 O   0  0  0  0  0  1  0  0  0  0  0  0
  186.0990  177.4960  146.6840 C   0  0  2  0  0  0  0  0  0  0  0  0
  184.2910  178.9700  145.8970 N   0  0  0  0  0  1  0  0  0  0  0  0
  185.3440  178.8120  146.8900 C   0  0  0  0  0  2  0  0  0  0  0  0
  2  3  1  0  0  0  0
  3  4  2  0  0  0  0
  4 22  1  0  0  0  0
  5 13  1  0  0  0  0
  5  2  2  0  0  0  0
  6 12  2  0  0  0  0
  6  4  1  0  0  0  0
  7  2  1  0  0  0  0
  7  1  1  0  0  0  0
  8  5  1  0  0  0  0
  9  7  2  0  0  0  0
 10 13  1  0  0  0  0
 10  6  1  0  0  0  0
 11  8  2  0  0  0  0
 11  9  1  0  0  0  0
 14 16  1  0  0  0  0
 14 17  2  0  0  0  0
 16 18  1  0  0  0  0
 17 15  1  0  0  0  0
 18 15  2  0  0  0  0
 18  8  1  0  0  0  0
 19 14  1  0  0  0  0
 20 19  1  0  0  0  0
 21 19  2  0  0  0  0
 22 23  2  0  0  0  0
 24  9  1  0  0  0  0
 25 24  1  0  0  0  0
 25 26  1  0  0  0  0
 26 27  1  0  0  0  0
 27 28  1  0  0  0  0
 28 31  1  0  0  0  0
 31 29  1  6  0  0  0
 31 33  1  0  0  0  0
 31 30  1  0  0  0  0
 32 33  1  0  0  0  0
M  END
>  <MODEL>
9

>  <REMARK>
 VINA RESULT:      -5.9      2.333      6.927
  Name = 
  10 active torsions:
  status: ('A' for Active; 'I' for Inactive)
    1  A    between atoms: C_1  and  C_8
    2  A    between atoms: C_3  and  C_5
    3  A    between atoms: C_9  and  N_17
    4  A    between atoms: C_9  and  C_22
    5  A    between atoms: N_17  and  C_28
    6  A    between atoms: C_18  and  C_33
    7  A    between atoms: C_22  and  C_32
    8  A    between atoms: C_24  and  C_25
    9  A    between atoms: C_24  and  C_32
   10  A    between atoms: C_28  and  C_31
                            x       y       z     vdW  Elec       q    Type
                         _______ _______ _______ _____ _____    ______ ____

>  <TORSDO>
F 10

$$$$
