=
 OpenBabel11042414043D

 31 36  0  0  1  0  0  0  0  0999 V2000
  189.4040  174.6580  147.4400 O   0  0  0  0  0  0  0  0  0  0  0  0
  187.7450  176.4320  146.8940 C   0  0  1  0  0  3  0  0  0  0  0  0
  188.7830  175.4140  146.4020 C   0  0  2  0  0  0  0  0  0  0  0  0
  189.6230  175.7110  145.1780 C   0  0  2  0  0  0  0  0  0  0  0  0
  188.8100  177.4890  146.8950 C   0  0  0  0  0  2  0  0  0  0  0  0
  189.8480  176.4500  146.4700 C   0  0  1  0  0  0  0  0  0  0  0  0
  191.4430  175.7890  148.3390 O   0  0  0  0  0  0  0  0  0  0  0  0
  188.9960  176.4470  144.1690 O   0  0  0  0  0  1  0  0  0  0  0  0
  190.4450  175.6520  147.5830 C   0  0  0  0  0  0  0  0  0  0  0  0
  190.6360  174.6560  144.7550 C   0  0  0  0  0  2  0  0  0  0  0  0
  192.9440  175.4480  144.1100 C   0  0  0  0  0  0  0  0  0  0  0  0
  193.7380  175.8880  143.1870 N   0  0  0  0  0  2  0  0  0  0  0  0
  191.5690  175.2210  143.7930 N   0  0  0  0  0  2  0  0  0  0  0  0
  194.1720  173.8500  145.4820 C   0  0  0  0  0  0  0  0  0  0  0  0
  195.3250  174.5670  145.8360 C   0  0  1  0  0  0  0  0  0  0  0  0
  194.1480  172.4770  145.3230 C   0  0  0  0  0  3  0  0  0  0  0  0
  193.4770  175.1030  145.4790 C   0  0  1  0  0  0  0  0  0  0  0  0
  196.5560  173.9790  146.0580 C   0  0  0  0  0  3  0  0  0  0  0  0
  195.3950  171.8360  145.5440 C   0  0  0  0  0  2  0  0  0  0  0  0
  194.6370  175.8590  145.7940 N   0  0  0  0  0  2  0  0  0  0  0  0
  196.5700  172.5710  145.9010 C   0  0  0  0  0  3  0  0  0  0  0  0
  186.6720  176.7270  145.8520 C   0  0  0  0  0  2  0  0  0  0  0  0
  186.4300  178.1580  145.7960 N   0  0  0  0  0  2  0  0  0  0  0  0
  185.0200  178.3380  145.5030 C   0  0  0  0  0  2  0  0  0  0  0  0
  184.8090  178.3400  144.0020 C   0  0  1  0  0  3  0  0  0  0  0  0
  183.5800  178.9300  143.7110 O   0  0  0  0  0  1  0  0  0  0  0  0
  185.9300  179.1220  143.3290 C   0  0  0  0  0  2  0  0  0  0  0  0
  186.4080  178.4200  142.0660 C   0  0  1  0  0  3  0  0  0  0  0  0
  187.7860  178.5900  141.9210 O   0  0  0  0  0  1  0  0  0  0  0  0
  187.0970  176.1990  141.5150 O   0  0  0  0  0  1  0  0  0  0  0  0
  186.0970  176.9360  142.1530 C   0  0  0  0  0  2  0  0  0  0  0  0
  1  9  1  0  0  0  0
  2 22  1  6  0  0  0
  2  5  1  0  0  0  0
  3  6  1  0  0  0  0
  3  2  1  0  0  0  0
  3  1  1  1  0  0  0
  4  8  1  6  0  0  0
  4  3  1  0  0  0  0
  4  6  1  0  0  0  0
  6  5  1  1  0  0  0
  6  9  1  0  0  0  0
  9  7  2  0  0  0  0
 10  4  1  0  0  0  0
 12 11  2  0  0  0  0
 13 11  1  0  0  0  0
 13 10  1  0  0  0  0
 14 15  1  0  0  0  0
 15 18  1  1  0  0  0
 16 14  2  0  0  0  0
 16 19  1  0  0  0  0
 17 11  1  6  0  0  0
 17 14  1  0  0  0  0
 17 20  1  0  0  0  0
 17 15  1  0  0  0  0
 19 21  1  0  0  0  0
 20 15  1  0  0  0  0
 21 18  2  0  0  0  0
 23 22  1  0  0  0  0
 24 23  1  0  0  0  0
 25 26  1  1  0  0  0
 25 24  1  0  0  0  0
 27 25  1  0  0  0  0
 28 29  1  1  0  0  0
 28 31  1  0  0  0  0
 28 27  1  0  0  0  0
 30 31  1  0  0  0  0
M  END
>  <MODEL>
1

>  <REMARK>
 VINA RESULT:      -6.7      0.000      0.000
  Name = 
  10 active torsions:
  status: ('A' for Active; 'I' for Inactive)
    1  A    between atoms: C_2  and  C_14
    2  A    between atoms: C_3  and  C_18
    3  A    between atoms: C_3  and  C_30
    4  A    between atoms: C_4  and  C_27
    5  A    between atoms: C_9  and  C_10
    6  A    between atoms: C_10  and  N_25
    7  A    between atoms: C_13  and  C_18
    8  A    between atoms: C_13  and  C_26
    9  A    between atoms: N_19  and  C_27
   10  A    between atoms: N_19  and  C_30
                            x       y       z     vdW  Elec       q    Type
                         _______ _______ _______ _____ _____    ______ ____

>  <TORSDO>
F 10

$$$$
=
 OpenBabel11042414043D

 31 36  0  0  1  0  0  0  0  0999 V2000
  184.9270  176.9140  145.1900 O   0  0  0  0  0  0  0  0  0  0  0  0
  185.5880  178.1900  143.1570 C   0  0  1  0  0  3  0  0  0  0  0  0
  186.0110  177.3710  144.3850 C   0  0  2  0  0  0  0  0  0  0  0  0
  187.3080  177.6840  145.1010 C   0  0  2  0  0  0  0  0  0  0  0  0
  185.7750  179.4470  143.9540 C   0  0  0  0  0  2  0  0  0  0  0  0
  186.1300  178.6170  145.1880 C   0  0  1  0  0  0  0  0  0  0  0  0
  184.2890  178.5760  146.9440 O   0  0  0  0  0  0  0  0  0  0  0  0
  188.3610  178.1240  144.2940 O   0  0  0  0  0  1  0  0  0  0  0  0
  184.9640  178.1240  145.9810 C   0  0  0  0  0  0  0  0  0  0  0  0
  187.6570  176.8330  146.3130 C   0  0  0  0  0  2  0  0  0  0  0  0
  189.8800  177.1850  147.4560 C   0  0  0  0  0  0  0  0  0  0  0  0
  190.6240  177.9300  148.2080 N   0  0  0  0  0  2  0  0  0  0  0  0
  188.5290  177.5780  147.2080 N   0  0  0  0  0  2  0  0  0  0  0  0
  191.4920  176.2950  145.8580 C   0  0  0  0  0  0  0  0  0  0  0  0
  192.3640  175.5600  146.6750 C   0  0  1  0  0  0  0  0  0  0  0  0
  191.8870  176.9210  144.6900 C   0  0  0  0  0  3  0  0  0  0  0  0
  190.4520  175.9600  146.7860 C   0  0  1  0  0  0  0  0  0  0  0  0
  193.7090  175.3880  146.4020 C   0  0  0  0  0  3  0  0  0  0  0  0
  193.2610  176.7660  144.3750 C   0  0  0  0  0  2  0  0  0  0  0  0
  191.3220  175.2470  147.6530 N   0  0  0  0  0  2  0  0  0  0  0  0
  194.1500  176.0190  145.2120 C   0  0  0  0  0  3  0  0  0  0  0  0
  186.5950  178.1020  142.0160 C   0  0  0  0  0  2  0  0  0  0  0  0
  186.5400  176.7790  141.4210 N   0  0  0  0  0  2  0  0  0  0  0  0
  187.9000  176.2690  141.3970 C   0  0  0  0  0  2  0  0  0  0  0  0
  187.9640  174.9570  142.1550 C   0  0  1  0  0  3  0  0  0  0  0  0
  188.1080  173.9090  141.2460 O   0  0  0  0  0  1  0  0  0  0  0  0
  189.1480  174.9780  143.1120 C   0  0  0  0  0  2  0  0  0  0  0  0
  190.2460  174.0320  142.6460 C   0  0  1  0  0  3  0  0  0  0  0  0
  191.2680  174.7580  142.0300 O   0  0  0  0  0  1  0  0  0  0  0  0
  189.8350  173.1090  144.8120 O   0  0  0  0  0  1  0  0  0  0  0  0
  190.8190  173.2820  143.8370 C   0  0  0  0  0  2  0  0  0  0  0  0
  1  9  1  0  0  0  0
  2 22  1  6  0  0  0
  2  5  1  0  0  0  0
  2  3  1  0  0  0  0
  3  4  1  0  0  0  0
  3  6  1  0  0  0  0
  3  1  1  1  0  0  0
  4  8  1  6  0  0  0
  4  6  1  0  0  0  0
  4 10  1  0  0  0  0
  6  5  1  6  0  0  0
  6  9  1  0  0  0  0
  9  7  2  0  0  0  0
 10 13  1  0  0  0  0
 11 12  2  0  0  0  0
 13 11  1  0  0  0  0
 14 15  1  0  0  0  0
 14 17  1  0  0  0  0
 15 18  1  6  0  0  0
 15 17  1  0  0  0  0
 15 20  1  0  0  0  0
 16 14  2  0  0  0  0
 17 11  1  1  0  0  0
 17 20  1  0  0  0  0
 19 16  1  0  0  0  0
 19 21  1  0  0  0  0
 21 18  2  0  0  0  0
 23 22  1  0  0  0  0
 24 23  1  0  0  0  0
 24 25  1  0  0  0  0
 25 26  1  6  0  0  0
 25 27  1  0  0  0  0
 28 29  1  1  0  0  0
 28 27  1  0  0  0  0
 28 31  1  0  0  0  0
 31 30  1  0  0  0  0
M  END
>  <MODEL>
2

>  <REMARK>
 VINA RESULT:      -6.6      2.532      4.950
  Name = 
  10 active torsions:
  status: ('A' for Active; 'I' for Inactive)
    1  A    between atoms: C_2  and  C_14
    2  A    between atoms: C_3  and  C_18
    3  A    between atoms: C_3  and  C_30
    4  A    between atoms: C_4  and  C_27
    5  A    between atoms: C_9  and  C_10
    6  A    between atoms: C_10  and  N_25
    7  A    between atoms: C_13  and  C_18
    8  A    between atoms: C_13  and  C_26
    9  A    between atoms: N_19  and  C_27
   10  A    between atoms: N_19  and  C_30
                            x       y       z     vdW  Elec       q    Type
                         _______ _______ _______ _____ _____    ______ ____

>  <TORSDO>
F 10

$$$$
=
 OpenBabel11042414043D

 31 36  0  0  1  0  0  0  0  0999 V2000
  189.4400  174.5840  146.2690 O   0  0  0  0  0  0  0  0  0  0  0  0
  188.3920  176.7170  145.5280 C   0  0  1  0  0  3  0  0  0  0  0  0
  189.3630  175.5640  145.2370 C   0  0  2  0  0  0  0  0  0  0  0  0
  190.6240  175.8130  144.4370 C   0  0  2  0  0  0  0  0  0  0  0  0
  189.5360  177.5190  146.0730 C   0  0  0  0  0  2  0  0  0  0  0  0
  190.4810  176.3400  145.8390 C   0  0  1  0  0  0  0  0  0  0  0  0
  191.1680  175.1540  147.9840 O   0  0  0  0  0  0  0  0  0  0  0  0
  190.5280  176.7730  143.4250 O   0  0  0  0  0  1  0  0  0  0  0  0
  190.5010  175.3150  146.9270 C   0  0  0  0  0  0  0  0  0  0  0  0
  191.5420  174.6230  144.1940 C   0  0  0  0  0  2  0  0  0  0  0  0
  193.9960  175.0580  143.7990 C   0  0  0  0  0  0  0  0  0  0  0  0
  194.9410  175.3470  142.9630 N   0  0  0  0  0  2  0  0  0  0  0  0
  192.6460  175.0150  143.3320 N   0  0  0  0  0  2  0  0  0  0  0  0
  194.6790  173.3130  145.3580 C   0  0  0  0  0  0  0  0  0  0  0  0
  195.9440  173.7510  145.7780 C   0  0  1  0  0  0  0  0  0  0  0  0
  194.3260  171.9800  145.2680 C   0  0  0  0  0  3  0  0  0  0  0  0
  194.3210  174.6950  145.2270 C   0  0  1  0  0  0  0  0  0  0  0  0
  196.9690  172.8980  146.1420 C   0  0  0  0  0  3  0  0  0  0  0  0
  195.3520  171.0720  145.6350 C   0  0  0  0  0  2  0  0  0  0  0  0
  195.6060  175.1650  145.6070 N   0  0  0  0  0  2  0  0  0  0  0  0
  196.6430  171.5210  146.0600 C   0  0  0  0  0  3  0  0  0  0  0  0
  187.8290  177.3460  144.2590 C   0  0  0  0  0  2  0  0  0  0  0  0
  186.4980  176.8220  144.0070 N   0  0  0  0  0  2  0  0  0  0  0  0
  185.6970  177.9250  143.5040 C   0  0  0  0  0  2  0  0  0  0  0  0
  185.5360  178.9710  144.5890 C   0  0  1  0  0  3  0  0  0  0  0  0
  185.5810  180.2400  144.0120 O   0  0  0  0  0  1  0  0  0  0  0  0
  184.2020  178.7720  145.2970 C   0  0  0  0  0  2  0  0  0  0  0  0
  184.4060  178.2520  146.7140 C   0  0  1  0  0  3  0  0  0  0  0  0
  184.6590  176.8790  146.6830 O   0  0  0  0  0  1  0  0  0  0  0  0
  186.4230  178.0290  147.9750 O   0  0  0  0  0  1  0  0  0  0  0  0
  185.5860  178.9600  147.3570 C   0  0  0  0  0  2  0  0  0  0  0  0
  1  9  1  0  0  0  0
  2 22  1  6  0  0  0
  2  5  1  0  0  0  0
  3  2  1  0  0  0  0
  3  6  1  0  0  0  0
  3  1  1  1  0  0  0
  4  8  1  6  0  0  0
  4  3  1  0  0  0  0
  4  6  1  0  0  0  0
  6  5  1  1  0  0  0
  6  9  1  0  0  0  0
  9  7  2  0  0  0  0
 10  4  1  0  0  0  0
 12 11  2  0  0  0  0
 13 11  1  0  0  0  0
 13 10  1  0  0  0  0
 14 15  1  0  0  0  0
 15 18  1  1  0  0  0
 16 14  2  0  0  0  0
 16 19  1  0  0  0  0
 17 11  1  6  0  0  0
 17 14  1  0  0  0  0
 17 20  1  0  0  0  0
 17 15  1  0  0  0  0
 19 21  1  0  0  0  0
 20 15  1  0  0  0  0
 21 18  2  0  0  0  0
 23 22  1  0  0  0  0
 24 23  1  0  0  0  0
 24 25  1  0  0  0  0
 25 26  1  6  0  0  0
 25 27  1  0  0  0  0
 27 28  1  0  0  0  0
 28 29  1  6  0  0  0
 28 31  1  0  0  0  0
 31 30  1  0  0  0  0
M  END
>  <MODEL>
3

>  <REMARK>
 VINA RESULT:      -6.6      1.626      2.490
  Name = 
  10 active torsions:
  status: ('A' for Active; 'I' for Inactive)
    1  A    between atoms: C_2  and  C_14
    2  A    between atoms: C_3  and  C_18
    3  A    between atoms: C_3  and  C_30
    4  A    between atoms: C_4  and  C_27
    5  A    between atoms: C_9  and  C_10
    6  A    between atoms: C_10  and  N_25
    7  A    between atoms: C_13  and  C_18
    8  A    between atoms: C_13  and  C_26
    9  A    between atoms: N_19  and  C_27
   10  A    between atoms: N_19  and  C_30
                            x       y       z     vdW  Elec       q    Type
                         _______ _______ _______ _____ _____    ______ ____

>  <TORSDO>
F 10

$$$$
=
 OpenBabel11042414043D

 31 36  0  0  1  0  0  0  0  0999 V2000
  190.6600  176.5480  147.6730 O   0  0  0  0  0  0  0  0  0  0  0  0
  192.9240  175.8220  146.9330 C   0  0  1  0  0  3  0  0  0  0  0  0
  191.6090  176.5460  146.6090 C   0  0  2  0  0  0  0  0  0  0  0  0
  191.0540  176.5260  145.2000 C   0  0  2  0  0  0  0  0  0  0  0  0
  192.3680  174.5740  146.3120 C   0  0  0  0  0  2  0  0  0  0  0  0
  191.0400  175.2870  146.0550 C   0  0  1  0  0  0  0  0  0  0  0  0
  189.1720  174.5410  147.6140 O   0  0  0  0  0  0  0  0  0  0  0  0
  191.9990  176.5300  144.1700 O   0  0  0  0  0  1  0  0  0  0  0  0
  190.0910  175.3020  147.2090 C   0  0  0  0  0  0  0  0  0  0  0  0
  189.7440  177.2600  144.9570 C   0  0  0  0  0  2  0  0  0  0  0  0
  188.5750  177.6580  142.7550 C   0  0  0  0  0  0  0  0  0  0  0  0
  188.5900  178.2160  141.5870 N   0  0  0  0  0  2  0  0  0  0  0  0
  189.7170  177.7940  143.6030 N   0  0  0  0  0  2  0  0  0  0  0  0
  186.4380  177.8310  143.9150 C   0  0  0  0  0  0  0  0  0  0  0  0
  185.5120  177.5420  142.9010 C   0  0  1  0  0  0  0  0  0  0  0  0
  186.1700  178.6780  144.9730 C   0  0  0  0  0  3  0  0  0  0  0  0
  187.3420  176.9410  143.2460 C   0  0  1  0  0  0  0  0  0  0  0  0
  184.2380  178.0770  142.8510 C   0  0  0  0  0  3  0  0  0  0  0  0
  184.8710  179.2480  144.9580 C   0  0  0  0  0  2  0  0  0  0  0  0
  186.4400  176.6660  142.1840 N   0  0  0  0  0  2  0  0  0  0  0  0
  183.9280  178.9550  143.9210 C   0  0  0  0  0  3  0  0  0  0  0  0
  194.1040  176.3610  146.1320 C   0  0  0  0  0  2  0  0  0  0  0  0
  195.1810  175.3870  146.1390 N   0  0  0  0  0  2  0  0  0  0  0  0
  195.6840  175.3020  144.7800 C   0  0  0  0  0  2  0  0  0  0  0  0
  196.6010  174.1020  144.6520 C   0  0  1  0  0  3  0  0  0  0  0  0
  197.9230  174.5400  144.5840 O   0  0  0  0  0  1  0  0  0  0  0  0
  196.4210  173.1900  145.8590 C   0  0  0  0  0  2  0  0  0  0  0  0
  196.0530  171.7770  145.4280 C   0  0  1  0  0  3  0  0  0  0  0  0
  196.7790  170.8480  146.1770 O   0  0  0  0  0  1  0  0  0  0  0  0
  193.8570  171.8570  144.4890 O   0  0  0  0  0  1  0  0  0  0  0  0
  194.5690  171.5410  145.6480 C   0  0  0  0  0  2  0  0  0  0  0  0
  2 22  1  6  0  0  0
  3  2  1  0  0  0  0
  3  1  1  1  0  0  0
  4  8  1  6  0  0  0
  4  6  1  0  0  0  0
  4  3  1  0  0  0  0
  5  2  1  0  0  0  0
  6  5  1  6  0  0  0
  6  3  1  0  0  0  0
  6  9  1  0  0  0  0
  9  7  2  0  0  0  0
  9  1  1  0  0  0  0
 10  4  1  0  0  0  0
 11 13  1  0  0  0  0
 12 11  2  0  0  0  0
 13 10  1  0  0  0  0
 14 16  2  0  0  0  0
 15 18  1  1  0  0  0
 15 17  1  0  0  0  0
 15 14  1  0  0  0  0
 17 11  1  6  0  0  0
 17 14  1  0  0  0  0
 18 21  2  0  0  0  0
 19 16  1  0  0  0  0
 20 15  1  0  0  0  0
 20 17  1  0  0  0  0
 21 19  1  0  0  0  0
 22 23  1  0  0  0  0
 24 23  1  0  0  0  0
 25 26  1  1  0  0  0
 25 24  1  0  0  0  0
 25 27  1  0  0  0  0
 28 31  1  0  0  0  0
 28 27  1  0  0  0  0
 28 29  1  1  0  0  0
 30 31  1  0  0  0  0
M  END
>  <MODEL>
4

>  <REMARK>
 VINA RESULT:      -6.6      2.852      8.846
  Name = 
  10 active torsions:
  status: ('A' for Active; 'I' for Inactive)
    1  A    between atoms: C_2  and  C_14
    2  A    between atoms: C_3  and  C_18
    3  A    between atoms: C_3  and  C_30
    4  A    between atoms: C_4  and  C_27
    5  A    between atoms: C_9  and  C_10
    6  A    between atoms: C_10  and  N_25
    7  A    between atoms: C_13  and  C_18
    8  A    between atoms: C_13  and  C_26
    9  A    between atoms: N_19  and  C_27
   10  A    between atoms: N_19  and  C_30
                            x       y       z     vdW  Elec       q    Type
                         _______ _______ _______ _____ _____    ______ ____

>  <TORSDO>
F 10

$$$$
=
 OpenBabel11042414043D

 31 36  0  0  1  0  0  0  0  0999 V2000
  190.6730  175.2880  147.6150 O   0  0  0  0  0  0  0  0  0  0  0  0
  188.6980  176.5940  146.8450 C   0  0  1  0  0  3  0  0  0  0  0  0
  189.6810  175.4400  146.6020 C   0  0  2  0  0  0  0  0  0  0  0  0
  190.0830  175.0640  145.1920 C   0  0  2  0  0  0  0  0  0  0  0  0
  189.5600  177.4820  145.9980 C   0  0  0  0  0  2  0  0  0  0  0  0
  190.5650  176.3440  145.8190 C   0  0  1  0  0  0  0  0  0  0  0  0
  192.7070  176.6660  147.1550 O   0  0  0  0  0  0  0  0  0  0  0  0
  189.0960  175.2130  144.2140 O   0  0  0  0  0  1  0  0  0  0  0  0
  191.5620  176.1950  146.9230 C   0  0  0  0  0  0  0  0  0  0  0  0
  191.0670  173.9140  145.0310 C   0  0  0  0  0  2  0  0  0  0  0  0
  193.3560  174.2270  144.0130 C   0  0  0  0  0  0  0  0  0  0  0  0
  194.0740  174.3770  142.9470 N   0  0  0  0  0  2  0  0  0  0  0  0
  191.9340  174.1580  143.8880 N   0  0  0  0  0  2  0  0  0  0  0  0
  194.5380  172.7250  145.5260 C   0  0  0  0  0  0  0  0  0  0  0  0
  195.8080  173.3160  145.6190 C   0  0  1  0  0  0  0  0  0  0  0  0
  194.3220  171.3630  145.6300 C   0  0  0  0  0  3  0  0  0  0  0  0
  194.0120  174.0470  145.3600 C   0  0  1  0  0  0  0  0  0  0  0  0
  196.9740  172.6000  145.8200 C   0  0  0  0  0  3  0  0  0  0  0  0
  195.4960  170.5940  145.8380 C   0  0  0  0  0  2  0  0  0  0  0  0
  195.2880  174.6680  145.4070 N   0  0  0  0  0  2  0  0  0  0  0  0
  196.7910  171.1990  145.9290 C   0  0  0  0  0  3  0  0  0  0  0  0
  187.3400  176.3550  146.1940 C   0  0  0  0  0  2  0  0  0  0  0  0
  186.2890  176.8410  147.0710 N   0  0  0  0  0  2  0  0  0  0  0  0
  185.1510  177.1630  146.2290 C   0  0  0  0  0  2  0  0  0  0  0  0
  184.8840  178.6540  146.2850 C   0  0  1  0  0  3  0  0  0  0  0  0
  185.5760  179.2040  147.3640 O   0  0  0  0  0  1  0  0  0  0  0  0
  185.3460  179.3060  144.9890 C   0  0  0  0  0  2  0  0  0  0  0  0
  185.1110  178.3860  143.7990 C   0  0  1  0  0  3  0  0  0  0  0  0
  183.8330  178.6000  143.2790 O   0  0  0  0  0  1  0  0  0  0  0  0
  187.3930  178.1970  143.1150 O   0  0  0  0  0  1  0  0  0  0  0  0
  186.1410  178.6690  142.7180 C   0  0  0  0  0  2  0  0  0  0  0  0
  2 22  1  6  0  0  0
  3  2  1  0  0  0  0
  3  1  1  1  0  0  0
  4  8  1  6  0  0  0
  4  6  1  0  0  0  0
  4  3  1  0  0  0  0
  5  2  1  0  0  0  0
  6  5  1  6  0  0  0
  6  3  1  0  0  0  0
  6  9  1  0  0  0  0
  9  7  2  0  0  0  0
  9  1  1  0  0  0  0
 10  4  1  0  0  0  0
 12 11  2  0  0  0  0
 13 11  1  0  0  0  0
 13 10  1  0  0  0  0
 14 15  1  0  0  0  0
 14 16  2  0  0  0  0
 15 18  1  1  0  0  0
 16 19  1  0  0  0  0
 17 11  1  6  0  0  0
 17 20  1  0  0  0  0
 17 14  1  0  0  0  0
 17 15  1  0  0  0  0
 18 21  2  0  0  0  0
 19 21  1  0  0  0  0
 20 15  1  0  0  0  0
 22 23  1  0  0  0  0
 24 25  1  0  0  0  0
 24 23  1  0  0  0  0
 25 26  1  1  0  0  0
 27 25  1  0  0  0  0
 28 29  1  6  0  0  0
 28 27  1  0  0  0  0
 31 30  1  0  0  0  0
 31 28  1  0  0  0  0
M  END
>  <MODEL>
5

>  <REMARK>
 VINA RESULT:      -6.6      1.347      1.778
  Name = 
  10 active torsions:
  status: ('A' for Active; 'I' for Inactive)
    1  A    between atoms: C_2  and  C_14
    2  A    between atoms: C_3  and  C_18
    3  A    between atoms: C_3  and  C_30
    4  A    between atoms: C_4  and  C_27
    5  A    between atoms: C_9  and  C_10
    6  A    between atoms: C_10  and  N_25
    7  A    between atoms: C_13  and  C_18
    8  A    between atoms: C_13  and  C_26
    9  A    between atoms: N_19  and  C_27
   10  A    between atoms: N_19  and  C_30
                            x       y       z     vdW  Elec       q    Type
                         _______ _______ _______ _____ _____    ______ ____

>  <TORSDO>
F 10

$$$$
=
 OpenBabel11042414043D

 31 36  0  0  1  0  0  0  0  0999 V2000
  187.9720  172.4410  142.0090 O   0  0  0  0  0  0  0  0  0  0  0  0
  190.1940  172.6170  143.1190 C   0  0  1  0  0  3  0  0  0  0  0  0
  188.8390  173.2600  142.7900 C   0  0  2  0  0  0  0  0  0  0  0  0
  188.7350  174.7560  142.5830 C   0  0  2  0  0  0  0  0  0  0  0  0
  190.7870  173.2990  141.9210 C   0  0  0  0  0  2  0  0  0  0  0  0
  189.4170  173.8790  141.5680 C   0  0  1  0  0  0  0  0  0  0  0  0
  188.3320  172.7600  139.5560 O   0  0  0  0  0  0  0  0  0  0  0  0
  189.5880  175.5430  143.3630 O   0  0  0  0  0  1  0  0  0  0  0  0
  188.5250  172.9740  140.7830 C   0  0  0  0  0  0  0  0  0  0  0  0
  187.3600  175.3200  142.2550 C   0  0  0  0  0  2  0  0  0  0  0  0
  186.4920  177.6780  142.5000 C   0  0  0  0  0  0  0  0  0  0  0  0
  186.6740  178.9430  142.2990 N   0  0  0  0  0  2  0  0  0  0  0  0
  187.4570  176.7500  142.0010 N   0  0  0  0  0  2  0  0  0  0  0  0
  185.5910  177.2460  144.7240 C   0  0  0  0  0  0  0  0  0  0  0  0
  184.5460  178.1770  144.8210 C   0  0  1  0  0  0  0  0  0  0  0  0
  186.3240  176.8070  145.8110 C   0  0  0  0  0  3  0  0  0  0  0  0
  185.3200  177.1930  143.3180 C   0  0  1  0  0  0  0  0  0  0  0  0
  184.1430  178.7570  146.0100 C   0  0  0  0  0  3  0  0  0  0  0  0
  185.9390  177.3790  147.0510 C   0  0  0  0  0  2  0  0  0  0  0  0
  184.2880  178.1660  143.3800 N   0  0  0  0  0  2  0  0  0  0  0  0
  184.8750  178.3320  147.1470 C   0  0  0  0  0  3  0  0  0  0  0  0
  190.7980  173.1480  144.4140 C   0  0  0  0  0  2  0  0  0  0  0  0
  192.1780  173.5380  144.1820 N   0  0  0  0  0  2  0  0  0  0  0  0
  192.6800  174.0800  145.4320 C   0  0  0  0  0  2  0  0  0  0  0  0
  193.2130  175.4800  145.2000 C   0  0  1  0  0  3  0  0  0  0  0  0
  193.5510  175.6250  143.8550 O   0  0  0  0  0  1  0  0  0  0  0  0
  192.1490  176.5020  145.5790 C   0  0  0  0  0  2  0  0  0  0  0  0
  191.4310  176.0970  146.8590 C   0  0  1  0  0  3  0  0  0  0  0  0
  191.9480  176.8130  147.9400 O   0  0  0  0  0  1  0  0  0  0  0  0
  189.7550  177.6010  146.0580 O   0  0  0  0  0  1  0  0  0  0  0  0
  189.9470  176.3930  146.7320 C   0  0  0  0  0  2  0  0  0  0  0  0
  2 22  1  1  0  0  0
  3  1  1  6  0  0  0
  3  2  1  0  0  0  0
  4  3  1  0  0  0  0
  4  8  1  1  0  0  0
  5  2  1  0  0  0  0
  6  5  1  6  0  0  0
  6  4  1  0  0  0  0
  6  3  1  0  0  0  0
  7  9  2  0  0  0  0
  9  6  1  0  0  0  0
  9  1  1  0  0  0  0
 10  4  1  0  0  0  0
 12 11  2  0  0  0  0
 13 10  1  0  0  0  0
 13 11  1  0  0  0  0
 14 15  1  0  0  0  0
 14 16  2  0  0  0  0
 15 18  1  1  0  0  0
 16 19  1  0  0  0  0
 17 11  1  6  0  0  0
 17 20  1  0  0  0  0
 17 14  1  0  0  0  0
 17 15  1  0  0  0  0
 18 21  2  0  0  0  0
 19 21  1  0  0  0  0
 20 15  1  0  0  0  0
 23 22  1  0  0  0  0
 23 24  1  0  0  0  0
 25 26  1  6  0  0  0
 25 24  1  0  0  0  0
 25 27  1  0  0  0  0
 27 28  1  0  0  0  0
 28 29  1  1  0  0  0
 30 31  1  0  0  0  0
 31 28  1  0  0  0  0
M  END
>  <MODEL>
6

>  <REMARK>
 VINA RESULT:      -6.6      2.556      8.077
  Name = 
  10 active torsions:
  status: ('A' for Active; 'I' for Inactive)
    1  A    between atoms: C_2  and  C_14
    2  A    between atoms: C_3  and  C_18
    3  A    between atoms: C_3  and  C_30
    4  A    between atoms: C_4  and  C_27
    5  A    between atoms: C_9  and  C_10
    6  A    between atoms: C_10  and  N_25
    7  A    between atoms: C_13  and  C_18
    8  A    between atoms: C_13  and  C_26
    9  A    between atoms: N_19  and  C_27
   10  A    between atoms: N_19  and  C_30
                            x       y       z     vdW  Elec       q    Type
                         _______ _______ _______ _____ _____    ______ ____

>  <TORSDO>
F 10

$$$$
=
 OpenBabel11042414043D

 31 36  0  0  1  0  0  0  0  0999 V2000
  189.4260  174.1730  146.1930 O   0  0  0  0  0  0  0  0  0  0  0  0
  191.7460  175.0710  146.2870 C   0  0  1  0  0  3  0  0  0  0  0  0
  190.3380  175.1410  145.6790 C   0  0  2  0  0  0  0  0  0  0  0  0
  190.1500  175.5580  144.2360 C   0  0  2  0  0  0  0  0  0  0  0  0
  192.1760  174.2010  145.1430 C   0  0  0  0  0  2  0  0  0  0  0  0
  190.7530  174.2240  144.5840 C   0  0  1  0  0  0  0  0  0  0  0  0
  189.5030  172.0310  144.9070 O   0  0  0  0  0  0  0  0  0  0  0  0
  191.0480  176.5130  143.7520 O   0  0  0  0  0  1  0  0  0  0  0  0
  189.8190  173.2200  145.1780 C   0  0  0  0  0  0  0  0  0  0  0  0
  188.7250  175.5980  143.7020 C   0  0  0  0  0  2  0  0  0  0  0  0
  187.2340  177.5120  143.0050 C   0  0  0  0  0  0  0  0  0  0  0  0
  187.1170  178.6520  142.4050 N   0  0  0  0  0  2  0  0  0  0  0  0
  188.4970  176.8440  142.9860 N   0  0  0  0  0  2  0  0  0  0  0  0
  186.1090  177.3190  145.1590 C   0  0  0  0  0  0  0  0  0  0  0  0
  184.8910  177.9780  144.9320 C   0  0  1  0  0  0  0  0  0  0  0  0
  186.7390  177.2860  146.3890 C   0  0  0  0  0  3  0  0  0  0  0  0
  186.0760  176.9310  143.7800 C   0  0  1  0  0  0  0  0  0  0  0  0
  184.1970  178.6650  145.9110 C   0  0  0  0  0  3  0  0  0  0  0  0
  186.0560  177.9800  147.4210 C   0  0  0  0  0  2  0  0  0  0  0  0
  184.8670  177.6260  143.5120 N   0  0  0  0  0  2  0  0  0  0  0  0
  184.8150  178.6540  147.1860 C   0  0  0  0  0  3  0  0  0  0  0  0
  192.4650  176.4150  146.2610 C   0  0  0  0  0  2  0  0  0  0  0  0
  193.8910  176.2070  146.4330 N   0  0  0  0  0  2  0  0  0  0  0  0
  194.5660  177.1400  145.5480 C   0  0  0  0  0  2  0  0  0  0  0  0
  195.2230  176.3800  144.4130 C   0  0  1  0  0  3  0  0  0  0  0  0
  196.2610  177.1470  143.8880 O   0  0  0  0  0  1  0  0  0  0  0  0
  195.7690  175.0570  144.9330 C   0  0  0  0  0  2  0  0  0  0  0  0
  195.8530  174.0220  143.8190 C   0  0  1  0  0  3  0  0  0  0  0  0
  197.1470  173.9940  143.2940 O   0  0  0  0  0  1  0  0  0  0  0  0
  195.5150  172.6730  145.7630 O   0  0  0  0  0  1  0  0  0  0  0  0
  195.5090  172.6480  144.3670 C   0  0  0  0  0  2  0  0  0  0  0  0
  2 22  1  6  0  0  0
  3  1  1  1  0  0  0
  3  2  1  0  0  0  0
  4  8  1  6  0  0  0
  4  6  1  0  0  0  0
  4  3  1  0  0  0  0
  5  2  1  0  0  0  0
  6  5  1  6  0  0  0
  6  9  1  0  0  0  0
  6  3  1  0  0  0  0
  7  9  2  0  0  0  0
  9  1  1  0  0  0  0
 10  4  1  0  0  0  0
 12 11  2  0  0  0  0
 13 11  1  0  0  0  0
 13 10  1  0  0  0  0
 14 16  2  0  0  0  0
 15 14  1  0  0  0  0
 15 18  1  1  0  0  0
 16 19  1  0  0  0  0
 17 11  1  6  0  0  0
 17 15  1  0  0  0  0
 17 14  1  0  0  0  0
 18 21  2  0  0  0  0
 20 17  1  0  0  0  0
 20 15  1  0  0  0  0
 21 19  1  0  0  0  0
 22 23  1  0  0  0  0
 24 23  1  0  0  0  0
 25 26  1  1  0  0  0
 25 27  1  0  0  0  0
 25 24  1  0  0  0  0
 28 29  1  1  0  0  0
 28 31  1  0  0  0  0
 28 27  1  0  0  0  0
 31 30  1  0  0  0  0
M  END
>  <MODEL>
7

>  <REMARK>
 VINA RESULT:      -6.5      2.809      8.328
  Name = 
  10 active torsions:
  status: ('A' for Active; 'I' for Inactive)
    1  A    between atoms: C_2  and  C_14
    2  A    between atoms: C_3  and  C_18
    3  A    between atoms: C_3  and  C_30
    4  A    between atoms: C_4  and  C_27
    5  A    between atoms: C_9  and  C_10
    6  A    between atoms: C_10  and  N_25
    7  A    between atoms: C_13  and  C_18
    8  A    between atoms: C_13  and  C_26
    9  A    between atoms: N_19  and  C_27
   10  A    between atoms: N_19  and  C_30
                            x       y       z     vdW  Elec       q    Type
                         _______ _______ _______ _____ _____    ______ ____

>  <TORSDO>
F 10

$$$$
=
 OpenBabel11042414043D

 31 36  0  0  1  0  0  0  0  0999 V2000
  191.7450  176.7040  147.3440 O   0  0  0  0  0  0  0  0  0  0  0  0
  193.8020  175.5740  146.5120 C   0  0  1  0  0  3  0  0  0  0  0  0
  192.5790  176.4540  146.2150 C   0  0  2  0  0  0  0  0  0  0  0  0
  191.8960  176.3820  144.8660 C   0  0  2  0  0  0  0  0  0  0  0  0
  193.0170  174.3710  146.0780 C   0  0  0  0  0  2  0  0  0  0  0  0
  191.7870  175.2490  145.8500 C   0  0  1  0  0  0  0  0  0  0  0  0
  189.9870  174.9490  147.6250 O   0  0  0  0  0  0  0  0  0  0  0  0
  192.7310  176.1430  143.7700 O   0  0  0  0  0  1  0  0  0  0  0  0
  190.9630  175.5190  147.0670 C   0  0  0  0  0  0  0  0  0  0  0  0
  190.6870  177.2800  144.6480 C   0  0  0  0  0  2  0  0  0  0  0  0
  188.2730  176.6600  144.2500 C   0  0  0  0  0  0  0  0  0  0  0  0
  187.4010  176.0470  143.5150 N   0  0  0  0  0  2  0  0  0  0  0  0
  189.6580  176.5580  143.9150 N   0  0  0  0  0  2  0  0  0  0  0  0
  186.6240  178.2480  145.0890 C   0  0  0  0  0  0  0  0  0  0  0  0
  186.0170  177.5390  146.1370 C   0  0  1  0  0  0  0  0  0  0  0  0
  185.9630  179.1910  144.3250 C   0  0  0  0  0  3  0  0  0  0  0  0
  187.8280  177.5350  145.3970 C   0  0  1  0  0  0  0  0  0  0  0  0
  184.6970  177.7060  146.5130 C   0  0  0  0  0  3  0  0  0  0  0  0
  184.6050  179.3920  144.6810 C   0  0  0  0  0  2  0  0  0  0  0  0
  187.2280  176.7720  146.4330 N   0  0  0  0  0  2  0  0  0  0  0  0
  183.9870  178.6660  145.7480 C   0  0  0  0  0  3  0  0  0  0  0  0
  194.9660  175.8470  145.5660 C   0  0  0  0  0  2  0  0  0  0  0  0
  195.5740  174.5890  145.1690 N   0  0  0  0  0  2  0  0  0  0  0  0
  196.7740  174.9170  144.4210 C   0  0  0  0  0  2  0  0  0  0  0  0
  196.4190  175.8280  143.2630 C   0  0  1  0  0  3  0  0  0  0  0  0
  197.3960  176.8150  143.1390 O   0  0  0  0  0  1  0  0  0  0  0  0
  196.3390  175.0150  141.9780 C   0  0  0  0  0  2  0  0  0  0  0  0
  195.0180  175.2540  141.2590 C   0  0  1  0  0  3  0  0  0  0  0  0
  194.7960  176.6260  141.1210 O   0  0  0  0  0  1  0  0  0  0  0  0
  194.1960  175.2900  139.0160 O   0  0  0  0  0  1  0  0  0  0  0  0
  195.0600  174.6170  139.8810 C   0  0  0  0  0  2  0  0  0  0  0  0
  2 22  1  6  0  0  0
  3  2  1  0  0  0  0
  3  1  1  1  0  0  0
  4  8  1  6  0  0  0
  4  6  1  0  0  0  0
  4  3  1  0  0  0  0
  5  2  1  0  0  0  0
  6  5  1  6  0  0  0
  6  3  1  0  0  0  0
  6  9  1  0  0  0  0
  9  1  1  0  0  0  0
  9  7  2  0  0  0  0
 10  4  1  0  0  0  0
 12 11  2  0  0  0  0
 13 11  1  0  0  0  0
 13 10  1  0  0  0  0
 14 17  1  0  0  0  0
 14 15  1  0  0  0  0
 15 20  1  0  0  0  0
 15 18  1  1  0  0  0
 16 19  1  0  0  0  0
 16 14  2  0  0  0  0
 17 11  1  6  0  0  0
 17 15  1  0  0  0  0
 17 20  1  0  0  0  0
 19 21  1  0  0  0  0
 21 18  2  0  0  0  0
 23 22  1  0  0  0  0
 24 23  1  0  0  0  0
 25 26  1  6  0  0  0
 25 24  1  0  0  0  0
 27 25  1  0  0  0  0
 28 29  1  6  0  0  0
 28 27  1  0  0  0  0
 30 31  1  0  0  0  0
 31 28  1  0  0  0  0
M  END
>  <MODEL>
8

>  <REMARK>
 VINA RESULT:      -6.5      3.095      8.363
  Name = 
  10 active torsions:
  status: ('A' for Active; 'I' for Inactive)
    1  A    between atoms: C_2  and  C_14
    2  A    between atoms: C_3  and  C_18
    3  A    between atoms: C_3  and  C_30
    4  A    between atoms: C_4  and  C_27
    5  A    between atoms: C_9  and  C_10
    6  A    between atoms: C_10  and  N_25
    7  A    between atoms: C_13  and  C_18
    8  A    between atoms: C_13  and  C_26
    9  A    between atoms: N_19  and  C_27
   10  A    between atoms: N_19  and  C_30
                            x       y       z     vdW  Elec       q    Type
                         _______ _______ _______ _____ _____    ______ ____

>  <TORSDO>
F 10

$$$$
=
 OpenBabel11042414043D

 31 36  0  0  1  0  0  0  0  0999 V2000
  188.3370  172.6770  142.0790 O   0  0  0  0  0  0  0  0  0  0  0  0
  190.7040  173.2170  142.6280 C   0  0  1  0  0  3  0  0  0  0  0  0
  189.2450  173.6830  142.5220 C   0  0  2  0  0  0  0  0  0  0  0  0
  188.9270  175.1110  142.1310 C   0  0  2  0  0  0  0  0  0  0  0  0
  190.9520  173.7390  141.2430 C   0  0  0  0  0  2  0  0  0  0  0  0
  189.4810  174.1380  141.1250 C   0  0  1  0  0  0  0  0  0  0  0  0
  188.1400  172.6160  139.5880 O   0  0  0  0  0  0  0  0  0  0  0  0
  189.8250  176.0830  142.5800 O   0  0  0  0  0  1  0  0  0  0  0  0
  188.5560  173.0440  140.6970 C   0  0  0  0  0  0  0  0  0  0  0  0
  187.4570  175.4970  142.0410 C   0  0  0  0  0  2  0  0  0  0  0  0
  186.4160  177.7360  142.5630 C   0  0  0  0  0  0  0  0  0  0  0  0
  186.4040  179.0160  142.3680 N   0  0  0  0  0  2  0  0  0  0  0  0
  187.3330  176.9300  141.8210 N   0  0  0  0  0  2  0  0  0  0  0  0
  186.1230  177.1790  144.9180 C   0  0  0  0  0  0  0  0  0  0  0  0
  185.0400  177.9870  145.2950 C   0  0  1  0  0  0  0  0  0  0  0  0
  187.1360  176.8110  145.7830 C   0  0  0  0  0  3  0  0  0  0  0  0
  185.5310  177.1130  143.6140 C   0  0  1  0  0  0  0  0  0  0  0  0
  184.8740  178.5030  146.5670 C   0  0  0  0  0  3  0  0  0  0  0  0
  187.0010  177.3210  147.1000 C   0  0  0  0  0  2  0  0  0  0  0  0
  184.4470  177.9650  143.9560 N   0  0  0  0  0  2  0  0  0  0  0  0
  185.8960  178.1480  147.4810 C   0  0  0  0  0  3  0  0  0  0  0  0
  191.4980  174.0020  143.6660 C   0  0  0  0  0  2  0  0  0  0  0  0
  191.0270  173.6600  144.9970 N   0  0  0  0  0  2  0  0  0  0  0  0
  190.9090  174.9040  145.7370 C   0  0  0  0  0  2  0  0  0  0  0  0
  192.0570  175.8240  145.3700 C   0  0  1  0  0  3  0  0  0  0  0  0
  191.5510  177.0860  145.0590 O   0  0  0  0  0  1  0  0  0  0  0  0
  193.0230  175.9280  146.5430 C   0  0  0  0  0  2  0  0  0  0  0  0
  194.4370  175.5530  146.1240 C   0  0  1  0  0  3  0  0  0  0  0  0
  194.4250  174.3200  145.4680 O   0  0  0  0  0  1  0  0  0  0  0  0
  194.8570  177.8760  145.7540 O   0  0  0  0  0  1  0  0  0  0  0  0
  194.9930  176.6090  145.1840 C   0  0  0  0  0  2  0  0  0  0  0  0
  2 22  1  1  0  0  0
  3  1  1  1  0  0  0
  3  2  1  0  0  0  0
  4  3  1  0  0  0  0
  4  8  1  1  0  0  0
  5  2  1  0  0  0  0
  6  5  1  6  0  0  0
  6  4  1  0  0  0  0
  6  3  1  0  0  0  0
  7  9  2  0  0  0  0
  9  6  1  0  0  0  0
  9  1  1  0  0  0  0
 10  4  1  0  0  0  0
 12 11  2  0  0  0  0
 13 10  1  0  0  0  0
 13 11  1  0  0  0  0
 14 15  1  0  0  0  0
 14 16  2  0  0  0  0
 15 18  1  1  0  0  0
 16 19  1  0  0  0  0
 17 11  1  6  0  0  0
 17 20  1  0  0  0  0
 17 14  1  0  0  0  0
 17 15  1  0  0  0  0
 18 21  2  0  0  0  0
 19 21  1  0  0  0  0
 20 15  1  0  0  0  0
 22 23  1  0  0  0  0
 23 24  1  0  0  0  0
 25 26  1  1  0  0  0
 25 24  1  0  0  0  0
 25 27  1  0  0  0  0
 28 29  1  6  0  0  0
 28 27  1  0  0  0  0
 31 30  1  0  0  0  0
 31 28  1  0  0  0  0
M  END
>  <MODEL>
9

>  <REMARK>
 VINA RESULT:      -6.5      2.742      8.053
  Name = 
  10 active torsions:
  status: ('A' for Active; 'I' for Inactive)
    1  A    between atoms: C_2  and  C_14
    2  A    between atoms: C_3  and  C_18
    3  A    between atoms: C_3  and  C_30
    4  A    between atoms: C_4  and  C_27
    5  A    between atoms: C_9  and  C_10
    6  A    between atoms: C_10  and  N_25
    7  A    between atoms: C_13  and  C_18
    8  A    between atoms: C_13  and  C_26
    9  A    between atoms: N_19  and  C_27
   10  A    between atoms: N_19  and  C_30
                            x       y       z     vdW  Elec       q    Type
                         _______ _______ _______ _____ _____    ______ ____

>  <TORSDO>
F 10

$$$$
