=
 OpenBabel11042416453D

 48 50  0  0  1  0  0  0  0  0999 V2000
  193.2160  175.3600  146.1070 C   0  0  0  0  0  3  0  0  0  0  0  0
  193.0270  173.1400  145.1670 C   0  0  0  0  0  3  0  0  0  0  0  0
  195.2280  174.0990  145.5800 C   0  0  0  0  0  0  0  0  0  0  0  0
  194.6090  175.2550  146.0760 C   0  0  0  0  0  3  0  0  0  0  0  0
  194.4220  173.0380  145.1380 C   0  0  0  0  0  3  0  0  0  0  0  0
  192.4160  174.3140  145.6330 C   0  0  0  0  0  0  0  0  0  0  0  0
  190.9160  174.4180  145.7650 C   0  0  2  0  0  3  0  0  0  0  0  0
  190.1660  173.4550  144.8280 C   0  0  0  0  0  0  0  0  0  0  0  0
  190.2030  174.9720  144.6330 C   0  0  2  0  0  3  0  0  0  0  0  0
  189.8250  172.3350  144.4860 O   0  0  0  0  0  0  0  0  0  0  0  0
  190.9980  175.2720  143.3640 C   0  0  0  0  0  2  0  0  0  0  0  0
  190.5310  176.5850  142.7640 C   0  0  0  0  0  2  0  0  0  0  0  0
  189.1490  176.7900  143.0270 O   0  0  0  0  0  0  0  0  0  0  0  0
  187.7430  175.3310  141.9090 O   0  0  0  0  0  0  0  0  0  0  0  0
  188.1500  176.5110  142.0900 C   0  0  0  0  0  0  0  0  0  0  0  0
  187.5980  177.6190  141.2660 C   0  0  0  0  0  2  0  0  0  0  0  0
  186.8990  178.6190  142.1660 C   0  0  0  0  0  2  0  0  0  0  0  0
  185.4710  178.6530  141.8800 N   0  0  0  0  0  2  0  0  0  0  0  0
  183.2620  178.1570  142.3790 O   0  0  0  0  0  0  0  0  0  0  0  0
  184.4410  178.2810  142.8070 C   0  0  0  0  0  0  0  0  0  0  0  0
  185.5960  178.6640  147.1200 C   0  0  0  0  0  3  0  0  0  0  0  0
  184.7220  178.0180  144.2340 C   0  0  0  0  0  0  0  0  0  0  0  0
  185.6280  176.9050  144.5990 C   0  0  0  0  0  3  0  0  0  0  0  0
  184.1970  178.5640  146.6150 C   0  0  0  0  0  2  0  0  0  0  0  0
  186.4290  176.8370  145.6720 C   0  0  0  0  0  3  0  0  0  0  0  0
  186.5900  177.8640  146.7300 C   0  0  0  0  0  0  0  0  0  0  0  0
  184.1190  178.7920  145.1420 C   0  0  0  0  0  3  0  0  0  0  0  0
  187.8170  178.0050  147.3830 O   0  0  0  0  0  0  0  0  0  0  0  0
  189.0120  177.3950  146.9160 C   0  0  0  0  0  1  0  0  0  0  0  0
  197.5570  174.6470  144.6400 N   0  0  0  0  0  2  0  0  0  0  0  0
  197.2430  173.1600  146.3840 O   0  0  0  0  0  0  0  0  0  0  0  0
  196.7040  173.9490  145.5600 C   0  0  0  0  0  0  0  0  0  0  0  0
  197.1110  175.4780  143.5390 C   0  0  0  0  0  2  0  0  0  0  0  0
  197.5250  174.8330  142.2310 C   0  0  0  0  0  2  0  0  0  0  0  0
  196.3250  174.2830  141.4770 C   0  0  1  0  0  3  0  0  0  0  0  0
  196.0450  173.0020  141.9500 O   0  0  0  0  0  1  0  0  0  0  0  0
  195.1140  175.1870  141.6810 C   0  0  0  0  0  2  0  0  0  0  0  0
  193.8000  174.4230  141.6100 C   0  0  0  0  0  2  0  0  0  0  0  0
  192.2080  173.5990  139.8500 C   0  0  0  0  0  0  0  0  0  0  0  0
  193.2330  174.4960  140.2730 N   0  0  0  0  0  2  0  0  0  0  0  0
  191.8740  173.5710  138.6380 O   0  0  0  0  0  0  0  0  0  0  0  0
  191.5610  172.7440  140.8020 N   0  0  0  0  0  2  0  0  0  0  0  0
  190.5200  171.7710  140.4820 C   0  0  1  0  0  3  0  0  0  0  0  0
  190.5080  170.6220  141.4820 C   0  0  0  0  0  2  0  0  0  0  0  0
  190.7660  169.4200  140.8240 O   0  0  0  0  0  1  0  0  0  0  0  0
  189.1550  172.4450  140.4080 C   0  0  0  0  0  2  0  0  0  0  0  0
  188.6680  172.3860  139.1000 O   0  0  0  0  0  0  0  0  0  0  0  0
  188.3340  173.7020  138.7840 C   0  0  0  0  0  1  0  0  0  0  0  0
  2  6  1  0  0  0  0
  3  4  2  0  0  0  0
  4  1  1  0  0  0  0
  5  2  2  0  0  0  0
  5  3  1  0  0  0  0
  6  1  2  0  0  0  0
  7  6  1  6  0  0  0
  8  7  1  0  0  0  0
  9 11  1  6  0  0  0
  9  8  1  0  0  0  0
  9  7  1  0  0  0  0
 10  8  2  0  0  0  0
 12 13  1  0  0  0  0
 12 11  1  0  0  0  0
 14 15  2  0  0  0  0
 15 13  1  0  0  0  0
 16 15  1  0  0  0  0
 16 17  1  0  0  0  0
 18 17  1  0  0  0  0
 18 20  1  0  0  0  0
 19 20  2  0  0  0  0
 20 22  1  0  0  0  0
 22 23  1  0  0  0  0
 22 27  2  0  0  0  0
 23 25  2  0  0  0  0
 24 21  1  0  0  0  0
 25 26  1  0  0  0  0
 26 21  2  0  0  0  0
 26 28  1  0  0  0  0
 27 24  1  0  0  0  0
 29 28  1  0  0  0  0
 30 32  1  0  0  0  0
 32  3  1  0  0  0  0
 32 31  2  0  0  0  0
 33 30  1  0  0  0  0
 34 33  1  0  0  0  0
 35 37  1  0  0  0  0
 35 36  1  1  0  0  0
 35 34  1  0  0  0  0
 38 37  1  0  0  0  0
 39 40  1  0  0  0  0
 39 42  1  0  0  0  0
 40 38  1  0  0  0  0
 41 39  2  0  0  0  0
 43 46  1  1  0  0  0
 43 42  1  0  0  0  0
 43 44  1  0  0  0  0
 45 44  1  0  0  0  0
 47 46  1  0  0  0  0
 48 47  1  0  0  0  0
M  END
>  <MODEL>
1

>  <REMARK>
 VINA RESULT:      -6.5      0.000      0.000
  Name = 
  21 active torsions:
  status: ('A' for Active; 'I' for Inactive)
    1  A    between atoms: C_3  and  O_22
    2  A    between atoms: C_3  and  C_37
    3  A    between atoms: C_4  and  C_19
    4  A    between atoms: C_4  and  C_31
    5  A    between atoms: C_5  and  C_48
    6  A    between atoms: C_7  and  C_37
    7  A    between atoms: O_8  and  C_31
    8  A    between atoms: O_8  and  C_39
    9  A    between atoms: C_11  and  C_21
   10  A    between atoms: C_11  and  C_34
   11  A    between atoms: N_12  and  C_18
   12  A    between atoms: N_14  and  C_45
   13  A    between atoms: N_15  and  C_29
   14  A    between atoms: O_16  and  C_46
   15  A    between atoms: C_17  and  C_43
   16  A    between atoms: C_18  and  C_21
   17  A    between atoms: C_24  and  C_29
   18  A    between atoms: C_24  and  C_39
   19  A    between atoms: C_25  and  C_41
   20  A    between atoms: C_34  and  C_45
   21  A    between atoms: C_37  and  N_44
                            x       y       z     vdW  Elec       q    Type
                         _______ _______ _______ _____ _____    ______ ____

>  <TORSDO>
F 21

$$$$
=
 OpenBabel11042416453D

 48 50  0  0  1  0  0  0  0  0999 V2000
  192.7370  175.7740  143.5090 C   0  0  0  0  0  3  0  0  0  0  0  0
  193.2100  176.6420  145.7150 C   0  0  0  0  0  3  0  0  0  0  0  0
  195.0120  175.7150  144.3650 C   0  0  0  0  0  0  0  0  0  0  0  0
  194.0870  175.4560  143.3440 C   0  0  0  0  0  3  0  0  0  0  0  0
  194.5610  176.3230  145.5480 C   0  0  0  0  0  3  0  0  0  0  0  0
  192.2840  176.3480  144.7030 C   0  0  0  0  0  0  0  0  0  0  0  0
  190.8380  176.7660  144.8150 C   0  0  2  0  0  3  0  0  0  0  0  0
  190.3370  176.7930  146.2700 C   0  0  0  0  0  0  0  0  0  0  0  0
  189.9020  175.7480  145.2420 C   0  0  2  0  0  3  0  0  0  0  0  0
  190.3200  177.2680  147.3930 O   0  0  0  0  0  0  0  0  0  0  0  0
  190.4630  174.3940  145.6690 C   0  0  0  0  0  2  0  0  0  0  0  0
  189.8780  173.2970  144.7980 C   0  0  0  0  0  2  0  0  0  0  0  0
  190.1680  173.5390  143.4270 O   0  0  0  0  0  0  0  0  0  0  0  0
  189.7110  171.5370  142.3610 O   0  0  0  0  0  0  0  0  0  0  0  0
  189.6030  172.7940  142.3900 C   0  0  0  0  0  0  0  0  0  0  0  0
  188.9050  173.5020  141.2830 C   0  0  0  0  0  2  0  0  0  0  0  0
  188.0310  174.5990  141.8590 C   0  0  0  0  0  2  0  0  0  0  0  0
  188.7250  175.8790  141.8190 N   0  0  0  0  0  2  0  0  0  0  0  0
  188.7700  178.1960  141.8810 O   0  0  0  0  0  0  0  0  0  0  0  0
  188.1330  177.1420  142.1510 C   0  0  0  0  0  0  0  0  0  0  0  0
  184.2530  178.6470  143.8140 C   0  0  0  0  0  3  0  0  0  0  0  0
  186.7970  177.2470  142.7730 C   0  0  0  0  0  0  0  0  0  0  0  0
  186.5730  176.6520  144.1110 C   0  0  0  0  0  3  0  0  0  0  0  0
  184.4060  177.9270  142.5170 C   0  0  0  0  0  2  0  0  0  0  0  0
  185.7170  177.0780  145.0490 C   0  0  0  0  0  3  0  0  0  0  0  0
  184.8050  178.2450  144.9600 C   0  0  0  0  0  0  0  0  0  0  0  0
  185.8320  177.8620  142.0820 C   0  0  0  0  0  3  0  0  0  0  0  0
  184.4710  178.9580  146.1140 O   0  0  0  0  0  0  0  0  0  0  0  0
  185.0720  178.7040  147.3760 C   0  0  0  0  0  1  0  0  0  0  0  0
  197.1240  174.3530  144.9100 N   0  0  0  0  0  2  0  0  0  0  0  0
  197.1420  176.1280  143.4260 O   0  0  0  0  0  0  0  0  0  0  0  0
  196.4560  175.4130  144.2070 C   0  0  0  0  0  0  0  0  0  0  0  0
  196.5370  173.5260  145.9460 C   0  0  0  0  0  2  0  0  0  0  0  0
  196.8060  172.0670  145.6290 C   0  0  0  0  0  2  0  0  0  0  0  0
  195.5130  171.3010  145.3970 C   0  0  1  0  0  3  0  0  0  0  0  0
  195.4840  170.1990  146.2510 O   0  0  0  0  0  1  0  0  0  0  0  0
  194.3110  172.1990  145.6680 C   0  0  0  0  0  2  0  0  0  0  0  0
  193.2890  172.1570  144.5430 C   0  0  0  0  0  2  0  0  0  0  0  0
  193.4460  170.9610  142.3390 C   0  0  0  0  0  0  0  0  0  0  0  0
  193.4280  170.9360  143.7650 N   0  0  0  0  0  2  0  0  0  0  0  0
  193.3830  169.8780  141.7020 O   0  0  0  0  0  0  0  0  0  0  0  0
  193.5440  172.2100  141.6420 N   0  0  0  0  0  2  0  0  0  0  0  0
  193.5450  172.3600  140.1880 C   0  0  1  0  0  3  0  0  0  0  0  0
  192.1270  172.4440  139.6380 C   0  0  0  0  0  2  0  0  0  0  0  0
  191.8210  173.7670  139.3220 O   0  0  0  0  0  1  0  0  0  0  0  0
  194.3660  173.5750  139.7720 C   0  0  0  0  0  2  0  0  0  0  0  0
  195.4830  173.1630  139.0420 O   0  0  0  0  0  0  0  0  0  0  0  0
  196.5770  173.6200  139.7760 C   0  0  0  0  0  1  0  0  0  0  0  0
  1  6  1  0  0  0  0
  3  5  2  0  0  0  0
  4  1  2  0  0  0  0
  4  3  1  0  0  0  0
  5  2  1  0  0  0  0
  6  2  2  0  0  0  0
  7  6  1  1  0  0  0
  7  9  1  0  0  0  0
  7  8  1  0  0  0  0
  8 10  2  0  0  0  0
  9 11  1  1  0  0  0
  9  8  1  0  0  0  0
 12 11  1  0  0  0  0
 13 12  1  0  0  0  0
 14 15  2  0  0  0  0
 15 13  1  0  0  0  0
 16 17  1  0  0  0  0
 16 15  1  0  0  0  0
 18 17  1  0  0  0  0
 18 20  1  0  0  0  0
 19 20  2  0  0  0  0
 20 22  1  0  0  0  0
 21 26  2  0  0  0  0
 22 23  1  0  0  0  0
 23 25  2  0  0  0  0
 24 21  1  0  0  0  0
 26 25  1  0  0  0  0
 26 28  1  0  0  0  0
 27 24  1  0  0  0  0
 27 22  2  0  0  0  0
 28 29  1  0  0  0  0
 30 33  1  0  0  0  0
 31 32  2  0  0  0  0
 32  3  1  0  0  0  0
 32 30  1  0  0  0  0
 34 33  1  0  0  0  0
 35 34  1  0  0  0  0
 35 37  1  0  0  0  0
 35 36  1  1  0  0  0
 38 37  1  0  0  0  0
 39 40  1  0  0  0  0
 40 38  1  0  0  0  0
 41 39  2  0  0  0  0
 42 39  1  0  0  0  0
 43 44  1  1  0  0  0
 43 42  1  0  0  0  0
 45 44  1  0  0  0  0
 46 43  1  0  0  0  0
 47 46  1  0  0  0  0
 47 48  1  0  0  0  0
M  END
>  <MODEL>
2

>  <REMARK>
 VINA RESULT:      -6.3      1.987      3.975
  Name = 
  21 active torsions:
  status: ('A' for Active; 'I' for Inactive)
    1  A    between atoms: C_3  and  O_22
    2  A    between atoms: C_3  and  C_37
    3  A    between atoms: C_4  and  C_19
    4  A    between atoms: C_4  and  C_31
    5  A    between atoms: C_5  and  C_48
    6  A    between atoms: C_7  and  C_37
    7  A    between atoms: O_8  and  C_31
    8  A    between atoms: O_8  and  C_39
    9  A    between atoms: C_11  and  C_21
   10  A    between atoms: C_11  and  C_34
   11  A    between atoms: N_12  and  C_18
   12  A    between atoms: N_14  and  C_45
   13  A    between atoms: N_15  and  C_29
   14  A    between atoms: O_16  and  C_46
   15  A    between atoms: C_17  and  C_43
   16  A    between atoms: C_18  and  C_21
   17  A    between atoms: C_24  and  C_29
   18  A    between atoms: C_24  and  C_39
   19  A    between atoms: C_25  and  C_41
   20  A    between atoms: C_34  and  C_45
   21  A    between atoms: C_37  and  N_44
                            x       y       z     vdW  Elec       q    Type
                         _______ _______ _______ _____ _____    ______ ____

>  <TORSDO>
F 21

$$$$
=
 OpenBabel11042416453D

 48 50  0  0  1  0  0  0  0  0999 V2000
  186.3370  178.6780  144.3720 C   0  0  0  0  0  3  0  0  0  0  0  0
  184.1700  178.1870  143.4200 C   0  0  0  0  0  3  0  0  0  0  0  0
  186.1860  177.8040  142.1080 C   0  0  0  0  0  0  0  0  0  0  0  0
  186.9530  178.2550  143.1920 C   0  0  0  0  0  3  0  0  0  0  0  0
  184.7890  177.7630  142.2390 C   0  0  0  0  0  3  0  0  0  0  0  0
  184.9420  178.6690  144.4870 C   0  0  0  0  0  0  0  0  0  0  0  0
  184.3110  179.0450  145.8060 C   0  0  2  0  0  3  0  0  0  0  0  0
  185.3370  179.1610  146.9470 C   0  0  0  0  0  0  0  0  0  0  0  0
  184.3140  178.0290  146.8370 C   0  0  2  0  0  3  0  0  0  0  0  0
  186.2710  179.7160  147.5010 O   0  0  0  0  0  0  0  0  0  0  0  0
  185.0660  176.7300  146.5600 C   0  0  0  0  0  2  0  0  0  0  0  0
  186.3900  176.7330  147.3010 C   0  0  0  0  0  2  0  0  0  0  0  0
  187.3230  175.8740  146.6590 O   0  0  0  0  0  0  0  0  0  0  0  0
  189.5060  175.3830  147.2530 O   0  0  0  0  0  0  0  0  0  0  0  0
  188.6970  176.1300  146.6360 C   0  0  0  0  0  0  0  0  0  0  0  0
  189.2010  177.3270  145.9120 C   0  0  0  0  0  2  0  0  0  0  0  0
  190.6990  177.2030  145.7130 C   0  0  0  0  0  2  0  0  0  0  0  0
  191.0120  176.9980  144.3050 N   0  0  0  0  0  2  0  0  0  0  0  0
  192.4290  176.3570  142.5860 O   0  0  0  0  0  0  0  0  0  0  0  0
  192.1590  176.2910  143.8160 C   0  0  0  0  0  0  0  0  0  0  0  0
  195.6820  174.2580  145.6980 C   0  0  0  0  0  3  0  0  0  0  0  0
  193.0440  175.5120  144.7070 C   0  0  0  0  0  0  0  0  0  0  0  0
  192.6810  174.1180  145.0480 C   0  0  0  0  0  3  0  0  0  0  0  0
  195.0460  175.5080  146.2020 C   0  0  0  0  0  2  0  0  0  0  0  0
  193.5200  173.1100  145.3240 C   0  0  0  0  0  3  0  0  0  0  0  0
  195.0030  173.1650  145.3430 C   0  0  0  0  0  0  0  0  0  0  0  0
  194.1350  176.1170  145.1890 C   0  0  0  0  0  3  0  0  0  0  0  0
  195.7470  172.0330  145.0050 O   0  0  0  0  0  0  0  0  0  0  0  0
  196.9740  171.7010  145.6390 C   0  0  0  0  0  1  0  0  0  0  0  0
  187.8220  176.3010  140.8150 N   0  0  0  0  0  2  0  0  0  0  0  0
  186.4570  177.8410  139.7600 O   0  0  0  0  0  0  0  0  0  0  0  0
  186.8140  177.3220  140.8530 C   0  0  0  0  0  0  0  0  0  0  0  0
  188.4550  175.6960  141.9710 C   0  0  0  0  0  2  0  0  0  0  0  0
  187.9150  174.2900  142.1530 C   0  0  0  0  0  2  0  0  0  0  0  0
  188.9080  173.2460  141.6660 C   0  0  1  0  0  3  0  0  0  0  0  0
  188.5930  172.9040  140.3520 O   0  0  0  0  0  1  0  0  0  0  0  0
  190.3280  173.7940  141.7340 C   0  0  0  0  0  2  0  0  0  0  0  0
  191.2740  173.0780  140.7830 C   0  0  0  0  0  2  0  0  0  0  0  0
  193.6410  172.6360  141.5020 C   0  0  0  0  0  0  0  0  0  0  0  0
  192.2550  172.2980  141.5220 N   0  0  0  0  0  2  0  0  0  0  0  0
  194.4770  171.8380  141.9980 O   0  0  0  0  0  0  0  0  0  0  0  0
  194.0710  173.8780  140.9300 N   0  0  0  0  0  2  0  0  0  0  0  0
  195.4610  174.3170  140.8320 C   0  0  1  0  0  3  0  0  0  0  0  0
  195.7550  174.9270  139.4680 C   0  0  0  0  0  2  0  0  0  0  0  0
  194.8500  174.4380  138.5260 O   0  0  0  0  0  1  0  0  0  0  0  0
  195.7980  175.2940  141.9520 C   0  0  0  0  0  2  0  0  0  0  0  0
  197.1340  175.1400  142.3280 O   0  0  0  0  0  0  0  0  0  0  0  0
  197.3390  173.7610  142.3630 C   0  0  0  0  0  1  0  0  0  0  0  0
  1  6  1  0  0  0  0
  2  6  2  0  0  0  0
  3  5  2  0  0  0  0
  3  4  1  0  0  0  0
  4  1  2  0  0  0  0
  5  2  1  0  0  0  0
  7  6  1  6  0  0  0
  7  9  1  0  0  0  0
  7  8  1  0  0  0  0
  8 10  2  0  0  0  0
  9 11  1  6  0  0  0
  9  8  1  0  0  0  0
 11 12  1  0  0  0  0
 13 12  1  0  0  0  0
 15 13  1  0  0  0  0
 15 14  2  0  0  0  0
 16 15  1  0  0  0  0
 17 16  1  0  0  0  0
 18 17  1  0  0  0  0
 19 20  2  0  0  0  0
 20 18  1  0  0  0  0
 20 22  1  0  0  0  0
 21 24  1  0  0  0  0
 22 23  1  0  0  0  0
 22 27  2  0  0  0  0
 23 25  2  0  0  0  0
 25 26  1  0  0  0  0
 26 21  2  0  0  0  0
 27 24  1  0  0  0  0
 28 26  1  0  0  0  0
 28 29  1  0  0  0  0
 30 32  1  0  0  0  0
 30 33  1  0  0  0  0
 31 32  2  0  0  0  0
 32  3  1  0  0  0  0
 33 34  1  0  0  0  0
 35 36  1  6  0  0  0
 35 37  1  0  0  0  0
 35 34  1  0  0  0  0
 38 40  1  0  0  0  0
 38 37  1  0  0  0  0
 39 40  1  0  0  0  0
 39 41  2  0  0  0  0
 42 39  1  0  0  0  0
 43 44  1  6  0  0  0
 43 42  1  0  0  0  0
 43 46  1  0  0  0  0
 45 44  1  0  0  0  0
 46 47  1  0  0  0  0
 47 48  1  0  0  0  0
M  END
>  <MODEL>
3

>  <REMARK>
 VINA RESULT:      -6.2      2.111      8.172
  Name = 
  21 active torsions:
  status: ('A' for Active; 'I' for Inactive)
    1  A    between atoms: C_3  and  O_22
    2  A    between atoms: C_3  and  C_37
    3  A    between atoms: C_4  and  C_19
    4  A    between atoms: C_4  and  C_31
    5  A    between atoms: C_5  and  C_48
    6  A    between atoms: C_7  and  C_37
    7  A    between atoms: O_8  and  C_31
    8  A    between atoms: O_8  and  C_39
    9  A    between atoms: C_11  and  C_21
   10  A    between atoms: C_11  and  C_34
   11  A    between atoms: N_12  and  C_18
   12  A    between atoms: N_14  and  C_45
   13  A    between atoms: N_15  and  C_29
   14  A    between atoms: O_16  and  C_46
   15  A    between atoms: C_17  and  C_43
   16  A    between atoms: C_18  and  C_21
   17  A    between atoms: C_24  and  C_29
   18  A    between atoms: C_24  and  C_39
   19  A    between atoms: C_25  and  C_41
   20  A    between atoms: C_34  and  C_45
   21  A    between atoms: C_37  and  N_44
                            x       y       z     vdW  Elec       q    Type
                         _______ _______ _______ _____ _____    ______ ____

>  <TORSDO>
F 21

$$$$
=
 OpenBabel11042416453D

 48 50  0  0  1  0  0  0  0  0999 V2000
  186.4140  178.7490  144.2470 C   0  0  0  0  0  3  0  0  0  0  0  0
  184.2800  178.0900  143.3230 C   0  0  0  0  0  3  0  0  0  0  0  0
  186.3180  177.7380  142.0370 C   0  0  0  0  0  0  0  0  0  0  0  0
  187.0560  178.2910  143.0940 C   0  0  0  0  0  3  0  0  0  0  0  0
  184.9240  177.6310  142.1700 C   0  0  0  0  0  3  0  0  0  0  0  0
  185.0210  178.6730  144.3620 C   0  0  0  0  0  0  0  0  0  0  0  0
  184.3670  179.0900  145.6560 C   0  0  2  0  0  3  0  0  0  0  0  0
  185.3570  179.1540  146.8320 C   0  0  0  0  0  0  0  0  0  0  0  0
  184.2760  178.0810  146.6900 C   0  0  2  0  0  3  0  0  0  0  0  0
  186.3000  179.6590  147.4170 O   0  0  0  0  0  0  0  0  0  0  0  0
  184.9630  176.7400  146.4430 C   0  0  0  0  0  2  0  0  0  0  0  0
  186.2650  176.6780  147.2200 C   0  0  0  0  0  2  0  0  0  0  0  0
  187.3200  176.2090  146.3890 O   0  0  0  0  0  0  0  0  0  0  0  0
  188.9810  174.9360  147.3770 O   0  0  0  0  0  0  0  0  0  0  0  0
  188.6250  176.0270  146.8530 C   0  0  0  0  0  0  0  0  0  0  0  0
  189.5900  177.1560  146.7670 C   0  0  0  0  0  2  0  0  0  0  0  0
  190.9450  176.6300  146.3350 C   0  0  0  0  0  2  0  0  0  0  0  0
  190.9630  176.3830  144.8990 N   0  0  0  0  0  2  0  0  0  0  0  0
  192.0110  175.7240  142.9400 O   0  0  0  0  0  0  0  0  0  0  0  0
  192.0090  175.6950  144.2000 C   0  0  0  0  0  0  0  0  0  0  0  0
  195.9340  173.8770  145.3710 C   0  0  0  0  0  3  0  0  0  0  0  0
  193.0910  174.9780  144.9070 C   0  0  0  0  0  0  0  0  0  0  0  0
  192.8750  173.5740  145.3240 C   0  0  0  0  0  3  0  0  0  0  0  0
  195.3440  175.1030  145.9800 C   0  0  0  0  0  2  0  0  0  0  0  0
  193.8050  172.6150  145.4380 C   0  0  0  0  0  3  0  0  0  0  0  0
  195.2570  172.7460  145.1660 C   0  0  0  0  0  0  0  0  0  0  0  0
  194.2210  175.6460  145.1610 C   0  0  0  0  0  3  0  0  0  0  0  0
  195.9800  171.6460  144.6970 O   0  0  0  0  0  0  0  0  0  0  0  0
  196.1700  170.4660  145.4670 C   0  0  0  0  0  1  0  0  0  0  0  0
  187.8980  176.1190  140.8170 N   0  0  0  0  0  2  0  0  0  0  0  0
  186.7230  177.7740  139.7080 O   0  0  0  0  0  0  0  0  0  0  0  0
  186.9740  177.2190  140.8130 C   0  0  0  0  0  0  0  0  0  0  0  0
  188.4150  175.4550  141.9980 C   0  0  0  0  0  2  0  0  0  0  0  0
  187.5750  174.2240  142.2820 C   0  0  0  0  0  2  0  0  0  0  0  0
  188.3850  172.9480  142.1180 C   0  0  1  0  0  3  0  0  0  0  0  0
  188.8290  172.8640  140.7990 O   0  0  0  0  0  1  0  0  0  0  0  0
  189.5780  172.9530  143.0680 C   0  0  0  0  0  2  0  0  0  0  0  0
  190.8140  172.3150  142.4520 C   0  0  0  0  0  2  0  0  0  0  0  0
  190.8820  169.9900  141.5040 C   0  0  0  0  0  0  0  0  0  0  0  0
  190.7870  170.8710  142.6210 N   0  0  0  0  0  2  0  0  0  0  0  0
  190.6710  168.7610  141.6680 O   0  0  0  0  0  0  0  0  0  0  0  0
  191.2230  170.5030  140.2090 N   0  0  0  0  0  2  0  0  0  0  0  0
  191.3230  169.7020  138.9910 C   0  0  1  0  0  3  0  0  0  0  0  0
  189.9800  169.6070  138.2780 C   0  0  0  0  0  2  0  0  0  0  0  0
  189.5470  170.8810  137.9140 O   0  0  0  0  0  1  0  0  0  0  0  0
  192.3960  170.2620  138.0650 C   0  0  0  0  0  2  0  0  0  0  0  0
  193.1460  171.2280  138.7400 O   0  0  0  0  0  0  0  0  0  0  0  0
  193.3300  172.2510  137.8110 C   0  0  0  0  0  1  0  0  0  0  0  0
  1  6  1  0  0  0  0
  2  6  2  0  0  0  0
  3  5  2  0  0  0  0
  3  4  1  0  0  0  0
  4  1  2  0  0  0  0
  5  2  1  0  0  0  0
  7  6  1  6  0  0  0
  7  9  1  0  0  0  0
  7  8  1  0  0  0  0
  8 10  2  0  0  0  0
  9 11  1  6  0  0  0
  9  8  1  0  0  0  0
 11 12  1  0  0  0  0
 13 15  1  0  0  0  0
 13 12  1  0  0  0  0
 15 14  2  0  0  0  0
 16 15  1  0  0  0  0
 17 16  1  0  0  0  0
 18 17  1  0  0  0  0
 19 20  2  0  0  0  0
 20 18  1  0  0  0  0
 20 22  1  0  0  0  0
 21 24  1  0  0  0  0
 22 27  2  0  0  0  0
 22 23  1  0  0  0  0
 23 25  2  0  0  0  0
 26 21  2  0  0  0  0
 26 25  1  0  0  0  0
 27 24  1  0  0  0  0
 28 26  1  0  0  0  0
 28 29  1  0  0  0  0
 30 33  1  0  0  0  0
 31 32  2  0  0  0  0
 32 30  1  0  0  0  0
 32  3  1  0  0  0  0
 33 34  1  0  0  0  0
 35 36  1  6  0  0  0
 35 34  1  0  0  0  0
 35 37  1  0  0  0  0
 38 40  1  0  0  0  0
 38 37  1  0  0  0  0
 39 41  2  0  0  0  0
 39 40  1  0  0  0  0
 42 39  1  0  0  0  0
 43 46  1  6  0  0  0
 43 42  1  0  0  0  0
 44 43  1  0  0  0  0
 45 44  1  0  0  0  0
 46 47  1  0  0  0  0
 48 47  1  0  0  0  0
M  END
>  <MODEL>
4

>  <REMARK>
 VINA RESULT:      -6.2      2.480      8.000
  Name = 
  21 active torsions:
  status: ('A' for Active; 'I' for Inactive)
    1  A    between atoms: C_3  and  O_22
    2  A    between atoms: C_3  and  C_37
    3  A    between atoms: C_4  and  C_19
    4  A    between atoms: C_4  and  C_31
    5  A    between atoms: C_5  and  C_48
    6  A    between atoms: C_7  and  C_37
    7  A    between atoms: O_8  and  C_31
    8  A    between atoms: O_8  and  C_39
    9  A    between atoms: C_11  and  C_21
   10  A    between atoms: C_11  and  C_34
   11  A    between atoms: N_12  and  C_18
   12  A    between atoms: N_14  and  C_45
   13  A    between atoms: N_15  and  C_29
   14  A    between atoms: O_16  and  C_46
   15  A    between atoms: C_17  and  C_43
   16  A    between atoms: C_18  and  C_21
   17  A    between atoms: C_24  and  C_29
   18  A    between atoms: C_24  and  C_39
   19  A    between atoms: C_25  and  C_41
   20  A    between atoms: C_34  and  C_45
   21  A    between atoms: C_37  and  N_44
                            x       y       z     vdW  Elec       q    Type
                         _______ _______ _______ _____ _____    ______ ____

>  <TORSDO>
F 21

$$$$
=
 OpenBabel11042416453D

 48 50  0  0  1  0  0  0  0  0999 V2000
  192.7590  175.8620  143.9920 C   0  0  0  0  0  3  0  0  0  0  0  0
  193.6090  176.1630  146.2350 C   0  0  0  0  0  3  0  0  0  0  0  0
  195.1590  175.8320  144.3850 C   0  0  0  0  0  0  0  0  0  0  0  0
  194.0650  175.7510  143.5110 C   0  0  0  0  0  3  0  0  0  0  0  0
  194.9160  176.0520  145.7510 C   0  0  0  0  0  3  0  0  0  0  0  0
  192.5200  176.0460  145.3590 C   0  0  0  0  0  0  0  0  0  0  0  0
  191.1030  176.2550  145.8360 C   0  0  2  0  0  3  0  0  0  0  0  0
  190.7650  175.4220  147.0840 C   0  0  0  0  0  0  0  0  0  0  0  0
  190.1990  175.1330  145.6930 C   0  0  2  0  0  3  0  0  0  0  0  0
  190.8800  175.1690  148.2720 O   0  0  0  0  0  0  0  0  0  0  0  0
  190.7780  173.8060  145.2080 C   0  0  0  0  0  2  0  0  0  0  0  0
  189.6870  172.9750  144.5580 C   0  0  0  0  0  2  0  0  0  0  0  0
  189.8300  172.9830  143.1430 O   0  0  0  0  0  0  0  0  0  0  0  0
  187.7920  172.1860  142.3880 O   0  0  0  0  0  0  0  0  0  0  0  0
  188.7380  173.0130  142.2720 C   0  0  0  0  0  0  0  0  0  0  0  0
  188.7200  174.0070  141.1660 C   0  0  0  0  0  2  0  0  0  0  0  0
  188.2400  175.3440  141.6960 C   0  0  0  0  0  2  0  0  0  0  0  0
  189.3660  176.1390  142.1700 N   0  0  0  0  0  2  0  0  0  0  0  0
  190.3010  178.0950  142.9890 O   0  0  0  0  0  0  0  0  0  0  0  0
  189.2540  177.4160  142.8110 C   0  0  0  0  0  0  0  0  0  0  0  0
  185.0970  177.9240  144.4060 C   0  0  0  0  0  3  0  0  0  0  0  0
  187.9540  177.9690  143.2460 C   0  0  0  0  0  0  0  0  0  0  0  0
  187.1610  178.7840  142.2980 C   0  0  0  0  0  3  0  0  0  0  0  0
  186.3420  178.3230  145.1220 C   0  0  0  0  0  2  0  0  0  0  0  0
  185.8270  178.8920  142.2480 C   0  0  0  0  0  3  0  0  0  0  0  0
  184.8440  178.2150  143.1290 C   0  0  0  0  0  0  0  0  0  0  0  0
  187.5580  177.7240  144.4990 C   0  0  0  0  0  3  0  0  0  0  0  0
  183.5820  177.8770  142.6350 O   0  0  0  0  0  0  0  0  0  0  0  0
  183.1360  178.2560  141.3400 C   0  0  0  0  0  1  0  0  0  0  0  0
  197.4780  174.7260  144.3170 N   0  0  0  0  0  2  0  0  0  0  0  0
  196.9700  176.6170  143.0850 O   0  0  0  0  0  0  0  0  0  0  0  0
  196.5570  175.7450  143.8990 C   0  0  0  0  0  0  0  0  0  0  0  0
  197.2300  173.7340  145.3450 C   0  0  0  0  0  2  0  0  0  0  0  0
  197.5390  172.3560  144.7910 C   0  0  0  0  0  2  0  0  0  0  0  0
  196.2740  171.5350  144.6020 C   0  0  1  0  0  3  0  0  0  0  0  0
  196.6030  170.1820  144.6570 O   0  0  0  0  0  1  0  0  0  0  0  0
  195.2610  171.8670  145.6920 C   0  0  0  0  0  2  0  0  0  0  0  0
  193.9190  172.3060  145.1260 C   0  0  0  0  0  2  0  0  0  0  0  0
  192.7800  171.2650  143.1420 C   0  0  0  0  0  0  0  0  0  0  0  0
  193.2380  171.1880  144.4910 N   0  0  0  0  0  2  0  0  0  0  0  0
  192.0380  170.3560  142.6900 O   0  0  0  0  0  0  0  0  0  0  0  0
  193.1730  172.3650  142.3110 N   0  0  0  0  0  2  0  0  0  0  0  0
  192.7470  172.5610  140.9270 C   0  0  1  0  0  3  0  0  0  0  0  0
  192.3690  174.0130  140.6640 C   0  0  0  0  0  2  0  0  0  0  0  0
  193.3600  174.6290  139.9000 O   0  0  0  0  0  1  0  0  0  0  0  0
  193.8280  172.0940  139.9590 C   0  0  0  0  0  2  0  0  0  0  0  0
  194.7190  171.2450  140.6200 O   0  0  0  0  0  0  0  0  0  0  0  0
  194.7340  170.0780  139.8560 C   0  0  0  0  0  1  0  0  0  0  0  0
  1  6  1  0  0  0  0
  3  5  2  0  0  0  0
  4  1  2  0  0  0  0
  4  3  1  0  0  0  0
  5  2  1  0  0  0  0
  6  2  2  0  0  0  0
  7  6  1  6  0  0  0
  7  8  1  0  0  0  0
  8 10  2  0  0  0  0
  9 11  1  6  0  0  0
  9  7  1  0  0  0  0
  9  8  1  0  0  0  0
 12 11  1  0  0  0  0
 13 12  1  0  0  0  0
 15 14  2  0  0  0  0
 15 13  1  0  0  0  0
 16 17  1  0  0  0  0
 16 15  1  0  0  0  0
 17 18  1  0  0  0  0
 18 20  1  0  0  0  0
 20 19  2  0  0  0  0
 20 22  1  0  0  0  0
 21 24  1  0  0  0  0
 22 27  2  0  0  0  0
 23 22  1  0  0  0  0
 25 23  2  0  0  0  0
 25 26  1  0  0  0  0
 26 21  2  0  0  0  0
 27 24  1  0  0  0  0
 28 26  1  0  0  0  0
 29 28  1  0  0  0  0
 30 33  1  0  0  0  0
 31 32  2  0  0  0  0
 32 30  1  0  0  0  0
 32  3  1  0  0  0  0
 34 33  1  0  0  0  0
 35 36  1  1  0  0  0
 35 34  1  0  0  0  0
 35 37  1  0  0  0  0
 38 37  1  0  0  0  0
 39 40  1  0  0  0  0
 40 38  1  0  0  0  0
 41 39  2  0  0  0  0
 42 39  1  0  0  0  0
 43 46  1  6  0  0  0
 43 42  1  0  0  0  0
 44 43  1  0  0  0  0
 45 44  1  0  0  0  0
 46 47  1  0  0  0  0
 48 47  1  0  0  0  0
M  END
>  <MODEL>
5

>  <REMARK>
 VINA RESULT:      -6.0      2.126      4.149
  Name = 
  21 active torsions:
  status: ('A' for Active; 'I' for Inactive)
    1  A    between atoms: C_3  and  O_22
    2  A    between atoms: C_3  and  C_37
    3  A    between atoms: C_4  and  C_19
    4  A    between atoms: C_4  and  C_31
    5  A    between atoms: C_5  and  C_48
    6  A    between atoms: C_7  and  C_37
    7  A    between atoms: O_8  and  C_31
    8  A    between atoms: O_8  and  C_39
    9  A    between atoms: C_11  and  C_21
   10  A    between atoms: C_11  and  C_34
   11  A    between atoms: N_12  and  C_18
   12  A    between atoms: N_14  and  C_45
   13  A    between atoms: N_15  and  C_29
   14  A    between atoms: O_16  and  C_46
   15  A    between atoms: C_17  and  C_43
   16  A    between atoms: C_18  and  C_21
   17  A    between atoms: C_24  and  C_29
   18  A    between atoms: C_24  and  C_39
   19  A    between atoms: C_25  and  C_41
   20  A    between atoms: C_34  and  C_45
   21  A    between atoms: C_37  and  N_44
                            x       y       z     vdW  Elec       q    Type
                         _______ _______ _______ _____ _____    ______ ____

>  <TORSDO>
F 21

$$$$
=
 OpenBabel11042416453D

 48 50  0  0  1  0  0  0  0  0999 V2000
  194.5440  175.5870  146.1940 C   0  0  0  0  0  3  0  0  0  0  0  0
  193.2200  173.6040  145.7940 C   0  0  0  0  0  3  0  0  0  0  0  0
  195.5760  173.6330  145.1790 C   0  0  0  0  0  0  0  0  0  0  0  0
  195.6660  174.9460  145.6620 C   0  0  0  0  0  3  0  0  0  0  0  0
  194.3450  172.9640  145.2620 C   0  0  0  0  0  3  0  0  0  0  0  0
  193.3090  174.9300  146.2440 C   0  0  0  0  0  0  0  0  0  0  0  0
  192.1390  175.6130  146.9080 C   0  0  2  0  0  3  0  0  0  0  0  0
  190.7820  175.1510  146.3490 C   0  0  0  0  0  0  0  0  0  0  0  0
  191.3790  176.5360  146.0920 C   0  0  2  0  0  3  0  0  0  0  0  0
  189.9090  174.3120  146.2020 O   0  0  0  0  0  0  0  0  0  0  0  0
  191.7310  176.6360  144.6090 C   0  0  0  0  0  2  0  0  0  0  0  0
  190.5220  177.1120  143.8250 C   0  0  0  0  0  2  0  0  0  0  0  0
  190.2380  176.2180  142.7560 O   0  0  0  0  0  0  0  0  0  0  0  0
  188.3910  174.9150  143.2520 O   0  0  0  0  0  0  0  0  0  0  0  0
  188.9510  175.7460  142.4850 C   0  0  0  0  0  0  0  0  0  0  0  0
  188.2560  176.2000  141.2510 C   0  0  0  0  0  2  0  0  0  0  0  0
  187.9100  177.6710  141.3780 C   0  0  0  0  0  2  0  0  0  0  0  0
  186.6460  177.9580  140.7120 N   0  0  0  0  0  2  0  0  0  0  0  0
  184.3340  178.1160  140.6700 O   0  0  0  0  0  0  0  0  0  0  0  0
  185.3790  178.0700  141.3740 C   0  0  0  0  0  0  0  0  0  0  0  0
  185.8550  179.0640  145.7170 C   0  0  0  0  0  3  0  0  0  0  0  0
  185.2590  178.1090  142.8460 C   0  0  0  0  0  0  0  0  0  0  0  0
  185.4340  176.8580  143.6190 C   0  0  0  0  0  3  0  0  0  0  0  0
  184.6880  179.4520  144.8740 C   0  0  0  0  0  2  0  0  0  0  0  0
  185.9120  176.7400  144.8650 C   0  0  0  0  0  3  0  0  0  0  0  0
  186.3790  177.8380  145.7470 C   0  0  0  0  0  0  0  0  0  0  0  0
  184.9720  179.2820  143.4190 C   0  0  0  0  0  3  0  0  0  0  0  0
  187.3940  177.6000  146.6770 O   0  0  0  0  0  0  0  0  0  0  0  0
  187.4910  176.3910  147.4180 C   0  0  0  0  0  1  0  0  0  0  0  0
  197.1940  173.0380  143.2710 N   0  0  0  0  0  2  0  0  0  0  0  0
  197.4080  172.1540  145.3980 O   0  0  0  0  0  0  0  0  0  0  0  0
  196.7570  172.9180  144.6340 C   0  0  0  0  0  0  0  0  0  0  0  0
  196.4950  173.7510  142.2200 C   0  0  0  0  0  2  0  0  0  0  0  0
  197.1990  175.0700  141.9610 C   0  0  0  0  0  2  0  0  0  0  0  0
  196.2620  176.0840  141.3240 C   0  0  1  0  0  3  0  0  0  0  0  0
  195.8240  175.5850  140.0980 O   0  0  0  0  0  1  0  0  0  0  0  0
  195.0670  176.3440  142.2350 C   0  0  0  0  0  2  0  0  0  0  0  0
  193.7590  175.8570  141.6310 C   0  0  0  0  0  2  0  0  0  0  0  0
  192.3170  173.8130  141.8620 C   0  0  0  0  0  0  0  0  0  0  0  0
  193.1880  174.7870  142.4340 N   0  0  0  0  0  2  0  0  0  0  0  0
  191.7010  173.0180  142.6170 O   0  0  0  0  0  0  0  0  0  0  0  0
  192.1550  173.7380  140.4390 N   0  0  0  0  0  2  0  0  0  0  0  0
  191.2730  172.8020  139.7460 C   0  0  1  0  0  3  0  0  0  0  0  0
  190.6730  173.4300  138.4940 C   0  0  0  0  0  2  0  0  0  0  0  0
  190.4900  172.4530  137.5160 O   0  0  0  0  0  1  0  0  0  0  0  0
  192.0140  171.5130  139.4090 C   0  0  0  0  0  2  0  0  0  0  0  0
  193.3420  171.8020  139.0850 O   0  0  0  0  0  0  0  0  0  0  0  0
  194.0990  171.0820  140.0070 C   0  0  0  0  0  1  0  0  0  0  0  0
  1  6  1  0  0  0  0
  2  6  2  0  0  0  0
  3  5  2  0  0  0  0
  3  4  1  0  0  0  0
  4  1  2  0  0  0  0
  5  2  1  0  0  0  0
  7  6  1  6  0  0  0
  8  7  1  0  0  0  0
  9 11  1  6  0  0  0
  9  8  1  0  0  0  0
  9  7  1  0  0  0  0
 10  8  2  0  0  0  0
 12 11  1  0  0  0  0
 13 12  1  0  0  0  0
 15 13  1  0  0  0  0
 15 14  2  0  0  0  0
 16 17  1  0  0  0  0
 16 15  1  0  0  0  0
 18 20  1  0  0  0  0
 18 17  1  0  0  0  0
 19 20  2  0  0  0  0
 20 22  1  0  0  0  0
 21 26  2  0  0  0  0
 22 27  2  0  0  0  0
 22 23  1  0  0  0  0
 23 25  2  0  0  0  0
 24 21  1  0  0  0  0
 25 26  1  0  0  0  0
 26 28  1  0  0  0  0
 27 24  1  0  0  0  0
 28 29  1  0  0  0  0
 30 32  1  0  0  0  0
 32  3  1  0  0  0  0
 32 31  2  0  0  0  0
 33 30  1  0  0  0  0
 34 33  1  0  0  0  0
 35 36  1  6  0  0  0
 35 34  1  0  0  0  0
 35 37  1  0  0  0  0
 38 37  1  0  0  0  0
 38 40  1  0  0  0  0
 39 40  1  0  0  0  0
 39 41  2  0  0  0  0
 42 39  1  0  0  0  0
 43 44  1  6  0  0  0
 43 42  1  0  0  0  0
 45 44  1  0  0  0  0
 46 43  1  0  0  0  0
 47 46  1  0  0  0  0
 47 48  1  0  0  0  0
M  END
>  <MODEL>
6

>  <REMARK>
 VINA RESULT:      -6.0      1.658      2.259
  Name = 
  21 active torsions:
  status: ('A' for Active; 'I' for Inactive)
    1  A    between atoms: C_3  and  O_22
    2  A    between atoms: C_3  and  C_37
    3  A    between atoms: C_4  and  C_19
    4  A    between atoms: C_4  and  C_31
    5  A    between atoms: C_5  and  C_48
    6  A    between atoms: C_7  and  C_37
    7  A    between atoms: O_8  and  C_31
    8  A    between atoms: O_8  and  C_39
    9  A    between atoms: C_11  and  C_21
   10  A    between atoms: C_11  and  C_34
   11  A    between atoms: N_12  and  C_18
   12  A    between atoms: N_14  and  C_45
   13  A    between atoms: N_15  and  C_29
   14  A    between atoms: O_16  and  C_46
   15  A    between atoms: C_17  and  C_43
   16  A    between atoms: C_18  and  C_21
   17  A    between atoms: C_24  and  C_29
   18  A    between atoms: C_24  and  C_39
   19  A    between atoms: C_25  and  C_41
   20  A    between atoms: C_34  and  C_45
   21  A    between atoms: C_37  and  N_44
                            x       y       z     vdW  Elec       q    Type
                         _______ _______ _______ _____ _____    ______ ____

>  <TORSDO>
F 21

$$$$
=
 OpenBabel11042416453D

 48 50  0  0  1  0  0  0  0  0999 V2000
  186.4230  178.9030  144.3370 C   0  0  0  0  0  3  0  0  0  0  0  0
  184.3530  177.9660  143.5100 C   0  0  0  0  0  3  0  0  0  0  0  0
  186.3840  177.7810  142.1800 C   0  0  0  0  0  0  0  0  0  0  0  0
  187.0820  178.4630  143.1870 C   0  0  0  0  0  3  0  0  0  0  0  0
  185.0150  177.5270  142.3600 C   0  0  0  0  0  3  0  0  0  0  0  0
  185.0500  178.6780  144.4970 C   0  0  0  0  0  0  0  0  0  0  0  0
  184.3860  179.0830  145.7910 C   0  0  2  0  0  3  0  0  0  0  0  0
  185.3780  179.2010  146.9600 C   0  0  0  0  0  0  0  0  0  0  0  0
  184.3420  178.0830  146.8370 C   0  0  2  0  0  3  0  0  0  0  0  0
  186.3040  179.7510  147.5340 O   0  0  0  0  0  0  0  0  0  0  0  0
  185.0820  176.7690  146.6010 C   0  0  0  0  0  2  0  0  0  0  0  0
  186.3740  176.7560  147.3980 C   0  0  0  0  0  2  0  0  0  0  0  0
  187.4950  176.6590  146.5290 O   0  0  0  0  0  0  0  0  0  0  0  0
  188.5460  174.9350  147.6600 O   0  0  0  0  0  0  0  0  0  0  0  0
  188.4270  175.6200  146.6080 C   0  0  0  0  0  0  0  0  0  0  0  0
  189.3180  175.3550  145.4470 C   0  0  0  0  0  2  0  0  0  0  0  0
  190.2470  176.5360  145.2440 C   0  0  0  0  0  2  0  0  0  0  0  0
  190.6780  177.0750  146.5280 N   0  0  0  0  0  2  0  0  0  0  0  0
  192.0700  177.1070  148.3800 O   0  0  0  0  0  0  0  0  0  0  0  0
  191.9060  176.7370  147.1870 C   0  0  0  0  0  0  0  0  0  0  0  0
  195.0880  175.2920  144.3820 C   0  0  0  0  0  3  0  0  0  0  0  0
  192.9680  175.9540  146.5220 C   0  0  0  0  0  0  0  0  0  0  0  0
  192.7160  174.5340  146.1850 C   0  0  0  0  0  3  0  0  0  0  0  0
  195.3380  175.8710  145.7330 C   0  0  0  0  0  2  0  0  0  0  0  0
  193.2350  173.8450  145.1600 C   0  0  0  0  0  3  0  0  0  0  0  0
  194.1750  174.3520  144.1300 C   0  0  0  0  0  0  0  0  0  0  0  0
  194.1310  176.5640  146.2730 C   0  0  0  0  0  3  0  0  0  0  0  0
  194.1430  173.8250  142.8370 O   0  0  0  0  0  0  0  0  0  0  0  0
  195.2260  173.9560  141.9250 C   0  0  0  0  0  1  0  0  0  0  0  0
  187.8940  176.1070  140.9450 N   0  0  0  0  0  2  0  0  0  0  0  0
  186.9210  177.9150  139.8810 O   0  0  0  0  0  0  0  0  0  0  0  0
  187.0640  177.2780  140.9610 C   0  0  0  0  0  0  0  0  0  0  0  0
  188.2880  175.3350  142.1080 C   0  0  0  0  0  2  0  0  0  0  0  0
  188.5330  173.8970  141.6900 C   0  0  0  0  0  2  0  0  0  0  0  0
  190.0180  173.6090  141.5360 C   0  0  1  0  0  3  0  0  0  0  0  0
  190.6940  174.1210  142.6420 O   0  0  0  0  0  1  0  0  0  0  0  0
  190.2560  172.1060  141.4320 C   0  0  0  0  0  2  0  0  0  0  0  0
  190.9910  171.5500  142.6420 C   0  0  0  0  0  2  0  0  0  0  0  0
  192.6690  169.7000  142.9180 C   0  0  0  0  0  0  0  0  0  0  0  0
  191.4360  170.1870  142.3930 N   0  0  0  0  0  2  0  0  0  0  0  0
  193.1060  168.5860  142.5330 O   0  0  0  0  0  0  0  0  0  0  0  0
  193.3950  170.4720  143.8840 N   0  0  0  0  0  2  0  0  0  0  0  0
  194.6770  170.0870  144.4700 C   0  0  1  0  0  3  0  0  0  0  0  0
  195.8160  170.9380  143.9210 C   0  0  0  0  0  2  0  0  0  0  0  0
  196.1410  170.5170  142.6330 O   0  0  0  0  0  1  0  0  0  0  0  0
  194.6190  170.1670  145.9910 C   0  0  0  0  0  2  0  0  0  0  0  0
  195.4410  169.1840  146.5480 O   0  0  0  0  0  0  0  0  0  0  0  0
  194.7170  168.6830  147.6280 C   0  0  0  0  0  1  0  0  0  0  0  0
  1  6  1  0  0  0  0
  2  6  2  0  0  0  0
  3  5  2  0  0  0  0
  3  4  1  0  0  0  0
  4  1  2  0  0  0  0
  5  2  1  0  0  0  0
  7  6  1  6  0  0  0
  7  9  1  0  0  0  0
  7  8  1  0  0  0  0
  8 10  2  0  0  0  0
  9 11  1  6  0  0  0
  9  8  1  0  0  0  0
 11 12  1  0  0  0  0
 13 15  1  0  0  0  0
 13 12  1  0  0  0  0
 15 14  2  0  0  0  0
 16 15  1  0  0  0  0
 17 16  1  0  0  0  0
 17 18  1  0  0  0  0
 18 20  1  0  0  0  0
 20 19  2  0  0  0  0
 21 24  1  0  0  0  0
 22 20  1  0  0  0  0
 23 22  1  0  0  0  0
 24 27  1  0  0  0  0
 25 23  2  0  0  0  0
 26 21  2  0  0  0  0
 26 25  1  0  0  0  0
 27 22  2  0  0  0  0
 28 26  1  0  0  0  0
 29 28  1  0  0  0  0
 30 32  1  0  0  0  0
 30 33  1  0  0  0  0
 31 32  2  0  0  0  0
 32  3  1  0  0  0  0
 34 33  1  0  0  0  0
 35 34  1  0  0  0  0
 35 36  1  1  0  0  0
 37 35  1  0  0  0  0
 37 38  1  0  0  0  0
 39 42  1  0  0  0  0
 40 38  1  0  0  0  0
 40 39  1  0  0  0  0
 41 39  2  0  0  0  0
 42 43  1  0  0  0  0
 43 44  1  6  0  0  0
 43 46  1  0  0  0  0
 45 44  1  0  0  0  0
 46 47  1  0  0  0  0
 47 48  1  0  0  0  0
M  END
>  <MODEL>
7

>  <REMARK>
 VINA RESULT:      -5.9      2.493      8.200
  Name = 
  21 active torsions:
  status: ('A' for Active; 'I' for Inactive)
    1  A    between atoms: C_3  and  O_22
    2  A    between atoms: C_3  and  C_37
    3  A    between atoms: C_4  and  C_19
    4  A    between atoms: C_4  and  C_31
    5  A    between atoms: C_5  and  C_48
    6  A    between atoms: C_7  and  C_37
    7  A    between atoms: O_8  and  C_31
    8  A    between atoms: O_8  and  C_39
    9  A    between atoms: C_11  and  C_21
   10  A    between atoms: C_11  and  C_34
   11  A    between atoms: N_12  and  C_18
   12  A    between atoms: N_14  and  C_45
   13  A    between atoms: N_15  and  C_29
   14  A    between atoms: O_16  and  C_46
   15  A    between atoms: C_17  and  C_43
   16  A    between atoms: C_18  and  C_21
   17  A    between atoms: C_24  and  C_29
   18  A    between atoms: C_24  and  C_39
   19  A    between atoms: C_25  and  C_41
   20  A    between atoms: C_34  and  C_45
   21  A    between atoms: C_37  and  N_44
                            x       y       z     vdW  Elec       q    Type
                         _______ _______ _______ _____ _____    ______ ____

>  <TORSDO>
F 21

$$$$
=
 OpenBabel11042416453D

 48 50  0  0  1  0  0  0  0  0999 V2000
  186.3270  177.6330  146.7220 C   0  0  0  0  0  3  0  0  0  0  0  0
  187.9830  178.0140  145.0020 C   0  0  0  0  0  3  0  0  0  0  0  0
  188.3700  176.3140  146.7030 C   0  0  0  0  0  0  0  0  0  0  0  0
  187.1270  176.6290  147.2720 C   0  0  0  0  0  3  0  0  0  0  0  0
  188.7830  177.0080  145.5550 C   0  0  0  0  0  3  0  0  0  0  0  0
  186.7580  178.3480  145.5980 C   0  0  0  0  0  0  0  0  0  0  0  0
  185.8310  179.3610  144.9720 C   0  0  2  0  0  3  0  0  0  0  0  0
  184.3490  178.9630  145.0830 C   0  0  0  0  0  0  0  0  0  0  0  0
  185.1350  178.9480  143.7710 C   0  0  2  0  0  3  0  0  0  0  0  0
  183.3310  178.7770  145.7290 O   0  0  0  0  0  0  0  0  0  0  0  0
  185.2860  177.4970  143.3210 C   0  0  0  0  0  2  0  0  0  0  0  0
  185.7490  177.4520  141.8760 C   0  0  0  0  0  2  0  0  0  0  0  0
  186.8520  176.5660  141.7330 O   0  0  0  0  0  0  0  0  0  0  0  0
  188.4810  178.2020  141.5620 O   0  0  0  0  0  0  0  0  0  0  0  0
  188.1810  176.9970  141.7850 C   0  0  0  0  0  0  0  0  0  0  0  0
  189.2550  176.0060  142.0620 C   0  0  0  0  0  2  0  0  0  0  0  0
  188.6360  174.7220  142.5800 C   0  0  0  0  0  2  0  0  0  0  0  0
  189.3220  174.2740  143.7850 N   0  0  0  0  0  2  0  0  0  0  0  0
  190.7530  172.8530  144.9270 O   0  0  0  0  0  0  0  0  0  0  0  0
  190.3820  173.3090  143.8120 C   0  0  0  0  0  0  0  0  0  0  0  0
  192.3440  173.0040  139.7950 C   0  0  0  0  0  3  0  0  0  0  0  0
  191.0330  172.8170  142.5800 C   0  0  0  0  0  0  0  0  0  0  0  0
  190.3780  171.7460  141.7950 C   0  0  0  0  0  3  0  0  0  0  0  0
  193.0480  172.8670  141.1020 C   0  0  0  0  0  2  0  0  0  0  0  0
  190.4520  171.5580  140.4700 C   0  0  0  0  0  3  0  0  0  0  0  0
  191.2020  172.3850  139.4930 C   0  0  0  0  0  0  0  0  0  0  0  0
  192.2090  173.3520  142.2380 C   0  0  0  0  0  3  0  0  0  0  0  0
  190.7300  172.5180  138.1850 O   0  0  0  0  0  0  0  0  0  0  0  0
  191.5950  172.6110  137.0610 C   0  0  0  0  0  1  0  0  0  0  0  0
  190.6570  175.3330  147.3450 N   0  0  0  0  0  2  0  0  0  0  0  0
  188.6820  174.1660  147.6400 O   0  0  0  0  0  0  0  0  0  0  0  0
  189.2280  175.2340  147.2490 C   0  0  0  0  0  0  0  0  0  0  0  0
  191.4660  176.4140  146.8190 C   0  0  0  0  0  2  0  0  0  0  0  0
  192.8060  175.8610  146.3720 C   0  0  0  0  0  2  0  0  0  0  0  0
  192.9440  175.8930  144.8580 C   0  0  1  0  0  3  0  0  0  0  0  0
  191.9970  176.7740  144.3380 O   0  0  0  0  0  1  0  0  0  0  0  0
  194.3460  176.3460  144.4640 C   0  0  0  0  0  2  0  0  0  0  0  0
  195.2290  175.1890  144.0230 C   0  0  0  0  0  2  0  0  0  0  0  0
  196.4430  173.5760  145.5180 C   0  0  0  0  0  0  0  0  0  0  0  0
  196.2390  174.9000  145.0280 N   0  0  0  0  0  2  0  0  0  0  0  0
  197.1920  173.3940  146.5120 O   0  0  0  0  0  0  0  0  0  0  0  0
  195.8050  172.4640  144.8760 N   0  0  0  0  0  2  0  0  0  0  0  0
  195.9190  171.0720  145.3040 C   0  0  1  0  0  3  0  0  0  0  0  0
  194.5750  170.5200  145.7600 C   0  0  0  0  0  2  0  0  0  0  0  0
  194.7740  169.4740  146.6610 O   0  0  0  0  0  1  0  0  0  0  0  0
  196.5130  170.2140  144.1930 C   0  0  0  0  0  2  0  0  0  0  0  0
  195.7140  170.2990  143.0510 O   0  0  0  0  0  0  0  0  0  0  0  0
  195.8280  169.0510  142.4400 C   0  0  0  0  0  1  0  0  0  0  0  0
  1  4  1  0  0  0  0
  2  5  2  0  0  0  0
  2  6  1  0  0  0  0
  3 32  1  0  0  0  0
  3  4  2  0  0  0  0
  5  3  1  0  0  0  0
  6  1  2  0  0  0  0
  7  8  1  0  0  0  0
  7  6  1  1  0  0  0
  8 10  2  0  0  0  0
  9 11  1  1  0  0  0
  9  7  1  0  0  0  0
  9  8  1  0  0  0  0
 12 11  1  0  0  0  0
 13 15  1  0  0  0  0
 13 12  1  0  0  0  0
 14 15  2  0  0  0  0
 15 16  1  0  0  0  0
 16 17  1  0  0  0  0
 17 18  1  0  0  0  0
 18 20  1  0  0  0  0
 20 19  2  0  0  0  0
 21 24  1  0  0  0  0
 22 20  1  0  0  0  0
 23 22  1  0  0  0  0
 24 27  1  0  0  0  0
 25 23  2  0  0  0  0
 26 21  2  0  0  0  0
 26 25  1  0  0  0  0
 27 22  2  0  0  0  0
 28 26  1  0  0  0  0
 29 28  1  0  0  0  0
 32 30  1  0  0  0  0
 32 31  2  0  0  0  0
 33 30  1  0  0  0  0
 34 33  1  0  0  0  0
 35 36  1  6  0  0  0
 35 34  1  0  0  0  0
 37 35  1  0  0  0  0
 38 37  1  0  0  0  0
 38 40  1  0  0  0  0
 39 41  2  0  0  0  0
 40 39  1  0  0  0  0
 42 43  1  0  0  0  0
 42 39  1  0  0  0  0
 43 46  1  6  0  0  0
 43 44  1  0  0  0  0
 44 45  1  0  0  0  0
 47 46  1  0  0  0  0
 48 47  1  0  0  0  0
M  END
>  <MODEL>
8

>  <REMARK>
 VINA RESULT:      -5.9      2.394      7.510
  Name = 
  21 active torsions:
  status: ('A' for Active; 'I' for Inactive)
    1  A    between atoms: C_3  and  O_22
    2  A    between atoms: C_3  and  C_37
    3  A    between atoms: C_4  and  C_19
    4  A    between atoms: C_4  and  C_31
    5  A    between atoms: C_5  and  C_48
    6  A    between atoms: C_7  and  C_37
    7  A    between atoms: O_8  and  C_31
    8  A    between atoms: O_8  and  C_39
    9  A    between atoms: C_11  and  C_21
   10  A    between atoms: C_11  and  C_34
   11  A    between atoms: N_12  and  C_18
   12  A    between atoms: N_14  and  C_45
   13  A    between atoms: N_15  and  C_29
   14  A    between atoms: O_16  and  C_46
   15  A    between atoms: C_17  and  C_43
   16  A    between atoms: C_18  and  C_21
   17  A    between atoms: C_24  and  C_29
   18  A    between atoms: C_24  and  C_39
   19  A    between atoms: C_25  and  C_41
   20  A    between atoms: C_34  and  C_45
   21  A    between atoms: C_37  and  N_44
                            x       y       z     vdW  Elec       q    Type
                         _______ _______ _______ _____ _____    ______ ____

>  <TORSDO>
F 21

$$$$
=
 OpenBabel11042416453D

 48 50  0  0  1  0  0  0  0  0999 V2000
  193.0000  174.0380  145.6480 C   0  0  0  0  0  3  0  0  0  0  0  0
  192.0000  175.1810  143.7670 C   0  0  0  0  0  3  0  0  0  0  0  0
  194.1070  175.9810  144.6920 C   0  0  0  0  0  0  0  0  0  0  0  0
  194.0660  174.9400  145.6310 C   0  0  0  0  0  3  0  0  0  0  0  0
  193.0690  176.0840  143.7520 C   0  0  0  0  0  3  0  0  0  0  0  0
  191.9490  174.1640  144.7320 C   0  0  0  0  0  0  0  0  0  0  0  0
  190.8590  173.1200  144.7150 C   0  0  2  0  0  3  0  0  0  0  0  0
  189.7050  173.4790  143.7640 C   0  0  0  0  0  0  0  0  0  0  0  0
  189.5870  173.5030  145.2880 C   0  0  2  0  0  3  0  0  0  0  0  0
  189.2430  173.6430  142.6470 O   0  0  0  0  0  0  0  0  0  0  0  0
  189.4090  174.9540  145.7310 C   0  0  0  0  0  2  0  0  0  0  0  0
  188.9480  174.9970  147.1760 C   0  0  0  0  0  2  0  0  0  0  0  0
  187.7000  175.6720  147.2810 O   0  0  0  0  0  0  0  0  0  0  0  0
  188.6020  177.8040  147.2990 O   0  0  0  0  0  0  0  0  0  0  0  0
  187.5990  177.0550  147.4610 C   0  0  0  0  0  0  0  0  0  0  0  0
  186.3020  177.6380  147.8930 C   0  0  0  0  0  2  0  0  0  0  0  0
  185.2620  177.4120  146.8130 C   0  0  0  0  0  2  0  0  0  0  0  0
  185.0220  178.6420  146.0690 N   0  0  0  0  0  2  0  0  0  0  0  0
  185.5430  180.1780  144.4140 O   0  0  0  0  0  0  0  0  0  0  0  0
  185.6840  179.0040  144.8500 C   0  0  0  0  0  0  0  0  0  0  0  0
  188.5940  177.1430  141.9950 C   0  0  0  0  0  3  0  0  0  0  0  0
  186.5400  178.0560  144.1070 C   0  0  0  0  0  0  0  0  0  0  0  0
  185.9270  176.8540  143.4960 C   0  0  0  0  0  3  0  0  0  0  0  0
  188.8550  177.3900  143.4420 C   0  0  0  0  0  2  0  0  0  0  0  0
  186.3320  176.2180  142.3880 C   0  0  0  0  0  3  0  0  0  0  0  0
  187.4820  176.5790  141.5230 C   0  0  0  0  0  0  0  0  0  0  0  0
  187.8490  178.3180  144.0380 C   0  0  0  0  0  3  0  0  0  0  0  0
  187.4370  176.3050  140.1540 O   0  0  0  0  0  0  0  0  0  0  0  0
  186.6980  177.0980  139.2340 C   0  0  0  0  0  1  0  0  0  0  0  0
  196.3600  176.7810  143.7480 N   0  0  0  0  0  2  0  0  0  0  0  0
  195.2320  177.9340  145.4060 O   0  0  0  0  0  0  0  0  0  0  0  0
  195.2400  176.9360  144.6330 C   0  0  0  0  0  0  0  0  0  0  0  0
  196.6120  175.6340  142.8980 C   0  0  0  0  0  2  0  0  0  0  0  0
  195.9000  175.8320  141.5730 C   0  0  0  0  0  2  0  0  0  0  0  0
  195.2660  174.5390  141.0830 C   0  0  1  0  0  3  0  0  0  0  0  0
  195.0430  173.7050  142.1780 O   0  0  0  0  0  1  0  0  0  0  0  0
  193.9480  174.8320  140.3760 C   0  0  0  0  0  2  0  0  0  0  0  0
  192.9230  173.7260  140.5760 C   0  0  0  0  0  2  0  0  0  0  0  0
  192.0910  172.4800  138.5590 C   0  0  0  0  0  0  0  0  0  0  0  0
  193.0790  172.6900  139.5670 N   0  0  0  0  0  2  0  0  0  0  0  0
  192.1700  171.4640  137.8210 O   0  0  0  0  0  0  0  0  0  0  0  0
  191.0260  173.4240  138.3860 N   0  0  0  0  0  2  0  0  0  0  0  0
  189.9480  173.3000  137.4080 C   0  0  1  0  0  3  0  0  0  0  0  0
  188.6200  173.7730  137.9840 C   0  0  0  0  0  2  0  0  0  0  0  0
  188.4500  173.2560  139.2670 O   0  0  0  0  0  1  0  0  0  0  0  0
  190.2900  174.0570  136.1300 C   0  0  0  0  0  2  0  0  0  0  0  0
  191.3240  174.9620  136.3790 O   0  0  0  0  0  0  0  0  0  0  0  0
  192.1580  174.8670  135.2670 C   0  0  0  0  0  1  0  0  0  0  0  0
  2  6  1  0  0  0  0
  3  4  2  0  0  0  0
  4  1  1  0  0  0  0
  5  2  2  0  0  0  0
  5  3  1  0  0  0  0
  6  1  2  0  0  0  0
  7  6  1  1  0  0  0
  7  9  1  0  0  0  0
  8  7  1  0  0  0  0
  8  9  1  0  0  0  0
  9 11  1  1  0  0  0
 10  8  2  0  0  0  0
 11 12  1  0  0  0  0
 12 13  1  0  0  0  0
 13 15  1  0  0  0  0
 14 15  2  0  0  0  0
 15 16  1  0  0  0  0
 17 16  1  0  0  0  0
 18 17  1  0  0  0  0
 19 20  2  0  0  0  0
 20 18  1  0  0  0  0
 21 24  1  0  0  0  0
 22 20  1  0  0  0  0
 23 22  1  0  0  0  0
 24 27  1  0  0  0  0
 25 23  2  0  0  0  0
 26 21  2  0  0  0  0
 26 25  1  0  0  0  0
 27 22  2  0  0  0  0
 28 26  1  0  0  0  0
 29 28  1  0  0  0  0
 30 32  1  0  0  0  0
 32  3  1  0  0  0  0
 32 31  2  0  0  0  0
 33 30  1  0  0  0  0
 34 33  1  0  0  0  0
 35 34  1  0  0  0  0
 35 36  1  1  0  0  0
 37 38  1  0  0  0  0
 37 35  1  0  0  0  0
 39 40  1  0  0  0  0
 40 38  1  0  0  0  0
 41 39  2  0  0  0  0
 42 39  1  0  0  0  0
 43 46  1  6  0  0  0
 43 44  1  0  0  0  0
 43 42  1  0  0  0  0
 44 45  1  0  0  0  0
 46 47  1  0  0  0  0
 48 47  1  0  0  0  0
M  END
>  <MODEL>
9

>  <REMARK>
 VINA RESULT:      -5.8      2.089      3.904
  Name = 
  21 active torsions:
  status: ('A' for Active; 'I' for Inactive)
    1  A    between atoms: C_3  and  O_22
    2  A    between atoms: C_3  and  C_37
    3  A    between atoms: C_4  and  C_19
    4  A    between atoms: C_4  and  C_31
    5  A    between atoms: C_5  and  C_48
    6  A    between atoms: C_7  and  C_37
    7  A    between atoms: O_8  and  C_31
    8  A    between atoms: O_8  and  C_39
    9  A    between atoms: C_11  and  C_21
   10  A    between atoms: C_11  and  C_34
   11  A    between atoms: N_12  and  C_18
   12  A    between atoms: N_14  and  C_45
   13  A    between atoms: N_15  and  C_29
   14  A    between atoms: O_16  and  C_46
   15  A    between atoms: C_17  and  C_43
   16  A    between atoms: C_18  and  C_21
   17  A    between atoms: C_24  and  C_29
   18  A    between atoms: C_24  and  C_39
   19  A    between atoms: C_25  and  C_41
   20  A    between atoms: C_34  and  C_45
   21  A    between atoms: C_37  and  N_44
                            x       y       z     vdW  Elec       q    Type
                         _______ _______ _______ _____ _____    ______ ____

>  <TORSDO>
F 21

$$$$
