=
 OpenBabel11042418113D

 25 28  0  0  1  0  0  0  0  0999 V2000
  191.6920  174.2060  143.5070 C   0  0  0  0  0  3  0  0  0  0  0  0
  187.3640  175.6640  142.2140 N   0  0  0  0  0  0  0  0  0  0  0  0
  189.8530  175.1330  147.2720 C   0  0  0  0  0  1  0  0  0  0  0  0
  190.7310  175.2380  143.8870 N   0  0  0  0  0  0  0  0  0  0  0  0
  185.7780  177.3800  144.9500 O   0  0  0  0  0  0  0  0  0  0  0  0
  186.6910  176.7840  144.0630 C   0  0  0  0  0  0  0  0  0  0  0  0
  186.1390  177.9940  146.1930 C   0  0  2  0  0  3  0  0  0  0  0  0
  188.3650  176.2720  145.6860 N   0  0  0  0  0  0  0  0  0  0  0  0
  191.1230  173.5900  142.2610 C   0  0  0  0  0  3  0  0  0  0  0  0
  190.6290  177.5700  144.1090 O   0  0  0  0  0  0  0  0  0  0  0  0
  188.4070  175.6810  143.1860 C   0  0  1  0  0  3  0  0  0  0  0  0
  189.6080  175.0960  143.0160 C   0  0  0  0  0  0  0  0  0  0  0  0
  187.9320  176.4250  144.3450 C   0  0  0  0  0  0  0  0  0  0  0  0
  188.1230  176.7380  147.0780 C   0  0  2  0  0  3  0  0  0  0  0  0
  188.4120  175.4060  146.9030 C   0  0  2  0  0  3  0  0  0  0  0  0
  191.1930  176.4880  144.4270 C   0  0  0  0  0  0  0  0  0  0  0  0
  186.3650  176.3210  142.7150 C   0  0  0  0  0  3  0  0  0  0  0  0
  189.9390  174.1140  141.9960 C   0  0  0  0  0  0  0  0  0  0  0  0
  186.6240  176.9610  147.2200 C   0  0  0  0  0  2  0  0  0  0  0  0
  192.4000  176.5280  145.3050 C   0  0  0  0  0  2  0  0  0  0  0  0
  193.5020  176.9870  144.5840 O   0  0  0  0  0  1  0  0  0  0  0  0
  183.8750  178.7700  145.7480 N   0  0  0  0  0  1  0  0  0  0  0  0
  184.9320  178.7320  146.7430 C   0  0  0  0  0  2  0  0  0  0  0  0
  188.4700  173.3810  139.9830 N   0  0  0  0  0  0  0  0  0  0  0  0
  189.1250  173.7080  140.8810 C   0  0  0  0  0  0  0  0  0  0  0  0
  1  4  1  0  0  0  0
  2 17  2  0  0  0  0
  2 11  1  0  0  0  0
  4 16  1  0  0  0  0
  5  7  1  0  0  0  0
  6 13  2  0  0  0  0
  6  5  1  0  0  0  0
  7 23  1  1  0  0  0
  7 19  1  0  0  0  0
  8 15  1  0  0  0  0
  8 14  1  0  0  0  0
  9  1  2  0  0  0  0
 10 16  2  0  0  0  0
 11 12  1  6  0  0  0
 11 13  1  0  0  0  0
 12  4  1  0  0  0  0
 13  8  1  0  0  0  0
 14 19  1  6  0  0  0
 15 14  1  0  0  0  0
 15  3  1  1  0  0  0
 16 20  1  0  0  0  0
 17  6  1  0  0  0  0
 18  9  1  0  0  0  0
 18 12  2  0  0  0  0
 21 20  1  0  0  0  0
 22 23  1  0  0  0  0
 24 25  3  0  0  0  0
 25 18  1  0  0  0  0
M  END
>  <MODEL>
1

>  <REMARK>
 VINA RESULT:      -6.8      0.000      0.000
  Name = 
  3 active torsions:
  status: ('A' for Active; 'I' for Inactive)
    1  A    between atoms: C_2  and  C_21
    2  A    between atoms: C_9  and  C_11
    3  A    between atoms: C_18  and  C_23
                            x       y       z     vdW  Elec       q    Type
                         _______ _______ _______ _____ _____    ______ ____

>  <TORSDO>
F 3

$$$$
=
 OpenBabel11042418113D

 25 28  0  0  1  0  0  0  0  0999 V2000
  192.1740  175.6520  142.3560 C   0  0  0  0  0  3  0  0  0  0  0  0
  190.8400  176.8840  146.7420 N   0  0  0  0  0  0  0  0  0  0  0  0
  188.3410  177.4660  141.6950 C   0  0  0  0  0  1  0  0  0  0  0  0
  190.9560  175.6640  143.1620 N   0  0  0  0  0  0  0  0  0  0  0  0
  187.3210  177.6290  146.7920 O   0  0  0  0  0  0  0  0  0  0  0  0
  188.6090  177.1660  146.4760 C   0  0  0  0  0  0  0  0  0  0  0  0
  186.1600  177.4080  145.9830 C   0  0  2  0  0  3  0  0  0  0  0  0
  188.2930  177.0450  144.1130 N   0  0  0  0  0  0  0  0  0  0  0  0
  193.2740  176.0030  143.3160 C   0  0  0  0  0  3  0  0  0  0  0  0
  189.2950  174.1740  143.8860 O   0  0  0  0  0  0  0  0  0  0  0  0
  190.4590  176.5590  145.4070 C   0  0  0  0  0  0  0  0  0  0  0  0
  191.3200  176.1600  144.4520 C   0  0  0  0  0  0  0  0  0  0  0  0
  189.0180  176.7410  145.2930 C   0  0  0  0  0  0  0  0  0  0  0  0
  186.9340  177.3560  143.5960 C   0  0  2  0  0  3  0  0  0  0  0  0
  187.9880  178.0460  143.0470 C   0  0  2  0  0  3  0  0  0  0  0  0
  189.9260  174.6900  142.9230 C   0  0  0  0  0  0  0  0  0  0  0  0
  189.7610  177.2230  147.3750 C   0  0  0  0  0  2  0  0  0  0  0  0
  192.7680  176.2830  144.5050 C   0  0  0  0  0  0  0  0  0  0  0  0
  186.2300  178.1850  144.6610 C   0  0  0  0  0  2  0  0  0  0  0  0
  189.6470  174.2150  141.5350 C   0  0  0  0  0  2  0  0  0  0  0  0
  188.2930  173.9090  141.3960 O   0  0  0  0  0  1  0  0  0  0  0  0
  184.1110  178.7210  145.9520 N   0  0  0  0  0  1  0  0  0  0  0  0
  184.9310  177.8380  146.7620 C   0  0  0  0  0  2  0  0  0  0  0  0
  194.2100  177.0110  146.5380 N   0  0  0  0  0  0  0  0  0  0  0  0
  193.5670  176.6860  145.6320 C   0  0  0  0  0  0  0  0  0  0  0  0
  1  4  1  0  0  0  0
  1  9  2  0  0  0  0
  2 17  1  0  0  0  0
  4 12  1  0  0  0  0
  6  5  1  0  0  0  0
  6 17  1  0  0  0  0
  7 23  1  1  0  0  0
  7  5  1  0  0  0  0
  8 13  1  0  0  0  0
  9 18  1  0  0  0  0
 11  2  2  0  0  0  0
 12 18  2  0  0  0  0
 12 11  1  0  0  0  0
 13 11  1  0  0  0  0
 13  6  2  0  0  0  0
 14  8  1  0  0  0  0
 14 19  1  1  0  0  0
 15  3  1  6  0  0  0
 15 14  1  0  0  0  0
 15  8  1  0  0  0  0
 16  4  1  0  0  0  0
 16 10  2  0  0  0  0
 18 25  1  0  0  0  0
 19  7  1  0  0  0  0
 20 16  1  0  0  0  0
 21 20  1  0  0  0  0
 22 23  1  0  0  0  0
 25 24  3  0  0  0  0
M  END
>  <MODEL>
2

>  <REMARK>
 VINA RESULT:      -6.6      2.119      4.284
  Name = 
  3 active torsions:
  status: ('A' for Active; 'I' for Inactive)
    1  A    between atoms: C_2  and  C_21
    2  A    between atoms: C_9  and  C_11
    3  A    between atoms: C_18  and  C_23
                            x       y       z     vdW  Elec       q    Type
                         _______ _______ _______ _____ _____    ______ ____

>  <TORSDO>
F 3

$$$$
=
 OpenBabel11042418113D

 25 28  0  0  1  0  0  0  0  0999 V2000
  185.7950  176.7810  143.4100 C   0  0  0  0  0  3  0  0  0  0  0  0
  188.9790  177.4400  146.8670 N   0  0  0  0  0  0  0  0  0  0  0  0
  188.7160  173.7480  142.5820 C   0  0  0  0  0  1  0  0  0  0  0  0
  187.2460  176.7640  143.5730 N   0  0  0  0  0  0  0  0  0  0  0  0
  192.0360  175.7210  146.0660 O   0  0  0  0  0  0  0  0  0  0  0  0
  190.7870  176.3630  146.0310 C   0  0  0  0  0  0  0  0  0  0  0  0
  192.6810  175.1410  144.9250 C   0  0  2  0  0  3  0  0  0  0  0  0
  189.9420  175.2310  144.1070 N   0  0  0  0  0  0  0  0  0  0  0  0
  185.2670  177.3070  144.7140 C   0  0  0  0  0  3  0  0  0  0  0  0
  189.1440  177.7930  142.6560 O   0  0  0  0  0  0  0  0  0  0  0  0
  188.6960  176.9440  145.5610 C   0  0  0  0  0  0  0  0  0  0  0  0
  187.5120  177.0920  144.9370 C   0  0  0  0  0  0  0  0  0  0  0  0
  189.8910  176.2770  145.0620 C   0  0  0  0  0  0  0  0  0  0  0  0
  190.8650  174.2920  143.4150 C   0  0  2  0  0  3  0  0  0  0  0  0
  189.6340  173.8050  143.7840 C   0  0  2  0  0  3  0  0  0  0  0  0
  188.0980  177.1140  142.4680 C   0  0  0  0  0  0  0  0  0  0  0  0
  190.2050  177.1170  147.1410 C   0  0  0  0  0  2  0  0  0  0  0  0
  186.2610  177.4820  145.5680 C   0  0  0  0  0  0  0  0  0  0  0  0
  191.9360  173.8970  144.4210 C   0  0  0  0  0  2  0  0  0  0  0  0
  187.7090  176.7500  141.0730 C   0  0  0  0  0  2  0  0  0  0  0  0
  187.1150  177.8420  140.4410 O   0  0  0  0  0  1  0  0  0  0  0  0
  194.6260  175.7140  146.2710 N   0  0  0  0  0  1  0  0  0  0  0  0
  194.1020  174.7660  145.3040 C   0  0  0  0  0  2  0  0  0  0  0  0
  185.9220  178.3230  148.0020 N   0  0  0  0  0  0  0  0  0  0  0  0
  186.0730  177.9480  146.9160 C   0  0  0  0  0  0  0  0  0  0  0  0
  1  4  1  0  0  0  0
  1  9  2  0  0  0  0
  2 17  1  0  0  0  0
  4 12  1  0  0  0  0
  6  5  1  0  0  0  0
  6 17  1  0  0  0  0
  7 23  1  1  0  0  0
  7  5  1  0  0  0  0
  8 13  1  0  0  0  0
  9 18  1  0  0  0  0
 11  2  2  0  0  0  0
 12 11  1  0  0  0  0
 12 18  2  0  0  0  0
 13 11  1  0  0  0  0
 13  6  2  0  0  0  0
 14 15  1  0  0  0  0
 14  8  1  0  0  0  0
 14 19  1  1  0  0  0
 15  3  1  6  0  0  0
 15  8  1  0  0  0  0
 16 10  2  0  0  0  0
 16  4  1  0  0  0  0
 18 25  1  0  0  0  0
 19  7  1  0  0  0  0
 20 16  1  0  0  0  0
 21 20  1  0  0  0  0
 23 22  1  0  0  0  0
 25 24  3  0  0  0  0
M  END
>  <MODEL>
3

>  <REMARK>
 VINA RESULT:      -6.5      2.085      6.231
  Name = 
  3 active torsions:
  status: ('A' for Active; 'I' for Inactive)
    1  A    between atoms: C_2  and  C_21
    2  A    between atoms: C_9  and  C_11
    3  A    between atoms: C_18  and  C_23
                            x       y       z     vdW  Elec       q    Type
                         _______ _______ _______ _____ _____    ______ ____

>  <TORSDO>
F 3

$$$$
=
 OpenBabel11042418113D

 25 28  0  0  1  0  0  0  0  0999 V2000
  192.8910  173.9830  144.4490 C   0  0  0  0  0  3  0  0  0  0  0  0
  189.1690  175.4490  141.8940 N   0  0  0  0  0  0  0  0  0  0  0  0
  190.0380  175.0480  147.4740 C   0  0  0  0  0  1  0  0  0  0  0  0
  191.8810  175.0370  144.5000 N   0  0  0  0  0  0  0  0  0  0  0  0
  186.8790  177.2670  143.9900 O   0  0  0  0  0  0  0  0  0  0  0  0
  188.0010  176.6340  143.4300 C   0  0  0  0  0  0  0  0  0  0  0  0
  186.8690  177.9160  145.2670 C   0  0  2  0  0  3  0  0  0  0  0  0
  189.1090  176.1540  145.4890 N   0  0  0  0  0  0  0  0  0  0  0  0
  192.7030  173.3350  143.1080 C   0  0  0  0  0  3  0  0  0  0  0  0
  191.7650  177.3760  144.6200 O   0  0  0  0  0  0  0  0  0  0  0  0
  189.8780  175.4850  143.1300 C   0  0  2  0  0  3  0  0  0  0  0  0
  191.0630  174.8810  143.3390 C   0  0  0  0  0  0  0  0  0  0  0  0
  189.0960  176.2690  144.0760 C   0  0  0  0  0  0  0  0  0  0  0  0
  188.4760  176.6660  146.7340 C   0  0  2  0  0  3  0  0  0  0  0  0
  188.7770  175.3250  146.6870 C   0  0  2  0  0  3  0  0  0  0  0  0
  192.1870  176.2980  145.1190 C   0  0  0  0  0  0  0  0  0  0  0  0
  188.0800  176.1320  142.0580 C   0  0  0  0  0  3  0  0  0  0  0  0
  191.6620  173.8640  142.4890 C   0  0  0  0  0  0  0  0  0  0  0  0
  187.0070  176.9100  146.4190 C   0  0  0  0  0  2  0  0  0  0  0  0
  193.0810  176.3510  146.3150 C   0  0  0  0  0  2  0  0  0  0  0  0
  194.2170  177.1090  146.0300 O   0  0  0  0  0  1  0  0  0  0  0  0
  184.5700  177.8530  146.0660 N   0  0  0  0  0  1  0  0  0  0  0  0
  185.5680  178.6840  145.4150 C   0  0  0  0  0  2  0  0  0  0  0  0
  190.8400  173.0860  140.1520 N   0  0  0  0  0  0  0  0  0  0  0  0
  191.2060  173.4320  141.1940 C   0  0  0  0  0  0  0  0  0  0  0  0
  1  4  1  0  0  0  0
  2 17  2  0  0  0  0
  2 11  1  0  0  0  0
  4 16  1  0  0  0  0
  5  7  1  0  0  0  0
  6  5  1  0  0  0  0
  6 13  2  0  0  0  0
  7 23  1  1  0  0  0
  7 19  1  0  0  0  0
  8 15  1  0  0  0  0
  8 14  1  0  0  0  0
  9  1  2  0  0  0  0
 10 16  2  0  0  0  0
 11 12  1  1  0  0  0
 11 13  1  0  0  0  0
 12  4  1  0  0  0  0
 13  8  1  0  0  0  0
 14 19  1  6  0  0  0
 15 14  1  0  0  0  0
 15  3  1  1  0  0  0
 16 20  1  0  0  0  0
 17  6  1  0  0  0  0
 18  9  1  0  0  0  0
 18 12  2  0  0  0  0
 21 20  1  0  0  0  0
 23 22  1  0  0  0  0
 24 25  3  0  0  0  0
 25 18  1  0  0  0  0
M  END
>  <MODEL>
4

>  <REMARK>
 VINA RESULT:      -6.3      1.296      1.443
  Name = 
  3 active torsions:
  status: ('A' for Active; 'I' for Inactive)
    1  A    between atoms: C_2  and  C_21
    2  A    between atoms: C_9  and  C_11
    3  A    between atoms: C_18  and  C_23
                            x       y       z     vdW  Elec       q    Type
                         _______ _______ _______ _____ _____    ______ ____

>  <TORSDO>
F 3

$$$$
=
 OpenBabel11042418113D

 25 28  0  0  1  0  0  0  0  0999 V2000
  185.9760  179.4680  145.0210 C   0  0  0  0  0  3  0  0  0  0  0  0
  187.0780  175.9970  141.9760 N   0  0  0  0  0  0  0  0  0  0  0  0
  189.6850  177.9860  146.5920 C   0  0  0  0  0  1  0  0  0  0  0  0
  186.5420  178.1220  145.0600 N   0  0  0  0  0  0  0  0  0  0  0  0
  189.6320  173.8920  143.3850 O   0  0  0  0  0  0  0  0  0  0  0  0
  188.5850  174.8040  143.1730 C   0  0  0  0  0  0  0  0  0  0  0  0
  190.2140  173.6100  144.6640 C   0  0  2  0  0  3  0  0  0  0  0  0
  189.0100  176.1690  145.0850 N   0  0  0  0  0  0  0  0  0  0  0  0
  185.5130  179.6490  143.6040 C   0  0  0  0  0  3  0  0  0  0  0  0
  186.1360  176.0580  146.0990 O   0  0  0  0  0  0  0  0  0  0  0  0
  187.2210  176.5530  143.2810 C   0  0  1  0  0  3  0  0  0  0  0  0
  186.5570  177.6410  143.7160 C   0  0  0  0  0  0  0  0  0  0  0  0
  188.1850  175.7430  144.0140 C   0  0  0  0  0  0  0  0  0  0  0  0
  190.0950  175.7290  146.0020 C   0  0  2  0  0  3  0  0  0  0  0  0
  190.1570  177.0190  145.5290 C   0  0  2  0  0  3  0  0  0  0  0  0
  186.3510  177.2950  146.2210 C   0  0  0  0  0  0  0  0  0  0  0  0
  187.8610  174.9660  141.9130 C   0  0  0  0  0  3  0  0  0  0  0  0
  185.8480  178.5960  142.8790 C   0  0  0  0  0  0  0  0  0  0  0  0
  191.0070  174.8080  145.2060 C   0  0  0  0  0  2  0  0  0  0  0  0
  186.3220  177.9060  147.5840 C   0  0  0  0  0  2  0  0  0  0  0  0
  185.0220  178.2990  147.9040 O   0  0  0  0  0  1  0  0  0  0  0  0
  192.5200  172.8330  144.6070 N   0  0  0  0  0  1  0  0  0  0  0  0
  191.1330  172.4100  144.5290 C   0  0  0  0  0  2  0  0  0  0  0  0
  185.3450  178.3900  140.3390 N   0  0  0  0  0  0  0  0  0  0  0  0
  185.5690  178.4820  141.4710 C   0  0  0  0  0  0  0  0  0  0  0  0
  1  4  1  0  0  0  0
  2 11  1  0  0  0  0
  4 16  1  0  0  0  0
  5  7  1  0  0  0  0
  6  5  1  0  0  0  0
  6 13  2  0  0  0  0
  7 23  1  6  0  0  0
  7 19  1  0  0  0  0
  8 15  1  0  0  0  0
  8 14  1  0  0  0  0
  9  1  2  0  0  0  0
 10 16  2  0  0  0  0
 11 12  1  1  0  0  0
 11 13  1  0  0  0  0
 12  4  1  0  0  0  0
 13  8  1  0  0  0  0
 14 19  1  6  0  0  0
 15 14  1  0  0  0  0
 15  3  1  1  0  0  0
 16 20  1  0  0  0  0
 17  2  2  0  0  0  0
 17  6  1  0  0  0  0
 18  9  1  0  0  0  0
 18 12  2  0  0  0  0
 20 21  1  0  0  0  0
 23 22  1  0  0  0  0
 24 25  3  0  0  0  0
 25 18  1  0  0  0  0
M  END
>  <MODEL>
5

>  <REMARK>
 VINA RESULT:      -6.0      2.158      5.644
  Name = 
  3 active torsions:
  status: ('A' for Active; 'I' for Inactive)
    1  A    between atoms: C_2  and  C_21
    2  A    between atoms: C_9  and  C_11
    3  A    between atoms: C_18  and  C_23
                            x       y       z     vdW  Elec       q    Type
                         _______ _______ _______ _____ _____    ______ ____

>  <TORSDO>
F 3

$$$$
=
 OpenBabel11042418113D

 25 28  0  0  1  0  0  0  0  0999 V2000
  192.4290  173.4580  142.6340 C   0  0  0  0  0  3  0  0  0  0  0  0
  192.0300  175.7800  146.7550 N   0  0  0  0  0  0  0  0  0  0  0  0
  188.8830  175.8030  142.0480 C   0  0  0  0  0  1  0  0  0  0  0  0
  191.3740  173.8650  143.5580 N   0  0  0  0  0  0  0  0  0  0  0  0
  188.7310  177.1820  147.0600 O   0  0  0  0  0  0  0  0  0  0  0  0
  189.8610  176.4260  146.7040 C   0  0  0  0  0  0  0  0  0  0  0  0
  187.4350  177.0300  146.4690 C   0  0  2  0  0  3  0  0  0  0  0  0
  189.1550  175.8950  144.4860 N   0  0  0  0  0  0  0  0  0  0  0  0
  193.7110  173.7770  143.3490 C   0  0  0  0  0  3  0  0  0  0  0  0
  189.6320  172.8990  144.7970 O   0  0  0  0  0  0  0  0  0  0  0  0
  191.3930  175.2730  145.5840 C   0  0  0  0  0  0  0  0  0  0  0  0
  192.0140  174.5320  144.6470 C   0  0  0  0  0  0  0  0  0  0  0  0
  190.0010  175.7010  145.6070 C   0  0  0  0  0  0  0  0  0  0  0  0
  187.7980  176.3510  144.0810 C   0  0  2  0  0  3  0  0  0  0  0  0
  188.8490  176.7010  143.2660 C   0  0  2  0  0  3  0  0  0  0  0  0
  190.1750  173.0800  143.6730 C   0  0  0  0  0  0  0  0  0  0  0  0
  191.1350  176.4410  147.4210 C   0  0  0  0  0  2  0  0  0  0  0  0
  193.4530  174.3830  144.4950 C   0  0  0  0  0  0  0  0  0  0  0  0
  187.4170  177.4970  145.0070 C   0  0  0  0  0  2  0  0  0  0  0  0
  189.6050  172.3970  142.4730 C   0  0  0  0  0  2  0  0  0  0  0  0
  188.2160  172.3230  142.5790 O   0  0  0  0  0  1  0  0  0  0  0  0
  185.7970  178.8300  146.4270 N   0  0  0  0  0  1  0  0  0  0  0  0
  186.4320  177.8360  147.2740 C   0  0  0  0  0  2  0  0  0  0  0  0
  195.3000  175.2140  146.1200 N   0  0  0  0  0  0  0  0  0  0  0  0
  194.4760  174.8430  145.3960 C   0  0  0  0  0  0  0  0  0  0  0  0
  1  9  2  0  0  0  0
  1  4  1  0  0  0  0
  2 17  1  0  0  0  0
  4 16  1  0  0  0  0
  4 12  1  0  0  0  0
  6  5  1  0  0  0  0
  6 17  1  0  0  0  0
  7  5  1  0  0  0  0
  7 23  1  1  0  0  0
  8 13  1  0  0  0  0
  9 18  1  0  0  0  0
 11 13  1  0  0  0  0
 11  2  2  0  0  0  0
 12 11  1  0  0  0  0
 13  6  2  0  0  0  0
 14  8  1  0  0  0  0
 14 19  1  1  0  0  0
 15  3  1  6  0  0  0
 15 14  1  0  0  0  0
 15  8  1  0  0  0  0
 16 10  2  0  0  0  0
 18 12  2  0  0  0  0
 18 25  1  0  0  0  0
 19  7  1  0  0  0  0
 20 21  1  0  0  0  0
 20 16  1  0  0  0  0
 22 23  1  0  0  0  0
 25 24  3  0  0  0  0
M  END
>  <MODEL>
6

>  <REMARK>
 VINA RESULT:      -5.9      2.524      4.520
  Name = 
  3 active torsions:
  status: ('A' for Active; 'I' for Inactive)
    1  A    between atoms: C_2  and  C_21
    2  A    between atoms: C_9  and  C_11
    3  A    between atoms: C_18  and  C_23
                            x       y       z     vdW  Elec       q    Type
                         _______ _______ _______ _____ _____    ______ ____

>  <TORSDO>
F 3

$$$$
=
 OpenBabel11042418113D

 25 28  0  0  1  0  0  0  0  0999 V2000
  192.6580  174.9060  146.0260 C   0  0  0  0  0  3  0  0  0  0  0  0
  188.9200  177.5200  147.3380 N   0  0  0  0  0  0  0  0  0  0  0  0
  190.7470  175.7550  142.2780 C   0  0  0  0  0  1  0  0  0  0  0  0
  191.2500  175.0510  145.6680 N   0  0  0  0  0  0  0  0  0  0  0  0
  186.5480  177.7130  144.6400 O   0  0  0  0  0  0  0  0  0  0  0  0
  187.5870  177.3550  145.5150 C   0  0  0  0  0  0  0  0  0  0  0  0
  186.2510  177.0340  143.4140 C   0  0  2  0  0  3  0  0  0  0  0  0
  188.9720  176.2920  143.8860 N   0  0  0  0  0  0  0  0  0  0  0  0
  192.8320  175.7530  147.2540 C   0  0  0  0  0  3  0  0  0  0  0  0
  189.3180  173.7300  145.5040 O   0  0  0  0  0  0  0  0  0  0  0  0
  189.5140  176.6580  146.3710 C   0  0  0  0  0  0  0  0  0  0  0  0
  190.7050  176.0500  146.5310 C   0  0  0  0  0  0  0  0  0  0  0  0
  188.6140  176.5710  145.2290 C   0  0  0  0  0  0  0  0  0  0  0  0
  188.4290  176.1820  142.5050 C   0  0  2  0  0  3  0  0  0  0  0  0
  189.6720  176.7530  142.6490 C   0  0  2  0  0  3  0  0  0  0  0  0
  190.5160  173.9220  145.1610 C   0  0  0  0  0  0  0  0  0  0  0  0
  187.7870  177.9180  146.8500 C   0  0  0  0  0  2  0  0  0  0  0  0
  191.7080  176.3920  147.5280 C   0  0  0  0  0  0  0  0  0  0  0  0
  187.3500  177.2460  142.3640 C   0  0  0  0  0  2  0  0  0  0  0  0
  191.1920  172.9160  144.2880 C   0  0  0  0  0  2  0  0  0  0  0  0
  190.2940  171.9090  143.9340 O   0  0  0  0  0  1  0  0  0  0  0  0
  184.2510  178.3360  143.8930 N   0  0  0  0  0  1  0  0  0  0  0  0
  184.9280  177.5480  142.8780 C   0  0  0  0  0  2  0  0  0  0  0  0
  191.4500  178.0430  149.5150 N   0  0  0  0  0  0  0  0  0  0  0  0
  191.5640  177.3070  148.6290 C   0  0  0  0  0  0  0  0  0  0  0  0
  1  9  2  0  0  0  0
  4  1  1  0  0  0  0
  4 12  1  0  0  0  0
  5  6  1  0  0  0  0
  6 17  1  0  0  0  0
  7 23  1  6  0  0  0
  7  5  1  0  0  0  0
  8 13  1  0  0  0  0
  9 18  1  0  0  0  0
 11 12  1  0  0  0  0
 11  2  2  0  0  0  0
 12 18  2  0  0  0  0
 13  6  2  0  0  0  0
 13 11  1  0  0  0  0
 14 19  1  1  0  0  0
 14 15  1  0  0  0  0
 14  8  1  0  0  0  0
 15  3  1  6  0  0  0
 15  8  1  0  0  0  0
 16 10  2  0  0  0  0
 16  4  1  0  0  0  0
 17  2  1  0  0  0  0
 18 25  1  0  0  0  0
 19  7  1  0  0  0  0
 20 16  1  0  0  0  0
 21 20  1  0  0  0  0
 23 22  1  0  0  0  0
 25 24  3  0  0  0  0
M  END
>  <MODEL>
7

>  <REMARK>
 VINA RESULT:      -5.7      2.409      4.785
  Name = 
  3 active torsions:
  status: ('A' for Active; 'I' for Inactive)
    1  A    between atoms: C_2  and  C_21
    2  A    between atoms: C_9  and  C_11
    3  A    between atoms: C_18  and  C_23
                            x       y       z     vdW  Elec       q    Type
                         _______ _______ _______ _____ _____    ______ ____

>  <TORSDO>
F 3

$$$$
=
 OpenBabel11042418113D

 25 28  0  0  1  0  0  0  0  0999 V2000
  188.5390  177.4940  146.8870 C   0  0  0  0  0  3  0  0  0  0  0  0
  187.2730  175.6270  142.7110 N   0  0  0  0  0  0  0  0  0  0  0  0
  192.3170  176.9290  144.9290 C   0  0  0  0  0  1  0  0  0  0  0  0
  189.0090  176.4610  145.9680 N   0  0  0  0  0  0  0  0  0  0  0  0
  190.1390  174.1690  141.0970 O   0  0  0  0  0  0  0  0  0  0  0  0
  189.2210  174.7050  142.0160 C   0  0  0  0  0  0  0  0  0  0  0  0
  191.4630  173.7360  141.4340 C   0  0  2  0  0  3  0  0  0  0  0  0
  190.8310  175.5140  143.5820 N   0  0  0  0  0  0  0  0  0  0  0  0
  187.2050  177.9160  146.3430 C   0  0  0  0  0  3  0  0  0  0  0  0
  189.5190  174.1710  145.9850 O   0  0  0  0  0  0  0  0  0  0  0  0
  188.2790  175.7930  143.7070 C   0  0  2  0  0  3  0  0  0  0  0  0
  188.0840  176.4250  144.8800 C   0  0  0  0  0  0  0  0  0  0  0  0
  189.5030  175.1710  143.2210 C   0  0  0  0  0  0  0  0  0  0  0  0
  192.2590  175.2100  143.3020 C   0  0  2  0  0  3  0  0  0  0  0  0
  191.9290  176.5260  143.5240 C   0  0  2  0  0  3  0  0  0  0  0  0
  189.7200  175.3170  146.4730 C   0  0  0  0  0  0  0  0  0  0  0  0
  187.8140  174.9770  141.7270 C   0  0  0  0  0  3  0  0  0  0  0  0
  186.9610  177.2910  145.2030 C   0  0  0  0  0  0  0  0  0  0  0  0
  192.3690  174.9160  141.8130 C   0  0  0  0  0  2  0  0  0  0  0  0
  190.6430  175.4600  147.6380 C   0  0  0  0  0  2  0  0  0  0  0  0
  191.8900  174.9160  147.3300 O   0  0  0  0  0  1  0  0  0  0  0  0
  191.2450  173.2340  139.0620 N   0  0  0  0  0  1  0  0  0  0  0  0
  192.0540  173.0000  140.2450 C   0  0  0  0  0  2  0  0  0  0  0  0
  184.8170  177.6790  143.7910 N   0  0  0  0  0  0  0  0  0  0  0  0
  185.7730  177.5060  144.4200 C   0  0  0  0  0  0  0  0  0  0  0  0
  2 11  1  0  0  0  0
  4 16  1  0  0  0  0
  4  1  1  0  0  0  0
  5  7  1  0  0  0  0
  5  6  1  0  0  0  0
  6 13  2  0  0  0  0
  7 23  1  6  0  0  0
  7 19  1  0  0  0  0
  9  1  2  0  0  0  0
 10 16  2  0  0  0  0
 11 12  1  6  0  0  0
 12 18  2  0  0  0  0
 12  4  1  0  0  0  0
 13  8  1  0  0  0  0
 13 11  1  0  0  0  0
 14 19  1  6  0  0  0
 14 15  1  0  0  0  0
 14  8  1  0  0  0  0
 15  8  1  0  0  0  0
 15  3  1  1  0  0  0
 16 20  1  0  0  0  0
 17  6  1  0  0  0  0
 17  2  2  0  0  0  0
 18  9  1  0  0  0  0
 21 20  1  0  0  0  0
 22 23  1  0  0  0  0
 24 25  3  0  0  0  0
 25 18  1  0  0  0  0
M  END
>  <MODEL>
8

>  <REMARK>
 VINA RESULT:      -5.7      1.979      5.680
  Name = 
  3 active torsions:
  status: ('A' for Active; 'I' for Inactive)
    1  A    between atoms: C_2  and  C_21
    2  A    between atoms: C_9  and  C_11
    3  A    between atoms: C_18  and  C_23
                            x       y       z     vdW  Elec       q    Type
                         _______ _______ _______ _____ _____    ______ ____

>  <TORSDO>
F 3

$$$$
=
 OpenBabel11042418113D

 25 28  0  0  1  0  0  0  0  0999 V2000
  192.9860  176.4200  146.6280 C   0  0  0  0  0  3  0  0  0  0  0  0
  193.9020  175.3010  142.1070 N   0  0  0  0  0  0  0  0  0  0  0  0
  189.7510  173.7770  145.6430 C   0  0  0  0  0  1  0  0  0  0  0  0
  192.2470  176.2150  145.3850 N   0  0  0  0  0  0  0  0  0  0  0  0
  190.9920  173.8250  140.5930 O   0  0  0  0  0  0  0  0  0  0  0  0
  191.8910  174.5250  141.4140 C   0  0  0  0  0  0  0  0  0  0  0  0
  189.5840  173.7230  140.8350 C   0  0  2  0  0  3  0  0  0  0  0  0
  190.6090  174.3780  143.4230 N   0  0  0  0  0  0  0  0  0  0  0  0
  194.4320  176.3940  146.2260 C   0  0  0  0  0  3  0  0  0  0  0  0
  190.7400  177.3680  144.0070 O   0  0  0  0  0  0  0  0  0  0  0  0
  192.9410  175.4230  143.1530 C   0  0  2  0  0  3  0  0  0  0  0  0
  193.2140  175.9170  144.3760 C   0  0  0  0  0  0  0  0  0  0  0  0
  191.6660  174.9280  142.6540 C   0  0  0  0  0  0  0  0  0  0  0  0
  189.2690  173.7410  143.3250 C   0  0  2  0  0  3  0  0  0  0  0  0
  190.1300  173.2490  144.2770 C   0  0  2  0  0  3  0  0  0  0  0  0
  191.0170  176.9210  145.1540 C   0  0  0  0  0  0  0  0  0  0  0  0
  193.2910  174.7920  141.0840 C   0  0  0  0  0  3  0  0  0  0  0  0
  194.5400  176.1120  144.9390 C   0  0  0  0  0  0  0  0  0  0  0  0
  189.2790  172.8710  142.0760 C   0  0  0  0  0  2  0  0  0  0  0  0
  190.0890  177.2080  146.2890 C   0  0  0  0  0  2  0  0  0  0  0  0
  188.8060  177.4650  145.8050 O   0  0  0  0  0  1  0  0  0  0  0  0
  188.2690  174.1370  138.8290 N   0  0  0  0  0  1  0  0  0  0  0  0
  188.9210  173.1060  139.6180 C   0  0  0  0  0  2  0  0  0  0  0  0
  196.8180  175.8820  143.7120 N   0  0  0  0  0  0  0  0  0  0  0  0
  195.8020  175.9850  144.2590 C   0  0  0  0  0  0  0  0  0  0  0  0
  2 11  1  0  0  0  0
  4  1  1  0  0  0  0
  5  7  1  0  0  0  0
  5  6  1  0  0  0  0
  6 13  2  0  0  0  0
  7 23  1  6  0  0  0
  7 19  1  0  0  0  0
  8 15  1  0  0  0  0
  9  1  2  0  0  0  0
 10 16  2  0  0  0  0
 11 12  1  1  0  0  0
 12 18  2  0  0  0  0
 12  4  1  0  0  0  0
 13 11  1  0  0  0  0
 13  8  1  0  0  0  0
 14 19  1  6  0  0  0
 14  8  1  0  0  0  0
 14 15  1  0  0  0  0
 15  3  1  1  0  0  0
 16  4  1  0  0  0  0
 16 20  1  0  0  0  0
 17  6  1  0  0  0  0
 17  2  2  0  0  0  0
 18  9  1  0  0  0  0
 21 20  1  0  0  0  0
 22 23  1  0  0  0  0
 24 25  3  0  0  0  0
 25 18  1  0  0  0  0
M  END
>  <MODEL>
9

>  <REMARK>
 VINA RESULT:      -5.7      3.146      5.915
  Name = 
  3 active torsions:
  status: ('A' for Active; 'I' for Inactive)
    1  A    between atoms: C_2  and  C_21
    2  A    between atoms: C_9  and  C_11
    3  A    between atoms: C_18  and  C_23
                            x       y       z     vdW  Elec       q    Type
                         _______ _______ _______ _____ _____    ______ ____

>  <TORSDO>
F 3

$$$$
