=
 OpenBabel11042417193D

 26 30  0  0  1  0  0  0  0  0999 V2000
  191.5550  175.7740  147.0730 C   0  0  0  0  0  2  0  0  0  0  0  0
  191.1380  176.1210  144.5850 C   0  0  0  0  0  0  0  0  0  0  0  0
  192.3990  176.4210  144.4580 N   0  0  0  0  0  0  0  0  0  0  0  0
  192.8720  176.4330  146.8150 C   0  0  0  0  0  3  0  0  0  0  0  0
  190.3570  176.0280  143.3850 N   0  0  0  0  0  2  0  0  0  0  0  0
  190.5080  176.0720  145.9750 C   0  0  1  0  0  3  0  0  0  0  0  0
  193.2660  176.6800  145.5690 C   0  0  0  0  0  3  0  0  0  0  0  0
  188.9070  174.7440  147.3060 C   0  0  0  0  0  2  0  0  0  0  0  0
  188.1130  175.8530  146.6910 N   0  0  0  0  0  0  0  0  0  0  0  0
  189.2600  175.1580  146.0340 C   0  0  1  0  0  3  0  0  0  0  0  0
  186.1400  178.9180  147.3130 N   0  0  0  0  0  0  0  0  0  0  0  0
  187.4500  178.2680  147.0650 C   0  0  2  0  0  3  0  0  0  0  0  0
  185.8160  176.4790  146.3800 C   0  0  0  0  0  3  0  0  0  0  0  0
  187.0860  176.8360  146.7160 C   0  0  0  0  0  0  0  0  0  0  0  0
  184.8200  178.6680  146.8880 C   0  0  0  0  0  3  0  0  0  0  0  0
  184.6550  177.4290  146.4120 C   0  0  0  0  0  3  0  0  0  0  0  0
  187.1620  178.6100  148.3590 C   0  0  0  0  0  2  0  0  0  0  0  0
  188.9100  176.1610  143.3100 C   0  0  0  0  0  2  0  0  0  0  0  0
  188.5190  176.5280  141.9600 N   0  0  0  0  0  2  0  0  0  0  0  0
  187.8200  177.7970  142.0560 C   0  0  0  0  0  2  0  0  0  0  0  0
  185.4600  177.1470  142.5310 C   0  0  0  0  0  2  0  0  0  0  0  0
  186.7500  177.7180  143.1290 C   0  0  2  0  0  3  0  0  0  0  0  0
  184.5380  178.2760  142.7610 C   0  0  0  0  0  0  0  0  0  0  0  0
  183.3210  178.2910  142.4360 O   0  0  0  0  0  0  0  0  0  0  0  0
  186.4010  179.0630  143.5880 N   0  0  0  0  0  0  0  0  0  0  0  0
  185.1850  179.3600  143.3860 N   0  0  0  0  0  0  0  0  0  0  0  0
  2  6  1  0  0  0  0
  3  2  2  0  0  0  0
  3  7  1  0  0  0  0
  4  1  1  0  0  0  0
  5  2  1  0  0  0  0
  6 10  1  0  0  0  0
  6  1  1  1  0  0  0
  7  4  2  0  0  0  0
  9 14  1  0  0  0  0
  9  8  1  0  0  0  0
 10  9  1  0  0  0  0
 10  8  1  1  0  0  0
 11 17  1  0  0  0  0
 12 11  1  0  0  0  0
 12 17  1  1  0  0  0
 13 16  1  0  0  0  0
 13 14  2  0  0  0  0
 14 12  1  0  0  0  0
 15 11  1  0  0  0  0
 16 15  2  0  0  0  0
 18  5  1  0  0  0  0
 19 20  1  0  0  0  0
 19 18  1  0  0  0  0
 21 23  1  0  0  0  0
 21 22  1  0  0  0  0
 22 20  1  6  0  0  0
 22 25  1  0  0  0  0
 23 26  1  0  0  0  0
 24 23  2  0  0  0  0
 26 25  2  0  0  0  0
M  END
>  <MODEL>
1

>  <REMARK>
 VINA RESULT:      -6.9      0.000      0.000
  Name = 
  6 active torsions:
  status: ('A' for Active; 'I' for Inactive)
    1  A    between atoms: C_3  and  C_26
    2  A    between atoms: C_10  and  N_20
    3  A    between atoms: N_15  and  C_17
    4  A    between atoms: C_17  and  N_18
    5  A    between atoms: N_18  and  C_26
    6  A    between atoms: C_21  and  C_22
                            x       y       z     vdW  Elec       q    Type
                         _______ _______ _______ _____ _____    ______ ____

>  <TORSDO>
F 6

$$$$
=
 OpenBabel11042417193D

 26 30  0  0  1  0  0  0  0  0999 V2000
  187.7800  174.3240  141.9870 C   0  0  0  0  0  2  0  0  0  0  0  0
  189.9670  175.5320  142.4790 C   0  0  0  0  0  0  0  0  0  0  0  0
  190.5790  174.3910  142.3470 N   0  0  0  0  0  0  0  0  0  0  0  0
  188.5750  173.0730  142.1780 C   0  0  0  0  0  3  0  0  0  0  0  0
  190.7790  176.7010  142.6620 N   0  0  0  0  0  2  0  0  0  0  0  0
  188.4470  175.5640  142.6260 C   0  0  1  0  0  3  0  0  0  0  0  0
  189.8990  173.1300  142.2940 C   0  0  0  0  0  3  0  0  0  0  0  0
  186.6910  176.7920  141.4000 C   0  0  0  0  0  2  0  0  0  0  0  0
  186.5150  177.1510  142.8420 N   0  0  0  0  0  0  0  0  0  0  0  0
  187.8290  176.9100  142.1760 C   0  0  1  0  0  3  0  0  0  0  0  0
  184.2510  178.7900  145.2630 N   0  0  0  0  0  0  0  0  0  0  0  0
  184.6340  178.5080  143.8590 C   0  0  2  0  0  3  0  0  0  0  0  0
  185.9180  176.7580  145.1340 C   0  0  0  0  0  3  0  0  0  0  0  0
  185.7190  177.4530  143.9810 C   0  0  0  0  0  0  0  0  0  0  0  0
  184.3160  178.0590  146.4670 C   0  0  0  0  0  3  0  0  0  0  0  0
  185.1610  177.0260  146.4010 C   0  0  0  0  0  3  0  0  0  0  0  0
  184.9930  179.7290  144.3680 C   0  0  0  0  0  2  0  0  0  0  0  0
  190.3360  177.9490  143.2660 C   0  0  0  0  0  2  0  0  0  0  0  0
  190.7430  177.9910  144.6600 N   0  0  0  0  0  2  0  0  0  0  0  0
  189.5890  177.5940  145.4470 C   0  0  0  0  0  2  0  0  0  0  0  0
  191.4500  176.1180  146.2080 C   0  0  0  0  0  2  0  0  0  0  0  0
  189.9840  176.5040  146.4270 C   0  0  2  0  0  3  0  0  0  0  0  0
  191.2990  174.6920  145.8530 C   0  0  0  0  0  0  0  0  0  0  0  0
  192.2490  173.9140  145.5770 O   0  0  0  0  0  0  0  0  0  0  0  0
  189.2180  175.2860  146.1570 N   0  0  0  0  0  0  0  0  0  0  0  0
  189.9470  174.2970  145.8460 N   0  0  0  0  0  0  0  0  0  0  0  0
  1  4  1  0  0  0  0
  2  6  1  0  0  0  0
  2  5  1  0  0  0  0
  3  2  2  0  0  0  0
  4  7  2  0  0  0  0
  5 18  1  0  0  0  0
  6  1  1  6  0  0  0
  7  3  1  0  0  0  0
  8  9  1  0  0  0  0
  9 14  1  0  0  0  0
 10  8  1  6  0  0  0
 10  6  1  0  0  0  0
 10  9  1  0  0  0  0
 11 15  1  0  0  0  0
 12 14  1  0  0  0  0
 12 17  1  1  0  0  0
 12 11  1  0  0  0  0
 13 16  1  0  0  0  0
 14 13  2  0  0  0  0
 16 15  2  0  0  0  0
 17 11  1  0  0  0  0
 18 19  1  0  0  0  0
 19 20  1  0  0  0  0
 21 22  1  0  0  0  0
 22 20  1  6  0  0  0
 23 21  1  0  0  0  0
 24 23  2  0  0  0  0
 25 22  1  0  0  0  0
 26 23  1  0  0  0  0
 26 25  2  0  0  0  0
M  END
>  <MODEL>
2

>  <REMARK>
 VINA RESULT:      -6.7      2.738      5.092
  Name = 
  6 active torsions:
  status: ('A' for Active; 'I' for Inactive)
    1  A    between atoms: C_3  and  C_26
    2  A    between atoms: C_10  and  N_20
    3  A    between atoms: N_15  and  C_17
    4  A    between atoms: C_17  and  N_18
    5  A    between atoms: N_18  and  C_26
    6  A    between atoms: C_21  and  C_22
                            x       y       z     vdW  Elec       q    Type
                         _______ _______ _______ _____ _____    ______ ____

>  <TORSDO>
F 6

$$$$
=
 OpenBabel11042417193D

 26 30  0  0  1  0  0  0  0  0999 V2000
  191.3510  176.0410  147.1180 C   0  0  0  0  0  2  0  0  0  0  0  0
  191.6840  174.3860  145.2120 C   0  0  0  0  0  0  0  0  0  0  0  0
  192.9670  174.5780  145.3250 N   0  0  0  0  0  0  0  0  0  0  0  0
  192.7930  176.3780  146.9090 C   0  0  0  0  0  3  0  0  0  0  0  0
  191.2460  173.3750  144.2940 N   0  0  0  0  0  2  0  0  0  0  0  0
  190.7120  175.3470  145.8940 C   0  0  1  0  0  3  0  0  0  0  0  0
  193.5430  175.6400  146.0970 C   0  0  0  0  0  3  0  0  0  0  0  0
  188.9380  174.7640  147.5100 C   0  0  0  0  0  2  0  0  0  0  0  0
  188.3200  175.7300  146.5490 N   0  0  0  0  0  0  0  0  0  0  0  0
  189.3370  174.6990  146.1870 C   0  0  1  0  0  3  0  0  0  0  0  0
  186.0670  178.6570  146.7310 N   0  0  0  0  0  0  0  0  0  0  0  0
  187.2270  177.9010  147.2610 C   0  0  2  0  0  3  0  0  0  0  0  0
  186.9070  176.8770  144.9840 C   0  0  0  0  0  3  0  0  0  0  0  0
  187.4590  176.8160  146.2260 C   0  0  0  0  0  0  0  0  0  0  0  0
  185.5280  178.8590  145.4440 C   0  0  0  0  0  3  0  0  0  0  0  0
  185.9560  177.9560  144.5560 C   0  0  0  0  0  3  0  0  0  0  0  0
  186.0420  177.7740  147.9360 C   0  0  0  0  0  2  0  0  0  0  0  0
  189.9250  173.3060  143.6850 C   0  0  0  0  0  2  0  0  0  0  0  0
  190.0520  173.2990  142.2380 N   0  0  0  0  0  2  0  0  0  0  0  0
  190.1890  174.6840  141.8220 C   0  0  0  0  0  2  0  0  0  0  0  0
  187.9070  175.6540  141.5560 C   0  0  0  0  0  2  0  0  0  0  0  0
  189.1180  175.5300  142.4860 C   0  0  2  0  0  3  0  0  0  0  0  0
  187.8710  177.1170  141.3590 C   0  0  0  0  0  0  0  0  0  0  0  0
  187.0270  177.7280  140.6530 O   0  0  0  0  0  0  0  0  0  0  0  0
  189.6050  176.8980  142.6710 N   0  0  0  0  0  0  0  0  0  0  0  0
  188.9140  177.7620  142.0530 N   0  0  0  0  0  0  0  0  0  0  0  0
  2  3  2  0  0  0  0
  2  6  1  0  0  0  0
  3  7  1  0  0  0  0
  4  1  1  0  0  0  0
  5  2  1  0  0  0  0
  6 10  1  0  0  0  0
  6  1  1  1  0  0  0
  7  4  2  0  0  0  0
  9  8  1  0  0  0  0
 10  9  1  0  0  0  0
 10  8  1  1  0  0  0
 11 12  1  0  0  0  0
 11 17  1  0  0  0  0
 12 17  1  1  0  0  0
 13 14  2  0  0  0  0
 14  9  1  0  0  0  0
 14 12  1  0  0  0  0
 15 11  1  0  0  0  0
 16 13  1  0  0  0  0
 16 15  2  0  0  0  0
 18  5  1  0  0  0  0
 19 18  1  0  0  0  0
 20 19  1  0  0  0  0
 21 22  1  0  0  0  0
 22 20  1  6  0  0  0
 22 25  1  0  0  0  0
 23 21  1  0  0  0  0
 23 26  1  0  0  0  0
 24 23  2  0  0  0  0
 26 25  2  0  0  0  0
M  END
>  <MODEL>
3

>  <REMARK>
 VINA RESULT:      -6.6      1.778      2.457
  Name = 
  6 active torsions:
  status: ('A' for Active; 'I' for Inactive)
    1  A    between atoms: C_3  and  C_26
    2  A    between atoms: C_10  and  N_20
    3  A    between atoms: N_15  and  C_17
    4  A    between atoms: C_17  and  N_18
    5  A    between atoms: N_18  and  C_26
    6  A    between atoms: C_21  and  C_22
                            x       y       z     vdW  Elec       q    Type
                         _______ _______ _______ _____ _____    ______ ____

>  <TORSDO>
F 6

$$$$
=
 OpenBabel11042417193D

 26 30  0  0  1  0  0  0  0  0999 V2000
  188.2750  175.6800  142.8310 C   0  0  0  0  0  2  0  0  0  0  0  0
  190.0680  174.4930  144.1960 C   0  0  0  0  0  0  0  0  0  0  0  0
  190.1720  173.6280  143.2290 N   0  0  0  0  0  0  0  0  0  0  0  0
  188.2930  174.4540  141.9760 C   0  0  0  0  0  3  0  0  0  0  0  0
  191.0020  174.3880  145.2800 N   0  0  0  0  0  2  0  0  0  0  0  0
  188.8720  175.4420  144.2380 C   0  0  1  0  0  3  0  0  0  0  0  0
  189.2300  173.5270  142.1530 C   0  0  0  0  0  3  0  0  0  0  0  0
  189.3800  177.8580  144.2330 C   0  0  0  0  0  2  0  0  0  0  0  0
  188.0440  177.7190  144.8920 N   0  0  0  0  0  0  0  0  0  0  0  0
  189.1670  176.7430  145.0230 C   0  0  1  0  0  3  0  0  0  0  0  0
  184.6540  178.1120  146.3160 N   0  0  0  0  0  0  0  0  0  0  0  0
  186.0940  177.8110  146.5050 C   0  0  2  0  0  3  0  0  0  0  0  0
  186.0590  178.8990  144.2350 C   0  0  0  0  0  3  0  0  0  0  0  0
  186.7170  178.1520  145.1630 C   0  0  0  0  0  0  0  0  0  0  0  0
  183.9320  178.9700  145.4630 C   0  0  0  0  0  3  0  0  0  0  0  0
  184.6460  179.3720  144.4060 C   0  0  0  0  0  3  0  0  0  0  0  0
  185.2360  176.7430  146.4580 C   0  0  0  0  0  2  0  0  0  0  0  0
  190.7980  174.9170  146.6210 C   0  0  0  0  0  2  0  0  0  0  0  0
  192.0790  175.2580  147.2140 N   0  0  0  0  0  2  0  0  0  0  0  0
  192.6100  176.3760  146.4530 C   0  0  0  0  0  2  0  0  0  0  0  0
  194.6880  177.3490  145.4780 C   0  0  0  0  0  2  0  0  0  0  0  0
  194.1270  176.3610  146.5050 C   0  0  2  0  0  3  0  0  0  0  0  0
  195.4640  176.4290  144.6210 C   0  0  0  0  0  0  0  0  0  0  0  0
  196.1290  176.7750  143.6100 O   0  0  0  0  0  0  0  0  0  0  0  0
  194.6290  175.0480  146.0950 N   0  0  0  0  0  0  0  0  0  0  0  0
  195.3640  175.0950  145.0640 N   0  0  0  0  0  0  0  0  0  0  0  0
  2  6  1  0  0  0  0
  2  5  1  0  0  0  0
  3  2  2  0  0  0  0
  4  7  2  0  0  0  0
  4  1  1  0  0  0  0
  5 18  1  0  0  0  0
  6  1  1  6  0  0  0
  6 10  1  0  0  0  0
  7  3  1  0  0  0  0
  8  9  1  0  0  0  0
  9 10  1  0  0  0  0
  9 14  1  0  0  0  0
 10  8  1  6  0  0  0
 11 17  1  0  0  0  0
 11 12  1  0  0  0  0
 12 17  1  6  0  0  0
 13 16  1  0  0  0  0
 13 14  2  0  0  0  0
 14 12  1  0  0  0  0
 15 11  1  0  0  0  0
 16 15  2  0  0  0  0
 18 19  1  0  0  0  0
 20 19  1  0  0  0  0
 21 22  1  0  0  0  0
 22 20  1  6  0  0  0
 23 26  1  0  0  0  0
 23 21  1  0  0  0  0
 24 23  2  0  0  0  0
 25 22  1  0  0  0  0
 26 25  2  0  0  0  0
M  END
>  <MODEL>
4

>  <REMARK>
 VINA RESULT:      -6.6      3.250      6.172
  Name = 
  6 active torsions:
  status: ('A' for Active; 'I' for Inactive)
    1  A    between atoms: C_3  and  C_26
    2  A    between atoms: C_10  and  N_20
    3  A    between atoms: N_15  and  C_17
    4  A    between atoms: C_17  and  N_18
    5  A    between atoms: N_18  and  C_26
    6  A    between atoms: C_21  and  C_22
                            x       y       z     vdW  Elec       q    Type
                         _______ _______ _______ _____ _____    ______ ____

>  <TORSDO>
F 6

$$$$
=
 OpenBabel11042417193D

 26 30  0  0  1  0  0  0  0  0999 V2000
  187.7880  174.3770  141.9340 C   0  0  0  0  0  2  0  0  0  0  0  0
  190.1250  175.2560  142.4340 C   0  0  0  0  0  0  0  0  0  0  0  0
  190.5790  174.0570  142.2070 N   0  0  0  0  0  0  0  0  0  0  0  0
  188.4170  173.0230  142.0160 C   0  0  0  0  0  3  0  0  0  0  0  0
  191.0880  176.2940  142.6660 N   0  0  0  0  0  2  0  0  0  0  0  0
  188.6270  175.4730  142.6320 C   0  0  1  0  0  3  0  0  0  0  0  0
  189.7390  172.9010  142.0920 C   0  0  0  0  0  3  0  0  0  0  0  0
  187.1230  176.9990  141.4050 C   0  0  0  0  0  2  0  0  0  0  0  0
  186.8310  177.2110  142.8570 N   0  0  0  0  0  0  0  0  0  0  0  0
  188.1800  176.9160  142.2920 C   0  0  1  0  0  3  0  0  0  0  0  0
  184.3320  178.7070  145.1360 N   0  0  0  0  0  0  0  0  0  0  0  0
  184.8140  178.4510  143.7580 C   0  0  2  0  0  3  0  0  0  0  0  0
  186.1230  176.7790  145.1100 C   0  0  0  0  0  3  0  0  0  0  0  0
  185.9510  177.4630  143.9470 C   0  0  0  0  0  0  0  0  0  0  0  0
  184.3680  177.9790  146.3430 C   0  0  0  0  0  3  0  0  0  0  0  0
  185.2760  176.9990  146.3300 C   0  0  0  0  0  3  0  0  0  0  0  0
  185.0680  179.6900  144.2840 C   0  0  0  0  0  2  0  0  0  0  0  0
  190.8260  177.5430  143.3660 C   0  0  0  0  0  2  0  0  0  0  0  0
  191.0560  177.3660  144.7890 N   0  0  0  0  0  2  0  0  0  0  0  0
  192.3150  176.6560  144.9260 C   0  0  0  0  0  2  0  0  0  0  0  0
  191.0130  174.8000  145.9650 C   0  0  0  0  0  2  0  0  0  0  0  0
  192.2440  175.7010  146.1040 C   0  0  2  0  0  3  0  0  0  0  0  0
  190.2750  175.1670  147.1900 C   0  0  0  0  0  0  0  0  0  0  0  0
  189.1670  174.6800  147.5370 O   0  0  0  0  0  0  0  0  0  0  0  0
  192.0370  176.4500  147.3440 N   0  0  0  0  0  0  0  0  0  0  0  0
  190.9570  176.1490  147.9350 N   0  0  0  0  0  0  0  0  0  0  0  0
  1  4  1  0  0  0  0
  2  6  1  0  0  0  0
  2  5  1  0  0  0  0
  3  2  2  0  0  0  0
  4  7  2  0  0  0  0
  5 18  1  0  0  0  0
  6  1  1  6  0  0  0
  7  3  1  0  0  0  0
  8  9  1  0  0  0  0
  9 14  1  0  0  0  0
 10  8  1  6  0  0  0
 10  6  1  0  0  0  0
 10  9  1  0  0  0  0
 11 15  1  0  0  0  0
 12 14  1  0  0  0  0
 12 17  1  1  0  0  0
 12 11  1  0  0  0  0
 13 16  1  0  0  0  0
 14 13  2  0  0  0  0
 16 15  2  0  0  0  0
 17 11  1  0  0  0  0
 18 19  1  0  0  0  0
 19 20  1  0  0  0  0
 21 22  1  0  0  0  0
 21 23  1  0  0  0  0
 22 20  1  6  0  0  0
 22 25  1  0  0  0  0
 23 24  2  0  0  0  0
 23 26  1  0  0  0  0
 25 26  2  0  0  0  0
M  END
>  <MODEL>
5

>  <REMARK>
 VINA RESULT:      -6.5      2.531      5.215
  Name = 
  6 active torsions:
  status: ('A' for Active; 'I' for Inactive)
    1  A    between atoms: C_3  and  C_26
    2  A    between atoms: C_10  and  N_20
    3  A    between atoms: N_15  and  C_17
    4  A    between atoms: C_17  and  N_18
    5  A    between atoms: N_18  and  C_26
    6  A    between atoms: C_21  and  C_22
                            x       y       z     vdW  Elec       q    Type
                         _______ _______ _______ _____ _____    ______ ____

>  <TORSDO>
F 6

$$$$
=
 OpenBabel11042417193D

 26 30  0  0  1  0  0  0  0  0999 V2000
  183.3780  178.9270  142.7260 C   0  0  0  0  0  2  0  0  0  0  0  0
  185.0100  178.1050  140.9520 C   0  0  0  0  0  0  0  0  0  0  0  0
  183.9900  177.8970  140.1710 N   0  0  0  0  0  0  0  0  0  0  0  0
  182.3210  178.3470  141.8420 C   0  0  0  0  0  3  0  0  0  0  0  0
  186.3190  177.9150  140.3960 N   0  0  0  0  0  2  0  0  0  0  0  0
  184.7830  178.3480  142.4430 C   0  0  1  0  0  3  0  0  0  0  0  0
  182.6300  177.9160  140.6220 C   0  0  0  0  0  3  0  0  0  0  0  0
  185.5650  179.8850  144.2100 C   0  0  0  0  0  2  0  0  0  0  0  0
  186.2790  178.5910  144.4440 N   0  0  0  0  0  0  0  0  0  0  0  0
  185.9340  179.1470  143.1010 C   0  0  1  0  0  3  0  0  0  0  0  0
  186.9420  176.2680  147.2440 N   0  0  0  0  0  0  0  0  0  0  0  0
  185.9750  177.0120  146.4000 C   0  0  2  0  0  3  0  0  0  0  0  0
  188.0890  177.1320  145.0380 C   0  0  0  0  0  3  0  0  0  0  0  0
  186.8310  177.5860  145.2840 C   0  0  0  0  0  0  0  0  0  0  0  0
  188.1950  175.6670  147.0090 C   0  0  0  0  0  3  0  0  0  0  0  0
  188.7770  176.1030  145.8870 C   0  0  0  0  0  3  0  0  0  0  0  0
  186.2540  177.5370  147.6340 C   0  0  0  0  0  2  0  0  0  0  0  0
  187.5270  177.6470  141.1620 C   0  0  0  0  0  2  0  0  0  0  0  0
  187.5090  176.2780  141.6450 N   0  0  0  0  0  2  0  0  0  0  0  0
  187.9910  175.4430  140.5590 C   0  0  0  0  0  2  0  0  0  0  0  0
  188.7510  174.2790  142.6300 C   0  0  0  0  0  2  0  0  0  0  0  0
  188.5600  174.1500  141.1150 C   0  0  2  0  0  3  0  0  0  0  0  0
  190.2110  174.0790  142.7310 C   0  0  0  0  0  0  0  0  0  0  0  0
  190.8670  174.0940  143.8050 O   0  0  0  0  0  0  0  0  0  0  0  0
  189.9000  173.9190  140.5740 N   0  0  0  0  0  0  0  0  0  0  0  0
  190.7990  173.8780  141.4660 N   0  0  0  0  0  0  0  0  0  0  0  0
  2  6  1  0  0  0  0
  3  7  1  0  0  0  0
  3  2  2  0  0  0  0
  4  1  1  0  0  0  0
  5  2  1  0  0  0  0
  5 18  1  0  0  0  0
  6  1  1  6  0  0  0
  6 10  1  0  0  0  0
  7  4  2  0  0  0  0
  8  9  1  0  0  0  0
  9 14  1  0  0  0  0
 10  8  1  1  0  0  0
 10  9  1  0  0  0  0
 11 17  1  0  0  0  0
 12 11  1  0  0  0  0
 12 17  1  1  0  0  0
 13 14  2  0  0  0  0
 13 16  1  0  0  0  0
 14 12  1  0  0  0  0
 15 11  1  0  0  0  0
 16 15  2  0  0  0  0
 18 19  1  0  0  0  0
 20 19  1  0  0  0  0
 21 23  1  0  0  0  0
 22 20  1  6  0  0  0
 22 21  1  0  0  0  0
 23 24  2  0  0  0  0
 25 22  1  0  0  0  0
 25 26  2  0  0  0  0
 26 23  1  0  0  0  0
M  END
>  <MODEL>
6

>  <REMARK>
 VINA RESULT:      -6.5      2.773      6.380
  Name = 
  6 active torsions:
  status: ('A' for Active; 'I' for Inactive)
    1  A    between atoms: C_3  and  C_26
    2  A    between atoms: C_10  and  N_20
    3  A    between atoms: N_15  and  C_17
    4  A    between atoms: C_17  and  N_18
    5  A    between atoms: N_18  and  C_26
    6  A    between atoms: C_21  and  C_22
                            x       y       z     vdW  Elec       q    Type
                         _______ _______ _______ _____ _____    ______ ____

>  <TORSDO>
F 6

$$$$
=
 OpenBabel11042417193D

 26 30  0  0  1  0  0  0  0  0999 V2000
  189.6940  173.8710  143.6550 C   0  0  0  0  0  2  0  0  0  0  0  0
  187.9260  175.1390  142.3320 C   0  0  0  0  0  0  0  0  0  0  0  0
  187.5070  173.9950  141.8740 N   0  0  0  0  0  0  0  0  0  0  0  0
  189.3030  172.7000  142.8120 C   0  0  0  0  0  3  0  0  0  0  0  0
  187.1630  176.3060  141.9910 N   0  0  0  0  0  2  0  0  0  0  0  0
  189.2800  175.2250  143.0330 C   0  0  1  0  0  3  0  0  0  0  0  0
  188.2380  172.7700  142.0200 C   0  0  0  0  0  3  0  0  0  0  0  0
  189.1870  176.0910  145.3430 C   0  0  0  0  0  2  0  0  0  0  0  0
  190.5890  176.3200  144.8730 N   0  0  0  0  0  0  0  0  0  0  0  0
  189.3720  176.4200  144.0130 C   0  0  1  0  0  3  0  0  0  0  0  0
  194.2530  176.1350  144.4090 N   0  0  0  0  0  0  0  0  0  0  0  0
  192.9060  176.4160  143.8560 C   0  0  2  0  0  3  0  0  0  0  0  0
  192.4870  176.4280  146.3380 C   0  0  0  0  0  3  0  0  0  0  0  0
  191.9960  176.3720  145.0700 C   0  0  0  0  0  0  0  0  0  0  0  0
  194.8500  176.2940  145.6750 C   0  0  0  0  0  3  0  0  0  0  0  0
  193.9540  176.4460  146.6560 C   0  0  0  0  0  3  0  0  0  0  0  0
  193.4650  175.2050  143.5420 C   0  0  0  0  0  2  0  0  0  0  0  0
  187.6680  177.6710  141.9940 C   0  0  0  0  0  2  0  0  0  0  0  0
  186.5560  178.6050  142.0450 N   0  0  0  0  0  2  0  0  0  0  0  0
  185.6100  178.0780  143.0130 C   0  0  0  0  0  2  0  0  0  0  0  0
  186.2510  178.6260  145.3600 C   0  0  0  0  0  2  0  0  0  0  0  0
  185.4260  179.0700  144.1480 C   0  0  2  0  0  3  0  0  0  0  0  0
  185.1780  178.4410  146.3580 C   0  0  0  0  0  0  0  0  0  0  0  0
  185.3570  178.0730  147.5480 O   0  0  0  0  0  0  0  0  0  0  0  0
  184.0350  179.0600  144.6010 N   0  0  0  0  0  0  0  0  0  0  0  0
  183.9080  178.7170  145.8150 N   0  0  0  0  0  0  0  0  0  0  0  0
  2  6  1  0  0  0  0
  3  7  1  0  0  0  0
  3  2  2  0  0  0  0
  4  1  1  0  0  0  0
  5 18  1  0  0  0  0
  5  2  1  0  0  0  0
  6  1  1  1  0  0  0
  6 10  1  0  0  0  0
  7  4  2  0  0  0  0
  9 14  1  0  0  0  0
  9  8  1  0  0  0  0
 10  9  1  0  0  0  0
 10  8  1  1  0  0  0
 11 15  1  0  0  0  0
 12 17  1  6  0  0  0
 12 11  1  0  0  0  0
 12 14  1  0  0  0  0
 13 16  1  0  0  0  0
 14 13  2  0  0  0  0
 15 16  2  0  0  0  0
 17 11  1  0  0  0  0
 18 19  1  0  0  0  0
 19 20  1  0  0  0  0
 21 23  1  0  0  0  0
 22 20  1  6  0  0  0
 22 25  1  0  0  0  0
 22 21  1  0  0  0  0
 23 24  2  0  0  0  0
 25 26  2  0  0  0  0
 26 23  1  0  0  0  0
M  END
>  <MODEL>
7

>  <REMARK>
 VINA RESULT:      -6.3      2.153      5.448
  Name = 
  6 active torsions:
  status: ('A' for Active; 'I' for Inactive)
    1  A    between atoms: C_3  and  C_26
    2  A    between atoms: C_10  and  N_20
    3  A    between atoms: N_15  and  C_17
    4  A    between atoms: C_17  and  N_18
    5  A    between atoms: N_18  and  C_26
    6  A    between atoms: C_21  and  C_22
                            x       y       z     vdW  Elec       q    Type
                         _______ _______ _______ _____ _____    ______ ____

>  <TORSDO>
F 6

$$$$
=
 OpenBabel11042417193D

 26 30  0  0  1  0  0  0  0  0999 V2000
  189.7910  177.6620  144.6470 C   0  0  0  0  0  2  0  0  0  0  0  0
  190.9530  175.4230  144.3020 C   0  0  0  0  0  0  0  0  0  0  0  0
  191.9550  176.0710  143.7810 N   0  0  0  0  0  0  0  0  0  0  0  0
  190.8610  178.2110  143.7590 C   0  0  0  0  0  3  0  0  0  0  0  0
  191.1090  174.0100  144.4940 N   0  0  0  0  0  2  0  0  0  0  0  0
  189.6170  176.1330  144.5040 C   0  0  1  0  0  3  0  0  0  0  0  0
  191.8960  177.4540  143.4080 C   0  0  0  0  0  3  0  0  0  0  0  0
  188.9120  176.0730  146.8700 C   0  0  0  0  0  2  0  0  0  0  0  0
  187.6880  176.4220  146.0840 N   0  0  0  0  0  0  0  0  0  0  0  0
  188.7620  175.4920  145.6240 C   0  0  1  0  0  3  0  0  0  0  0  0
  184.8920  178.3680  144.6450 N   0  0  0  0  0  0  0  0  0  0  0  0
  185.9700  177.3640  144.4790 C   0  0  2  0  0  3  0  0  0  0  0  0
  185.7470  177.5120  146.9820 C   0  0  0  0  0  3  0  0  0  0  0  0
  186.4640  177.1210  145.8940 C   0  0  0  0  0  0  0  0  0  0  0  0
  184.0330  178.7240  145.7050 C   0  0  0  0  0  3  0  0  0  0  0  0
  184.4660  178.2880  146.8920 C   0  0  0  0  0  3  0  0  0  0  0  0
  186.2220  178.6280  144.0170 C   0  0  0  0  0  2  0  0  0  0  0  0
  190.0190  173.0520  144.6150 C   0  0  0  0  0  2  0  0  0  0  0  0
  190.0830  172.0950  143.5250 N   0  0  0  0  0  2  0  0  0  0  0  0
  189.0640  172.4840  142.5650 C   0  0  0  0  0  2  0  0  0  0  0  0
  188.6570  174.3610  140.9740 C   0  0  0  0  0  2  0  0  0  0  0  0
  189.6830  173.3380  141.4730 C   0  0  2  0  0  3  0  0  0  0  0  0
  188.5550  173.9630  139.5560 C   0  0  0  0  0  0  0  0  0  0  0  0
  187.8160  174.5220  138.7020 O   0  0  0  0  0  0  0  0  0  0  0  0
  190.0020  172.5100  140.3100 N   0  0  0  0  0  0  0  0  0  0  0  0
  189.3820  172.8610  139.2620 N   0  0  0  0  0  0  0  0  0  0  0  0
  2  5  1  0  0  0  0
  2  6  1  0  0  0  0
  3  2  2  0  0  0  0
  4  1  1  0  0  0  0
  5 18  1  0  0  0  0
  6  1  1  1  0  0  0
  6 10  1  0  0  0  0
  7  4  2  0  0  0  0
  7  3  1  0  0  0  0
  9  8  1  0  0  0  0
 10  9  1  0  0  0  0
 10  8  1  1  0  0  0
 11 15  1  0  0  0  0
 12 17  1  6  0  0  0
 12 11  1  0  0  0  0
 12 14  1  0  0  0  0
 14  9  1  0  0  0  0
 14 13  2  0  0  0  0
 15 16  2  0  0  0  0
 16 13  1  0  0  0  0
 17 11  1  0  0  0  0
 19 18  1  0  0  0  0
 20 19  1  0  0  0  0
 21 22  1  0  0  0  0
 22 20  1  1  0  0  0
 23 21  1  0  0  0  0
 24 23  2  0  0  0  0
 25 22  1  0  0  0  0
 26 23  1  0  0  0  0
 26 25  2  0  0  0  0
M  END
>  <MODEL>
8

>  <REMARK>
 VINA RESULT:      -6.3      2.805      4.155
  Name = 
  6 active torsions:
  status: ('A' for Active; 'I' for Inactive)
    1  A    between atoms: C_3  and  C_26
    2  A    between atoms: C_10  and  N_20
    3  A    between atoms: N_15  and  C_17
    4  A    between atoms: C_17  and  N_18
    5  A    between atoms: N_18  and  C_26
    6  A    between atoms: C_21  and  C_22
                            x       y       z     vdW  Elec       q    Type
                         _______ _______ _______ _____ _____    ______ ____

>  <TORSDO>
F 6

$$$$
=
 OpenBabel11042417193D

 26 30  0  0  1  0  0  0  0  0999 V2000
  191.9540  175.8620  146.7680 C   0  0  0  0  0  2  0  0  0  0  0  0
  191.9240  175.9330  144.2230 C   0  0  0  0  0  0  0  0  0  0  0  0
  193.2090  176.1360  144.2550 N   0  0  0  0  0  0  0  0  0  0  0  0
  193.3420  176.4030  146.6410 C   0  0  0  0  0  3  0  0  0  0  0  0
  191.3160  175.7430  142.9370 N   0  0  0  0  0  2  0  0  0  0  0  0
  191.1000  176.0910  145.5000 C   0  0  1  0  0  3  0  0  0  0  0  0
  193.9280  176.4720  145.4490 C   0  0  0  0  0  3  0  0  0  0  0  0
  189.2970  174.9230  146.7160 C   0  0  0  0  0  2  0  0  0  0  0  0
  188.6420  176.0660  146.0050 N   0  0  0  0  0  0  0  0  0  0  0  0
  189.7880  175.2700  145.4710 C   0  0  1  0  0  3  0  0  0  0  0  0
  186.0130  178.5570  146.7500 N   0  0  0  0  0  0  0  0  0  0  0  0
  187.1870  177.7660  147.1900 C   0  0  2  0  0  3  0  0  0  0  0  0
  187.2980  177.5530  144.6840 C   0  0  0  0  0  3  0  0  0  0  0  0
  187.6920  177.1200  145.9130 C   0  0  0  0  0  0  0  0  0  0  0  0
  185.6200  179.1380  145.5270 C   0  0  0  0  0  3  0  0  0  0  0  0
  186.2730  178.6290  144.4780 C   0  0  0  0  0  3  0  0  0  0  0  0
  185.9540  177.3180  147.5840 C   0  0  0  0  0  2  0  0  0  0  0  0
  189.9090  175.9570  142.6310 C   0  0  0  0  0  2  0  0  0  0  0  0
  189.4590  174.9620  141.6740 N   0  0  0  0  0  2  0  0  0  0  0  0
  188.2610  174.3570  142.2280 C   0  0  0  0  0  2  0  0  0  0  0  0
  189.0860  172.1770  143.1160 C   0  0  0  0  0  2  0  0  0  0  0  0
  188.2870  172.8560  141.9990 C   0  0  2  0  0  3  0  0  0  0  0  0
  190.1680  171.5530  142.3280 C   0  0  0  0  0  0  0  0  0  0  0  0
  191.1030  170.8620  142.8100 O   0  0  0  0  0  0  0  0  0  0  0  0
  189.0130  172.5510  140.7650 N   0  0  0  0  0  0  0  0  0  0  0  0
  190.0400  171.8340  140.9540 N   0  0  0  0  0  0  0  0  0  0  0  0
  2  3  2  0  0  0  0
  2  6  1  0  0  0  0
  3  7  1  0  0  0  0
  4  1  1  0  0  0  0
  5  2  1  0  0  0  0
  6  1  1  1  0  0  0
  7  4  2  0  0  0  0
  9  8  1  0  0  0  0
 10  6  1  0  0  0  0
 10  9  1  0  0  0  0
 10  8  1  1  0  0  0
 11 12  1  0  0  0  0
 11 17  1  0  0  0  0
 12 17  1  1  0  0  0
 13 14  2  0  0  0  0
 14  9  1  0  0  0  0
 14 12  1  0  0  0  0
 15 11  1  0  0  0  0
 16 13  1  0  0  0  0
 16 15  2  0  0  0  0
 18  5  1  0  0  0  0
 19 20  1  0  0  0  0
 19 18  1  0  0  0  0
 22 20  1  1  0  0  0
 22 21  1  0  0  0  0
 23 24  2  0  0  0  0
 23 21  1  0  0  0  0
 25 26  2  0  0  0  0
 25 22  1  0  0  0  0
 26 23  1  0  0  0  0
M  END
>  <MODEL>
9

>  <REMARK>
 VINA RESULT:      -6.2      3.026      4.148
  Name = 
  6 active torsions:
  status: ('A' for Active; 'I' for Inactive)
    1  A    between atoms: C_3  and  C_26
    2  A    between atoms: C_10  and  N_20
    3  A    between atoms: N_15  and  C_17
    4  A    between atoms: C_17  and  N_18
    5  A    between atoms: N_18  and  C_26
    6  A    between atoms: C_21  and  C_22
                            x       y       z     vdW  Elec       q    Type
                         _______ _______ _______ _____ _____    ______ ____

>  <TORSDO>
F 6

$$$$
