=
 OpenBabel11042417593D

 36 38  0  0  1  0  0  0  0  0999 V2000
  188.6240  175.3190  141.2030 C   0  0  0  0  0  0  0  0  0  0  0  0
  189.7850  173.5670  139.9870 C   0  0  0  0  0  0  0  0  0  0  0  0
  190.6940  174.4890  142.0540 C   0  0  0  0  0  0  0  0  0  0  0  0
  189.6170  175.3160  142.1300 N   0  0  0  0  0  0  0  0  0  0  0  0
  191.8720  172.7620  140.8830 F   0  0  0  0  0  0  0  0  0  0  0  0
  188.7010  174.4420  140.1190 C   0  0  0  0  0  3  0  0  0  0  0  0
  190.7990  173.5900  140.9730 C   0  0  0  0  0  0  0  0  0  0  0  0
  185.3050  177.9850  141.6940 C   0  0  0  0  0  3  0  0  0  0  0  0
  186.9570  176.4940  142.6360 C   0  0  0  0  0  3  0  0  0  0  0  0
  186.8990  176.8740  140.2500 C   0  0  0  0  0  3  0  0  0  0  0  0
  185.8170  177.7420  140.4170 C   0  0  0  0  0  3  0  0  0  0  0  0
  185.8720  177.3620  142.8170 C   0  0  0  0  0  0  0  0  0  0  0  0
  187.4810  176.2430  141.3600 C   0  0  0  0  0  0  0  0  0  0  0  0
  185.7680  176.8330  145.2650 C   0  0  0  0  0  3  0  0  0  0  0  0
  184.4190  178.5920  144.3790 N   0  0  0  0  0  0  0  0  0  0  0  0
  183.9030  178.8530  145.6100 C   0  0  0  0  0  3  0  0  0  0  0  0
  185.2490  177.0850  146.5350 C   0  0  0  0  0  3  0  0  0  0  0  0
  184.3100  178.1010  146.7140 C   0  0  0  0  0  3  0  0  0  0  0  0
  185.3380  177.6050  144.1750 C   0  0  0  0  0  0  0  0  0  0  0  0
  189.8040  172.6600  138.8100 C   0  0  0  0  0  0  0  0  0  0  0  0
  190.5500  172.9200  137.7340 C   0  0  0  0  0  3  0  0  0  0  0  0
  189.0220  171.5070  138.8360 O   0  0  0  0  0  1  0  0  0  0  0  0
  191.3400  170.3110  136.7540 C   0  0  0  0  0  1  0  0  0  0  0  0
  190.5970  171.8690  136.3270 S   0  0  0  0  0  0  0  0  0  0  0  0
  189.2040  171.6490  135.8090 O   0  0  0  0  0  0  0  0  0  0  0  0
  191.4220  172.5260  135.2570 O   0  0  0  0  0  0  0  0  0  0  0  0
  191.9020  173.6080  143.9180 O   0  0  0  0  0  0  0  0  0  0  0  0
  191.7190  174.5650  143.1200 C   0  0  0  0  0  0  0  0  0  0  0  0
  192.5420  175.8020  143.2790 C   0  0  0  0  0  2  0  0  0  0  0  0
  193.2780  177.0330  145.2010 O   0  0  0  0  0  1  0  0  0  0  0  0
  192.1450  176.5450  144.5460 C   0  0  1  0  0  3  0  0  0  0  0  0
  191.1570  177.6760  144.2590 C   0  0  0  0  0  2  0  0  0  0  0  0
  189.8060  177.4850  144.9460 C   0  0  0  0  0  2  0  0  0  0  0  0
  189.9670  176.9190  146.3500 C   0  0  0  0  0  2  0  0  0  0  0  0
  189.3830  174.6520  145.8700 O   0  0  0  0  0  1  0  0  0  0  0  0
  188.9950  175.7770  146.5990 C   0  0  0  0  0  2  0  0  0  0  0  0
  1 13  1  0  0  0  0
  1  4  1  0  0  0  0
  2  6  1  0  0  0  0
  2  7  2  0  0  0  0
  3  4  2  0  0  0  0
  3 28  1  0  0  0  0
  5  7  1  0  0  0  0
  6  1  2  0  0  0  0
  7  3  1  0  0  0  0
  8 12  1  0  0  0  0
  9 12  2  0  0  0  0
 10 11  1  0  0  0  0
 10 13  2  0  0  0  0
 11  8  2  0  0  0  0
 12 19  1  0  0  0  0
 13  9  1  0  0  0  0
 14 17  1  0  0  0  0
 15 16  2  0  0  0  0
 16 18  1  0  0  0  0
 17 18  2  0  0  0  0
 19 15  1  0  0  0  0
 19 14  2  0  0  0  0
 20 22  1  0  0  0  0
 20  2  1  0  0  0  0
 21 20  2  0  0  0  0
 24 23  1  0  0  0  0
 24 21  1  0  0  0  0
 25 24  2  0  0  0  0
 26 24  2  0  0  0  0
 28 29  1  0  0  0  0
 28 27  2  0  0  0  0
 29 31  1  0  0  0  0
 31 30  1  6  0  0  0
 32 31  1  0  0  0  0
 32 33  1  0  0  0  0
 33 34  1  0  0  0  0
 34 36  1  0  0  0  0
 35 36  1  0  0  0  0
M  END
>  <MODEL>
1

>  <REMARK>
 VINA RESULT:      -6.7      0.000      0.000
  Name = 
  11 active torsions:
  status: ('A' for Active; 'I' for Inactive)
    1  A    between atoms: C_2  and  C_12
    2  A    between atoms: C_5  and  C_7
    3  A    between atoms: C_5  and  C_11
    4  A    between atoms: C_7  and  C_14
    5  A    between atoms: C_10  and  C_36
    6  A    between atoms: C_11  and  C_22
    7  A    between atoms: C_13  and  C_19
    8  A    between atoms: C_13  and  C_22
    9  A    between atoms: C_17  and  C_19
   10  A    between atoms: S_20  and  C_28
   11  A    between atoms: C_30  and  C_34
                            x       y       z     vdW  Elec       q    Type
                         _______ _______ _______ _____ _____    ______ ____

>  <TORSDO>
F 11

$$$$
=
 OpenBabel11042417593D

 36 38  0  0  1  0  0  0  0  0999 V2000
  190.2210  176.0000  144.7850 C   0  0  0  0  0  0  0  0  0  0  0  0
  188.5680  175.2190  143.1850 C   0  0  0  0  0  0  0  0  0  0  0  0
  187.9130  176.4840  145.1660 C   0  0  0  0  0  0  0  0  0  0  0  0
  189.2240  176.5530  145.5240 N   0  0  0  0  0  0  0  0  0  0  0  0
  186.2520  175.7290  143.6120 F   0  0  0  0  0  0  0  0  0  0  0  0
  189.8990  175.3240  143.6040 C   0  0  0  0  0  3  0  0  0  0  0  0
  187.5580  175.8110  143.9790 C   0  0  0  0  0  0  0  0  0  0  0  0
  194.2950  176.3520  146.0610 C   0  0  0  0  0  3  0  0  0  0  0  0
  192.6690  175.9550  144.3190 C   0  0  0  0  0  3  0  0  0  0  0  0
  191.9310  176.4110  146.5750 C   0  0  0  0  0  3  0  0  0  0  0  0
  193.2620  176.5240  146.9850 C   0  0  0  0  0  3  0  0  0  0  0  0
  194.0080  176.0660  144.7180 C   0  0  0  0  0  0  0  0  0  0  0  0
  191.6220  176.1260  145.2360 C   0  0  0  0  0  0  0  0  0  0  0  0
  196.2430  176.6760  143.7610 C   0  0  0  0  0  3  0  0  0  0  0  0
  194.9770  174.9100  142.7710 N   0  0  0  0  0  0  0  0  0  0  0  0
  195.9480  174.6980  141.8430 C   0  0  0  0  0  3  0  0  0  0  0  0
  197.2500  176.4720  142.8160 C   0  0  0  0  0  3  0  0  0  0  0  0
  197.1050  175.4780  141.8490 C   0  0  0  0  0  3  0  0  0  0  0  0
  195.0910  175.8760  143.7280 C   0  0  0  0  0  0  0  0  0  0  0  0
  188.2960  174.4880  141.9200 C   0  0  0  0  0  0  0  0  0  0  0  0
  189.0290  174.6860  140.8220 C   0  0  0  0  0  3  0  0  0  0  0  0
  187.2480  173.5710  141.8840 O   0  0  0  0  0  1  0  0  0  0  0  0
  190.2730  173.5620  138.4610 C   0  0  0  0  0  1  0  0  0  0  0  0
  188.7370  173.8390  139.3110 S   0  0  0  0  0  0  0  0  0  0  0  0
  188.0580  172.5270  139.5860 O   0  0  0  0  0  0  0  0  0  0  0  0
  187.8450  174.6830  138.4460 O   0  0  0  0  0  0  0  0  0  0  0  0
  186.5570  176.5910  147.1290 O   0  0  0  0  0  0  0  0  0  0  0  0
  186.9070  177.1240  146.0420 C   0  0  0  0  0  0  0  0  0  0  0  0
  186.2700  178.4120  145.6340 C   0  0  0  0  0  2  0  0  0  0  0  0
  183.9300  178.8580  145.9100 O   0  0  0  0  0  1  0  0  0  0  0  0
  184.8570  178.1690  145.1240 C   0  0  1  0  0  3  0  0  0  0  0  0
  184.7080  178.5510  143.6520 C   0  0  0  0  0  2  0  0  0  0  0  0
  185.8790  179.3750  143.1210 C   0  0  0  0  0  2  0  0  0  0  0  0
  186.6290  178.6390  142.0190 C   0  0  0  0  0  2  0  0  0  0  0  0
  186.3910  177.1800  140.1420 O   0  0  0  0  0  1  0  0  0  0  0  0
  185.6750  177.8620  141.1280 C   0  0  0  0  0  2  0  0  0  0  0  0
  1 13  1  0  0  0  0
  1  4  1  0  0  0  0
  2  6  1  0  0  0  0
  2  7  2  0  0  0  0
  3  4  2  0  0  0  0
  3 28  1  0  0  0  0
  5  7  1  0  0  0  0
  6  1  2  0  0  0  0
  7  3  1  0  0  0  0
  8 11  1  0  0  0  0
  9 12  1  0  0  0  0
  9 13  2  0  0  0  0
 10 11  2  0  0  0  0
 12  8  2  0  0  0  0
 13 10  1  0  0  0  0
 15 19  2  0  0  0  0
 16 18  2  0  0  0  0
 16 15  1  0  0  0  0
 17 14  2  0  0  0  0
 18 17  1  0  0  0  0
 19 14  1  0  0  0  0
 19 12  1  0  0  0  0
 20  2  1  0  0  0  0
 21 20  2  0  0  0  0
 22 20  1  0  0  0  0
 23 24  1  0  0  0  0
 24 25  2  0  0  0  0
 24 21  1  0  0  0  0
 26 24  2  0  0  0  0
 28 27  2  0  0  0  0
 29 28  1  0  0  0  0
 31 29  1  0  0  0  0
 31 30  1  1  0  0  0
 32 31  1  0  0  0  0
 33 32  1  0  0  0  0
 34 33  1  0  0  0  0
 35 36  1  0  0  0  0
 36 34  1  0  0  0  0
M  END
>  <MODEL>
2

>  <REMARK>
 VINA RESULT:      -6.7      3.244      7.499
  Name = 
  11 active torsions:
  status: ('A' for Active; 'I' for Inactive)
    1  A    between atoms: C_2  and  C_12
    2  A    between atoms: C_5  and  C_7
    3  A    between atoms: C_5  and  C_11
    4  A    between atoms: C_7  and  C_14
    5  A    between atoms: C_10  and  C_36
    6  A    between atoms: C_11  and  C_22
    7  A    between atoms: C_13  and  C_19
    8  A    between atoms: C_13  and  C_22
    9  A    between atoms: C_17  and  C_19
   10  A    between atoms: S_20  and  C_28
   11  A    between atoms: C_30  and  C_34
                            x       y       z     vdW  Elec       q    Type
                         _______ _______ _______ _____ _____    ______ ____

>  <TORSDO>
F 11

$$$$
=
 OpenBabel11042417593D

 36 38  0  0  1  0  0  0  0  0999 V2000
  190.3960  174.5370  143.9730 C   0  0  0  0  0  0  0  0  0  0  0  0
  192.4580  174.6860  142.6970 C   0  0  0  0  0  0  0  0  0  0  0  0
  190.6230  173.2500  141.9740 C   0  0  0  0  0  0  0  0  0  0  0  0
  189.9130  173.6520  143.0620 N   0  0  0  0  0  0  0  0  0  0  0  0
  192.6410  173.3670  140.6890 F   0  0  0  0  0  0  0  0  0  0  0  0
  191.6790  175.0630  143.7970 C   0  0  0  0  0  3  0  0  0  0  0  0
  191.9200  173.7650  141.7690 C   0  0  0  0  0  0  0  0  0  0  0  0
  187.9550  175.7100  147.2920 C   0  0  0  0  0  3  0  0  0  0  0  0
  188.5140  175.8490  144.9450 C   0  0  0  0  0  3  0  0  0  0  0  0
  189.7930  174.4090  146.4060 C   0  0  0  0  0  3  0  0  0  0  0  0
  188.9940  174.7960  147.4840 C   0  0  0  0  0  3  0  0  0  0  0  0
  187.7050  176.2450  146.0190 C   0  0  0  0  0  0  0  0  0  0  0  0
  189.5590  174.9320  145.1250 C   0  0  0  0  0  0  0  0  0  0  0  0
  186.7450  178.2490  144.8580 C   0  0  0  0  0  3  0  0  0  0  0  0
  185.4570  177.1170  146.5190 N   0  0  0  0  0  0  0  0  0  0  0  0
  184.4250  177.9860  146.3500 C   0  0  0  0  0  3  0  0  0  0  0  0
  185.6970  179.1510  144.6710 C   0  0  0  0  0  3  0  0  0  0  0  0
  184.5270  179.0230  145.4200 C   0  0  0  0  0  3  0  0  0  0  0  0
  186.6120  177.2180  145.8010 C   0  0  0  0  0  0  0  0  0  0  0  0
  193.8130  175.2830  142.5700 C   0  0  0  0  0  0  0  0  0  0  0  0
  194.8650  174.7820  143.2210 C   0  0  0  0  0  3  0  0  0  0  0  0
  193.9850  176.3940  141.7490 O   0  0  0  0  0  1  0  0  0  0  0  0
  197.6110  174.5390  144.1100 C   0  0  0  0  0  1  0  0  0  0  0  0
  196.4800  175.4610  143.0940 S   0  0  0  0  0  0  0  0  0  0  0  0
  196.9350  175.4300  141.6620 O   0  0  0  0  0  0  0  0  0  0  0  0
  196.4470  176.8860  143.5700 O   0  0  0  0  0  0  0  0  0  0  0  0
  190.4450  171.1110  140.9270 O   0  0  0  0  0  0  0  0  0  0  0  0
  190.0000  172.2830  141.0420 C   0  0  0  0  0  0  0  0  0  0  0  0
  188.8370  172.6980  140.2010 C   0  0  0  0  0  2  0  0  0  0  0  0
  189.3140  173.9890  138.2380 O   0  0  0  0  0  1  0  0  0  0  0  0
  189.0740  174.0800  139.6100 C   0  0  1  0  0  3  0  0  0  0  0  0
  187.9100  175.0290  139.8940 C   0  0  0  0  0  2  0  0  0  0  0  0
  187.9670  175.6530  141.2870 C   0  0  0  0  0  2  0  0  0  0  0  0
  187.3080  177.0250  141.3130 C   0  0  0  0  0  2  0  0  0  0  0  0
  189.4320  177.6080  142.2390 O   0  0  0  0  0  1  0  0  0  0  0  0
  188.3300  178.1230  141.5550 C   0  0  0  0  0  2  0  0  0  0  0  0
  1 13  1  0  0  0  0
  2  6  2  0  0  0  0
  3  4  1  0  0  0  0
  4  1  2  0  0  0  0
  5  7  1  0  0  0  0
  6  1  1  0  0  0  0
  7  3  2  0  0  0  0
  7  2  1  0  0  0  0
  8 11  1  0  0  0  0
  9 13  2  0  0  0  0
  9 12  1  0  0  0  0
 10 11  2  0  0  0  0
 12  8  2  0  0  0  0
 13 10  1  0  0  0  0
 14 19  1  0  0  0  0
 16 15  1  0  0  0  0
 17 14  2  0  0  0  0
 17 18  1  0  0  0  0
 18 16  2  0  0  0  0
 19 12  1  0  0  0  0
 19 15  2  0  0  0  0
 20  2  1  0  0  0  0
 20 21  2  0  0  0  0
 22 20  1  0  0  0  0
 24 21  1  0  0  0  0
 24 26  2  0  0  0  0
 24 23  1  0  0  0  0
 25 24  2  0  0  0  0
 27 28  2  0  0  0  0
 28  3  1  0  0  0  0
 29 28  1  0  0  0  0
 31 30  1  6  0  0  0
 31 32  1  0  0  0  0
 31 29  1  0  0  0  0
 32 33  1  0  0  0  0
 33 34  1  0  0  0  0
 34 36  1  0  0  0  0
 36 35  1  0  0  0  0
M  END
>  <MODEL>
3

>  <REMARK>
 VINA RESULT:      -6.7      2.769      5.736
  Name = 
  11 active torsions:
  status: ('A' for Active; 'I' for Inactive)
    1  A    between atoms: C_2  and  C_12
    2  A    between atoms: C_5  and  C_7
    3  A    between atoms: C_5  and  C_11
    4  A    between atoms: C_7  and  C_14
    5  A    between atoms: C_10  and  C_36
    6  A    between atoms: C_11  and  C_22
    7  A    between atoms: C_13  and  C_19
    8  A    between atoms: C_13  and  C_22
    9  A    between atoms: C_17  and  C_19
   10  A    between atoms: S_20  and  C_28
   11  A    between atoms: C_30  and  C_34
                            x       y       z     vdW  Elec       q    Type
                         _______ _______ _______ _____ _____    ______ ____

>  <TORSDO>
F 11

$$$$
=
 OpenBabel11042417593D

 36 38  0  0  1  0  0  0  0  0999 V2000
  191.0840  175.4760  144.6490 C   0  0  0  0  0  0  0  0  0  0  0  0
  189.4160  175.0980  142.9250 C   0  0  0  0  0  0  0  0  0  0  0  0
  188.8130  176.0770  145.0770 C   0  0  0  0  0  0  0  0  0  0  0  0
  190.1160  175.9820  145.4570 N   0  0  0  0  0  0  0  0  0  0  0  0
  187.1370  175.7190  143.4020 F   0  0  0  0  0  0  0  0  0  0  0  0
  190.7410  175.0270  143.3710 C   0  0  0  0  0  3  0  0  0  0  0  0
  188.4360  175.6340  143.7920 C   0  0  0  0  0  0  0  0  0  0  0  0
  195.1280  175.2600  146.0490 C   0  0  0  0  0  3  0  0  0  0  0  0
  193.1640  174.1900  145.1340 C   0  0  0  0  0  3  0  0  0  0  0  0
  193.1390  176.5630  145.5970 C   0  0  0  0  0  3  0  0  0  0  0  0
  194.4570  176.4860  146.0520 C   0  0  0  0  0  3  0  0  0  0  0  0
  194.4870  174.1000  145.5880 C   0  0  0  0  0  0  0  0  0  0  0  0
  192.4800  175.4140  145.1320 C   0  0  0  0  0  0  0  0  0  0  0  0
  194.4630  171.5970  145.7160 C   0  0  0  0  0  3  0  0  0  0  0  0
  196.5380  172.7450  145.4440 N   0  0  0  0  0  0  0  0  0  0  0  0
  197.2190  171.5680  145.4310 C   0  0  0  0  0  3  0  0  0  0  0  0
  195.1450  170.3790  145.7050 C   0  0  0  0  0  3  0  0  0  0  0  0
  196.5320  170.3600  145.5620 C   0  0  0  0  0  3  0  0  0  0  0  0
  195.1820  172.7940  145.5830 C   0  0  0  0  0  0  0  0  0  0  0  0
  189.1200  174.6040  141.5550 C   0  0  0  0  0  0  0  0  0  0  0  0
  189.6650  173.4830  141.0800 C   0  0  0  0  0  3  0  0  0  0  0  0
  188.2480  175.3340  140.7500 O   0  0  0  0  0  1  0  0  0  0  0  0
  190.2840  171.3950  139.1700 C   0  0  0  0  0  1  0  0  0  0  0  0
  189.3360  172.8690  139.4660 S   0  0  0  0  0  0  0  0  0  0  0  0
  187.8690  172.5740  139.3220 O   0  0  0  0  0  0  0  0  0  0  0  0
  189.7290  173.9130  138.4600 O   0  0  0  0  0  0  0  0  0  0  0  0
  187.5090  176.0230  147.0770 O   0  0  0  0  0  0  0  0  0  0  0  0
  187.8380  176.6470  146.0340 C   0  0  0  0  0  0  0  0  0  0  0  0
  187.2080  177.9740  145.7590 C   0  0  0  0  0  2  0  0  0  0  0  0
  185.7600  179.3900  147.0430 O   0  0  0  0  0  1  0  0  0  0  0  0
  185.8930  178.1050  146.5120 C   0  0  1  0  0  3  0  0  0  0  0  0
  184.6940  177.7560  145.6310 C   0  0  0  0  0  2  0  0  0  0  0  0
  184.2800  178.8940  144.7000 C   0  0  0  0  0  2  0  0  0  0  0  0
  184.2180  178.4360  143.2490 C   0  0  0  0  0  2  0  0  0  0  0  0
  185.4420  178.2830  141.2020 O   0  0  0  0  0  1  0  0  0  0  0  0
  185.5340  178.6930  142.5330 C   0  0  0  0  0  2  0  0  0  0  0  0
  1 13  1  0  0  0  0
  1  4  1  0  0  0  0
  2  6  1  0  0  0  0
  2  7  2  0  0  0  0
  3  4  2  0  0  0  0
  3 28  1  0  0  0  0
  5  7  1  0  0  0  0
  6  1  2  0  0  0  0
  7  3  1  0  0  0  0
  8 11  1  0  0  0  0
  9 12  1  0  0  0  0
 10 11  2  0  0  0  0
 12  8  2  0  0  0  0
 13  9  2  0  0  0  0
 13 10  1  0  0  0  0
 15 19  1  0  0  0  0
 16 15  2  0  0  0  0
 16 18  1  0  0  0  0
 17 14  1  0  0  0  0
 18 17  2  0  0  0  0
 19 12  1  0  0  0  0
 19 14  2  0  0  0  0
 20  2  1  0  0  0  0
 21 20  2  0  0  0  0
 22 20  1  0  0  0  0
 23 24  1  0  0  0  0
 24 21  1  0  0  0  0
 25 24  2  0  0  0  0
 26 24  2  0  0  0  0
 28 27  2  0  0  0  0
 29 28  1  0  0  0  0
 29 31  1  0  0  0  0
 31 30  1  6  0  0  0
 32 31  1  0  0  0  0
 33 32  1  0  0  0  0
 34 33  1  0  0  0  0
 35 36  1  0  0  0  0
 36 34  1  0  0  0  0
M  END
>  <MODEL>
4

>  <REMARK>
 VINA RESULT:      -6.6      3.706      7.664
  Name = 
  11 active torsions:
  status: ('A' for Active; 'I' for Inactive)
    1  A    between atoms: C_2  and  C_12
    2  A    between atoms: C_5  and  C_7
    3  A    between atoms: C_5  and  C_11
    4  A    between atoms: C_7  and  C_14
    5  A    between atoms: C_10  and  C_36
    6  A    between atoms: C_11  and  C_22
    7  A    between atoms: C_13  and  C_19
    8  A    between atoms: C_13  and  C_22
    9  A    between atoms: C_17  and  C_19
   10  A    between atoms: S_20  and  C_28
   11  A    between atoms: C_30  and  C_34
                            x       y       z     vdW  Elec       q    Type
                         _______ _______ _______ _____ _____    ______ ____

>  <TORSDO>
F 11

$$$$
=
 OpenBabel11042417593D

 36 38  0  0  1  0  0  0  0  0999 V2000
  189.4150  175.4720  142.1150 C   0  0  0  0  0  0  0  0  0  0  0  0
  190.7390  173.5280  141.5100 C   0  0  0  0  0  0  0  0  0  0  0  0
  191.6870  175.3420  142.8360 C   0  0  0  0  0  0  0  0  0  0  0  0
  190.4900  175.9840  142.7690 N   0  0  0  0  0  0  0  0  0  0  0  0
  193.0270  173.4420  142.2590 F   0  0  0  0  0  0  0  0  0  0  0  0
  189.5310  174.2350  141.4760 C   0  0  0  0  0  3  0  0  0  0  0  0
  191.8350  174.0910  142.2040 C   0  0  0  0  0  0  0  0  0  0  0  0
  185.7260  177.6510  142.0930 C   0  0  0  0  0  3  0  0  0  0  0  0
  187.5140  176.5640  143.3010 C   0  0  0  0  0  3  0  0  0  0  0  0
  187.5460  176.6100  140.8840 C   0  0  0  0  0  3  0  0  0  0  0  0
  186.3430  177.3210  140.8840 C   0  0  0  0  0  3  0  0  0  0  0  0
  186.3070  177.2760  143.3140 C   0  0  0  0  0  0  0  0  0  0  0  0
  188.1440  176.2260  142.0950 C   0  0  0  0  0  0  0  0  0  0  0  0
  186.1580  177.1000  145.8100 C   0  0  0  0  0  3  0  0  0  0  0  0
  184.5760  178.4380  144.6240 N   0  0  0  0  0  0  0  0  0  0  0  0
  183.9530  178.7790  145.7840 C   0  0  0  0  0  3  0  0  0  0  0  0
  185.5310  177.4380  147.0100 C   0  0  0  0  0  3  0  0  0  0  0  0
  184.4220  178.2820  147.0020 C   0  0  0  0  0  3  0  0  0  0  0  0
  185.6630  177.6140  144.6020 C   0  0  0  0  0  0  0  0  0  0  0  0
  190.7940  172.2170  140.8110 C   0  0  0  0  0  0  0  0  0  0  0  0
  191.2120  172.1120  139.5480 C   0  0  0  0  0  3  0  0  0  0  0  0
  190.4000  171.0710  141.4970 O   0  0  0  0  0  1  0  0  0  0  0  0
  191.9570  170.8270  137.0620 C   0  0  0  0  0  1  0  0  0  0  0  0
  191.2910  170.5800  138.6920 S   0  0  0  0  0  0  0  0  0  0  0  0
  192.1490  169.6130  139.4560 O   0  0  0  0  0  0  0  0  0  0  0  0
  189.9030  170.0180  138.5710 O   0  0  0  0  0  0  0  0  0  0  0  0
  193.9290  176.1380  143.0540 O   0  0  0  0  0  0  0  0  0  0  0  0
  192.7940  175.9890  143.5780 C   0  0  0  0  0  0  0  0  0  0  0  0
  192.5810  176.4550  144.9820 C   0  0  0  0  0  2  0  0  0  0  0  0
  194.4730  175.8920  146.3430 O   0  0  0  0  0  1  0  0  0  0  0  0
  193.1950  175.4730  145.9670 C   0  0  1  0  0  3  0  0  0  0  0  0
  192.3090  175.2700  147.1970 C   0  0  0  0  0  2  0  0  0  0  0  0
  190.9560  175.9700  147.0870 C   0  0  0  0  0  2  0  0  0  0  0  0
  189.8030  174.9790  147.1760 C   0  0  0  0  0  2  0  0  0  0  0  0
  189.9410  173.4820  145.3190 O   0  0  0  0  0  1  0  0  0  0  0  0
  189.2810  174.6150  145.7970 C   0  0  0  0  0  2  0  0  0  0  0  0
  1  4  1  0  0  0  0
  2  7  2  0  0  0  0
  3 28  1  0  0  0  0
  4  3  2  0  0  0  0
  6  2  1  0  0  0  0
  6  1  2  0  0  0  0
  7  5  1  0  0  0  0
  7  3  1  0  0  0  0
  8 12  1  0  0  0  0
  9 12  2  0  0  0  0
 10 11  1  0  0  0  0
 10 13  2  0  0  0  0
 11  8  2  0  0  0  0
 12 19  1  0  0  0  0
 13  1  1  0  0  0  0
 13  9  1  0  0  0  0
 14 17  1  0  0  0  0
 15 16  2  0  0  0  0
 16 18  1  0  0  0  0
 18 17  2  0  0  0  0
 19 15  1  0  0  0  0
 19 14  2  0  0  0  0
 20 22  1  0  0  0  0
 20  2  1  0  0  0  0
 21 20  2  0  0  0  0
 23 24  1  0  0  0  0
 24 25  2  0  0  0  0
 24 21  1  0  0  0  0
 26 24  2  0  0  0  0
 27 28  2  0  0  0  0
 28 29  1  0  0  0  0
 29 31  1  0  0  0  0
 31 30  1  1  0  0  0
 31 32  1  0  0  0  0
 33 34  1  0  0  0  0
 33 32  1  0  0  0  0
 35 36  1  0  0  0  0
 36 34  1  0  0  0  0
M  END
>  <MODEL>
5

>  <REMARK>
 VINA RESULT:      -6.5      1.643      2.076
  Name = 
  11 active torsions:
  status: ('A' for Active; 'I' for Inactive)
    1  A    between atoms: C_2  and  C_12
    2  A    between atoms: C_5  and  C_7
    3  A    between atoms: C_5  and  C_11
    4  A    between atoms: C_7  and  C_14
    5  A    between atoms: C_10  and  C_36
    6  A    between atoms: C_11  and  C_22
    7  A    between atoms: C_13  and  C_19
    8  A    between atoms: C_13  and  C_22
    9  A    between atoms: C_17  and  C_19
   10  A    between atoms: S_20  and  C_28
   11  A    between atoms: C_30  and  C_34
                            x       y       z     vdW  Elec       q    Type
                         _______ _______ _______ _____ _____    ______ ____

>  <TORSDO>
F 11

$$$$
=
 OpenBabel11042417593D

 36 38  0  0  1  0  0  0  0  0999 V2000
  189.4780  175.9190  143.8790 C   0  0  0  0  0  0  0  0  0  0  0  0
  188.7660  175.2060  141.6690 C   0  0  0  0  0  0  0  0  0  0  0  0
  187.5370  176.9130  142.9040 C   0  0  0  0  0  0  0  0  0  0  0  0
  188.4310  176.7840  143.9220 N   0  0  0  0  0  0  0  0  0  0  0  0
  186.8020  176.2360  140.7270 F   0  0  0  0  0  0  0  0  0  0  0  0
  189.6540  175.1190  142.7470 C   0  0  0  0  0  3  0  0  0  0  0  0
  187.6900  176.1210  141.7480 C   0  0  0  0  0  0  0  0  0  0  0  0
  192.2040  175.6740  147.1750 C   0  0  0  0  0  3  0  0  0  0  0  0
  191.6170  175.1390  144.8930 C   0  0  0  0  0  3  0  0  0  0  0  0
  190.1130  176.4620  146.2460 C   0  0  0  0  0  3  0  0  0  0  0  0
  191.0060  176.3780  147.3170 C   0  0  0  0  0  3  0  0  0  0  0  0
  192.5210  175.0470  145.9600 C   0  0  0  0  0  0  0  0  0  0  0  0
  190.4110  175.8430  145.0220 C   0  0  0  0  0  0  0  0  0  0  0  0
  195.0250  174.9320  145.9270 C   0  0  0  0  0  3  0  0  0  0  0  0
  193.7470  172.9580  145.5160 N   0  0  0  0  0  0  0  0  0  0  0  0
  194.8800  172.2240  145.3590 C   0  0  0  0  0  3  0  0  0  0  0  0
  196.1990  174.1950  145.7690 C   0  0  0  0  0  3  0  0  0  0  0  0
  196.1310  172.8320  145.4820 C   0  0  0  0  0  3  0  0  0  0  0  0
  193.7820  174.2930  145.7960 C   0  0  0  0  0  0  0  0  0  0  0  0
  189.0120  174.3270  140.4960 C   0  0  0  0  0  0  0  0  0  0  0  0
  189.9230  173.3520  140.5280 C   0  0  0  0  0  3  0  0  0  0  0  0
  188.2700  174.5300  139.3350 O   0  0  0  0  0  1  0  0  0  0  0  0
  191.5290  171.1410  139.5690 C   0  0  0  0  0  1  0  0  0  0  0  0
  190.2390  172.2940  139.1610 S   0  0  0  0  0  0  0  0  0  0  0  0
  188.9860  171.5530  138.7900 O   0  0  0  0  0  0  0  0  0  0  0  0
  190.6820  173.1280  137.9930 O   0  0  0  0  0  0  0  0  0  0  0  0
  186.5440  179.0670  142.6230 O   0  0  0  0  0  0  0  0  0  0  0  0
  186.4340  177.8890  143.0540 C   0  0  0  0  0  0  0  0  0  0  0  0
  185.1710  177.4890  143.7460 C   0  0  0  0  0  2  0  0  0  0  0  0
  183.3500  179.0410  143.9050 O   0  0  0  0  0  1  0  0  0  0  0  0
  184.5690  178.6780  144.4810 C   0  0  1  0  0  3  0  0  0  0  0  0
  184.4010  178.3990  145.9740 C   0  0  0  0  0  2  0  0  0  0  0  0
  185.2240  177.2080  146.4620 C   0  0  0  0  0  2  0  0  0  0  0  0
  186.3950  177.6530  147.3270 C   0  0  0  0  0  2  0  0  0  0  0  0
  187.1780  179.4060  148.7500 O   0  0  0  0  0  1  0  0  0  0  0  0
  186.2390  179.1010  147.7630 C   0  0  0  0  0  2  0  0  0  0  0  0
  1  4  1  0  0  0  0
  1 13  1  0  0  0  0
  2  7  2  0  0  0  0
  2  6  1  0  0  0  0
  3 28  1  0  0  0  0
  3  4  2  0  0  0  0
  5  7  1  0  0  0  0
  6  1  2  0  0  0  0
  7  3  1  0  0  0  0
  8 11  1  0  0  0  0
  9 13  2  0  0  0  0
  9 12  1  0  0  0  0
 10 11  2  0  0  0  0
 12  8  2  0  0  0  0
 13 10  1  0  0  0  0
 15 19  2  0  0  0  0
 16 18  2  0  0  0  0
 16 15  1  0  0  0  0
 17 14  2  0  0  0  0
 18 17  1  0  0  0  0
 19 14  1  0  0  0  0
 19 12  1  0  0  0  0
 20 21  2  0  0  0  0
 20  2  1  0  0  0  0
 22 20  1  0  0  0  0
 24 23  1  0  0  0  0
 24 21  1  0  0  0  0
 25 24  2  0  0  0  0
 26 24  2  0  0  0  0
 27 28  2  0  0  0  0
 28 29  1  0  0  0  0
 29 31  1  0  0  0  0
 31 30  1  6  0  0  0
 31 32  1  0  0  0  0
 32 33  1  0  0  0  0
 33 34  1  0  0  0  0
 34 36  1  0  0  0  0
 36 35  1  0  0  0  0
M  END
>  <MODEL>
6

>  <REMARK>
 VINA RESULT:      -6.5      3.214      6.868
  Name = 
  11 active torsions:
  status: ('A' for Active; 'I' for Inactive)
    1  A    between atoms: C_2  and  C_12
    2  A    between atoms: C_5  and  C_7
    3  A    between atoms: C_5  and  C_11
    4  A    between atoms: C_7  and  C_14
    5  A    between atoms: C_10  and  C_36
    6  A    between atoms: C_11  and  C_22
    7  A    between atoms: C_13  and  C_19
    8  A    between atoms: C_13  and  C_22
    9  A    between atoms: C_17  and  C_19
   10  A    between atoms: S_20  and  C_28
   11  A    between atoms: C_30  and  C_34
                            x       y       z     vdW  Elec       q    Type
                         _______ _______ _______ _____ _____    ______ ____

>  <TORSDO>
F 11

$$$$
=
 OpenBabel11042417593D

 36 38  0  0  1  0  0  0  0  0999 V2000
  188.6570  174.7770  141.7040 C   0  0  0  0  0  0  0  0  0  0  0  0
  190.0140  173.1360  140.5360 C   0  0  0  0  0  0  0  0  0  0  0  0
  190.1210  173.3700  142.9620 C   0  0  0  0  0  0  0  0  0  0  0  0
  189.1950  174.3640  142.8810 N   0  0  0  0  0  0  0  0  0  0  0  0
  191.4770  171.7410  141.8470 F   0  0  0  0  0  0  0  0  0  0  0  0
  189.0640  174.1640  140.5170 C   0  0  0  0  0  3  0  0  0  0  0  0
  190.5500  172.7310  141.7810 C   0  0  0  0  0  0  0  0  0  0  0  0
  185.7250  177.9010  141.7270 C   0  0  0  0  0  3  0  0  0  0  0  0
  187.0180  176.2270  142.8960 C   0  0  0  0  0  3  0  0  0  0  0  0
  187.3030  176.5240  140.5140 C   0  0  0  0  0  3  0  0  0  0  0  0
  186.3460  177.5420  140.5280 C   0  0  0  0  0  3  0  0  0  0  0  0
  186.0560  177.2460  142.9230 C   0  0  0  0  0  0  0  0  0  0  0  0
  187.6490  175.8580  141.7000 C   0  0  0  0  0  0  0  0  0  0  0  0
  184.5470  178.7200  144.2780 C   0  0  0  0  0  3  0  0  0  0  0  0
  185.6290  176.8640  145.3180 N   0  0  0  0  0  0  0  0  0  0  0  0
  185.0490  177.1600  146.5120 C   0  0  0  0  0  3  0  0  0  0  0  0
  183.9430  179.0400  145.4950 C   0  0  0  0  0  3  0  0  0  0  0  0
  184.1930  178.2580  146.6220 C   0  0  0  0  0  3  0  0  0  0  0  0
  185.4030  177.6110  144.2000 C   0  0  0  0  0  0  0  0  0  0  0  0
  190.4020  172.5270  139.2370 C   0  0  0  0  0  0  0  0  0  0  0  0
  190.0700  171.2730  138.9220 C   0  0  0  0  0  3  0  0  0  0  0  0
  191.1320  173.2890  138.3280 O   0  0  0  0  0  1  0  0  0  0  0  0
  189.5920  171.2610  136.0660 C   0  0  0  0  0  1  0  0  0  0  0  0
  190.5120  170.5220  137.3970 S   0  0  0  0  0  0  0  0  0  0  0  0
  191.9860  170.6870  137.1560 O   0  0  0  0  0  0  0  0  0  0  0  0
  190.1830  169.0580  137.4620 O   0  0  0  0  0  0  0  0  0  0  0  0
  189.9190  172.3870  145.1290 O   0  0  0  0  0  0  0  0  0  0  0  0
  190.6410  172.9970  144.2970 C   0  0  0  0  0  0  0  0  0  0  0  0
  192.0360  173.3650  144.6860 C   0  0  0  0  0  2  0  0  0  0  0  0
  193.2580  174.6110  146.3300 O   0  0  0  0  0  1  0  0  0  0  0  0
  192.0240  174.5140  145.6820 C   0  0  1  0  0  3  0  0  0  0  0  0
  191.6560  175.8410  145.0190 C   0  0  0  0  0  2  0  0  0  0  0  0
  190.4210  176.4990  145.6310 C   0  0  0  0  0  2  0  0  0  0  0  0
  189.8720  177.6020  144.7360 C   0  0  0  0  0  2  0  0  0  0  0  0
  189.7880  178.2760  142.4450 O   0  0  0  0  0  1  0  0  0  0  0  0
  190.5810  177.6260  143.3920 C   0  0  0  0  0  2  0  0  0  0  0  0
  1  4  1  0  0  0  0
  2  7  2  0  0  0  0
  3 28  1  0  0  0  0
  4  3  2  0  0  0  0
  6  2  1  0  0  0  0
  6  1  2  0  0  0  0
  7  5  1  0  0  0  0
  7  3  1  0  0  0  0
  8 12  1  0  0  0  0
  9 12  2  0  0  0  0
 10 11  1  0  0  0  0
 10 13  2  0  0  0  0
 11  8  2  0  0  0  0
 12 19  1  0  0  0  0
 13  1  1  0  0  0  0
 13  9  1  0  0  0  0
 14 17  1  0  0  0  0
 15 16  2  0  0  0  0
 16 18  1  0  0  0  0
 17 18  2  0  0  0  0
 19 14  2  0  0  0  0
 19 15  1  0  0  0  0
 20  2  1  0  0  0  0
 21 20  2  0  0  0  0
 22 20  1  0  0  0  0
 23 24  1  0  0  0  0
 24 26  2  0  0  0  0
 24 21  1  0  0  0  0
 25 24  2  0  0  0  0
 28 29  1  0  0  0  0
 28 27  2  0  0  0  0
 29 31  1  0  0  0  0
 31 30  1  6  0  0  0
 32 33  1  0  0  0  0
 32 31  1  0  0  0  0
 34 33  1  0  0  0  0
 35 36  1  0  0  0  0
 36 34  1  0  0  0  0
M  END
>  <MODEL>
7

>  <REMARK>
 VINA RESULT:      -6.5      1.700      2.144
  Name = 
  11 active torsions:
  status: ('A' for Active; 'I' for Inactive)
    1  A    between atoms: C_2  and  C_12
    2  A    between atoms: C_5  and  C_7
    3  A    between atoms: C_5  and  C_11
    4  A    between atoms: C_7  and  C_14
    5  A    between atoms: C_10  and  C_36
    6  A    between atoms: C_11  and  C_22
    7  A    between atoms: C_13  and  C_19
    8  A    between atoms: C_13  and  C_22
    9  A    between atoms: C_17  and  C_19
   10  A    between atoms: S_20  and  C_28
   11  A    between atoms: C_30  and  C_34
                            x       y       z     vdW  Elec       q    Type
                         _______ _______ _______ _____ _____    ______ ____

>  <TORSDO>
F 11

$$$$
=
 OpenBabel11042417593D

 36 38  0  0  1  0  0  0  0  0999 V2000
  190.3810  175.0900  143.0360 C   0  0  0  0  0  0  0  0  0  0  0  0
  189.8830  173.9420  140.9550 C   0  0  0  0  0  0  0  0  0  0  0  0
  188.4650  175.7510  141.7720 C   0  0  0  0  0  0  0  0  0  0  0  0
  189.2850  175.8720  142.8510 N   0  0  0  0  0  0  0  0  0  0  0  0
  187.9390  174.6420  139.7150 F   0  0  0  0  0  0  0  0  0  0  0  0
  190.6900  174.1140  142.0850 C   0  0  0  0  0  3  0  0  0  0  0  0
  188.7520  174.7760  140.7950 C   0  0  0  0  0  0  0  0  0  0  0  0
  192.8550  175.6360  146.4910 C   0  0  0  0  0  3  0  0  0  0  0  0
  192.4060  174.5450  144.3820 C   0  0  0  0  0  3  0  0  0  0  0  0
  190.8720  176.2100  145.2280 C   0  0  0  0  0  3  0  0  0  0  0  0
  191.6830  176.3830  146.3520 C   0  0  0  0  0  3  0  0  0  0  0  0
  193.2280  174.7090  145.5060 C   0  0  0  0  0  0  0  0  0  0  0  0
  191.2280  175.2890  144.2310 C   0  0  0  0  0  0  0  0  0  0  0  0
  194.4450  172.5180  145.4350 C   0  0  0  0  0  3  0  0  0  0  0  0
  195.6400  174.5160  145.9640 N   0  0  0  0  0  0  0  0  0  0  0  0
  196.8000  173.8200  146.0960 C   0  0  0  0  0  3  0  0  0  0  0  0
  195.6260  171.7870  145.5670 C   0  0  0  0  0  3  0  0  0  0  0  0
  196.8140  172.4380  145.9000 C   0  0  0  0  0  3  0  0  0  0  0  0
  194.4640  173.9060  145.6400 C   0  0  0  0  0  0  0  0  0  0  0  0
  190.2690  172.8860  139.9830 C   0  0  0  0  0  0  0  0  0  0  0  0
  190.3770  171.6050  140.3430 C   0  0  0  0  0  3  0  0  0  0  0  0
  190.5220  173.2470  138.6610 O   0  0  0  0  0  1  0  0  0  0  0  0
  189.6580  170.2510  137.8850 C   0  0  0  0  0  1  0  0  0  0  0  0
  190.8290  170.3310  139.2210 S   0  0  0  0  0  0  0  0  0  0  0  0
  192.2070  170.5940  138.6800 O   0  0  0  0  0  0  0  0  0  0  0  0
  190.8290  169.0180  139.9500 O   0  0  0  0  0  0  0  0  0  0  0  0
  187.0840  177.3230  140.6210 O   0  0  0  0  0  0  0  0  0  0  0  0
  187.2990  176.6560  141.6670 C   0  0  0  0  0  0  0  0  0  0  0  0
  186.3640  176.8080  142.8230 C   0  0  0  0  0  2  0  0  0  0  0  0
  185.3070  178.9360  143.1520 O   0  0  0  0  0  1  0  0  0  0  0  0
  186.4700  178.2070  143.4120 C   0  0  1  0  0  3  0  0  0  0  0  0
  186.7630  178.1740  144.9110 C   0  0  0  0  0  2  0  0  0  0  0  0
  186.4830  176.8160  145.5510 C   0  0  0  0  0  2  0  0  0  0  0  0
  185.2200  176.8470  146.4010 C   0  0  0  0  0  2  0  0  0  0  0  0
  183.6920  178.6650  146.1410 O   0  0  0  0  0  1  0  0  0  0  0  0
  184.8570  178.2680  146.7980 C   0  0  0  0  0  2  0  0  0  0  0  0
  1 13  1  0  0  0  0
  2  6  1  0  0  0  0
  3  4  2  0  0  0  0
  4  1  1  0  0  0  0
  5  7  1  0  0  0  0
  6  1  2  0  0  0  0
  7  2  2  0  0  0  0
  7  3  1  0  0  0  0
  9 12  1  0  0  0  0
 10 11  2  0  0  0  0
 11  8  1  0  0  0  0
 12 19  1  0  0  0  0
 12  8  2  0  0  0  0
 13  9  2  0  0  0  0
 13 10  1  0  0  0  0
 14 17  2  0  0  0  0
 14 19  1  0  0  0  0
 15 16  1  0  0  0  0
 17 18  1  0  0  0  0
 18 16  2  0  0  0  0
 19 15  2  0  0  0  0
 20 21  2  0  0  0  0
 20  2  1  0  0  0  0
 22 20  1  0  0  0  0
 23 24  1  0  0  0  0
 24 26  2  0  0  0  0
 24 21  1  0  0  0  0
 25 24  2  0  0  0  0
 27 28  2  0  0  0  0
 28  3  1  0  0  0  0
 28 29  1  0  0  0  0
 29 31  1  0  0  0  0
 31 30  1  1  0  0  0
 31 32  1  0  0  0  0
 32 33  1  0  0  0  0
 33 34  1  0  0  0  0
 34 36  1  0  0  0  0
 35 36  1  0  0  0  0
M  END
>  <MODEL>
8

>  <REMARK>
 VINA RESULT:      -6.5      3.355      6.794
  Name = 
  11 active torsions:
  status: ('A' for Active; 'I' for Inactive)
    1  A    between atoms: C_2  and  C_12
    2  A    between atoms: C_5  and  C_7
    3  A    between atoms: C_5  and  C_11
    4  A    between atoms: C_7  and  C_14
    5  A    between atoms: C_10  and  C_36
    6  A    between atoms: C_11  and  C_22
    7  A    between atoms: C_13  and  C_19
    8  A    between atoms: C_13  and  C_22
    9  A    between atoms: C_17  and  C_19
   10  A    between atoms: S_20  and  C_28
   11  A    between atoms: C_30  and  C_34
                            x       y       z     vdW  Elec       q    Type
                         _______ _______ _______ _____ _____    ______ ____

>  <TORSDO>
F 11

$$$$
=
 OpenBabel11042417593D

 36 38  0  0  1  0  0  0  0  0999 V2000
  190.5860  173.9590  144.2270 C   0  0  0  0  0  0  0  0  0  0  0  0
  191.0930  173.0420  142.0360 C   0  0  0  0  0  0  0  0  0  0  0  0
  192.6520  172.8080  143.8960 C   0  0  0  0  0  0  0  0  0  0  0  0
  191.7780  173.4910  144.6830 N   0  0  0  0  0  0  0  0  0  0  0  0
  193.1900  171.8910  141.7490 F   0  0  0  0  0  0  0  0  0  0  0  0
  190.2330  173.7380  142.8930 C   0  0  0  0  0  3  0  0  0  0  0  0
  192.3230  172.5670  142.5470 C   0  0  0  0  0  0  0  0  0  0  0  0
  187.9680  176.0890  146.8660 C   0  0  0  0  0  3  0  0  0  0  0  0
  188.8570  175.7030  144.6520 C   0  0  0  0  0  3  0  0  0  0  0  0
  189.6450  174.3790  146.5150 C   0  0  0  0  0  3  0  0  0  0  0  0
  188.7890  175.0780  147.3710 C   0  0  0  0  0  3  0  0  0  0  0  0
  187.9950  176.4110  145.5000 C   0  0  0  0  0  0  0  0  0  0  0  0
  189.6860  174.6850  145.1460 C   0  0  0  0  0  0  0  0  0  0  0  0
  186.3600  178.2880  145.7990 C   0  0  0  0  0  3  0  0  0  0  0  0
  187.0930  177.6990  143.6050 N   0  0  0  0  0  0  0  0  0  0  0  0
  186.3200  178.6740  143.0550 C   0  0  0  0  0  3  0  0  0  0  0  0
  185.5600  179.2930  145.2540 C   0  0  0  0  0  3  0  0  0  0  0  0
  185.5370  179.4900  143.8730 C   0  0  0  0  0  3  0  0  0  0  0  0
  187.1350  177.4830  144.9510 C   0  0  0  0  0  0  0  0  0  0  0  0
  190.6550  172.8420  140.6290 C   0  0  0  0  0  0  0  0  0  0  0  0
  191.1670  173.5580  139.6260 C   0  0  0  0  0  3  0  0  0  0  0  0
  189.6860  171.8790  140.3560 O   0  0  0  0  0  1  0  0  0  0  0  0
  188.9560  173.7660  137.7670 C   0  0  0  0  0  1  0  0  0  0  0  0
  190.6740  173.3460  137.9530 S   0  0  0  0  0  0  0  0  0  0  0  0
  191.5140  174.2160  137.0600 O   0  0  0  0  0  0  0  0  0  0  0  0
  190.8690  171.9080  137.5660 O   0  0  0  0  0  0  0  0  0  0  0  0
  193.9490  171.3540  145.2780 O   0  0  0  0  0  0  0  0  0  0  0  0
  193.9230  172.3400  144.4950 C   0  0  0  0  0  0  0  0  0  0  0  0
  195.2000  173.0550  144.1940 C   0  0  0  0  0  2  0  0  0  0  0  0
  196.5780  173.8120  146.0040 O   0  0  0  0  0  1  0  0  0  0  0  0
  195.4610  174.1370  145.2310 C   0  0  1  0  0  3  0  0  0  0  0  0
  195.6300  175.5130  144.5880 C   0  0  0  0  0  2  0  0  0  0  0  0
  194.9640  176.6350  145.3820 C   0  0  0  0  0  2  0  0  0  0  0  0
  194.0950  176.0860  146.5060 C   0  0  0  0  0  2  0  0  0  0  0  0
  192.4140  176.9030  145.0170 O   0  0  0  0  0  1  0  0  0  0  0  0
  192.6440  176.5030  146.3350 C   0  0  0  0  0  2  0  0  0  0  0  0
  1  4  1  0  0  0  0
  1 13  1  0  0  0  0
  2  7  2  0  0  0  0
  2  6  1  0  0  0  0
  3 28  1  0  0  0  0
  3  4  2  0  0  0  0
  5  7  1  0  0  0  0
  6  1  2  0  0  0  0
  7  3  1  0  0  0  0
  8 11  1  0  0  0  0
  9 13  2  0  0  0  0
  9 12  1  0  0  0  0
 10 11  2  0  0  0  0
 12  8  2  0  0  0  0
 13 10  1  0  0  0  0
 15 19  1  0  0  0  0
 16 15  2  0  0  0  0
 16 18  1  0  0  0  0
 17 14  1  0  0  0  0
 18 17  2  0  0  0  0
 19 12  1  0  0  0  0
 19 14  2  0  0  0  0
 20  2  1  0  0  0  0
 21 20  2  0  0  0  0
 22 20  1  0  0  0  0
 23 24  1  0  0  0  0
 24 21  1  0  0  0  0
 25 24  2  0  0  0  0
 26 24  2  0  0  0  0
 28 27  2  0  0  0  0
 29 28  1  0  0  0  0
 29 31  1  0  0  0  0
 31 30  1  6  0  0  0
 32 31  1  0  0  0  0
 32 33  1  0  0  0  0
 33 34  1  0  0  0  0
 35 36  1  0  0  0  0
 36 34  1  0  0  0  0
M  END
>  <MODEL>
9

>  <REMARK>
 VINA RESULT:      -6.4      2.388      3.869
  Name = 
  11 active torsions:
  status: ('A' for Active; 'I' for Inactive)
    1  A    between atoms: C_2  and  C_12
    2  A    between atoms: C_5  and  C_7
    3  A    between atoms: C_5  and  C_11
    4  A    between atoms: C_7  and  C_14
    5  A    between atoms: C_10  and  C_36
    6  A    between atoms: C_11  and  C_22
    7  A    between atoms: C_13  and  C_19
    8  A    between atoms: C_13  and  C_22
    9  A    between atoms: C_17  and  C_19
   10  A    between atoms: S_20  and  C_28
   11  A    between atoms: C_30  and  C_34
                            x       y       z     vdW  Elec       q    Type
                         _______ _______ _______ _____ _____    ______ ____

>  <TORSDO>
F 11

$$$$
