=
 OpenBabel11042413583D

 30 36  0  0  1  0  0  0  0  0999 V2000
  190.2580  174.8690  143.5960 C   0  0  1  0  0  3  0  0  0  0  0  0
  187.1900  175.5130  142.7350 N   0  0  0  0  0  2  0  0  0  0  0  0
  192.1190  175.8200  145.3830 C   0  0  1  0  0  3  0  0  0  0  0  0
  189.9290  177.0190  144.9250 N   0  0  0  0  0  2  0  0  0  0  0  0
  188.3900  174.9550  142.1960 C   0  0  0  0  0  0  0  0  0  0  0  0
  186.9840  177.5310  146.9680 N   0  0  0  0  0  0  0  0  0  0  0  0
  188.2650  173.8770  141.4030 C   0  0  0  0  0  3  0  0  0  0  0  0
  186.4540  177.1430  145.7090 C   0  0  0  0  0  0  0  0  0  0  0  0
  191.4430  174.1800  141.2430 C   0  0  2  0  0  3  0  0  0  0  0  0
  187.1330  176.8260  143.3730 C   0  0  2  0  0  3  0  0  0  0  0  0
  188.2700  177.3900  146.8430 C   0  0  0  0  0  2  0  0  0  0  0  0
  188.6170  176.9130  145.4920 C   0  0  0  0  0  0  0  0  0  0  0  0
  190.5940  173.2010  140.5640 C   0  0  0  0  0  3  0  0  0  0  0  0
  190.9600  174.9230  142.2170 C   0  0  1  0  0  3  0  0  0  0  0  0
  187.4800  176.7440  144.8220 C   0  0  0  0  0  0  0  0  0  0  0  0
  192.7760  174.4910  140.6680 C   0  0  0  0  0  1  0  0  0  0  0  0
  190.7600  175.8400  144.6700 C   0  0  1  0  0  0  0  0  0  0  0  0
  189.6720  175.6330  142.5670 C   0  0  2  0  0  3  0  0  0  0  0  0
  184.3350  178.3990  145.8490 C   0  0  0  0  0  1  0  0  0  0  0  0
  185.3810  177.4070  143.3480 S   0  0  0  0  0  0  0  0  0  0  0  0
  185.3460  177.5670  145.1410 C   0  0  1  0  0  3  0  0  0  0  0  0
  189.2640  173.0730  140.6560 C   0  0  0  0  0  3  0  0  0  0  0  0
  190.9400  175.0840  145.9790 C   0  0  0  0  0  2  0  0  0  0  0  0
  195.4790  175.9410  143.9460 Cl  0  0  0  0  0  0  0  0  0  0  0  0
  195.3300  173.7190  145.4800 C   0  0  0  0  0  2  0  0  0  0  0  0
  192.9190  173.4740  145.4120 N   0  0  0  0  0  2  0  0  0  0  0  0
  194.2410  171.6070  145.9060 O   0  0  0  0  0  0  0  0  0  0  0  0
  194.1560  172.8290  145.6210 C   0  0  0  0  0  0  0  0  0  0  0  0
  193.2130  174.8190  144.9670 C   0  0  2  0  0  3  0  0  0  0  0  0
  194.6910  175.0930  145.2970 C   0  0  2  0  0  3  0  0  0  0  0  0
  1 17  1  0  0  0  0
  2 10  1  0  0  0  0
  3 23  1  0  0  0  0
  4 12  1  0  0  0  0
  5 18  1  0  0  0  0
  5  2  1  0  0  0  0
  7  5  2  0  0  0  0
  8  6  2  0  0  0  0
  9 14  1  0  0  0  0
 10 15  1  0  0  0  0
 11  6  1  0  0  0  0
 12 11  1  0  0  0  0
 13 22  2  0  0  0  0
 13  9  1  0  0  0  0
 14 18  1  0  0  0  0
 14  1  1  0  0  0  0
 15 12  2  0  0  0  0
 15  8  1  0  0  0  0
 16  9  1  0  0  0  0
 17  4  1  0  0  0  0
 17  3  1  0  0  0  0
 17 23  1  0  0  0  0
 18  1  1  0  0  0  0
 20 10  1  0  0  0  0
 20 21  1  0  0  0  0
 21  8  1  0  0  0  0
 21 19  1  0  0  0  0
 22  7  1  0  0  0  0
 24 30  1  0  0  0  0
 25 28  1  0  0  0  0
 26 28  1  0  0  0  0
 28 27  2  0  0  0  0
 29 30  1  0  0  0  0
 29  3  1  0  0  0  0
 29 26  1  0  0  0  0
 30 25  1  0  0  0  0
M  END
>  <MODEL>
1

>  <REMARK>
 VINA RESULT:      -8.2      0.000      0.000
  Name = 
  1 active torsions:
  status: ('A' for Active; 'I' for Inactive)
    1  A    between atoms: C_4  and  C_25
                            x       y       z     vdW  Elec       q    Type
                         _______ _______ _______ _____ _____    ______ ____

>  <TORSDO>
F 1

$$$$
=
 OpenBabel11042413583D

 30 36  0  0  1  0  0  0  0  0999 V2000
  191.1900  174.8410  143.4700 C   0  0  1  0  0  3  0  0  0  0  0  0
  188.0310  175.1040  142.7470 N   0  0  0  0  0  2  0  0  0  0  0  0
  192.9960  176.0110  145.1820 C   0  0  1  0  0  3  0  0  0  0  0  0
  190.6580  176.9330  144.8270 N   0  0  0  0  0  2  0  0  0  0  0  0
  189.2660  174.6990  142.1530 C   0  0  0  0  0  0  0  0  0  0  0  0
  187.7650  177.0760  146.9990 N   0  0  0  0  0  0  0  0  0  0  0  0
  189.2390  173.6150  141.3590 C   0  0  0  0  0  3  0  0  0  0  0  0
  187.2310  176.6270  145.7610 C   0  0  0  0  0  0  0  0  0  0  0  0
  192.3470  174.3070  141.0640 C   0  0  2  0  0  3  0  0  0  0  0  0
  187.8410  176.4000  143.3950 C   0  0  2  0  0  3  0  0  0  0  0  0
  189.0510  177.0940  146.8170 C   0  0  0  0  0  2  0  0  0  0  0  0
  189.3940  176.6650  145.4500 C   0  0  0  0  0  0  0  0  0  0  0  0
  191.5950  173.2310  140.4150 C   0  0  0  0  0  3  0  0  0  0  0  0
  191.8190  174.9830  142.0620 C   0  0  1  0  0  3  0  0  0  0  0  0
  188.2590  176.3590  144.8280 C   0  0  0  0  0  0  0  0  0  0  0  0
  193.6050  174.7800  140.4340 C   0  0  0  0  0  1  0  0  0  0  0  0
  191.6150  175.8640  144.5280 C   0  0  1  0  0  0  0  0  0  0  0  0
  190.4700  175.5290  142.4730 C   0  0  2  0  0  3  0  0  0  0  0  0
  184.9820  177.6130  146.0010 C   0  0  0  0  0  1  0  0  0  0  0  0
  186.0320  176.7610  143.4500 S   0  0  0  0  0  0  0  0  0  0  0  0
  186.0560  176.9130  145.2440 C   0  0  1  0  0  3  0  0  0  0  0  0
  190.2960  172.9400  140.5640 C   0  0  0  0  0  3  0  0  0  0  0  0
  191.9440  175.1350  145.8230 C   0  0  0  0  0  2  0  0  0  0  0  0
  195.7760  176.3130  142.8260 Cl  0  0  0  0  0  0  0  0  0  0  0  0
  196.5760  174.6720  144.8220 C   0  0  0  0  0  2  0  0  0  0  0  0
  194.3650  173.9750  145.5330 N   0  0  0  0  0  2  0  0  0  0  0  0
  196.2070  172.6240  146.0450 O   0  0  0  0  0  0  0  0  0  0  0  0
  195.7420  173.6640  145.5130 C   0  0  0  0  0  0  0  0  0  0  0  0
  194.1860  175.1530  144.7130 C   0  0  2  0  0  3  0  0  0  0  0  0
  195.5750  175.7820  144.5120 C   0  0  2  0  0  3  0  0  0  0  0  0
  1 17  1  0  0  0  0
  2 10  1  0  0  0  0
  3 23  1  0  0  0  0
  4 12  1  0  0  0  0
  5 18  1  0  0  0  0
  5  2  1  0  0  0  0
  7  5  2  0  0  0  0
  8  6  2  0  0  0  0
  9 14  1  0  0  0  0
 10 20  1  0  0  0  0
 10 15  1  0  0  0  0
 11  6  1  0  0  0  0
 12 11  1  0  0  0  0
 13 22  2  0  0  0  0
 13  9  1  0  0  0  0
 14 18  1  0  0  0  0
 14  1  1  0  0  0  0
 15 12  2  0  0  0  0
 15  8  1  0  0  0  0
 16  9  1  0  0  0  0
 17  4  1  0  0  0  0
 17  3  1  0  0  0  0
 17 23  1  0  0  0  0
 18  1  1  0  0  0  0
 20 21  1  0  0  0  0
 21  8  1  0  0  0  0
 21 19  1  0  0  0  0
 22  7  1  0  0  0  0
 24 30  1  0  0  0  0
 25 28  1  0  0  0  0
 28 26  1  0  0  0  0
 28 27  2  0  0  0  0
 29  3  1  0  0  0  0
 29 26  1  0  0  0  0
 30 29  1  0  0  0  0
 30 25  1  0  0  0  0
M  END
>  <MODEL>
2

>  <REMARK>
 VINA RESULT:      -8.0      1.016      1.114
  Name = 
  1 active torsions:
  status: ('A' for Active; 'I' for Inactive)
    1  A    between atoms: C_4  and  C_25
                            x       y       z     vdW  Elec       q    Type
                         _______ _______ _______ _____ _____    ______ ____

>  <TORSDO>
F 1

$$$$
=
 OpenBabel11042413583D

 30 36  0  0  1  0  0  0  0  0999 V2000
  190.5970  175.6030  142.7960 C   0  0  1  0  0  3  0  0  0  0  0  0
  188.5130  174.7830  140.4390 N   0  0  0  0  0  0  0  0  0  0  0  0
  192.9120  174.6190  143.9060 C   0  0  1  0  0  3  0  0  0  0  0  0
  191.5130  173.2840  142.2630 N   0  0  0  0  0  2  0  0  0  0  0  0
  188.5550  175.5140  141.6660 C   0  0  0  0  0  0  0  0  0  0  0  0
  192.1310  172.2490  138.8500 N   0  0  0  0  0  0  0  0  0  0  0  0
  187.8620  176.6650  141.7200 C   0  0  0  0  0  2  0  0  0  0  0  0
  190.7980  172.7370  138.8140 C   0  0  0  0  0  0  0  0  0  0  0  0
  188.9920  176.6850  144.7110 C   0  0  2  0  0  3  0  0  0  0  0  0
  188.9720  173.4020  140.3130 C   0  0  2  0  0  3  0  0  0  0  0  0
  192.5520  172.5250  140.0470 C   0  0  0  0  0  2  0  0  0  0  0  0
  191.5000  173.1950  140.8320 C   0  0  0  0  0  0  0  0  0  0  0  0
  188.1000  177.6570  144.0750 C   0  0  0  0  0  3  0  0  0  0  0  0
  189.6250  175.7860  143.9870 C   0  0  1  0  0  3  0  0  0  0  0  0
  190.4390  173.3370  140.0430 C   0  0  0  0  0  0  0  0  0  0  0  0
  188.9900  176.5750  146.1910 C   0  0  0  0  0  1  0  0  0  0  0  0
  191.7070  174.5600  142.9580 C   0  0  1  0  0  0  0  0  0  0  0  0
  189.3650  174.9200  142.7750 C   0  0  2  0  0  3  0  0  0  0  0  0
  189.9660  171.2790  137.0060 C   0  0  0  0  0  1  0  0  0  0  0  0
  188.1910  172.6660  138.8120 S   0  0  0  0  0  0  0  0  0  0  0  0
  189.7960  172.2840  138.0910 C   0  0  1  0  0  3  0  0  0  0  0  0
  187.6510  177.6460  142.8130 C   0  0  0  0  0  3  0  0  0  0  0  0
  193.0280  175.1610  142.5000 C   0  0  0  0  0  2  0  0  0  0  0  0
  191.9140  175.2910  147.3590 Cl  0  0  0  0  0  0  0  0  0  0  0  0
  194.1910  176.6720  146.8880 C   0  0  0  0  0  2  0  0  0  0  0  0
  193.9720  176.7870  144.4760 N   0  0  0  0  0  2  0  0  0  0  0  0
  195.3160  178.3560  145.5750 O   0  0  0  0  0  0  0  0  0  0  0  0
  194.5540  177.3570  145.6280 C   0  0  0  0  0  0  0  0  0  0  0  0
  193.0550  175.7620  144.9290 C   0  0  2  0  0  3  0  0  0  0  0  0
  193.4000  175.4620  146.3970 C   0  0  2  0  0  3  0  0  0  0  0  0
  1 17  1  0  0  0  0
  1 14  1  0  0  0  0
  2  5  2  0  0  0  0
  3 29  1  0  0  0  0
  4 17  1  0  0  0  0
  5  7  1  0  0  0  0
  5 18  1  0  0  0  0
  6 11  1  0  0  0  0
  7 22  1  0  0  0  0
  8  6  2  0  0  0  0
  8 15  1  0  0  0  0
  9 16  1  0  0  0  0
 10  2  1  0  0  0  0
 11 12  1  0  0  0  0
 12  4  1  0  0  0  0
 13  9  1  0  0  0  0
 14  9  1  0  0  0  0
 15 10  1  0  0  0  0
 15 12  2  0  0  0  0
 17  3  1  0  0  0  0
 18  1  1  0  0  0  0
 18 14  1  0  0  0  0
 19 21  1  0  0  0  0
 20 10  1  0  0  0  0
 21 20  1  0  0  0  0
 21  8  1  0  0  0  0
 22 13  2  0  0  0  0
 23 17  1  0  0  0  0
 23  3  1  0  0  0  0
 26 29  1  0  0  0  0
 26 28  1  0  0  0  0
 27 28  2  0  0  0  0
 28 25  1  0  0  0  0
 29 30  1  0  0  0  0
 30 25  1  0  0  0  0
 30 24  1  0  0  0  0
M  END
>  <MODEL>
3

>  <REMARK>
 VINA RESULT:      -7.6      3.095      5.915
  Name = 
  1 active torsions:
  status: ('A' for Active; 'I' for Inactive)
    1  A    between atoms: C_4  and  C_25
                            x       y       z     vdW  Elec       q    Type
                         _______ _______ _______ _____ _____    ______ ____

>  <TORSDO>
F 1

$$$$
=
 OpenBabel11042413583D

 30 36  0  0  1  0  0  0  0  0999 V2000
  188.5900  176.2230  144.0390 C   0  0  1  0  0  3  0  0  0  0  0  0
  187.0660  176.3190  141.1680 N   0  0  0  0  0  0  0  0  0  0  0  0
  188.4860  177.5420  146.4490 C   0  0  1  0  0  3  0  0  0  0  0  0
  187.2250  178.3460  144.3990 N   0  0  0  0  0  2  0  0  0  0  0  0
  188.3230  175.9420  141.7350 C   0  0  0  0  0  0  0  0  0  0  0  0
  183.6890  178.4570  143.6290 N   0  0  0  0  0  0  0  0  0  0  0  0
  188.9010  174.8250  141.2610 C   0  0  0  0  0  2  0  0  0  0  0  0
  184.2720  177.9330  142.4450 C   0  0  0  0  0  0  0  0  0  0  0  0
  191.1630  175.6360  143.3690 C   0  0  2  0  0  3  0  0  0  0  0  0
  186.4580  177.6310  141.3710 C   0  0  2  0  0  3  0  0  0  0  0  0
  184.6700  178.5220  144.4790 C   0  0  0  0  0  2  0  0  0  0  0  0
  185.9250  178.0510  143.8690 C   0  0  0  0  0  0  0  0  0  0  0  0
  191.1560  174.5020  142.4440 C   0  0  0  0  0  3  0  0  0  0  0  0
  190.0660  176.3310  143.5840 C   0  0  1  0  0  3  0  0  0  0  0  0
  185.6490  177.6700  142.6260 C   0  0  0  0  0  0  0  0  0  0  0  0
  192.4650  176.1360  143.8780 C   0  0  0  0  0  1  0  0  0  0  0  0
  188.0740  177.3080  144.9890 C   0  0  1  0  0  0  0  0  0  0  0  0
  188.8740  176.8360  142.8020 C   0  0  2  0  0  3  0  0  0  0  0  0
  182.6210  178.8300  140.8460 C   0  0  0  0  0  1  0  0  0  0  0  0
  185.2320  177.9160  140.0210 S   0  0  0  0  0  0  0  0  0  0  0  0
  183.8930  178.1450  141.2030 C   0  0  1  0  0  3  0  0  0  0  0  0
  190.1910  174.1630  141.5790 C   0  0  0  0  0  3  0  0  0  0  0  0
  187.3080  176.6500  146.1290 C   0  0  0  0  0  2  0  0  0  0  0  0
  188.9420  174.1650  147.7770 Cl  0  0  0  0  0  0  0  0  0  0  0  0
  191.3400  175.0050  146.8510 C   0  0  0  0  0  2  0  0  0  0  0  0
  190.8970  177.3850  147.0020 N   0  0  0  0  0  2  0  0  0  0  0  0
  193.1150  176.6360  146.9790 O   0  0  0  0  0  0  0  0  0  0  0  0
  191.8850  176.3770  146.9490 C   0  0  0  0  0  0  0  0  0  0  0  0
  189.6170  176.7170  147.0910 C   0  0  2  0  0  3  0  0  0  0  0  0
  189.8420  175.2490  146.6900 C   0  0  2  0  0  3  0  0  0  0  0  0
  1 17  1  0  0  0  0
  2 10  1  0  0  0  0
  2  5  2  0  0  0  0
  3 29  1  0  0  0  0
  4 17  1  0  0  0  0
  5 18  1  0  0  0  0
  6 11  1  0  0  0  0
  7 22  1  0  0  0  0
  7  5  1  0  0  0  0
  8 15  1  0  0  0  0
  8  6  2  0  0  0  0
  9 14  1  0  0  0  0
  9 16  1  0  0  0  0
 10 15  1  0  0  0  0
 12  4  1  0  0  0  0
 12 11  1  0  0  0  0
 13  9  1  0  0  0  0
 14  1  1  0  0  0  0
 15 12  2  0  0  0  0
 17 23  1  0  0  0  0
 17  3  1  0  0  0  0
 18 14  1  0  0  0  0
 18  1  1  0  0  0  0
 19 21  1  0  0  0  0
 20 21  1  0  0  0  0
 20 10  1  0  0  0  0
 21  8  1  0  0  0  0
 22 13  2  0  0  0  0
 23  3  1  0  0  0  0
 25 28  1  0  0  0  0
 26 29  1  0  0  0  0
 28 27  2  0  0  0  0
 28 26  1  0  0  0  0
 30 25  1  0  0  0  0
 30 29  1  0  0  0  0
 30 24  1  0  0  0  0
M  END
>  <MODEL>
4

>  <REMARK>
 VINA RESULT:      -7.4      2.749      3.806
  Name = 
  1 active torsions:
  status: ('A' for Active; 'I' for Inactive)
    1  A    between atoms: C_4  and  C_25
                            x       y       z     vdW  Elec       q    Type
                         _______ _______ _______ _____ _____    ______ ____

>  <TORSDO>
F 1

$$$$
=
 OpenBabel11042413583D

 30 36  0  0  1  0  0  0  0  0999 V2000
  190.8020  175.3790  144.2220 C   0  0  1  0  0  3  0  0  0  0  0  0
  189.3180  177.0790  146.5620 N   0  0  0  0  0  0  0  0  0  0  0  0
  190.1030  173.9670  141.9690 C   0  0  1  0  0  3  0  0  0  0  0  0
  188.3870  174.8050  143.6410 N   0  0  0  0  0  2  0  0  0  0  0  0
  190.5080  176.3210  146.3390 C   0  0  0  0  0  0  0  0  0  0  0  0
  185.8500  177.3770  143.4130 N   0  0  0  0  0  0  0  0  0  0  0  0
  191.6460  176.7910  146.8790 C   0  0  0  0  0  2  0  0  0  0  0  0
  186.4550  177.6170  144.6750 C   0  0  2  0  0  3  0  0  0  0  0  0
  192.8480  174.1510  145.5340 C   0  0  2  0  0  3  0  0  0  0  0  0
  187.9780  176.5660  146.2870 C   0  0  2  0  0  3  0  0  0  0  0  0
  186.5720  176.4420  142.8720 C   0  0  0  0  0  3  0  0  0  0  0  0
  187.6660  176.0380  143.7710 C   0  0  0  0  0  0  0  0  0  0  0  0
  193.5470  175.1500  146.3450 C   0  0  0  0  0  3  0  0  0  0  0  0
  191.6390  174.3920  145.0720 C   0  0  1  0  0  3  0  0  0  0  0  0
  187.5890  176.7930  144.8630 C   0  0  0  0  0  0  0  0  0  0  0  0
  193.4170  172.7840  145.4380 C   0  0  0  0  0  1  0  0  0  0  0  0
  189.7960  174.7710  143.2400 C   0  0  1  0  0  0  0  0  0  0  0  0
  190.3670  175.0720  145.5270 C   0  0  2  0  0  3  0  0  0  0  0  0
  184.4760  178.5520  145.8130 C   0  0  0  0  0  1  0  0  0  0  0  0
  186.7660  177.5580  147.2630 S   0  0  0  0  0  0  0  0  0  0  0  0
  185.8740  178.0420  145.7760 C   0  0  1  0  0  3  0  0  0  0  0  0
  193.0340  176.2630  146.8860 C   0  0  0  0  0  3  0  0  0  0  0  0
  189.9310  175.4670  141.8930 C   0  0  0  0  0  2  0  0  0  0  0  0
  192.3080  171.0820  142.3930 Cl  0  0  0  0  0  0  0  0  0  0  0  0
  193.0770  172.3690  140.1420 C   0  0  0  0  0  2  0  0  0  0  0  0
  192.1650  174.5410  140.7180 N   0  0  0  0  0  2  0  0  0  0  0  0
  193.8880  174.4100  139.1390 O   0  0  0  0  0  0  0  0  0  0  0  0
  193.1050  173.8340  139.9380 C   0  0  0  0  0  0  0  0  0  0  0  0
  191.5500  173.5810  141.6100 C   0  0  2  0  0  3  0  0  0  0  0  0
  191.8740  172.1810  141.0620 C   0  0  2  0  0  3  0  0  0  0  0  0
  1 14  1  0  0  0  0
  1 18  1  0  0  0  0
  3 17  1  0  0  0  0
  4 12  1  0  0  0  0
  5  2  2  0  0  0  0
  5  7  1  0  0  0  0
  6  8  1  0  0  0  0
  7 22  1  0  0  0  0
  8 15  1  0  0  0  0
  8 21  1  0  0  0  0
  9 13  1  0  0  0  0
 10  2  1  0  0  0  0
 10 20  1  0  0  0  0
 11  6  2  0  0  0  0
 11 12  1  0  0  0  0
 12 15  2  0  0  0  0
 13 22  2  0  0  0  0
 14 18  1  0  0  0  0
 14  9  1  0  0  0  0
 15 10  1  0  0  0  0
 16  9  1  0  0  0  0
 17  4  1  0  0  0  0
 17  1  1  0  0  0  0
 18  5  1  0  0  0  0
 21 19  1  0  0  0  0
 21 20  1  0  0  0  0
 23  3  1  0  0  0  0
 23 17  1  0  0  0  0
 25 30  1  0  0  0  0
 26 29  1  0  0  0  0
 27 28  2  0  0  0  0
 28 25  1  0  0  0  0
 28 26  1  0  0  0  0
 29  3  1  0  0  0  0
 30 29  1  0  0  0  0
 30 24  1  0  0  0  0
M  END
>  <MODEL>
5

>  <REMARK>
 VINA RESULT:      -7.3      2.416      4.547
  Name = 
  1 active torsions:
  status: ('A' for Active; 'I' for Inactive)
    1  A    between atoms: C_4  and  C_25
                            x       y       z     vdW  Elec       q    Type
                         _______ _______ _______ _____ _____    ______ ____

>  <TORSDO>
F 1

$$$$
=
 OpenBabel11042413583D

 30 36  0  0  1  0  0  0  0  0999 V2000
  189.9880  174.7750  143.4110 C   0  0  1  0  0  3  0  0  0  0  0  0
  189.1360  176.6240  145.9460 N   0  0  0  0  0  0  0  0  0  0  0  0
  188.7870  173.6590  141.2040 C   0  0  1  0  0  3  0  0  0  0  0  0
  187.4610  174.7480  143.0740 N   0  0  0  0  0  2  0  0  0  0  0  0
  190.1100  175.6460  145.5750 C   0  0  0  0  0  0  0  0  0  0  0  0
  185.5190  177.8010  143.1950 N   0  0  0  0  0  0  0  0  0  0  0  0
  191.3690  175.8390  146.0040 C   0  0  0  0  0  2  0  0  0  0  0  0
  186.2820  177.8430  144.3920 C   0  0  2  0  0  3  0  0  0  0  0  0
  191.8440  173.0810  144.4600 C   0  0  2  0  0  3  0  0  0  0  0  0
  187.6970  176.4160  145.8000 C   0  0  2  0  0  3  0  0  0  0  0  0
  185.9690  176.7650  142.5530 C   0  0  0  0  0  3  0  0  0  0  0  0
  187.0360  176.0950  143.3180 C   0  0  0  0  0  0  0  0  0  0  0  0
  192.8150  173.8680  145.2210 C   0  0  0  0  0  3  0  0  0  0  0  0
  190.6750  173.5920  144.1370 C   0  0  1  0  0  3  0  0  0  0  0  0
  187.2280  176.7930  144.4330 C   0  0  0  0  0  0  0  0  0  0  0  0
  192.0970  171.6310  144.2630 C   0  0  0  0  0  1  0  0  0  0  0  0
  188.7840  174.4410  142.5240 C   0  0  1  0  0  0  0  0  0  0  0  0
  189.6280  174.4980  144.7450 C   0  0  2  0  0  3  0  0  0  0  0  0
  184.6690  179.1100  145.7620 C   0  0  0  0  0  1  0  0  0  0  0  0
  186.8250  177.5870  146.9290 S   0  0  0  0  0  0  0  0  0  0  0  0
  185.9160  178.3230  145.5610 C   0  0  1  0  0  3  0  0  0  0  0  0
  192.6060  175.0340  145.8470 C   0  0  0  0  0  3  0  0  0  0  0  0
  188.9320  175.1630  141.1920 C   0  0  0  0  0  2  0  0  0  0  0  0
  190.4840  170.4350  141.5180 Cl  0  0  0  0  0  0  0  0  0  0  0  0
  191.1390  171.4680  139.1050 C   0  0  0  0  0  2  0  0  0  0  0  0
  190.7170  173.7920  139.6550 N   0  0  0  0  0  2  0  0  0  0  0  0
  192.1460  173.2820  137.8720 O   0  0  0  0  0  0  0  0  0  0  0  0
  191.3960  172.8930  138.8040 C   0  0  0  0  0  0  0  0  0  0  0  0
  190.0760  172.9980  140.6810 C   0  0  2  0  0  3  0  0  0  0  0  0
  190.0660  171.5410  140.1880 C   0  0  2  0  0  3  0  0  0  0  0  0
  1 14  1  0  0  0  0
  1 18  1  0  0  0  0
  3 17  1  0  0  0  0
  4 12  1  0  0  0  0
  5  2  2  0  0  0  0
  5  7  1  0  0  0  0
  6  8  1  0  0  0  0
  8 15  1  0  0  0  0
  8 21  1  0  0  0  0
  9 13  1  0  0  0  0
 10  2  1  0  0  0  0
 10 20  1  0  0  0  0
 11  6  2  0  0  0  0
 11 12  1  0  0  0  0
 12 15  2  0  0  0  0
 13 22  2  0  0  0  0
 14  9  1  0  0  0  0
 14 18  1  0  0  0  0
 15 10  1  0  0  0  0
 16  9  1  0  0  0  0
 17  4  1  0  0  0  0
 17  1  1  0  0  0  0
 18  5  1  0  0  0  0
 21 19  1  0  0  0  0
 21 20  1  0  0  0  0
 22  7  1  0  0  0  0
 23  3  1  0  0  0  0
 23 17  1  0  0  0  0
 25 30  1  0  0  0  0
 26 29  1  0  0  0  0
 27 28  2  0  0  0  0
 28 25  1  0  0  0  0
 28 26  1  0  0  0  0
 29  3  1  0  0  0  0
 30 29  1  0  0  0  0
 30 24  1  0  0  0  0
M  END
>  <MODEL>
6

>  <REMARK>
 VINA RESULT:      -7.3      2.748      4.892
  Name = 
  1 active torsions:
  status: ('A' for Active; 'I' for Inactive)
    1  A    between atoms: C_4  and  C_25
                            x       y       z     vdW  Elec       q    Type
                         _______ _______ _______ _____ _____    ______ ____

>  <TORSDO>
F 1

$$$$
=
 OpenBabel11042413583D

 30 36  0  0  1  0  0  0  0  0999 V2000
  190.1930  176.7800  145.0930 C   0  0  1  0  0  3  0  0  0  0  0  0
  187.2880  178.0650  145.7860 N   0  0  0  0  0  0  0  0  0  0  0  0
  191.3230  175.2350  143.1190 C   0  0  1  0  0  3  0  0  0  0  0  0
  188.8210  175.6250  143.2820 N   0  0  0  0  0  2  0  0  0  0  0  0
  188.4810  177.6250  146.4380 C   0  0  0  0  0  0  0  0  0  0  0  0
  186.5270  177.4880  141.1890 N   0  0  0  0  0  0  0  0  0  0  0  0
  188.9250  178.3620  147.4700 C   0  0  0  0  0  2  0  0  0  0  0  0
  186.1640  177.8730  142.5080 C   0  0  2  0  0  3  0  0  0  0  0  0
  191.1830  176.1000  147.5370 C   0  0  2  0  0  3  0  0  0  0  0  0
  186.5350  177.2350  144.8480 C   0  0  2  0  0  3  0  0  0  0  0  0
  187.5930  176.7600  141.3400 C   0  0  0  0  0  3  0  0  0  0  0  0
  187.9510  176.6410  142.7640 C   0  0  0  0  0  0  0  0  0  0  0  0
  191.0220  177.2420  148.4380 C   0  0  0  0  0  3  0  0  0  0  0  0
  190.4990  176.0330  146.4140 C   0  0  1  0  0  3  0  0  0  0  0  0
  187.0730  177.3560  143.4600 C   0  0  0  0  0  0  0  0  0  0  0  0
  191.9410  174.9160  148.0120 C   0  0  0  0  0  1  0  0  0  0  0  0
  190.1490  175.9400  143.8130 C   0  0  1  0  0  0  0  0  0  0  0  0
  189.1160  176.3780  145.9070 C   0  0  2  0  0  3  0  0  0  0  0  0
  183.7710  178.2910  142.0770 C   0  0  0  0  0  1  0  0  0  0  0  0
  184.8160  177.8980  144.7390 S   0  0  0  0  0  0  0  0  0  0  0  0
  184.9590  178.1430  142.9610 C   0  0  1  0  0  3  0  0  0  0  0  0
  190.0810  178.1950  148.3860 C   0  0  0  0  0  3  0  0  0  0  0  0
  190.9480  176.6450  142.7250 C   0  0  0  0  0  2  0  0  0  0  0  0
  193.2580  173.0420  145.3140 Cl  0  0  0  0  0  0  0  0  0  0  0  0
  195.0120  174.3700  143.7400 C   0  0  0  0  0  2  0  0  0  0  0  0
  193.5780  176.2580  143.2300 N   0  0  0  0  0  2  0  0  0  0  0  0
  195.8970  176.4980  143.0230 O   0  0  0  0  0  0  0  0  0  0  0  0
  194.9040  175.7810  143.3070 C   0  0  0  0  0  0  0  0  0  0  0  0
  192.7230  175.2180  143.7600 C   0  0  2  0  0  3  0  0  0  0  0  0
  193.5530  173.9230  143.7970 C   0  0  2  0  0  3  0  0  0  0  0  0
  1 18  1  0  0  0  0
  1 14  1  0  0  0  0
  2  5  2  0  0  0  0
  3 29  1  0  0  0  0
  3 17  1  0  0  0  0
  4 17  1  0  0  0  0
  5  7  1  0  0  0  0
  6 11  2  0  0  0  0
  6  8  1  0  0  0  0
  7 22  1  0  0  0  0
  8 21  1  0  0  0  0
  8 15  1  0  0  0  0
  9 16  1  0  0  0  0
  9 13  1  0  0  0  0
 10  2  1  0  0  0  0
 11 12  1  0  0  0  0
 12  4  1  0  0  0  0
 12 15  2  0  0  0  0
 14  9  1  0  0  0  0
 15 10  1  0  0  0  0
 17  1  1  0  0  0  0
 18 14  1  0  0  0  0
 18  5  1  0  0  0  0
 19 21  1  0  0  0  0
 20 10  1  0  0  0  0
 21 20  1  0  0  0  0
 22 13  2  0  0  0  0
 23  3  1  0  0  0  0
 23 17  1  0  0  0  0
 25 30  1  0  0  0  0
 26 28  1  0  0  0  0
 26 29  1  0  0  0  0
 27 28  2  0  0  0  0
 28 25  1  0  0  0  0
 29 30  1  0  0  0  0
 30 24  1  0  0  0  0
M  END
>  <MODEL>
7

>  <REMARK>
 VINA RESULT:      -7.3      2.331      4.560
  Name = 
  1 active torsions:
  status: ('A' for Active; 'I' for Inactive)
    1  A    between atoms: C_4  and  C_25
                            x       y       z     vdW  Elec       q    Type
                         _______ _______ _______ _____ _____    ______ ____

>  <TORSDO>
F 1

$$$$
=
 OpenBabel11042413583D

 30 36  0  0  1  0  0  0  0  0999 V2000
  188.1720  175.6670  143.9430 C   0  0  1  0  0  3  0  0  0  0  0  0
  190.1560  173.2930  142.9430 N   0  0  0  0  0  0  0  0  0  0  0  0
  186.7610  177.7500  142.8330 C   0  0  1  0  0  3  0  0  0  0  0  0
  188.4750  176.4120  141.5240 N   0  0  0  0  0  2  0  0  0  0  0  0
  189.8760  174.0770  144.1050 C   0  0  0  0  0  0  0  0  0  0  0  0
  188.1290  174.0740  138.7810 N   0  0  0  0  0  0  0  0  0  0  0  0
  189.9110  173.4490  145.2930 C   0  0  0  0  0  2  0  0  0  0  0  0
  189.0380  173.4260  139.6600 C   0  0  2  0  0  3  0  0  0  0  0  0
  189.2070  176.3800  146.3580 C   0  0  2  0  0  3  0  0  0  0  0  0
  190.4290  173.8750  141.6310 C   0  0  2  0  0  3  0  0  0  0  0  0
  187.7420  175.1320  139.4280 C   0  0  0  0  0  3  0  0  0  0  0  0
  188.3950  175.2100  140.7470 C   0  0  0  0  0  0  0  0  0  0  0  0
  189.4390  175.1660  147.1420 C   0  0  0  0  0  3  0  0  0  0  0  0
  189.0350  176.3120  145.0550 C   0  0  1  0  0  3  0  0  0  0  0  0
  189.1670  174.1350  140.8770 C   0  0  0  0  0  0  0  0  0  0  0  0
  189.4020  177.6990  147.0100 C   0  0  0  0  0  1  0  0  0  0  0  0
  187.7430  176.5710  142.7830 C   0  0  1  0  0  0  0  0  0  0  0  0
  189.5730  175.5250  143.8810 C   0  0  2  0  0  3  0  0  0  0  0  0
  190.3060  172.1760  137.9530 C   0  0  0  0  0  1  0  0  0  0  0  0
  191.3260  172.6210  140.6160 S   0  0  0  0  0  0  0  0  0  0  0  0
  190.0590  172.6620  139.3380 C   0  0  1  0  0  3  0  0  0  0  0  0
  189.7130  173.9380  146.6800 C   0  0  0  0  0  3  0  0  0  0  0  0
  186.2610  176.3610  142.5090 C   0  0  0  0  0  2  0  0  0  0  0  0
  185.4400  180.8530  144.2450 Cl  0  0  0  0  0  0  0  0  0  0  0  0
  184.1970  178.7990  145.4900 C   0  0  0  0  0  2  0  0  0  0  0  0
  185.9020  177.1260  145.0730 N   0  0  0  0  0  2  0  0  0  0  0  0
  184.4060  176.8130  146.8460 O   0  0  0  0  0  0  0  0  0  0  0  0
  184.8120  177.5120  145.8830 C   0  0  0  0  0  0  0  0  0  0  0  0
  186.1700  178.2270  144.1730 C   0  0  2  0  0  3  0  0  0  0  0  0
  184.9370  179.1470  144.2020 C   0  0  2  0  0  3  0  0  0  0  0  0
  1 14  1  0  0  0  0
  2  5  2  0  0  0  0
  3 29  1  0  0  0  0
  4 17  1  0  0  0  0
  5  7  1  0  0  0  0
  6 11  2  0  0  0  0
  6  8  1  0  0  0  0
  7 22  1  0  0  0  0
  8 15  1  0  0  0  0
  9 16  1  0  0  0  0
  9 13  1  0  0  0  0
 10  2  1  0  0  0  0
 11 12  1  0  0  0  0
 12 15  2  0  0  0  0
 12  4  1  0  0  0  0
 14  9  1  0  0  0  0
 15 10  1  0  0  0  0
 17  3  1  0  0  0  0
 17  1  1  0  0  0  0
 18  1  1  0  0  0  0
 18  5  1  0  0  0  0
 18 14  1  0  0  0  0
 19 21  1  0  0  0  0
 20 10  1  0  0  0  0
 21  8  1  0  0  0  0
 21 20  1  0  0  0  0
 22 13  2  0  0  0  0
 23 17  1  0  0  0  0
 23  3  1  0  0  0  0
 25 28  1  0  0  0  0
 26 28  1  0  0  0  0
 28 27  2  0  0  0  0
 29 30  1  0  0  0  0
 29 26  1  0  0  0  0
 30 24  1  0  0  0  0
 30 25  1  0  0  0  0
M  END
>  <MODEL>
8

>  <REMARK>
 VINA RESULT:      -7.0      4.001      7.402
  Name = 
  1 active torsions:
  status: ('A' for Active; 'I' for Inactive)
    1  A    between atoms: C_4  and  C_25
                            x       y       z     vdW  Elec       q    Type
                         _______ _______ _______ _____ _____    ______ ____

>  <TORSDO>
F 1

$$$$
=
 OpenBabel11042413583D

 30 36  0  0  1  0  0  0  0  0999 V2000
  190.4090  174.9510  143.3080 C   0  0  1  0  0  3  0  0  0  0  0  0
  193.1840  173.3460  142.7650 N   0  0  0  0  0  2  0  0  0  0  0  0
  189.1770  176.2480  145.3950 C   0  0  1  0  0  3  0  0  0  0  0  0
  191.2620  174.8360  145.7070 N   0  0  0  0  0  2  0  0  0  0  0  0
  191.8400  173.4160  142.2830 C   0  0  0  0  0  0  0  0  0  0  0  0
  194.6750  175.7200  146.5300 N   0  0  0  0  0  0  0  0  0  0  0  0
  191.6580  173.3170  140.9550 C   0  0  0  0  0  3  0  0  0  0  0  0
  194.8180  174.7940  145.4630 C   0  0  0  0  0  0  0  0  0  0  0  0
  188.5880  173.5910  141.8070 C   0  0  2  0  0  3  0  0  0  0  0  0
  193.5210  173.1580  144.1740 C   0  0  2  0  0  3  0  0  0  0  0  0
  193.3950  175.9220  146.6230 C   0  0  0  0  0  2  0  0  0  0  0  0
  192.6640  175.1250  145.6220 C   0  0  0  0  0  0  0  0  0  0  0  0
  189.1400  173.4040  140.4640 C   0  0  0  0  0  3  0  0  0  0  0  0
  189.3750  173.9100  142.8140 C   0  0  1  0  0  3  0  0  0  0  0  0
  193.5630  174.4600  144.9030 C   0  0  0  0  0  0  0  0  0  0  0  0
  187.1830  173.1890  142.0650 C   0  0  0  0  0  1  0  0  0  0  0  0
  190.2950  175.4060  144.7660 C   0  0  1  0  0  0  0  0  0  0  0  0
  190.7660  173.5870  143.3110 C   0  0  2  0  0  3  0  0  0  0  0  0
  196.9990  173.8570  146.1350 C   0  0  0  0  0  1  0  0  0  0  0  0
  195.2470  172.5130  144.2760 S   0  0  0  0  0  0  0  0  0  0  0  0
  195.7690  173.8990  145.2980 C   0  0  1  0  0  3  0  0  0  0  0  0
  190.4310  173.3110  140.1190 C   0  0  0  0  0  3  0  0  0  0  0  0
  190.4020  176.9230  144.8240 C   0  0  0  0  0  2  0  0  0  0  0  0
  185.5770  176.5570  145.9580 Cl  0  0  0  0  0  0  0  0  0  0  0  0
  186.2510  178.3190  144.0200 C   0  0  0  0  0  2  0  0  0  0  0  0
  188.2730  177.1950  143.2910 N   0  0  0  0  0  2  0  0  0  0  0  0
  187.1960  178.6710  141.8260 O   0  0  0  0  0  0  0  0  0  0  0  0
  187.2460  178.1010  142.9460 C   0  0  0  0  0  0  0  0  0  0  0  0
  187.9290  176.6380  144.5810 C   0  0  2  0  0  3  0  0  0  0  0  0
  186.8450  177.5420  145.1920 C   0  0  2  0  0  3  0  0  0  0  0  0
  1 18  1  0  0  0  0
  1 17  1  0  0  0  0
  2 10  1  0  0  0  0
  5  2  1  0  0  0  0
  5 18  1  0  0  0  0
  6 11  1  0  0  0  0
  7  5  2  0  0  0  0
  8  6  2  0  0  0  0
  9 16  1  0  0  0  0
  9 14  1  0  0  0  0
 10 20  1  0  0  0  0
 10 15  1  0  0  0  0
 12  4  1  0  0  0  0
 12 11  1  0  0  0  0
 13  9  1  0  0  0  0
 14  1  1  0  0  0  0
 14 18  1  0  0  0  0
 15  8  1  0  0  0  0
 15 12  2  0  0  0  0
 17 23  1  0  0  0  0
 17  3  1  0  0  0  0
 17  4  1  0  0  0  0
 20 21  1  0  0  0  0
 21  8  1  0  0  0  0
 21 19  1  0  0  0  0
 22 13  2  0  0  0  0
 22  7  1  0  0  0  0
 23  3  1  0  0  0  0
 25 30  1  0  0  0  0
 26 29  1  0  0  0  0
 27 28  2  0  0  0  0
 28 26  1  0  0  0  0
 28 25  1  0  0  0  0
 29 30  1  0  0  0  0
 29  3  1  0  0  0  0
 30 24  1  0  0  0  0
M  END
>  <MODEL>
9

>  <REMARK>
 VINA RESULT:      -7.0      3.667      6.833
  Name = 
  1 active torsions:
  status: ('A' for Active; 'I' for Inactive)
    1  A    between atoms: C_4  and  C_25
                            x       y       z     vdW  Elec       q    Type
                         _______ _______ _______ _____ _____    ______ ____

>  <TORSDO>
F 1

$$$$
