=
 OpenBabel11042418283D

 30 31  0  0  1  0  0  0  0  0999 V2000
  187.9110  175.6170  141.2660 C   0  0  0  0  0  3  0  0  0  0  0  0
  187.9350  176.8300  141.8390 C   0  0  0  0  0  0  0  0  0  0  0  0
  188.7560  177.1660  143.0210 C   0  0  0  0  0  0  0  0  0  0  0  0
  188.3930  176.7130  144.2970 C   0  0  0  0  0  3  0  0  0  0  0  0
  190.7330  178.1620  143.9850 C   0  0  0  0  0  3  0  0  0  0  0  0
  189.2030  177.0200  145.3930 C   0  0  0  0  0  0  0  0  0  0  0  0
  190.3470  177.7310  145.2150 N   0  0  0  0  0  0  0  0  0  0  0  0
  189.9460  177.8830  142.8650 C   0  0  0  0  0  3  0  0  0  0  0  0
  188.8330  176.5330  146.7480 C   0  0  0  0  0  2  0  0  0  0  0  0
  190.9550  175.3740  147.7360 C   0  0  0  0  0  1  0  0  0  0  0  0
  189.4060  174.8280  146.9730 S   0  0  0  0  0  0  0  0  0  0  0  0
  187.8910  173.3550  142.0340 O   0  0  0  0  0  0  0  0  0  0  0  0
  188.5580  174.3860  141.7530 C   0  0  0  0  0  0  0  0  0  0  0  0
  190.0440  174.3330  141.8210 C   0  0  0  0  0  2  0  0  0  0  0  0
  190.4810  173.8410  143.1890 C   0  0  0  0  0  2  0  0  0  0  0  0
  193.7860  174.7770  144.8830 N   0  0  0  0  0  2  0  0  0  0  0  0
  192.6520  174.0090  144.4780 C   0  0  0  0  0  0  0  0  0  0  0  0
  192.5380  172.8220  144.8840 O   0  0  0  0  0  0  0  0  0  0  0  0
  191.6510  174.5850  143.6340 N   0  0  0  0  0  2  0  0  0  0  0  0
  193.9680  176.1690  144.4980 C   0  0  1  0  0  3  0  0  0  0  0  0
  193.6280  177.0010  145.5630 O   0  0  0  0  0  1  0  0  0  0  0  0
  195.4170  176.3990  144.1290 C   0  0  0  0  0  1  0  0  0  0  0  0
  187.0950  177.9010  141.2200 C   0  0  0  0  0  2  0  0  0  0  0  0
  186.5720  178.7670  142.2260 O   0  0  0  0  0  0  0  0  0  0  0  0
  184.3030  178.0770  141.9990 C   0  0  0  0  0  2  0  0  0  0  0  0
  185.2520  178.7150  142.6900 C   0  0  0  0  0  0  0  0  0  0  0  0
  184.9330  179.3860  143.9110 N   0  0  0  0  0  2  0  0  0  0  0  0
  185.4930  179.0200  145.2050 C   0  0  0  0  0  3  0  0  0  0  0  0
  184.3680  178.6970  146.1660 C   0  0  0  0  0  2  0  0  0  0  0  0
  185.1450  177.5790  145.5030 C   0  0  0  0  0  2  0  0  0  0  0  0
  1 13  1  0  0  0  0
  1  2  2  0  0  0  0
  2  3  1  0  0  0  0
  3  4  1  0  0  0  0
  4  6  2  0  0  0  0
  5  7  2  0  0  0  0
  6  9  1  0  0  0  0
  7  6  1  0  0  0  0
  8  3  2  0  0  0  0
  8  5  1  0  0  0  0
  9 11  1  0  0  0  0
 11 10  1  0  0  0  0
 13 14  1  0  0  0  0
 13 12  2  0  0  0  0
 14 15  1  0  0  0  0
 15 19  1  0  0  0  0
 17 16  1  0  0  0  0
 17 18  2  0  0  0  0
 19 17  1  0  0  0  0
 20 22  1  1  0  0  0
 20 16  1  0  0  0  0
 20 21  1  0  0  0  0
 23  2  1  0  0  0  0
 23 24  1  0  0  0  0
 24 26  1  0  0  0  0
 25 26  2  0  0  0  0
 26 27  1  0  0  0  0
 27 28  1  0  0  0  0
 28 30  1  0  0  0  0
 28 29  1  0  0  0  0
 30 29  1  0  0  0  0
M  END
>  <MODEL>
1

>  <REMARK>
 VINA RESULT:      -5.9      0.000      0.000
  Name = 
  13 active torsions:
  status: ('A' for Active; 'I' for Inactive)
    1  A    between atoms: C_1  and  N_29
    2  A    between atoms: C_2  and  N_3
    3  A    between atoms: C_5  and  C_18
    4  A    between atoms: S_12  and  C_17
    5  A    between atoms: C_13  and  C_14
    6  A    between atoms: C_13  and  C_26
    7  A    between atoms: C_14  and  N_24
    8  A    between atoms: C_15  and  C_26
    9  A    between atoms: C_17  and  C_19
   10  A    between atoms: C_18  and  C_25
   11  A    between atoms: C_25  and  O_30
   12  A    between atoms: C_27  and  N_29
   13  A    between atoms: C_27  and  O_30
                            x       y       z     vdW  Elec       q    Type
                         _______ _______ _______ _____ _____    ______ ____

>  <TORSDO>
F 13

$$$$
=
 OpenBabel11042418283D

 30 31  0  0  1  0  0  0  0  0999 V2000
  189.0800  175.3330  146.9280 C   0  0  0  0  0  3  0  0  0  0  0  0
  188.3120  176.1170  146.1580 C   0  0  0  0  0  0  0  0  0  0  0  0
  188.6940  176.5710  144.8050 C   0  0  0  0  0  0  0  0  0  0  0  0
  188.1880  175.9310  143.6650 C   0  0  0  0  0  3  0  0  0  0  0  0
  189.8350  178.1360  143.3630 C   0  0  0  0  0  3  0  0  0  0  0  0
  188.5420  176.3980  142.3980 C   0  0  0  0  0  0  0  0  0  0  0  0
  189.3500  177.4840  142.2740 N   0  0  0  0  0  0  0  0  0  0  0  0
  189.5120  177.6950  144.6480 C   0  0  0  0  0  3  0  0  0  0  0  0
  188.0000  175.7330  141.1830 C   0  0  0  0  0  2  0  0  0  0  0  0
  188.4360  174.1770  139.1310 C   0  0  0  0  0  1  0  0  0  0  0  0
  188.8680  174.1690  140.8910 S   0  0  0  0  0  0  0  0  0  0  0  0
  190.7380  174.1430  145.6860 O   0  0  0  0  0  0  0  0  0  0  0  0
  190.4610  174.8930  146.6590 C   0  0  0  0  0  0  0  0  0  0  0  0
  191.5630  175.4290  147.5030 C   0  0  0  0  0  2  0  0  0  0  0  0
  192.5780  176.1460  146.6310 C   0  0  0  0  0  2  0  0  0  0  0  0
  195.3110  174.4050  144.5890 N   0  0  0  0  0  2  0  0  0  0  0  0
  194.2950  175.3390  144.9550 C   0  0  0  0  0  0  0  0  0  0  0  0
  193.9920  176.2630  144.1540 O   0  0  0  0  0  0  0  0  0  0  0  0
  193.6170  175.2170  146.2090 N   0  0  0  0  0  2  0  0  0  0  0  0
  195.6870  173.2830  145.4360 C   0  0  1  0  0  3  0  0  0  0  0  0
  195.9110  172.1540  144.6490 O   0  0  0  0  0  1  0  0  0  0  0  0
  196.9530  173.6250  146.1880 C   0  0  0  0  0  1  0  0  0  0  0  0
  186.9820  176.5290  146.7040 C   0  0  0  0  0  2  0  0  0  0  0  0
  186.8760  177.9520  146.7370 O   0  0  0  0  0  0  0  0  0  0  0  0
  184.5950  178.5980  146.9730 C   0  0  0  0  0  2  0  0  0  0  0  0
  185.7490  178.6590  146.3030 C   0  0  0  0  0  0  0  0  0  0  0  0
  185.8500  179.4310  145.1030 N   0  0  0  0  0  2  0  0  0  0  0  0
  185.0010  179.2280  143.9370 C   0  0  0  0  0  3  0  0  0  0  0  0
  185.8640  178.8800  142.7420 C   0  0  0  0  0  2  0  0  0  0  0  0
  185.1190  177.7900  143.4850 C   0  0  0  0  0  2  0  0  0  0  0  0
  2 23  1  0  0  0  0
  2  1  2  0  0  0  0
  3  2  1  0  0  0  0
  4  3  2  0  0  0  0
  5  8  2  0  0  0  0
  6  4  1  0  0  0  0
  7  6  2  0  0  0  0
  7  5  1  0  0  0  0
  8  3  1  0  0  0  0
  9  6  1  0  0  0  0
 10 11  1  0  0  0  0
 11  9  1  0  0  0  0
 12 13  2  0  0  0  0
 13  1  1  0  0  0  0
 13 14  1  0  0  0  0
 15 14  1  0  0  0  0
 16 17  1  0  0  0  0
 16 20  1  0  0  0  0
 17 19  1  0  0  0  0
 18 17  2  0  0  0  0
 19 15  1  0  0  0  0
 20 22  1  6  0  0  0
 21 20  1  0  0  0  0
 23 24  1  0  0  0  0
 26 24  1  0  0  0  0
 26 25  2  0  0  0  0
 27 26  1  0  0  0  0
 28 27  1  0  0  0  0
 29 30  1  0  0  0  0
 29 28  1  0  0  0  0
 30 28  1  0  0  0  0
M  END
>  <MODEL>
2

>  <REMARK>
 VINA RESULT:      -5.9      2.309      4.255
  Name = 
  13 active torsions:
  status: ('A' for Active; 'I' for Inactive)
    1  A    between atoms: C_1  and  N_29
    2  A    between atoms: C_2  and  N_3
    3  A    between atoms: C_5  and  C_18
    4  A    between atoms: S_12  and  C_17
    5  A    between atoms: C_13  and  C_14
    6  A    between atoms: C_13  and  C_26
    7  A    between atoms: C_14  and  N_24
    8  A    between atoms: C_15  and  C_26
    9  A    between atoms: C_17  and  C_19
   10  A    between atoms: C_18  and  C_25
   11  A    between atoms: C_25  and  O_30
   12  A    between atoms: C_27  and  N_29
   13  A    between atoms: C_27  and  O_30
                            x       y       z     vdW  Elec       q    Type
                         _______ _______ _______ _____ _____    ______ ____

>  <TORSDO>
F 13

$$$$
=
 OpenBabel11042418283D

 30 31  0  0  1  0  0  0  0  0999 V2000
  192.0470  175.1360  147.2240 C   0  0  0  0  0  3  0  0  0  0  0  0
  192.6080  175.0050  146.0120 C   0  0  0  0  0  0  0  0  0  0  0  0
  192.0860  175.6490  144.7890 C   0  0  0  0  0  0  0  0  0  0  0  0
  191.3010  174.9280  143.8790 C   0  0  0  0  0  3  0  0  0  0  0  0
  191.7810  177.6170  143.4240 C   0  0  0  0  0  3  0  0  0  0  0  0
  190.7950  175.5690  142.7460 C   0  0  0  0  0  0  0  0  0  0  0  0
  191.0420  176.8900  142.5450 N   0  0  0  0  0  0  0  0  0  0  0  0
  192.3120  177.0110  144.5640 C   0  0  0  0  0  3  0  0  0  0  0  0
  189.9510  174.8160  141.7810 C   0  0  0  0  0  2  0  0  0  0  0  0
  187.7790  176.1430  141.1950 C   0  0  0  0  0  1  0  0  0  0  0  0
  188.2260  174.8110  142.3380 S   0  0  0  0  0  0  0  0  0  0  0  0
  190.7150  177.0430  147.7660 O   0  0  0  0  0  0  0  0  0  0  0  0
  190.7750  175.8030  147.5520 C   0  0  0  0  0  0  0  0  0  0  0  0
  189.5190  175.0050  147.5350 C   0  0  0  0  0  2  0  0  0  0  0  0
  188.8200  175.1720  146.1980 C   0  0  0  0  0  2  0  0  0  0  0  0
  186.5080  178.1940  145.7620 N   0  0  0  0  0  2  0  0  0  0  0  0
  187.6290  177.3230  145.6010 C   0  0  0  0  0  0  0  0  0  0  0  0
  188.5570  177.6560  144.8170 O   0  0  0  0  0  0  0  0  0  0  0  0
  187.7030  176.0960  146.3320 N   0  0  0  0  0  2  0  0  0  0  0  0
  185.4180  177.9070  146.6820 C   0  0  1  0  0  3  0  0  0  0  0  0
  185.7010  178.4520  147.9330 O   0  0  0  0  0  1  0  0  0  0  0  0
  184.1410  178.5180  146.1490 C   0  0  0  0  0  1  0  0  0  0  0  0
  193.8470  174.1740  145.9120 C   0  0  0  0  0  2  0  0  0  0  0  0
  195.0040  175.0080  145.8780 O   0  0  0  0  0  0  0  0  0  0  0  0
  196.9680  173.6580  145.9170 C   0  0  0  0  0  1  0  0  0  0  0  0
  196.2330  174.6120  145.3370 C   0  0  0  0  0  0  0  0  0  0  0  0
  196.7030  175.2730  144.1590 N   0  0  0  0  0  0  0  0  0  0  0  0
  196.0600  176.4440  143.5780 C   0  0  0  0  0  3  0  0  0  0  0  0
  196.4980  176.5940  142.1370 C   0  0  0  0  0  2  0  0  0  0  0  0
  195.1440  176.0000  142.4600 C   0  0  0  0  0  2  0  0  0  0  0  0
  1 13  1  0  0  0  0
  2  1  2  0  0  0  0
  3  2  1  0  0  0  0
  4  3  2  0  0  0  0
  5  8  2  0  0  0  0
  6  4  1  0  0  0  0
  7  6  2  0  0  0  0
  7  5  1  0  0  0  0
  8  3  1  0  0  0  0
  9 11  1  0  0  0  0
  9  6  1  0  0  0  0
 10 11  1  0  0  0  0
 13 12  2  0  0  0  0
 14 13  1  0  0  0  0
 15 19  1  0  0  0  0
 15 14  1  0  0  0  0
 16 20  1  0  0  0  0
 17 16  1  0  0  0  0
 17 19  1  0  0  0  0
 18 17  2  0  0  0  0
 20 22  1  6  0  0  0
 20 21  1  0  0  0  0
 23  2  1  0  0  0  0
 24 23  1  0  0  0  0
 26 24  1  0  0  0  0
 26 25  1  0  0  0  0
 27 26  2  0  0  0  0
 28 27  1  0  0  0  0
 29 30  1  0  0  0  0
 29 28  1  0  0  0  0
 30 28  1  0  0  0  0
M  END
>  <MODEL>
3

>  <REMARK>
 VINA RESULT:      -5.7      2.454      8.025
  Name = 
  13 active torsions:
  status: ('A' for Active; 'I' for Inactive)
    1  A    between atoms: C_1  and  N_29
    2  A    between atoms: C_2  and  N_3
    3  A    between atoms: C_5  and  C_18
    4  A    between atoms: S_12  and  C_17
    5  A    between atoms: C_13  and  C_14
    6  A    between atoms: C_13  and  C_26
    7  A    between atoms: C_14  and  N_24
    8  A    between atoms: C_15  and  C_26
    9  A    between atoms: C_17  and  C_19
   10  A    between atoms: C_18  and  C_25
   11  A    between atoms: C_25  and  O_30
   12  A    between atoms: C_27  and  N_29
   13  A    between atoms: C_27  and  O_30
                            x       y       z     vdW  Elec       q    Type
                         _______ _______ _______ _____ _____    ______ ____

>  <TORSDO>
F 13

$$$$
=
 OpenBabel11042418283D

 30 31  0  0  1  0  0  0  0  0999 V2000
  189.7430  173.1490  145.4790 C   0  0  0  0  0  3  0  0  0  0  0  0
  190.1980  174.3330  145.9150 C   0  0  0  0  0  0  0  0  0  0  0  0
  191.2000  175.1450  145.1950 C   0  0  0  0  0  0  0  0  0  0  0  0
  192.5600  175.0600  145.5220 C   0  0  0  0  0  3  0  0  0  0  0  0
  191.7680  176.6930  143.4310 C   0  0  0  0  0  3  0  0  0  0  0  0
  193.4900  175.8160  144.8060 C   0  0  0  0  0  0  0  0  0  0  0  0
  193.0780  176.6090  143.7830 N   0  0  0  0  0  0  0  0  0  0  0  0
  190.8060  175.9590  144.1280 C   0  0  0  0  0  3  0  0  0  0  0  0
  194.9370  175.7210  145.1370 C   0  0  0  0  0  2  0  0  0  0  0  0
  196.6530  176.6150  143.3830 C   0  0  0  0  0  1  0  0  0  0  0  0
  195.8510  175.0290  143.7330 S   0  0  0  0  0  0  0  0  0  0  0  0
  191.3900  171.9030  144.2780 O   0  0  0  0  0  0  0  0  0  0  0  0
  190.2250  172.3790  144.3180 C   0  0  0  0  0  0  0  0  0  0  0  0
  189.2760  172.0760  143.2130 C   0  0  0  0  0  2  0  0  0  0  0  0
  189.4730  173.0650  142.0780 C   0  0  0  0  0  2  0  0  0  0  0  0
  187.3550  176.2040  141.5050 N   0  0  0  0  0  2  0  0  0  0  0  0
  188.1540  175.0520  141.2320 C   0  0  0  0  0  0  0  0  0  0  0  0
  188.4200  174.7590  140.0370 O   0  0  0  0  0  0  0  0  0  0  0  0
  188.6590  174.2510  142.3040 N   0  0  0  0  0  2  0  0  0  0  0  0
  187.0410  176.6380  142.8580 C   0  0  1  0  0  3  0  0  0  0  0  0
  187.8460  177.7230  143.2030 O   0  0  0  0  0  1  0  0  0  0  0  0
  185.5890  177.0550  142.9250 C   0  0  0  0  0  1  0  0  0  0  0  0
  189.6310  174.8600  147.1940 C   0  0  0  0  0  2  0  0  0  0  0  0
  188.2930  175.3140  146.9960 O   0  0  0  0  0  0  0  0  0  0  0  0
  188.8600  177.6250  146.8650 C   0  0  0  0  0  2  0  0  0  0  0  0
  187.9500  176.6520  146.7670 C   0  0  0  0  0  0  0  0  0  0  0  0
  186.5900  176.9610  146.4510 N   0  0  0  0  0  2  0  0  0  0  0  0
  185.8310  178.0210  147.1010 C   0  0  0  0  0  3  0  0  0  0  0  0
  185.3750  179.0230  146.0590 C   0  0  0  0  0  2  0  0  0  0  0  0
  184.4060  177.9890  146.5950 C   0  0  0  0  0  2  0  0  0  0  0  0
  1  2  2  0  0  0  0
  2 23  1  0  0  0  0
  3  4  1  0  0  0  0
  3  2  1  0  0  0  0
  5  7  2  0  0  0  0
  5  8  1  0  0  0  0
  6  9  1  0  0  0  0
  6  4  2  0  0  0  0
  7  6  1  0  0  0  0
  8  3  2  0  0  0  0
 10 11  1  0  0  0  0
 11  9  1  0  0  0  0
 12 13  2  0  0  0  0
 13  1  1  0  0  0  0
 14 13  1  0  0  0  0
 15 19  1  0  0  0  0
 15 14  1  0  0  0  0
 16 20  1  0  0  0  0
 17 16  1  0  0  0  0
 17 19  1  0  0  0  0
 18 17  2  0  0  0  0
 20 22  1  6  0  0  0
 20 21  1  0  0  0  0
 24 23  1  0  0  0  0
 26 25  2  0  0  0  0
 26 24  1  0  0  0  0
 27 26  1  0  0  0  0
 27 28  1  0  0  0  0
 29 30  1  0  0  0  0
 29 28  1  0  0  0  0
 30 28  1  0  0  0  0
M  END
>  <MODEL>
4

>  <REMARK>
 VINA RESULT:      -5.7      2.582      5.279
  Name = 
  13 active torsions:
  status: ('A' for Active; 'I' for Inactive)
    1  A    between atoms: C_1  and  N_29
    2  A    between atoms: C_2  and  N_3
    3  A    between atoms: C_5  and  C_18
    4  A    between atoms: S_12  and  C_17
    5  A    between atoms: C_13  and  C_14
    6  A    between atoms: C_13  and  C_26
    7  A    between atoms: C_14  and  N_24
    8  A    between atoms: C_15  and  C_26
    9  A    between atoms: C_17  and  C_19
   10  A    between atoms: C_18  and  C_25
   11  A    between atoms: C_25  and  O_30
   12  A    between atoms: C_27  and  N_29
   13  A    between atoms: C_27  and  O_30
                            x       y       z     vdW  Elec       q    Type
                         _______ _______ _______ _____ _____    ______ ____

>  <TORSDO>
F 13

$$$$
=
 OpenBabel11042418283D

 30 31  0  0  1  0  0  0  0  0999 V2000
  190.5500  174.8530  142.6640 C   0  0  0  0  0  3  0  0  0  0  0  0
  190.6100  175.8230  143.5890 C   0  0  0  0  0  0  0  0  0  0  0  0
  189.7260  175.8890  144.7710 C   0  0  0  0  0  0  0  0  0  0  0  0
  188.7070  176.8480  144.8490 C   0  0  0  0  0  3  0  0  0  0  0  0
  188.9880  174.9960  146.8890 C   0  0  0  0  0  3  0  0  0  0  0  0
  187.8660  176.8700  145.9640 C   0  0  0  0  0  0  0  0  0  0  0  0
  188.0220  175.9500  146.9520 N   0  0  0  0  0  0  0  0  0  0  0  0
  189.8540  174.9460  145.7950 C   0  0  0  0  0  3  0  0  0  0  0  0
  186.7730  177.8750  146.0500 C   0  0  0  0  0  2  0  0  0  0  0  0
  184.2410  178.4360  146.3630 C   0  0  0  0  0  1  0  0  0  0  0  0
  185.4000  177.2170  147.0350 S   0  0  0  0  0  0  0  0  0  0  0  0
  189.7680  172.6240  143.0140 O   0  0  0  0  0  0  0  0  0  0  0  0
  189.5480  173.7780  142.5610 C   0  0  0  0  0  0  0  0  0  0  0  0
  188.2100  174.0940  141.9920 C   0  0  0  0  0  2  0  0  0  0  0  0
  188.3130  175.2930  141.0660 C   0  0  0  0  0  2  0  0  0  0  0  0
  186.2430  178.4450  141.7320 N   0  0  0  0  0  2  0  0  0  0  0  0
  187.3720  177.5980  141.5180 C   0  0  0  0  0  0  0  0  0  0  0  0
  188.5280  178.0990  141.5410 O   0  0  0  0  0  0  0  0  0  0  0  0
  187.1950  176.1970  141.2950 N   0  0  0  0  0  2  0  0  0  0  0  0
  184.8790  177.9390  141.7670 C   0  0  1  0  0  3  0  0  0  0  0  0
  184.2260  178.4240  142.9000 O   0  0  0  0  0  1  0  0  0  0  0  0
  184.1410  178.4010  140.5310 C   0  0  0  0  0  1  0  0  0  0  0  0
  191.6530  176.8800  143.4130 C   0  0  0  0  0  2  0  0  0  0  0  0
  192.3060  177.1470  144.6530 O   0  0  0  0  0  0  0  0  0  0  0  0
  193.7220  176.2080  146.3240 C   0  0  0  0  0  1  0  0  0  0  0  0
  193.5040  176.5400  145.0480 C   0  0  0  0  0  0  0  0  0  0  0  0
  194.5080  176.3070  144.0570 N   0  0  0  0  0  0  0  0  0  0  0  0
  195.8190  175.7440  144.3520 C   0  0  0  0  0  3  0  0  0  0  0  0
  196.2660  174.8800  143.1910 C   0  0  0  0  0  2  0  0  0  0  0  0
  196.8210  176.2790  143.3550 C   0  0  0  0  0  2  0  0  0  0  0  0
  1  2  2  0  0  0  0
  2  3  1  0  0  0  0
  3  4  2  0  0  0  0
  3  8  1  0  0  0  0
  4  6  1  0  0  0  0
  5  7  1  0  0  0  0
  6  9  1  0  0  0  0
  6  7  2  0  0  0  0
  8  5  2  0  0  0  0
  9 11  1  0  0  0  0
 10 11  1  0  0  0  0
 13  1  1  0  0  0  0
 13 12  2  0  0  0  0
 14 13  1  0  0  0  0
 15 19  1  0  0  0  0
 15 14  1  0  0  0  0
 16 20  1  0  0  0  0
 17 18  2  0  0  0  0
 17 16  1  0  0  0  0
 19 17  1  0  0  0  0
 20 22  1  6  0  0  0
 20 21  1  0  0  0  0
 23  2  1  0  0  0  0
 23 24  1  0  0  0  0
 24 26  1  0  0  0  0
 26 25  1  0  0  0  0
 27 28  1  0  0  0  0
 27 26  2  0  0  0  0
 29 30  1  0  0  0  0
 29 28  1  0  0  0  0
 30 28  1  0  0  0  0
M  END
>  <MODEL>
5

>  <REMARK>
 VINA RESULT:      -5.6      2.024      7.112
  Name = 
  13 active torsions:
  status: ('A' for Active; 'I' for Inactive)
    1  A    between atoms: C_1  and  N_29
    2  A    between atoms: C_2  and  N_3
    3  A    between atoms: C_5  and  C_18
    4  A    between atoms: S_12  and  C_17
    5  A    between atoms: C_13  and  C_14
    6  A    between atoms: C_13  and  C_26
    7  A    between atoms: C_14  and  N_24
    8  A    between atoms: C_15  and  C_26
    9  A    between atoms: C_17  and  C_19
   10  A    between atoms: C_18  and  C_25
   11  A    between atoms: C_25  and  O_30
   12  A    between atoms: C_27  and  N_29
   13  A    between atoms: C_27  and  O_30
                            x       y       z     vdW  Elec       q    Type
                         _______ _______ _______ _____ _____    ______ ____

>  <TORSDO>
F 13

$$$$
=
 OpenBabel11042418283D

 30 31  0  0  1  0  0  0  0  0999 V2000
  189.7080  173.8060  145.0810 C   0  0  0  0  0  3  0  0  0  0  0  0
  190.4020  174.5730  145.9350 C   0  0  0  0  0  0  0  0  0  0  0  0
  191.7420  175.1240  145.6440 C   0  0  0  0  0  0  0  0  0  0  0  0
  192.8920  174.3450  145.8290 C   0  0  0  0  0  3  0  0  0  0  0  0
  193.1380  176.9060  144.8040 C   0  0  0  0  0  3  0  0  0  0  0  0
  194.1440  174.8800  145.5180 C   0  0  0  0  0  0  0  0  0  0  0  0
  194.2400  176.1380  145.0140 N   0  0  0  0  0  0  0  0  0  0  0  0
  191.8690  176.4110  145.1100 C   0  0  0  0  0  3  0  0  0  0  0  0
  195.3690  174.0570  145.6980 C   0  0  0  0  0  2  0  0  0  0  0  0
  197.5170  174.5310  144.2900 C   0  0  0  0  0  1  0  0  0  0  0  0
  196.0140  173.5410  144.0850 S   0  0  0  0  0  0  0  0  0  0  0  0
  191.0350  172.3480  143.7320 O   0  0  0  0  0  0  0  0  0  0  0  0
  190.1690  173.2610  143.7920 C   0  0  0  0  0  0  0  0  0  0  0  0
  189.5220  173.7350  142.5390 C   0  0  0  0  0  2  0  0  0  0  0  0
  189.7880  175.2180  142.3500 C   0  0  0  0  0  2  0  0  0  0  0  0
  187.1040  177.9300  142.6770 N   0  0  0  0  0  2  0  0  0  0  0  0
  188.3580  177.2580  142.7960 C   0  0  0  0  0  0  0  0  0  0  0  0
  189.3080  177.8310  143.3920 O   0  0  0  0  0  0  0  0  0  0  0  0
  188.5280  175.9430  142.2590 N   0  0  0  0  0  2  0  0  0  0  0  0
  185.9430  177.3190  142.0460 C   0  0  1  0  0  3  0  0  0  0  0  0
  184.8060  177.5630  142.8140 O   0  0  0  0  0  1  0  0  0  0  0  0
  185.7520  177.9150  140.6690 C   0  0  0  0  0  1  0  0  0  0  0  0
  189.7610  174.9010  147.2450 C   0  0  0  0  0  2  0  0  0  0  0  0
  188.4020  175.2920  147.0500 O   0  0  0  0  0  0  0  0  0  0  0  0
  188.8440  177.6290  146.9090 C   0  0  0  0  0  1  0  0  0  0  0  0
  188.0030  176.6020  146.7620 C   0  0  0  0  0  0  0  0  0  0  0  0
  186.6570  176.8230  146.3300 N   0  0  0  0  0  0  0  0  0  0  0  0
  186.0180  178.1320  146.3180 C   0  0  0  0  0  3  0  0  0  0  0  0
  184.5140  177.9560  146.3680 C   0  0  0  0  0  2  0  0  0  0  0  0
  185.2770  178.3310  147.6210 C   0  0  0  0  0  2  0  0  0  0  0  0
  1  2  2  0  0  0  0
  2 23  1  0  0  0  0
  3  4  1  0  0  0  0
  3  2  1  0  0  0  0
  5  7  2  0  0  0  0
  5  8  1  0  0  0  0
  6  9  1  0  0  0  0
  6  4  2  0  0  0  0
  7  6  1  0  0  0  0
  8  3  2  0  0  0  0
 11 10  1  0  0  0  0
 11  9  1  0  0  0  0
 12 13  2  0  0  0  0
 13  1  1  0  0  0  0
 14 13  1  0  0  0  0
 15 14  1  0  0  0  0
 16 17  1  0  0  0  0
 17 18  2  0  0  0  0
 19 15  1  0  0  0  0
 19 17  1  0  0  0  0
 20 22  1  6  0  0  0
 20 16  1  0  0  0  0
 20 21  1  0  0  0  0
 24 23  1  0  0  0  0
 26 25  1  0  0  0  0
 26 24  1  0  0  0  0
 27 26  2  0  0  0  0
 28 27  1  0  0  0  0
 28 29  1  0  0  0  0
 28 30  1  0  0  0  0
 29 30  1  0  0  0  0
M  END
>  <MODEL>
6

>  <REMARK>
 VINA RESULT:      -5.5      2.548      5.609
  Name = 
  13 active torsions:
  status: ('A' for Active; 'I' for Inactive)
    1  A    between atoms: C_1  and  N_29
    2  A    between atoms: C_2  and  N_3
    3  A    between atoms: C_5  and  C_18
    4  A    between atoms: S_12  and  C_17
    5  A    between atoms: C_13  and  C_14
    6  A    between atoms: C_13  and  C_26
    7  A    between atoms: C_14  and  N_24
    8  A    between atoms: C_15  and  C_26
    9  A    between atoms: C_17  and  C_19
   10  A    between atoms: C_18  and  C_25
   11  A    between atoms: C_25  and  O_30
   12  A    between atoms: C_27  and  N_29
   13  A    between atoms: C_27  and  O_30
                            x       y       z     vdW  Elec       q    Type
                         _______ _______ _______ _____ _____    ______ ____

>  <TORSDO>
F 13

$$$$
=
 OpenBabel11042418283D

 30 31  0  0  1  0  0  0  0  0999 V2000
  190.1460  177.3930  145.2570 C   0  0  0  0  0  3  0  0  0  0  0  0
  190.0080  176.1980  145.8500 C   0  0  0  0  0  0  0  0  0  0  0  0
  190.8530  175.0250  145.5460 C   0  0  0  0  0  0  0  0  0  0  0  0
  190.4170  174.0400  144.6490 C   0  0  0  0  0  3  0  0  0  0  0  0
  192.9380  173.8290  145.7740 C   0  0  0  0  0  3  0  0  0  0  0  0
  191.2480  172.9570  144.3570 C   0  0  0  0  0  0  0  0  0  0  0  0
  192.4820  172.8760  144.9190 N   0  0  0  0  0  0  0  0  0  0  0  0
  192.1340  174.9230  146.0990 C   0  0  0  0  0  3  0  0  0  0  0  0
  190.7990  171.9150  143.3960 C   0  0  0  0  0  2  0  0  0  0  0  0
  189.6820  172.3280  141.0720 C   0  0  0  0  0  1  0  0  0  0  0  0
  189.1320  172.2990  142.7970 S   0  0  0  0  0  0  0  0  0  0  0  0
  192.2870  177.7640  144.2650 O   0  0  0  0  0  0  0  0  0  0  0  0
  191.0350  177.7350  144.1330 C   0  0  0  0  0  0  0  0  0  0  0  0
  190.4400  177.9570  142.7870 C   0  0  0  0  0  2  0  0  0  0  0  0
  189.6640  176.7250  142.3570 C   0  0  0  0  0  2  0  0  0  0  0  0
  185.8630  176.9590  141.9550 N   0  0  0  0  0  2  0  0  0  0  0  0
  187.1410  176.5460  142.4390 C   0  0  0  0  0  0  0  0  0  0  0  0
  187.2020  175.6710  143.3430 O   0  0  0  0  0  0  0  0  0  0  0  0
  188.3380  177.1080  141.8930 N   0  0  0  0  0  2  0  0  0  0  0  0
  185.7060  177.9290  140.8810 C   0  0  1  0  0  3  0  0  0  0  0  0
  186.1680  177.3840  139.6830 O   0  0  0  0  0  1  0  0  0  0  0  0
  184.2430  178.2830  140.7360 C   0  0  0  0  0  1  0  0  0  0  0  0
  188.9460  176.0650  146.8940 C   0  0  0  0  0  2  0  0  0  0  0  0
  188.2540  177.3020  147.0610 O   0  0  0  0  0  0  0  0  0  0  0  0
  185.9600  176.9890  147.6250 C   0  0  0  0  0  2  0  0  0  0  0  0
  186.8900  177.4730  146.7970 C   0  0  0  0  0  0  0  0  0  0  0  0
  186.5100  178.1560  145.5990 N   0  0  0  0  0  2  0  0  0  0  0  0
  185.5650  179.2650  145.5670 C   0  0  0  0  0  3  0  0  0  0  0  0
  185.4640  179.7960  144.1520 C   0  0  0  0  0  2  0  0  0  0  0  0
  184.3870  178.8840  144.7000 C   0  0  0  0  0  2  0  0  0  0  0  0
  1  2  2  0  0  0  0
  2 23  1  0  0  0  0
  3  2  1  0  0  0  0
  3  8  1  0  0  0  0
  4  3  2  0  0  0  0
  5  8  2  0  0  0  0
  6  4  1  0  0  0  0
  6  7  2  0  0  0  0
  7  5  1  0  0  0  0
  9  6  1  0  0  0  0
 10 11  1  0  0  0  0
 11  9  1  0  0  0  0
 13 12  2  0  0  0  0
 13  1  1  0  0  0  0
 14 13  1  0  0  0  0
 15 14  1  0  0  0  0
 16 17  1  0  0  0  0
 17 18  2  0  0  0  0
 19 15  1  0  0  0  0
 19 17  1  0  0  0  0
 20 22  1  6  0  0  0
 20 16  1  0  0  0  0
 21 20  1  0  0  0  0
 23 24  1  0  0  0  0
 26 24  1  0  0  0  0
 26 25  2  0  0  0  0
 27 26  1  0  0  0  0
 28 27  1  0  0  0  0
 29 30  1  0  0  0  0
 29 28  1  0  0  0  0
 30 28  1  0  0  0  0
M  END
>  <MODEL>
7

>  <REMARK>
 VINA RESULT:      -5.5      2.361      5.803
  Name = 
  13 active torsions:
  status: ('A' for Active; 'I' for Inactive)
    1  A    between atoms: C_1  and  N_29
    2  A    between atoms: C_2  and  N_3
    3  A    between atoms: C_5  and  C_18
    4  A    between atoms: S_12  and  C_17
    5  A    between atoms: C_13  and  C_14
    6  A    between atoms: C_13  and  C_26
    7  A    between atoms: C_14  and  N_24
    8  A    between atoms: C_15  and  C_26
    9  A    between atoms: C_17  and  C_19
   10  A    between atoms: C_18  and  C_25
   11  A    between atoms: C_25  and  O_30
   12  A    between atoms: C_27  and  N_29
   13  A    between atoms: C_27  and  O_30
                            x       y       z     vdW  Elec       q    Type
                         _______ _______ _______ _____ _____    ______ ____

>  <TORSDO>
F 13

$$$$
=
 OpenBabel11042418283D

 30 31  0  0  1  0  0  0  0  0999 V2000
  188.3410  174.9770  141.3580 C   0  0  0  0  0  3  0  0  0  0  0  0
  187.9560  176.0920  141.9960 C   0  0  0  0  0  0  0  0  0  0  0  0
  188.7110  176.7080  143.1060 C   0  0  0  0  0  0  0  0  0  0  0  0
  188.4080  176.3960  144.4390 C   0  0  0  0  0  3  0  0  0  0  0  0
  190.5180  178.1040  143.8920 C   0  0  0  0  0  3  0  0  0  0  0  0
  189.1560  176.9690  145.4690 C   0  0  0  0  0  0  0  0  0  0  0  0
  190.1890  177.8030  145.1760 N   0  0  0  0  0  0  0  0  0  0  0  0
  189.7880  177.5580  142.8340 C   0  0  0  0  0  3  0  0  0  0  0  0
  188.8510  176.6340  146.8850 C   0  0  0  0  0  2  0  0  0  0  0  0
  190.9470  175.4080  147.8470 C   0  0  0  0  0  1  0  0  0  0  0  0
  189.3160  174.9160  147.2300 S   0  0  0  0  0  0  0  0  0  0  0  0
  190.6560  174.3920  141.4040 O   0  0  0  0  0  0  0  0  0  0  0  0
  189.4690  174.0950  141.7030 C   0  0  0  0  0  0  0  0  0  0  0  0
  189.2050  172.8720  142.5090 C   0  0  0  0  0  2  0  0  0  0  0  0
  189.6010  173.1110  143.9550 C   0  0  0  0  0  2  0  0  0  0  0  0
  193.3520  172.9920  144.7190 N   0  0  0  0  0  2  0  0  0  0  0  0
  192.0410  173.5120  144.4950 C   0  0  0  0  0  0  0  0  0  0  0  0
  191.8530  174.7560  144.5590 O   0  0  0  0  0  0  0  0  0  0  0  0
  190.9570  172.6310  144.1860 N   0  0  0  0  0  2  0  0  0  0  0  0
  193.6620  171.5740  144.6170 C   0  0  1  0  0  3  0  0  0  0  0  0
  194.3110  171.3190  143.4100 O   0  0  0  0  0  1  0  0  0  0  0  0
  194.5660  171.1770  145.7630 C   0  0  0  0  0  1  0  0  0  0  0  0
  186.6980  176.7540  141.5300 C   0  0  0  0  0  2  0  0  0  0  0  0
  186.3400  177.8190  142.4100 O   0  0  0  0  0  0  0  0  0  0  0  0
  184.0040  178.2910  142.3770 C   0  0  0  0  0  2  0  0  0  0  0  0
  185.0980  177.9170  143.0470 C   0  0  0  0  0  0  0  0  0  0  0  0
  185.0280  177.6350  144.4480 N   0  0  0  0  0  2  0  0  0  0  0  0
  184.4630  178.5510  145.4290 C   0  0  0  0  0  3  0  0  0  0  0  0
  184.6200  177.9600  146.8150 C   0  0  0  0  0  2  0  0  0  0  0  0
  185.5670  179.0420  146.3380 C   0  0  0  0  0  2  0  0  0  0  0  0
  1 13  1  0  0  0  0
  1  2  2  0  0  0  0
  2  3  1  0  0  0  0
  3  4  1  0  0  0  0
  4  6  2  0  0  0  0
  5  7  2  0  0  0  0
  6  9  1  0  0  0  0
  7  6  1  0  0  0  0
  8  3  2  0  0  0  0
  8  5  1  0  0  0  0
  9 11  1  0  0  0  0
 11 10  1  0  0  0  0
 12 13  2  0  0  0  0
 13 14  1  0  0  0  0
 14 15  1  0  0  0  0
 15 19  1  0  0  0  0
 17 18  2  0  0  0  0
 17 16  1  0  0  0  0
 19 17  1  0  0  0  0
 20 16  1  0  0  0  0
 20 22  1  1  0  0  0
 21 20  1  0  0  0  0
 23  2  1  0  0  0  0
 23 24  1  0  0  0  0
 24 26  1  0  0  0  0
 25 26  2  0  0  0  0
 26 27  1  0  0  0  0
 27 28  1  0  0  0  0
 28 30  1  0  0  0  0
 28 29  1  0  0  0  0
 30 29  1  0  0  0  0
M  END
>  <MODEL>
8

>  <REMARK>
 VINA RESULT:      -5.5      1.601      2.095
  Name = 
  13 active torsions:
  status: ('A' for Active; 'I' for Inactive)
    1  A    between atoms: C_1  and  N_29
    2  A    between atoms: C_2  and  N_3
    3  A    between atoms: C_5  and  C_18
    4  A    between atoms: S_12  and  C_17
    5  A    between atoms: C_13  and  C_14
    6  A    between atoms: C_13  and  C_26
    7  A    between atoms: C_14  and  N_24
    8  A    between atoms: C_15  and  C_26
    9  A    between atoms: C_17  and  C_19
   10  A    between atoms: C_18  and  C_25
   11  A    between atoms: C_25  and  O_30
   12  A    between atoms: C_27  and  N_29
   13  A    between atoms: C_27  and  O_30
                            x       y       z     vdW  Elec       q    Type
                         _______ _______ _______ _____ _____    ______ ____

>  <TORSDO>
F 13

$$$$
=
 OpenBabel11042418283D

 30 31  0  0  1  0  0  0  0  0999 V2000
  188.7810  175.7330  147.0720 C   0  0  0  0  0  3  0  0  0  0  0  0
  188.3390  176.6860  146.2370 C   0  0  0  0  0  0  0  0  0  0  0  0
  188.8400  176.8710  144.8600 C   0  0  0  0  0  0  0  0  0  0  0  0
  188.2880  176.1480  143.7940 C   0  0  0  0  0  3  0  0  0  0  0  0
  190.2640  178.0190  143.2840 C   0  0  0  0  0  3  0  0  0  0  0  0
  188.7600  176.3630  142.4970 C   0  0  0  0  0  0  0  0  0  0  0  0
  189.7280  177.2880  142.2710 N   0  0  0  0  0  0  0  0  0  0  0  0
  189.8260  177.8270  144.5960 C   0  0  0  0  0  3  0  0  0  0  0  0
  188.1710  175.6100  141.3580 C   0  0  0  0  0  2  0  0  0  0  0  0
  188.1300  173.0410  141.8270 C   0  0  0  0  0  1  0  0  0  0  0  0
  189.2180  174.1890  140.9450 S   0  0  0  0  0  0  0  0  0  0  0  0
  191.0060  174.9470  147.4420 O   0  0  0  0  0  0  0  0  0  0  0  0
  189.9020  174.8030  146.8520 C   0  0  0  0  0  0  0  0  0  0  0  0
  189.6900  173.6120  145.9870 C   0  0  0  0  0  2  0  0  0  0  0  0
  190.6430  173.6550  144.8050 C   0  0  0  0  0  2  0  0  0  0  0  0
  193.6450  176.0090  144.4700 N   0  0  0  0  0  2  0  0  0  0  0  0
  192.5340  175.1870  144.1110 C   0  0  0  0  0  0  0  0  0  0  0  0
  192.2280  175.0630  142.8960 O   0  0  0  0  0  0  0  0  0  0  0  0
  191.7860  174.5000  145.1190 N   0  0  0  0  0  2  0  0  0  0  0  0
  194.0920  176.1670  145.8460 C   0  0  1  0  0  3  0  0  0  0  0  0
  195.1130  175.2570  146.1170 O   0  0  0  0  0  1  0  0  0  0  0  0
  194.6120  177.5730  146.0440 C   0  0  0  0  0  1  0  0  0  0  0  0
  187.2590  177.5920  146.7360 C   0  0  0  0  0  2  0  0  0  0  0  0
  185.9980  177.2140  146.1850 O   0  0  0  0  0  0  0  0  0  0  0  0
  184.0690  178.6100  146.1060 C   0  0  0  0  0  2  0  0  0  0  0  0
  185.1480  178.0960  145.5090 C   0  0  0  0  0  0  0  0  0  0  0  0
  185.4440  178.4160  144.1470 N   0  0  0  0  0  2  0  0  0  0  0  0
  185.0890  177.5630  143.0210 C   0  0  0  0  0  3  0  0  0  0  0  0
  184.0770  178.2780  142.1490 C   0  0  0  0  0  2  0  0  0  0  0  0
  185.5340  178.2280  141.7380 C   0  0  0  0  0  2  0  0  0  0  0  0
  2 23  1  0  0  0  0
  2  1  2  0  0  0  0
  3  2  1  0  0  0  0
  4  3  2  0  0  0  0
  5  8  2  0  0  0  0
  6  4  1  0  0  0  0
  7  6  2  0  0  0  0
  7  5  1  0  0  0  0
  8  3  1  0  0  0  0
  9  6  1  0  0  0  0
 11  9  1  0  0  0  0
 11 10  1  0  0  0  0
 13  1  1  0  0  0  0
 13 12  2  0  0  0  0
 14 13  1  0  0  0  0
 15 19  1  0  0  0  0
 15 14  1  0  0  0  0
 16 20  1  0  0  0  0
 17 16  1  0  0  0  0
 17 19  1  0  0  0  0
 18 17  2  0  0  0  0
 20 22  1  6  0  0  0
 20 21  1  0  0  0  0
 24 23  1  0  0  0  0
 26 25  2  0  0  0  0
 26 24  1  0  0  0  0
 27 26  1  0  0  0  0
 28 27  1  0  0  0  0
 29 28  1  0  0  0  0
 30 29  1  0  0  0  0
 30 28  1  0  0  0  0
M  END
>  <MODEL>
9

>  <REMARK>
 VINA RESULT:      -5.5      2.139      3.774
  Name = 
  13 active torsions:
  status: ('A' for Active; 'I' for Inactive)
    1  A    between atoms: C_1  and  N_29
    2  A    between atoms: C_2  and  N_3
    3  A    between atoms: C_5  and  C_18
    4  A    between atoms: S_12  and  C_17
    5  A    between atoms: C_13  and  C_14
    6  A    between atoms: C_13  and  C_26
    7  A    between atoms: C_14  and  N_24
    8  A    between atoms: C_15  and  C_26
    9  A    between atoms: C_17  and  C_19
   10  A    between atoms: C_18  and  C_25
   11  A    between atoms: C_25  and  O_30
   12  A    between atoms: C_27  and  N_29
   13  A    between atoms: C_27  and  O_30
                            x       y       z     vdW  Elec       q    Type
                         _______ _______ _______ _____ _____    ______ ____

>  <TORSDO>
F 13

$$$$
