=
 OpenBabel11042419513D

 56 63  0  0  1  0  0  0  0  0999 V2000
  191.3400  177.0100  143.4310 C   0  0  0  0  0  2  0  0  0  0  0  0
  188.5040  174.9980  143.8880 C   0  0  0  0  0  2  0  0  0  0  0  0
  184.7800  177.2620  143.5210 C   0  0  0  0  0  3  0  0  0  0  0  0
  188.1090  176.1540  144.7590 C   0  0  0  0  0  0  0  0  0  0  0  0
  185.8980  176.5580  143.6580 C   0  0  0  0  0  0  0  0  0  0  0  0
  186.0470  179.3690  147.2640 N   0  0  0  0  0  0  0  0  0  0  0  0
  189.4460  175.3670  142.7510 C   0  0  2  0  0  3  0  0  0  0  0  0
  190.8870  175.5610  143.2340 C   0  0  0  0  0  2  0  0  0  0  0  0
  188.8730  176.5380  146.0100 C   0  0  1  0  0  3  0  0  0  0  0  0
  184.2560  178.4620  144.2060 C   0  0  0  0  0  0  0  0  0  0  0  0
  190.4390  177.8300  144.3520 C   0  0  0  0  0  2  0  0  0  0  0  0
  184.7640  179.0100  145.2660 N   0  0  0  0  0  0  0  0  0  0  0  0
  190.2200  177.2320  145.7500 C   0  0  2  0  0  3  0  0  0  0  0  0
  186.0280  175.4950  142.8230 F   0  0  0  0  0  0  0  0  0  0  0  0
  188.0820  178.2260  147.7880 C   0  0  0  0  0  3  0  0  0  0  0  0
  187.9330  177.5300  146.5930 C   0  0  0  0  0  0  0  0  0  0  0  0
  186.8470  177.7290  145.7690 C   0  0  0  0  0  0  0  0  0  0  0  0
  185.8850  178.6790  146.0970 C   0  0  0  0  0  0  0  0  0  0  0  0
  186.9530  176.8330  144.6420 C   0  0  0  0  0  0  0  0  0  0  0  0
  187.0970  179.1610  148.1090 C   0  0  0  0  0  3  0  0  0  0  0  0
  182.4400  178.5720  142.6480 C   0  0  0  0  0  3  0  0  0  0  0  0
  183.0960  179.0870  143.6460 N   0  0  0  0  0  0  0  0  0  0  0  0
  181.2810  179.3070  142.0570 C   0  0  0  0  0  2  0  0  0  0  0  0
  181.1770  178.9820  140.6440 N   0  0  0  0  0  0  0  0  0  0  0  0
  182.2400  178.1780  140.3530 O   0  0  0  0  0  1  0  0  0  0  0  0
  178.8720  179.0580  139.8650 C   0  0  0  0  0  2  0  0  0  0  0  0
  178.8660  178.7580  141.3500 C   0  0  0  0  0  2  0  0  0  0  0  0
  179.9690  178.1930  140.4690 C   0  0  0  0  0  3  0  0  0  0  0  0
  191.3960  176.5500  146.3750 C   0  0  0  0  0  3  0  0  0  0  0  0
  192.6230  176.9500  146.0960 C   0  0  0  0  0  3  0  0  0  0  0  0
  193.7950  176.2850  146.7260 C   0  0  0  0  0  2  0  0  0  0  0  0
  193.8950  174.8530  146.2360 C   0  0  0  0  0  2  0  0  0  0  0  0
  195.1730  174.6420  145.4410 C   0  0  0  0  0  2  0  0  0  0  0  0
  194.6300  173.5600  143.1280 C   0  0  1  0  0  3  0  0  0  0  0  0
  194.9280  174.8760  143.9450 C   0  0  2  0  0  3  0  0  0  0  0  0
  196.1200  176.9750  143.8680 O   0  0  0  0  0  1  0  0  0  0  0  0
  195.7100  175.8650  141.7890 C   0  0  2  0  0  0  0  0  0  0  0  0
  194.7030  173.7630  141.7190 O   0  0  0  0  0  0  0  0  0  0  0  0
  194.3830  176.2760  141.6140 O   0  0  0  0  0  1  0  0  0  0  0  0
  196.2030  175.3360  140.4350 C   0  0  2  0  0  3  0  0  0  0  0  0
  195.9550  174.3600  141.5100 C   0  0  1  0  0  3  0  0  0  0  0  0
  196.0540  175.7170  143.2720 C   0  0  2  0  0  3  0  0  0  0  0  0
  197.6280  175.5940  140.3200 N   0  0  0  0  0  2  0  0  0  0  0  0
  197.8730  175.8850  139.0170 O   0  0  0  0  0  1  0  0  0  0  0  0
  195.4480  172.3340  143.5590 C   0  0  0  0  0  2  0  0  0  0  0  0
  194.5730  171.2850  143.8490 O   0  0  0  0  0  1  0  0  0  0  0  0
  188.9300  176.4840  141.8460 C   0  0  0  0  0  2  0  0  0  0  0  0
  188.1110  175.9080  140.7000 C   0  0  0  0  0  2  0  0  0  0  0  0
  187.9210  174.9540  137.6960 S   0  0  0  0  0  0  0  0  0  0  0  0
  189.1180  172.7910  138.7650 N   0  0  0  0  0  0  0  0  0  0  0  0
  188.5970  174.0710  139.0890 C   0  0  0  0  0  0  0  0  0  0  0  0
  189.1380  172.5320  137.3330 C   0  0  0  0  0  2  0  0  0  0  0  0
  188.6760  174.5810  140.3210 C   0  0  0  0  0  3  0  0  0  0  0  0
  188.9150  173.8630  136.6100 C   0  0  0  0  0  2  0  0  0  0  0  0
  191.3480  172.1670  139.5370 C   0  0  0  0  0  1  0  0  0  0  0  0
  189.8540  171.9690  139.7130 C   0  0  0  0  0  2  0  0  0  0  0  0
  1 11  1  0  0  0  0
  2  4  1  0  0  0  0
  3  5  2  0  0  0  0
  3 10  1  0  0  0  0
  5 19  1  0  0  0  0
  6 20  1  0  0  0  0
  7 47  1  1  0  0  0
  7  8  1  0  0  0  0
  7  2  1  0  0  0  0
  8  1  1  0  0  0  0
  9  4  1  6  0  0  0
  9 16  1  0  0  0  0
 10 12  2  0  0  0  0
 11 13  1  0  0  0  0
 12 18  1  0  0  0  0
 13  9  1  0  0  0  0
 13 29  1  6  0  0  0
 14  5  1  0  0  0  0
 15 20  2  0  0  0  0
 16 15  1  0  0  0  0
 17 18  1  0  0  0  0
 17 16  2  0  0  0  0
 18  6  2  0  0  0  0
 19  4  2  0  0  0  0
 19 17  1  0  0  0  0
 21 22  2  0  0  0  0
 22 10  1  0  0  0  0
 23 21  1  0  0  0  0
 24 23  1  0  0  0  0
 25 24  1  0  0  0  0
 26 28  1  0  0  0  0
 26 27  1  0  0  0  0
 28 24  1  0  0  0  0
 28 27  1  0  0  0  0
 30 29  2  0  0  0  0
 30 31  1  0  0  0  0
 32 31  1  0  0  0  0
 33 32  1  0  0  0  0
 34 45  1  1  0  0  0
 34 35  1  0  0  0  0
 35 33  1  1  0  0  0
 37 39  1  6  0  0  0
 37 42  1  0  0  0  0
 38 34  1  0  0  0  0
 40 43  1  1  0  0  0
 40 41  1  0  0  0  0
 40 37  1  0  0  0  0
 41 38  1  6  0  0  0
 41 37  1  0  0  0  0
 42 36  1  1  0  0  0
 42 35  1  0  0  0  0
 44 43  1  0  0  0  0
 45 46  1  0  0  0  0
 48 47  1  0  0  0  0
 49 51  1  0  0  0  0
 50 51  1  0  0  0  0
 50 56  1  0  0  0  0
 51 53  2  0  0  0  0
 52 50  1  0  0  0  0
 53 48  1  0  0  0  0
 54 52  1  0  0  0  0
 54 49  1  0  0  0  0
 55 56  1  0  0  0  0
M  END
>  <MODEL>
1

>  <REMARK>
 VINA RESULT:      -6.8      0.000      0.000
  Name = 
  15 active torsions:
  status: ('A' for Active; 'I' for Inactive)
    1  A    between atoms: C_2  and  C_35
    2  A    between atoms: C_4  and  C_14
    3  A    between atoms: C_6  and  C_9
    4  A    between atoms: C_9  and  C_33
    5  A    between atoms: C_10  and  C_16
    6  A    between atoms: C_10  and  C_25
    7  A    between atoms: N_11  and  C_49
    8  A    between atoms: C_12  and  C_40
    9  A    between atoms: C_16  and  C_47
   10  A    between atoms: N_19  and  C_42
   11  A    between atoms: N_23  and  C_29
   12  A    between atoms: N_24  and  C_35
   13  A    between atoms: N_24  and  C_53
   14  A    between atoms: C_32  and  C_33
   15  A    between atoms: C_32  and  C_56
                            x       y       z     vdW  Elec       q    Type
                         _______ _______ _______ _____ _____    ______ ____

>  <TORSDO>
F 15

$$$$
=
 OpenBabel11042419513D

 56 63  0  0  1  0  0  0  0  0999 V2000
  191.2330  177.3260  143.3240 C   0  0  0  0  0  2  0  0  0  0  0  0
  188.4940  175.1940  143.8330 C   0  0  0  0  0  2  0  0  0  0  0  0
  184.6720  177.3060  143.5830 C   0  0  0  0  0  3  0  0  0  0  0  0
  188.0750  176.3250  144.7250 C   0  0  0  0  0  0  0  0  0  0  0  0
  185.8210  176.6470  143.6840 C   0  0  0  0  0  0  0  0  0  0  0  0
  185.9480  179.4290  147.3130 N   0  0  0  0  0  0  0  0  0  0  0  0
  189.3900  175.6120  142.6760 C   0  0  2  0  0  3  0  0  0  0  0  0
  190.8350  175.8610  143.1240 C   0  0  0  0  0  2  0  0  0  0  0  0
  188.8550  176.7300  145.9600 C   0  0  1  0  0  3  0  0  0  0  0  0
  184.1180  178.4770  144.2930 C   0  0  0  0  0  0  0  0  0  0  0  0
  190.3230  178.0990  144.2760 C   0  0  0  0  0  2  0  0  0  0  0  0
  184.6300  179.0360  145.3460 N   0  0  0  0  0  0  0  0  0  0  0  0
  190.1650  177.4810  145.6720 C   0  0  2  0  0  3  0  0  0  0  0  0
  185.9740  175.5980  142.8370 F   0  0  0  0  0  0  0  0  0  0  0  0
  188.0410  178.3670  147.7740 C   0  0  0  0  0  3  0  0  0  0  0  0
  187.8900  177.6760  146.5770 C   0  0  0  0  0  0  0  0  0  0  0  0
  186.7760  177.8380  145.7820 C   0  0  0  0  0  0  0  0  0  0  0  0
  185.7840  178.7440  146.1440 C   0  0  0  0  0  0  0  0  0  0  0  0
  186.8890  176.9560  144.6440 C   0  0  0  0  0  0  0  0  0  0  0  0
  187.0270  179.2580  148.1290 C   0  0  0  0  0  3  0  0  0  0  0  0
  182.3850  178.6650  142.6490 C   0  0  0  0  0  3  0  0  0  0  0  0
  182.9190  179.0580  143.7690 N   0  0  0  0  0  0  0  0  0  0  0  0
  181.1750  179.3610  142.1160 C   0  0  0  0  0  2  0  0  0  0  0  0
  181.0340  179.0570  140.7010 N   0  0  0  0  0  0  0  0  0  0  0  0
  181.9780  178.1160  140.4100 O   0  0  0  0  0  1  0  0  0  0  0  0
  178.7580  179.4570  139.9370 C   0  0  0  0  0  2  0  0  0  0  0  0
  178.7160  179.1330  141.4150 C   0  0  0  0  0  2  0  0  0  0  0  0
  179.7300  178.4410  140.5180 C   0  0  0  0  0  3  0  0  0  0  0  0
  191.3830  176.8420  146.2610 C   0  0  0  0  0  3  0  0  0  0  0  0
  191.4250  175.5350  146.4470 C   0  0  0  0  0  3  0  0  0  0  0  0
  192.6390  174.8940  147.0200 C   0  0  0  0  0  2  0  0  0  0  0  0
  193.5960  174.5220  145.9030 C   0  0  0  0  0  2  0  0  0  0  0  0
  194.9680  175.1310  146.1410 C   0  0  0  0  0  2  0  0  0  0  0  0
  196.7080  175.2900  144.2010 C   0  0  1  0  0  3  0  0  0  0  0  0
  196.0370  174.4010  145.3180 C   0  0  2  0  0  3  0  0  0  0  0  0
  195.1750  172.1920  145.7750 O   0  0  0  0  0  1  0  0  0  0  0  0
  196.6700  172.4280  143.9230 C   0  0  2  0  0  0  0  0  0  0  0  0
  197.4650  174.5210  143.2720 O   0  0  0  0  0  0  0  0  0  0  0  0
  197.8690  172.4300  144.6470 O   0  0  0  0  0  1  0  0  0  0  0  0
  197.0280  172.1730  142.4530 C   0  0  2  0  0  3  0  0  0  0  0  0
  196.5810  173.5240  142.8310 C   0  0  1  0  0  3  0  0  0  0  0  0
  195.5310  173.0470  144.7350 C   0  0  2  0  0  3  0  0  0  0  0  0
  195.9380  171.4490  141.8210 N   0  0  0  0  0  2  0  0  0  0  0  0
  194.9460  172.3480  141.5950 O   0  0  0  0  0  1  0  0  0  0  0  0
  195.7510  176.2530  143.4830 C   0  0  0  0  0  2  0  0  0  0  0  0
  196.4030  176.7970  142.3740 O   0  0  0  0  0  1  0  0  0  0  0  0
  188.8060  176.7150  141.7950 C   0  0  0  0  0  2  0  0  0  0  0  0
  188.0550  176.1150  140.6160 C   0  0  0  0  0  2  0  0  0  0  0  0
  187.9740  174.9600  137.6780 S   0  0  0  0  0  0  0  0  0  0  0  0
  189.0100  172.8270  138.9570 N   0  0  0  0  0  0  0  0  0  0  0  0
  188.5350  174.1490  139.1630 C   0  0  0  0  0  0  0  0  0  0  0  0
  189.0910  172.4660  137.5490 C   0  0  0  0  0  2  0  0  0  0  0  0
  188.5740  174.7400  140.3600 C   0  0  0  0  0  3  0  0  0  0  0  0
  188.9700  173.7520  136.7250 C   0  0  0  0  0  2  0  0  0  0  0  0
  191.1140  172.4400  140.1320 C   0  0  0  0  0  1  0  0  0  0  0  0
  189.6550  172.0420  139.9980 C   0  0  0  0  0  2  0  0  0  0  0  0
  1 11  1  0  0  0  0
  2  4  1  0  0  0  0
  3  5  2  0  0  0  0
  3 10  1  0  0  0  0
  5 19  1  0  0  0  0
  6 20  1  0  0  0  0
  7 47  1  1  0  0  0
  7  8  1  0  0  0  0
  7  2  1  0  0  0  0
  8  1  1  0  0  0  0
  9  4  1  6  0  0  0
  9 16  1  0  0  0  0
 10 12  2  0  0  0  0
 11 13  1  0  0  0  0
 12 18  1  0  0  0  0
 13  9  1  0  0  0  0
 13 29  1  6  0  0  0
 14  5  1  0  0  0  0
 15 20  2  0  0  0  0
 16 15  1  0  0  0  0
 17 18  1  0  0  0  0
 17 16  2  0  0  0  0
 18  6  2  0  0  0  0
 19  4  2  0  0  0  0
 19 17  1  0  0  0  0
 21 22  2  0  0  0  0
 22 10  1  0  0  0  0
 23 21  1  0  0  0  0
 24 23  1  0  0  0  0
 25 24  1  0  0  0  0
 26 28  1  0  0  0  0
 26 27  1  0  0  0  0
 28 24  1  0  0  0  0
 28 27  1  0  0  0  0
 29 30  2  0  0  0  0
 30 31  1  0  0  0  0
 32 33  1  0  0  0  0
 32 31  1  0  0  0  0
 34 45  1  6  0  0  0
 34 35  1  0  0  0  0
 35 33  1  6  0  0  0
 37 39  1  1  0  0  0
 37 42  1  0  0  0  0
 38 34  1  0  0  0  0
 40 43  1  6  0  0  0
 40 41  1  0  0  0  0
 40 37  1  0  0  0  0
 41 38  1  1  0  0  0
 41 37  1  0  0  0  0
 42 35  1  0  0  0  0
 42 36  1  1  0  0  0
 44 43  1  0  0  0  0
 46 45  1  0  0  0  0
 48 47  1  0  0  0  0
 49 51  1  0  0  0  0
 50 51  1  0  0  0  0
 50 56  1  0  0  0  0
 51 53  2  0  0  0  0
 52 50  1  0  0  0  0
 53 48  1  0  0  0  0
 54 52  1  0  0  0  0
 54 49  1  0  0  0  0
 56 55  1  0  0  0  0
M  END
>  <MODEL>
2

>  <REMARK>
 VINA RESULT:      -6.5      1.214      2.080
  Name = 
  15 active torsions:
  status: ('A' for Active; 'I' for Inactive)
    1  A    between atoms: C_2  and  C_35
    2  A    between atoms: C_4  and  C_14
    3  A    between atoms: C_6  and  C_9
    4  A    between atoms: C_9  and  C_33
    5  A    between atoms: C_10  and  C_16
    6  A    between atoms: C_10  and  C_25
    7  A    between atoms: N_11  and  C_49
    8  A    between atoms: C_12  and  C_40
    9  A    between atoms: C_16  and  C_47
   10  A    between atoms: N_19  and  C_42
   11  A    between atoms: N_23  and  C_29
   12  A    between atoms: N_24  and  C_35
   13  A    between atoms: N_24  and  C_53
   14  A    between atoms: C_32  and  C_33
   15  A    between atoms: C_32  and  C_56
                            x       y       z     vdW  Elec       q    Type
                         _______ _______ _______ _____ _____    ______ ____

>  <TORSDO>
F 15

$$$$
=
 OpenBabel11042419513D

 56 63  0  0  1  0  0  0  0  0999 V2000
  193.1560  174.5260  140.3760 C   0  0  0  0  0  2  0  0  0  0  0  0
  192.3590  172.2370  142.9110 C   0  0  0  0  0  2  0  0  0  0  0  0
  189.5100  173.8750  145.7970 C   0  0  0  0  0  3  0  0  0  0  0  0
  192.5950  173.4500  143.7620 C   0  0  0  0  0  0  0  0  0  0  0  0
  190.3920  173.3630  144.9450 C   0  0  0  0  0  0  0  0  0  0  0  0
  192.7810  176.7020  146.9620 N   0  0  0  0  0  0  0  0  0  0  0  0
  191.8960  172.5490  141.4960 C   0  0  2  0  0  3  0  0  0  0  0  0
  193.0480  173.0150  140.5990 C   0  0  0  0  0  2  0  0  0  0  0  0
  193.9460  174.1300  143.8650 C   0  0  1  0  0  3  0  0  0  0  0  0
  189.5160  175.0840  146.6470 C   0  0  0  0  0  0  0  0  0  0  0  0
  193.2200  175.3470  141.6610 C   0  0  0  0  0  2  0  0  0  0  0  0
  190.5360  175.8570  146.8540 N   0  0  0  0  0  0  0  0  0  0  0  0
  194.3440  174.9540  142.6300 C   0  0  2  0  0  3  0  0  0  0  0  0
  190.0170  172.2100  144.3340 F   0  0  0  0  0  0  0  0  0  0  0  0
  194.5780  175.9510  145.5740 C   0  0  0  0  0  3  0  0  0  0  0  0
  193.6820  175.0610  144.9920 C   0  0  0  0  0  0  0  0  0  0  0  0
  192.3720  174.9740  145.4110 C   0  0  0  0  0  0  0  0  0  0  0  0
  191.8980  175.8200  146.4080 C   0  0  0  0  0  0  0  0  0  0  0  0
  191.7140  173.9340  144.6550 C   0  0  0  0  0  0  0  0  0  0  0  0
  194.0890  176.7790  146.5860 C   0  0  0  0  0  3  0  0  0  0  0  0
  187.5000  176.3670  146.8160 C   0  0  0  0  0  3  0  0  0  0  0  0
  188.2880  175.4450  147.2880 N   0  0  0  0  0  0  0  0  0  0  0  0
  186.2680  176.7520  147.5700 C   0  0  0  0  0  2  0  0  0  0  0  0
  185.8670  178.0930  147.1760 N   0  0  0  0  0  0  0  0  0  0  0  0
  186.4890  178.9520  148.0340 O   0  0  0  0  0  1  0  0  0  0  0  0
  185.5360  179.3450  145.1150 C   0  0  0  0  0  2  0  0  0  0  0  0
  185.4000  177.8690  144.8060 C   0  0  0  0  0  2  0  0  0  0  0  0
  186.4050  178.3330  145.8480 C   0  0  0  0  0  3  0  0  0  0  0  0
  195.6460  174.5500  142.0130 C   0  0  0  0  0  3  0  0  0  0  0  0
  196.5280  175.4670  141.6610 C   0  0  0  0  0  3  0  0  0  0  0  0
  197.8300  175.0690  141.0590 C   0  0  0  0  0  2  0  0  0  0  0  0
  197.9410  175.6380  139.6580 C   0  0  0  0  0  2  0  0  0  0  0  0
  196.7810  175.1740  138.7920 C   0  0  0  0  0  2  0  0  0  0  0  0
  197.6170  174.3170  136.4730 C   0  0  1  0  0  3  0  0  0  0  0  0
  197.1850  173.9600  137.9470 C   0  0  2  0  0  3  0  0  0  0  0  0
  195.9380  172.3670  139.2660 O   0  0  0  0  0  1  0  0  0  0  0  0
  196.6170  171.6890  137.0750 C   0  0  2  0  0  0  0  0  0  0  0  0
  197.6970  173.1690  135.6330 O   0  0  0  0  0  0  0  0  0  0  0  0
  197.9410  171.3520  137.3840 O   0  0  0  0  0  1  0  0  0  0  0  0
  196.2980  171.0690  135.7080 C   0  0  2  0  0  3  0  0  0  0  0  0
  196.4560  172.5310  135.7840 C   0  0  1  0  0  3  0  0  0  0  0  0
  196.1140  172.8280  137.9630 C   0  0  2  0  0  3  0  0  0  0  0  0
  194.8860  170.7260  135.6640 N   0  0  0  0  0  2  0  0  0  0  0  0
  194.7970  169.3910  135.8930 O   0  0  0  0  0  1  0  0  0  0  0  0
  196.7990  175.4360  135.8140 C   0  0  0  0  0  2  0  0  0  0  0  0
  197.5660  176.0280  134.8090 O   0  0  0  0  0  1  0  0  0  0  0  0
  190.6470  173.4260  141.4220 C   0  0  0  0  0  2  0  0  0  0  0  0
  189.4430  172.6060  140.9810 C   0  0  0  0  0  2  0  0  0  0  0  0
  188.6910  173.8800  138.1910 S   0  0  0  0  0  0  0  0  0  0  0  0
  189.7840  171.5700  137.3360 N   0  0  0  0  0  0  0  0  0  0  0  0
  189.4670  172.3060  138.5090 C   0  0  0  0  0  0  0  0  0  0  0  0
  189.5560  172.3260  136.1130 C   0  0  0  0  0  2  0  0  0  0  0  0
  189.7890  171.8730  139.7300 C   0  0  0  0  0  3  0  0  0  0  0  0
  189.3790  173.7990  136.4940 C   0  0  0  0  0  2  0  0  0  0  0  0
  190.9050  169.9100  135.9420 C   0  0  0  0  0  1  0  0  0  0  0  0
  190.5570  170.3390  137.3550 C   0  0  0  0  0  2  0  0  0  0  0  0
  1  8  1  0  0  0  0
  1 11  1  0  0  0  0
  2  4  1  0  0  0  0
  3 10  1  0  0  0  0
  4 19  2  0  0  0  0
  5  3  2  0  0  0  0
  7 47  1  1  0  0  0
  7  2  1  0  0  0  0
  8  7  1  0  0  0  0
  9  4  1  6  0  0  0
  9 16  1  0  0  0  0
 10 12  2  0  0  0  0
 10 22  1  0  0  0  0
 11 13  1  0  0  0  0
 13 29  1  6  0  0  0
 13  9  1  0  0  0  0
 14  5  1  0  0  0  0
 15 20  2  0  0  0  0
 16 17  2  0  0  0  0
 16 15  1  0  0  0  0
 17 18  1  0  0  0  0
 18 12  1  0  0  0  0
 18  6  2  0  0  0  0
 19  5  1  0  0  0  0
 19 17  1  0  0  0  0
 20  6  1  0  0  0  0
 21 22  2  0  0  0  0
 21 23  1  0  0  0  0
 24 23  1  0  0  0  0
 24 25  1  0  0  0  0
 26 28  1  0  0  0  0
 27 26  1  0  0  0  0
 27 28  1  0  0  0  0
 28 24  1  0  0  0  0
 30 29  2  0  0  0  0
 31 30  1  0  0  0  0
 32 31  1  0  0  0  0
 33 32  1  0  0  0  0
 34 45  1  6  0  0  0
 34 35  1  0  0  0  0
 35 42  1  0  0  0  0
 35 33  1  6  0  0  0
 37 39  1  1  0  0  0
 37 42  1  0  0  0  0
 38 34  1  0  0  0  0
 40 43  1  1  0  0  0
 40 41  1  0  0  0  0
 40 37  1  0  0  0  0
 41 38  1  6  0  0  0
 41 37  1  0  0  0  0
 42 36  1  1  0  0  0
 43 44  1  0  0  0  0
 46 45  1  0  0  0  0
 48 47  1  0  0  0  0
 49 51  1  0  0  0  0
 50 56  1  0  0  0  0
 50 51  1  0  0  0  0
 51 53  2  0  0  0  0
 52 54  1  0  0  0  0
 52 50  1  0  0  0  0
 53 48  1  0  0  0  0
 54 49  1  0  0  0  0
 55 56  1  0  0  0  0
M  END
>  <MODEL>
3

>  <REMARK>
 VINA RESULT:      -6.4      3.591      6.277
  Name = 
  15 active torsions:
  status: ('A' for Active; 'I' for Inactive)
    1  A    between atoms: C_2  and  C_35
    2  A    between atoms: C_4  and  C_14
    3  A    between atoms: C_6  and  C_9
    4  A    between atoms: C_9  and  C_33
    5  A    between atoms: C_10  and  C_16
    6  A    between atoms: C_10  and  C_25
    7  A    between atoms: N_11  and  C_49
    8  A    between atoms: C_12  and  C_40
    9  A    between atoms: C_16  and  C_47
   10  A    between atoms: N_19  and  C_42
   11  A    between atoms: N_23  and  C_29
   12  A    between atoms: N_24  and  C_35
   13  A    between atoms: N_24  and  C_53
   14  A    between atoms: C_32  and  C_33
   15  A    between atoms: C_32  and  C_56
                            x       y       z     vdW  Elec       q    Type
                         _______ _______ _______ _____ _____    ______ ____

>  <TORSDO>
F 15

$$$$
=
 OpenBabel11042419513D

 56 63  0  0  1  0  0  0  0  0999 V2000
  192.3890  174.9920  144.1960 C   0  0  0  0  0  2  0  0  0  0  0  0
  191.0360  171.7810  143.7990 C   0  0  0  0  0  2  0  0  0  0  0  0
  191.8290  170.1200  139.8310 C   0  0  0  0  0  3  0  0  0  0  0  0
  190.5790  172.3850  142.5040 C   0  0  0  0  0  0  0  0  0  0  0  0
  191.5580  170.6120  141.0350 C   0  0  0  0  0  0  0  0  0  0  0  0
  189.1460  173.3490  138.2760 N   0  0  0  0  0  0  0  0  0  0  0  0
  192.3070  172.4010  144.3610 C   0  0  2  0  0  3  0  0  0  0  0  0
  192.0440  173.7550  145.0280 C   0  0  0  0  0  2  0  0  0  0  0  0
  189.6020  173.5430  142.4380 C   0  0  1  0  0  3  0  0  0  0  0  0
  191.5500  170.5990  138.4620 C   0  0  0  0  0  0  0  0  0  0  0  0
  191.7270  175.0280  142.8200 C   0  0  0  0  0  2  0  0  0  0  0  0
  190.7850  171.6000  138.1520 N   0  0  0  0  0  0  0  0  0  0  0  0
  190.1970  174.9050  142.8310 C   0  0  2  0  0  3  0  0  0  0  0  0
  191.9900  169.8680  142.0850 F   0  0  0  0  0  0  0  0  0  0  0  0
  188.4410  174.4020  140.3050 C   0  0  0  0  0  3  0  0  0  0  0  0
  189.3110  173.5540  140.9810 C   0  0  0  0  0  0  0  0  0  0  0  0
  190.0580  172.6040  140.3190 C   0  0  0  0  0  0  0  0  0  0  0  0
  189.9910  172.5020  138.9330 C   0  0  0  0  0  0  0  0  0  0  0  0
  190.8190  171.8550  141.2910 C   0  0  0  0  0  0  0  0  0  0  0  0
  188.3730  174.2720  138.9170 C   0  0  0  0  0  3  0  0  0  0  0  0
  193.4530  170.0520  137.1130 C   0  0  0  0  0  3  0  0  0  0  0  0
  192.1870  169.9110  137.3800 N   0  0  0  0  0  0  0  0  0  0  0  0
  194.0450  169.3660  135.9250 C   0  0  0  0  0  2  0  0  0  0  0  0
  195.2370  170.0840  135.5030 N   0  0  0  0  0  0  0  0  0  0  0  0
  194.8240  171.3220  135.1060 O   0  0  0  0  0  1  0  0  0  0  0  0
  197.4820  170.6560  136.2530 C   0  0  0  0  0  2  0  0  0  0  0  0
  197.1920  169.2250  136.6570 C   0  0  0  0  0  2  0  0  0  0  0  0
  196.0760  170.2570  136.6780 C   0  0  0  0  0  3  0  0  0  0  0  0
  189.4800  175.5910  143.9510 C   0  0  0  0  0  3  0  0  0  0  0  0
  189.5310  176.9050  144.0680 C   0  0  0  0  0  3  0  0  0  0  0  0
  188.8080  177.5930  145.1720 C   0  0  0  0  0  2  0  0  0  0  0  0
  188.1040  176.5670  146.0390 C   0  0  0  0  0  2  0  0  0  0  0  0
  186.5950  176.7060  145.9240 C   0  0  0  0  0  2  0  0  0  0  0  0
  185.4730  178.9630  145.2470 C   0  0  1  0  0  3  0  0  0  0  0  0
  186.2220  177.6570  144.7800 C   0  0  2  0  0  3  0  0  0  0  0  0
  186.2530  175.9470  143.0750 O   0  0  0  0  0  1  0  0  0  0  0  0
  185.1200  177.9910  142.5630 C   0  0  2  0  0  0  0  0  0  0  0  0
  184.8820  179.6720  144.1620 O   0  0  0  0  0  0  0  0  0  0  0  0
  186.2480  178.7540  142.2340 O   0  0  0  0  0  1  0  0  0  0  0  0
  183.8920  178.7430  142.0330 C   0  0  2  0  0  3  0  0  0  0  0  0
  184.1090  178.7140  143.4900 C   0  0  1  0  0  3  0  0  0  0  0  0
  185.4520  176.9440  143.6280 C   0  0  2  0  0  3  0  0  0  0  0  0
  182.8720  177.7770  141.6640 N   0  0  0  0  0  2  0  0  0  0  0  0
  182.7470  177.8300  140.3140 O   0  0  0  0  0  1  0  0  0  0  0  0
  184.4710  178.7570  146.3920 C   0  0  0  0  0  2  0  0  0  0  0  0
  185.0740  179.1300  147.5950 O   0  0  0  0  0  1  0  0  0  0  0  0
  193.4900  172.3950  143.3950 C   0  0  0  0  0  2  0  0  0  0  0  0
  194.7810  172.7310  144.1270 C   0  0  0  0  0  2  0  0  0  0  0  0
  195.5670  175.7520  143.6540 S   0  0  0  0  0  0  0  0  0  0  0  0
  197.1840  174.5920  141.8390 N   0  0  0  0  0  0  0  0  0  0  0  0
  196.1980  174.3080  142.8200 C   0  0  0  0  0  0  0  0  0  0  0  0
  197.5920  175.9890  141.8320 C   0  0  0  0  0  2  0  0  0  0  0  0
  195.8350  173.0600  143.1250 C   0  0  0  0  0  3  0  0  0  0  0  0
  197.0810  176.6370  143.1220 C   0  0  0  0  0  2  0  0  0  0  0  0
  197.4620  173.4150  139.7180 C   0  0  0  0  0  1  0  0  0  0  0  0
  197.9410  173.5580  141.1520 C   0  0  0  0  0  2  0  0  0  0  0  0
  1  8  1  0  0  0  0
  2  7  1  0  0  0  0
  3  5  2  0  0  0  0
  4  2  1  0  0  0  0
  5 19  1  0  0  0  0
  5 14  1  0  0  0  0
  6 20  1  0  0  0  0
  6 18  2  0  0  0  0
  7 47  1  6  0  0  0
  7  8  1  0  0  0  0
  9 16  1  6  0  0  0
  9  4  1  0  0  0  0
  9 13  1  0  0  0  0
 10  3  1  0  0  0  0
 11 13  1  0  0  0  0
 11  1  1  0  0  0  0
 12 10  2  0  0  0  0
 12 18  1  0  0  0  0
 13 29  1  1  0  0  0
 15 16  1  0  0  0  0
 17 16  2  0  0  0  0
 17 19  1  0  0  0  0
 18 17  1  0  0  0  0
 19  4  2  0  0  0  0
 20 15  2  0  0  0  0
 21 22  2  0  0  0  0
 22 10  1  0  0  0  0
 23 21  1  0  0  0  0
 24 23  1  0  0  0  0
 24 28  1  0  0  0  0
 25 24  1  0  0  0  0
 26 27  1  0  0  0  0
 26 28  1  0  0  0  0
 27 28  1  0  0  0  0
 29 30  2  0  0  0  0
 30 31  1  0  0  0  0
 31 32  1  0  0  0  0
 33 32  1  0  0  0  0
 34 45  1  1  0  0  0
 35 34  1  0  0  0  0
 35 33  1  1  0  0  0
 37 39  1  6  0  0  0
 37 41  1  0  0  0  0
 37 42  1  0  0  0  0
 38 34  1  0  0  0  0
 40 43  1  1  0  0  0
 40 37  1  0  0  0  0
 40 41  1  0  0  0  0
 41 38  1  6  0  0  0
 42 36  1  6  0  0  0
 42 35  1  0  0  0  0
 44 43  1  0  0  0  0
 45 46  1  0  0  0  0
 47 48  1  0  0  0  0
 50 51  1  0  0  0  0
 51 53  2  0  0  0  0
 51 49  1  0  0  0  0
 52 50  1  0  0  0  0
 52 54  1  0  0  0  0
 53 48  1  0  0  0  0
 54 49  1  0  0  0  0
 55 56  1  0  0  0  0
 56 50  1  0  0  0  0
M  END
>  <MODEL>
4

>  <REMARK>
 VINA RESULT:      -6.4      3.711     10.778
  Name = 
  15 active torsions:
  status: ('A' for Active; 'I' for Inactive)
    1  A    between atoms: C_2  and  C_35
    2  A    between atoms: C_4  and  C_14
    3  A    between atoms: C_6  and  C_9
    4  A    between atoms: C_9  and  C_33
    5  A    between atoms: C_10  and  C_16
    6  A    between atoms: C_10  and  C_25
    7  A    between atoms: N_11  and  C_49
    8  A    between atoms: C_12  and  C_40
    9  A    between atoms: C_16  and  C_47
   10  A    between atoms: N_19  and  C_42
   11  A    between atoms: N_23  and  C_29
   12  A    between atoms: N_24  and  C_35
   13  A    between atoms: N_24  and  C_53
   14  A    between atoms: C_32  and  C_33
   15  A    between atoms: C_32  and  C_56
                            x       y       z     vdW  Elec       q    Type
                         _______ _______ _______ _____ _____    ______ ____

>  <TORSDO>
F 15

$$$$
=
 OpenBabel11042419513D

 56 63  0  0  1  0  0  0  0  0999 V2000
  186.4960  175.9240  143.4060 C   0  0  0  0  0  2  0  0  0  0  0  0
  189.6100  177.1430  142.3500 C   0  0  0  0  0  2  0  0  0  0  0  0
  192.9220  174.6000  143.6530 C   0  0  0  0  0  3  0  0  0  0  0  0
  189.9540  176.8390  143.7790 C   0  0  0  0  0  0  0  0  0  0  0  0
  191.9340  175.3980  143.2640 C   0  0  0  0  0  0  0  0  0  0  0  0
  191.8660  175.8780  147.8130 N   0  0  0  0  0  0  0  0  0  0  0  0
  188.4920  176.2810  141.7820 C   0  0  2  0  0  3  0  0  0  0  0  0
  187.1100  176.7360  142.2630 C   0  0  0  0  0  2  0  0  0  0  0  0
  189.3090  177.5570  144.9480 C   0  0  1  0  0  3  0  0  0  0  0  0
  193.3620  174.1150  144.9780 C   0  0  0  0  0  0  0  0  0  0  0  0
  187.3880  175.8020  144.6390 C   0  0  0  0  0  2  0  0  0  0  0  0
  192.9230  174.5410  146.1220 N   0  0  0  0  0  0  0  0  0  0  0  0
  187.8590  177.1350  145.2370 C   0  0  2  0  0  3  0  0  0  0  0  0
  191.8430  175.6110  141.9270 F   0  0  0  0  0  0  0  0  0  0  0  0
  190.0850  177.4200  147.4000 C   0  0  0  0  0  3  0  0  0  0  0  0
  190.1730  177.0760  146.0560 C   0  0  0  0  0  0  0  0  0  0  0  0
  191.1100  176.1750  145.5990 C   0  0  0  0  0  0  0  0  0  0  0  0
  191.9710  175.5460  146.4930 C   0  0  0  0  0  0  0  0  0  0  0  0
  190.9840  176.0660  144.1650 C   0  0  0  0  0  0  0  0  0  0  0  0
  190.9690  176.7920  148.2800 C   0  0  0  0  0  3  0  0  0  0  0  0
  194.1870  171.9460  144.3860 C   0  0  0  0  0  3  0  0  0  0  0  0
  194.3480  173.0780  145.0070 N   0  0  0  0  0  0  0  0  0  0  0  0
  195.2190  170.8720  144.5140 C   0  0  0  0  0  2  0  0  0  0  0  0
  194.8610  169.9940  145.6160 N   0  0  0  0  0  0  0  0  0  0  0  0
  193.7410  169.3200  145.2260 O   0  0  0  0  0  1  0  0  0  0  0  0
  196.3520  168.9310  147.2190 C   0  0  0  0  0  2  0  0  0  0  0  0
  197.1900  169.7260  146.2390 C   0  0  0  0  0  2  0  0  0  0  0  0
  195.9310  169.0220  145.7590 C   0  0  0  0  0  3  0  0  0  0  0  0
  186.8740  178.2610  145.2170 C   0  0  0  0  0  3  0  0  0  0  0  0
  185.6760  178.1060  145.7530 C   0  0  0  0  0  3  0  0  0  0  0  0
  184.6980  179.2270  145.7480 C   0  0  0  0  0  2  0  0  0  0  0  0
  183.4680  178.8290  144.9560 C   0  0  0  0  0  2  0  0  0  0  0  0
  183.6870  179.0500  143.4680 C   0  0  0  0  0  2  0  0  0  0  0  0
  182.9200  177.9160  141.2450 C   0  0  1  0  0  3  0  0  0  0  0  0
  182.5120  178.4900  142.6560 C   0  0  2  0  0  3  0  0  0  0  0  0
  180.8320  179.7890  143.8060 O   0  0  0  0  0  1  0  0  0  0  0  0
  180.2330  178.8360  141.6950 C   0  0  2  0  0  0  0  0  0  0  0  0
  181.7950  177.6820  140.4040 O   0  0  0  0  0  0  0  0  0  0  0  0
  179.9580  177.5380  142.1450 O   0  0  0  0  0  1  0  0  0  0  0  0
  179.6240  178.9670  140.2920 C   0  0  2  0  0  3  0  0  0  0  0  0
  181.0910  178.8960  140.4060 C   0  0  1  0  0  3  0  0  0  0  0  0
  181.3270  179.4940  142.5370 C   0  0  2  0  0  3  0  0  0  0  0  0
  179.2100  180.3440  140.0860 N   0  0  0  0  0  2  0  0  0  0  0  0
  178.1450  180.5630  140.9000 O   0  0  0  0  0  1  0  0  0  0  0  0
  184.0090  178.7150  140.5150 C   0  0  0  0  0  2  0  0  0  0  0  0
  185.0140  177.8390  140.1000 O   0  0  0  0  0  1  0  0  0  0  0  0
  188.7350  174.7770  141.9000 C   0  0  0  0  0  2  0  0  0  0  0  0
  189.3110  174.2260  140.6030 C   0  0  0  0  0  2  0  0  0  0  0  0
  189.3150  172.0890  138.2800 S   0  0  0  0  0  0  0  0  0  0  0  0
  190.3940  170.5960  140.2460 N   0  0  0  0  0  0  0  0  0  0  0  0
  189.8760  171.8870  139.9600 C   0  0  0  0  0  0  0  0  0  0  0  0
  190.5100  169.7560  139.0630 C   0  0  0  0  0  2  0  0  0  0  0  0
  189.8770  172.8700  140.8630 C   0  0  0  0  0  3  0  0  0  0  0  0
  190.3640  170.6540  137.8310 C   0  0  0  0  0  2  0  0  0  0  0  0
  191.0930  168.7570  141.6900 C   0  0  0  0  0  1  0  0  0  0  0  0
  191.0460  170.2620  141.5020 C   0  0  0  0  0  2  0  0  0  0  0  0
  1 11  1  0  0  0  0
  2  4  1  0  0  0  0
  3 10  1  0  0  0  0
  4 19  2  0  0  0  0
  5  3  2  0  0  0  0
  5 19  1  0  0  0  0
  6 20  1  0  0  0  0
  7 47  1  1  0  0  0
  7  8  1  0  0  0  0
  7  2  1  0  0  0  0
  8  1  1  0  0  0  0
  9  4  1  6  0  0  0
  9 13  1  0  0  0  0
  9 16  1  0  0  0  0
 10 22  1  0  0  0  0
 10 12  2  0  0  0  0
 11 13  1  0  0  0  0
 12 18  1  0  0  0  0
 13 29  1  6  0  0  0
 14  5  1  0  0  0  0
 15 20  2  0  0  0  0
 16 15  1  0  0  0  0
 17 16  2  0  0  0  0
 17 18  1  0  0  0  0
 18  6  2  0  0  0  0
 19 17  1  0  0  0  0
 21 23  1  0  0  0  0
 21 22  2  0  0  0  0
 23 24  1  0  0  0  0
 24 28  1  0  0  0  0
 25 24  1  0  0  0  0
 27 26  1  0  0  0  0
 28 27  1  0  0  0  0
 28 26  1  0  0  0  0
 29 30  2  0  0  0  0
 31 30  1  0  0  0  0
 32 31  1  0  0  0  0
 33 32  1  0  0  0  0
 34 45  1  6  0  0  0
 34 35  1  0  0  0  0
 35 33  1  6  0  0  0
 37 39  1  1  0  0  0
 37 42  1  0  0  0  0
 38 34  1  0  0  0  0
 40 43  1  1  0  0  0
 40 41  1  0  0  0  0
 40 37  1  0  0  0  0
 41 38  1  6  0  0  0
 41 37  1  0  0  0  0
 42 35  1  0  0  0  0
 42 36  1  1  0  0  0
 43 44  1  0  0  0  0
 46 45  1  0  0  0  0
 48 53  1  0  0  0  0
 48 47  1  0  0  0  0
 49 51  1  0  0  0  0
 50 56  1  0  0  0  0
 51 50  1  0  0  0  0
 51 53  2  0  0  0  0
 52 50  1  0  0  0  0
 54 49  1  0  0  0  0
 54 52  1  0  0  0  0
 56 55  1  0  0  0  0
M  END
>  <MODEL>
5

>  <REMARK>
 VINA RESULT:      -6.3      3.407     10.866
  Name = 
  15 active torsions:
  status: ('A' for Active; 'I' for Inactive)
    1  A    between atoms: C_2  and  C_35
    2  A    between atoms: C_4  and  C_14
    3  A    between atoms: C_6  and  C_9
    4  A    between atoms: C_9  and  C_33
    5  A    between atoms: C_10  and  C_16
    6  A    between atoms: C_10  and  C_25
    7  A    between atoms: N_11  and  C_49
    8  A    between atoms: C_12  and  C_40
    9  A    between atoms: C_16  and  C_47
   10  A    between atoms: N_19  and  C_42
   11  A    between atoms: N_23  and  C_29
   12  A    between atoms: N_24  and  C_35
   13  A    between atoms: N_24  and  C_53
   14  A    between atoms: C_32  and  C_33
   15  A    between atoms: C_32  and  C_56
                            x       y       z     vdW  Elec       q    Type
                         _______ _______ _______ _____ _____    ______ ____

>  <TORSDO>
F 15

$$$$
=
 OpenBabel11042419513D

 56 63  0  0  1  0  0  0  0  0999 V2000
  193.3000  172.9510  140.8350 C   0  0  0  0  0  2  0  0  0  0  0  0
  191.9040  171.6930  143.7960 C   0  0  0  0  0  2  0  0  0  0  0  0
  189.4840  174.6740  145.8920 C   0  0  0  0  0  3  0  0  0  0  0  0
  192.4140  173.0040  144.3200 C   0  0  0  0  0  0  0  0  0  0  0  0
  190.2310  173.7590  145.2840 C   0  0  0  0  0  0  0  0  0  0  0  0
  193.3260  176.8730  146.5690 N   0  0  0  0  0  0  0  0  0  0  0  0
  191.5650  171.7050  142.3130 C   0  0  2  0  0  3  0  0  0  0  0  0
  192.8160  171.6280  141.4320 C   0  0  0  0  0  2  0  0  0  0  0  0
  193.8880  173.3530  144.3630 C   0  0  1  0  0  3  0  0  0  0  0  0
  189.7700  176.0330  146.3960 C   0  0  0  0  0  0  0  0  0  0  0  0
  193.5370  174.0550  141.8630 C   0  0  0  0  0  2  0  0  0  0  0  0
  190.9450  176.5750  146.4850 N   0  0  0  0  0  0  0  0  0  0  0  0
  194.5060  173.6920  142.9970 C   0  0  2  0  0  3  0  0  0  0  0  0
  189.5970  172.6020  144.9630 F   0  0  0  0  0  0  0  0  0  0  0  0
  194.9120  175.3740  145.5890 C   0  0  0  0  0  3  0  0  0  0  0  0
  193.8370  174.5920  145.1810 C   0  0  0  0  0  0  0  0  0  0  0  0
  192.5370  174.9300  145.4900 C   0  0  0  0  0  0  0  0  0  0  0  0
  192.2650  176.1030  146.1870 C   0  0  0  0  0  0  0  0  0  0  0  0
  191.6600  173.9050  144.9750 C   0  0  0  0  0  0  0  0  0  0  0  0
  194.6200  176.5380  146.3030 C   0  0  0  0  0  3  0  0  0  0  0  0
  187.5610  176.9160  146.1090 C   0  0  0  0  0  3  0  0  0  0  0  0
  188.6550  176.8310  146.8090 N   0  0  0  0  0  0  0  0  0  0  0  0
  186.4600  177.8230  146.5540 C   0  0  0  0  0  2  0  0  0  0  0  0
  185.2670  177.5480  145.7700 N   0  0  0  0  0  0  0  0  0  0  0  0
  184.4360  176.8200  146.5700 O   0  0  0  0  0  1  0  0  0  0  0  0
  184.4220  178.9990  144.0070 C   0  0  0  0  0  2  0  0  0  0  0  0
  185.5600  179.7100  144.7090 C   0  0  0  0  0  2  0  0  0  0  0  0
  184.6190  178.8210  145.5060 C   0  0  0  0  0  3  0  0  0  0  0  0
  195.6810  172.8440  142.6240 C   0  0  0  0  0  3  0  0  0  0  0  0
  196.5470  173.2660  141.7210 C   0  0  0  0  0  3  0  0  0  0  0  0
  197.7240  172.4330  141.3570 C   0  0  0  0  0  2  0  0  0  0  0  0
  197.9060  172.4330  139.8510 C   0  0  0  0  0  2  0  0  0  0  0  0
  196.9110  173.3700  139.1860 C   0  0  0  0  0  2  0  0  0  0  0  0
  197.1680  174.0570  136.6810 C   0  0  1  0  0  3  0  0  0  0  0  0
  196.6870  172.9740  137.7220 C   0  0  2  0  0  3  0  0  0  0  0  0
  194.9170  171.4030  138.2040 O   0  0  0  0  0  1  0  0  0  0  0  0
  195.1180  172.1760  135.9490 C   0  0  2  0  0  0  0  0  0  0  0  0
  196.6840  173.8030  135.3650 O   0  0  0  0  0  0  0  0  0  0  0  0
  196.1610  171.3290  135.5520 O   0  0  0  0  0  1  0  0  0  0  0  0
  194.4940  172.7550  134.6720 C   0  0  2  0  0  3  0  0  0  0  0  0
  195.2970  173.6540  135.5190 C   0  0  1  0  0  3  0  0  0  0  0  0
  195.2230  172.5240  137.4350 C   0  0  2  0  0  3  0  0  0  0  0  0
  193.0790  172.9890  134.9060 N   0  0  0  0  0  2  0  0  0  0  0  0
  192.9280  174.3220  135.1160 O   0  0  0  0  0  1  0  0  0  0  0  0
  196.9120  175.5110  137.1000 C   0  0  0  0  0  2  0  0  0  0  0  0
  197.1990  176.3510  136.0220 O   0  0  0  0  0  1  0  0  0  0  0  0
  190.5740  172.7930  141.9030 C   0  0  0  0  0  2  0  0  0  0  0  0
  189.3050  172.1750  141.3360 C   0  0  0  0  0  2  0  0  0  0  0  0
  190.3430  171.2470  138.5030 S   0  0  0  0  0  0  0  0  0  0  0  0
  188.9360  173.4210  137.7600 N   0  0  0  0  0  0  0  0  0  0  0  0
  189.3210  172.6550  138.8920 C   0  0  0  0  0  0  0  0  0  0  0  0
  189.3210  172.8040  136.4990 C   0  0  0  0  0  2  0  0  0  0  0  0
  188.8930  172.9410  140.1240 C   0  0  0  0  0  3  0  0  0  0  0  0
  189.7110  171.3510  136.7850 C   0  0  0  0  0  2  0  0  0  0  0  0
  187.9990  175.3160  136.5400 C   0  0  0  0  0  1  0  0  0  0  0  0
  187.9810  174.5150  137.8290 C   0  0  0  0  0  2  0  0  0  0  0  0
  1  8  1  0  0  0  0
  1 11  1  0  0  0  0
  2  4  1  0  0  0  0
  3 10  1  0  0  0  0
  4 19  2  0  0  0  0
  5  3  2  0  0  0  0
  7 47  1  6  0  0  0
  7  2  1  0  0  0  0
  8  7  1  0  0  0  0
  9  4  1  6  0  0  0
  9 16  1  0  0  0  0
 10 12  2  0  0  0  0
 10 22  1  0  0  0  0
 11 13  1  0  0  0  0
 13 29  1  6  0  0  0
 13  9  1  0  0  0  0
 14  5  1  0  0  0  0
 15 20  2  0  0  0  0
 16 17  2  0  0  0  0
 16 15  1  0  0  0  0
 17 18  1  0  0  0  0
 18 12  1  0  0  0  0
 18  6  2  0  0  0  0
 19  5  1  0  0  0  0
 19 17  1  0  0  0  0
 20  6  1  0  0  0  0
 21 23  1  0  0  0  0
 21 22  2  0  0  0  0
 24 23  1  0  0  0  0
 24 25  1  0  0  0  0
 26 27  1  0  0  0  0
 26 28  1  0  0  0  0
 27 28  1  0  0  0  0
 28 24  1  0  0  0  0
 30 29  2  0  0  0  0
 31 30  1  0  0  0  0
 32 31  1  0  0  0  0
 33 32  1  0  0  0  0
 34 45  1  1  0  0  0
 34 35  1  0  0  0  0
 35 33  1  1  0  0  0
 37 39  1  6  0  0  0
 37 42  1  0  0  0  0
 38 34  1  0  0  0  0
 40 43  1  1  0  0  0
 40 41  1  0  0  0  0
 40 37  1  0  0  0  0
 41 38  1  6  0  0  0
 41 37  1  0  0  0  0
 42 35  1  0  0  0  0
 42 36  1  1  0  0  0
 43 44  1  0  0  0  0
 46 45  1  0  0  0  0
 48 47  1  0  0  0  0
 49 51  1  0  0  0  0
 50 56  1  0  0  0  0
 50 51  1  0  0  0  0
 51 53  2  0  0  0  0
 52 54  1  0  0  0  0
 52 50  1  0  0  0  0
 53 48  1  0  0  0  0
 54 49  1  0  0  0  0
 55 56  1  0  0  0  0
M  END
>  <MODEL>
6

>  <REMARK>
 VINA RESULT:      -6.2      3.406      6.249
  Name = 
  15 active torsions:
  status: ('A' for Active; 'I' for Inactive)
    1  A    between atoms: C_2  and  C_35
    2  A    between atoms: C_4  and  C_14
    3  A    between atoms: C_6  and  C_9
    4  A    between atoms: C_9  and  C_33
    5  A    between atoms: C_10  and  C_16
    6  A    between atoms: C_10  and  C_25
    7  A    between atoms: N_11  and  C_49
    8  A    between atoms: C_12  and  C_40
    9  A    between atoms: C_16  and  C_47
   10  A    between atoms: N_19  and  C_42
   11  A    between atoms: N_23  and  C_29
   12  A    between atoms: N_24  and  C_35
   13  A    between atoms: N_24  and  C_53
   14  A    between atoms: C_32  and  C_33
   15  A    between atoms: C_32  and  C_56
                            x       y       z     vdW  Elec       q    Type
                         _______ _______ _______ _____ _____    ______ ____

>  <TORSDO>
F 15

$$$$
=
 OpenBabel11042419513D

 56 63  0  0  1  0  0  0  0  0999 V2000
  193.1730  172.9560  141.0120 C   0  0  0  0  0  2  0  0  0  0  0  0
  191.6280  171.7700  143.9290 C   0  0  0  0  0  2  0  0  0  0  0  0
  189.3280  174.8780  145.9750 C   0  0  0  0  0  3  0  0  0  0  0  0
  192.1980  173.0470  144.4730 C   0  0  0  0  0  0  0  0  0  0  0  0
  190.0370  173.9230  145.3830 C   0  0  0  0  0  0  0  0  0  0  0  0
  193.2710  176.8480  146.7660 N   0  0  0  0  0  0  0  0  0  0  0  0
  191.3300  171.8070  142.4370 C   0  0  2  0  0  3  0  0  0  0  0  0
  192.5980  171.6610  141.5900 C   0  0  0  0  0  2  0  0  0  0  0  0
  193.6890  173.3100  144.5570 C   0  0  1  0  0  3  0  0  0  0  0  0
  189.6780  176.2170  146.4940 C   0  0  0  0  0  0  0  0  0  0  0  0
  193.4450  174.0410  142.0520 C   0  0  0  0  0  2  0  0  0  0  0  0
  190.8800  176.6890  146.6170 N   0  0  0  0  0  0  0  0  0  0  0  0
  194.3610  173.6180  143.2100 C   0  0  2  0  0  3  0  0  0  0  0  0
  189.3470  172.8060  145.0390 F   0  0  0  0  0  0  0  0  0  0  0  0
  194.7940  175.2640  145.8210 C   0  0  0  0  0  3  0  0  0  0  0  0
  193.6870  174.5470  145.3800 C   0  0  0  0  0  0  0  0  0  0  0  0
  192.4010  174.9580  145.6560 C   0  0  0  0  0  0  0  0  0  0  0  0
  192.1790  176.1420  146.3520 C   0  0  0  0  0  0  0  0  0  0  0  0
  191.4800  173.9880  145.1120 C   0  0  0  0  0  0  0  0  0  0  0  0
  194.5510  176.4400  146.5330 C   0  0  0  0  0  3  0  0  0  0  0  0
  187.3600  176.6850  146.8720 C   0  0  0  0  0  3  0  0  0  0  0  0
  188.6010  177.0760  146.8820 N   0  0  0  0  0  0  0  0  0  0  0  0
  186.2710  177.6500  147.2150 C   0  0  0  0  0  2  0  0  0  0  0  0
  185.3430  177.7400  146.1000 N   0  0  0  0  0  0  0  0  0  0  0  0
  184.0910  177.6130  146.6270 O   0  0  0  0  0  1  0  0  0  0  0  0
  184.7780  179.1370  144.1890 C   0  0  0  0  0  2  0  0  0  0  0  0
  186.2860  179.0370  144.2800 C   0  0  0  0  0  2  0  0  0  0  0  0
  185.4540  179.0810  145.5510 C   0  0  0  0  0  3  0  0  0  0  0  0
  195.4950  172.7050  142.8640 C   0  0  0  0  0  3  0  0  0  0  0  0
  196.5940  173.1880  142.3140 C   0  0  0  0  0  3  0  0  0  0  0  0
  197.7300  172.2850  141.9820 C   0  0  0  0  0  2  0  0  0  0  0  0
  197.9410  172.2610  140.4800 C   0  0  0  0  0  2  0  0  0  0  0  0
  196.8090  172.9780  139.7630 C   0  0  0  0  0  2  0  0  0  0  0  0
  197.2620  173.5880  137.2650 C   0  0  1  0  0  3  0  0  0  0  0  0
  196.7220  172.5270  138.2990 C   0  0  2  0  0  3  0  0  0  0  0  0
  194.9580  170.9220  138.6840 O   0  0  0  0  0  1  0  0  0  0  0  0
  195.3330  171.6260  136.4280 C   0  0  2  0  0  0  0  0  0  0  0  0
  196.9000  173.2770  135.9230 O   0  0  0  0  0  0  0  0  0  0  0  0
  196.4280  170.7970  136.1520 O   0  0  0  0  0  1  0  0  0  0  0  0
  194.8050  172.1440  135.0840 C   0  0  2  0  0  3  0  0  0  0  0  0
  195.5090  173.0940  135.9630 C   0  0  1  0  0  3  0  0  0  0  0  0
  195.3000  172.0260  137.9050 C   0  0  2  0  0  3  0  0  0  0  0  0
  193.3700  172.3450  135.1880 N   0  0  0  0  0  2  0  0  0  0  0  0
  193.1360  173.6600  134.9420 O   0  0  0  0  0  1  0  0  0  0  0  0
  196.9330  175.0480  137.6090 C   0  0  0  0  0  2  0  0  0  0  0  0
  197.5160  175.8820  136.6530 O   0  0  0  0  0  1  0  0  0  0  0  0
  190.4150  172.9530  142.0070 C   0  0  0  0  0  2  0  0  0  0  0  0
  189.1100  172.4110  141.4420 C   0  0  0  0  0  2  0  0  0  0  0  0
  187.8420  175.2130  142.1590 S   0  0  0  0  0  0  0  0  0  0  0  0
  187.6050  175.3010  139.4770 N   0  0  0  0  0  0  0  0  0  0  0  0
  188.0580  174.4840  140.5470 C   0  0  0  0  0  0  0  0  0  0  0  0
  187.2070  176.6330  139.9100 C   0  0  0  0  0  2  0  0  0  0  0  0
  188.6520  173.3060  140.3400 C   0  0  0  0  0  3  0  0  0  0  0  0
  187.7340  176.8450  141.3320 C   0  0  0  0  0  2  0  0  0  0  0  0
  186.8570  175.7390  137.1960 C   0  0  0  0  0  1  0  0  0  0  0  0
  187.8250  174.9730  138.0780 C   0  0  0  0  0  2  0  0  0  0  0  0
  1  8  1  0  0  0  0
  1 11  1  0  0  0  0
  2  4  1  0  0  0  0
  3 10  1  0  0  0  0
  4 19  2  0  0  0  0
  5  3  2  0  0  0  0
  7 47  1  1  0  0  0
  7  2  1  0  0  0  0
  8  7  1  0  0  0  0
  9  4  1  6  0  0  0
  9 16  1  0  0  0  0
 10 12  2  0  0  0  0
 10 22  1  0  0  0  0
 11 13  1  0  0  0  0
 13 29  1  6  0  0  0
 13  9  1  0  0  0  0
 14  5  1  0  0  0  0
 15 20  2  0  0  0  0
 16 17  2  0  0  0  0
 16 15  1  0  0  0  0
 17 18  1  0  0  0  0
 18 12  1  0  0  0  0
 18  6  2  0  0  0  0
 19  5  1  0  0  0  0
 19 17  1  0  0  0  0
 20  6  1  0  0  0  0
 21 22  2  0  0  0  0
 21 23  1  0  0  0  0
 24 25  1  0  0  0  0
 24 23  1  0  0  0  0
 26 27  1  0  0  0  0
 26 28  1  0  0  0  0
 27 28  1  0  0  0  0
 28 24  1  0  0  0  0
 30 29  2  0  0  0  0
 31 30  1  0  0  0  0
 32 31  1  0  0  0  0
 33 32  1  0  0  0  0
 34 45  1  1  0  0  0
 34 35  1  0  0  0  0
 35 33  1  1  0  0  0
 37 39  1  6  0  0  0
 37 42  1  0  0  0  0
 38 34  1  0  0  0  0
 40 43  1  1  0  0  0
 40 41  1  0  0  0  0
 40 37  1  0  0  0  0
 41 38  1  6  0  0  0
 41 37  1  0  0  0  0
 42 35  1  0  0  0  0
 42 36  1  1  0  0  0
 44 43  1  0  0  0  0
 46 45  1  0  0  0  0
 48 47  1  0  0  0  0
 50 52  1  0  0  0  0
 50 51  1  0  0  0  0
 51 49  1  0  0  0  0
 52 54  1  0  0  0  0
 53 51  2  0  0  0  0
 53 48  1  0  0  0  0
 54 49  1  0  0  0  0
 55 56  1  0  0  0  0
 56 50  1  0  0  0  0
M  END
>  <MODEL>
7

>  <REMARK>
 VINA RESULT:      -6.2      3.407      6.235
  Name = 
  15 active torsions:
  status: ('A' for Active; 'I' for Inactive)
    1  A    between atoms: C_2  and  C_35
    2  A    between atoms: C_4  and  C_14
    3  A    between atoms: C_6  and  C_9
    4  A    between atoms: C_9  and  C_33
    5  A    between atoms: C_10  and  C_16
    6  A    between atoms: C_10  and  C_25
    7  A    between atoms: N_11  and  C_49
    8  A    between atoms: C_12  and  C_40
    9  A    between atoms: C_16  and  C_47
   10  A    between atoms: N_19  and  C_42
   11  A    between atoms: N_23  and  C_29
   12  A    between atoms: N_24  and  C_35
   13  A    between atoms: N_24  and  C_53
   14  A    between atoms: C_32  and  C_33
   15  A    between atoms: C_32  and  C_56
                            x       y       z     vdW  Elec       q    Type
                         _______ _______ _______ _____ _____    ______ ____

>  <TORSDO>
F 15

$$$$
=
 OpenBabel11042419513D

 56 63  0  0  1  0  0  0  0  0999 V2000
  192.9970  174.1490  140.7170 C   0  0  0  0  0  2  0  0  0  0  0  0
  191.9850  172.1760  143.4350 C   0  0  0  0  0  2  0  0  0  0  0  0
  189.3160  174.3280  146.1510 C   0  0  0  0  0  3  0  0  0  0  0  0
  192.3400  173.4290  144.1800 C   0  0  0  0  0  0  0  0  0  0  0  0
  190.1410  173.6620  145.3520 C   0  0  0  0  0  0  0  0  0  0  0  0
  192.8510  176.9110  147.0900 N   0  0  0  0  0  0  0  0  0  0  0  0
  191.5510  172.4090  141.9950 C   0  0  2  0  0  3  0  0  0  0  0  0
  192.7420  172.6810  141.0690 C   0  0  0  0  0  2  0  0  0  0  0  0
  193.7520  173.9800  144.2330 C   0  0  1  0  0  3  0  0  0  0  0  0
  189.4420  175.6000  146.8940 C   0  0  0  0  0  0  0  0  0  0  0  0
  193.1450  175.0680  141.9280 C   0  0  0  0  0  2  0  0  0  0  0  0
  190.5350  176.2840  147.0400 N   0  0  0  0  0  0  0  0  0  0  0  0
  194.2270  174.6510  142.9340 C   0  0  2  0  0  3  0  0  0  0  0  0
  189.6540  172.5020  144.8400 F   0  0  0  0  0  0  0  0  0  0  0  0
  194.5630  175.8700  145.7830 C   0  0  0  0  0  3  0  0  0  0  0  0
  193.5820  175.0260  145.2740 C   0  0  0  0  0  0  0  0  0  0  0  0
  192.2710  175.1040  145.6900 C   0  0  0  0  0  0  0  0  0  0  0  0
  191.8850  176.0760  146.6080 C   0  0  0  0  0  0  0  0  0  0  0  0
  191.5130  174.0730  145.0230 C   0  0  0  0  0  0  0  0  0  0  0  0
  194.1600  176.8270  146.7170 C   0  0  0  0  0  3  0  0  0  0  0  0
  187.1920  176.4150  146.8020 C   0  0  0  0  0  3  0  0  0  0  0  0
  188.2570  176.1330  147.4940 N   0  0  0  0  0  0  0  0  0  0  0  0
  186.0110  177.0410  147.4710 C   0  0  0  0  0  2  0  0  0  0  0  0
  185.8240  178.3860  146.9530 N   0  0  0  0  0  0  0  0  0  0  0  0
  186.6770  179.1920  147.6490 O   0  0  0  0  0  1  0  0  0  0  0  0
  185.5590  179.4940  144.8020 C   0  0  0  0  0  2  0  0  0  0  0  0
  185.0750  178.0650  144.6680 C   0  0  0  0  0  2  0  0  0  0  0  0
  186.2600  178.3800  145.5670 C   0  0  0  0  0  3  0  0  0  0  0  0
  195.4810  174.0690  142.3630 C   0  0  0  0  0  3  0  0  0  0  0  0
  195.9300  172.9050  142.7940 C   0  0  0  0  0  3  0  0  0  0  0  0
  197.1690  172.3150  142.2190 C   0  0  0  0  0  2  0  0  0  0  0  0
  197.2930  172.7060  140.7590 C   0  0  0  0  0  2  0  0  0  0  0  0
  197.2500  171.4780  139.8650 C   0  0  0  0  0  2  0  0  0  0  0  0
  194.9970  170.1690  140.0220 C   0  0  1  0  0  3  0  0  0  0  0  0
  195.8450  171.2760  139.2850 C   0  0  2  0  0  3  0  0  0  0  0  0
  196.3920  172.1650  137.1070 O   0  0  0  0  0  1  0  0  0  0  0  0
  194.4080  170.8410  137.2890 C   0  0  2  0  0  0  0  0  0  0  0  0
  193.8320  169.7960  139.2920 O   0  0  0  0  0  0  0  0  0  0  0  0
  193.5660  171.8330  137.8070 O   0  0  0  0  0  1  0  0  0  0  0  0
  193.5110  169.7000  136.7900 C   0  0  2  0  0  3  0  0  0  0  0  0
  194.3040  169.4730  138.0110 C   0  0  1  0  0  3  0  0  0  0  0  0
  195.8530  171.0490  137.7440 C   0  0  2  0  0  3  0  0  0  0  0  0
  194.1540  169.0570  135.6560 N   0  0  0  0  0  2  0  0  0  0  0  0
  194.2460  169.9890  134.6740 O   0  0  0  0  0  1  0  0  0  0  0  0
  195.7970  168.9360  140.4690 C   0  0  0  0  0  2  0  0  0  0  0  0
  195.7840  168.8670  141.8630 O   0  0  0  0  0  1  0  0  0  0  0  0
  190.3950  173.3950  141.8390 C   0  0  0  0  0  2  0  0  0  0  0  0
  189.2150  172.7290  141.1450 C   0  0  0  0  0  2  0  0  0  0  0  0
  190.2120  170.7570  138.8900 S   0  0  0  0  0  0  0  0  0  0  0  0
  189.6030  172.8910  137.3640 N   0  0  0  0  0  0  0  0  0  0  0  0
  189.6240  172.4290  138.7070 C   0  0  0  0  0  0  0  0  0  0  0  0
  189.9130  171.8450  136.4000 C   0  0  0  0  0  2  0  0  0  0  0  0
  189.1770  173.1730  139.7220 C   0  0  0  0  0  3  0  0  0  0  0  0
  189.8190  170.4970  137.1190 C   0  0  0  0  0  2  0  0  0  0  0  0
  189.5490  174.5930  135.6150 C   0  0  0  0  0  1  0  0  0  0  0  0
  189.0170  174.1620  136.9690 C   0  0  0  0  0  2  0  0  0  0  0  0
  1  8  1  0  0  0  0
  1 11  1  0  0  0  0
  2  4  1  0  0  0  0
  3 10  1  0  0  0  0
  4 19  2  0  0  0  0
  5  3  2  0  0  0  0
  7 47  1  1  0  0  0
  7  2  1  0  0  0  0
  8  7  1  0  0  0  0
  9  4  1  6  0  0  0
  9 16  1  0  0  0  0
 10 12  2  0  0  0  0
 10 22  1  0  0  0  0
 11 13  1  0  0  0  0
 13 29  1  6  0  0  0
 13  9  1  0  0  0  0
 14  5  1  0  0  0  0
 15 20  2  0  0  0  0
 16 17  2  0  0  0  0
 16 15  1  0  0  0  0
 17 18  1  0  0  0  0
 18 12  1  0  0  0  0
 18  6  2  0  0  0  0
 19  5  1  0  0  0  0
 19 17  1  0  0  0  0
 20  6  1  0  0  0  0
 21 23  1  0  0  0  0
 21 22  2  0  0  0  0
 24 23  1  0  0  0  0
 24 25  1  0  0  0  0
 26 28  1  0  0  0  0
 27 26  1  0  0  0  0
 27 28  1  0  0  0  0
 28 24  1  0  0  0  0
 29 30  2  0  0  0  0
 31 30  1  0  0  0  0
 32 31  1  0  0  0  0
 33 32  1  0  0  0  0
 34 45  1  6  0  0  0
 35 33  1  1  0  0  0
 35 34  1  0  0  0  0
 37 42  1  0  0  0  0
 37 39  1  1  0  0  0
 37 41  1  0  0  0  0
 38 34  1  0  0  0  0
 40 43  1  6  0  0  0
 40 37  1  0  0  0  0
 40 41  1  0  0  0  0
 41 38  1  1  0  0  0
 42 36  1  6  0  0  0
 42 35  1  0  0  0  0
 44 43  1  0  0  0  0
 45 46  1  0  0  0  0
 48 47  1  0  0  0  0
 50 51  1  0  0  0  0
 51 49  1  0  0  0  0
 51 53  2  0  0  0  0
 52 54  1  0  0  0  0
 52 50  1  0  0  0  0
 53 48  1  0  0  0  0
 54 49  1  0  0  0  0
 55 56  1  0  0  0  0
 56 50  1  0  0  0  0
M  END
>  <MODEL>
8

>  <REMARK>
 VINA RESULT:      -6.1      3.682      5.994
  Name = 
  15 active torsions:
  status: ('A' for Active; 'I' for Inactive)
    1  A    between atoms: C_2  and  C_35
    2  A    between atoms: C_4  and  C_14
    3  A    between atoms: C_6  and  C_9
    4  A    between atoms: C_9  and  C_33
    5  A    between atoms: C_10  and  C_16
    6  A    between atoms: C_10  and  C_25
    7  A    between atoms: N_11  and  C_49
    8  A    between atoms: C_12  and  C_40
    9  A    between atoms: C_16  and  C_47
   10  A    between atoms: N_19  and  C_42
   11  A    between atoms: N_23  and  C_29
   12  A    between atoms: N_24  and  C_35
   13  A    between atoms: N_24  and  C_53
   14  A    between atoms: C_32  and  C_33
   15  A    between atoms: C_32  and  C_56
                            x       y       z     vdW  Elec       q    Type
                         _______ _______ _______ _____ _____    ______ ____

>  <TORSDO>
F 15

$$$$
=
 OpenBabel11042419513D

 56 63  0  0  1  0  0  0  0  0999 V2000
  190.5890  174.8390  143.1670 C   0  0  0  0  0  2  0  0  0  0  0  0
  189.8800  171.4860  142.4200 C   0  0  0  0  0  2  0  0  0  0  0  0
  192.3270  169.9610  139.1310 C   0  0  0  0  0  3  0  0  0  0  0  0
  189.8880  172.0360  141.0240 C   0  0  0  0  0  0  0  0  0  0  0  0
  191.5580  170.4080  140.1170 C   0  0  0  0  0  0  0  0  0  0  0  0
  190.0870  172.8390  136.5330 N   0  0  0  0  0  0  0  0  0  0  0  0
  190.7550  172.2560  143.3980 C   0  0  2  0  0  3  0  0  0  0  0  0
  190.0980  173.5630  143.8560 C   0  0  0  0  0  2  0  0  0  0  0  0
  188.8830  173.0630  140.5410 C   0  0  1  0  0  3  0  0  0  0  0  0
  192.5410  170.4100  137.7390 C   0  0  0  0  0  0  0  0  0  0  0  0
  190.5070  174.8000  141.6430 C   0  0  0  0  0  2  0  0  0  0  0  0
  191.8420  171.3090  137.1190 N   0  0  0  0  0  0  0  0  0  0  0  0
  189.1160  174.4870  141.0730 C   0  0  2  0  0  3  0  0  0  0  0  0
  191.6380  169.7170  141.2830 F   0  0  0  0  0  0  0  0  0  0  0  0
  188.5380  173.7830  138.0920 C   0  0  0  0  0  3  0  0  0  0  0  0
  189.1750  173.0460  139.0850 C   0  0  0  0  0  0  0  0  0  0  0  0
  190.2250  172.2010  138.7990 C   0  0  0  0  0  0  0  0  0  0  0  0
  190.7080  172.1000  137.4980 C   0  0  0  0  0  0  0  0  0  0  0  0
  190.6370  171.5470  140.0190 C   0  0  0  0  0  0  0  0  0  0  0  0
  189.0250  173.6540  136.7900 C   0  0  0  0  0  3  0  0  0  0  0  0
  194.6250  170.5070  136.5620 C   0  0  0  0  0  3  0  0  0  0  0  0
  193.6210  169.8130  137.0130 N   0  0  0  0  0  0  0  0  0  0  0  0
  195.6850  169.8410  135.7460 C   0  0  0  0  0  2  0  0  0  0  0  0
  196.8870  170.6600  135.7630 N   0  0  0  0  0  0  0  0  0  0  0  0
  197.9360  169.8130  135.5560 O   0  0  0  0  0  1  0  0  0  0  0  0
  197.9320  172.5880  134.7070 C   0  0  0  0  0  2  0  0  0  0  0  0
  196.5220  172.9670  135.1080 C   0  0  0  0  0  2  0  0  0  0  0  0
  196.8160  171.5570  134.6220 C   0  0  0  0  0  3  0  0  0  0  0  0
  187.9480  175.0700  141.8040 C   0  0  0  0  0  3  0  0  0  0  0  0
  187.4030  176.2010  141.3920 C   0  0  0  0  0  3  0  0  0  0  0  0
  186.2330  176.7780  142.1080 C   0  0  0  0  0  2  0  0  0  0  0  0
  186.3420  178.2900  142.1300 C   0  0  0  0  0  2  0  0  0  0  0  0
  186.2790  178.8160  143.5550 C   0  0  0  0  0  2  0  0  0  0  0  0
  186.0290  177.6510  145.8770 C   0  0  1  0  0  3  0  0  0  0  0  0
  186.8520  177.7890  144.5390 C   0  0  2  0  0  3  0  0  0  0  0  0
  189.0940  177.8770  143.6440 O   0  0  0  0  0  1  0  0  0  0  0  0
  188.8170  176.9430  145.8290 C   0  0  2  0  0  0  0  0  0  0  0  0
  186.7350  176.9270  146.8810 O   0  0  0  0  0  0  0  0  0  0  0  0
  188.3950  175.6670  145.4370 O   0  0  0  0  0  1  0  0  0  0  0  0
  189.2230  176.8530  147.3070 C   0  0  2  0  0  3  0  0  0  0  0  0
  187.9790  177.5690  146.9740 C   0  0  1  0  0  3  0  0  0  0  0  0
  188.3680  178.0080  144.8270 C   0  0  2  0  0  3  0  0  0  0  0  0
  190.2900  177.8050  147.5610 N   0  0  0  0  0  2  0  0  0  0  0  0
  189.8230  178.6860  148.4830 O   0  0  0  0  0  1  0  0  0  0  0  0
  185.4700  178.9700  146.4290 C   0  0  0  0  0  2  0  0  0  0  0  0
  184.4640  178.6850  147.3540 O   0  0  0  0  0  1  0  0  0  0  0  0
  192.2100  172.4040  142.9580 C   0  0  0  0  0  2  0  0  0  0  0  0
  193.1310  172.4690  144.1680 C   0  0  0  0  0  2  0  0  0  0  0  0
  192.7290  174.9950  146.0190 S   0  0  0  0  0  0  0  0  0  0  0  0
  194.7950  175.8720  144.5300 N   0  0  0  0  0  0  0  0  0  0  0  0
  193.9250  174.7650  144.7180 C   0  0  0  0  0  0  0  0  0  0  0  0
  194.6340  176.8990  145.5480 C   0  0  0  0  0  2  0  0  0  0  0  0
  194.0480  173.6360  144.0160 C   0  0  0  0  0  3  0  0  0  0  0  0
  193.8210  176.3000  146.7000 C   0  0  0  0  0  2  0  0  0  0  0  0
  197.0450  174.9780  144.2160 C   0  0  0  0  0  1  0  0  0  0  0  0
  195.9390  175.8390  143.6330 C   0  0  0  0  0  2  0  0  0  0  0  0
  1  8  1  0  0  0  0
  2  7  1  0  0  0  0
  3  5  2  0  0  0  0
  4  2  1  0  0  0  0
  5 14  1  0  0  0  0
  6 20  1  0  0  0  0
  6 18  2  0  0  0  0
  7 47  1  6  0  0  0
  7  8  1  0  0  0  0
  9 16  1  6  0  0  0
  9  4  1  0  0  0  0
  9 13  1  0  0  0  0
 10  3  1  0  0  0  0
 11  1  1  0  0  0  0
 12 18  1  0  0  0  0
 12 10  2  0  0  0  0
 13 11  1  0  0  0  0
 13 29  1  1  0  0  0
 15 16  1  0  0  0  0
 17 16  2  0  0  0  0
 17 19  1  0  0  0  0
 18 17  1  0  0  0  0
 19  5  1  0  0  0  0
 19  4  2  0  0  0  0
 20 15  2  0  0  0  0
 21 22  2  0  0  0  0
 22 10  1  0  0  0  0
 23 24  1  0  0  0  0
 23 21  1  0  0  0  0
 25 24  1  0  0  0  0
 26 27  1  0  0  0  0
 28 26  1  0  0  0  0
 28 27  1  0  0  0  0
 28 24  1  0  0  0  0
 30 29  2  0  0  0  0
 30 31  1  0  0  0  0
 31 32  1  0  0  0  0
 32 33  1  0  0  0  0
 34 45  1  1  0  0  0
 34 38  1  0  0  0  0
 35 33  1  1  0  0  0
 35 42  1  0  0  0  0
 35 34  1  0  0  0  0
 37 39  1  6  0  0  0
 37 41  1  0  0  0  0
 37 40  1  0  0  0  0
 40 43  1  6  0  0  0
 41 38  1  1  0  0  0
 41 40  1  0  0  0  0
 42 36  1  6  0  0  0
 42 37  1  0  0  0  0
 43 44  1  0  0  0  0
 45 46  1  0  0  0  0
 47 48  1  0  0  0  0
 49 54  1  0  0  0  0
 50 51  1  0  0  0  0
 50 52  1  0  0  0  0
 51 49  1  0  0  0  0
 52 54  1  0  0  0  0
 53 48  1  0  0  0  0
 53 51  2  0  0  0  0
 56 55  1  0  0  0  0
 56 50  1  0  0  0  0
M  END
>  <MODEL>
9

>  <REMARK>
 VINA RESULT:      -6.1      4.317     10.920
  Name = 
  15 active torsions:
  status: ('A' for Active; 'I' for Inactive)
    1  A    between atoms: C_2  and  C_35
    2  A    between atoms: C_4  and  C_14
    3  A    between atoms: C_6  and  C_9
    4  A    between atoms: C_9  and  C_33
    5  A    between atoms: C_10  and  C_16
    6  A    between atoms: C_10  and  C_25
    7  A    between atoms: N_11  and  C_49
    8  A    between atoms: C_12  and  C_40
    9  A    between atoms: C_16  and  C_47
   10  A    between atoms: N_19  and  C_42
   11  A    between atoms: N_23  and  C_29
   12  A    between atoms: N_24  and  C_35
   13  A    between atoms: N_24  and  C_53
   14  A    between atoms: C_32  and  C_33
   15  A    between atoms: C_32  and  C_56
                            x       y       z     vdW  Elec       q    Type
                         _______ _______ _______ _____ _____    ______ ____

>  <TORSDO>
F 15

$$$$
