=
 OpenBabel11042414573D

 39 44  0  0  1  0  0  0  0  0999 V2000
  190.6530  173.5120  142.8540 N   0  0  0  0  0  1  0  0  0  0  0  0
  190.1280  174.8130  143.2320 C   0  0  1  0  0  3  0  0  0  0  0  0
  191.2060  175.6120  143.9560 C   0  0  0  0  0  2  0  0  0  0  0  0
  189.9360  174.8460  145.7790 F   0  0  0  0  0  0  0  0  0  0  0  0
  191.0680  175.5780  145.4790 C   0  0  0  0  0  0  0  0  0  0  0  0
  190.8960  176.8590  145.9800 F   0  0  0  0  0  0  0  0  0  0  0  0
  192.2600  174.8800  146.1380 C   0  0  0  0  0  2  0  0  0  0  0  0
  192.9440  172.1310  144.6990 N   0  0  0  0  0  0  0  0  0  0  0  0
  193.4740  170.8650  144.6950 C   0  0  0  0  0  3  0  0  0  0  0  0
  193.4150  174.6250  145.1760 C   0  0  1  0  0  3  0  0  0  0  0  0
  195.5310  174.2690  145.8320 N   0  0  0  0  0  2  0  0  0  0  0  0
  194.6050  175.2670  145.6600 O   0  0  0  0  0  0  0  0  0  0  0  0
  194.8060  170.6910  145.1180 C   0  0  0  0  0  0  0  0  0  0  0  0
  195.5250  169.4790  145.1730 N   0  0  0  0  0  2  0  0  0  0  0  0
  195.5620  171.7570  145.5200 C   0  0  0  0  0  0  0  0  0  0  0  0
  194.9850  173.0180  145.5140 C   0  0  0  0  0  0  0  0  0  0  0  0
  196.9270  171.3210  145.8980 C   0  0  0  0  0  2  0  0  0  0  0  0
  193.7150  173.1770  145.1210 C   0  0  0  0  0  0  0  0  0  0  0  0
  196.8780  169.7940  145.6470 C   0  0  1  0  0  3  0  0  0  0  0  0
  197.1610  169.0660  146.9200 C   0  0  0  0  0  3  0  0  0  0  0  0
  196.1800  168.4680  147.5910 C   0  0  0  0  0  2  0  0  0  0  0  0
  189.5980  175.5450  141.9980 C   0  0  0  0  0  2  0  0  0  0  0  0
  184.5460  178.4460  144.0510 C   0  0  0  0  0  0  0  0  0  0  0  0
  187.7680  177.5500  147.1270 C   0  0  0  0  0  3  0  0  0  0  0  0
  188.2170  175.9750  142.1800 N   0  0  0  0  0  2  0  0  0  0  0  0
  184.4740  178.0890  141.6730 C   0  0  0  0  0  0  0  0  0  0  0  0
  183.8500  178.4980  142.8460 C   0  0  0  0  0  3  0  0  0  0  0  0
  186.4910  177.8880  145.3380 C   0  0  0  0  0  0  0  0  0  0  0  0
  186.4950  177.6110  142.8830 N   0  0  0  0  0  0  0  0  0  0  0  0
  185.8120  178.2790  146.4560 C   0  0  0  0  0  0  0  0  0  0  0  0
  187.7230  177.4160  145.7400 C   0  0  0  0  0  3  0  0  0  0  0  0
  183.9280  178.8230  145.2090 N   0  0  0  0  0  0  0  0  0  0  0  0
  184.5440  178.7470  146.3930 N   0  0  0  0  0  0  0  0  0  0  0  0
  183.7380  178.1310  140.3820 C   0  0  0  0  0  1  0  0  0  0  0  0
  185.7980  177.6530  141.7120 C   0  0  0  0  0  3  0  0  0  0  0  0
  185.8880  177.9770  144.0670 C   0  0  0  0  0  0  0  0  0  0  0  0
  186.5700  178.0910  147.5830 C   0  0  0  0  0  3  0  0  0  0  0  0
  188.7770  178.0100  143.1800 O   0  0  0  0  0  0  0  0  0  0  0  0
  187.8730  177.2250  142.7840 C   0  0  0  0  0  0  0  0  0  0  0  0
  2  1  1  6  0  0  0
  2  3  1  0  0  0  0
  3  5  1  0  0  0  0
  5  4  1  0  0  0  0
  5  6  1  0  0  0  0
  5  7  1  0  0  0  0
  8 18  1  0  0  0  0
  9  8  2  0  0  0  0
  9 13  1  0  0  0  0
 10 12  1  0  0  0  0
 10  7  1  1  0  0  0
 12 11  1  0  0  0  0
 13 14  1  0  0  0  0
 13 15  2  0  0  0  0
 14 19  1  0  0  0  0
 15 17  1  0  0  0  0
 16 15  1  0  0  0  0
 16 11  1  0  0  0  0
 18 10  1  0  0  0  0
 18 16  2  0  0  0  0
 19 17  1  0  0  0  0
 19 20  1  1  0  0  0
 20 21  2  0  0  0  0
 22 25  1  0  0  0  0
 22  2  1  0  0  0  0
 23 36  1  0  0  0  0
 23 32  1  0  0  0  0
 24 37  1  0  0  0  0
 25 39  1  0  0  0  0
 26 35  2  0  0  0  0
 26 27  1  0  0  0  0
 27 23  2  0  0  0  0
 28 31  1  0  0  0  0
 28 30  1  0  0  0  0
 29 36  1  0  0  0  0
 30 37  2  0  0  0  0
 31 24  2  0  0  0  0
 32 33  2  0  0  0  0
 33 30  1  0  0  0  0
 34 26  1  0  0  0  0
 35 29  1  0  0  0  0
 36 28  2  0  0  0  0
 39 29  1  0  0  0  0
 39 38  2  0  0  0  0
M  END
>  <MODEL>
1

>  <REMARK>
 VINA RESULT:      -8.6      0.000      0.000
  Name = 
  7 active torsions:
  status: ('A' for Active; 'I' for Inactive)
    1  A    between atoms: C_3  and  C_13
    2  A    between atoms: C_3  and  C_17
    3  A    between atoms: C_4  and  C_35
    4  A    between atoms: C_8  and  C_17
    5  A    between atoms: C_8  and  C_23
    6  A    between atoms: N_10  and  C_14
    7  A    between atoms: C_14  and  C_23
                            x       y       z     vdW  Elec       q    Type
                         _______ _______ _______ _____ _____    ______ ____

>  <TORSDO>
F 7

$$$$
=
 OpenBabel11042414573D

 39 44  0  0  1  0  0  0  0  0999 V2000
  185.8090  179.2950  143.2740 N   0  0  0  0  0  1  0  0  0  0  0  0
  186.0850  177.9470  143.7410 C   0  0  1  0  0  3  0  0  0  0  0  0
  185.3500  177.6970  145.0530 C   0  0  0  0  0  2  0  0  0  0  0  0
  185.6030  176.6770  147.1560 F   0  0  0  0  0  0  0  0  0  0  0  0
  186.2870  177.4480  146.2370 C   0  0  0  0  0  0  0  0  0  0  0  0
  186.6250  178.6460  146.8470 F   0  0  0  0  0  0  0  0  0  0  0  0
  187.5340  176.6700  145.8140 C   0  0  0  0  0  2  0  0  0  0  0  0
  189.9550  177.7540  144.0650 N   0  0  0  0  0  0  0  0  0  0  0  0
  191.0810  177.5620  143.3020 C   0  0  0  0  0  3  0  0  0  0  0  0
  188.8310  177.2770  146.3400 C   0  0  1  0  0  3  0  0  0  0  0  0
  190.5500  176.0660  147.1220 N   0  0  0  0  0  2  0  0  0  0  0  0
  189.3020  176.5220  147.4670 O   0  0  0  0  0  0  0  0  0  0  0  0
  192.1320  176.7920  143.8350 C   0  0  0  0  0  0  0  0  0  0  0  0
  193.3630  176.4950  143.2130 N   0  0  0  0  0  2  0  0  0  0  0  0
  192.0440  176.2490  145.0870 C   0  0  0  0  0  0  0  0  0  0  0  0
  190.8880  176.4630  145.8220 C   0  0  0  0  0  0  0  0  0  0  0  0
  193.2790  175.5030  145.4250 C   0  0  0  0  0  2  0  0  0  0  0  0
  189.8860  177.1870  145.3070 C   0  0  0  0  0  0  0  0  0  0  0  0
  194.1480  175.6920  144.1580 C   0  0  1  0  0  3  0  0  0  0  0  0
  194.4650  174.3590  143.5630 C   0  0  0  0  0  3  0  0  0  0  0  0
  193.9220  173.9870  142.4060 C   0  0  0  0  0  2  0  0  0  0  0  0
  185.7060  176.9300  142.6640 C   0  0  0  0  0  2  0  0  0  0  0  0
  190.0970  172.8790  141.0940 C   0  0  0  0  0  0  0  0  0  0  0  0
  187.7700  174.7810  137.6850 C   0  0  0  0  0  3  0  0  0  0  0  0
  186.6080  175.7840  142.6650 N   0  0  0  0  0  2  0  0  0  0  0  0
  190.0150  173.2390  143.4710 C   0  0  0  0  0  0  0  0  0  0  0  0
  190.5190  172.5440  142.3770 C   0  0  0  0  0  3  0  0  0  0  0  0
  188.7290  174.1520  139.5900 C   0  0  0  0  0  0  0  0  0  0  0  0
  188.7000  174.6280  142.0150 N   0  0  0  0  0  0  0  0  0  0  0  0
  189.2420  173.4140  138.5640 C   0  0  0  0  0  0  0  0  0  0  0  0
  187.7920  175.0130  139.0590 C   0  0  0  0  0  3  0  0  0  0  0  0
  190.5710  172.1810  140.0190 N   0  0  0  0  0  0  0  0  0  0  0  0
  190.1580  172.4400  138.7740 N   0  0  0  0  0  0  0  0  0  0  0  0
  190.4510  172.8850  144.8460 C   0  0  0  0  0  1  0  0  0  0  0  0
  189.1100  174.2810  143.2680 C   0  0  0  0  0  3  0  0  0  0  0  0
  189.1560  173.9310  140.9160 C   0  0  0  0  0  0  0  0  0  0  0  0
  188.6780  173.7760  137.3670 C   0  0  0  0  0  3  0  0  0  0  0  0
  188.1780  176.7700  141.2460 O   0  0  0  0  0  0  0  0  0  0  0  0
  187.8330  175.7680  141.9280 C   0  0  0  0  0  0  0  0  0  0  0  0
  2  1  1  6  0  0  0
  2  3  1  0  0  0  0
  3  5  1  0  0  0  0
  5  6  1  0  0  0  0
  5  4  1  0  0  0  0
  7  5  1  0  0  0  0
  8 18  1  0  0  0  0
  9 13  1  0  0  0  0
  9  8  2  0  0  0  0
 10  7  1  6  0  0  0
 10 12  1  0  0  0  0
 11 12  1  0  0  0  0
 13 15  2  0  0  0  0
 14 13  1  0  0  0  0
 14 19  1  0  0  0  0
 15 17  1  0  0  0  0
 15 16  1  0  0  0  0
 16 11  1  0  0  0  0
 18 16  2  0  0  0  0
 18 10  1  0  0  0  0
 19 20  1  6  0  0  0
 19 17  1  0  0  0  0
 21 20  2  0  0  0  0
 22 25  1  0  0  0  0
 22  2  1  0  0  0  0
 23 27  2  0  0  0  0
 24 31  2  0  0  0  0
 26 34  1  0  0  0  0
 27 26  1  0  0  0  0
 28 36  2  0  0  0  0
 29 35  1  0  0  0  0
 30 33  1  0  0  0  0
 30 28  1  0  0  0  0
 31 28  1  0  0  0  0
 32 23  1  0  0  0  0
 33 32  2  0  0  0  0
 35 26  2  0  0  0  0
 36 23  1  0  0  0  0
 36 29  1  0  0  0  0
 37 24  1  0  0  0  0
 37 30  2  0  0  0  0
 38 39  2  0  0  0  0
 39 29  1  0  0  0  0
 39 25  1  0  0  0  0
M  END
>  <MODEL>
2

>  <REMARK>
 VINA RESULT:      -8.6      3.429      6.911
  Name = 
  7 active torsions:
  status: ('A' for Active; 'I' for Inactive)
    1  A    between atoms: C_3  and  C_13
    2  A    between atoms: C_3  and  C_17
    3  A    between atoms: C_4  and  C_35
    4  A    between atoms: C_8  and  C_17
    5  A    between atoms: C_8  and  C_23
    6  A    between atoms: N_10  and  C_14
    7  A    between atoms: C_14  and  C_23
                            x       y       z     vdW  Elec       q    Type
                         _______ _______ _______ _____ _____    ______ ____

>  <TORSDO>
F 7

$$$$
=
 OpenBabel11042414573D

 39 44  0  0  1  0  0  0  0  0999 V2000
  191.5380  176.8110  148.3740 N   0  0  0  0  0  1  0  0  0  0  0  0
  191.2820  175.9960  147.1980 C   0  0  1  0  0  3  0  0  0  0  0  0
  192.4860  175.1040  146.9180 C   0  0  0  0  0  2  0  0  0  0  0  0
  194.7500  175.7190  146.7640 F   0  0  0  0  0  0  0  0  0  0  0  0
  193.5600  175.7830  146.0660 C   0  0  0  0  0  0  0  0  0  0  0  0
  193.2490  177.1190  145.8670 F   0  0  0  0  0  0  0  0  0  0  0  0
  193.7640  175.0570  144.7350 C   0  0  0  0  0  2  0  0  0  0  0  0
  191.1810  173.2940  144.1770 N   0  0  0  0  0  0  0  0  0  0  0  0
  190.5510  172.2100  143.6180 C   0  0  0  0  0  3  0  0  0  0  0  0
  192.6700  175.3510  143.7140 C   0  0  1  0  0  3  0  0  0  0  0  0
  192.8620  174.9240  141.5190 N   0  0  0  0  0  2  0  0  0  0  0  0
  193.2580  175.8130  142.4870 O   0  0  0  0  0  0  0  0  0  0  0  0
  190.7030  171.9810  142.2370 C   0  0  0  0  0  0  0  0  0  0  0  0
  190.1290  170.9350  141.4840 N   0  0  0  0  0  2  0  0  0  0  0  0
  191.4550  172.8200  141.4620 C   0  0  0  0  0  0  0  0  0  0  0  0
  192.0790  173.9000  142.0680 C   0  0  0  0  0  0  0  0  0  0  0  0
  191.4460  172.3800  140.0470 C   0  0  0  0  0  2  0  0  0  0  0  0
  191.9390  174.1080  143.3840 C   0  0  0  0  0  0  0  0  0  0  0  0
  190.5430  171.1230  140.0880 C   0  0  1  0  0  3  0  0  0  0  0  0
  191.3150  169.9350  139.6160 C   0  0  0  0  0  3  0  0  0  0  0  0
  190.9800  168.7080  140.0080 C   0  0  0  0  0  2  0  0  0  0  0  0
  189.9970  175.1890  147.3870 C   0  0  0  0  0  2  0  0  0  0  0  0
  186.0930  176.9460  142.9350 C   0  0  0  0  0  0  0  0  0  0  0  0
  185.1940  178.4350  147.1320 C   0  0  0  0  0  3  0  0  0  0  0  0
  189.1710  175.2030  146.1860 N   0  0  0  0  0  2  0  0  0  0  0  0
  187.9210  175.6460  142.0660 C   0  0  0  0  0  0  0  0  0  0  0  0
  186.7000  176.2820  141.8720 C   0  0  0  0  0  3  0  0  0  0  0  0
  186.0100  177.5980  145.2410 C   0  0  0  0  0  0  0  0  0  0  0  0
  187.9590  176.3590  144.3610 N   0  0  0  0  0  0  0  0  0  0  0  0
  184.8010  178.1780  144.9910 C   0  0  0  0  0  0  0  0  0  0  0  0
  186.2720  177.7400  146.5880 C   0  0  0  0  0  3  0  0  0  0  0  0
  184.8810  177.5500  142.7550 N   0  0  0  0  0  0  0  0  0  0  0  0
  184.2430  178.1600  143.7580 N   0  0  0  0  0  0  0  0  0  0  0  0
  188.5740  174.9260  140.9420 C   0  0  0  0  0  1  0  0  0  0  0  0
  188.5360  175.7000  143.3160 C   0  0  0  0  0  3  0  0  0  0  0  0
  186.7300  176.9670  144.2060 C   0  0  0  0  0  0  0  0  0  0  0  0
  184.2650  178.7130  146.1350 C   0  0  0  0  0  3  0  0  0  0  0  0
  189.0470  177.5320  146.0610 O   0  0  0  0  0  0  0  0  0  0  0  0
  188.7250  176.4160  145.5720 C   0  0  0  0  0  0  0  0  0  0  0  0
  2 22  1  0  0  0  0
  2  1  1  1  0  0  0
  3  2  1  0  0  0  0
  5  4  1  0  0  0  0
  5  3  1  0  0  0  0
  6  5  1  0  0  0  0
  7  5  1  0  0  0  0
  9  8  1  0  0  0  0
 10  7  1  1  0  0  0
 11 16  1  0  0  0  0
 11 12  1  0  0  0  0
 12 10  1  0  0  0  0
 13  9  2  0  0  0  0
 14 13  1  0  0  0  0
 15 16  2  0  0  0  0
 15 13  1  0  0  0  0
 16 18  1  0  0  0  0
 17 19  1  0  0  0  0
 17 15  1  0  0  0  0
 18 10  1  0  0  0  0
 18  8  2  0  0  0  0
 19 20  1  1  0  0  0
 19 14  1  0  0  0  0
 20 21  2  0  0  0  0
 23 36  1  0  0  0  0
 25 22  1  0  0  0  0
 26 35  2  0  0  0  0
 27 26  1  0  0  0  0
 27 23  2  0  0  0  0
 28 31  1  0  0  0  0
 29 39  1  0  0  0  0
 30 28  1  0  0  0  0
 30 37  2  0  0  0  0
 31 24  2  0  0  0  0
 32 23  1  0  0  0  0
 32 33  2  0  0  0  0
 33 30  1  0  0  0  0
 34 26  1  0  0  0  0
 35 29  1  0  0  0  0
 36 29  1  0  0  0  0
 36 28  2  0  0  0  0
 37 24  1  0  0  0  0
 39 38  2  0  0  0  0
 39 25  1  0  0  0  0
M  END
>  <MODEL>
3

>  <REMARK>
 VINA RESULT:      -8.3      3.223      4.561
  Name = 
  7 active torsions:
  status: ('A' for Active; 'I' for Inactive)
    1  A    between atoms: C_3  and  C_13
    2  A    between atoms: C_3  and  C_17
    3  A    between atoms: C_4  and  C_35
    4  A    between atoms: C_8  and  C_17
    5  A    between atoms: C_8  and  C_23
    6  A    between atoms: N_10  and  C_14
    7  A    between atoms: C_14  and  C_23
                            x       y       z     vdW  Elec       q    Type
                         _______ _______ _______ _____ _____    ______ ____

>  <TORSDO>
F 7

$$$$
=
 OpenBabel11042414573D

 39 44  0  0  1  0  0  0  0  0999 V2000
  187.4220  178.6490  142.2070 N   0  0  0  0  0  1  0  0  0  0  0  0
  187.2570  177.4400  142.9960 C   0  0  1  0  0  3  0  0  0  0  0  0
  186.2720  177.6970  144.1310 C   0  0  0  0  0  2  0  0  0  0  0  0
  185.8640  176.2490  145.9370 F   0  0  0  0  0  0  0  0  0  0  0  0
  186.7660  177.1940  145.4890 C   0  0  0  0  0  0  0  0  0  0  0  0
  186.7950  178.2300  146.4090 F   0  0  0  0  0  0  0  0  0  0  0  0
  188.1320  176.5150  145.3750 C   0  0  0  0  0  2  0  0  0  0  0  0
  190.8090  177.1190  143.7750 N   0  0  0  0  0  0  0  0  0  0  0  0
  192.0650  176.7740  143.3390 C   0  0  0  0  0  3  0  0  0  0  0  0
  189.2850  177.3980  145.8400 C   0  0  1  0  0  3  0  0  0  0  0  0
  190.8580  176.7340  147.2960 N   0  0  0  0  0  2  0  0  0  0  0  0
  189.5540  177.1580  147.2300 O   0  0  0  0  0  0  0  0  0  0  0  0
  193.0180  176.3610  144.2900 C   0  0  0  0  0  0  0  0  0  0  0  0
  194.3530  175.9810  144.0400 N   0  0  0  0  0  2  0  0  0  0  0  0
  192.7080  176.3080  145.6210 C   0  0  0  0  0  0  0  0  0  0  0  0
  191.4260  176.6600  146.0170 C   0  0  0  0  0  0  0  0  0  0  0  0
  193.8770  175.8640  146.4150 C   0  0  0  0  0  2  0  0  0  0  0  0
  190.5200  177.0420  145.1080 C   0  0  0  0  0  0  0  0  0  0  0  0
  194.9660  175.6620  145.3350 C   0  0  1  0  0  3  0  0  0  0  0  0
  195.4310  174.2420  145.3490 C   0  0  0  0  0  3  0  0  0  0  0  0
  195.5730  173.5650  144.2130 C   0  0  0  0  0  2  0  0  0  0  0  0
  186.8140  176.2840  142.0990 C   0  0  0  0  0  2  0  0  0  0  0  0
  191.4990  172.6690  140.3290 C   0  0  0  0  0  0  0  0  0  0  0  0
  190.9350  173.2230  144.8030 C   0  0  0  0  0  3  0  0  0  0  0  0
  187.9340  175.7220  141.3530 N   0  0  0  0  0  2  0  0  0  0  0  0
  190.2130  173.4560  138.4540 C   0  0  0  0  0  0  0  0  0  0  0  0
  191.3270  172.7890  138.9530 C   0  0  0  0  0  3  0  0  0  0  0  0
  190.8250  173.1260  142.5850 C   0  0  0  0  0  0  0  0  0  0  0  0
  189.4200  173.8550  140.6880 N   0  0  0  0  0  0  0  0  0  0  0  0
  191.9520  172.4830  143.0080 C   0  0  0  0  0  0  0  0  0  0  0  0
  190.1750  173.6090  143.7010 C   0  0  0  0  0  3  0  0  0  0  0  0
  192.6050  172.0360  140.8220 N   0  0  0  0  0  0  0  0  0  0  0  0
  192.8320  171.9370  142.1360 N   0  0  0  0  0  0  0  0  0  0  0  0
  190.0230  173.5990  136.9880 C   0  0  0  0  0  1  0  0  0  0  0  0
  189.2700  173.9780  139.3380 C   0  0  0  0  0  3  0  0  0  0  0  0
  190.5330  173.2300  141.2090 C   0  0  0  0  0  0  0  0  0  0  0  0
  192.0540  172.5160  144.3750 C   0  0  0  0  0  3  0  0  0  0  0  0
  187.7280  173.5860  142.2750 O   0  0  0  0  0  0  0  0  0  0  0  0
  188.3430  174.3580  141.4910 C   0  0  0  0  0  0  0  0  0  0  0  0
  2  1  1  6  0  0  0
  2  3  1  0  0  0  0
  3  5  1  0  0  0  0
  5  4  1  0  0  0  0
  5  6  1  0  0  0  0
  7  5  1  0  0  0  0
  8 18  1  0  0  0  0
  9  8  2  0  0  0  0
  9 13  1  0  0  0  0
 10  7  1  6  0  0  0
 10 12  1  0  0  0  0
 12 11  1  0  0  0  0
 13 15  2  0  0  0  0
 14 13  1  0  0  0  0
 14 19  1  0  0  0  0
 15 16  1  0  0  0  0
 15 17  1  0  0  0  0
 16 11  1  0  0  0  0
 18 10  1  0  0  0  0
 18 16  2  0  0  0  0
 19 20  1  6  0  0  0
 19 17  1  0  0  0  0
 21 20  2  0  0  0  0
 22  2  1  0  0  0  0
 23 32  1  0  0  0  0
 23 36  1  0  0  0  0
 25 39  1  0  0  0  0
 25 22  1  0  0  0  0
 26 27  1  0  0  0  0
 26 35  2  0  0  0  0
 27 23  2  0  0  0  0
 28 30  1  0  0  0  0
 28 31  1  0  0  0  0
 29 36  1  0  0  0  0
 29 39  1  0  0  0  0
 30 37  2  0  0  0  0
 31 24  2  0  0  0  0
 32 33  2  0  0  0  0
 33 30  1  0  0  0  0
 34 26  1  0  0  0  0
 35 29  1  0  0  0  0
 36 28  2  0  0  0  0
 37 24  1  0  0  0  0
 39 38  2  0  0  0  0
M  END
>  <MODEL>
4

>  <REMARK>
 VINA RESULT:      -8.3      3.077      6.483
  Name = 
  7 active torsions:
  status: ('A' for Active; 'I' for Inactive)
    1  A    between atoms: C_3  and  C_13
    2  A    between atoms: C_3  and  C_17
    3  A    between atoms: C_4  and  C_35
    4  A    between atoms: C_8  and  C_17
    5  A    between atoms: C_8  and  C_23
    6  A    between atoms: N_10  and  C_14
    7  A    between atoms: C_14  and  C_23
                            x       y       z     vdW  Elec       q    Type
                         _______ _______ _______ _____ _____    ______ ____

>  <TORSDO>
F 7

$$$$
=
 OpenBabel11042414573D

 39 44  0  0  1  0  0  0  0  0999 V2000
  193.1000  177.2280  145.0550 N   0  0  0  0  0  1  0  0  0  0  0  0
  191.7740  176.7160  144.7550 C   0  0  1  0  0  3  0  0  0  0  0  0
  190.9970  176.5110  146.0520 C   0  0  0  0  0  2  0  0  0  0  0  0
  190.4780  175.0090  147.7840 F   0  0  0  0  0  0  0  0  0  0  0  0
  190.8800  175.0420  146.4630 C   0  0  0  0  0  0  0  0  0  0  0  0
  192.1120  174.4120  146.3730 F   0  0  0  0  0  0  0  0  0  0  0  0
  189.8210  174.3080  145.6370 C   0  0  0  0  0  2  0  0  0  0  0  0
  191.6350  174.2280  143.0310 N   0  0  0  0  0  0  0  0  0  0  0  0
  191.8060  174.3030  141.6700 C   0  0  0  0  0  3  0  0  0  0  0  0
  190.3550  173.0600  144.9440 C   0  0  1  0  0  3  0  0  0  0  0  0
  189.1340  171.7770  143.5660 N   0  0  0  0  0  2  0  0  0  0  0  0
  189.3330  172.0520  144.8960 O   0  0  0  0  0  0  0  0  0  0  0  0
  191.0150  173.4810  140.8450 C   0  0  0  0  0  0  0  0  0  0  0  0
  191.0530  173.4070  139.4370 N   0  0  0  0  0  2  0  0  0  0  0  0
  190.0980  172.6190  141.3810 C   0  0  0  0  0  0  0  0  0  0  0  0
  189.9540  172.5790  142.7600 C   0  0  0  0  0  0  0  0  0  0  0  0
  189.4090  171.8550  140.3150 C   0  0  0  0  0  2  0  0  0  0  0  0
  190.7010  173.3710  143.5400 C   0  0  0  0  0  0  0  0  0  0  0  0
  190.0740  172.3940  139.0260 C   0  0  1  0  0  3  0  0  0  0  0  0
  189.0360  173.0090  138.1450 C   0  0  0  0  0  3  0  0  0  0  0  0
  189.3870  173.7910  137.1270 C   0  0  0  0  0  2  0  0  0  0  0  0
  191.0520  177.6600  143.7940 C   0  0  0  0  0  2  0  0  0  0  0  0
  184.9180  178.0900  144.3820 C   0  0  0  0  0  0  0  0  0  0  0  0
  186.5480  177.9190  140.1440 C   0  0  0  0  0  3  0  0  0  0  0  0
  189.7200  178.0060  144.2780 N   0  0  0  0  0  2  0  0  0  0  0  0
  186.0170  177.9330  146.5160 C   0  0  0  0  0  0  0  0  0  0  0  0
  184.8590  178.1350  145.7720 C   0  0  0  0  0  3  0  0  0  0  0  0
  186.1420  177.8840  142.3300 C   0  0  0  0  0  0  0  0  0  0  0  0
  187.2860  177.6050  144.5020 N   0  0  0  0  0  0  0  0  0  0  0  0
  184.9760  178.1160  141.6600 C   0  0  0  0  0  0  0  0  0  0  0  0
  187.1470  177.7670  141.3930 C   0  0  0  0  0  3  0  0  0  0  0  0
  183.7880  178.3130  143.6470 N   0  0  0  0  0  0  0  0  0  0  0  0
  183.8080  178.3240  142.3110 N   0  0  0  0  0  0  0  0  0  0  0  0
  185.9690  177.9880  148.0000 C   0  0  0  0  0  1  0  0  0  0  0  0
  187.2190  177.6660  145.8620 C   0  0  0  0  0  3  0  0  0  0  0  0
  186.1610  177.8370  143.7390 C   0  0  0  0  0  0  0  0  0  0  0  0
  185.1840  178.1410  140.3040 C   0  0  0  0  0  3  0  0  0  0  0  0
  188.6570  176.2160  143.2200 O   0  0  0  0  0  0  0  0  0  0  0  0
  188.5580  177.2400  143.9490 C   0  0  0  0  0  0  0  0  0  0  0  0
  2  1  1  1  0  0  0
  2  3  1  0  0  0  0
  3  5  1  0  0  0  0
  5  4  1  0  0  0  0
  6  5  1  0  0  0  0
  7  5  1  0  0  0  0
  8 18  1  0  0  0  0
  9  8  2  0  0  0  0
 10  7  1  6  0  0  0
 11 12  1  0  0  0  0
 12 10  1  0  0  0  0
 13 15  2  0  0  0  0
 13  9  1  0  0  0  0
 14 13  1  0  0  0  0
 15 16  1  0  0  0  0
 16 18  2  0  0  0  0
 16 11  1  0  0  0  0
 17 15  1  0  0  0  0
 18 10  1  0  0  0  0
 19 20  1  6  0  0  0
 19 14  1  0  0  0  0
 19 17  1  0  0  0  0
 21 20  2  0  0  0  0
 22 25  1  0  0  0  0
 22  2  1  0  0  0  0
 23 27  2  0  0  0  0
 24 37  1  0  0  0  0
 24 31  2  0  0  0  0
 26 34  1  0  0  0  0
 27 26  1  0  0  0  0
 28 36  2  0  0  0  0
 29 35  1  0  0  0  0
 30 33  1  0  0  0  0
 30 28  1  0  0  0  0
 31 28  1  0  0  0  0
 32 23  1  0  0  0  0
 33 32  2  0  0  0  0
 35 26  2  0  0  0  0
 36 23  1  0  0  0  0
 36 29  1  0  0  0  0
 37 30  2  0  0  0  0
 38 39  2  0  0  0  0
 39 25  1  0  0  0  0
 39 29  1  0  0  0  0
M  END
>  <MODEL>
5

>  <REMARK>
 VINA RESULT:      -8.2      3.613      5.655
  Name = 
  7 active torsions:
  status: ('A' for Active; 'I' for Inactive)
    1  A    between atoms: C_3  and  C_13
    2  A    between atoms: C_3  and  C_17
    3  A    between atoms: C_4  and  C_35
    4  A    between atoms: C_8  and  C_17
    5  A    between atoms: C_8  and  C_23
    6  A    between atoms: N_10  and  C_14
    7  A    between atoms: C_14  and  C_23
                            x       y       z     vdW  Elec       q    Type
                         _______ _______ _______ _____ _____    ______ ____

>  <TORSDO>
F 7

$$$$
=
 OpenBabel11042414573D

 39 44  0  0  1  0  0  0  0  0999 V2000
  190.5270  174.9580  146.8510 N   0  0  0  0  0  1  0  0  0  0  0  0
  190.7030  174.5780  145.4590 C   0  0  1  0  0  3  0  0  0  0  0  0
  189.5750  173.6430  145.0360 C   0  0  0  0  0  2  0  0  0  0  0  0
  189.3140  171.3120  145.1940 F   0  0  0  0  0  0  0  0  0  0  0  0
  190.0680  172.2760  144.5550 C   0  0  0  0  0  0  0  0  0  0  0  0
  191.3950  172.0870  144.9080 F   0  0  0  0  0  0  0  0  0  0  0  0
  189.8640  172.1030  143.0490 C   0  0  0  0  0  2  0  0  0  0  0  0
  188.7580  174.0150  140.7660 N   0  0  0  0  0  0  0  0  0  0  0  0
  188.3210  174.2470  139.4850 C   0  0  0  0  0  3  0  0  0  0  0  0
  190.6820  173.0820  142.2130 C   0  0  1  0  0  3  0  0  0  0  0  0
  191.9340  172.4790  140.4520 N   0  0  0  0  0  2  0  0  0  0  0  0
  191.9240  172.4750  141.8240 O   0  0  0  0  0  0  0  0  0  0  0  0
  189.1410  173.8490  138.4120 C   0  0  0  0  0  0  0  0  0  0  0  0
  188.8720  174.0100  137.0360 N   0  0  0  0  0  2  0  0  0  0  0  0
  190.3500  173.2490  138.6330 C   0  0  0  0  0  0  0  0  0  0  0  0
  190.7490  173.0280  139.9430 C   0  0  0  0  0  0  0  0  0  0  0  0
  191.0270  172.9430  137.3520 C   0  0  0  0  0  2  0  0  0  0  0  0
  189.9620  173.4000  140.9600 C   0  0  0  0  0  0  0  0  0  0  0  0
  190.0220  173.4710  136.3000 C   0  0  1  0  0  3  0  0  0  0  0  0
  189.5870  172.3510  135.4130 C   0  0  0  0  0  3  0  0  0  0  0  0
  189.7170  171.0860  135.8050 C   0  0  0  0  0  2  0  0  0  0  0  0
  190.7780  175.8260  144.5800 C   0  0  0  0  0  2  0  0  0  0  0  0
  185.3020  178.3370  143.2170 C   0  0  0  0  0  0  0  0  0  0  0  0
  186.4130  178.1460  147.6190 C   0  0  0  0  0  3  0  0  0  0  0  0
  189.4980  176.1140  143.9430 N   0  0  0  0  0  2  0  0  0  0  0  0
  186.5260  177.7230  141.2400 C   0  0  0  0  0  0  0  0  0  0  0  0
  185.3550  178.1810  141.8350 C   0  0  0  0  0  3  0  0  0  0  0  0
  186.2770  178.1440  145.4000 C   0  0  0  0  0  0  0  0  0  0  0  0
  187.6040  177.6090  143.3850 N   0  0  0  0  0  0  0  0  0  0  0  0
  185.0910  178.5720  145.9220 C   0  0  0  0  0  0  0  0  0  0  0  0
  187.1210  177.8600  146.4530 C   0  0  0  0  0  3  0  0  0  0  0  0
  184.1450  178.7630  143.8080 N   0  0  0  0  0  0  0  0  0  0  0  0
  184.0360  178.8840  145.1340 N   0  0  0  0  0  0  0  0  0  0  0  0
  186.5930  177.5430  139.7660 C   0  0  0  0  0  1  0  0  0  0  0  0
  187.6390  177.4470  142.0320 C   0  0  0  0  0  3  0  0  0  0  0  0
  186.4440  178.0280  144.0040 C   0  0  0  0  0  0  0  0  0  0  0  0
  185.1360  178.5920  147.2930 C   0  0  0  0  0  3  0  0  0  0  0  0
  189.3560  178.2940  144.7680 O   0  0  0  0  0  0  0  0  0  0  0  0
  188.8350  177.3740  144.0810 C   0  0  0  0  0  0  0  0  0  0  0  0
  2  1  1  1  0  0  0
  3  2  1  0  0  0  0
  5  6  1  0  0  0  0
  5  3  1  0  0  0  0
  5  4  1  0  0  0  0
  7  5  1  0  0  0  0
  8 18  1  0  0  0  0
  9  8  2  0  0  0  0
 10  7  1  1  0  0  0
 11 12  1  0  0  0  0
 12 10  1  0  0  0  0
 13 15  2  0  0  0  0
 13  9  1  0  0  0  0
 14 13  1  0  0  0  0
 15 16  1  0  0  0  0
 16 11  1  0  0  0  0
 16 18  2  0  0  0  0
 17 15  1  0  0  0  0
 18 10  1  0  0  0  0
 19 20  1  6  0  0  0
 19 14  1  0  0  0  0
 19 17  1  0  0  0  0
 20 21  2  0  0  0  0
 22  2  1  0  0  0  0
 23 32  1  0  0  0  0
 23 36  1  0  0  0  0
 25 39  1  0  0  0  0
 25 22  1  0  0  0  0
 26 27  1  0  0  0  0
 26 35  2  0  0  0  0
 27 23  2  0  0  0  0
 28 30  1  0  0  0  0
 28 31  1  0  0  0  0
 29 36  1  0  0  0  0
 29 39  1  0  0  0  0
 30 37  2  0  0  0  0
 31 24  2  0  0  0  0
 32 33  2  0  0  0  0
 33 30  1  0  0  0  0
 34 26  1  0  0  0  0
 35 29  1  0  0  0  0
 36 28  2  0  0  0  0
 37 24  1  0  0  0  0
 39 38  2  0  0  0  0
M  END
>  <MODEL>
6

>  <REMARK>
 VINA RESULT:      -8.2      3.721      5.935
  Name = 
  7 active torsions:
  status: ('A' for Active; 'I' for Inactive)
    1  A    between atoms: C_3  and  C_13
    2  A    between atoms: C_3  and  C_17
    3  A    between atoms: C_4  and  C_35
    4  A    between atoms: C_8  and  C_17
    5  A    between atoms: C_8  and  C_23
    6  A    between atoms: N_10  and  C_14
    7  A    between atoms: C_14  and  C_23
                            x       y       z     vdW  Elec       q    Type
                         _______ _______ _______ _____ _____    ______ ____

>  <TORSDO>
F 7

$$$$
=
 OpenBabel11042414573D

 39 44  0  0  1  0  0  0  0  0999 V2000
  191.3330  175.8420  142.7400 N   0  0  0  0  0  1  0  0  0  0  0  0
  191.6660  175.6230  144.1370 C   0  0  1  0  0  3  0  0  0  0  0  0
  192.4310  176.8260  144.6780 C   0  0  0  0  0  2  0  0  0  0  0  0
  193.1310  176.2270  146.8410 F   0  0  0  0  0  0  0  0  0  0  0  0
  193.6170  176.4420  145.5660 C   0  0  0  0  0  0  0  0  0  0  0  0
  194.5350  177.4780  145.6250 F   0  0  0  0  0  0  0  0  0  0  0  0
  194.2760  175.1440  145.0950 C   0  0  0  0  0  2  0  0  0  0  0  0
  195.5320  176.6590  142.6020 N   0  0  0  0  0  0  0  0  0  0  0  0
  195.8810  176.7290  141.2750 C   0  0  0  0  0  3  0  0  0  0  0  0
  195.7610  175.3000  144.7850 C   0  0  1  0  0  3  0  0  0  0  0  0
  197.0160  173.6930  143.8470 N   0  0  0  0  0  2  0  0  0  0  0  0
  196.4460  174.0630  145.0390 O   0  0  0  0  0  0  0  0  0  0  0  0
  196.6680  175.6960  140.7310 C   0  0  0  0  0  0  0  0  0  0  0  0
  197.1330  175.5960  139.4030 N   0  0  0  0  0  2  0  0  0  0  0  0
  197.0840  174.6460  141.5020 C   0  0  0  0  0  0  0  0  0  0  0  0
  196.7040  174.6120  142.8350 C   0  0  0  0  0  0  0  0  0  0  0  0
  197.9090  173.7060  140.7080 C   0  0  0  0  0  2  0  0  0  0  0  0
  195.9470  175.5920  143.3460 C   0  0  0  0  0  0  0  0  0  0  0  0
  197.9340  174.3700  139.3110 C   0  0  1  0  0  3  0  0  0  0  0  0
  197.3410  173.4420  138.3020 C   0  0  0  0  0  3  0  0  0  0  0  0
  197.4730  173.6820  137.0000 C   0  0  0  0  0  2  0  0  0  0  0  0
  190.3970  175.3380  144.9400 C   0  0  0  0  0  2  0  0  0  0  0  0
  185.2780  178.3560  143.2550 C   0  0  0  0  0  0  0  0  0  0  0  0
  186.0280  177.9570  147.7190 C   0  0  0  0  0  3  0  0  0  0  0  0
  189.1990  175.7530  144.2200 N   0  0  0  0  0  2  0  0  0  0  0  0
  186.5930  177.6860  141.3560 C   0  0  0  0  0  0  0  0  0  0  0  0
  185.4240  178.2310  141.8760 C   0  0  0  0  0  3  0  0  0  0  0  0
  186.0630  178.0230  145.4970 C   0  0  0  0  0  0  0  0  0  0  0  0
  187.4900  177.4240  143.5700 N   0  0  0  0  0  0  0  0  0  0  0  0
  184.8820  178.5410  145.9430 C   0  0  0  0  0  0  0  0  0  0  0  0
  186.7960  177.6390  146.6000 C   0  0  0  0  0  3  0  0  0  0  0  0
  184.1210  178.8680  143.7720 N   0  0  0  0  0  0  0  0  0  0  0  0
  183.9210  178.9650  145.0900 N   0  0  0  0  0  0  0  0  0  0  0  0
  186.7560  177.5380  139.8860 C   0  0  0  0  0  1  0  0  0  0  0  0
  187.6150  177.2920  142.2190 C   0  0  0  0  0  3  0  0  0  0  0  0
  186.3270  177.9270  144.1150 C   0  0  0  0  0  0  0  0  0  0  0  0
  184.8240  178.5230  147.3140 C   0  0  0  0  0  3  0  0  0  0  0  0
  189.1830  177.9160  145.1010 O   0  0  0  0  0  0  0  0  0  0  0  0
  188.6390  177.0630  144.3480 C   0  0  0  0  0  0  0  0  0  0  0  0
  2  1  1  6  0  0  0
  2  3  1  0  0  0  0
  2 22  1  0  0  0  0
  3  5  1  0  0  0  0
  5  6  1  0  0  0  0
  5  4  1  0  0  0  0
  7  5  1  0  0  0  0
  8 18  1  0  0  0  0
  9  8  2  0  0  0  0
 10 12  1  0  0  0  0
 10  7  1  6  0  0  0
 11 12  1  0  0  0  0
 13  9  1  0  0  0  0
 13 15  2  0  0  0  0
 14 13  1  0  0  0  0
 15 16  1  0  0  0  0
 16 18  2  0  0  0  0
 16 11  1  0  0  0  0
 17 15  1  0  0  0  0
 18 10  1  0  0  0  0
 19 20  1  6  0  0  0
 19 14  1  0  0  0  0
 19 17  1  0  0  0  0
 21 20  2  0  0  0  0
 23 32  1  0  0  0  0
 23 36  1  0  0  0  0
 25 39  1  0  0  0  0
 25 22  1  0  0  0  0
 26 27  1  0  0  0  0
 26 35  2  0  0  0  0
 27 23  2  0  0  0  0
 28 30  1  0  0  0  0
 28 31  1  0  0  0  0
 29 36  1  0  0  0  0
 29 39  1  0  0  0  0
 30 37  2  0  0  0  0
 31 24  2  0  0  0  0
 32 33  2  0  0  0  0
 33 30  1  0  0  0  0
 34 26  1  0  0  0  0
 35 29  1  0  0  0  0
 36 28  2  0  0  0  0
 37 24  1  0  0  0  0
 39 38  2  0  0  0  0
M  END
>  <MODEL>
7

>  <REMARK>
 VINA RESULT:      -8.2      3.449      4.293
  Name = 
  7 active torsions:
  status: ('A' for Active; 'I' for Inactive)
    1  A    between atoms: C_3  and  C_13
    2  A    between atoms: C_3  and  C_17
    3  A    between atoms: C_4  and  C_35
    4  A    between atoms: C_8  and  C_17
    5  A    between atoms: C_8  and  C_23
    6  A    between atoms: N_10  and  C_14
    7  A    between atoms: C_14  and  C_23
                            x       y       z     vdW  Elec       q    Type
                         _______ _______ _______ _____ _____    ______ ____

>  <TORSDO>
F 7

$$$$
=
 OpenBabel11042414573D

 39 44  0  0  1  0  0  0  0  0999 V2000
  191.2950  170.9970  139.4110 N   0  0  0  0  0  1  0  0  0  0  0  0
  191.3710  172.0750  140.3820 C   0  0  1  0  0  3  0  0  0  0  0  0
  190.0870  172.1190  141.2030 C   0  0  0  0  0  2  0  0  0  0  0  0
  187.9510  172.7660  140.4640 F   0  0  0  0  0  0  0  0  0  0  0  0
  189.1730  173.2910  140.8390 C   0  0  0  0  0  0  0  0  0  0  0  0
  189.6890  173.9910  139.7600 F   0  0  0  0  0  0  0  0  0  0  0  0
  188.9350  174.2120  142.0360 C   0  0  0  0  0  2  0  0  0  0  0  0
  188.9950  176.6970  144.0150 N   0  0  0  0  0  0  0  0  0  0  0  0
  188.4050  177.5270  144.9370 C   0  0  0  0  0  3  0  0  0  0  0  0
  188.8030  175.6820  141.6490 C   0  0  1  0  0  3  0  0  0  0  0  0
  186.8470  176.6840  141.1980 N   0  0  0  0  0  2  0  0  0  0  0  0
  187.7780  175.8350  140.6550 O   0  0  0  0  0  0  0  0  0  0  0  0
  187.1770  178.1320  144.6100 C   0  0  0  0  0  0  0  0  0  0  0  0
  186.4280  179.0170  145.4130 N   0  0  0  0  0  2  0  0  0  0  0  0
  186.5800  177.9060  143.4000 C   0  0  0  0  0  0  0  0  0  0  0  0
  187.2070  177.0560  142.5010 C   0  0  0  0  0  0  0  0  0  0  0  0
  185.3130  178.6650  143.2880 C   0  0  0  0  0  2  0  0  0  0  0  0
  188.3700  176.4760  142.8200 C   0  0  0  0  0  0  0  0  0  0  0  0
  185.2400  179.4080  144.6450 C   0  0  1  0  0  3  0  0  0  0  0  0
  184.0000  179.0040  145.3730 C   0  0  0  0  0  3  0  0  0  0  0  0
  184.0750  178.3980  146.5550 C   0  0  0  0  0  2  0  0  0  0  0  0
  192.6110  171.9050  141.2600 C   0  0  0  0  0  2  0  0  0  0  0  0
  193.2980  176.1850  145.6600 C   0  0  0  0  0  0  0  0  0  0  0  0
  189.5940  173.5670  145.9300 C   0  0  0  0  0  3  0  0  0  0  0  0
  192.9460  173.1380  141.9630 N   0  0  0  0  0  2  0  0  0  0  0  0
  195.1610  176.1530  144.1390 C   0  0  0  0  0  0  0  0  0  0  0  0
  194.4890  176.7430  145.2030 C   0  0  0  0  0  3  0  0  0  0  0  0
  191.5380  174.5630  145.5130 C   0  0  0  0  0  0  0  0  0  0  0  0
  193.4910  174.4300  144.0050 N   0  0  0  0  0  0  0  0  0  0  0  0
  190.9150  175.2060  146.5420 C   0  0  0  0  0  0  0  0  0  0  0  0
  190.7170  173.5320  145.1050 C   0  0  0  0  0  3  0  0  0  0  0  0
  192.6210  176.7770  146.6890 N   0  0  0  0  0  0  0  0  0  0  0  0
  191.4530  176.3000  147.1300 N   0  0  0  0  0  0  0  0  0  0  0  0
  196.4280  176.7440  143.6370 C   0  0  0  0  0  1  0  0  0  0  0  0
  194.6480  174.9940  143.5570 C   0  0  0  0  0  3  0  0  0  0  0  0
  192.7840  175.0160  145.0350 C   0  0  0  0  0  0  0  0  0  0  0  0
  189.7110  174.6170  146.8340 C   0  0  0  0  0  3  0  0  0  0  0  0
  192.9700  172.1550  144.0800 O   0  0  0  0  0  0  0  0  0  0  0  0
  193.1090  173.1950  143.3830 C   0  0  0  0  0  0  0  0  0  0  0  0
  2  1  1  6  0  0  0
  2  3  1  0  0  0  0
  2 22  1  0  0  0  0
  4  5  1  0  0  0  0
  5  3  1  0  0  0  0
  5  7  1  0  0  0  0
  6  5  1  0  0  0  0
  8  9  1  0  0  0  0
 10  7  1  1  0  0  0
 10 18  1  0  0  0  0
 11 16  1  0  0  0  0
 12 11  1  0  0  0  0
 12 10  1  0  0  0  0
 13  9  2  0  0  0  0
 13 14  1  0  0  0  0
 15 13  1  0  0  0  0
 16 18  1  0  0  0  0
 16 15  2  0  0  0  0
 17 15  1  0  0  0  0
 17 19  1  0  0  0  0
 18  8  2  0  0  0  0
 19 20  1  1  0  0  0
 19 14  1  0  0  0  0
 20 21  2  0  0  0  0
 22 25  1  0  0  0  0
 23 32  1  0  0  0  0
 24 37  1  0  0  0  0
 25 39  1  0  0  0  0
 26 27  1  0  0  0  0
 27 23  2  0  0  0  0
 28 30  1  0  0  0  0
 29 36  1  0  0  0  0
 30 37  2  0  0  0  0
 30 33  1  0  0  0  0
 31 28  1  0  0  0  0
 31 24  2  0  0  0  0
 32 33  2  0  0  0  0
 34 26  1  0  0  0  0
 35 29  1  0  0  0  0
 35 26  2  0  0  0  0
 36 28  2  0  0  0  0
 36 23  1  0  0  0  0
 39 29  1  0  0  0  0
 39 38  2  0  0  0  0
M  END
>  <MODEL>
8

>  <REMARK>
 VINA RESULT:      -8.2      3.300      8.972
  Name = 
  7 active torsions:
  status: ('A' for Active; 'I' for Inactive)
    1  A    between atoms: C_3  and  C_13
    2  A    between atoms: C_3  and  C_17
    3  A    between atoms: C_4  and  C_35
    4  A    between atoms: C_8  and  C_17
    5  A    between atoms: C_8  and  C_23
    6  A    between atoms: N_10  and  C_14
    7  A    between atoms: C_14  and  C_23
                            x       y       z     vdW  Elec       q    Type
                         _______ _______ _______ _____ _____    ______ ____

>  <TORSDO>
F 7

$$$$
=
 OpenBabel11042414573D

 39 44  0  0  1  0  0  0  0  0999 V2000
  187.5240  173.1630  141.9880 N   0  0  0  0  0  1  0  0  0  0  0  0
  188.8170  173.7380  141.6600 C   0  0  1  0  0  3  0  0  0  0  0  0
  189.5090  172.8810  140.6050 C   0  0  0  0  0  2  0  0  0  0  0  0
  191.5990  172.1170  139.8480 F   0  0  0  0  0  0  0  0  0  0  0  0
  190.9210  172.4470  141.0050 C   0  0  0  0  0  0  0  0  0  0  0  0
  190.8720  171.3210  141.8110 F   0  0  0  0  0  0  0  0  0  0  0  0
  191.6880  173.5830  141.6850 C   0  0  0  0  0  2  0  0  0  0  0  0
  190.3510  173.2850  144.5510 N   0  0  0  0  0  0  0  0  0  0  0  0
  189.8660  173.8120  145.7230 C   0  0  0  0  0  3  0  0  0  0  0  0
  192.3870  173.1540  142.9700 C   0  0  1  0  0  3  0  0  0  0  0  0
  193.6540  174.5210  144.2190 N   0  0  0  0  0  2  0  0  0  0  0  0
  193.6740  173.7850  143.0600 O   0  0  0  0  0  0  0  0  0  0  0  0
  190.6970  174.6670  146.4720 C   0  0  0  0  0  0  0  0  0  0  0  0
  190.3850  175.2920  147.6980 N   0  0  0  0  0  2  0  0  0  0  0  0
  191.9630  174.9670  146.0500 C   0  0  0  0  0  0  0  0  0  0  0  0
  192.4110  174.4180  144.8580 C   0  0  0  0  0  0  0  0  0  0  0  0
  192.6400  175.8660  147.0130 C   0  0  0  0  0  2  0  0  0  0  0  0
  191.6130  173.6130  144.1440 C   0  0  0  0  0  0  0  0  0  0  0  0
  191.5650  176.0590  148.1110 C   0  0  1  0  0  3  0  0  0  0  0  0
  191.2220  177.5090  148.2280 C   0  0  0  0  0  3  0  0  0  0  0  0
  191.1920  178.1040  149.4180 C   0  0  0  0  0  2  0  0  0  0  0  0
  188.6480  175.1870  141.2060 C   0  0  0  0  0  2  0  0  0  0  0  0
  184.3960  178.5290  144.1910 C   0  0  0  0  0  0  0  0  0  0  0  0
  188.0510  177.2820  146.5840 C   0  0  0  0  0  3  0  0  0  0  0  0
  187.3760  175.7460  141.6510 N   0  0  0  0  0  2  0  0  0  0  0  0
  183.8300  178.2160  141.8740 C   0  0  0  0  0  0  0  0  0  0  0  0
  183.4880  178.6660  143.1450 C   0  0  0  0  0  3  0  0  0  0  0  0
  186.4900  177.7670  145.0780 C   0  0  0  0  0  0  0  0  0  0  0  0
  185.9910  177.5290  142.6690 N   0  0  0  0  0  0  0  0  0  0  0  0
  186.0820  178.2050  146.3040 C   0  0  0  0  0  0  0  0  0  0  0  0
  187.7250  177.1730  145.2340 C   0  0  0  0  0  3  0  0  0  0  0  0
  184.0540  178.9460  145.4460 N   0  0  0  0  0  0  0  0  0  0  0  0
  184.8780  178.7940  146.4870 N   0  0  0  0  0  0  0  0  0  0  0  0
  182.8650  178.3480  140.7510 C   0  0  0  0  0  1  0  0  0  0  0  0
  185.0870  177.6550  141.6570 C   0  0  0  0  0  3  0  0  0  0  0  0
  185.6640  177.9330  143.9470 C   0  0  0  0  0  0  0  0  0  0  0  0
  187.0230  177.9280  147.2640 C   0  0  0  0  0  3  0  0  0  0  0  0
  188.3140  177.7020  142.5150 O   0  0  0  0  0  0  0  0  0  0  0  0
  187.2790  177.0140  142.3060 C   0  0  0  0  0  0  0  0  0  0  0  0
  2  1  1  6  0  0  0
  3  5  1  0  0  0  0
  3  2  1  0  0  0  0
  4  5  1  0  0  0  0
  5  7  1  0  0  0  0
  5  6  1  0  0  0  0
  8  9  1  0  0  0  0
  9 13  2  0  0  0  0
 10  7  1  6  0  0  0
 10 12  1  0  0  0  0
 10 18  1  0  0  0  0
 11 16  1  0  0  0  0
 12 11  1  0  0  0  0
 13 14  1  0  0  0  0
 14 19  1  0  0  0  0
 15 13  1  0  0  0  0
 15 17  1  0  0  0  0
 16 15  2  0  0  0  0
 17 19  1  0  0  0  0
 18  8  2  0  0  0  0
 18 16  1  0  0  0  0
 19 20  1  6  0  0  0
 20 21  2  0  0  0  0
 22 25  1  0  0  0  0
 22  2  1  0  0  0  0
 23 32  1  0  0  0  0
 24 37  1  0  0  0  0
 25 39  1  0  0  0  0
 26 27  1  0  0  0  0
 27 23  2  0  0  0  0
 28 31  1  0  0  0  0
 28 30  1  0  0  0  0
 29 36  1  0  0  0  0
 30 33  1  0  0  0  0
 30 37  2  0  0  0  0
 31 24  2  0  0  0  0
 32 33  2  0  0  0  0
 34 26  1  0  0  0  0
 35 26  2  0  0  0  0
 35 29  1  0  0  0  0
 36 23  1  0  0  0  0
 36 28  2  0  0  0  0
 39 38  2  0  0  0  0
 39 29  1  0  0  0  0
M  END
>  <MODEL>
9

>  <REMARK>
 VINA RESULT:      -8.2      3.158      4.321
  Name = 
  7 active torsions:
  status: ('A' for Active; 'I' for Inactive)
    1  A    between atoms: C_3  and  C_13
    2  A    between atoms: C_3  and  C_17
    3  A    between atoms: C_4  and  C_35
    4  A    between atoms: C_8  and  C_17
    5  A    between atoms: C_8  and  C_23
    6  A    between atoms: N_10  and  C_14
    7  A    between atoms: C_14  and  C_23
                            x       y       z     vdW  Elec       q    Type
                         _______ _______ _______ _____ _____    ______ ____

>  <TORSDO>
F 7

$$$$
