=
 OpenBabel11042417213D

 26 29  0  0  0  0  0  0  0  0999 V2000
  184.2740  178.9280  145.3290 C   0  0  0  0  0  3  0  0  0  0  0  0
  186.0430  177.8570  144.0400 C   0  0  0  0  0  0  0  0  0  0  0  0
  186.7400  177.3490  140.5570 C   0  0  0  0  0  0  0  0  0  0  0  0
  186.3850  176.8750  147.7050 C   0  0  0  0  0  1  0  0  0  0  0  0
  191.4350  177.3450  143.6590 C   0  0  0  0  0  3  0  0  0  0  0  0
  186.5970  177.5600  142.7470 N   0  0  0  0  0  0  0  0  0  0  0  0
  186.3750  177.3030  139.2180 O   0  0  0  0  0  1  0  0  0  0  0  0
  185.8770  177.5040  146.4470 C   0  0  0  0  0  0  0  0  0  0  0  0
  184.1060  178.5920  147.7000 O   0  0  0  0  0  1  0  0  0  0  0  0
  191.3010  176.8880  144.9690 C   0  0  0  0  0  0  0  0  0  0  0  0
  184.9070  178.6810  144.1130 C   0  0  0  0  0  3  0  0  0  0  0  0
  190.0250  176.5890  145.4640 C   0  0  0  0  0  3  0  0  0  0  0  0
  187.8820  177.2930  142.4120 C   0  0  0  0  0  0  0  0  0  0  0  0
  184.7530  178.3400  146.4960 C   0  0  0  0  0  0  0  0  0  0  0  0
  186.5380  177.2710  145.2260 C   0  0  0  0  0  0  0  0  0  0  0  0
  190.3080  177.4970  142.8520 C   0  0  0  0  0  3  0  0  0  0  0  0
  185.8850  177.6030  141.6010 C   0  0  0  0  0  3  0  0  0  0  0  0
  189.0230  177.2120  143.3430 C   0  0  0  0  0  0  0  0  0  0  0  0
  188.8860  176.7590  144.6700 C   0  0  0  0  0  0  0  0  0  0  0  0
  187.6550  176.4310  145.2360 O   0  0  0  0  0  0  0  0  0  0  0  0
  188.0150  177.1550  141.0370 C   0  0  0  0  0  3  0  0  0  0  0  0
  192.4670  176.7290  145.7790 N   0  0  0  0  0  2  0  0  0  0  0  0
  193.1230  175.4440  145.9770 C   0  0  0  0  0  2  0  0  0  0  0  0
  194.6280  175.6320  145.9970 C   0  0  0  0  0  2  0  0  0  0  0  0
  194.9760  176.7580  145.2510 O   0  0  0  0  0  0  0  0  0  0  0  0
  195.6880  176.2520  144.1640 C   0  0  0  0  0  1  0  0  0  0  0  0
  1 14  1  0  0  0  0
  2 11  1  0  0  0  0
  2 15  2  0  0  0  0
  3 21  1  0  0  0  0
  3 17  2  0  0  0  0
  5 10  1  0  0  0  0
  6  2  1  0  0  0  0
  7  3  1  0  0  0  0
  8 14  2  0  0  0  0
  8  4  1  0  0  0  0
 10 12  2  0  0  0  0
 10 22  1  0  0  0  0
 11  1  2  0  0  0  0
 13  6  1  0  0  0  0
 13 18  1  0  0  0  0
 14  9  1  0  0  0  0
 15 20  1  0  0  0  0
 15  8  1  0  0  0  0
 16 18  1  0  0  0  0
 16  5  2  0  0  0  0
 17  6  1  0  0  0  0
 18 19  2  0  0  0  0
 19 20  1  0  0  0  0
 19 12  1  0  0  0  0
 21 13  2  0  0  0  0
 22 23  1  0  0  0  0
 23 24  1  0  0  0  0
 25 24  1  0  0  0  0
 26 25  1  0  0  0  0
M  END
>  <MODEL>
1

>  <REMARK>
 VINA RESULT:      -7.1      0.000      0.000
  Name = 
  4 active torsions:
  status: ('A' for Active; 'I' for Inactive)
    1  A    between atoms: C_8  and  O_12
    2  A    between atoms: C_8  and  C_18
    3  A    between atoms: C_11  and  N_20
    4  A    between atoms: C_18  and  N_20
                            x       y       z     vdW  Elec       q    Type
                         _______ _______ _______ _____ _____    ______ ____

>  <TORSDO>
F 4

$$$$
=
 OpenBabel11042417213D

 26 29  0  0  0  0  0  0  0  0999 V2000
  185.3380  177.7260  146.9020 C   0  0  0  0  0  3  0  0  0  0  0  0
  187.3710  176.8630  145.8740 C   0  0  0  0  0  0  0  0  0  0  0  0
  190.4050  175.3480  147.0500 C   0  0  0  0  0  0  0  0  0  0  0  0
  185.4000  178.8480  143.2890 C   0  0  0  0  0  1  0  0  0  0  0  0
  189.2050  173.8180  141.7680 C   0  0  0  0  0  3  0  0  0  0  0  0
  188.6340  176.1970  146.0460 N   0  0  0  0  0  0  0  0  0  0  0  0
  191.3300  175.0430  148.0390 O   0  0  0  0  0  1  0  0  0  0  0  0
  185.8000  178.2020  144.5750 C   0  0  0  0  0  0  0  0  0  0  0  0
  183.7810  179.0400  145.6310 O   0  0  0  0  0  1  0  0  0  0  0  0
  188.5110  174.7550  141.0040 C   0  0  0  0  0  0  0  0  0  0  0  0
  186.5300  177.0120  146.9890 C   0  0  0  0  0  3  0  0  0  0  0  0
  188.0510  175.9300  141.6120 C   0  0  0  0  0  3  0  0  0  0  0  0
  189.3440  175.4700  145.1500 C   0  0  0  0  0  0  0  0  0  0  0  0
  184.9710  178.3240  145.6990 C   0  0  0  0  0  0  0  0  0  0  0  0
  186.9940  177.4580  144.6490 C   0  0  0  0  0  0  0  0  0  0  0  0
  189.4420  174.0570  143.1220 C   0  0  0  0  0  3  0  0  0  0  0  0
  189.2830  176.1200  147.2280 C   0  0  0  0  0  3  0  0  0  0  0  0
  188.9740  175.2260  143.7430 C   0  0  0  0  0  0  0  0  0  0  0  0
  188.2630  176.1690  142.9740 C   0  0  0  0  0  0  0  0  0  0  0  0
  187.7800  177.3660  143.4980 O   0  0  0  0  0  0  0  0  0  0  0  0
  190.4680  174.9140  145.7450 C   0  0  0  0  0  3  0  0  0  0  0  0
  188.2860  174.4990  139.6170 N   0  0  0  0  0  2  0  0  0  0  0  0
  188.2930  173.1590  139.0480 C   0  0  0  0  0  2  0  0  0  0  0  0
  188.9250  173.1870  137.6700 C   0  0  0  0  0  2  0  0  0  0  0  0
  188.6410  174.4010  137.0420 O   0  0  0  0  0  0  0  0  0  0  0  0
  189.5960  174.5030  136.0310 C   0  0  0  0  0  1  0  0  0  0  0  0
  1 11  1  0  0  0  0
  2  6  1  0  0  0  0
  2 11  2  0  0  0  0
  3 17  2  0  0  0  0
  3  7  1  0  0  0  0
  4  8  1  0  0  0  0
  5 16  1  0  0  0  0
  6 17  1  0  0  0  0
  8 15  2  0  0  0  0
  8 14  1  0  0  0  0
  9 14  1  0  0  0  0
 10 12  1  0  0  0  0
 10  5  2  0  0  0  0
 12 19  2  0  0  0  0
 13 21  2  0  0  0  0
 13  6  1  0  0  0  0
 14  1  2  0  0  0  0
 15  2  1  0  0  0  0
 16 18  2  0  0  0  0
 18 13  1  0  0  0  0
 19 20  1  0  0  0  0
 19 18  1  0  0  0  0
 20 15  1  0  0  0  0
 21  3  1  0  0  0  0
 22 10  1  0  0  0  0
 23 22  1  0  0  0  0
 24 23  1  0  0  0  0
 25 24  1  0  0  0  0
 26 25  1  0  0  0  0
M  END
>  <MODEL>
2

>  <REMARK>
 VINA RESULT:      -7.0      2.932      5.855
  Name = 
  4 active torsions:
  status: ('A' for Active; 'I' for Inactive)
    1  A    between atoms: C_8  and  O_12
    2  A    between atoms: C_8  and  C_18
    3  A    between atoms: C_11  and  N_20
    4  A    between atoms: C_18  and  N_20
                            x       y       z     vdW  Elec       q    Type
                         _______ _______ _______ _____ _____    ______ ____

>  <TORSDO>
F 4

$$$$
=
 OpenBabel11042417213D

 26 29  0  0  0  0  0  0  0  0999 V2000
  183.7430  178.2830  142.5590 C   0  0  0  0  0  3  0  0  0  0  0  0
  185.8240  177.8820  143.7590 C   0  0  0  0  0  0  0  0  0  0  0  0
  186.9600  178.2740  147.1410 C   0  0  0  0  0  0  0  0  0  0  0  0
  186.4700  177.6560  140.0120 C   0  0  0  0  0  1  0  0  0  0  0  0
  189.8340  174.2780  144.4130 C   0  0  0  0  0  3  0  0  0  0  0  0
  186.5230  177.8780  145.0160 N   0  0  0  0  0  0  0  0  0  0  0  0
  186.8630  178.7980  148.4240 O   0  0  0  0  0  1  0  0  0  0  0  0
  185.7720  177.8330  141.3220 C   0  0  0  0  0  0  0  0  0  0  0  0
  183.6790  178.2320  140.1590 O   0  0  0  0  0  1  0  0  0  0  0  0
  189.9720  174.4570  143.0380 C   0  0  0  0  0  0  0  0  0  0  0  0
  184.4510  178.1770  143.7530 C   0  0  0  0  0  3  0  0  0  0  0  0
  189.3000  175.5150  142.4120 C   0  0  0  0  0  3  0  0  0  0  0  0
  187.6070  177.1550  145.3870 C   0  0  0  0  0  0  0  0  0  0  0  0
  184.3990  178.1150  141.3420 C   0  0  0  0  0  0  0  0  0  0  0  0
  186.4890  177.6980  142.5270 C   0  0  0  0  0  0  0  0  0  0  0  0
  189.0370  175.1500  145.1550 C   0  0  0  0  0  3  0  0  0  0  0  0
  186.1130  178.5690  146.1010 C   0  0  0  0  0  3  0  0  0  0  0  0
  188.3490  176.2060  144.5360 C   0  0  0  0  0  0  0  0  0  0  0  0
  188.4810  176.3810  143.1440 C   0  0  0  0  0  0  0  0  0  0  0  0
  187.8540  177.4130  142.4470 O   0  0  0  0  0  0  0  0  0  0  0  0
  187.9140  177.3740  146.7230 C   0  0  0  0  0  3  0  0  0  0  0  0
  190.7990  173.5600  142.2940 N   0  0  0  0  0  2  0  0  0  0  0  0
  190.3360  172.2630  141.8230 C   0  0  0  0  0  2  0  0  0  0  0  0
  189.8870  172.3700  140.3780 C   0  0  0  0  0  2  0  0  0  0  0  0
  188.5330  172.7020  140.3240 O   0  0  0  0  0  0  0  0  0  0  0  0
  188.4020  173.4460  139.1520 C   0  0  0  0  0  1  0  0  0  0  0  0
  1 11  1  0  0  0  0
  2  6  1  0  0  0  0
  3  7  1  0  0  0  0
  4  8  1  0  0  0  0
  5 16  1  0  0  0  0
  6 13  1  0  0  0  0
  6 17  1  0  0  0  0
  8 14  1  0  0  0  0
  8 15  2  0  0  0  0
  9 14  1  0  0  0  0
 10  5  2  0  0  0  0
 11  2  2  0  0  0  0
 12 10  1  0  0  0  0
 12 19  2  0  0  0  0
 13 21  2  0  0  0  0
 14  1  2  0  0  0  0
 15  2  1  0  0  0  0
 17  3  2  0  0  0  0
 18 16  2  0  0  0  0
 18 13  1  0  0  0  0
 19 18  1  0  0  0  0
 20 15  1  0  0  0  0
 20 19  1  0  0  0  0
 21  3  1  0  0  0  0
 22 10  1  0  0  0  0
 23 22  1  0  0  0  0
 24 23  1  0  0  0  0
 25 24  1  0  0  0  0
 26 25  1  0  0  0  0
M  END
>  <MODEL>
3

>  <REMARK>
 VINA RESULT:      -6.9      3.028      5.338
  Name = 
  4 active torsions:
  status: ('A' for Active; 'I' for Inactive)
    1  A    between atoms: C_8  and  O_12
    2  A    between atoms: C_8  and  C_18
    3  A    between atoms: C_11  and  N_20
    4  A    between atoms: C_18  and  N_20
                            x       y       z     vdW  Elec       q    Type
                         _______ _______ _______ _____ _____    ______ ____

>  <TORSDO>
F 4

$$$$
=
 OpenBabel11042417213D

 26 29  0  0  0  0  0  0  0  0999 V2000
  185.4270  178.5130  146.5090 C   0  0  0  0  0  3  0  0  0  0  0  0
  187.5300  177.4480  145.8930 C   0  0  0  0  0  0  0  0  0  0  0  0
  190.6930  176.8850  147.4940 C   0  0  0  0  0  0  0  0  0  0  0  0
  185.3800  177.8790  142.7790 C   0  0  0  0  0  1  0  0  0  0  0  0
  189.6350  173.0390  143.5240 C   0  0  0  0  0  3  0  0  0  0  0  0
  188.8500  177.0390  146.2930 N   0  0  0  0  0  0  0  0  0  0  0  0
  191.6440  177.1390  148.4730 O   0  0  0  0  0  1  0  0  0  0  0  0
  185.8400  177.9200  144.2010 C   0  0  0  0  0  0  0  0  0  0  0  0
  183.7530  178.9760  144.8510 O   0  0  0  0  0  1  0  0  0  0  0  0
  188.8550  173.4670  142.4510 C   0  0  0  0  0  0  0  0  0  0  0  0
  186.6800  178.0160  146.8580 C   0  0  0  0  0  3  0  0  0  0  0  0
  188.2890  174.7480  142.4830 C   0  0  0  0  0  3  0  0  0  0  0  0
  189.6230  176.0470  145.7910 C   0  0  0  0  0  0  0  0  0  0  0  0
  185.0040  178.4690  145.1830 C   0  0  0  0  0  0  0  0  0  0  0  0
  187.0980  177.3920  144.5500 C   0  0  0  0  0  0  0  0  0  0  0  0
  189.8500  173.8830  144.6140 C   0  0  0  0  0  3  0  0  0  0  0  0
  189.5050  177.5590  147.3530 C   0  0  0  0  0  3  0  0  0  0  0  0
  189.2760  175.1630  144.6620 C   0  0  0  0  0  0  0  0  0  0  0  0
  188.4800  175.5930  143.5820 C   0  0  0  0  0  0  0  0  0  0  0  0
  187.8880  176.8540  143.5310 O   0  0  0  0  0  0  0  0  0  0  0  0
  190.7950  175.9150  146.5230 C   0  0  0  0  0  3  0  0  0  0  0  0
  188.6540  172.5940  141.3390 N   0  0  0  0  0  2  0  0  0  0  0  0
  189.7300  172.1910  140.4450 C   0  0  0  0  0  2  0  0  0  0  0  0
  189.2360  172.1920  139.0100 C   0  0  0  0  0  2  0  0  0  0  0  0
  188.0280  172.8860  138.9250 O   0  0  0  0  0  0  0  0  0  0  0  0
  188.3140  173.9870  138.1190 C   0  0  0  0  0  1  0  0  0  0  0  0
  1 11  1  0  0  0  0
  2  6  1  0  0  0  0
  2 11  2  0  0  0  0
  3  7  1  0  0  0  0
  4  8  1  0  0  0  0
  5 16  1  0  0  0  0
  6 17  1  0  0  0  0
  8 15  2  0  0  0  0
  8 14  1  0  0  0  0
  9 14  1  0  0  0  0
 10 12  1  0  0  0  0
 10  5  2  0  0  0  0
 12 19  2  0  0  0  0
 13  6  1  0  0  0  0
 13 21  2  0  0  0  0
 14  1  2  0  0  0  0
 15  2  1  0  0  0  0
 16 18  2  0  0  0  0
 17  3  2  0  0  0  0
 18 13  1  0  0  0  0
 19 18  1  0  0  0  0
 20 19  1  0  0  0  0
 20 15  1  0  0  0  0
 21  3  1  0  0  0  0
 22 10  1  0  0  0  0
 23 22  1  0  0  0  0
 24 23  1  0  0  0  0
 25 24  1  0  0  0  0
 26 25  1  0  0  0  0
M  END
>  <MODEL>
4

>  <REMARK>
 VINA RESULT:      -6.9      3.075      5.690
  Name = 
  4 active torsions:
  status: ('A' for Active; 'I' for Inactive)
    1  A    between atoms: C_8  and  O_12
    2  A    between atoms: C_8  and  C_18
    3  A    between atoms: C_11  and  N_20
    4  A    between atoms: C_18  and  N_20
                            x       y       z     vdW  Elec       q    Type
                         _______ _______ _______ _____ _____    ______ ____

>  <TORSDO>
F 4

$$$$
=
 OpenBabel11042417213D

 26 29  0  0  0  0  0  0  0  0999 V2000
  187.4430  176.4300  147.5340 C   0  0  0  0  0  3  0  0  0  0  0  0
  187.8610  177.3600  145.3210 C   0  0  0  0  0  0  0  0  0  0  0  0
  190.6720  177.5420  143.0970 C   0  0  0  0  0  0  0  0  0  0  0  0
  184.5300  178.6670  146.6250 C   0  0  0  0  0  1  0  0  0  0  0  0
  185.7820  177.7750  140.3220 C   0  0  0  0  0  3  0  0  0  0  0  0
  188.7780  177.5310  144.2270 N   0  0  0  0  0  0  0  0  0  0  0  0
  192.0300  177.4690  142.8140 O   0  0  0  0  0  1  0  0  0  0  0  0
  185.8290  177.9320  146.5400 C   0  0  0  0  0  0  0  0  0  0  0  0
  185.4420  176.9820  148.7400 O   0  0  0  0  0  1  0  0  0  0  0  0
  184.7160  178.3510  141.0120 C   0  0  0  0  0  0  0  0  0  0  0  0
  188.2510  176.5580  146.4080 C   0  0  0  0  0  3  0  0  0  0  0  0
  184.8810  178.7080  142.3560 C   0  0  0  0  0  3  0  0  0  0  0  0
  188.5110  177.7530  142.9180 C   0  0  0  0  0  0  0  0  0  0  0  0
  186.2340  177.1150  147.6060 C   0  0  0  0  0  0  0  0  0  0  0  0
  186.6280  178.0460  145.3870 C   0  0  0  0  0  0  0  0  0  0  0  0
  187.0000  177.5630  140.9690 C   0  0  0  0  0  3  0  0  0  0  0  0
  190.1160  177.3920  144.3440 C   0  0  0  0  0  3  0  0  0  0  0  0
  187.1710  177.9060  142.3190 C   0  0  0  0  0  0  0  0  0  0  0  0
  186.0910  178.4790  143.0190 C   0  0  0  0  0  0  0  0  0  0  0  0
  186.1750  178.8700  144.3540 O   0  0  0  0  0  0  0  0  0  0  0  0
  189.6800  177.7640  142.1690 C   0  0  0  0  0  3  0  0  0  0  0  0
  183.4780  178.5700  140.3320 N   0  0  0  0  0  2  0  0  0  0  0  0
  182.2470  177.8810  140.6890 C   0  0  0  0  0  2  0  0  0  0  0  0
  181.4330  178.7390  141.6390 C   0  0  0  0  0  2  0  0  0  0  0  0
  180.0990  178.7660  141.2300 O   0  0  0  0  0  0  0  0  0  0  0  0
  179.9710  179.9680  140.5350 C   0  0  0  0  0  1  0  0  0  0  0  0
  1 14  1  0  0  0  0
  2 15  2  0  0  0  0
  2 11  1  0  0  0  0
  3 17  2  0  0  0  0
  5 16  2  0  0  0  0
  5 10  1  0  0  0  0
  6 17  1  0  0  0  0
  6  2  1  0  0  0  0
  7  3  1  0  0  0  0
  8  4  1  0  0  0  0
  8 14  2  0  0  0  0
 10 12  2  0  0  0  0
 11  1  2  0  0  0  0
 12 19  1  0  0  0  0
 13  6  1  0  0  0  0
 14  9  1  0  0  0  0
 15  8  1  0  0  0  0
 16 18  1  0  0  0  0
 18 13  1  0  0  0  0
 18 19  2  0  0  0  0
 19 20  1  0  0  0  0
 20 15  1  0  0  0  0
 21 13  2  0  0  0  0
 21  3  1  0  0  0  0
 22 23  1  0  0  0  0
 22 10  1  0  0  0  0
 23 24  1  0  0  0  0
 25 24  1  0  0  0  0
 26 25  1  0  0  0  0
M  END
>  <MODEL>
5

>  <REMARK>
 VINA RESULT:      -6.9      2.704      7.185
  Name = 
  4 active torsions:
  status: ('A' for Active; 'I' for Inactive)
    1  A    between atoms: C_8  and  O_12
    2  A    between atoms: C_8  and  C_18
    3  A    between atoms: C_11  and  N_20
    4  A    between atoms: C_18  and  N_20
                            x       y       z     vdW  Elec       q    Type
                         _______ _______ _______ _____ _____    ______ ____

>  <TORSDO>
F 4

$$$$
=
 OpenBabel11042417213D

 26 29  0  0  0  0  0  0  0  0999 V2000
  185.4490  178.4210  146.9050 C   0  0  0  0  0  3  0  0  0  0  0  0
  187.4890  177.4690  145.9740 C   0  0  0  0  0  0  0  0  0  0  0  0
  190.7970  176.7870  147.1880 C   0  0  0  0  0  0  0  0  0  0  0  0
  185.0420  178.2050  143.1490 C   0  0  0  0  0  1  0  0  0  0  0  0
  189.3820  173.3870  142.9330 C   0  0  0  0  0  3  0  0  0  0  0  0
  188.8440  177.0410  146.1950 N   0  0  0  0  0  0  0  0  0  0  0  0
  191.8380  176.9470  148.0930 O   0  0  0  0  0  1  0  0  0  0  0  0
  185.6380  178.0960  144.5160 C   0  0  0  0  0  0  0  0  0  0  0  0
  183.6180  179.0360  145.4790 O   0  0  0  0  0  1  0  0  0  0  0  0
  188.4980  173.9180  141.9950 C   0  0  0  0  0  0  0  0  0  0  0  0
  186.7340  177.9100  147.0730 C   0  0  0  0  0  3  0  0  0  0  0  0
  187.9280  175.1770  142.2250 C   0  0  0  0  0  3  0  0  0  0  0  0
  189.5710  176.1240  145.5130 C   0  0  0  0  0  0  0  0  0  0  0  0
  184.8990  178.5170  145.6300 C   0  0  0  0  0  0  0  0  0  0  0  0
  186.9280  177.5540  144.6800 C   0  0  0  0  0  0  0  0  0  0  0  0
  189.6960  174.1080  144.0840 C   0  0  0  0  0  3  0  0  0  0  0  0
  189.5960  177.4510  147.2390 C   0  0  0  0  0  3  0  0  0  0  0  0
  189.1210  175.3650  144.3310 C   0  0  0  0  0  0  0  0  0  0  0  0
  188.2200  175.8990  143.3880 C   0  0  0  0  0  0  0  0  0  0  0  0
  187.6180  177.1470  143.5360 O   0  0  0  0  0  0  0  0  0  0  0  0
  190.8100  175.9320  146.1090 C   0  0  0  0  0  3  0  0  0  0  0  0
  188.1940  173.1700  140.8160 N   0  0  0  0  0  2  0  0  0  0  0  0
  188.5570  173.6190  139.4790 C   0  0  0  0  0  2  0  0  0  0  0  0
  190.0110  173.2860  139.2020 C   0  0  0  0  0  2  0  0  0  0  0  0
  190.2910  171.9870  139.6290 O   0  0  0  0  0  0  0  0  0  0  0  0
  190.4720  171.2640  138.4500 C   0  0  0  0  0  1  0  0  0  0  0  0
  1 11  1  0  0  0  0
  2  6  1  0  0  0  0
  2 11  2  0  0  0  0
  3 17  2  0  0  0  0
  3  7  1  0  0  0  0
  4  8  1  0  0  0  0
  5 16  1  0  0  0  0
  6 17  1  0  0  0  0
  8 15  2  0  0  0  0
  8 14  1  0  0  0  0
  9 14  1  0  0  0  0
 10 12  1  0  0  0  0
 10  5  2  0  0  0  0
 12 19  2  0  0  0  0
 13 21  2  0  0  0  0
 13  6  1  0  0  0  0
 14  1  2  0  0  0  0
 15  2  1  0  0  0  0
 16 18  2  0  0  0  0
 18 13  1  0  0  0  0
 19 20  1  0  0  0  0
 19 18  1  0  0  0  0
 20 15  1  0  0  0  0
 21  3  1  0  0  0  0
 22 10  1  0  0  0  0
 23 22  1  0  0  0  0
 24 23  1  0  0  0  0
 24 25  1  0  0  0  0
 26 25  1  0  0  0  0
M  END
>  <MODEL>
6

>  <REMARK>
 VINA RESULT:      -6.8      3.123      5.484
  Name = 
  4 active torsions:
  status: ('A' for Active; 'I' for Inactive)
    1  A    between atoms: C_8  and  O_12
    2  A    between atoms: C_8  and  C_18
    3  A    between atoms: C_11  and  N_20
    4  A    between atoms: C_18  and  N_20
                            x       y       z     vdW  Elec       q    Type
                         _______ _______ _______ _____ _____    ______ ____

>  <TORSDO>
F 4

$$$$
=
 OpenBabel11042417213D

 26 29  0  0  0  0  0  0  0  0999 V2000
  183.8030  178.2860  142.5340 C   0  0  0  0  0  3  0  0  0  0  0  0
  185.8070  177.9440  143.8760 C   0  0  0  0  0  0  0  0  0  0  0  0
  186.7340  178.4910  147.3000 C   0  0  0  0  0  0  0  0  0  0  0  0
  186.6810  177.5520  140.1890 C   0  0  0  0  0  1  0  0  0  0  0  0
  189.7690  174.3850  144.9350 C   0  0  0  0  0  3  0  0  0  0  0  0
  186.4280  177.9990  145.1720 N   0  0  0  0  0  0  0  0  0  0  0  0
  186.5590  179.0720  148.5490 O   0  0  0  0  0  1  0  0  0  0  0  0
  185.9040  177.7860  141.4450 C   0  0  0  0  0  0  0  0  0  0  0  0
  183.8860  178.1260  140.1390 O   0  0  0  0  0  1  0  0  0  0  0  0
  189.9910  174.5020  143.5640 C   0  0  0  0  0  0  0  0  0  0  0  0
  184.4360  178.2350  143.7730 C   0  0  0  0  0  3  0  0  0  0  0  0
  189.3590  175.5290  142.8510 C   0  0  0  0  0  3  0  0  0  0  0  0
  187.4870  177.2960  145.6400 C   0  0  0  0  0  0  0  0  0  0  0  0
  184.5320  178.0650  141.3690 C   0  0  0  0  0  0  0  0  0  0  0  0
  186.5460  177.7070  142.6960 C   0  0  0  0  0  0  0  0  0  0  0  0
  188.9290  175.2870  145.5870 C   0  0  0  0  0  3  0  0  0  0  0  0
  185.9520  178.7370  146.1980 C   0  0  0  0  0  3  0  0  0  0  0  0
  188.2800  176.3120  144.8800 C   0  0  0  0  0  0  0  0  0  0  0  0
  188.4960  176.4260  143.4930 C   0  0  0  0  0  0  0  0  0  0  0  0
  187.9140  177.4230  142.7130 O   0  0  0  0  0  0  0  0  0  0  0  0
  187.7110  177.5760  146.9820 C   0  0  0  0  0  3  0  0  0  0  0  0
  190.8630  173.5760  142.9130 N   0  0  0  0  0  2  0  0  0  0  0  0
  192.2750  173.4530  143.2440 C   0  0  0  0  0  2  0  0  0  0  0  0
  193.0140  174.7090  142.8240 C   0  0  0  0  0  2  0  0  0  0  0  0
  193.7340  175.2210  143.9050 O   0  0  0  0  0  0  0  0  0  0  0  0
  193.0540  176.3860  144.2570 C   0  0  0  0  0  1  0  0  0  0  0  0
  1 11  1  0  0  0  0
  2  6  1  0  0  0  0
  3  7  1  0  0  0  0
  4  8  1  0  0  0  0
  5 16  1  0  0  0  0
  6 13  1  0  0  0  0
  6 17  1  0  0  0  0
  8 15  2  0  0  0  0
  9 14  1  0  0  0  0
 10  5  2  0  0  0  0
 11  2  2  0  0  0  0
 12 19  2  0  0  0  0
 12 10  1  0  0  0  0
 13 21  2  0  0  0  0
 14  8  1  0  0  0  0
 14  1  2  0  0  0  0
 15 20  1  0  0  0  0
 15  2  1  0  0  0  0
 17  3  2  0  0  0  0
 18 16  2  0  0  0  0
 18 13  1  0  0  0  0
 19 18  1  0  0  0  0
 20 19  1  0  0  0  0
 21  3  1  0  0  0  0
 22 23  1  0  0  0  0
 22 10  1  0  0  0  0
 24 23  1  0  0  0  0
 24 25  1  0  0  0  0
 25 26  1  0  0  0  0
M  END
>  <MODEL>
7

>  <REMARK>
 VINA RESULT:      -6.7      2.126      4.431
  Name = 
  4 active torsions:
  status: ('A' for Active; 'I' for Inactive)
    1  A    between atoms: C_8  and  O_12
    2  A    between atoms: C_8  and  C_18
    3  A    between atoms: C_11  and  N_20
    4  A    between atoms: C_18  and  N_20
                            x       y       z     vdW  Elec       q    Type
                         _______ _______ _______ _____ _____    ______ ____

>  <TORSDO>
F 4

$$$$
=
 OpenBabel11042417213D

 26 29  0  0  0  0  0  0  0  0999 V2000
  186.6810  176.8520  147.0510 C   0  0  0  0  0  3  0  0  0  0  0  0
  188.5790  176.5250  145.5580 C   0  0  0  0  0  0  0  0  0  0  0  0
  192.1410  176.3040  145.9360 C   0  0  0  0  0  0  0  0  0  0  0  0
  185.4690  177.2770  143.4920 C   0  0  0  0  0  1  0  0  0  0  0  0
  190.3430  173.5620  141.3620 C   0  0  0  0  0  3  0  0  0  0  0  0
  189.9990  176.3440  145.4150 N   0  0  0  0  0  0  0  0  0  0  0  0
  193.3220  176.4950  146.6400 O   0  0  0  0  0  1  0  0  0  0  0  0
  186.3700  177.0320  144.6590 C   0  0  0  0  0  0  0  0  0  0  0  0
  184.5010  177.3450  146.1750 O   0  0  0  0  0  1  0  0  0  0  0  0
  189.1970  174.0730  140.7550 C   0  0  0  0  0  0  0  0  0  0  0  0
  188.0340  176.5880  146.8510 C   0  0  0  0  0  3  0  0  0  0  0  0
  188.5050  175.1250  141.3710 C   0  0  0  0  0  3  0  0  0  0  0  0
  190.6850  175.7390  144.4160 C   0  0  0  0  0  0  0  0  0  0  0  0
  185.8470  177.0760  145.9590 C   0  0  0  0  0  0  0  0  0  0  0  0
  187.7310  176.7400  144.4480 C   0  0  0  0  0  0  0  0  0  0  0  0
  190.7950  174.0990  142.5680 C   0  0  0  0  0  3  0  0  0  0  0  0
  190.8950  176.6910  146.3640 C   0  0  0  0  0  3  0  0  0  0  0  0
  190.1020  175.1450  143.1990 C   0  0  0  0  0  0  0  0  0  0  0  0
  188.9380  175.6550  142.5910 C   0  0  0  0  0  0  0  0  0  0  0  0
  188.1980  176.7050  143.1320 O   0  0  0  0  0  0  0  0  0  0  0  0
  192.0420  175.6910  144.7080 C   0  0  0  0  0  3  0  0  0  0  0  0
  188.7530  173.5180  139.5160 N   0  0  0  0  0  2  0  0  0  0  0  0
  189.3770  173.8360  138.2390 C   0  0  0  0  0  2  0  0  0  0  0  0
  188.3260  174.3230  137.2590 C   0  0  0  0  0  2  0  0  0  0  0  0
  187.4190  175.1580  137.9130 O   0  0  0  0  0  0  0  0  0  0  0  0
  186.9110  175.9770  136.9050 C   0  0  0  0  0  1  0  0  0  0  0  0
  2 11  2  0  0  0  0
  3 17  2  0  0  0  0
  3  7  1  0  0  0  0
  4  8  1  0  0  0  0
  5 16  1  0  0  0  0
  6  2  1  0  0  0  0
  6 17  1  0  0  0  0
  8 14  1  0  0  0  0
 10  5  2  0  0  0  0
 10 12  1  0  0  0  0
 11  1  1  0  0  0  0
 12 19  2  0  0  0  0
 13 21  2  0  0  0  0
 13  6  1  0  0  0  0
 14  9  1  0  0  0  0
 14  1  2  0  0  0  0
 15  8  2  0  0  0  0
 15  2  1  0  0  0  0
 16 18  2  0  0  0  0
 18 13  1  0  0  0  0
 19 20  1  0  0  0  0
 19 18  1  0  0  0  0
 20 15  1  0  0  0  0
 21  3  1  0  0  0  0
 22 10  1  0  0  0  0
 23 22  1  0  0  0  0
 24 25  1  0  0  0  0
 24 23  1  0  0  0  0
 26 25  1  0  0  0  0
M  END
>  <MODEL>
8

>  <REMARK>
 VINA RESULT:      -6.6      2.675      6.063
  Name = 
  4 active torsions:
  status: ('A' for Active; 'I' for Inactive)
    1  A    between atoms: C_8  and  O_12
    2  A    between atoms: C_8  and  C_18
    3  A    between atoms: C_11  and  N_20
    4  A    between atoms: C_18  and  N_20
                            x       y       z     vdW  Elec       q    Type
                         _______ _______ _______ _____ _____    ______ ____

>  <TORSDO>
F 4

$$$$
=
 OpenBabel11042417213D

 26 29  0  0  0  0  0  0  0  0999 V2000
  191.8820  173.9900  141.5770 C   0  0  0  0  0  3  0  0  0  0  0  0
  190.2170  174.7290  143.1960 C   0  0  0  0  0  0  0  0  0  0  0  0
  190.1600  175.3320  146.7330 C   0  0  0  0  0  0  0  0  0  0  0  0
  188.4850  173.8670  139.9150 C   0  0  0  0  0  1  0  0  0  0  0  0
  186.2860  178.3830  144.0210 C   0  0  0  0  0  3  0  0  0  0  0  0
  189.9200  175.0970  144.5540 N   0  0  0  0  0  0  0  0  0  0  0  0
  190.6720  175.2000  148.0170 O   0  0  0  0  0  1  0  0  0  0  0  0
  189.5490  174.0720  140.9450 C   0  0  0  0  0  0  0  0  0  0  0  0
  191.2350  173.3470  139.3560 O   0  0  0  0  0  1  0  0  0  0  0  0
  185.7660  177.8160  142.8580 C   0  0  0  0  0  0  0  0  0  0  0  0
  191.5490  174.4390  142.8530 C   0  0  0  0  0  3  0  0  0  0  0  0
  186.3130  176.6200  142.3750 C   0  0  0  0  0  3  0  0  0  0  0  0
  188.9350  175.9000  145.0230 C   0  0  0  0  0  0  0  0  0  0  0  0
  190.8860  173.8030  140.6220 C   0  0  0  0  0  0  0  0  0  0  0  0
  189.2070  174.5520  142.2240 C   0  0  0  0  0  0  0  0  0  0  0  0
  187.3360  177.7590  144.6950 C   0  0  0  0  0  3  0  0  0  0  0  0
  190.6860  174.7460  145.6090 C   0  0  0  0  0  3  0  0  0  0  0  0
  187.8980  176.5670  144.2120 C   0  0  0  0  0  0  0  0  0  0  0  0
  187.3800  175.9980  143.0320 C   0  0  0  0  0  0  0  0  0  0  0  0
  187.8600  174.8070  142.4900 O   0  0  0  0  0  0  0  0  0  0  0  0
  189.0530  176.0770  146.3950 C   0  0  0  0  0  3  0  0  0  0  0  0
  184.6850  178.4630  142.1860 N   0  0  0  0  0  2  0  0  0  0  0  0
  184.4810  178.3740  140.7470 C   0  0  0  0  0  2  0  0  0  0  0  0
  183.0290  178.0510  140.4510 C   0  0  0  0  0  2  0  0  0  0  0  0
  182.2580  178.2360  141.6000 O   0  0  0  0  0  0  0  0  0  0  0  0
  181.0020  178.6060  141.1210 C   0  0  0  0  0  1  0  0  0  0  0  0
  1 11  1  0  0  0  0
  2  6  1  0  0  0  0
  3  7  1  0  0  0  0
  4  8  1  0  0  0  0
  5 16  1  0  0  0  0
  6 13  1  0  0  0  0
  6 17  1  0  0  0  0
  8 15  2  0  0  0  0
  9 14  1  0  0  0  0
 10  5  2  0  0  0  0
 11  2  2  0  0  0  0
 12 10  1  0  0  0  0
 12 19  2  0  0  0  0
 13 21  2  0  0  0  0
 14  8  1  0  0  0  0
 14  1  2  0  0  0  0
 15 20  1  0  0  0  0
 15  2  1  0  0  0  0
 17  3  2  0  0  0  0
 18 16  2  0  0  0  0
 18 13  1  0  0  0  0
 19 18  1  0  0  0  0
 20 19  1  0  0  0  0
 21  3  1  0  0  0  0
 22 10  1  0  0  0  0
 23 22  1  0  0  0  0
 24 23  1  0  0  0  0
 24 25  1  0  0  0  0
 26 25  1  0  0  0  0
M  END
>  <MODEL>
9

>  <REMARK>
 VINA RESULT:      -6.6      3.077      8.152
  Name = 
  4 active torsions:
  status: ('A' for Active; 'I' for Inactive)
    1  A    between atoms: C_8  and  O_12
    2  A    between atoms: C_8  and  C_18
    3  A    between atoms: C_11  and  N_20
    4  A    between atoms: C_18  and  N_20
                            x       y       z     vdW  Elec       q    Type
                         _______ _______ _______ _____ _____    ______ ____

>  <TORSDO>
F 4

$$$$
