=
 OpenBabel11042413573D

 30 33  0  0  1  0  0  0  0  0999 V2000
  188.0700  176.9170  145.7330 N   0  0  0  0  0  0  0  0  0  0  0  0
  188.8820  175.7390  146.0410 C   0  0  1  0  0  3  0  0  0  0  0  0
  189.8340  175.9990  147.1510 C   0  0  1  0  0  3  0  0  0  0  0  0
  188.6120  175.3430  147.3670 O   0  0  0  0  0  0  0  0  0  0  0  0
  190.8940  175.0010  147.1620 N   0  0  0  0  0  2  0  0  0  0  0  0
  194.8490  175.7260  145.8400 C   0  0  0  0  0  3  0  0  0  0  0  0
  194.2420  174.4970  145.5600 C   0  0  0  0  0  3  0  0  0  0  0  0
  192.9350  174.2510  145.9920 C   0  0  0  0  0  3  0  0  0  0  0  0
  192.8430  176.4560  146.9830 C   0  0  0  0  0  3  0  0  0  0  0  0
  194.1500  176.7040  146.5510 C   0  0  0  0  0  3  0  0  0  0  0  0
  192.2300  175.2300  146.7050 C   0  0  0  0  0  0  0  0  0  0  0  0
  186.6910  176.4840  145.9720 C   0  0  0  0  0  2  0  0  0  0  0  0
  185.9230  177.5520  146.7330 C   0  0  0  0  0  2  0  0  0  0  0  0
  184.5170  177.6910  146.1770 C   0  0  0  0  0  2  0  0  0  0  0  0
  184.3370  179.0640  145.5500 C   0  0  2  0  0  3  0  0  0  0  0  0
  185.3470  179.5600  143.8470 C   0  0  0  0  0  2  0  0  0  0  0  0
  184.0000  178.9200  144.0860 C   0  0  0  0  0  2  0  0  0  0  0  0
  185.6360  179.6660  145.2700 N   0  0  0  0  0  2  0  0  0  0  0  0
  188.2400  177.2550  144.3050 C   0  0  1  0  0  3  0  0  0  0  0  0
  192.1780  176.4380  142.8130 C   0  0  0  0  0  0  0  0  0  0  0  0
  190.6920  177.8610  144.0810 C   0  0  0  0  0  3  0  0  0  0  0  0
  189.6350  176.9840  143.7990 C   0  0  0  0  0  0  0  0  0  0  0  0
  191.0970  175.5760  142.5530 C   0  0  0  0  0  0  0  0  0  0  0  0
  189.8650  175.8720  143.0500 N   0  0  0  0  0  0  0  0  0  0  0  0
  193.5490  176.1650  142.2920 C   0  0  0  0  0  1  0  0  0  0  0  0
  191.9630  177.5820  143.5830 C   0  0  0  0  0  3  0  0  0  0  0  0
  191.2610  174.3820  141.7650 C   0  0  0  0  0  0  0  0  0  0  0  0
  191.3920  173.4220  141.1320 N   0  0  0  0  0  0  0  0  0  0  0  0
  187.2920  176.4960  143.4690 C   0  0  0  0  0  0  0  0  0  0  0  0
  186.5560  175.8940  142.8080 N   0  0  0  0  0  0  0  0  0  0  0  0
  1 12  1  0  0  0  0
  2  1  1  1  0  0  0
  2  3  1  0  0  0  0
  2  4  1  0  0  0  0
  3  5  1  6  0  0  0
  3  4  1  0  0  0  0
  6 10  1  0  0  0  0
  7  6  2  0  0  0  0
  7  8  1  0  0  0  0
  8 11  2  0  0  0  0
 10  9  2  0  0  0  0
 11  9  1  0  0  0  0
 11  5  1  0  0  0  0
 12 13  1  0  0  0  0
 14 13  1  0  0  0  0
 15 14  1  6  0  0  0
 16 17  1  0  0  0  0
 16 18  1  0  0  0  0
 17 15  1  0  0  0  0
 18 15  1  0  0  0  0
 19 29  1  6  0  0  0
 19  1  1  0  0  0  0
 20 26  1  0  0  0  0
 22 21  1  0  0  0  0
 22 19  1  0  0  0  0
 23 20  2  0  0  0  0
 23 24  1  0  0  0  0
 24 22  2  0  0  0  0
 25 20  1  0  0  0  0
 26 21  2  0  0  0  0
 27 23  1  0  0  0  0
 28 27  3  0  0  0  0
 30 29  3  0  0  0  0
M  END
>  <MODEL>
1

>  <REMARK>
 VINA RESULT:      -6.5      0.000      0.000
  Name = 
  11 active torsions:
  status: ('A' for Active; 'I' for Inactive)
    1  A    between atoms: C_1  and  C_11
    2  A    between atoms: C_1  and  N_20
    3  A    between atoms: C_3  and  C_30
    4  A    between atoms: C_8  and  C_30
    5  A    between atoms: C_10  and  C_14
    6  A    between atoms: C_11  and  C_24
    7  A    between atoms: C_12  and  N_20
    8  A    between atoms: C_17  and  C_24
    9  A    between atoms: C_19  and  N_22
   10  A    between atoms: N_20  and  C_30
   11  A    between atoms: N_22  and  C_26
                            x       y       z     vdW  Elec       q    Type
                         _______ _______ _______ _____ _____    ______ ____

>  <TORSDO>
F 11

$$$$
=
 OpenBabel11042413573D

 30 33  0  0  1  0  0  0  0  0999 V2000
  187.4290  177.2060  143.0720 N   0  0  0  0  0  0  0  0  0  0  0  0
  187.5750  176.2170  144.1400 C   0  0  1  0  0  3  0  0  0  0  0  0
  187.6780  176.8560  145.4770 C   0  0  1  0  0  3  0  0  0  0  0  0
  186.4680  176.3240  145.0050 O   0  0  0  0  0  0  0  0  0  0  0  0
  188.2360  175.9270  146.4490 N   0  0  0  0  0  2  0  0  0  0  0  0
  192.3750  175.3170  147.0900 C   0  0  0  0  0  3  0  0  0  0  0  0
  191.7530  176.4510  147.6220 C   0  0  0  0  0  3  0  0  0  0  0  0
  190.3860  176.6590  147.4170 C   0  0  0  0  0  3  0  0  0  0  0  0
  190.2610  174.6030  146.1480 C   0  0  0  0  0  3  0  0  0  0  0  0
  191.6290  174.3930  146.3540 C   0  0  0  0  0  3  0  0  0  0  0  0
  189.6340  175.7350  146.6790 C   0  0  0  0  0  0  0  0  0  0  0  0
  186.1130  176.9280  142.4930 C   0  0  0  0  0  2  0  0  0  0  0  0
  185.3030  178.2090  142.3740 C   0  0  0  0  0  2  0  0  0  0  0  0
  185.9260  179.3100  143.2130 C   0  0  0  0  0  2  0  0  0  0  0  0
  184.9040  179.8580  144.1970 C   0  0  2  0  0  3  0  0  0  0  0  0
  184.1470  178.6640  145.6690 C   0  0  0  0  0  2  0  0  0  0  0  0
  185.3490  179.5760  145.6120 C   0  0  0  0  0  2  0  0  0  0  0  0
  183.7630  178.9550  144.2940 N   0  0  0  0  0  2  0  0  0  0  0  0
  188.4750  176.9710  142.0560 C   0  0  1  0  0  3  0  0  0  0  0  0
  192.4400  176.7420  143.6760 C   0  0  0  0  0  0  0  0  0  0  0  0
  190.3890  177.9850  143.3730 C   0  0  0  0  0  3  0  0  0  0  0  0
  189.8630  176.9100  142.6420 C   0  0  0  0  0  0  0  0  0  0  0  0
  191.8800  175.6810  142.9430 C   0  0  0  0  0  0  0  0  0  0  0  0
  190.6170  175.7940  142.4500 N   0  0  0  0  0  0  0  0  0  0  0  0
  193.8210  176.6740  144.2370 C   0  0  0  0  0  1  0  0  0  0  0  0
  191.6810  177.8940  143.8880 C   0  0  0  0  0  3  0  0  0  0  0  0
  192.6170  174.4680  142.6940 C   0  0  0  0  0  0  0  0  0  0  0  0
  193.2090  173.4940  142.4930 N   0  0  0  0  0  0  0  0  0  0  0  0
  188.2270  175.7120  141.3290 C   0  0  0  0  0  0  0  0  0  0  0  0
  188.0270  174.7190  140.7680 N   0  0  0  0  0  0  0  0  0  0  0  0
  2  1  1  6  0  0  0
  2  4  1  0  0  0  0
  2  3  1  0  0  0  0
  3  5  1  1  0  0  0
  4  3  1  0  0  0  0
  5 11  1  0  0  0  0
  6  7  1  0  0  0  0
  8  7  2  0  0  0  0
  9 10  1  0  0  0  0
  9 11  2  0  0  0  0
 10  6  2  0  0  0  0
 11  8  1  0  0  0  0
 12  1  1  0  0  0  0
 13 12  1  0  0  0  0
 13 14  1  0  0  0  0
 15 14  1  6  0  0  0
 15 18  1  0  0  0  0
 15 17  1  0  0  0  0
 17 16  1  0  0  0  0
 18 16  1  0  0  0  0
 19 29  1  1  0  0  0
 19 22  1  0  0  0  0
 19  1  1  0  0  0  0
 20 26  1  0  0  0  0
 20 25  1  0  0  0  0
 21 26  2  0  0  0  0
 22 21  1  0  0  0  0
 23 20  2  0  0  0  0
 24 22  2  0  0  0  0
 24 23  1  0  0  0  0
 27 23  1  0  0  0  0
 28 27  3  0  0  0  0
 30 29  3  0  0  0  0
M  END
>  <MODEL>
2

>  <REMARK>
 VINA RESULT:      -6.0      1.614      2.623
  Name = 
  11 active torsions:
  status: ('A' for Active; 'I' for Inactive)
    1  A    between atoms: C_1  and  C_11
    2  A    between atoms: C_1  and  N_20
    3  A    between atoms: C_3  and  C_30
    4  A    between atoms: C_8  and  C_30
    5  A    between atoms: C_10  and  C_14
    6  A    between atoms: C_11  and  C_24
    7  A    between atoms: C_12  and  N_20
    8  A    between atoms: C_17  and  C_24
    9  A    between atoms: C_19  and  N_22
   10  A    between atoms: N_20  and  C_30
   11  A    between atoms: N_22  and  C_26
                            x       y       z     vdW  Elec       q    Type
                         _______ _______ _______ _____ _____    ______ ____

>  <TORSDO>
F 11

$$$$
=
 OpenBabel11042413573D

 30 33  0  0  1  0  0  0  0  0999 V2000
  189.9130  175.3910  143.7210 N   0  0  0  0  0  0  0  0  0  0  0  0
  189.7580  175.9700  145.0560 C   0  0  1  0  0  3  0  0  0  0  0  0
  188.5170  175.4990  145.7220 C   0  0  1  0  0  3  0  0  0  0  0  0
  189.7670  174.9240  146.0010 O   0  0  0  0  0  0  0  0  0  0  0  0
  188.1630  176.3780  146.8270 N   0  0  0  0  0  2  0  0  0  0  0  0
  184.5450  178.5650  147.0460 C   0  0  0  0  0  3  0  0  0  0  0  0
  185.6790  179.0380  147.7120 C   0  0  0  0  0  3  0  0  0  0  0  0
  186.8780  178.3230  147.6440 C   0  0  0  0  0  3  0  0  0  0  0  0
  185.8110  176.6620  146.2450 C   0  0  0  0  0  3  0  0  0  0  0  0
  184.6110  177.3770  146.3120 C   0  0  0  0  0  3  0  0  0  0  0  0
  186.9500  177.1310  146.9090 C   0  0  0  0  0  0  0  0  0  0  0  0
  191.2160  174.7210  143.7610 C   0  0  0  0  0  2  0  0  0  0  0  0
  191.0750  173.2600  143.3690 C   0  0  0  0  0  2  0  0  0  0  0  0
  189.6460  172.9570  142.9560 C   0  0  0  0  0  2  0  0  0  0  0  0
  189.6290  172.2710  141.6000 C   0  0  2  0  0  3  0  0  0  0  0  0
  189.7000  173.3750  139.8840 C   0  0  0  0  0  2  0  0  0  0  0  0
  190.7760  172.7700  140.7550 C   0  0  0  0  0  2  0  0  0  0  0  0
  188.6260  172.8840  140.7360 N   0  0  0  0  0  2  0  0  0  0  0  0
  189.9510  176.4830  142.7270 C   0  0  1  0  0  3  0  0  0  0  0  0
  186.0520  177.7990  141.5130 C   0  0  0  0  0  0  0  0  0  0  0  0
  187.9800  176.3900  141.1350 C   0  0  0  0  0  3  0  0  0  0  0  0
  188.5770  176.9240  142.2850 C   0  0  0  0  0  0  0  0  0  0  0  0
  186.6790  178.3100  142.6650 C   0  0  0  0  0  0  0  0  0  0  0  0
  187.9150  177.8610  143.0150 N   0  0  0  0  0  0  0  0  0  0  0  0
  184.7000  178.2570  141.0800 C   0  0  0  0  0  1  0  0  0  0  0  0
  186.7140  176.8330  140.7540 C   0  0  0  0  0  3  0  0  0  0  0  0
  186.0430  179.3070  143.4860 C   0  0  0  0  0  0  0  0  0  0  0  0
  185.5310  180.1090  144.1460 N   0  0  0  0  0  0  0  0  0  0  0  0
  190.6600  177.6580  143.2650 C   0  0  0  0  0  0  0  0  0  0  0  0
  191.2100  178.5810  143.6960 N   0  0  0  0  0  0  0  0  0  0  0  0
  1 12  1  0  0  0  0
  2  1  1  6  0  0  0
  2  3  1  0  0  0  0
  2  4  1  0  0  0  0
  3  4  1  0  0  0  0
  3  5  1  1  0  0  0
  5 11  1  0  0  0  0
  6  7  1  0  0  0  0
  8  7  2  0  0  0  0
  9 10  1  0  0  0  0
  9 11  2  0  0  0  0
 10  6  2  0  0  0  0
 11  8  1  0  0  0  0
 13 12  1  0  0  0  0
 14 13  1  0  0  0  0
 15 14  1  1  0  0  0
 16 18  1  0  0  0  0
 16 17  1  0  0  0  0
 17 15  1  0  0  0  0
 18 15  1  0  0  0  0
 19 29  1  1  0  0  0
 19  1  1  0  0  0  0
 20 23  1  0  0  0  0
 21 22  2  0  0  0  0
 22 19  1  0  0  0  0
 22 24  1  0  0  0  0
 23 24  2  0  0  0  0
 23 27  1  0  0  0  0
 25 20  1  0  0  0  0
 26 21  1  0  0  0  0
 26 20  2  0  0  0  0
 27 28  3  0  0  0  0
 29 30  3  0  0  0  0
M  END
>  <MODEL>
3

>  <REMARK>
 VINA RESULT:      -6.0      2.296      6.726
  Name = 
  11 active torsions:
  status: ('A' for Active; 'I' for Inactive)
    1  A    between atoms: C_1  and  C_11
    2  A    between atoms: C_1  and  N_20
    3  A    between atoms: C_3  and  C_30
    4  A    between atoms: C_8  and  C_30
    5  A    between atoms: C_10  and  C_14
    6  A    between atoms: C_11  and  C_24
    7  A    between atoms: C_12  and  N_20
    8  A    between atoms: C_17  and  C_24
    9  A    between atoms: C_19  and  N_22
   10  A    between atoms: N_20  and  C_30
   11  A    between atoms: N_22  and  C_26
                            x       y       z     vdW  Elec       q    Type
                         _______ _______ _______ _____ _____    ______ ____

>  <TORSDO>
F 11

$$$$
=
 OpenBabel11042413573D

 30 33  0  0  1  0  0  0  0  0999 V2000
  188.0660  177.4440  144.5300 N   0  0  0  0  0  0  0  0  0  0  0  0
  188.5850  176.4250  145.4430 C   0  0  1  0  0  3  0  0  0  0  0  0
  189.5910  176.9850  146.3820 C   0  0  1  0  0  3  0  0  0  0  0  0
  188.2540  176.7940  146.7620 O   0  0  0  0  0  0  0  0  0  0  0  0
  190.3890  175.9200  146.9740 N   0  0  0  0  0  2  0  0  0  0  0  0
  194.4130  175.0760  145.9690 C   0  0  0  0  0  3  0  0  0  0  0  0
  194.0940  176.2940  146.5780 C   0  0  0  0  0  3  0  0  0  0  0  0
  192.7680  176.5790  146.9150 C   0  0  0  0  0  3  0  0  0  0  0  0
  192.0790  174.4340  146.0340 C   0  0  0  0  0  3  0  0  0  0  0  0
  193.4060  174.1470  145.6970 C   0  0  0  0  0  3  0  0  0  0  0  0
  191.7540  175.6500  146.6450 C   0  0  0  0  0  0  0  0  0  0  0  0
  186.6100  177.3530  144.6710 C   0  0  0  0  0  2  0  0  0  0  0  0
  185.9920  178.7410  144.7100 C   0  0  0  0  0  2  0  0  0  0  0  0
  185.5590  179.1680  143.3200 C   0  0  0  0  0  2  0  0  0  0  0  0
  184.8730  178.0130  142.6090 C   0  0  2  0  0  3  0  0  0  0  0  0
  183.7050  178.3580  140.9710 C   0  0  0  0  0  2  0  0  0  0  0  0
  185.1770  178.0640  141.1310 C   0  0  0  0  0  2  0  0  0  0  0  0
  183.4600  178.3120  142.4060 N   0  0  0  0  0  2  0  0  0  0  0  0
  188.4510  177.0890  143.1490 C   0  0  1  0  0  3  0  0  0  0  0  0
  192.6420  176.3060  142.6750 C   0  0  0  0  0  0  0  0  0  0  0  0
  190.8680  177.8480  143.2420 C   0  0  0  0  0  3  0  0  0  0  0  0
  189.9300  176.8350  142.9970 C   0  0  0  0  0  0  0  0  0  0  0  0
  191.6740  175.3120  142.4430 C   0  0  0  0  0  0  0  0  0  0  0  0
  190.3560  175.6030  142.6090 N   0  0  0  0  0  0  0  0  0  0  0  0
  194.1010  176.0450  142.5050 C   0  0  0  0  0  1  0  0  0  0  0  0
  192.2260  177.5760  143.0780 C   0  0  0  0  0  3  0  0  0  0  0  0
  192.0460  173.9840  142.0260 C   0  0  0  0  0  0  0  0  0  0  0  0
  192.3450  172.9170  141.6910 N   0  0  0  0  0  0  0  0  0  0  0  0
  187.7290  175.8870  142.6940 C   0  0  0  0  0  0  0  0  0  0  0  0
  187.1710  174.9400  142.3300 N   0  0  0  0  0  0  0  0  0  0  0  0
  1 12  1  0  0  0  0
  2  1  1  6  0  0  0
  2  3  1  0  0  0  0
  2  4  1  0  0  0  0
  3  4  1  0  0  0  0
  3  5  1  1  0  0  0
  6  7  1  0  0  0  0
  7  8  2  0  0  0  0
  9 11  2  0  0  0  0
 10  6  2  0  0  0  0
 10  9  1  0  0  0  0
 11  8  1  0  0  0  0
 11  5  1  0  0  0  0
 12 13  1  0  0  0  0
 14 13  1  0  0  0  0
 15 14  1  1  0  0  0
 16 17  1  0  0  0  0
 16 18  1  0  0  0  0
 17 15  1  0  0  0  0
 18 15  1  0  0  0  0
 19 29  1  1  0  0  0
 19  1  1  0  0  0  0
 20 26  1  0  0  0  0
 22 19  1  0  0  0  0
 22 21  1  0  0  0  0
 23 24  1  0  0  0  0
 23 20  2  0  0  0  0
 24 22  2  0  0  0  0
 25 20  1  0  0  0  0
 26 21  2  0  0  0  0
 27 23  1  0  0  0  0
 28 27  3  0  0  0  0
 30 29  3  0  0  0  0
M  END
>  <MODEL>
4

>  <REMARK>
 VINA RESULT:      -6.0      1.449      1.917
  Name = 
  11 active torsions:
  status: ('A' for Active; 'I' for Inactive)
    1  A    between atoms: C_1  and  C_11
    2  A    between atoms: C_1  and  N_20
    3  A    between atoms: C_3  and  C_30
    4  A    between atoms: C_8  and  C_30
    5  A    between atoms: C_10  and  C_14
    6  A    between atoms: C_11  and  C_24
    7  A    between atoms: C_12  and  N_20
    8  A    between atoms: C_17  and  C_24
    9  A    between atoms: C_19  and  N_22
   10  A    between atoms: N_20  and  C_30
   11  A    between atoms: N_22  and  C_26
                            x       y       z     vdW  Elec       q    Type
                         _______ _______ _______ _____ _____    ______ ____

>  <TORSDO>
F 11

$$$$
=
 OpenBabel11042413573D

 30 33  0  0  1  0  0  0  0  0999 V2000
  190.3240  175.7070  144.5260 N   0  0  0  0  0  0  0  0  0  0  0  0
  191.7610  175.6220  144.2650 C   0  0  1  0  0  3  0  0  0  0  0  0
  192.3450  174.3620  144.7920 C   0  0  1  0  0  3  0  0  0  0  0  0
  192.0010  174.5050  143.4390 O   0  0  0  0  0  0  0  0  0  0  0  0
  193.7920  174.4760  144.9080 N   0  0  0  0  0  2  0  0  0  0  0  0
  196.3310  171.2740  146.0120 C   0  0  0  0  0  3  0  0  0  0  0  0
  196.8270  172.5820  146.0170 C   0  0  0  0  0  3  0  0  0  0  0  0
  195.9940  173.6450  145.6550 C   0  0  0  0  0  3  0  0  0  0  0  0
  194.1730  172.0960  145.2840 C   0  0  0  0  0  3  0  0  0  0  0  0
  195.0050  171.0320  145.6460 C   0  0  0  0  0  3  0  0  0  0  0  0
  194.6630  173.4070  145.2880 C   0  0  0  0  0  0  0  0  0  0  0  0
  189.7230  175.9080  143.2050 C   0  0  0  0  0  2  0  0  0  0  0  0
  188.5690  174.9420  142.9930 C   0  0  0  0  0  2  0  0  0  0  0  0
  187.3380  175.6850  142.5090 C   0  0  0  0  0  2  0  0  0  0  0  0
  187.7400  176.7890  141.5440 C   0  0  2  0  0  3  0  0  0  0  0  0
  186.4300  177.4430  140.1220 C   0  0  0  0  0  2  0  0  0  0  0  0
  186.6940  177.8780  141.5440 C   0  0  0  0  0  2  0  0  0  0  0  0
  187.4400  176.3950  140.1720 N   0  0  0  0  0  2  0  0  0  0  0  0
  190.0610  176.8890  145.3730 C   0  0  1  0  0  3  0  0  0  0  0  0
  185.8960  177.4230  146.2510 C   0  0  0  0  0  0  0  0  0  0  0  0
  187.9590  176.2180  146.6210 C   0  0  0  0  0  3  0  0  0  0  0  0
  188.6000  177.0630  145.7040 C   0  0  0  0  0  0  0  0  0  0  0  0
  186.5720  178.2560  145.3400 C   0  0  0  0  0  0  0  0  0  0  0  0
  187.8950  178.0530  145.0950 N   0  0  0  0  0  0  0  0  0  0  0  0
  184.4460  177.5960  146.5560 C   0  0  0  0  0  1  0  0  0  0  0  0
  186.6040  176.4040  146.8900 C   0  0  0  0  0  3  0  0  0  0  0  0
  185.8920  179.3240  144.6530 C   0  0  0  0  0  0  0  0  0  0  0  0
  185.3460  180.1820  144.1000 N   0  0  0  0  0  0  0  0  0  0  0  0
  190.8130  176.8060  146.6380 C   0  0  0  0  0  0  0  0  0  0  0  0
  191.3970  176.7500  147.6360 N   0  0  0  0  0  0  0  0  0  0  0  0
  1 19  1  0  0  0  0
  2  1  1  1  0  0  0
  2  3  1  0  0  0  0
  3  5  1  6  0  0  0
  4  2  1  0  0  0  0
  4  3  1  0  0  0  0
  5 11  1  0  0  0  0
  6  7  1  0  0  0  0
  8  7  2  0  0  0  0
  9 11  2  0  0  0  0
  9 10  1  0  0  0  0
 10  6  2  0  0  0  0
 11  8  1  0  0  0  0
 12  1  1  0  0  0  0
 13 12  1  0  0  0  0
 14 13  1  0  0  0  0
 15 14  1  1  0  0  0
 16 18  1  0  0  0  0
 16 17  1  0  0  0  0
 17 15  1  0  0  0  0
 18 15  1  0  0  0  0
 19 22  1  0  0  0  0
 19 29  1  1  0  0  0
 20 25  1  0  0  0  0
 20 26  1  0  0  0  0
 21 26  2  0  0  0  0
 22 21  1  0  0  0  0
 23 20  2  0  0  0  0
 24 23  1  0  0  0  0
 24 22  2  0  0  0  0
 27 23  1  0  0  0  0
 28 27  3  0  0  0  0
 29 30  3  0  0  0  0
M  END
>  <MODEL>
5

>  <REMARK>
 VINA RESULT:      -6.0      2.280      5.345
  Name = 
  11 active torsions:
  status: ('A' for Active; 'I' for Inactive)
    1  A    between atoms: C_1  and  C_11
    2  A    between atoms: C_1  and  N_20
    3  A    between atoms: C_3  and  C_30
    4  A    between atoms: C_8  and  C_30
    5  A    between atoms: C_10  and  C_14
    6  A    between atoms: C_11  and  C_24
    7  A    between atoms: C_12  and  N_20
    8  A    between atoms: C_17  and  C_24
    9  A    between atoms: C_19  and  N_22
   10  A    between atoms: N_20  and  C_30
   11  A    between atoms: N_22  and  C_26
                            x       y       z     vdW  Elec       q    Type
                         _______ _______ _______ _____ _____    ______ ____

>  <TORSDO>
F 11

$$$$
=
 OpenBabel11042413573D

 30 33  0  0  1  0  0  0  0  0999 V2000
  190.0120  175.4730  143.9420 N   0  0  0  0  0  0  0  0  0  0  0  0
  189.7710  176.1100  145.2380 C   0  0  1  0  0  3  0  0  0  0  0  0
  188.5260  175.6110  145.8760 C   0  0  1  0  0  3  0  0  0  0  0  0
  189.7890  175.1160  146.2360 O   0  0  0  0  0  0  0  0  0  0  0  0
  188.0810  176.5250  146.9180 N   0  0  0  0  0  2  0  0  0  0  0  0
  184.4340  178.6720  146.8860 C   0  0  0  0  0  3  0  0  0  0  0  0
  184.5500  177.4970  146.1370 C   0  0  0  0  0  3  0  0  0  0  0  0
  185.7510  176.7810  146.1440 C   0  0  0  0  0  3  0  0  0  0  0  0
  186.7190  178.4130  147.6460 C   0  0  0  0  0  3  0  0  0  0  0  0
  185.5180  179.1300  147.6400 C   0  0  0  0  0  3  0  0  0  0  0  0
  186.8410  177.2360  146.8990 C   0  0  0  0  0  0  0  0  0  0  0  0
  191.3240  174.8360  144.0870 C   0  0  0  0  0  2  0  0  0  0  0  0
  191.7990  174.2890  142.7500 C   0  0  0  0  0  2  0  0  0  0  0  0
  193.3150  174.2910  142.6870 C   0  0  0  0  0  2  0  0  0  0  0  0
  193.8880  175.0270  143.8870 C   0  0  2  0  0  3  0  0  0  0  0  0
  195.9080  175.1850  144.1320 C   0  0  0  0  0  2  0  0  0  0  0  0
  194.8940  176.0550  143.4280 C   0  0  0  0  0  2  0  0  0  0  0  0
  194.9050  174.2110  144.5420 N   0  0  0  0  0  2  0  0  0  0  0  0
  190.0830  176.5190  142.9010 C   0  0  1  0  0  3  0  0  0  0  0  0
  186.2310  177.7340  141.4590 C   0  0  0  0  0  0  0  0  0  0  0  0
  188.1870  176.3330  141.2290 C   0  0  0  0  0  3  0  0  0  0  0  0
  188.7270  176.9240  142.3800 C   0  0  0  0  0  0  0  0  0  0  0  0
  186.8000  178.3030  142.6140 C   0  0  0  0  0  0  0  0  0  0  0  0
  188.0230  177.8840  143.0380 N   0  0  0  0  0  0  0  0  0  0  0  0
  184.8950  178.1570  140.9470 C   0  0  0  0  0  1  0  0  0  0  0  0
  186.9350  176.7440  140.7730 C   0  0  0  0  0  3  0  0  0  0  0  0
  186.1180  179.3280  143.3610 C   0  0  0  0  0  0  0  0  0  0  0  0
  185.5700  180.1510  143.9620 N   0  0  0  0  0  0  0  0  0  0  0  0
  190.7590  177.7250  143.4140 C   0  0  0  0  0  0  0  0  0  0  0  0
  191.2890  178.6770  143.8050 N   0  0  0  0  0  0  0  0  0  0  0  0
  1 12  1  0  0  0  0
  2  1  1  6  0  0  0
  2  3  1  0  0  0  0
  2  4  1  0  0  0  0
  3  4  1  0  0  0  0
  3  5  1  1  0  0  0
  6 10  1  0  0  0  0
  7  8  1  0  0  0  0
  7  6  2  0  0  0  0
  8 11  2  0  0  0  0
 10  9  2  0  0  0  0
 11  5  1  0  0  0  0
 11  9  1  0  0  0  0
 13 12  1  0  0  0  0
 14 13  1  0  0  0  0
 15 14  1  6  0  0  0
 15 18  1  0  0  0  0
 16 18  1  0  0  0  0
 17 15  1  0  0  0  0
 17 16  1  0  0  0  0
 19 29  1  1  0  0  0
 19  1  1  0  0  0  0
 20 23  1  0  0  0  0
 21 22  2  0  0  0  0
 22 19  1  0  0  0  0
 22 24  1  0  0  0  0
 23 24  2  0  0  0  0
 23 27  1  0  0  0  0
 25 20  1  0  0  0  0
 26 21  1  0  0  0  0
 26 20  2  0  0  0  0
 27 28  3  0  0  0  0
 29 30  3  0  0  0  0
M  END
>  <MODEL>
6

>  <REMARK>
 VINA RESULT:      -5.8      1.976      7.154
  Name = 
  11 active torsions:
  status: ('A' for Active; 'I' for Inactive)
    1  A    between atoms: C_1  and  C_11
    2  A    between atoms: C_1  and  N_20
    3  A    between atoms: C_3  and  C_30
    4  A    between atoms: C_8  and  C_30
    5  A    between atoms: C_10  and  C_14
    6  A    between atoms: C_11  and  C_24
    7  A    between atoms: C_12  and  N_20
    8  A    between atoms: C_17  and  C_24
    9  A    between atoms: C_19  and  N_22
   10  A    between atoms: N_20  and  C_30
   11  A    between atoms: N_22  and  C_26
                            x       y       z     vdW  Elec       q    Type
                         _______ _______ _______ _____ _____    ______ ____

>  <TORSDO>
F 11

$$$$
=
 OpenBabel11042413573D

 30 33  0  0  1  0  0  0  0  0999 V2000
  190.0760  175.2930  143.4800 N   0  0  0  0  0  0  0  0  0  0  0  0
  188.6260  175.2890  143.2820 C   0  0  1  0  0  3  0  0  0  0  0  0
  188.0310  176.6280  143.5260 C   0  0  1  0  0  3  0  0  0  0  0  0
  188.3150  176.1730  142.2290 O   0  0  0  0  0  0  0  0  0  0  0  0
  186.5950  176.5200  143.7420 N   0  0  0  0  0  2  0  0  0  0  0  0
  184.4590  178.4030  146.8740 C   0  0  0  0  0  3  0  0  0  0  0  0
  185.4770  177.4950  147.1810 C   0  0  0  0  0  3  0  0  0  0  0  0
  186.1880  176.8700  146.1530 C   0  0  0  0  0  3  0  0  0  0  0  0
  184.8660  178.0590  144.5120 C   0  0  0  0  0  3  0  0  0  0  0  0
  184.1540  178.6850  145.5400 C   0  0  0  0  0  3  0  0  0  0  0  0
  185.8860  177.1500  144.8130 C   0  0  0  0  0  0  0  0  0  0  0  0
  190.6220  174.8570  142.1920 C   0  0  0  0  0  2  0  0  0  0  0  0
  190.1830  173.4350  141.8820 C   0  0  0  0  0  2  0  0  0  0  0  0
  190.2070  173.1870  140.3850 C   0  0  0  0  0  2  0  0  0  0  0  0
  188.7880  173.0830  139.8500 C   0  0  2  0  0  3  0  0  0  0  0  0
  188.3260  173.8170  138.0030 C   0  0  0  0  0  2  0  0  0  0  0  0
  188.8020  172.4630  138.4730 C   0  0  0  0  0  2  0  0  0  0  0  0
  188.3410  174.3770  139.3480 N   0  0  0  0  0  2  0  0  0  0  0  0
  190.4190  174.3040  144.5220 C   0  0  1  0  0  3  0  0  0  0  0  0
  194.5940  174.3360  145.5100 C   0  0  0  0  0  0  0  0  0  0  0  0
  192.6060  173.0880  144.9320 C   0  0  0  0  0  3  0  0  0  0  0  0
  191.8890  174.2910  144.8590 C   0  0  0  0  0  0  0  0  0  0  0  0
  193.8460  175.5250  145.4230 C   0  0  0  0  0  0  0  0  0  0  0  0
  192.5250  175.4680  145.1030 N   0  0  0  0  0  0  0  0  0  0  0  0
  196.0440  174.3370  145.8610 C   0  0  0  0  0  1  0  0  0  0  0  0
  193.9600  173.1180  145.2590 C   0  0  0  0  0  3  0  0  0  0  0  0
  194.4470  176.8100  145.6710 C   0  0  0  0  0  0  0  0  0  0  0  0
  194.9300  177.8430  145.8710 N   0  0  0  0  0  0  0  0  0  0  0  0
  189.6650  174.5630  145.7620 C   0  0  0  0  0  0  0  0  0  0  0  0
  189.0640  174.7600  146.7310 N   0  0  0  0  0  0  0  0  0  0  0  0
  1 19  1  0  0  0  0
  2  1  1  1  0  0  0
  2  3  1  0  0  0  0
  3  5  1  6  0  0  0
  4  2  1  0  0  0  0
  4  3  1  0  0  0  0
  5 11  1  0  0  0  0
  6  7  1  0  0  0  0
  8  7  2  0  0  0  0
  9 11  2  0  0  0  0
  9 10  1  0  0  0  0
 10  6  2  0  0  0  0
 11  8  1  0  0  0  0
 12  1  1  0  0  0  0
 13 12  1  0  0  0  0
 14 13  1  0  0  0  0
 15 14  1  6  0  0  0
 16 17  1  0  0  0  0
 16 18  1  0  0  0  0
 17 15  1  0  0  0  0
 18 15  1  0  0  0  0
 19 22  1  0  0  0  0
 19 29  1  1  0  0  0
 20 25  1  0  0  0  0
 21 26  1  0  0  0  0
 22 21  2  0  0  0  0
 22 24  1  0  0  0  0
 23 20  1  0  0  0  0
 23 27  1  0  0  0  0
 24 23  2  0  0  0  0
 26 20  2  0  0  0  0
 27 28  3  0  0  0  0
 29 30  3  0  0  0  0
M  END
>  <MODEL>
7

>  <REMARK>
 VINA RESULT:      -5.7      2.396      6.726
  Name = 
  11 active torsions:
  status: ('A' for Active; 'I' for Inactive)
    1  A    between atoms: C_1  and  C_11
    2  A    between atoms: C_1  and  N_20
    3  A    between atoms: C_3  and  C_30
    4  A    between atoms: C_8  and  C_30
    5  A    between atoms: C_10  and  C_14
    6  A    between atoms: C_11  and  C_24
    7  A    between atoms: C_12  and  N_20
    8  A    between atoms: C_17  and  C_24
    9  A    between atoms: C_19  and  N_22
   10  A    between atoms: N_20  and  C_30
   11  A    between atoms: N_22  and  C_26
                            x       y       z     vdW  Elec       q    Type
                         _______ _______ _______ _____ _____    ______ ____

>  <TORSDO>
F 11

$$$$
=
 OpenBabel11042413573D

 30 33  0  0  1  0  0  0  0  0999 V2000
  191.7510  175.7550  145.7720 N   0  0  0  0  0  0  0  0  0  0  0  0
  191.0070  176.8220  146.4430 C   0  0  1  0  0  3  0  0  0  0  0  0
  189.7100  176.3390  146.9800 C   0  0  1  0  0  3  0  0  0  0  0  0
  190.8430  176.4710  147.7980 O   0  0  0  0  0  0  0  0  0  0  0  0
  188.8190  177.4570  147.2530 N   0  0  0  0  0  2  0  0  0  0  0  0
  184.7320  177.6520  146.1670 C   0  0  0  0  0  3  0  0  0  0  0  0
  185.6100  176.8630  145.4160 C   0  0  0  0  0  3  0  0  0  0  0  0
  186.9600  176.7930  145.7690 C   0  0  0  0  0  3  0  0  0  0  0  0
  186.5580  178.2960  147.6220 C   0  0  0  0  0  3  0  0  0  0  0  0
  185.2060  178.3670  147.2700 C   0  0  0  0  0  3  0  0  0  0  0  0
  187.4400  177.5090  146.8740 C   0  0  0  0  0  0  0  0  0  0  0  0
  193.1280  175.9150  146.2460 C   0  0  0  0  0  2  0  0  0  0  0  0
  193.9680  174.7090  145.8560 C   0  0  0  0  0  2  0  0  0  0  0  0
  195.4030  175.1270  145.5920 C   0  0  0  0  0  2  0  0  0  0  0  0
  195.7410  174.9350  144.1220 C   0  0  2  0  0  3  0  0  0  0  0  0
  196.6470  176.4300  143.0690 C   0  0  0  0  0  2  0  0  0  0  0  0
  197.1910  175.2770  143.8790 C   0  0  0  0  0  2  0  0  0  0  0  0
  195.2620  176.0710  143.3420 N   0  0  0  0  0  2  0  0  0  0  0  0
  191.7020  175.9820  144.3130 C   0  0  1  0  0  3  0  0  0  0  0  0
  188.5670  173.8280  142.3300 C   0  0  0  0  0  0  0  0  0  0  0  0
  190.4840  173.8180  143.8030 C   0  0  0  0  0  3  0  0  0  0  0  0
  190.6030  175.2040  143.6330 C   0  0  0  0  0  0  0  0  0  0  0  0
  188.7120  175.2200  142.1870 C   0  0  0  0  0  0  0  0  0  0  0  0
  189.7190  175.8640  142.8370 N   0  0  0  0  0  0  0  0  0  0  0  0
  187.4840  173.0710  141.6380 C   0  0  0  0  0  1  0  0  0  0  0  0
  189.4610  173.1350  143.1460 C   0  0  0  0  0  3  0  0  0  0  0  0
  187.8180  175.9870  141.3580 C   0  0  0  0  0  0  0  0  0  0  0  0
  187.0990  176.6030  140.6920 N   0  0  0  0  0  0  0  0  0  0  0  0
  191.5100  177.4120  144.0100 C   0  0  0  0  0  0  0  0  0  0  0  0
  191.3690  178.5370  143.7780 N   0  0  0  0  0  0  0  0  0  0  0  0
  1 12  1  0  0  0  0
  2  1  1  6  0  0  0
  2  3  1  0  0  0  0
  2  4  1  0  0  0  0
  3  5  1  1  0  0  0
  3  4  1  0  0  0  0
  6 10  1  0  0  0  0
  7  8  1  0  0  0  0
  7  6  2  0  0  0  0
  8 11  2  0  0  0  0
 10  9  2  0  0  0  0
 11  5  1  0  0  0  0
 11  9  1  0  0  0  0
 13 12  1  0  0  0  0
 14 13  1  0  0  0  0
 15 14  1  1  0  0  0
 16 18  1  0  0  0  0
 16 17  1  0  0  0  0
 17 15  1  0  0  0  0
 18 15  1  0  0  0  0
 19 29  1  1  0  0  0
 19  1  1  0  0  0  0
 20 26  1  0  0  0  0
 22 21  1  0  0  0  0
 22 19  1  0  0  0  0
 23 20  2  0  0  0  0
 23 24  1  0  0  0  0
 24 22  2  0  0  0  0
 25 20  1  0  0  0  0
 26 21  2  0  0  0  0
 27 23  1  0  0  0  0
 28 27  3  0  0  0  0
 30 29  3  0  0  0  0
M  END
>  <MODEL>
8

>  <REMARK>
 VINA RESULT:      -5.7      2.166      7.005
  Name = 
  11 active torsions:
  status: ('A' for Active; 'I' for Inactive)
    1  A    between atoms: C_1  and  C_11
    2  A    between atoms: C_1  and  N_20
    3  A    between atoms: C_3  and  C_30
    4  A    between atoms: C_8  and  C_30
    5  A    between atoms: C_10  and  C_14
    6  A    between atoms: C_11  and  C_24
    7  A    between atoms: C_12  and  N_20
    8  A    between atoms: C_17  and  C_24
    9  A    between atoms: C_19  and  N_22
   10  A    between atoms: N_20  and  C_30
   11  A    between atoms: N_22  and  C_26
                            x       y       z     vdW  Elec       q    Type
                         _______ _______ _______ _____ _____    ______ ____

>  <TORSDO>
F 11

$$$$
=
 OpenBabel11042413573D

 30 33  0  0  1  0  0  0  0  0999 V2000
  190.3310  175.6090  144.7200 N   0  0  0  0  0  0  0  0  0  0  0  0
  191.7700  175.5190  144.4640 C   0  0  1  0  0  3  0  0  0  0  0  0
  192.3410  174.2410  144.9600 C   0  0  1  0  0  3  0  0  0  0  0  0
  192.0050  174.4240  143.6090 O   0  0  0  0  0  0  0  0  0  0  0  0
  193.7880  174.3400  145.0860 N   0  0  0  0  0  2  0  0  0  0  0  0
  196.3850  171.1340  146.0300 C   0  0  0  0  0  3  0  0  0  0  0  0
  195.0500  170.8690  145.7060 C   0  0  0  0  0  3  0  0  0  0  0  0
  194.1870  171.9230  145.3910 C   0  0  0  0  0  3  0  0  0  0  0  0
  195.9880  173.5030  145.7240 C   0  0  0  0  0  3  0  0  0  0  0  0
  196.8530  172.4500  146.0380 C   0  0  0  0  0  3  0  0  0  0  0  0
  194.6520  173.2450  145.3990 C   0  0  0  0  0  0  0  0  0  0  0  0
  189.7350  175.7990  143.3960 C   0  0  0  0  0  2  0  0  0  0  0  0
  188.5950  174.8170  143.1800 C   0  0  0  0  0  2  0  0  0  0  0  0
  188.4120  174.5340  141.7010 C   0  0  0  0  0  2  0  0  0  0  0  0
  188.3330  173.0350  141.4610 C   0  0  2  0  0  3  0  0  0  0  0  0
  190.0060  171.8770  141.6180 C   0  0  0  0  0  2  0  0  0  0  0  0
  188.9570  172.2960  142.6200 C   0  0  0  0  0  2  0  0  0  0  0  0
  189.3770  172.6170  140.5320 N   0  0  0  0  0  2  0  0  0  0  0  0
  190.0680  176.7990  145.5550 C   0  0  1  0  0  3  0  0  0  0  0  0
  185.8870  177.4280  146.2840 C   0  0  0  0  0  0  0  0  0  0  0  0
  187.9320  176.2500  146.8070 C   0  0  0  0  0  3  0  0  0  0  0  0
  188.6000  177.0080  145.8350 C   0  0  0  0  0  0  0  0  0  0  0  0
  186.5900  178.1750  145.3200 C   0  0  0  0  0  0  0  0  0  0  0  0
  187.9160  177.9450  145.1250 N   0  0  0  0  0  0  0  0  0  0  0  0
  184.4320  177.6350  146.5380 C   0  0  0  0  0  1  0  0  0  0  0  0
  186.5730  176.4650  147.0260 C   0  0  0  0  0  3  0  0  0  0  0  0
  185.9340  179.1810  144.5260 C   0  0  0  0  0  0  0  0  0  0  0  0
  185.4070  179.9900  143.8870 N   0  0  0  0  0  0  0  0  0  0  0  0
  190.7730  176.7010  146.8460 C   0  0  0  0  0  0  0  0  0  0  0  0
  191.3350  176.6190  147.8550 N   0  0  0  0  0  0  0  0  0  0  0  0
  1 19  1  0  0  0  0
  2  1  1  1  0  0  0
  2  3  1  0  0  0  0
  3  5  1  6  0  0  0
  4  2  1  0  0  0  0
  4  3  1  0  0  0  0
  5 11  1  0  0  0  0
  6 10  1  0  0  0  0
  7  6  2  0  0  0  0
  8 11  2  0  0  0  0
  8  7  1  0  0  0  0
  9 10  2  0  0  0  0
 11  9  1  0  0  0  0
 12  1  1  0  0  0  0
 13 12  1  0  0  0  0
 14 13  1  0  0  0  0
 15 14  1  1  0  0  0
 15 17  1  0  0  0  0
 16 17  1  0  0  0  0
 18 15  1  0  0  0  0
 18 16  1  0  0  0  0
 19 22  1  0  0  0  0
 19 29  1  1  0  0  0
 20 25  1  0  0  0  0
 20 26  1  0  0  0  0
 21 26  2  0  0  0  0
 22 21  1  0  0  0  0
 23 20  2  0  0  0  0
 24 23  1  0  0  0  0
 24 22  2  0  0  0  0
 27 23  1  0  0  0  0
 28 27  3  0  0  0  0
 29 30  3  0  0  0  0
M  END
>  <MODEL>
9

>  <REMARK>
 VINA RESULT:      -5.7      2.377      5.961
  Name = 
  11 active torsions:
  status: ('A' for Active; 'I' for Inactive)
    1  A    between atoms: C_1  and  C_11
    2  A    between atoms: C_1  and  N_20
    3  A    between atoms: C_3  and  C_30
    4  A    between atoms: C_8  and  C_30
    5  A    between atoms: C_10  and  C_14
    6  A    between atoms: C_11  and  C_24
    7  A    between atoms: C_12  and  N_20
    8  A    between atoms: C_17  and  C_24
    9  A    between atoms: C_19  and  N_22
   10  A    between atoms: N_20  and  C_30
   11  A    between atoms: N_22  and  C_26
                            x       y       z     vdW  Elec       q    Type
                         _______ _______ _______ _____ _____    ______ ____

>  <TORSDO>
F 11

$$$$
