=
 OpenBabel11042414233D

 27 28  0  0  0  0  0  0  0  0999 V2000
  189.2470  173.3440  142.0910 C   0  0  0  0  0  2  0  0  0  0  0  0
  190.6080  173.9500  142.4140 C   0  0  0  0  0  2  0  0  0  0  0  0
  191.6020  172.9110  142.6700 N   0  0  0  0  0  2  0  0  0  0  0  0
  192.7430  173.5500  143.3140 C   0  0  0  0  0  2  0  0  0  0  0  0
  193.1740  172.7820  144.5530 C   0  0  0  0  0  2  0  0  0  0  0  0
  193.1180  173.6400  145.7260 N   0  0  0  0  0  2  0  0  0  0  0  0
  193.7080  174.9130  145.3570 C   0  0  0  0  0  2  0  0  0  0  0  0
  194.1660  176.8720  146.5490 C   0  0  0  0  0  1  0  0  0  0  0  0
  193.0960  175.9830  146.1310 N   0  0  0  0  0  0  0  0  0  0  0  0
  192.2680  176.7470  145.2170 C   0  0  0  0  0  2  0  0  0  0  0  0
  190.8020  176.4240  145.4500 C   0  0  0  0  0  2  0  0  0  0  0  0
  190.5130  176.3080  146.9390 C   0  0  0  0  0  2  0  0  0  0  0  0
  189.7260  175.0440  147.2560 C   0  0  0  0  0  2  0  0  0  0  0  0
  189.5470  174.1970  146.0070 C   0  0  0  0  0  1  0  0  0  0  0  0
  188.3650  174.2800  141.2680 C   0  0  0  0  0  2  0  0  0  0  0  0
  188.4390  175.7220  141.7540 C   0  0  0  0  0  2  0  0  0  0  0  0
  185.1480  177.9190  145.0050 C   0  0  0  0  0  0  0  0  0  0  0  0
  184.4040  178.3810  146.0450 N   0  0  0  0  0  0  0  0  0  0  0  0
  187.1200  176.3420  141.7320 N   0  0  0  0  0  0  0  0  0  0  0  0
  184.8730  178.3630  147.3190 C   0  0  0  0  0  3  0  0  0  0  0  0
  186.4350  177.4060  145.2370 C   0  0  0  0  0  0  0  0  0  0  0  0
  186.1490  177.8660  147.5890 C   0  0  0  0  0  3  0  0  0  0  0  0
  186.9310  177.3870  146.5380 C   0  0  0  0  0  3  0  0  0  0  0  0
  187.2940  176.9030  144.1150 C   0  0  0  0  0  2  0  0  0  0  0  0
  185.2400  177.4800  142.6480 C   0  0  0  0  0  3  0  0  0  0  0  0
  184.6070  177.9530  143.6780 N   0  0  0  0  0  0  0  0  0  0  0  0
  186.5750  176.8770  142.7820 C   0  0  0  0  0  0  0  0  0  0  0  0
  1  2  1  0  0  0  0
  2  3  1  0  0  0  0
  3  4  1  0  0  0  0
  4  5  1  0  0  0  0
  5  6  1  0  0  0  0
  7  6  1  0  0  0  0
  7  9  1  0  0  0  0
  9  8  1  0  0  0  0
 10 11  1  0  0  0  0
 10  9  1  0  0  0  0
 11 12  1  0  0  0  0
 12 13  1  0  0  0  0
 14 13  1  0  0  0  0
 15 16  1  0  0  0  0
 15  1  1  0  0  0  0
 17 21  1  0  0  0  0
 17 18  2  0  0  0  0
 18 20  1  0  0  0  0
 19 16  1  0  0  0  0
 19 27  2  0  0  0  0
 20 22  2  0  0  0  0
 21 23  2  0  0  0  0
 23 22  1  0  0  0  0
 24 21  1  0  0  0  0
 25 27  1  0  0  0  0
 25 26  2  0  0  0  0
 26 17  1  0  0  0  0
 27 24  1  0  0  0  0
M  END
>  <MODEL>
1

>  <REMARK>
 VINA RESULT:      -5.2      0.000      0.000
  Name = 
  14 active torsions:
  status: ('A' for Active; 'I' for Inactive)
    1  A    between atoms: C_1  and  C_3
    2  A    between atoms: C_1  and  N_14
    3  A    between atoms: C_3  and  N_13
    4  A    between atoms: C_5  and  C_8
    5  A    between atoms: C_5  and  C_15
    6  A    between atoms: C_6  and  N_14
    7  A    between atoms: C_6  and  C_17
    8  A    between atoms: C_7  and  N_11
    9  A    between atoms: C_7  and  C_20
   10  A    between atoms: C_9  and  N_13
   11  A    between atoms: C_9  and  N_25
   12  A    between atoms: C_15  and  C_21
   13  A    between atoms: C_17  and  C_20
   14  A    between atoms: C_21  and  N_25
                            x       y       z     vdW  Elec       q    Type
                         _______ _______ _______ _____ _____    ______ ____

>  <TORSDO>
F 14

$$$$
=
 OpenBabel11042414233D

 27 28  0  0  0  0  0  0  0  0999 V2000
  185.5320  177.0690  146.4290 C   0  0  0  0  0  2  0  0  0  0  0  0
  184.8220  177.7890  145.2890 C   0  0  0  0  0  2  0  0  0  0  0  0
  185.0070  179.2350  145.3800 N   0  0  0  0  0  2  0  0  0  0  0  0
  185.5400  179.6870  144.1000 C   0  0  0  0  0  2  0  0  0  0  0  0
  185.1180  178.7580  142.9730 C   0  0  0  0  0  2  0  0  0  0  0  0
  186.2050  178.5910  142.0200 N   0  0  0  0  0  2  0  0  0  0  0  0
  186.3730  177.1660  141.8050 C   0  0  0  0  0  2  0  0  0  0  0  0
  188.5520  178.0000  141.9740 C   0  0  0  0  0  1  0  0  0  0  0  0
  187.7660  176.8740  141.5000 N   0  0  0  0  0  0  0  0  0  0  0  0
  188.1500  175.7390  142.3190 C   0  0  0  0  0  2  0  0  0  0  0  0
  189.0430  174.8030  141.5230 C   0  0  0  0  0  2  0  0  0  0  0  0
  189.9400  174.0020  142.4560 C   0  0  0  0  0  2  0  0  0  0  0  0
  189.3330  173.8860  143.8470 C   0  0  0  0  0  2  0  0  0  0  0  0
  190.3620  173.3670  144.8390 C   0  0  0  0  0  1  0  0  0  0  0  0
  186.8980  176.5190  146.0190 C   0  0  0  0  0  2  0  0  0  0  0  0
  187.9830  177.5870  146.0430 C   0  0  0  0  0  2  0  0  0  0  0  0
  192.8640  176.2250  145.3040 C   0  0  0  0  0  0  0  0  0  0  0  0
  194.0900  175.8280  144.8690 N   0  0  0  0  0  0  0  0  0  0  0  0
  189.1300  177.1390  146.8230 N   0  0  0  0  0  0  0  0  0  0  0  0
  194.4240  175.8600  143.5540 C   0  0  0  0  0  3  0  0  0  0  0  0
  191.9080  176.6820  144.3820 C   0  0  0  0  0  0  0  0  0  0  0  0
  193.5020  176.3120  142.6080 C   0  0  0  0  0  3  0  0  0  0  0  0
  192.2390  176.7260  143.0300 C   0  0  0  0  0  3  0  0  0  0  0  0
  190.5510  177.1460  144.8220 C   0  0  0  0  0  2  0  0  0  0  0  0
  191.3890  176.4790  147.1780 C   0  0  0  0  0  3  0  0  0  0  0  0
  192.5560  176.1660  146.7020 N   0  0  0  0  0  0  0  0  0  0  0  0
  190.2990  176.9250  146.2990 C   0  0  0  0  0  0  0  0  0  0  0  0
  2  3  1  0  0  0  0
  2  1  1  0  0  0  0
  4  3  1  0  0  0  0
  5  4  1  0  0  0  0
  6  5  1  0  0  0  0
  7  6  1  0  0  0  0
  9  7  1  0  0  0  0
  9  8  1  0  0  0  0
  9 10  1  0  0  0  0
 11 10  1  0  0  0  0
 11 12  1  0  0  0  0
 12 13  1  0  0  0  0
 13 14  1  0  0  0  0
 15 16  1  0  0  0  0
 15  1  1  0  0  0  0
 16 19  1  0  0  0  0
 17 26  1  0  0  0  0
 18 17  2  0  0  0  0
 20 18  1  0  0  0  0
 21 24  1  0  0  0  0
 21 17  1  0  0  0  0
 22 23  1  0  0  0  0
 22 20  2  0  0  0  0
 23 21  2  0  0  0  0
 24 27  1  0  0  0  0
 26 25  2  0  0  0  0
 27 19  2  0  0  0  0
 27 25  1  0  0  0  0
M  END
>  <MODEL>
2

>  <REMARK>
 VINA RESULT:      -5.1      1.760      7.257
  Name = 
  14 active torsions:
  status: ('A' for Active; 'I' for Inactive)
    1  A    between atoms: C_1  and  C_3
    2  A    between atoms: C_1  and  N_14
    3  A    between atoms: C_3  and  N_13
    4  A    between atoms: C_5  and  C_8
    5  A    between atoms: C_5  and  C_15
    6  A    between atoms: C_6  and  N_14
    7  A    between atoms: C_6  and  C_17
    8  A    between atoms: C_7  and  N_11
    9  A    between atoms: C_7  and  C_20
   10  A    between atoms: C_9  and  N_13
   11  A    between atoms: C_9  and  N_25
   12  A    between atoms: C_15  and  C_21
   13  A    between atoms: C_17  and  C_20
   14  A    between atoms: C_21  and  N_25
                            x       y       z     vdW  Elec       q    Type
                         _______ _______ _______ _____ _____    ______ ____

>  <TORSDO>
F 14

$$$$
=
 OpenBabel11042414233D

 27 28  0  0  0  0  0  0  0  0999 V2000
  191.7700  177.3150  144.5250 C   0  0  0  0  0  2  0  0  0  0  0  0
  193.1690  176.7100  144.5660 C   0  0  0  0  0  2  0  0  0  0  0  0
  193.4920  176.0420  143.3080 N   0  0  0  0  0  2  0  0  0  0  0  0
  193.6270  174.6190  143.5940 C   0  0  0  0  0  2  0  0  0  0  0  0
  193.4520  173.7870  142.3340 C   0  0  0  0  0  2  0  0  0  0  0  0
  192.0680  173.8310  141.8860 N   0  0  0  0  0  2  0  0  0  0  0  0
  191.3990  172.6710  142.4410 C   0  0  0  0  0  2  0  0  0  0  0  0
  189.1040  172.3220  142.7330 C   0  0  0  0  0  1  0  0  0  0  0  0
  190.2380  173.0930  143.2110 N   0  0  0  0  0  0  0  0  0  0  0  0
  190.4640  172.6730  144.5820 C   0  0  0  0  0  2  0  0  0  0  0  0
  190.6730  173.8880  145.4700 C   0  0  0  0  0  2  0  0  0  0  0  0
  189.3340  174.4870  145.8760 C   0  0  0  0  0  2  0  0  0  0  0  0
  189.4330  175.2160  147.2090 C   0  0  0  0  0  2  0  0  0  0  0  0
  190.8870  175.3920  147.6170 C   0  0  0  0  0  1  0  0  0  0  0  0
  191.2510  177.5050  143.1010 C   0  0  0  0  0  2  0  0  0  0  0  0
  190.0400  176.6320  142.8040 C   0  0  0  0  0  2  0  0  0  0  0  0
  185.5320  178.5750  144.2670 C   0  0  0  0  0  0  0  0  0  0  0  0
  184.3460  178.9180  144.8370 N   0  0  0  0  0  0  0  0  0  0  0  0
  188.9530  177.4290  142.2490 N   0  0  0  0  0  0  0  0  0  0  0  0
  184.0450  178.5720  146.1140 C   0  0  0  0  0  3  0  0  0  0  0  0
  186.4790  177.8440  145.0040 C   0  0  0  0  0  0  0  0  0  0  0  0
  184.9610  177.8500  146.8800 C   0  0  0  0  0  3  0  0  0  0  0  0
  186.1840  177.4870  146.3170 C   0  0  0  0  0  3  0  0  0  0  0  0
  187.8050  177.4610  144.4180 C   0  0  0  0  0  2  0  0  0  0  0  0
  186.8900  178.6170  142.2900 C   0  0  0  0  0  3  0  0  0  0  0  0
  185.8020  178.9560  142.9130 N   0  0  0  0  0  0  0  0  0  0  0  0
  187.9290  177.8120  142.9490 C   0  0  0  0  0  0  0  0  0  0  0  0
  1  2  1  0  0  0  0
  3  4  1  0  0  0  0
  3  2  1  0  0  0  0
  5  4  1  0  0  0  0
  6  5  1  0  0  0  0
  6  7  1  0  0  0  0
  7  9  1  0  0  0  0
  8  9  1  0  0  0  0
  9 10  1  0  0  0  0
 10 11  1  0  0  0  0
 11 12  1  0  0  0  0
 12 13  1  0  0  0  0
 13 14  1  0  0  0  0
 15  1  1  0  0  0  0
 16 15  1  0  0  0  0
 17 18  2  0  0  0  0
 17 21  1  0  0  0  0
 18 20  1  0  0  0  0
 19 16  1  0  0  0  0
 19 27  2  0  0  0  0
 20 22  2  0  0  0  0
 21 23  2  0  0  0  0
 23 22  1  0  0  0  0
 24 21  1  0  0  0  0
 25 26  2  0  0  0  0
 25 27  1  0  0  0  0
 26 17  1  0  0  0  0
 27 24  1  0  0  0  0
M  END
>  <MODEL>
3

>  <REMARK>
 VINA RESULT:      -5.1      1.680      3.207
  Name = 
  14 active torsions:
  status: ('A' for Active; 'I' for Inactive)
    1  A    between atoms: C_1  and  C_3
    2  A    between atoms: C_1  and  N_14
    3  A    between atoms: C_3  and  N_13
    4  A    between atoms: C_5  and  C_8
    5  A    between atoms: C_5  and  C_15
    6  A    between atoms: C_6  and  N_14
    7  A    between atoms: C_6  and  C_17
    8  A    between atoms: C_7  and  N_11
    9  A    between atoms: C_7  and  C_20
   10  A    between atoms: C_9  and  N_13
   11  A    between atoms: C_9  and  N_25
   12  A    between atoms: C_15  and  C_21
   13  A    between atoms: C_17  and  C_20
   14  A    between atoms: C_21  and  N_25
                            x       y       z     vdW  Elec       q    Type
                         _______ _______ _______ _____ _____    ______ ____

>  <TORSDO>
F 14

$$$$
=
 OpenBabel11042414233D

 27 28  0  0  0  0  0  0  0  0999 V2000
  192.5710  175.8590  142.6740 C   0  0  0  0  0  2  0  0  0  0  0  0
  194.0880  175.9740  142.7730 C   0  0  0  0  0  2  0  0  0  0  0  0
  194.6150  175.1200  143.8350 N   0  0  0  0  0  2  0  0  0  0  0  0
  195.2190  175.9920  144.8340 C   0  0  0  0  0  2  0  0  0  0  0  0
  194.8020  175.5880  146.2390 C   0  0  0  0  0  2  0  0  0  0  0  0
  193.3680  175.3450  146.2910 N   0  0  0  0  0  2  0  0  0  0  0  0
  192.7380  176.5810  146.7140 C   0  0  0  0  0  2  0  0  0  0  0  0
  190.6470  177.2640  147.5100 C   0  0  0  0  0  1  0  0  0  0  0  0
  191.7120  176.2970  147.7080 N   0  0  0  0  0  0  0  0  0  0  0  0
  191.1500  175.0010  147.3770 C   0  0  0  0  0  2  0  0  0  0  0  0
  189.6430  175.1120  147.2240 C   0  0  0  0  0  2  0  0  0  0  0  0
  189.1850  174.4210  145.9470 C   0  0  0  0  0  2  0  0  0  0  0  0
  190.3310  173.6800  145.2740 C   0  0  0  0  0  2  0  0  0  0  0  0
  189.9400  173.2500  143.8690 C   0  0  0  0  0  1  0  0  0  0  0  0
  191.8590  177.1720  142.9940 C   0  0  0  0  0  2  0  0  0  0  0  0
  190.5070  176.9510  143.6570 C   0  0  0  0  0  2  0  0  0  0  0  0
  185.6600  178.5420  144.1080 C   0  0  0  0  0  0  0  0  0  0  0  0
  184.3770  178.8400  144.4460 N   0  0  0  0  0  0  0  0  0  0  0  0
  189.4290  177.4480  142.8110 N   0  0  0  0  0  0  0  0  0  0  0  0
  183.9390  178.7520  145.7280 C   0  0  0  0  0  3  0  0  0  0  0  0
  186.5670  178.1300  145.0980 C   0  0  0  0  0  0  0  0  0  0  0  0
  184.8130  178.3510  146.7400 C   0  0  0  0  0  3  0  0  0  0  0  0
  186.1330  178.0410  146.4180 C   0  0  0  0  0  3  0  0  0  0  0  0
  187.9950  177.8090  144.7700 C   0  0  0  0  0  2  0  0  0  0  0  0
  187.2660  178.3230  142.3400 C   0  0  0  0  0  3  0  0  0  0  0  0
  186.0730  178.6430  142.7400 N   0  0  0  0  0  0  0  0  0  0  0  0
  188.2830  177.8350  143.2830 C   0  0  0  0  0  0  0  0  0  0  0  0
  1  2  1  0  0  0  0
  1 15  1  0  0  0  0
  2  3  1  0  0  0  0
  3  4  1  0  0  0  0
  4  5  1  0  0  0  0
  5  6  1  0  0  0  0
  6  7  1  0  0  0  0
  7  9  1  0  0  0  0
  8  9  1  0  0  0  0
 10  9  1  0  0  0  0
 11 10  1  0  0  0  0
 12 11  1  0  0  0  0
 13 12  1  0  0  0  0
 14 13  1  0  0  0  0
 15 16  1  0  0  0  0
 17 18  2  0  0  0  0
 17 21  1  0  0  0  0
 18 20  1  0  0  0  0
 19 27  2  0  0  0  0
 19 16  1  0  0  0  0
 20 22  2  0  0  0  0
 21 23  2  0  0  0  0
 23 22  1  0  0  0  0
 24 21  1  0  0  0  0
 25 26  2  0  0  0  0
 25 27  1  0  0  0  0
 26 17  1  0  0  0  0
 27 24  1  0  0  0  0
M  END
>  <MODEL>
4

>  <REMARK>
 VINA RESULT:      -5.0      1.872      2.751
  Name = 
  14 active torsions:
  status: ('A' for Active; 'I' for Inactive)
    1  A    between atoms: C_1  and  C_3
    2  A    between atoms: C_1  and  N_14
    3  A    between atoms: C_3  and  N_13
    4  A    between atoms: C_5  and  C_8
    5  A    between atoms: C_5  and  C_15
    6  A    between atoms: C_6  and  N_14
    7  A    between atoms: C_6  and  C_17
    8  A    between atoms: C_7  and  N_11
    9  A    between atoms: C_7  and  C_20
   10  A    between atoms: C_9  and  N_13
   11  A    between atoms: C_9  and  N_25
   12  A    between atoms: C_15  and  C_21
   13  A    between atoms: C_17  and  C_20
   14  A    between atoms: C_21  and  N_25
                            x       y       z     vdW  Elec       q    Type
                         _______ _______ _______ _____ _____    ______ ____

>  <TORSDO>
F 14

$$$$
=
 OpenBabel11042414233D

 27 28  0  0  0  0  0  0  0  0999 V2000
  190.2280  173.9420  142.8660 C   0  0  0  0  0  2  0  0  0  0  0  0
  191.6730  173.6450  142.4830 C   0  0  0  0  0  2  0  0  0  0  0  0
  192.0210  174.2680  141.2070 N   0  0  0  0  0  2  0  0  0  0  0  0
  193.2260  175.0580  141.4240 C   0  0  0  0  0  2  0  0  0  0  0  0
  194.0120  174.5430  142.6200 C   0  0  0  0  0  2  0  0  0  0  0  0
  194.7690  175.6240  143.2320 N   0  0  0  0  0  2  0  0  0  0  0  0
  193.8700  176.3230  144.1310 C   0  0  0  0  0  2  0  0  0  0  0  0
  194.2260  175.6290  146.3360 C   0  0  0  0  0  1  0  0  0  0  0  0
  193.3980  175.4110  145.1630 N   0  0  0  0  0  0  0  0  0  0  0  0
  192.0600  175.8400  145.5260 C   0  0  0  0  0  2  0  0  0  0  0  0
  191.6650  177.0580  144.7090 C   0  0  0  0  0  2  0  0  0  0  0  0
  190.1540  177.2410  144.7230 C   0  0  0  0  0  2  0  0  0  0  0  0
  189.5160  176.5180  145.9010 C   0  0  0  0  0  2  0  0  0  0  0  0
  188.9760  177.5140  146.9140 C   0  0  0  0  0  1  0  0  0  0  0  0
  189.5910  175.0090  141.9780 C   0  0  0  0  0  2  0  0  0  0  0  0
  188.1170  174.7360  141.7110 C   0  0  0  0  0  2  0  0  0  0  0  0
  185.1190  178.3130  143.8200 C   0  0  0  0  0  0  0  0  0  0  0  0
  184.2790  179.0890  144.5560 N   0  0  0  0  0  0  0  0  0  0  0  0
  187.4260  175.9600  141.3250 N   0  0  0  0  0  0  0  0  0  0  0  0
  184.0150  178.8140  145.8590 C   0  0  0  0  0  3  0  0  0  0  0  0
  185.7350  177.1950  144.4070 C   0  0  0  0  0  0  0  0  0  0  0  0
  184.6110  177.7150  146.4780 C   0  0  0  0  0  3  0  0  0  0  0  0
  185.4760  176.9040  145.7440 C   0  0  0  0  0  3  0  0  0  0  0  0
  186.6800  176.3230  143.6350 C   0  0  0  0  0  2  0  0  0  0  0  0
  186.1080  177.9110  141.6720 C   0  0  0  0  0  3  0  0  0  0  0  0
  185.3610  178.6390  142.4460 N   0  0  0  0  0  0  0  0  0  0  0  0
  186.7650  176.6930  142.1680 C   0  0  0  0  0  0  0  0  0  0  0  0
  2  1  1  0  0  0  0
  3  4  1  0  0  0  0
  3  2  1  0  0  0  0
  4  5  1  0  0  0  0
  5  6  1  0  0  0  0
  6  7  1  0  0  0  0
  7  9  1  0  0  0  0
  9 10  1  0  0  0  0
  9  8  1  0  0  0  0
 11 12  1  0  0  0  0
 11 10  1  0  0  0  0
 12 13  1  0  0  0  0
 13 14  1  0  0  0  0
 15  1  1  0  0  0  0
 16 15  1  0  0  0  0
 17 21  1  0  0  0  0
 17 18  2  0  0  0  0
 18 20  1  0  0  0  0
 19 16  1  0  0  0  0
 19 27  2  0  0  0  0
 20 22  2  0  0  0  0
 21 23  2  0  0  0  0
 23 22  1  0  0  0  0
 24 21  1  0  0  0  0
 25 27  1  0  0  0  0
 25 26  2  0  0  0  0
 26 17  1  0  0  0  0
 27 24  1  0  0  0  0
M  END
>  <MODEL>
5

>  <REMARK>
 VINA RESULT:      -5.0      1.499      1.827
  Name = 
  14 active torsions:
  status: ('A' for Active; 'I' for Inactive)
    1  A    between atoms: C_1  and  C_3
    2  A    between atoms: C_1  and  N_14
    3  A    between atoms: C_3  and  N_13
    4  A    between atoms: C_5  and  C_8
    5  A    between atoms: C_5  and  C_15
    6  A    between atoms: C_6  and  N_14
    7  A    between atoms: C_6  and  C_17
    8  A    between atoms: C_7  and  N_11
    9  A    between atoms: C_7  and  C_20
   10  A    between atoms: C_9  and  N_13
   11  A    between atoms: C_9  and  N_25
   12  A    between atoms: C_15  and  C_21
   13  A    between atoms: C_17  and  C_20
   14  A    between atoms: C_21  and  N_25
                            x       y       z     vdW  Elec       q    Type
                         _______ _______ _______ _____ _____    ______ ____

>  <TORSDO>
F 14

$$$$
=
 OpenBabel11042414233D

 27 28  0  0  0  0  0  0  0  0999 V2000
  185.9950  178.8200  147.0410 C   0  0  0  0  0  2  0  0  0  0  0  0
  184.5450  178.4180  146.8030 C   0  0  0  0  0  2  0  0  0  0  0  0
  184.0530  178.9410  145.5310 N   0  0  0  0  0  2  0  0  0  0  0  0
  184.5890  178.0910  144.4750 C   0  0  0  0  0  2  0  0  0  0  0  0
  184.3230  178.6880  143.1030 C   0  0  0  0  0  2  0  0  0  0  0  0
  184.8410  177.8140  142.0610 N   0  0  0  0  0  2  0  0  0  0  0  0
  186.1510  177.3650  142.4890 C   0  0  0  0  0  2  0  0  0  0  0  0
  186.4770  177.3940  140.1730 C   0  0  0  0  0  1  0  0  0  0  0  0
  186.8220  176.6830  141.3910 N   0  0  0  0  0  0  0  0  0  0  0  0
  188.2480  176.8750  141.5820 C   0  0  0  0  0  2  0  0  0  0  0  0
  188.8840  175.5850  142.0730 C   0  0  0  0  0  2  0  0  0  0  0  0
  188.0990  174.3800  141.5730 C   0  0  0  0  0  2  0  0  0  0  0  0
  188.6920  173.0770  142.0900 C   0  0  0  0  0  2  0  0  0  0  0  0
  189.4770  173.3160  143.3700 C   0  0  0  0  0  1  0  0  0  0  0  0
  186.8530  177.6620  147.5470 C   0  0  0  0  0  2  0  0  0  0  0  0
  187.3770  176.7910  146.4130 C   0  0  0  0  0  2  0  0  0  0  0  0
  192.2310  176.7640  144.7800 C   0  0  0  0  0  0  0  0  0  0  0  0
  193.5630  176.6160  144.5500 N   0  0  0  0  0  0  0  0  0  0  0  0
  188.2440  177.5600  145.5290 N   0  0  0  0  0  0  0  0  0  0  0  0
  194.2780  175.6160  145.1260 C   0  0  0  0  0  3  0  0  0  0  0  0
  191.5630  175.8690  145.6330 C   0  0  0  0  0  0  0  0  0  0  0  0
  193.6490  174.7040  145.9750 C   0  0  0  0  0  3  0  0  0  0  0  0
  192.2840  174.8350  146.2260 C   0  0  0  0  0  3  0  0  0  0  0  0
  190.0920  175.9870  145.8990 C   0  0  0  0  0  2  0  0  0  0  0  0
  190.2610  178.0720  144.3730 C   0  0  0  0  0  3  0  0  0  0  0  0
  191.5200  177.8400  144.1560 N   0  0  0  0  0  0  0  0  0  0  0  0
  189.4750  177.2270  145.2840 C   0  0  0  0  0  0  0  0  0  0  0  0
  1 15  1  0  0  0  0
  2  1  1  0  0  0  0
  3  2  1  0  0  0  0
  4  3  1  0  0  0  0
  5  4  1  0  0  0  0
  6  7  1  0  0  0  0
  6  5  1  0  0  0  0
  8  9  1  0  0  0  0
  9 10  1  0  0  0  0
  9  7  1  0  0  0  0
 10 11  1  0  0  0  0
 12 11  1  0  0  0  0
 12 13  1  0  0  0  0
 13 14  1  0  0  0  0
 16 15  1  0  0  0  0
 17 21  1  0  0  0  0
 18 17  2  0  0  0  0
 18 20  1  0  0  0  0
 19 16  1  0  0  0  0
 20 22  2  0  0  0  0
 21 24  1  0  0  0  0
 21 23  2  0  0  0  0
 22 23  1  0  0  0  0
 25 27  1  0  0  0  0
 26 25  2  0  0  0  0
 26 17  1  0  0  0  0
 27 19  2  0  0  0  0
 27 24  1  0  0  0  0
M  END
>  <MODEL>
6

>  <REMARK>
 VINA RESULT:      -5.0      1.723      7.390
  Name = 
  14 active torsions:
  status: ('A' for Active; 'I' for Inactive)
    1  A    between atoms: C_1  and  C_3
    2  A    between atoms: C_1  and  N_14
    3  A    between atoms: C_3  and  N_13
    4  A    between atoms: C_5  and  C_8
    5  A    between atoms: C_5  and  C_15
    6  A    between atoms: C_6  and  N_14
    7  A    between atoms: C_6  and  C_17
    8  A    between atoms: C_7  and  N_11
    9  A    between atoms: C_7  and  C_20
   10  A    between atoms: C_9  and  N_13
   11  A    between atoms: C_9  and  N_25
   12  A    between atoms: C_15  and  C_21
   13  A    between atoms: C_17  and  C_20
   14  A    between atoms: C_21  and  N_25
                            x       y       z     vdW  Elec       q    Type
                         _______ _______ _______ _____ _____    ______ ____

>  <TORSDO>
F 14

$$$$
=
 OpenBabel11042414233D

 27 28  0  0  0  0  0  0  0  0999 V2000
  190.3250  174.1460  141.2830 C   0  0  0  0  0  2  0  0  0  0  0  0
  191.4140  173.1680  140.8590 C   0  0  0  0  0  2  0  0  0  0  0  0
  192.6920  173.4950  141.4860 N   0  0  0  0  0  2  0  0  0  0  0  0
  193.3240  174.5260  140.6720 C   0  0  0  0  0  2  0  0  0  0  0  0
  193.8450  175.6640  141.5360 C   0  0  0  0  0  2  0  0  0  0  0  0
  193.3640  175.5240  142.9020 N   0  0  0  0  0  2  0  0  0  0  0  0
  192.4030  176.5860  143.1310 C   0  0  0  0  0  2  0  0  0  0  0  0
  191.8670  174.9740  144.7390 C   0  0  0  0  0  1  0  0  0  0  0  0
  191.3400  176.1100  144.0030 N   0  0  0  0  0  0  0  0  0  0  0  0
  191.0990  177.1520  144.9840 C   0  0  0  0  0  2  0  0  0  0  0  0
  189.6160  177.4770  145.0430 C   0  0  0  0  0  2  0  0  0  0  0  0
  189.0710  177.2230  146.4420 C   0  0  0  0  0  2  0  0  0  0  0  0
  188.4270  175.8480  146.5460 C   0  0  0  0  0  2  0  0  0  0  0  0
  189.3130  174.8990  147.3370 C   0  0  0  0  0  1  0  0  0  0  0  0
  189.2430  173.4890  142.1390 C   0  0  0  0  0  2  0  0  0  0  0  0
  187.8420  173.9380  141.7470 C   0  0  0  0  0  2  0  0  0  0  0  0
  186.1560  178.5250  143.2790 C   0  0  0  0  0  0  0  0  0  0  0  0
  185.5520  179.6110  143.8310 N   0  0  0  0  0  0  0  0  0  0  0  0
  187.8520  175.3220  141.2910 N   0  0  0  0  0  0  0  0  0  0  0  0
  184.8610  179.5250  144.9960 C   0  0  0  0  0  3  0  0  0  0  0  0
  186.0720  177.2760  143.9170 C   0  0  0  0  0  0  0  0  0  0  0  0
  184.7600  178.3030  145.6630 C   0  0  0  0  0  3  0  0  0  0  0  0
  185.3720  177.1750  145.1160 C   0  0  0  0  0  3  0  0  0  0  0  0
  186.7390  176.0580  143.3510 C   0  0  0  0  0  2  0  0  0  0  0  0
  187.4220  177.6590  141.4340 C   0  0  0  0  0  3  0  0  0  0  0  0
  186.8680  178.6630  142.0430 N   0  0  0  0  0  0  0  0  0  0  0  0
  187.3560  176.2980  141.9880 C   0  0  0  0  0  0  0  0  0  0  0  0
  1 15  1  0  0  0  0
  2  1  1  0  0  0  0
  2  3  1  0  0  0  0
  4  3  1  0  0  0  0
  4  5  1  0  0  0  0
  5  6  1  0  0  0  0
  6  7  1  0  0  0  0
  7  9  1  0  0  0  0
  9  8  1  0  0  0  0
  9 10  1  0  0  0  0
 10 11  1  0  0  0  0
 11 12  1  0  0  0  0
 12 13  1  0  0  0  0
 13 14  1  0  0  0  0
 16 15  1  0  0  0  0
 17 18  2  0  0  0  0
 17 21  1  0  0  0  0
 18 20  1  0  0  0  0
 19 16  1  0  0  0  0
 19 27  2  0  0  0  0
 20 22  2  0  0  0  0
 21 23  2  0  0  0  0
 23 22  1  0  0  0  0
 24 21  1  0  0  0  0
 25 27  1  0  0  0  0
 25 26  2  0  0  0  0
 26 17  1  0  0  0  0
 27 24  1  0  0  0  0
M  END
>  <MODEL>
7

>  <REMARK>
 VINA RESULT:      -4.9      1.865      2.316
  Name = 
  14 active torsions:
  status: ('A' for Active; 'I' for Inactive)
    1  A    between atoms: C_1  and  C_3
    2  A    between atoms: C_1  and  N_14
    3  A    between atoms: C_3  and  N_13
    4  A    between atoms: C_5  and  C_8
    5  A    between atoms: C_5  and  C_15
    6  A    between atoms: C_6  and  N_14
    7  A    between atoms: C_6  and  C_17
    8  A    between atoms: C_7  and  N_11
    9  A    between atoms: C_7  and  C_20
   10  A    between atoms: C_9  and  N_13
   11  A    between atoms: C_9  and  N_25
   12  A    between atoms: C_15  and  C_21
   13  A    between atoms: C_17  and  C_20
   14  A    between atoms: C_21  and  N_25
                            x       y       z     vdW  Elec       q    Type
                         _______ _______ _______ _____ _____    ______ ____

>  <TORSDO>
F 14

$$$$
=
 OpenBabel11042414233D

 27 28  0  0  0  0  0  0  0  0999 V2000
  189.5120  177.1460  145.9940 C   0  0  0  0  0  2  0  0  0  0  0  0
  189.3780  176.9250  144.4920 C   0  0  0  0  0  2  0  0  0  0  0  0
  188.2380  176.0650  144.1840 N   0  0  0  0  0  2  0  0  0  0  0  0
  188.5650  175.3310  142.9680 C   0  0  0  0  0  2  0  0  0  0  0  0
  188.2480  176.1540  141.7290 C   0  0  0  0  0  2  0  0  0  0  0  0
  186.8670  176.6080  141.7620 N   0  0  0  0  0  2  0  0  0  0  0  0
  186.8520  177.9740  141.2750 C   0  0  0  0  0  2  0  0  0  0  0  0
  184.5640  178.2420  140.8660 C   0  0  0  0  0  1  0  0  0  0  0  0
  185.6500  178.6500  141.7400 N   0  0  0  0  0  0  0  0  0  0  0  0
  185.3400  178.1090  143.0510 C   0  0  0  0  0  2  0  0  0  0  0  0
  185.3370  179.2210  144.0850 C   0  0  0  0  0  2  0  0  0  0  0  0
  186.1980  178.8390  145.2810 C   0  0  0  0  0  2  0  0  0  0  0  0
  185.4980  177.8170  146.1660 C   0  0  0  0  0  2  0  0  0  0  0  0
  184.0940  178.2840  146.5170 C   0  0  0  0  0  1  0  0  0  0  0  0
  189.2250  175.8820  146.8030 C   0  0  0  0  0  2  0  0  0  0  0  0
  190.4760  175.3220  147.4660 C   0  0  0  0  0  2  0  0  0  0  0  0
  195.2420  174.9520  145.6270 C   0  0  0  0  0  0  0  0  0  0  0  0
  196.4840  174.6100  145.1920 N   0  0  0  0  0  0  0  0  0  0  0  0
  191.6260  176.1810  147.2080 N   0  0  0  0  0  0  0  0  0  0  0  0
  196.7970  173.3290  144.8700 C   0  0  0  0  0  3  0  0  0  0  0  0
  194.2470  173.9680  145.7540 C   0  0  0  0  0  0  0  0  0  0  0  0
  195.8340  172.3240  144.9770 C   0  0  0  0  0  3  0  0  0  0  0  0
  194.5530  172.6510  145.4210 C   0  0  0  0  0  3  0  0  0  0  0  0
  192.8610  174.3070  146.2140 C   0  0  0  0  0  2  0  0  0  0  0  0
  193.8150  176.7030  146.4350 C   0  0  0  0  0  3  0  0  0  0  0  0
  194.9610  176.3170  145.9630 N   0  0  0  0  0  0  0  0  0  0  0  0
  192.7170  175.7500  146.6520 C   0  0  0  0  0  0  0  0  0  0  0  0
  1 15  1  0  0  0  0
  2  1  1  0  0  0  0
  3  2  1  0  0  0  0
  4  3  1  0  0  0  0
  5  6  1  0  0  0  0
  5  4  1  0  0  0  0
  7  9  1  0  0  0  0
  7  6  1  0  0  0  0
  8  9  1  0  0  0  0
  9 10  1  0  0  0  0
 10 11  1  0  0  0  0
 11 12  1  0  0  0  0
 12 13  1  0  0  0  0
 13 14  1  0  0  0  0
 15 16  1  0  0  0  0
 17 21  1  0  0  0  0
 17 26  1  0  0  0  0
 18 17  2  0  0  0  0
 19 16  1  0  0  0  0
 20 22  2  0  0  0  0
 20 18  1  0  0  0  0
 21 24  1  0  0  0  0
 22 23  1  0  0  0  0
 23 21  2  0  0  0  0
 24 27  1  0  0  0  0
 25 27  1  0  0  0  0
 26 25  2  0  0  0  0
 27 19  2  0  0  0  0
M  END
>  <MODEL>
8

>  <REMARK>
 VINA RESULT:      -4.9      2.109      8.222
  Name = 
  14 active torsions:
  status: ('A' for Active; 'I' for Inactive)
    1  A    between atoms: C_1  and  C_3
    2  A    between atoms: C_1  and  N_14
    3  A    between atoms: C_3  and  N_13
    4  A    between atoms: C_5  and  C_8
    5  A    between atoms: C_5  and  C_15
    6  A    between atoms: C_6  and  N_14
    7  A    between atoms: C_6  and  C_17
    8  A    between atoms: C_7  and  N_11
    9  A    between atoms: C_7  and  C_20
   10  A    between atoms: C_9  and  N_13
   11  A    between atoms: C_9  and  N_25
   12  A    between atoms: C_15  and  C_21
   13  A    between atoms: C_17  and  C_20
   14  A    between atoms: C_21  and  N_25
                            x       y       z     vdW  Elec       q    Type
                         _______ _______ _______ _____ _____    ______ ____

>  <TORSDO>
F 14

$$$$
=
 OpenBabel11042414233D

 27 28  0  0  0  0  0  0  0  0999 V2000
  191.8180  175.2330  146.5380 C   0  0  0  0  0  2  0  0  0  0  0  0
  192.8400  176.3390  146.7690 C   0  0  0  0  0  2  0  0  0  0  0  0
  194.1970  175.8700  146.5000 N   0  0  0  0  0  2  0  0  0  0  0  0
  194.7610  176.7360  145.4720 C   0  0  0  0  0  2  0  0  0  0  0  0
  195.6420  175.9490  144.5140 C   0  0  0  0  0  2  0  0  0  0  0  0
  195.3330  176.2990  143.1370 N   0  0  0  0  0  2  0  0  0  0  0  0
  194.7500  175.1260  142.5150 C   0  0  0  0  0  2  0  0  0  0  0  0
  193.5730  174.5910  140.5650 C   0  0  0  0  0  1  0  0  0  0  0  0
  193.6220  175.5180  141.6820 N   0  0  0  0  0  0  0  0  0  0  0  0
  192.4200  175.2810  142.4590 C   0  0  0  0  0  2  0  0  0  0  0  0
  191.9280  176.5830  143.0670 C   0  0  0  0  0  2  0  0  0  0  0  0
  190.4250  176.5290  143.2970 C   0  0  0  0  0  2  0  0  0  0  0  0
  189.8060  177.9200  143.2590 C   0  0  0  0  0  2  0  0  0  0  0  0
  188.9440  178.0900  142.0180 C   0  0  0  0  0  1  0  0  0  0  0  0
  190.5770  175.3850  147.4160 C   0  0  0  0  0  2  0  0  0  0  0  0
  189.2870  175.3440  146.6070 C   0  0  0  0  0  2  0  0  0  0  0  0
  185.0610  177.9680  145.3880 C   0  0  0  0  0  0  0  0  0  0  0  0
  184.0390  178.6730  144.8340 N   0  0  0  0  0  0  0  0  0  0  0  0
  188.2380  176.1090  147.2690 N   0  0  0  0  0  0  0  0  0  0  0  0
  183.8370  178.6980  143.4920 C   0  0  0  0  0  3  0  0  0  0  0  0
  185.9390  177.2420  144.5650 C   0  0  0  0  0  0  0  0  0  0  0  0
  184.6840  177.9850  142.6420 C   0  0  0  0  0  3  0  0  0  0  0  0
  185.7390  177.2540  143.1870 C   0  0  0  0  0  3  0  0  0  0  0  0
  187.0670  176.4370  145.1370 C   0  0  0  0  0  2  0  0  0  0  0  0
  186.2240  177.3710  147.3990 C   0  0  0  0  0  3  0  0  0  0  0  0
  185.2390  177.9780  146.8090 N   0  0  0  0  0  0  0  0  0  0  0  0
  187.2290  176.6200  146.6320 C   0  0  0  0  0  0  0  0  0  0  0  0
  1  2  1  0  0  0  0
  1 15  1  0  0  0  0
  3  2  1  0  0  0  0
  4  3  1  0  0  0  0
  5  4  1  0  0  0  0
  6  5  1  0  0  0  0
  7  6  1  0  0  0  0
  8  9  1  0  0  0  0
  9 10  1  0  0  0  0
  9  7  1  0  0  0  0
 10 11  1  0  0  0  0
 11 12  1  0  0  0  0
 13 12  1  0  0  0  0
 14 13  1  0  0  0  0
 16 19  1  0  0  0  0
 16 15  1  0  0  0  0
 17 26  1  0  0  0  0
 18 17  2  0  0  0  0
 20 18  1  0  0  0  0
 21 24  1  0  0  0  0
 21 17  1  0  0  0  0
 22 23  1  0  0  0  0
 22 20  2  0  0  0  0
 23 21  2  0  0  0  0
 24 27  1  0  0  0  0
 26 25  2  0  0  0  0
 27 19  2  0  0  0  0
 27 25  1  0  0  0  0
M  END
>  <MODEL>
9

>  <REMARK>
 VINA RESULT:      -4.8      2.144      4.339
  Name = 
  14 active torsions:
  status: ('A' for Active; 'I' for Inactive)
    1  A    between atoms: C_1  and  C_3
    2  A    between atoms: C_1  and  N_14
    3  A    between atoms: C_3  and  N_13
    4  A    between atoms: C_5  and  C_8
    5  A    between atoms: C_5  and  C_15
    6  A    between atoms: C_6  and  N_14
    7  A    between atoms: C_6  and  C_17
    8  A    between atoms: C_7  and  N_11
    9  A    between atoms: C_7  and  C_20
   10  A    between atoms: C_9  and  N_13
   11  A    between atoms: C_9  and  N_25
   12  A    between atoms: C_15  and  C_21
   13  A    between atoms: C_17  and  C_20
   14  A    between atoms: C_21  and  N_25
                            x       y       z     vdW  Elec       q    Type
                         _______ _______ _______ _____ _____    ______ ____

>  <TORSDO>
F 14

$$$$
