=
 OpenBabel11042416213D

 66 72  0  0  1  0  0  0  0  0999 V2000
  186.0180  178.8550  144.9710 N   0  0  0  0  0  2  0  0  0  0  0  0
  186.2230  177.9680  143.8790 C   0  0  0  0  0  0  0  0  0  0  0  0
  188.3810  176.8380  143.1430 C   0  0  0  0  0  0  0  0  0  0  0  0
  185.7310  177.3640  141.5140 C   0  0  0  0  0  3  0  0  0  0  0  0
  186.8510  176.7650  141.0850 C   0  0  0  0  0  0  0  0  0  0  0  0
  187.7500  177.4980  145.5010 C   0  0  0  0  0  0  0  0  0  0  0  0
  188.1260  176.7080  141.8340 C   0  0  0  0  0  3  0  0  0  0  0  0
  185.5090  178.0840  142.7700 C   0  0  0  0  0  3  0  0  0  0  0  0
  187.2840  176.9400  144.1800 C   0  0  1  0  0  3  0  0  0  0  0  0
  188.7180  177.0650  146.1860 O   0  0  0  0  0  0  0  0  0  0  0  0
  186.9750  178.5660  145.9090 O   0  0  0  0  0  0  0  0  0  0  0  0
  190.6560  177.4920  143.9840 C   0  0  0  0  0  2  0  0  0  0  0  0
  192.7430  174.7940  142.3720 C   0  0  0  0  0  0  0  0  0  0  0  0
  194.7220  176.0450  141.2170 C   0  0  0  0  0  3  0  0  0  0  0  0
  193.7230  175.4300  141.7850 C   0  0  0  0  0  0  0  0  0  0  0  0
  192.0210  176.9920  143.5460 C   0  0  1  0  0  3  0  0  0  0  0  0
  189.6990  176.4730  143.5680 N   0  0  0  0  0  0  0  0  0  0  0  0
  189.8390  174.0830  143.4520 N   0  0  0  0  0  2  0  0  0  0  0  0
  193.0540  177.2720  144.6250 C   0  0  0  0  0  1  0  0  0  0  0  0
  191.5960  172.6360  143.0380 C   0  0  1  0  0  3  0  0  0  0  0  0
  192.6620  173.3020  142.1660 C   0  0  0  0  0  2  0  0  0  0  0  0
  190.2650  173.0450  142.6000 N   0  0  0  0  0  2  0  0  0  0  0  0
  190.3730  175.3440  142.9500 C   0  0  2  0  0  3  0  0  0  0  0  0
  191.8250  175.4900  143.3560 C   0  0  1  0  0  3  0  0  0  0  0  0
  197.2580  175.9820  140.2630 O   0  0  0  0  0  0  0  0  0  0  0  0
  196.3660  175.3360  141.3020 P   0  0  1  0  0  0  0  0  0  0  0  0
  197.0070  175.6170  142.8440 O   0  0  0  0  0  1  0  0  0  0  0  0
  196.2780  173.5450  141.0090 C   0  0  0  0  0  2  0  0  0  0  0  0
  197.3810  172.8310  141.7680 C   0  0  0  0  0  2  0  0  0  0  0  0
  197.9340  170.5730  142.4190 O   0  0  0  0  0  1  0  0  0  0  0  0
  196.8950  171.5170  142.3960 C   0  0  1  0  0  0  0  0  0  0  0  0
  196.4220  171.7960  143.8200 C   0  0  0  0  0  2  0  0  0  0  0  0
  195.2910  172.6270  143.8260 O   0  0  0  0  0  0  0  0  0  0  0  0
  195.8630  173.6830  145.8690 O   0  0  0  0  0  0  0  0  0  0  0  0
  194.4450  171.8180  145.9360 O   0  0  0  0  0  1  0  0  0  0  0  0
  194.9650  172.8590  145.1710 C   0  0  2  0  0  0  0  0  0  0  0  0
  194.5980  174.2350  145.5520 C   0  0  0  0  0  2  0  0  0  0  0  0
  195.7180  170.9680  141.5750 C   0  0  0  0  0  2  0  0  0  0  0  0
  196.1230  169.8320  140.6900 C   0  0  0  0  0  0  0  0  0  0  0  0
  196.7170  170.0940  139.4240 N   0  0  0  0  0  1  0  0  0  0  0  0
  195.8420  168.6490  141.0170 O   0  0  0  0  0  0  0  0  0  0  0  0
  191.7980  169.9700  142.9380 C   0  0  0  0  0  3  0  0  0  0  0  0
  191.7190  171.1770  142.9750 C   0  0  0  0  0  0  0  0  0  0  0  0
  186.2990  176.9560  138.5970 C   0  0  0  0  0  3  0  0  0  0  0  0
  188.9250  175.0770  135.9680 O   0  0  0  0  0  0  0  0  0  0  0  0
  187.5630  175.2860  137.8450 N   0  0  0  0  0  0  0  0  0  0  0  0
  188.3760  174.5160  136.9570 C   0  0  0  0  0  0  0  0  0  0  0  0
  187.6630  175.2800  139.1830 C   0  0  0  0  0  3  0  0  0  0  0  0
  186.8840  176.3100  139.6750 C   0  0  0  0  0  0  0  0  0  0  0  0
  188.5680  173.1140  137.1850 N   0  0  0  0  0  2  0  0  0  0  0  0
  186.7570  176.2950  137.4720 C   0  0  0  0  0  3  0  0  0  0  0  0
  190.9860  172.7560  137.0190 C   0  0  0  0  0  3  0  0  0  0  0  0
  191.8620  170.9780  135.6270 C   0  0  0  0  0  3  0  0  0  0  0  0
  189.4790  171.3580  135.7330 C   0  0  0  0  0  3  0  0  0  0  0  0
  189.6840  172.4100  136.6380 C   0  0  0  0  0  0  0  0  0  0  0  0
  190.5650  170.6440  135.2270 C   0  0  0  0  0  3  0  0  0  0  0  0
  192.0780  172.0350  136.5260 C   0  0  0  0  0  0  0  0  0  0  0  0
  193.7170  173.9870  135.3300 O   0  0  0  0  0  0  0  0  0  0  0  0
  194.2150  173.2930  136.2610 C   0  0  0  0  0  0  0  0  0  0  0  0
  193.4080  172.3380  136.9750 N   0  0  0  0  0  0  0  0  0  0  0  0
  193.6710  171.8760  139.2310 O   0  0  0  0  0  1  0  0  0  0  0  0
  193.9730  171.6210  138.0500 N   0  0  0  0  0  2  0  0  0  0  0  0
  195.6470  173.5100  136.6380 C   0  0  0  0  0  2  0  0  0  0  0  0
  195.8990  174.9740  136.9930 C   0  0  0  0  0  2  0  0  0  0  0  0
  197.4690  176.3260  135.8010 O   0  0  0  0  0  1  0  0  0  0  0  0
  197.3580  175.3420  136.7840 C   0  0  0  0  0  2  0  0  0  0  0  0
  1 11  1  0  0  0  0
  2  9  1  0  0  0  0
  2  1  1  0  0  0  0
  3 17  1  0  0  0  0
  4  8  1  0  0  0  0
  5  4  2  0  0  0  0
  5  7  1  0  0  0  0
  6 11  1  0  0  0  0
  6 10  2  0  0  0  0
  7  3  2  0  0  0  0
  8  2  2  0  0  0  0
  9  3  1  6  0  0  0
  9  6  1  0  0  0  0
 14 26  1  0  0  0  0
 14 15  2  0  0  0  0
 15 13  2  0  0  0  0
 16 12  1  0  0  0  0
 16 19  1  1  0  0  0
 17 12  1  0  0  0  0
 20 43  1  6  0  0  0
 21 13  1  0  0  0  0
 21 20  1  0  0  0  0
 22 20  1  0  0  0  0
 22 18  1  0  0  0  0
 23 24  1  0  0  0  0
 23 18  1  1  0  0  0
 23 17  1  0  0  0  0
 24 13  1  6  0  0  0
 24 16  1  0  0  0  0
 26 25  2  6  0  0  0
 26 27  1  0  0  0  0
 28 26  1  0  0  0  0
 28 29  1  0  0  0  0
 29 31  1  0  0  0  0
 31 30  1  1  0  0  0
 31 32  1  0  0  0  0
 32 33  1  0  0  0  0
 33 36  1  0  0  0  0
 36 37  1  0  0  0  0
 36 34  1  0  0  0  0
 36 35  1  1  0  0  0
 37 34  1  0  0  0  0
 38 31  1  0  0  0  0
 39 41  2  0  0  0  0
 39 38  1  0  0  0  0
 40 39  1  0  0  0  0
 42 43  3  0  0  0  0
 44 49  1  0  0  0  0
 45 47  2  0  0  0  0
 46 48  1  0  0  0  0
 47 50  1  0  0  0  0
 47 46  1  0  0  0  0
 48 49  2  0  0  0  0
 49  5  1  0  0  0  0
 51 46  1  0  0  0  0
 51 44  2  0  0  0  0
 53 57  1  0  0  0  0
 54 55  2  0  0  0  0
 55 52  1  0  0  0  0
 55 50  1  0  0  0  0
 56 53  2  0  0  0  0
 56 54  1  0  0  0  0
 57 60  1  0  0  0  0
 57 52  2  0  0  0  0
 58 59  2  0  0  0  0
 59 63  1  0  0  0  0
 59 60  1  0  0  0  0
 60 62  1  0  0  0  0
 62 61  1  0  0  0  0
 63 64  1  0  0  0  0
 65 66  1  0  0  0  0
 66 64  1  0  0  0  0
M  END
>  <MODEL>
1

>  <REMARK>
 VINA RESULT:      -5.6      0.000      0.000
  Name = 
  18 active torsions:
  status: ('A' for Active; 'I' for Inactive)
    1  A    between atoms: C_5  and  P_37
    2  A    between atoms: C_9  and  N_26
    3  A    between atoms: O_10  and  C_19
    4  A    between atoms: O_10  and  C_38
    5  A    between atoms: C_13  and  C_58
    6  A    between atoms: C_25  and  C_30
    7  A    between atoms: C_25  and  C_53
    8  A    between atoms: C_30  and  P_37
    9  A    between atoms: C_32  and  C_35
   10  A    between atoms: C_36  and  N_59
   11  A    between atoms: C_38  and  C_53
   12  A    between atoms: C_42  and  C_49
   13  A    between atoms: C_42  and  C_57
   14  A    between atoms: C_43  and  C_44
   15  A    between atoms: C_43  and  C_53
   16  A    between atoms: C_45  and  C_57
   17  A    between atoms: N_50  and  N_62
   18  A    between atoms: N_50  and  C_64
                            x       y       z     vdW  Elec       q    Type
                         _______ _______ _______ _____ _____    ______ ____

>  <TORSDO>
F 18

$$$$
=
 OpenBabel11042416213D

 66 72  0  0  1  0  0  0  0  0999 V2000
  186.0800  178.7040  145.3180 N   0  0  0  0  0  2  0  0  0  0  0  0
  186.2580  177.7890  144.2440 C   0  0  0  0  0  0  0  0  0  0  0  0
  188.2630  176.3040  143.7490 C   0  0  0  0  0  0  0  0  0  0  0  0
  185.9520  177.2640  141.8300 C   0  0  0  0  0  3  0  0  0  0  0  0
  186.9960  176.4800  141.5260 C   0  0  0  0  0  0  0  0  0  0  0  0
  187.4820  177.0740  146.0270 C   0  0  0  0  0  0  0  0  0  0  0  0
  188.1460  176.2110  142.4180 C   0  0  0  0  0  3  0  0  0  0  0  0
  185.7100  178.0190  143.0620 C   0  0  0  0  0  3  0  0  0  0  0  0
  187.0860  176.5960  144.6530 C   0  0  1  0  0  3  0  0  0  0  0  0
  188.2750  176.4860  146.8140 O   0  0  0  0  0  0  0  0  0  0  0  0
  186.8570  178.2610  146.3570 O   0  0  0  0  0  0  0  0  0  0  0  0
  190.3070  176.5010  145.1970 C   0  0  0  0  0  2  0  0  0  0  0  0
  192.6290  174.1600  143.3630 C   0  0  0  0  0  0  0  0  0  0  0  0
  194.8510  175.4930  143.0490 C   0  0  0  0  0  3  0  0  0  0  0  0
  193.7340  174.8410  143.1980 C   0  0  0  0  0  0  0  0  0  0  0  0
  191.7220  176.0160  144.9320 C   0  0  1  0  0  3  0  0  0  0  0  0
  189.4410  175.7210  144.3200 N   0  0  0  0  0  0  0  0  0  0  0  0
  189.5380  173.4480  143.5670 N   0  0  0  0  0  2  0  0  0  0  0  0
  192.4920  175.9030  146.2370 C   0  0  0  0  0  1  0  0  0  0  0  0
  191.3020  172.0140  143.1380 C   0  0  1  0  0  3  0  0  0  0  0  0
  192.5560  172.7920  142.7320 C   0  0  0  0  0  2  0  0  0  0  0  0
  190.1160  172.6430  142.5660 N   0  0  0  0  0  2  0  0  0  0  0  0
  190.2060  174.7440  143.5640 C   0  0  2  0  0  3  0  0  0  0  0  0
  191.5330  174.6450  144.2890 C   0  0  1  0  0  3  0  0  0  0  0  0
  197.4860  175.3120  142.4380 O   0  0  0  0  0  0  0  0  0  0  0  0
  196.4140  174.6430  143.2720 P   0  0  1  0  0  0  0  0  0  0  0  0
  196.8490  174.7150  144.9060 O   0  0  0  0  0  1  0  0  0  0  0  0
  196.2430  172.9040  142.7750 C   0  0  0  0  0  2  0  0  0  0  0  0
  196.0950  172.0180  143.9970 C   0  0  0  0  0  2  0  0  0  0  0  0
  197.0400  169.8700  143.4280 O   0  0  0  0  0  1  0  0  0  0  0  0
  195.8280  170.5530  143.6220 C   0  0  1  0  0  0  0  0  0  0  0  0
  195.0390  169.8910  144.7480 C   0  0  0  0  0  2  0  0  0  0  0  0
  195.4600  170.3550  146.0030 O   0  0  0  0  0  0  0  0  0  0  0  0
  196.3810  168.1790  146.2030 O   0  0  0  0  0  0  0  0  0  0  0  0
  194.6310  168.7860  147.6390 O   0  0  0  0  0  1  0  0  0  0  0  0
  195.6600  169.2220  146.8090 C   0  0  2  0  0  0  0  0  0  0  0  0
  197.0440  168.9160  147.2160 C   0  0  0  0  0  2  0  0  0  0  0  0
  194.9980  170.5050  142.3300 C   0  0  0  0  0  2  0  0  0  0  0  0
  195.3800  169.3570  141.4510 C   0  0  0  0  0  0  0  0  0  0  0  0
  196.2070  169.5770  140.3150 N   0  0  0  0  0  1  0  0  0  0  0  0
  194.8850  168.2160  141.6540 O   0  0  0  0  0  0  0  0  0  0  0  0
  191.5010  169.4740  142.3220 C   0  0  0  0  0  3  0  0  0  0  0  0
  191.3960  170.6210  142.6930 C   0  0  0  0  0  0  0  0  0  0  0  0
  186.6470  176.6870  139.0020 C   0  0  0  0  0  3  0  0  0  0  0  0
  189.3780  174.6770  136.5860 O   0  0  0  0  0  0  0  0  0  0  0  0
  187.8860  174.9560  138.3510 N   0  0  0  0  0  0  0  0  0  0  0  0
  188.7290  174.1470  137.5290 C   0  0  0  0  0  0  0  0  0  0  0  0
  187.8830  174.9520  139.6930 C   0  0  0  0  0  3  0  0  0  0  0  0
  187.1170  176.0190  140.1240 C   0  0  0  0  0  0  0  0  0  0  0  0
  188.8380  172.7380  137.7730 N   0  0  0  0  0  2  0  0  0  0  0  0
  187.1590  176.0010  137.9170 C   0  0  0  0  0  3  0  0  0  0  0  0
  191.2570  172.4730  137.4920 C   0  0  0  0  0  3  0  0  0  0  0  0
  192.1550  170.4610  136.4870 C   0  0  0  0  0  3  0  0  0  0  0  0
  189.7640  170.7340  136.7010 C   0  0  0  0  0  3  0  0  0  0  0  0
  189.9590  171.9810  137.3140 C   0  0  0  0  0  0  0  0  0  0  0  0
  190.8600  169.9770  136.2870 C   0  0  0  0  0  3  0  0  0  0  0  0
  192.3600  171.7110  137.0920 C   0  0  0  0  0  0  0  0  0  0  0  0
  193.4820  171.8950  139.6670 O   0  0  0  0  0  0  0  0  0  0  0  0
  194.1690  172.3220  138.6960 C   0  0  0  0  0  0  0  0  0  0  0  0
  193.6940  172.1800  137.3440 N   0  0  0  0  0  0  0  0  0  0  0  0
  194.2400  173.6400  135.6290 O   0  0  0  0  0  1  0  0  0  0  0  0
  194.5070  172.6090  136.2760 N   0  0  0  0  0  2  0  0  0  0  0  0
  195.5030  172.9400  138.9710 C   0  0  0  0  0  2  0  0  0  0  0  0
  195.3430  174.3650  139.4980 C   0  0  0  0  0  2  0  0  0  0  0  0
  197.7040  174.5640  139.1840 O   0  0  0  0  0  1  0  0  0  0  0  0
  196.4950  175.2460  139.0460 C   0  0  0  0  0  2  0  0  0  0  0  0
  1 11  1  0  0  0  0
  2  9  1  0  0  0  0
  2  1  1  0  0  0  0
  3 17  1  0  0  0  0
  4  8  1  0  0  0  0
  5  4  2  0  0  0  0
  5  7  1  0  0  0  0
  6 11  1  0  0  0  0
  6 10  2  0  0  0  0
  7  3  2  0  0  0  0
  8  2  2  0  0  0  0
  9  3  1  6  0  0  0
  9  6  1  0  0  0  0
 14 15  2  0  0  0  0
 14 26  1  0  0  0  0
 15 13  2  0  0  0  0
 16 12  1  0  0  0  0
 16 19  1  1  0  0  0
 17 12  1  0  0  0  0
 20 43  1  6  0  0  0
 21 20  1  0  0  0  0
 21 13  1  0  0  0  0
 22 20  1  0  0  0  0
 22 18  1  0  0  0  0
 23 18  1  1  0  0  0
 23 24  1  0  0  0  0
 23 17  1  0  0  0  0
 24 13  1  6  0  0  0
 24 16  1  0  0  0  0
 26 25  2  6  0  0  0
 26 27  1  0  0  0  0
 28 26  1  0  0  0  0
 28 29  1  0  0  0  0
 31 30  1  6  0  0  0
 31 29  1  0  0  0  0
 31 32  1  0  0  0  0
 32 33  1  0  0  0  0
 33 36  1  0  0  0  0
 34 36  1  0  0  0  0
 34 37  1  0  0  0  0
 36 37  1  0  0  0  0
 36 35  1  1  0  0  0
 38 31  1  0  0  0  0
 39 41  2  0  0  0  0
 39 38  1  0  0  0  0
 40 39  1  0  0  0  0
 42 43  3  0  0  0  0
 44 49  1  0  0  0  0
 45 47  2  0  0  0  0
 46 48  1  0  0  0  0
 47 50  1  0  0  0  0
 47 46  1  0  0  0  0
 48 49  2  0  0  0  0
 49  5  1  0  0  0  0
 51 46  1  0  0  0  0
 51 44  2  0  0  0  0
 53 57  1  0  0  0  0
 54 55  2  0  0  0  0
 55 52  1  0  0  0  0
 55 50  1  0  0  0  0
 56 53  2  0  0  0  0
 56 54  1  0  0  0  0
 57 60  1  0  0  0  0
 57 52  2  0  0  0  0
 59 63  1  0  0  0  0
 59 58  2  0  0  0  0
 60 59  1  0  0  0  0
 61 62  1  0  0  0  0
 62 60  1  0  0  0  0
 63 64  1  0  0  0  0
 66 65  1  0  0  0  0
 66 64  1  0  0  0  0
M  END
>  <MODEL>
2

>  <REMARK>
 VINA RESULT:      -5.6      1.549      2.031
  Name = 
  18 active torsions:
  status: ('A' for Active; 'I' for Inactive)
    1  A    between atoms: C_5  and  P_37
    2  A    between atoms: C_9  and  N_26
    3  A    between atoms: O_10  and  C_19
    4  A    between atoms: O_10  and  C_38
    5  A    between atoms: C_13  and  C_58
    6  A    between atoms: C_25  and  C_30
    7  A    between atoms: C_25  and  C_53
    8  A    between atoms: C_30  and  P_37
    9  A    between atoms: C_32  and  C_35
   10  A    between atoms: C_36  and  N_59
   11  A    between atoms: C_38  and  C_53
   12  A    between atoms: C_42  and  C_49
   13  A    between atoms: C_42  and  C_57
   14  A    between atoms: C_43  and  C_44
   15  A    between atoms: C_43  and  C_53
   16  A    between atoms: C_45  and  C_57
   17  A    between atoms: N_50  and  N_62
   18  A    between atoms: N_50  and  C_64
                            x       y       z     vdW  Elec       q    Type
                         _______ _______ _______ _____ _____    ______ ____

>  <TORSDO>
F 18

$$$$
=
 OpenBabel11042416213D

 66 72  0  0  1  0  0  0  0  0999 V2000
  185.9270  178.9540  144.9810 N   0  0  0  0  0  2  0  0  0  0  0  0
  186.1310  178.0510  143.9030 C   0  0  0  0  0  0  0  0  0  0  0  0
  188.2700  176.8480  143.2320 C   0  0  0  0  0  0  0  0  0  0  0  0
  185.6800  177.4410  141.5320 C   0  0  0  0  0  3  0  0  0  0  0  0
  186.7920  176.8030  141.1360 C   0  0  0  0  0  0  0  0  0  0  0  0
  187.6020  177.5490  145.5680 C   0  0  0  0  0  0  0  0  0  0  0  0
  188.0450  176.7140  141.9180 C   0  0  0  0  0  3  0  0  0  0  0  0
  185.4500  178.1790  142.7750 C   0  0  0  0  0  3  0  0  0  0  0  0
  187.1520  176.9930  144.2400 C   0  0  1  0  0  3  0  0  0  0  0  0
  188.5380  177.0920  146.2800 O   0  0  0  0  0  0  0  0  0  0  0  0
  186.8500  178.6440  145.9460 O   0  0  0  0  0  0  0  0  0  0  0  0
  190.5100  177.4300  144.2090 C   0  0  0  0  0  2  0  0  0  0  0  0
  192.6470  174.8060  142.5400 C   0  0  0  0  0  0  0  0  0  0  0  0
  194.6850  176.1000  141.5470 C   0  0  0  0  0  3  0  0  0  0  0  0
  193.6580  175.4650  142.0340 C   0  0  0  0  0  0  0  0  0  0  0  0
  191.8900  176.9410  143.8040 C   0  0  1  0  0  3  0  0  0  0  0  0
  189.5650  176.4460  143.6930 N   0  0  0  0  0  0  0  0  0  0  0  0
  189.6920  174.0650  143.4480 N   0  0  0  0  0  2  0  0  0  0  0  0
  192.8750  177.1500  144.9420 C   0  0  0  0  0  1  0  0  0  0  0  0
  191.4540  172.6260  143.0310 C   0  0  1  0  0  3  0  0  0  0  0  0
  192.5640  173.3300  142.2460 C   0  0  0  0  0  2  0  0  0  0  0  0
  190.1480  173.0730  142.5580 N   0  0  0  0  0  2  0  0  0  0  0  0
  190.2580  175.3470  143.0430 C   0  0  2  0  0  3  0  0  0  0  0  0
  191.6910  175.4550  143.5200 C   0  0  1  0  0  3  0  0  0  0  0  0
  197.2310  175.9860  140.6250 O   0  0  0  0  0  0  0  0  0  0  0  0
  196.3180  175.3710  141.6650 P   0  0  1  0  0  0  0  0  0  0  0  0
  196.9450  175.6720  143.2080 O   0  0  0  0  0  1  0  0  0  0  0  0
  196.2090  173.5760  141.4040 C   0  0  0  0  0  2  0  0  0  0  0  0
  197.3630  172.8720  142.0910 C   0  0  0  0  0  2  0  0  0  0  0  0
  195.5750  172.3200  143.6170 O   0  0  0  0  0  1  0  0  0  0  0  0
  196.8930  171.9920  143.2570 C   0  0  1  0  0  0  0  0  0  0  0  0
  196.9580  170.5280  142.8290 C   0  0  0  0  0  2  0  0  0  0  0  0
  197.7690  170.3670  141.6950 O   0  0  0  0  0  0  0  0  0  0  0  0
  195.7940  169.2030  141.0930 O   0  0  0  0  0  0  0  0  0  0  0  0
  197.8610  168.1680  140.7050 O   0  0  0  0  0  1  0  0  0  0  0  0
  197.1780  169.3650  140.9110 C   0  0  2  0  0  0  0  0  0  0  0  0
  196.2180  169.7900  139.8760 C   0  0  0  0  0  2  0  0  0  0  0  0
  197.8240  172.2050  144.4610 C   0  0  0  0  0  2  0  0  0  0  0  0
  197.0760  172.2640  145.7550 C   0  0  0  0  0  0  0  0  0  0  0  0
  196.8320  173.5180  146.3780 N   0  0  0  0  0  1  0  0  0  0  0  0
  196.7570  171.1980  146.3460 O   0  0  0  0  0  0  0  0  0  0  0  0
  191.6850  169.9750  142.7560 C   0  0  0  0  0  3  0  0  0  0  0  0
  191.5690  171.1720  142.8900 C   0  0  0  0  0  0  0  0  0  0  0  0
  186.2580  176.9580  138.6410 C   0  0  0  0  0  3  0  0  0  0  0  0
  188.9430  175.1020  136.0560 O   0  0  0  0  0  0  0  0  0  0  0  0
  187.5610  175.3040  137.9180 N   0  0  0  0  0  0  0  0  0  0  0  0
  188.3960  174.5420  137.0460 C   0  0  0  0  0  0  0  0  0  0  0  0
  187.6490  175.3140  139.2570 C   0  0  0  0  0  3  0  0  0  0  0  0
  186.8460  176.3350  139.7320 C   0  0  0  0  0  0  0  0  0  0  0  0
  188.6130  173.1460  137.2900 N   0  0  0  0  0  2  0  0  0  0  0  0
  186.7380  176.2950  137.5280 C   0  0  0  0  0  3  0  0  0  0  0  0
  191.0330  172.9790  136.9460 C   0  0  0  0  0  3  0  0  0  0  0  0
  191.9710  171.0680  135.7920 C   0  0  0  0  0  3  0  0  0  0  0  0
  189.5780  171.2490  136.0690 C   0  0  0  0  0  3  0  0  0  0  0  0
  189.7470  172.4580  136.7600 C   0  0  0  0  0  0  0  0  0  0  0  0
  190.6880  170.5560  135.5850 C   0  0  0  0  0  3  0  0  0  0  0  0
  192.1500  172.2820  136.4740 C   0  0  0  0  0  0  0  0  0  0  0  0
  193.7690  173.4890  134.5130 O   0  0  0  0  0  0  0  0  0  0  0  0
  194.2710  173.3070  135.6580 C   0  0  0  0  0  0  0  0  0  0  0  0
  193.4730  172.7760  136.7320 N   0  0  0  0  0  0  0  0  0  0  0  0
  193.4880  173.1150  139.0250 O   0  0  0  0  0  1  0  0  0  0  0  0
  194.0420  172.6410  138.0150 N   0  0  0  0  0  2  0  0  0  0  0  0
  195.6980  173.6930  135.8900 C   0  0  0  0  0  2  0  0  0  0  0  0
  196.6380  172.8240  135.0570 C   0  0  0  0  0  2  0  0  0  0  0  0
  197.6120  170.6480  134.8860 O   0  0  0  0  0  1  0  0  0  0  0  0
  196.6360  171.3880  135.5540 C   0  0  0  0  0  2  0  0  0  0  0  0
  1 11  1  0  0  0  0
  2  9  1  0  0  0  0
  2  1  1  0  0  0  0
  3 17  1  0  0  0  0
  4  8  1  0  0  0  0
  5  4  2  0  0  0  0
  5  7  1  0  0  0  0
  6 11  1  0  0  0  0
  6 10  2  0  0  0  0
  7  3  2  0  0  0  0
  8  2  2  0  0  0  0
  9  3  1  6  0  0  0
  9  6  1  0  0  0  0
 14 26  1  0  0  0  0
 14 15  2  0  0  0  0
 15 13  2  0  0  0  0
 16 12  1  0  0  0  0
 16 19  1  1  0  0  0
 17 12  1  0  0  0  0
 20 43  1  6  0  0  0
 21 13  1  0  0  0  0
 21 20  1  0  0  0  0
 22 20  1  0  0  0  0
 22 18  1  0  0  0  0
 23 18  1  1  0  0  0
 23 24  1  0  0  0  0
 23 17  1  0  0  0  0
 24 13  1  6  0  0  0
 24 16  1  0  0  0  0
 26 25  2  6  0  0  0
 26 27  1  0  0  0  0
 28 26  1  0  0  0  0
 28 29  1  0  0  0  0
 29 31  1  0  0  0  0
 31 30  1  1  0  0  0
 31 38  1  0  0  0  0
 32 31  1  0  0  0  0
 33 32  1  0  0  0  0
 36 35  1  6  0  0  0
 36 34  1  0  0  0  0
 36 33  1  0  0  0  0
 37 36  1  0  0  0  0
 37 34  1  0  0  0  0
 38 39  1  0  0  0  0
 39 41  2  0  0  0  0
 39 40  1  0  0  0  0
 42 43  3  0  0  0  0
 44 49  1  0  0  0  0
 45 47  2  0  0  0  0
 46 48  1  0  0  0  0
 47 50  1  0  0  0  0
 47 46  1  0  0  0  0
 48 49  2  0  0  0  0
 49  5  1  0  0  0  0
 51 46  1  0  0  0  0
 51 44  2  0  0  0  0
 53 57  1  0  0  0  0
 54 55  2  0  0  0  0
 55 52  1  0  0  0  0
 55 50  1  0  0  0  0
 56 53  2  0  0  0  0
 56 54  1  0  0  0  0
 57 60  1  0  0  0  0
 57 52  2  0  0  0  0
 58 59  2  0  0  0  0
 59 63  1  0  0  0  0
 59 60  1  0  0  0  0
 60 62  1  0  0  0  0
 62 61  1  0  0  0  0
 64 66  1  0  0  0  0
 64 63  1  0  0  0  0
 65 66  1  0  0  0  0
M  END
>  <MODEL>
3

>  <REMARK>
 VINA RESULT:      -5.1      1.370      2.535
  Name = 
  18 active torsions:
  status: ('A' for Active; 'I' for Inactive)
    1  A    between atoms: C_5  and  P_37
    2  A    between atoms: C_9  and  N_26
    3  A    between atoms: O_10  and  C_19
    4  A    between atoms: O_10  and  C_38
    5  A    between atoms: C_13  and  C_58
    6  A    between atoms: C_25  and  C_30
    7  A    between atoms: C_25  and  C_53
    8  A    between atoms: C_30  and  P_37
    9  A    between atoms: C_32  and  C_35
   10  A    between atoms: C_36  and  N_59
   11  A    between atoms: C_38  and  C_53
   12  A    between atoms: C_42  and  C_49
   13  A    between atoms: C_42  and  C_57
   14  A    between atoms: C_43  and  C_44
   15  A    between atoms: C_43  and  C_53
   16  A    between atoms: C_45  and  C_57
   17  A    between atoms: N_50  and  N_62
   18  A    between atoms: N_50  and  C_64
                            x       y       z     vdW  Elec       q    Type
                         _______ _______ _______ _____ _____    ______ ____

>  <TORSDO>
F 18

$$$$
=
 OpenBabel11042416213D

 66 72  0  0  1  0  0  0  0  0999 V2000
  197.3380  168.2320  145.0650 N   0  0  0  0  0  2  0  0  0  0  0  0
  197.3040  169.1820  144.0090 C   0  0  0  0  0  0  0  0  0  0  0  0
  195.4880  170.8790  143.4660 C   0  0  0  0  0  0  0  0  0  0  0  0
  197.7700  169.7200  141.6230 C   0  0  0  0  0  3  0  0  0  0  0  0
  196.8270  170.6150  141.2950 C   0  0  0  0  0  0  0  0  0  0  0  0
  196.0830  169.9850  145.7550 C   0  0  0  0  0  0  0  0  0  0  0  0
  195.6730  170.9860  142.1440 C   0  0  0  0  0  3  0  0  0  0  0  0
  197.8770  168.9190  142.8450 C   0  0  0  0  0  3  0  0  0  0  0  0
  196.5870  170.4460  144.4110 C   0  0  1  0  0  3  0  0  0  0  0  0
  195.3210  170.6370  146.5220 O   0  0  0  0  0  0  0  0  0  0  0  0
  196.5660  168.7330  146.0820 O   0  0  0  0  0  0  0  0  0  0  0  0
  193.0270  170.9650  143.9630 C   0  0  0  0  0  2  0  0  0  0  0  0
  192.4180  174.6690  143.5890 C   0  0  0  0  0  0  0  0  0  0  0  0
  190.3420  174.8760  142.0210 C   0  0  0  0  0  3  0  0  0  0  0  0
  191.3860  174.7640  142.7920 C   0  0  0  0  0  0  0  0  0  0  0  0
  192.0470  172.1080  143.7650 C   0  0  1  0  0  3  0  0  0  0  0  0
  194.3530  171.5710  144.0010 N   0  0  0  0  0  0  0  0  0  0  0  0
  195.1460  173.6580  144.8710 N   0  0  0  0  0  2  0  0  0  0  0  0
  190.8170  171.9010  144.6330 C   0  0  0  0  0  1  0  0  0  0  0  0
  194.1620  175.7420  145.0810 C   0  0  1  0  0  3  0  0  0  0  0  0
  193.0890  175.9520  144.0110 C   0  0  0  0  0  2  0  0  0  0  0  0
  195.2940  175.0130  144.5170 N   0  0  0  0  0  2  0  0  0  0  0  0
  194.2700  173.0170  143.8970 C   0  0  2  0  0  3  0  0  0  0  0  0
  192.8240  173.3460  144.2050 C   0  0  1  0  0  3  0  0  0  0  0  0
  189.7040  177.4980  142.2830 O   0  0  0  0  0  1  0  0  0  0  0  0
  189.0980  176.1140  142.3850 P   0  0  1  0  0  0  0  0  0  0  0  0
  187.8360  175.9710  141.2660 O   0  0  0  0  0  0  0  0  0  0  0  0
  188.4430  175.8530  144.0600 C   0  0  0  0  0  2  0  0  0  0  0  0
  189.2470  176.6480  145.0710 C   0  0  0  0  0  2  0  0  0  0  0  0
  188.8780  177.7600  147.1820 O   0  0  0  0  0  1  0  0  0  0  0  0
  188.6480  176.5640  146.4820 C   0  0  1  0  0  0  0  0  0  0  0  0
  187.1470  176.3170  146.3670 C   0  0  0  0  0  2  0  0  0  0  0  0
  186.4340  177.0740  147.3100 O   0  0  0  0  0  0  0  0  0  0  0  0
  184.4870  178.4030  147.0650 O   0  0  0  0  0  0  0  0  0  0  0  0
  185.9030  178.1490  145.2150 O   0  0  0  0  0  1  0  0  0  0  0  0
  185.7760  178.0910  146.6010 C   0  0  2  0  0  0  0  0  0  0  0  0
  185.5090  179.3530  147.3150 C   0  0  0  0  0  2  0  0  0  0  0  0
  189.2930  175.3930  147.2370 C   0  0  0  0  0  2  0  0  0  0  0  0
  190.7670  175.5760  147.4210 C   0  0  0  0  0  0  0  0  0  0  0  0
  191.2670  176.7750  147.9990 N   0  0  0  0  0  1  0  0  0  0  0  0
  191.5690  174.7170  146.9670 O   0  0  0  0  0  0  0  0  0  0  0  0
  194.9650  178.1050  146.0450 C   0  0  0  0  0  3  0  0  0  0  0  0
  194.6110  177.0290  145.6190 C   0  0  0  0  0  0  0  0  0  0  0  0
  197.8790  171.0630  139.0080 C   0  0  0  0  0  3  0  0  0  0  0  0
  195.2570  171.3090  135.7820 O   0  0  0  0  0  0  0  0  0  0  0  0
  196.0530  171.7370  137.9280 N   0  0  0  0  0  0  0  0  0  0  0  0
  195.1440  171.9720  136.8510 C   0  0  0  0  0  0  0  0  0  0  0  0
  195.6980  171.5350  139.2060 C   0  0  0  0  0  3  0  0  0  0  0  0
  196.8180  171.1150  139.9000 C   0  0  0  0  0  0  0  0  0  0  0  0
  194.1100  172.9550  136.9790 N   0  0  0  0  0  2  0  0  0  0  0  0
  197.3580  171.4460  137.7860 C   0  0  0  0  0  3  0  0  0  0  0  0
  192.0650  174.0160  136.1460 C   0  0  0  0  0  3  0  0  0  0  0  0
  190.6810  172.8820  134.5140 C   0  0  0  0  0  3  0  0  0  0  0  0
  192.6610  171.7980  135.3720 C   0  0  0  0  0  3  0  0  0  0  0  0
  192.9350  172.9210  136.1660 C   0  0  0  0  0  0  0  0  0  0  0  0
  191.5350  171.7780  134.5490 C   0  0  0  0  0  3  0  0  0  0  0  0
  190.9420  174.0080  135.3110 C   0  0  0  0  0  0  0  0  0  0  0  0
  188.3290  174.0890  136.3560 O   0  0  0  0  0  0  0  0  0  0  0  0
  188.7370  175.1000  135.7170 C   0  0  0  0  0  0  0  0  0  0  0  0
  190.0910  175.1610  135.2310 N   0  0  0  0  0  0  0  0  0  0  0  0
  191.4340  177.0430  135.0590 O   0  0  0  0  0  1  0  0  0  0  0  0
  190.5380  176.3260  134.5750 N   0  0  0  0  0  2  0  0  0  0  0  0
  187.8020  176.2490  135.5100 C   0  0  0  0  0  2  0  0  0  0  0  0
  186.5910  176.1370  136.4330 C   0  0  0  0  0  2  0  0  0  0  0  0
  185.7880  176.6980  138.6130 O   0  0  0  0  0  1  0  0  0  0  0  0
  186.9470  176.5450  137.8520 C   0  0  0  0  0  2  0  0  0  0  0  0
  1 11  1  0  0  0  0
  2  9  1  0  0  0  0
  2  1  1  0  0  0  0
  3 17  1  0  0  0  0
  4  8  1  0  0  0  0
  5  4  2  0  0  0  0
  5  7  1  0  0  0  0
  6 11  1  0  0  0  0
  6 10  2  0  0  0  0
  7  3  2  0  0  0  0
  8  2  2  0  0  0  0
  9  3  1  6  0  0  0
  9  6  1  0  0  0  0
 12 17  1  0  0  0  0
 13 21  1  0  0  0  0
 14 26  1  0  0  0  0
 14 15  2  0  0  0  0
 15 13  2  0  0  0  0
 16 12  1  0  0  0  0
 16 24  1  0  0  0  0
 16 19  1  1  0  0  0
 20 43  1  6  0  0  0
 21 20  1  0  0  0  0
 22 18  1  0  0  0  0
 22 20  1  0  0  0  0
 23 17  1  0  0  0  0
 23 24  1  0  0  0  0
 23 18  1  1  0  0  0
 24 13  1  6  0  0  0
 25 26  1  0  0  0  0
 26 27  2  6  0  0  0
 26 28  1  0  0  0  0
 28 29  1  0  0  0  0
 29 31  1  0  0  0  0
 31 30  1  1  0  0  0
 31 38  1  0  0  0  0
 32 31  1  0  0  0  0
 32 33  1  0  0  0  0
 34 37  1  0  0  0  0
 36 35  1  6  0  0  0
 36 34  1  0  0  0  0
 36 33  1  0  0  0  0
 36 37  1  0  0  0  0
 38 39  1  0  0  0  0
 39 40  1  0  0  0  0
 41 39  2  0  0  0  0
 43 42  3  0  0  0  0
 44 49  1  0  0  0  0
 45 47  2  0  0  0  0
 46 48  1  0  0  0  0
 47 50  1  0  0  0  0
 47 46  1  0  0  0  0
 48 49  2  0  0  0  0
 49  5  1  0  0  0  0
 51 46  1  0  0  0  0
 51 44  2  0  0  0  0
 52 55  1  0  0  0  0
 53 56  2  0  0  0  0
 53 57  1  0  0  0  0
 54 55  2  0  0  0  0
 55 50  1  0  0  0  0
 56 54  1  0  0  0  0
 57 52  2  0  0  0  0
 59 58  2  0  0  0  0
 60 57  1  0  0  0  0
 60 59  1  0  0  0  0
 62 61  1  0  0  0  0
 62 60  1  0  0  0  0
 63 59  1  0  0  0  0
 63 64  1  0  0  0  0
 64 66  1  0  0  0  0
 66 65  1  0  0  0  0
M  END
>  <MODEL>
4

>  <REMARK>
 VINA RESULT:      -4.8      3.008      8.980
  Name = 
  18 active torsions:
  status: ('A' for Active; 'I' for Inactive)
    1  A    between atoms: C_5  and  P_37
    2  A    between atoms: C_9  and  N_26
    3  A    between atoms: O_10  and  C_19
    4  A    between atoms: O_10  and  C_38
    5  A    between atoms: C_13  and  C_58
    6  A    between atoms: C_25  and  C_30
    7  A    between atoms: C_25  and  C_53
    8  A    between atoms: C_30  and  P_37
    9  A    between atoms: C_32  and  C_35
   10  A    between atoms: C_36  and  N_59
   11  A    between atoms: C_38  and  C_53
   12  A    between atoms: C_42  and  C_49
   13  A    between atoms: C_42  and  C_57
   14  A    between atoms: C_43  and  C_44
   15  A    between atoms: C_43  and  C_53
   16  A    between atoms: C_45  and  C_57
   17  A    between atoms: N_50  and  N_62
   18  A    between atoms: N_50  and  C_64
                            x       y       z     vdW  Elec       q    Type
                         _______ _______ _______ _____ _____    ______ ____

>  <TORSDO>
F 18

$$$$
=
 OpenBabel11042416213D

 66 72  0  0  1  0  0  0  0  0999 V2000
  196.4140  177.7750  144.5560 N   0  0  0  0  0  0  0  0  0  0  0  0
  195.2980  176.9740  144.9180 C   0  0  0  0  0  0  0  0  0  0  0  0
  194.0150  175.3100  143.4840 C   0  0  0  0  0  0  0  0  0  0  0  0
  193.1360  176.7730  146.1360 C   0  0  0  0  0  3  0  0  0  0  0  0
  192.4240  175.9010  145.4070 C   0  0  0  0  0  0  0  0  0  0  0  0
  196.4630  175.9080  143.2770 C   0  0  0  0  0  0  0  0  0  0  0  0
  192.8150  175.3860  144.0760 C   0  0  0  0  0  3  0  0  0  0  0  0
  194.4130  177.4060  145.8030 C   0  0  0  0  0  2  0  0  0  0  0  0
  195.3020  175.6460  144.2030 C   0  0  1  0  0  3  0  0  0  0  0  0
  196.8680  175.1370  142.3630 O   0  0  0  0  0  0  0  0  0  0  0  0
  197.0690  177.1200  143.5450 O   0  0  0  0  0  0  0  0  0  0  0  0
  193.4560  174.9830  141.0560 C   0  0  0  0  0  2  0  0  0  0  0  0
  193.1150  171.2270  140.9690 C   0  0  0  0  0  0  0  0  0  0  0  0
  190.8480  170.7640  139.7610 C   0  0  0  0  0  3  0  0  0  0  0  0
  191.9710  171.0050  140.3750 C   0  0  0  0  0  0  0  0  0  0  0  0
  192.9490  173.7400  140.3470 C   0  0  1  0  0  3  0  0  0  0  0  0
  194.0790  174.5190  142.2910 N   0  0  0  0  0  0  0  0  0  0  0  0
  195.3370  172.5480  142.8190 N   0  0  0  0  0  2  0  0  0  0  0  0
  193.2160  173.8410  138.8540 C   0  0  0  0  0  1  0  0  0  0  0  0
  195.2620  170.3810  142.0140 C   0  0  1  0  0  3  0  0  0  0  0  0
  193.8610  170.0320  141.5070 C   0  0  0  0  0  2  0  0  0  0  0  0
  195.1670  171.2070  143.2130 N   0  0  0  0  0  2  0  0  0  0  0  0
  194.0470  173.0690  142.3790 C   0  0  2  0  0  3  0  0  0  0  0  0
  193.7530  172.6010  140.9690 C   0  0  1  0  0  3  0  0  0  0  0  0
  190.2320  168.1690  139.2760 O   0  0  0  0  0  1  0  0  0  0  0  0
  190.7480  169.4140  138.5860 P   0  0  1  0  0  0  0  0  0  0  0  0
  189.6860  169.8460  137.3410 O   0  0  0  0  0  0  0  0  0  0  0  0
  192.3920  169.0900  137.8830 C   0  0  0  0  0  2  0  0  0  0  0  0
  192.3150  169.0240  136.3690 C   0  0  0  0  0  2  0  0  0  0  0  0
  193.7640  169.9350  134.6660 O   0  0  0  0  0  1  0  0  0  0  0  0
  192.8850  170.2850  135.7050 C   0  0  1  0  0  0  0  0  0  0  0  0
  191.7310  171.1120  135.1450 C   0  0  0  0  0  2  0  0  0  0  0  0
  191.8320  172.4550  135.5380 O   0  0  0  0  0  0  0  0  0  0  0  0
  190.1730  173.3840  136.9540 O   0  0  0  0  0  0  0  0  0  0  0  0
  189.4860  172.2950  134.9960 O   0  0  0  0  0  1  0  0  0  0  0  0
  190.5210  172.9410  135.6670 C   0  0  2  0  0  0  0  0  0  0  0  0
  190.3550  174.3760  135.9600 C   0  0  0  0  0  2  0  0  0  0  0  0
  193.6350  171.1170  136.7560 C   0  0  0  0  0  2  0  0  0  0  0  0
  194.9860  171.5490  136.2810 C   0  0  0  0  0  0  0  0  0  0  0  0
  196.1200  170.7260  136.5210 N   0  0  0  0  0  1  0  0  0  0  0  0
  195.1360  172.6880  135.7650 O   0  0  0  0  0  0  0  0  0  0  0  0
  196.6620  168.1680  142.5610 C   0  0  0  0  0  3  0  0  0  0  0  0
  196.0220  169.1610  142.3020 C   0  0  0  0  0  0  0  0  0  0  0  0
  190.7110  174.8050  146.9550 C   0  0  0  0  0  3  0  0  0  0  0  0
  187.0010  176.6760  147.2320 O   0  0  0  0  0  0  0  0  0  0  0  0
  188.8750  175.7880  146.1720 N   0  0  0  0  0  0  0  0  0  0  0  0
  187.5580  176.3420  146.1490 C   0  0  0  0  0  0  0  0  0  0  0  0
  189.8940  176.1910  145.3980 C   0  0  0  0  0  3  0  0  0  0  0  0
  191.0490  175.5920  145.8640 C   0  0  0  0  0  0  0  0  0  0  0  0
  186.8690  176.5180  144.9040 N   0  0  0  0  0  2  0  0  0  0  0  0
  189.3490  174.9640  147.1230 C   0  0  0  0  0  3  0  0  0  0  0  0
  185.1670  177.6160  143.5260 C   0  0  0  0  0  3  0  0  0  0  0  0
  183.6370  179.2090  144.5180 C   0  0  0  0  0  3  0  0  0  0  0  0
  185.3490  178.1810  145.8770 C   0  0  0  0  0  3  0  0  0  0  0  0
  185.7930  177.4480  144.7660 C   0  0  0  0  0  0  0  0  0  0  0  0
  184.2740  179.0610  145.7520 C   0  0  0  0  0  3  0  0  0  0  0  0
  184.0790  178.4860  143.3990 C   0  0  0  0  0  0  0  0  0  0  0  0
  181.2850  178.7460  143.1850 O   0  0  0  0  0  0  0  0  0  0  0  0
  181.9480  178.6490  142.1150 C   0  0  0  0  0  0  0  0  0  0  0  0
  183.3870  178.6010  142.1460 N   0  0  0  0  0  0  0  0  0  0  0  0
  184.0260  177.5750  140.1690 O   0  0  0  0  0  1  0  0  0  0  0  0
  184.1040  178.5550  140.9340 N   0  0  0  0  0  2  0  0  0  0  0  0
  181.2160  178.6270  140.8100 C   0  0  0  0  0  2  0  0  0  0  0  0
  180.3100  179.8490  140.6750 C   0  0  0  0  0  2  0  0  0  0  0  0
  178.8800  178.1840  139.7280 O   0  0  0  0  0  1  0  0  0  0  0  0
  179.1310  179.5550  139.7630 C   0  0  0  0  0  2  0  0  0  0  0  0
  1  2  2  0  0  0  0
  2  8  1  0  0  0  0
  3  7  2  0  0  0  0
  3  9  1  0  0  0  0
  5 49  1  0  0  0  0
  5  4  2  0  0  0  0
  6 11  1  0  0  0  0
  7  5  1  0  0  0  0
  8  4  1  0  0  0  0
  9  6  1  6  0  0  0
  9  2  1  0  0  0  0
 10  6  2  0  0  0  0
 11  1  1  0  0  0  0
 12 17  1  0  0  0  0
 13 21  1  0  0  0  0
 14 15  2  0  0  0  0
 15 13  2  0  0  0  0
 16 19  1  6  0  0  0
 16 24  1  0  0  0  0
 16 12  1  0  0  0  0
 17 23  1  0  0  0  0
 17  3  1  0  0  0  0
 18 22  1  0  0  0  0
 20 43  1  1  0  0  0
 20 22  1  0  0  0  0
 21 20  1  0  0  0  0
 23 18  1  6  0  0  0
 24 13  1  1  0  0  0
 24 23  1  0  0  0  0
 26 27  2  6  0  0  0
 26 25  1  0  0  0  0
 26 14  1  0  0  0  0
 28 26  1  0  0  0  0
 29 28  1  0  0  0  0
 31 30  1  6  0  0  0
 31 29  1  0  0  0  0
 31 38  1  0  0  0  0
 32 33  1  0  0  0  0
 32 31  1  0  0  0  0
 33 36  1  0  0  0  0
 36 35  1  6  0  0  0
 36 37  1  0  0  0  0
 36 34  1  0  0  0  0
 37 34  1  0  0  0  0
 39 40  1  0  0  0  0
 39 38  1  0  0  0  0
 41 39  2  0  0  0  0
 43 42  3  0  0  0  0
 44 51  2  0  0  0  0
 46 51  1  0  0  0  0
 47 46  1  0  0  0  0
 47 45  2  0  0  0  0
 48 49  2  0  0  0  0
 48 46  1  0  0  0  0
 49 44  1  0  0  0  0
 50 47  1  0  0  0  0
 52 55  1  0  0  0  0
 53 56  2  0  0  0  0
 55 50  1  0  0  0  0
 55 54  2  0  0  0  0
 56 54  1  0  0  0  0
 57 52  2  0  0  0  0
 57 53  1  0  0  0  0
 59 60  1  0  0  0  0
 59 58  2  0  0  0  0
 60 57  1  0  0  0  0
 61 62  1  0  0  0  0
 62 60  1  0  0  0  0
 63 59  1  0  0  0  0
 64 63  1  0  0  0  0
 65 66  1  0  0  0  0
 66 64  1  0  0  0  0
M  END
>  <MODEL>
5

>  <REMARK>
 VINA RESULT:      -4.8      3.522      9.763
  Name = 
  18 active torsions:
  status: ('A' for Active; 'I' for Inactive)
    1  A    between atoms: C_5  and  P_37
    2  A    between atoms: C_9  and  N_26
    3  A    between atoms: O_10  and  C_19
    4  A    between atoms: O_10  and  C_38
    5  A    between atoms: C_13  and  C_58
    6  A    between atoms: C_25  and  C_30
    7  A    between atoms: C_25  and  C_53
    8  A    between atoms: C_30  and  P_37
    9  A    between atoms: C_32  and  C_35
   10  A    between atoms: C_36  and  N_59
   11  A    between atoms: C_38  and  C_53
   12  A    between atoms: C_42  and  C_49
   13  A    between atoms: C_42  and  C_57
   14  A    between atoms: C_43  and  C_44
   15  A    between atoms: C_43  and  C_53
   16  A    between atoms: C_45  and  C_57
   17  A    between atoms: N_50  and  N_62
   18  A    between atoms: N_50  and  C_64
                            x       y       z     vdW  Elec       q    Type
                         _______ _______ _______ _____ _____    ______ ____

>  <TORSDO>
F 18

$$$$
=
 OpenBabel11042416213D

 66 72  0  0  1  0  0  0  0  0999 V2000
  191.0420  169.5910  134.6810 N   0  0  0  0  0  2  0  0  0  0  0  0
  190.7430  170.9370  135.0250 C   0  0  0  0  0  0  0  0  0  0  0  0
  191.2830  172.1750  137.1810 C   0  0  0  0  0  0  0  0  0  0  0  0
  189.1290  172.8320  134.9720 C   0  0  0  0  0  3  0  0  0  0  0  0
  189.3800  173.5130  136.1000 C   0  0  0  0  0  0  0  0  0  0  0  0
  192.6180  170.2940  136.1460 C   0  0  0  0  0  0  0  0  0  0  0  0
  190.2750  173.0580  137.1870 C   0  0  0  0  0  3  0  0  0  0  0  0
  189.6510  171.5260  134.5640 C   0  0  0  0  0  3  0  0  0  0  0  0
  191.8040  171.5410  135.9100 C   0  0  1  0  0  3  0  0  0  0  0  0
  193.6150  170.1970  136.9140 O   0  0  0  0  0  0  0  0  0  0  0  0
  192.1530  169.2290  135.3990 O   0  0  0  0  0  0  0  0  0  0  0  0
  191.6530  171.5160  139.5770 C   0  0  0  0  0  2  0  0  0  0  0  0
  193.7820  174.4130  140.7240 C   0  0  0  0  0  0  0  0  0  0  0  0
  192.6820  175.2480  142.9380 C   0  0  0  0  0  3  0  0  0  0  0  0
  193.2160  174.8330  141.8250 C   0  0  0  0  0  0  0  0  0  0  0  0
  192.2290  172.3350  140.7200 C   0  0  1  0  0  3  0  0  0  0  0  0
  192.1110  172.1570  138.3500 N   0  0  0  0  0  0  0  0  0  0  0  0
  194.1550  173.2720  137.7800 N   0  0  0  0  0  2  0  0  0  0  0  0
  192.7190  171.4180  141.8280 C   0  0  0  0  0  1  0  0  0  0  0  0
  195.6540  174.5230  139.0200 C   0  0  1  0  0  3  0  0  0  0  0  0
  194.9570  175.2010  140.2020 C   0  0  0  0  0  2  0  0  0  0  0  0
  194.7790  174.5320  137.8520 N   0  0  0  0  0  2  0  0  0  0  0  0
  192.9780  173.2860  138.6410 C   0  0  2  0  0  3  0  0  0  0  0  0
  193.3910  173.0950  140.0860 C   0  0  1  0  0  3  0  0  0  0  0  0
  194.9180  176.5240  143.7870 O   0  0  0  0  0  0  0  0  0  0  0  0
  193.7380  175.7290  144.3050 P   0  0  1  0  0  0  0  0  0  0  0  0
  192.8450  176.6880  145.3780 O   0  0  0  0  0  1  0  0  0  0  0  0
  194.3280  174.2480  145.1760 C   0  0  0  0  0  2  0  0  0  0  0  0
  195.8170  174.3520  145.4450 C   0  0  0  0  0  2  0  0  0  0  0  0
  197.9400  173.2120  145.2920 O   0  0  0  0  0  1  0  0  0  0  0  0
  196.5550  173.0430  145.1340 C   0  0  1  0  0  0  0  0  0  0  0  0
  196.0580  171.9580  146.0850 C   0  0  0  0  0  2  0  0  0  0  0  0
  196.7390  170.7490  145.8770 O   0  0  0  0  0  0  0  0  0  0  0  0
  195.6310  169.0170  144.6970 O   0  0  0  0  0  0  0  0  0  0  0  0
  194.5740  169.9410  146.5730 O   0  0  0  0  0  1  0  0  0  0  0  0
  195.7750  169.7290  145.8990 C   0  0  2  0  0  0  0  0  0  0  0  0
  196.2520  168.3400  145.7760 C   0  0  0  0  0  2  0  0  0  0  0  0
  196.2500  172.6210  143.6880 C   0  0  0  0  0  2  0  0  0  0  0  0
  197.1500  173.2900  142.6980 C   0  0  0  0  0  0  0  0  0  0  0  0
  197.1250  174.7050  142.5590 N   0  0  0  0  0  1  0  0  0  0  0  0
  197.8510  172.5950  141.9160 O   0  0  0  0  0  0  0  0  0  0  0  0
  197.9410  175.7870  138.4470 C   0  0  0  0  0  3  0  0  0  0  0  0
  196.9150  175.2030  138.7090 C   0  0  0  0  0  0  0  0  0  0  0  0
  187.8380  175.4420  135.4400 C   0  0  0  0  0  3  0  0  0  0  0  0
  185.2510  176.8360  138.3900 O   0  0  0  0  0  0  0  0  0  0  0  0
  187.2750  176.1320  137.4800 N   0  0  0  0  0  0  0  0  0  0  0  0
  186.4990  176.7070  138.5320 C   0  0  0  0  0  0  0  0  0  0  0  0
  188.1760  175.1490  137.6350 C   0  0  0  0  0  3  0  0  0  0  0  0
  188.5430  174.7030  136.3790 C   0  0  0  0  0  0  0  0  0  0  0  0
  187.1320  177.1390  139.7440 N   0  0  0  0  0  2  0  0  0  0  0  0
  187.0490  176.3140  136.1670 C   0  0  0  0  0  3  0  0  0  0  0  0
  186.9350  176.8100  142.1640 C   0  0  0  0  0  3  0  0  0  0  0  0
  185.0010  177.6490  143.3550 C   0  0  0  0  0  3  0  0  0  0  0  0
  185.1510  177.9270  140.9600 C   0  0  0  0  0  3  0  0  0  0  0  0
  186.4000  177.2870  140.9620 C   0  0  0  0  0  0  0  0  0  0  0  0
  184.4530  178.1060  142.1550 C   0  0  0  0  0  3  0  0  0  0  0  0
  186.2460  176.9990  143.3660 C   0  0  0  0  0  0  0  0  0  0  0  0
  189.0210  176.7850  143.7880 O   0  0  0  0  0  0  0  0  0  0  0  0
  188.2550  176.4170  144.7230 C   0  0  0  0  0  0  0  0  0  0  0  0
  186.8290  176.5800  144.6090 N   0  0  0  0  0  0  0  0  0  0  0  0
  185.8030  176.9940  146.6460 O   0  0  0  0  0  1  0  0  0  0  0  0
  186.0030  176.2180  145.6920 N   0  0  0  0  0  2  0  0  0  0  0  0
  188.8580  175.8470  145.9680 C   0  0  0  0  0  2  0  0  0  0  0  0
  189.5710  176.9320  146.7720 C   0  0  0  0  0  2  0  0  0  0  0  0
  190.9510  175.0440  147.2660 O   0  0  0  0  0  1  0  0  0  0  0  0
  190.6160  176.3280  147.6950 C   0  0  0  0  0  2  0  0  0  0  0  0
  1  2  1  0  0  0  0
  1 11  1  0  0  0  0
  3  7  2  0  0  0  0
  3 17  1  0  0  0  0
  4  5  2  0  0  0  0
  5 49  1  0  0  0  0
  5  7  1  0  0  0  0
  6 10  2  0  0  0  0
  8  4  1  0  0  0  0
  8  2  2  0  0  0  0
  9  2  1  6  0  0  0
  9  6  1  0  0  0  0
  9  3  1  0  0  0  0
 11  6  1  0  0  0  0
 12 16  1  0  0  0  0
 13 15  2  0  0  0  0
 14 26  1  0  0  0  0
 15 14  2  0  0  0  0
 16 19  1  1  0  0  0
 17 23  1  0  0  0  0
 17 12  1  0  0  0  0
 18 22  1  0  0  0  0
 20 43  1  6  0  0  0
 20 21  1  0  0  0  0
 21 13  1  0  0  0  0
 22 20  1  0  0  0  0
 23 18  1  6  0  0  0
 23 24  1  0  0  0  0
 24 16  1  0  0  0  0
 24 13  1  1  0  0  0
 26 25  2  6  0  0  0
 26 28  1  0  0  0  0
 26 27  1  0  0  0  0
 28 29  1  0  0  0  0
 31 30  1  1  0  0  0
 31 29  1  0  0  0  0
 31 32  1  0  0  0  0
 33 36  1  0  0  0  0
 33 32  1  0  0  0  0
 34 37  1  0  0  0  0
 34 36  1  0  0  0  0
 36 35  1  1  0  0  0
 37 36  1  0  0  0  0
 38 31  1  0  0  0  0
 39 38  1  0  0  0  0
 40 39  1  0  0  0  0
 41 39  2  0  0  0  0
 42 43  3  0  0  0  0
 44 51  2  0  0  0  0
 44 49  1  0  0  0  0
 45 47  2  0  0  0  0
 46 48  1  0  0  0  0
 46 47  1  0  0  0  0
 47 50  1  0  0  0  0
 49 48  2  0  0  0  0
 50 55  1  0  0  0  0
 51 46  1  0  0  0  0
 52 57  1  0  0  0  0
 53 57  2  0  0  0  0
 54 55  1  0  0  0  0
 54 56  2  0  0  0  0
 55 52  2  0  0  0  0
 56 53  1  0  0  0  0
 57 60  1  0  0  0  0
 58 59  2  0  0  0  0
 59 63  1  0  0  0  0
 60 59  1  0  0  0  0
 60 62  1  0  0  0  0
 62 61  1  0  0  0  0
 63 64  1  0  0  0  0
 64 66  1  0  0  0  0
 65 66  1  0  0  0  0
M  END
>  <MODEL>
6

>  <REMARK>
 VINA RESULT:      -4.8      2.433      7.925
  Name = 
  18 active torsions:
  status: ('A' for Active; 'I' for Inactive)
    1  A    between atoms: C_5  and  P_37
    2  A    between atoms: C_9  and  N_26
    3  A    between atoms: O_10  and  C_19
    4  A    between atoms: O_10  and  C_38
    5  A    between atoms: C_13  and  C_58
    6  A    between atoms: C_25  and  C_30
    7  A    between atoms: C_25  and  C_53
    8  A    between atoms: C_30  and  P_37
    9  A    between atoms: C_32  and  C_35
   10  A    between atoms: C_36  and  N_59
   11  A    between atoms: C_38  and  C_53
   12  A    between atoms: C_42  and  C_49
   13  A    between atoms: C_42  and  C_57
   14  A    between atoms: C_43  and  C_44
   15  A    between atoms: C_43  and  C_53
   16  A    between atoms: C_45  and  C_57
   17  A    between atoms: N_50  and  N_62
   18  A    between atoms: N_50  and  C_64
                            x       y       z     vdW  Elec       q    Type
                         _______ _______ _______ _____ _____    ______ ____

>  <TORSDO>
F 18

$$$$
=
 OpenBabel11042416213D

 66 72  0  0  1  0  0  0  0  0999 V2000
  196.4310  169.2660  134.7260 N   0  0  0  0  0  0  0  0  0  0  0  0
  196.6090  170.1050  135.8600 C   0  0  0  0  0  0  0  0  0  0  0  0
  194.8420  171.0020  137.4550 C   0  0  0  0  0  0  0  0  0  0  0  0
  197.7650  172.0470  136.9020 C   0  0  0  0  0  3  0  0  0  0  0  0
  196.8620  172.5540  137.7530 C   0  0  0  0  0  0  0  0  0  0  0  0
  194.7570  168.8180  136.1840 C   0  0  0  0  0  0  0  0  0  0  0  0
  195.4450  172.1350  137.8390 C   0  0  0  0  0  3  0  0  0  0  0  0
  197.5760  171.0080  135.8880 C   0  0  0  0  0  2  0  0  0  0  0  0
  195.6090  169.8020  136.9480 C   0  0  1  0  0  3  0  0  0  0  0  0
  193.6880  168.2900  136.5970 O   0  0  0  0  0  0  0  0  0  0  0  0
  195.2910  168.5340  134.9420 O   0  0  0  0  0  0  0  0  0  0  0  0
  192.3670  171.2910  137.1300 C   0  0  0  0  0  2  0  0  0  0  0  0
  191.2800  171.6710  140.7230 C   0  0  0  0  0  0  0  0  0  0  0  0
  189.7640  173.7950  140.7680 C   0  0  0  0  0  3  0  0  0  0  0  0
  190.5330  172.7440  140.7380 C   0  0  0  0  0  0  0  0  0  0  0  0
  191.3120  171.7320  138.1300 C   0  0  1  0  0  3  0  0  0  0  0  0
  193.4990  170.8160  137.9190 N   0  0  0  0  0  0  0  0  0  0  0  0
  193.6300  169.6520  140.0100 N   0  0  0  0  0  2  0  0  0  0  0  0
  189.9330  171.2980  137.6630 C   0  0  0  0  0  1  0  0  0  0  0  0
  192.2910  169.6660  141.8960 C   0  0  1  0  0  3  0  0  0  0  0  0
  191.5680  171.0060  142.0460 C   0  0  0  0  0  2  0  0  0  0  0  0
  193.6460  169.8820  141.3990 N   0  0  0  0  0  2  0  0  0  0  0  0
  193.2070  170.8770  139.3410 C   0  0  2  0  0  3  0  0  0  0  0  0
  191.7010  171.0190  139.4220 C   0  0  1  0  0  3  0  0  0  0  0  0
  187.3960  172.6180  141.3630 O   0  0  0  0  0  0  0  0  0  0  0  0
  188.2770  173.7810  141.7690 P   0  0  1  0  0  0  0  0  0  0  0  0
  188.7120  173.6120  143.3960 O   0  0  0  0  0  1  0  0  0  0  0  0
  187.3750  175.3420  141.5500 C   0  0  0  0  0  2  0  0  0  0  0  0
  187.1750  176.0280  142.8880 C   0  0  0  0  0  2  0  0  0  0  0  0
  186.3660  177.7320  141.3800 O   0  0  0  0  0  1  0  0  0  0  0  0
  186.6250  177.4530  142.7320 C   0  0  1  0  0  0  0  0  0  0  0  0
  185.3350  177.5750  143.5380 C   0  0  0  0  0  2  0  0  0  0  0  0
  185.5470  177.2500  144.8870 O   0  0  0  0  0  0  0  0  0  0  0  0
  184.0180  177.8940  146.5810 O   0  0  0  0  0  0  0  0  0  0  0  0
  184.7200  179.5120  145.0370 O   0  0  0  0  0  1  0  0  0  0  0  0
  184.9920  178.2910  145.6480 C   0  0  2  0  0  0  0  0  0  0  0  0
  185.2750  178.2990  147.0950 C   0  0  0  0  0  2  0  0  0  0  0  0
  187.6540  178.4550  143.2770 C   0  0  0  0  0  2  0  0  0  0  0  0
  189.0520  177.9250  143.2190 C   0  0  0  0  0  0  0  0  0  0  0  0
  189.6910  177.4740  144.4060 N   0  0  0  0  0  1  0  0  0  0  0  0
  189.6990  177.9750  142.1390 O   0  0  0  0  0  0  0  0  0  0  0  0
  192.3750  168.3530  144.2250 C   0  0  0  0  0  3  0  0  0  0  0  0
  192.3330  168.9590  143.1790 C   0  0  0  0  0  0  0  0  0  0  0  0
  197.9360  174.8590  138.0170 C   0  0  0  0  0  3  0  0  0  0  0  0
  196.4060  177.2790  141.0400 O   0  0  0  0  0  0  0  0  0  0  0  0
  197.2250  175.3260  140.0740 N   0  0  0  0  0  0  0  0  0  0  0  0
  196.8040  176.0920  141.2030 C   0  0  0  0  0  0  0  0  0  0  0  0
  196.8170  174.0790  139.7920 C   0  0  0  0  0  3  0  0  0  0  0  0
  197.2470  173.7640  138.5170 C   0  0  0  0  0  0  0  0  0  0  0  0
  196.8350  175.5190  142.5170 N   0  0  0  0  0  2  0  0  0  0  0  0
  197.8890  175.8170  139.0120 C   0  0  0  0  0  3  0  0  0  0  0  0
  194.8520  175.3810  143.9500 C   0  0  0  0  0  3  0  0  0  0  0  0
  194.5070  177.0060  145.7130 C   0  0  0  0  0  3  0  0  0  0  0  0
  196.4350  177.1910  144.2690 C   0  0  0  0  0  3  0  0  0  0  0  0
  196.0320  176.0360  143.5800 C   0  0  0  0  0  0  0  0  0  0  0  0
  195.6720  177.6750  145.3320 C   0  0  0  0  0  3  0  0  0  0  0  0
  194.0920  175.8550  145.0250 C   0  0  0  0  0  0  0  0  0  0  0  0
  192.3060  176.8230  146.9730 O   0  0  0  0  0  0  0  0  0  0  0  0
  192.1020  175.6630  146.5150 C   0  0  0  0  0  0  0  0  0  0  0  0
  192.9230  175.1400  145.4550 N   0  0  0  0  0  0  0  0  0  0  0  0
  191.7820  173.7150  144.0260 O   0  0  0  0  0  1  0  0  0  0  0  0
  192.6350  173.8670  144.9210 N   0  0  0  0  0  2  0  0  0  0  0  0
  190.9660  174.8590  147.0640 C   0  0  0  0  0  2  0  0  0  0  0  0
  189.6780  175.6790  147.0820 C   0  0  0  0  0  2  0  0  0  0  0  0
  187.3520  175.5860  147.6220 O   0  0  0  0  0  1  0  0  0  0  0  0
  188.5750  174.9470  147.8270 C   0  0  0  0  0  2  0  0  0  0  0  0
  1 11  1  0  0  0  0
  1  2  2  0  0  0  0
  2  8  1  0  0  0  0
  3  7  2  0  0  0  0
  3 17  1  0  0  0  0
  4  5  2  0  0  0  0
  5  7  1  0  0  0  0
  5 49  1  0  0  0  0
  6 10  2  0  0  0  0
  6  9  1  0  0  0  0
  8  4  1  0  0  0  0
  9  2  1  6  0  0  0
  9  3  1  0  0  0  0
 11  6  1  0  0  0  0
 12 17  1  0  0  0  0
 12 16  1  0  0  0  0
 13 15  2  0  0  0  0
 13 21  1  0  0  0  0
 14 26  1  0  0  0  0
 15 14  2  0  0  0  0
 16 19  1  6  0  0  0
 16 24  1  0  0  0  0
 17 23  1  0  0  0  0
 18 22  1  0  0  0  0
 20 21  1  0  0  0  0
 20 43  1  1  0  0  0
 22 20  1  0  0  0  0
 23 24  1  0  0  0  0
 23 18  1  1  0  0  0
 24 13  1  1  0  0  0
 26 25  2  6  0  0  0
 26 27  1  0  0  0  0
 28 26  1  0  0  0  0
 28 29  1  0  0  0  0
 31 30  1  6  0  0  0
 31 29  1  0  0  0  0
 31 38  1  0  0  0  0
 31 32  1  0  0  0  0
 32 33  1  0  0  0  0
 33 36  1  0  0  0  0
 34 37  1  0  0  0  0
 36 35  1  6  0  0  0
 36 34  1  0  0  0  0
 36 37  1  0  0  0  0
 39 38  1  0  0  0  0
 39 40  1  0  0  0  0
 41 39  2  0  0  0  0
 43 42  3  0  0  0  0
 44 49  1  0  0  0  0
 44 51  2  0  0  0  0
 45 47  2  0  0  0  0
 46 47  1  0  0  0  0
 47 50  1  0  0  0  0
 48 46  1  0  0  0  0
 49 48  2  0  0  0  0
 50 55  1  0  0  0  0
 51 46  1  0  0  0  0
 52 57  1  0  0  0  0
 54 56  2  0  0  0  0
 55 52  2  0  0  0  0
 55 54  1  0  0  0  0
 56 53  1  0  0  0  0
 57 60  1  0  0  0  0
 57 53  2  0  0  0  0
 59 58  2  0  0  0  0
 59 63  1  0  0  0  0
 60 59  1  0  0  0  0
 61 62  1  0  0  0  0
 62 60  1  0  0  0  0
 63 64  1  0  0  0  0
 64 66  1  0  0  0  0
 65 66  1  0  0  0  0
M  END
>  <MODEL>
7

>  <REMARK>
 VINA RESULT:      -4.5      3.264     10.696
  Name = 
  18 active torsions:
  status: ('A' for Active; 'I' for Inactive)
    1  A    between atoms: C_5  and  P_37
    2  A    between atoms: C_9  and  N_26
    3  A    between atoms: O_10  and  C_19
    4  A    between atoms: O_10  and  C_38
    5  A    between atoms: C_13  and  C_58
    6  A    between atoms: C_25  and  C_30
    7  A    between atoms: C_25  and  C_53
    8  A    between atoms: C_30  and  P_37
    9  A    between atoms: C_32  and  C_35
   10  A    between atoms: C_36  and  N_59
   11  A    between atoms: C_38  and  C_53
   12  A    between atoms: C_42  and  C_49
   13  A    between atoms: C_42  and  C_57
   14  A    between atoms: C_43  and  C_44
   15  A    between atoms: C_43  and  C_53
   16  A    between atoms: C_45  and  C_57
   17  A    between atoms: N_50  and  N_62
   18  A    between atoms: N_50  and  C_64
                            x       y       z     vdW  Elec       q    Type
                         _______ _______ _______ _____ _____    ______ ____

>  <TORSDO>
F 18

$$$$
=
 OpenBabel11042416213D

 66 72  0  0  1  0  0  0  0  0999 V2000
  191.8360  170.6520  134.7550 N   0  0  0  0  0  2  0  0  0  0  0  0
  191.2430  171.8590  135.2150 C   0  0  0  0  0  0  0  0  0  0  0  0
  191.0170  172.6980  137.6060 C   0  0  0  0  0  0  0  0  0  0  0  0
  189.4060  173.5280  135.0250 C   0  0  0  0  0  3  0  0  0  0  0  0
  189.2510  173.9950  136.2730 C   0  0  0  0  0  0  0  0  0  0  0  0
  192.8590  171.2280  136.6910 C   0  0  0  0  0  0  0  0  0  0  0  0
  189.9090  173.4390  137.4770 C   0  0  0  0  0  3  0  0  0  0  0  0
  190.2200  172.3980  134.5720 C   0  0  0  0  0  3  0  0  0  0  0  0
  191.9350  172.3940  136.4440 C   0  0  1  0  0  3  0  0  0  0  0  0
  193.6350  171.0960  137.6780 O   0  0  0  0  0  0  0  0  0  0  0  0
  192.7760  170.2860  135.6830 O   0  0  0  0  0  0  0  0  0  0  0  0
  190.8860  171.6170  139.8710 C   0  0  0  0  0  2  0  0  0  0  0  0
  192.1350  174.4570  142.0180 C   0  0  0  0  0  0  0  0  0  0  0  0
  190.3920  174.6850  143.9470 C   0  0  0  0  0  3  0  0  0  0  0  0
  191.2490  174.5730  142.9730 C   0  0  0  0  0  0  0  0  0  0  0  0
  191.0100  172.2500  141.2450 C   0  0  1  0  0  3  0  0  0  0  0  0
  191.5190  172.5440  138.9390 N   0  0  0  0  0  0  0  0  0  0  0  0
  193.4180  173.9910  139.1480 N   0  0  0  0  0  2  0  0  0  0  0  0
  191.3580  171.1940  142.2810 C   0  0  0  0  0  1  0  0  0  0  0  0
  194.3240  175.1380  140.9410 C   0  0  1  0  0  3  0  0  0  0  0  0
  193.2490  175.4710  141.9780 C   0  0  0  0  0  2  0  0  0  0  0  0
  193.7790  175.2770  139.5940 N   0  0  0  0  0  2  0  0  0  0  0  0
  192.0790  173.6870  139.6400 C   0  0  2  0  0  3  0  0  0  0  0  0
  192.1460  173.2590  141.0910 C   0  0  1  0  0  3  0  0  0  0  0  0
  191.1320  176.4950  145.8250 O   0  0  0  0  0  0  0  0  0  0  0  0
  190.9750  175.0040  145.6120 P   0  0  1  0  0  0  0  0  0  0  0  0
  189.8440  174.3970  146.7160 O   0  0  0  0  0  1  0  0  0  0  0  0
  192.5700  174.1740  145.8730 C   0  0  0  0  0  2  0  0  0  0  0  0
  193.7100  175.1620  145.7190 C   0  0  0  0  0  2  0  0  0  0  0  0
  195.6890  174.1430  146.6540 O   0  0  0  0  0  1  0  0  0  0  0  0
  195.0490  174.4630  145.4460 C   0  0  1  0  0  0  0  0  0  0  0  0
  194.7870  173.1880  144.6490 C   0  0  0  0  0  2  0  0  0  0  0  0
  195.6730  173.0740  143.5670 O   0  0  0  0  0  0  0  0  0  0  0  0
  195.8590  170.7430  143.9540 O   0  0  0  0  0  0  0  0  0  0  0  0
  197.5720  172.1430  144.7300 O   0  0  0  0  0  1  0  0  0  0  0  0
  196.5110  171.9830  143.8410 C   0  0  2  0  0  0  0  0  0  0  0  0
  196.6480  170.9520  142.7950 C   0  0  0  0  0  2  0  0  0  0  0  0
  195.9480  175.3960  144.6190 C   0  0  0  0  0  2  0  0  0  0  0  0
  195.7680  176.8340  144.9880 C   0  0  0  0  0  0  0  0  0  0  0  0
  194.8100  177.2000  145.9730 N   0  0  0  0  0  1  0  0  0  0  0  0
  196.3860  177.7290  144.3530 O   0  0  0  0  0  0  0  0  0  0  0  0
  196.4340  176.7500  141.2640 C   0  0  0  0  0  3  0  0  0  0  0  0
  195.4870  176.0150  141.1060 C   0  0  0  0  0  0  0  0  0  0  0  0
  187.2340  175.3990  135.5730 C   0  0  0  0  0  3  0  0  0  0  0  0
  184.7070  176.6630  138.6330 O   0  0  0  0  0  0  0  0  0  0  0  0
  186.7360  176.2800  137.5560 N   0  0  0  0  0  0  0  0  0  0  0  0
  185.9570  176.8380  138.6160 C   0  0  0  0  0  0  0  0  0  0  0  0
  187.8560  175.5590  137.7180 C   0  0  0  0  0  3  0  0  0  0  0  0
  188.1870  175.0010  136.4980 C   0  0  0  0  0  0  0  0  0  0  0  0
  186.5900  177.5950  139.6560 N   0  0  0  0  0  2  0  0  0  0  0  0
  186.3380  176.1850  136.2740 C   0  0  0  0  0  3  0  0  0  0  0  0
  186.6800  177.4760  142.1010 C   0  0  0  0  0  3  0  0  0  0  0  0
  184.7950  178.2170  143.4280 C   0  0  0  0  0  3  0  0  0  0  0  0
  184.6680  178.2840  141.0160 C   0  0  0  0  0  3  0  0  0  0  0  0
  185.9740  177.7800  140.9310 C   0  0  0  0  0  0  0  0  0  0  0  0
  184.0790  178.5000  142.2620 C   0  0  0  0  0  3  0  0  0  0  0  0
  186.0990  177.7040  143.3530 C   0  0  0  0  0  0  0  0  0  0  0  0
  185.0440  176.4050  145.6170 O   0  0  0  0  0  0  0  0  0  0  0  0
  186.2160  176.8680  145.6990 C   0  0  0  0  0  0  0  0  0  0  0  0
  186.8500  177.4660  144.5540 N   0  0  0  0  0  0  0  0  0  0  0  0
  188.9160  178.0120  143.6560 O   0  0  0  0  0  1  0  0  0  0  0  0
  188.1810  177.9190  144.6570 N   0  0  0  0  0  2  0  0  0  0  0  0
  186.9510  176.7460  146.9970 C   0  0  0  0  0  2  0  0  0  0  0  0
  186.5900  177.8950  147.9350 C   0  0  0  0  0  2  0  0  0  0  0  0
  185.9370  180.1700  147.6030 O   0  0  0  0  0  1  0  0  0  0  0  0
  185.6140  178.8530  147.2740 C   0  0  0  0  0  2  0  0  0  0  0  0
  1  2  1  0  0  0  0
  1 11  1  0  0  0  0
  3 17  1  0  0  0  0
  4  5  2  0  0  0  0
  5 49  1  0  0  0  0
  5  7  1  0  0  0  0
  6 10  2  0  0  0  0
  7  3  2  0  0  0  0
  8  4  1  0  0  0  0
  8  2  2  0  0  0  0
  9  2  1  6  0  0  0
  9  6  1  0  0  0  0
  9  3  1  0  0  0  0
 11  6  1  0  0  0  0
 12 16  1  0  0  0  0
 13 15  2  0  0  0  0
 14 26  1  0  0  0  0
 15 14  2  0  0  0  0
 16 19  1  1  0  0  0
 17 23  1  0  0  0  0
 17 12  1  0  0  0  0
 18 22  1  0  0  0  0
 20 43  1  6  0  0  0
 20 21  1  0  0  0  0
 21 13  1  0  0  0  0
 22 20  1  0  0  0  0
 23 18  1  6  0  0  0
 23 24  1  0  0  0  0
 24 16  1  0  0  0  0
 24 13  1  1  0  0  0
 26 25  2  1  0  0  0
 26 28  1  0  0  0  0
 26 27  1  0  0  0  0
 29 28  1  0  0  0  0
 31 29  1  0  0  0  0
 31 30  1  1  0  0  0
 32 31  1  0  0  0  0
 33 36  1  0  0  0  0
 33 32  1  0  0  0  0
 36 34  1  0  0  0  0
 36 35  1  1  0  0  0
 37 36  1  0  0  0  0
 37 34  1  0  0  0  0
 38 39  1  0  0  0  0
 38 31  1  0  0  0  0
 39 40  1  0  0  0  0
 41 39  2  0  0  0  0
 43 42  3  0  0  0  0
 44 51  2  0  0  0  0
 44 49  1  0  0  0  0
 46 48  1  0  0  0  0
 46 47  1  0  0  0  0
 47 45  2  0  0  0  0
 47 50  1  0  0  0  0
 49 48  2  0  0  0  0
 50 55  1  0  0  0  0
 51 46  1  0  0  0  0
 52 57  1  0  0  0  0
 54 56  2  0  0  0  0
 55 54  1  0  0  0  0
 55 52  2  0  0  0  0
 56 53  1  0  0  0  0
 57 53  2  0  0  0  0
 57 60  1  0  0  0  0
 58 59  2  0  0  0  0
 59 63  1  0  0  0  0
 60 62  1  0  0  0  0
 60 59  1  0  0  0  0
 61 62  1  0  0  0  0
 63 64  1  0  0  0  0
 66 65  1  0  0  0  0
 66 64  1  0  0  0  0
M  END
>  <MODEL>
8

>  <REMARK>
 VINA RESULT:      -4.3      2.601      8.453
  Name = 
  18 active torsions:
  status: ('A' for Active; 'I' for Inactive)
    1  A    between atoms: C_5  and  P_37
    2  A    between atoms: C_9  and  N_26
    3  A    between atoms: O_10  and  C_19
    4  A    between atoms: O_10  and  C_38
    5  A    between atoms: C_13  and  C_58
    6  A    between atoms: C_25  and  C_30
    7  A    between atoms: C_25  and  C_53
    8  A    between atoms: C_30  and  P_37
    9  A    between atoms: C_32  and  C_35
   10  A    between atoms: C_36  and  N_59
   11  A    between atoms: C_38  and  C_53
   12  A    between atoms: C_42  and  C_49
   13  A    between atoms: C_42  and  C_57
   14  A    between atoms: C_43  and  C_44
   15  A    between atoms: C_43  and  C_53
   16  A    between atoms: C_45  and  C_57
   17  A    between atoms: N_50  and  N_62
   18  A    between atoms: N_50  and  C_64
                            x       y       z     vdW  Elec       q    Type
                         _______ _______ _______ _____ _____    ______ ____

>  <TORSDO>
F 18

$$$$
=
 OpenBabel11042416213D

 66 72  0  0  1  0  0  0  0  0999 V2000
  197.1180  168.1660  139.3180 N   0  0  0  0  0  2  0  0  0  0  0  0
  196.1070  169.1460  139.1210 C   0  0  0  0  0  0  0  0  0  0  0  0
  194.9810  170.6250  140.8590 C   0  0  0  0  0  0  0  0  0  0  0  0
  194.0130  169.8310  137.9640 C   0  0  0  0  0  3  0  0  0  0  0  0
  193.3830  170.6150  138.8510 C   0  0  0  0  0  0  0  0  0  0  0  0
  197.3410  169.7220  140.9470 C   0  0  0  0  0  0  0  0  0  0  0  0
  193.7960  170.8050  140.2600 C   0  0  0  0  0  3  0  0  0  0  0  0
  195.2030  169.0020  138.1650 C   0  0  0  0  0  3  0  0  0  0  0  0
  196.2410  170.2950  140.0890 C   0  0  1  0  0  3  0  0  0  0  0  0
  197.8060  170.2440  141.9980 O   0  0  0  0  0  0  0  0  0  0  0  0
  197.8160  168.5270  140.4410 O   0  0  0  0  0  0  0  0  0  0  0  0
  194.5490  170.4230  143.3250 C   0  0  0  0  0  2  0  0  0  0  0  0
  194.1830  174.0700  144.2190 C   0  0  0  0  0  0  0  0  0  0  0  0
  191.9800  174.2260  145.6100 C   0  0  0  0  0  3  0  0  0  0  0  0
  193.0710  174.1410  144.9030 C   0  0  0  0  0  0  0  0  0  0  0  0
  194.0710  171.4800  144.3060 C   0  0  1  0  0  3  0  0  0  0  0  0
  195.1020  171.1480  142.1870 N   0  0  0  0  0  0  0  0  0  0  0  0
  196.3140  173.2090  142.0230 N   0  0  0  0  0  2  0  0  0  0  0  0
  194.4180  171.0730  145.7280 C   0  0  0  0  0  1  0  0  0  0  0  0
  196.2650  175.1580  143.2690 C   0  0  1  0  0  3  0  0  0  0  0  0
  194.8900  175.3660  143.9080 C   0  0  0  0  0  2  0  0  0  0  0  0
  196.1130  174.6000  141.9290 N   0  0  0  0  0  2  0  0  0  0  0  0
  195.0540  172.5830  142.4070 C   0  0  2  0  0  3  0  0  0  0  0  0
  194.8310  172.7390  143.8980 C   0  0  1  0  0  3  0  0  0  0  0  0
  192.5970  174.6100  148.2210 O   0  0  0  0  0  1  0  0  0  0  0  0
  191.9330  175.2970  147.0470 P   0  0  1  0  0  0  0  0  0  0  0  0
  192.7630  176.7290  146.6920 O   0  0  0  0  0  0  0  0  0  0  0  0
  190.2080  175.6920  147.4600 C   0  0  0  0  0  2  0  0  0  0  0  0
  189.3660  175.7620  146.2010 C   0  0  0  0  0  2  0  0  0  0  0  0
  188.8550  177.9020  147.1950 O   0  0  0  0  0  1  0  0  0  0  0  0
  188.5040  177.0320  146.1500 C   0  0  1  0  0  0  0  0  0  0  0  0
  188.7250  177.7250  144.8090 C   0  0  0  0  0  2  0  0  0  0  0  0
  190.0770  178.0500  144.6220 O   0  0  0  0  0  0  0  0  0  0  0  0
  191.7150  177.9940  142.9090 O   0  0  0  0  0  0  0  0  0  0  0  0
  189.4650  178.2230  142.2930 O   0  0  0  0  0  1  0  0  0  0  0  0
  190.3690  177.8120  143.2700 C   0  0  2  0  0  0  0  0  0  0  0  0
  191.2360  176.6610  142.9560 C   0  0  0  0  0  2  0  0  0  0  0  0
  187.0230  176.6440  146.2780 C   0  0  0  0  0  2  0  0  0  0  0  0
  186.1130  177.8230  146.1430 C   0  0  0  0  0  0  0  0  0  0  0  0
  184.8370  177.8110  146.7710 N   0  0  0  0  0  1  0  0  0  0  0  0
  186.4300  178.7800  145.3880 O   0  0  0  0  0  0  0  0  0  0  0  0
  197.5850  177.4810  143.1400 C   0  0  0  0  0  3  0  0  0  0  0  0
  196.9990  176.4250  143.2070 C   0  0  0  0  0  0  0  0  0  0  0  0
  191.2280  170.6560  137.4790 C   0  0  0  0  0  3  0  0  0  0  0  0
  187.9290  172.4590  139.2690 O   0  0  0  0  0  0  0  0  0  0  0  0
  190.1490  172.2470  138.6000 N   0  0  0  0  0  0  0  0  0  0  0  0
  189.0640  172.9970  139.1510 C   0  0  0  0  0  0  0  0  0  0  0  0
  191.3720  172.1470  139.1430 C   0  0  0  0  0  3  0  0  0  0  0  0
  192.0640  171.1640  138.4620 C   0  0  0  0  0  0  0  0  0  0  0  0
  189.2620  174.3540  139.5680 N   0  0  0  0  0  2  0  0  0  0  0  0
  190.0380  171.3490  137.6060 C   0  0  0  0  0  3  0  0  0  0  0  0
  187.4240  175.8950  140.0690 C   0  0  0  0  0  3  0  0  0  0  0  0
  186.6400  176.1570  142.3450 C   0  0  0  0  0  3  0  0  0  0  0  0
  188.4930  174.6810  141.8750 C   0  0  0  0  0  3  0  0  0  0  0  0
  188.3920  174.9850  140.5090 C   0  0  0  0  0  0  0  0  0  0  0  0
  187.6190  175.2670  142.7910 C   0  0  0  0  0  3  0  0  0  0  0  0
  186.5370  176.4750  140.9810 C   0  0  0  0  0  0  0  0  0  0  0  0
  184.6640  177.6970  142.6920 O   0  0  0  0  0  0  0  0  0  0  0  0
  184.5240  177.8710  141.4480 C   0  0  0  0  0  0  0  0  0  0  0  0
  185.4940  177.3490  140.5220 N   0  0  0  0  0  0  0  0  0  0  0  0
  184.8070  176.7870  138.3810 O   0  0  0  0  0  1  0  0  0  0  0  0
  185.3460  177.6100  139.1440 N   0  0  0  0  0  2  0  0  0  0  0  0
  183.3550  178.6660  140.9570 C   0  0  0  0  0  2  0  0  0  0  0  0
  182.0840  178.2830  141.7120 C   0  0  0  0  0  2  0  0  0  0  0  0
  179.9970  179.2600  142.3480 O   0  0  0  0  0  1  0  0  0  0  0  0
  180.9200  179.1730  141.3070 C   0  0  0  0  0  2  0  0  0  0  0  0
  1 11  1  0  0  0  0
  2  1  1  0  0  0  0
  3 17  1  0  0  0  0
  4  8  1  0  0  0  0
  4  5  2  0  0  0  0
  5  7  1  0  0  0  0
  6 10  2  0  0  0  0
  7  3  2  0  0  0  0
  8  2  2  0  0  0  0
  9  2  1  6  0  0  0
  9  3  1  0  0  0  0
  9  6  1  0  0  0  0
 11  6  1  0  0  0  0
 12 16  1  0  0  0  0
 13 15  2  0  0  0  0
 14 26  1  0  0  0  0
 15 14  2  0  0  0  0
 16 19  1  1  0  0  0
 17 23  1  0  0  0  0
 17 12  1  0  0  0  0
 20 43  1  6  0  0  0
 20 21  1  0  0  0  0
 21 13  1  0  0  0  0
 22 18  1  0  0  0  0
 22 20  1  0  0  0  0
 23 18  1  1  0  0  0
 23 24  1  0  0  0  0
 24 13  1  6  0  0  0
 24 16  1  0  0  0  0
 26 27  2  6  0  0  0
 26 28  1  0  0  0  0
 26 25  1  0  0  0  0
 29 28  1  0  0  0  0
 31 29  1  0  0  0  0
 31 38  1  0  0  0  0
 31 30  1  1  0  0  0
 32 31  1  0  0  0  0
 33 32  1  0  0  0  0
 34 37  1  0  0  0  0
 34 36  1  0  0  0  0
 36 35  1  6  0  0  0
 36 33  1  0  0  0  0
 37 36  1  0  0  0  0
 39 38  1  0  0  0  0
 39 40  1  0  0  0  0
 41 39  2  0  0  0  0
 42 43  3  0  0  0  0
 44 51  2  0  0  0  0
 44 49  1  0  0  0  0
 46 48  1  0  0  0  0
 46 47  1  0  0  0  0
 47 45  2  0  0  0  0
 47 50  1  0  0  0  0
 49  5  1  0  0  0  0
 49 48  2  0  0  0  0
 50 55  1  0  0  0  0
 51 46  1  0  0  0  0
 52 55  2  0  0  0  0
 52 57  1  0  0  0  0
 53 56  1  0  0  0  0
 54 56  2  0  0  0  0
 55 54  1  0  0  0  0
 57 53  2  0  0  0  0
 59 58  2  0  0  0  0
 60 57  1  0  0  0  0
 60 59  1  0  0  0  0
 61 62  1  0  0  0  0
 62 60  1  0  0  0  0
 63 59  1  0  0  0  0
 63 64  1  0  0  0  0
 66 64  1  0  0  0  0
 66 65  1  0  0  0  0
M  END
>  <MODEL>
9

>  <REMARK>
 VINA RESULT:      -4.0      3.241      9.817
  Name = 
  18 active torsions:
  status: ('A' for Active; 'I' for Inactive)
    1  A    between atoms: C_5  and  P_37
    2  A    between atoms: C_9  and  N_26
    3  A    between atoms: O_10  and  C_19
    4  A    between atoms: O_10  and  C_38
    5  A    between atoms: C_13  and  C_58
    6  A    between atoms: C_25  and  C_30
    7  A    between atoms: C_25  and  C_53
    8  A    between atoms: C_30  and  P_37
    9  A    between atoms: C_32  and  C_35
   10  A    between atoms: C_36  and  N_59
   11  A    between atoms: C_38  and  C_53
   12  A    between atoms: C_42  and  C_49
   13  A    between atoms: C_42  and  C_57
   14  A    between atoms: C_43  and  C_44
   15  A    between atoms: C_43  and  C_53
   16  A    between atoms: C_45  and  C_57
   17  A    between atoms: N_50  and  N_62
   18  A    between atoms: N_50  and  C_64
                            x       y       z     vdW  Elec       q    Type
                         _______ _______ _______ _____ _____    ______ ____

>  <TORSDO>
F 18

$$$$
