=
 OpenBabel11042419353D

 32 37  0  0  1  0  0  0  0  0999 V2000
  187.0370  177.6700  146.4490 C   0  0  0  0  0  3  0  0  0  0  0  0
  187.9850  175.3230  142.7640 C   0  0  0  0  0  0  0  0  0  0  0  0
  185.7710  177.7000  145.8240 C   0  0  0  0  0  0  0  0  0  0  0  0
  185.5740  177.0690  144.5800 C   0  0  0  0  0  3  0  0  0  0  0  0
  188.7370  175.6810  143.8430 N   0  0  0  0  0  0  0  0  0  0  0  0
  186.6990  175.7560  142.8410 N   0  0  0  0  0  0  0  0  0  0  0  0
  187.8850  176.3780  144.6180 C   0  0  0  0  0  0  0  0  0  0  0  0
  186.6640  176.4140  144.0130 C   0  0  0  0  0  0  0  0  0  0  0  0
  188.1170  176.9990  145.8470 C   0  0  0  0  0  3  0  0  0  0  0  0
  189.1280  173.3240  141.6690 C   0  0  0  0  0  0  0  0  0  0  0  0
  189.4250  172.9460  140.3160 C   0  0  0  0  0  0  0  0  0  0  0  0
  190.0510  171.7140  140.0640 C   0  0  0  0  0  0  0  0  0  0  0  0
  188.9040  173.9730  139.5370 C   0  0  0  0  0  0  0  0  0  0  0  0
  188.7910  174.0450  137.7880 Cl  0  0  0  0  0  0  0  0  0  0  0  0
  190.0220  171.2570  142.4320 C   0  0  0  0  0  3  0  0  0  0  0  0
  190.3170  170.9110  141.1400 N   0  0  0  0  0  2  0  0  0  0  0  0
  188.4900  174.5440  141.6110 C   0  0  0  0  0  0  0  0  0  0  0  0
  188.3500  174.9290  140.3210 N   0  0  0  0  0  0  0  0  0  0  0  0
  189.4160  172.4840  142.7360 C   0  0  0  0  0  3  0  0  0  0  0  0
  191.5510  171.6650  138.2190 O   0  0  0  0  0  0  0  0  0  0  0  0
  189.7110  170.2710  138.0450 N   0  0  0  0  0  1  0  0  0  0  0  0
  190.4760  171.2580  138.7300 C   0  0  0  0  0  0  0  0  0  0  0  0
  191.8040  175.9450  145.7330 C   0  0  2  0  0  0  0  0  0  0  0  0
  191.0330  176.5700  143.5150 C   0  0  1  0  0  3  0  0  0  0  0  0
  191.6950  176.6980  146.9040 O   0  0  0  0  0  1  0  0  0  0  0  0
  192.0420  176.8610  144.5340 C   0  0  1  0  0  3  0  0  0  0  0  0
  190.1680  175.4300  144.0440 C   0  0  1  0  0  3  0  0  0  0  0  0
  190.5210  175.1780  145.4950 C   0  0  0  0  0  2  0  0  0  0  0  0
  192.9600  174.9730  145.8660 C   0  0  0  0  0  1  0  0  0  0  0  0
  190.9040  177.7770  144.3490 N   0  0  0  0  0  2  0  0  0  0  0  0
  183.7950  179.0210  145.4470 N   0  0  0  0  0  1  0  0  0  0  0  0
  184.6460  178.4330  146.4670 C   0  0  0  0  0  2  0  0  0  0  0  0
  2  6  2  0  0  0  0
  2  5  1  0  0  0  0
  3  1  2  0  0  0  0
  3 32  1  0  0  0  0
  4  3  1  0  0  0  0
  5  7  1  0  0  0  0
  6  8  1  0  0  0  0
  7  9  2  0  0  0  0
  8  4  2  0  0  0  0
  8  7  1  0  0  0  0
  9  1  1  0  0  0  0
 10 19  1  0  0  0  0
 11 10  1  0  0  0  0
 12 11  2  0  0  0  0
 12 16  1  0  0  0  0
 13 11  1  0  0  0  0
 13 18  2  0  0  0  0
 14 13  1  0  0  0  0
 15 19  2  0  0  0  0
 16 15  1  0  0  0  0
 17 10  2  0  0  0  0
 17  2  1  0  0  0  0
 18 17  1  0  0  0  0
 20 22  2  0  0  0  0
 21 22  1  0  0  0  0
 22 12  1  0  0  0  0
 23 29  1  1  0  0  0
 23 25  1  0  0  0  0
 24 27  1  0  0  0  0
 24 30  1  1  0  0  0
 24 26  1  0  0  0  0
 26 30  1  1  0  0  0
 26 23  1  0  0  0  0
 27  5  1  1  0  0  0
 27 28  1  0  0  0  0
 28 23  1  0  0  0  0
 31 32  1  0  0  0  0
M  END
>  <MODEL>
1

>  <REMARK>
 VINA RESULT:      -7.7      0.000      0.000
  Name = 
  4 active torsions:
  status: ('A' for Active; 'I' for Inactive)
    1  A    between atoms: C_5  and  C_27
    2  A    between atoms: C_6  and  C_26
    3  A    between atoms: C_9  and  C_29
    4  A    between atoms: N_16  and  C_20
                            x       y       z     vdW  Elec       q    Type
                         _______ _______ _______ _____ _____    ______ ____

>  <TORSDO>
F 4

$$$$
=
 OpenBabel11042419353D

 32 37  0  0  1  0  0  0  0  0999 V2000
  193.2670  173.6010  141.1220 C   0  0  0  0  0  3  0  0  0  0  0  0
  189.7970  175.4600  143.2400 C   0  0  0  0  0  0  0  0  0  0  0  0
  192.2190  173.1500  140.2880 C   0  0  0  0  0  0  0  0  0  0  0  0
  190.8840  173.4950  140.5720 C   0  0  0  0  0  3  0  0  0  0  0  0
  191.1390  175.4870  143.4770 N   0  0  0  0  0  0  0  0  0  0  0  0
  189.4630  174.7370  142.1380 N   0  0  0  0  0  0  0  0  0  0  0  0
  191.6610  174.7380  142.4870 C   0  0  0  0  0  0  0  0  0  0  0  0
  190.6500  174.2980  141.6850 C   0  0  0  0  0  0  0  0  0  0  0  0
  192.9950  174.4090  142.2400 C   0  0  0  0  0  3  0  0  0  0  0  0
  187.9400  177.1510  143.6790 C   0  0  0  0  0  0  0  0  0  0  0  0
  187.1270  177.4870  144.8150 C   0  0  1  0  0  3  0  0  0  0  0  0
  186.1390  178.4770  144.6880 C   0  0  0  0  0  0  0  0  0  0  0  0
  187.5330  176.6100  145.8150 C   0  0  0  0  0  0  0  0  0  0  0  0
  186.8230  176.3890  147.4040 Cl  0  0  0  0  0  0  0  0  0  0  0  0
  186.7380  178.7260  142.3660 C   0  0  0  0  0  3  0  0  0  0  0  0
  185.9790  179.0530  143.4580 N   0  0  0  0  0  0  0  0  0  0  0  0
  188.7830  176.1360  144.0790 C   0  0  0  0  0  0  0  0  0  0  0  0
  188.5290  175.8090  145.3680 N   0  0  0  0  0  0  0  0  0  0  0  0
  187.7500  177.7600  142.4470 C   0  0  0  0  0  3  0  0  0  0  0  0
  185.8200  179.5190  146.8020 O   0  0  0  0  0  0  0  0  0  0  0  0
  183.8850  178.8820  145.7030 N   0  0  0  0  0  1  0  0  0  0  0  0
  185.3030  178.9600  145.8000 C   0  0  0  0  0  0  0  0  0  0  0  0
  194.0630  176.1540  145.4910 C   0  0  2  0  0  0  0  0  0  0  0  0
  191.8480  175.2160  145.8420 C   0  0  1  0  0  3  0  0  0  0  0  0
  195.2100  175.4700  145.0830 O   0  0  0  0  0  1  0  0  0  0  0  0
  193.2060  175.2630  146.3880 C   0  0  1  0  0  3  0  0  0  0  0  0
  191.8220  176.1180  144.6120 C   0  0  1  0  0  3  0  0  0  0  0  0
  193.2380  176.5400  144.2810 C   0  0  0  0  0  2  0  0  0  0  0  0
  194.4650  177.4030  146.2510 C   0  0  0  0  0  1  0  0  0  0  0  0
  192.7530  174.0700  145.6530 N   0  0  0  0  0  2  0  0  0  0  0  0
  191.2910  171.7650  138.5530 N   0  0  0  0  0  1  0  0  0  0  0  0
  192.5250  172.2770  139.1220 C   0  0  0  0  0  2  0  0  0  0  0  0
  1  9  1  0  0  0  0
  2  5  1  0  0  0  0
  2 17  1  0  0  0  0
  3  4  1  0  0  0  0
  3  1  2  0  0  0  0
  4  8  2  0  0  0  0
  6  2  2  0  0  0  0
  7  5  1  0  0  0  0
  8  6  1  0  0  0  0
  8  7  1  0  0  0  0
  9  7  2  0  0  0  0
 10 17  2  0  0  0  0
 11 10  1  6  0  0  0
 11 13  1  0  0  0  0
 12 11  1  0  0  0  0
 12 22  1  0  0  0  0
 13 14  1  0  0  0  0
 15 19  2  0  0  0  0
 15 16  1  0  0  0  0
 16 12  2  0  0  0  0
 17 18  1  0  0  0  0
 18 13  2  0  0  0  0
 19 10  1  0  0  0  0
 21 22  1  0  0  0  0
 22 20  2  0  0  0  0
 23 29  1  1  0  0  0
 23 26  1  0  0  0  0
 24 30  1  6  0  0  0
 24 26  1  0  0  0  0
 25 23  1  0  0  0  0
 26 30  1  6  0  0  0
 27  5  1  6  0  0  0
 27 24  1  0  0  0  0
 28 27  1  0  0  0  0
 28 23  1  0  0  0  0
 31 32  1  0  0  0  0
 32  3  1  0  0  0  0
M  END
>  <MODEL>
2

>  <REMARK>
 VINA RESULT:      -7.7      3.018      7.342
  Name = 
  4 active torsions:
  status: ('A' for Active; 'I' for Inactive)
    1  A    between atoms: C_5  and  C_27
    2  A    between atoms: C_6  and  C_26
    3  A    between atoms: C_9  and  C_29
    4  A    between atoms: N_16  and  C_20
                            x       y       z     vdW  Elec       q    Type
                         _______ _______ _______ _____ _____    ______ ____

>  <TORSDO>
F 4

$$$$
=
 OpenBabel11042419353D

 32 37  0  0  1  0  0  0  0  0999 V2000
  185.9980  176.6960  144.4750 C   0  0  0  0  0  3  0  0  0  0  0  0
  190.4360  176.6720  143.9370 C   0  0  0  0  0  0  0  0  0  0  0  0
  186.3570  177.6130  145.4880 C   0  0  0  0  0  0  0  0  0  0  0  0
  187.7110  177.9340  145.7100 C   0  0  0  0  0  3  0  0  0  0  0  0
  189.4280  176.0270  143.2840 N   0  0  0  0  0  0  0  0  0  0  0  0
  189.9930  177.4870  144.9320 N   0  0  0  0  0  0  0  0  0  0  0  0
  188.3120  176.4480  143.9080 C   0  0  0  0  0  0  0  0  0  0  0  0
  188.6590  177.3280  144.8900 C   0  0  0  0  0  0  0  0  0  0  0  0
  186.9820  176.1010  143.6650 C   0  0  0  0  0  3  0  0  0  0  0  0
  192.8810  176.2470  144.5200 C   0  0  0  0  0  0  0  0  0  0  0  0
  194.1020  176.1800  143.7660 C   0  0  0  0  0  0  0  0  0  0  0  0
  195.3050  175.8760  144.4260 C   0  0  0  0  0  0  0  0  0  0  0  0
  193.7190  176.3910  142.4470 C   0  0  0  0  0  0  0  0  0  0  0  0
  194.7130  176.2730  141.0060 Cl  0  0  0  0  0  0  0  0  0  0  0  0
  194.0770  175.6670  146.4910 C   0  0  0  0  0  3  0  0  0  0  0  0
  195.2400  175.6220  145.7690 N   0  0  0  0  0  2  0  0  0  0  0  0
  191.8730  176.5200  143.6200 C   0  0  0  0  0  0  0  0  0  0  0  0
  192.3830  176.5990  142.3690 N   0  0  0  0  0  0  0  0  0  0  0  0
  192.8550  175.9860  145.8830 C   0  0  0  0  0  3  0  0  0  0  0  0
  197.1510  176.9200  143.3500 O   0  0  0  0  0  0  0  0  0  0  0  0
  197.3630  174.6430  143.7070 N   0  0  0  0  0  1  0  0  0  0  0  0
  196.6250  175.8590  143.7750 C   0  0  0  0  0  0  0  0  0  0  0  0
  188.2700  173.1830  141.3820 C   0  0  2  0  0  0  0  0  0  0  0  0
  190.2340  173.7510  142.6960 C   0  0  1  0  0  3  0  0  0  0  0  0
  187.0790  172.6250  141.8490 O   0  0  0  0  0  1  0  0  0  0  0  0
  189.4590  172.6290  142.1660 C   0  0  1  0  0  3  0  0  0  0  0  0
  189.5640  175.0340  142.2120 C   0  0  1  0  0  3  0  0  0  0  0  0
  188.2410  174.6850  141.5660 C   0  0  0  0  0  2  0  0  0  0  0  0
  188.4370  172.8540  139.9110 C   0  0  0  0  0  1  0  0  0  0  0  0
  189.3490  172.9860  143.5910 N   0  0  0  0  0  2  0  0  0  0  0  0
  184.1750  178.6240  145.5310 N   0  0  0  0  0  1  0  0  0  0  0  0
  185.3040  178.2150  146.3490 C   0  0  0  0  0  2  0  0  0  0  0  0
  1  3  1  0  0  0  0
  2  6  2  0  0  0  0
  3  4  2  0  0  0  0
  3 32  1  0  0  0  0
  5  7  1  0  0  0  0
  5  2  1  0  0  0  0
  7  8  2  0  0  0  0
  8  6  1  0  0  0  0
  8  4  1  0  0  0  0
  9  7  1  0  0  0  0
  9  1  2  0  0  0  0
 10 19  1  0  0  0  0
 11 12  2  0  0  0  0
 11 10  1  0  0  0  0
 12 16  1  0  0  0  0
 13 11  1  0  0  0  0
 14 13  1  0  0  0  0
 16 15  1  0  0  0  0
 17  2  1  0  0  0  0
 17 10  2  0  0  0  0
 18 13  2  0  0  0  0
 18 17  1  0  0  0  0
 19 15  2  0  0  0  0
 20 22  2  0  0  0  0
 21 22  1  0  0  0  0
 22 12  1  0  0  0  0
 23 29  1  6  0  0  0
 23 28  1  0  0  0  0
 23 25  1  0  0  0  0
 23 26  1  0  0  0  0
 24 30  1  1  0  0  0
 26 24  1  0  0  0  0
 26 30  1  1  0  0  0
 27 28  1  1  0  0  0
 27 24  1  0  0  0  0
 27  5  1  0  0  0  0
 31 32  1  0  0  0  0
M  END
>  <MODEL>
3

>  <REMARK>
 VINA RESULT:      -7.5      2.949      5.622
  Name = 
  4 active torsions:
  status: ('A' for Active; 'I' for Inactive)
    1  A    between atoms: C_5  and  C_27
    2  A    between atoms: C_6  and  C_26
    3  A    between atoms: C_9  and  C_29
    4  A    between atoms: N_16  and  C_20
                            x       y       z     vdW  Elec       q    Type
                         _______ _______ _______ _____ _____    ______ ____

>  <TORSDO>
F 4

$$$$
=
 OpenBabel11042419353D

 32 37  0  0  1  0  0  0  0  0999 V2000
  193.5080  171.5580  144.5900 C   0  0  0  0  0  3  0  0  0  0  0  0
  190.1380  174.4160  143.9130 C   0  0  0  0  0  0  0  0  0  0  0  0
  192.5420  170.6600  144.0860 C   0  0  0  0  0  0  0  0  0  0  0  0
  191.2620  171.1200  143.7220 C   0  0  0  0  0  3  0  0  0  0  0  0
  191.4080  174.5880  144.3750 N   0  0  0  0  0  0  0  0  0  0  0  0
  189.8580  173.1260  143.5850 N   0  0  0  0  0  0  0  0  0  0  0  0
  191.9370  173.3500  144.3460 C   0  0  0  0  0  0  0  0  0  0  0  0
  191.0030  172.4810  143.8660 C   0  0  0  0  0  0  0  0  0  0  0  0
  193.2130  172.9270  144.7240 C   0  0  0  0  0  3  0  0  0  0  0  0
  188.3310  175.9970  144.7700 C   0  0  0  0  0  0  0  0  0  0  0  0
  187.5390  177.0420  144.1800 C   0  0  0  0  0  0  0  0  0  0  0  0
  186.6370  177.7600  144.9820 C   0  0  0  0  0  0  0  0  0  0  0  0
  187.9680  177.1120  142.8600 C   0  0  0  0  0  0  0  0  0  0  0  0
  187.5160  178.2920  141.6440 Cl  0  0  0  0  0  0  0  0  0  0  0  0
  187.3480  176.4590  146.8850 C   0  0  0  0  0  3  0  0  0  0  0  0
  186.5850  177.4420  146.3120 N   0  0  0  0  0  2  0  0  0  0  0  0
  189.1420  175.5010  143.7720 C   0  0  0  0  0  0  0  0  0  0  0  0
  188.9250  176.1820  142.6220 N   0  0  0  0  0  0  0  0  0  0  0  0
  188.2480  175.7010  146.1230 C   0  0  0  0  0  3  0  0  0  0  0  0
  185.9410  180.0130  144.6790 O   0  0  0  0  0  0  0  0  0  0  0  0
  184.6140  178.4150  143.6580 N   0  0  0  0  0  1  0  0  0  0  0  0
  185.7190  178.7920  144.4740 C   0  0  0  0  0  0  0  0  0  0  0  0
  194.0320  176.4540  146.0130 C   0  0  2  0  0  0  0  0  0  0  0  0
  191.6480  176.1020  146.3300 C   0  0  1  0  0  3  0  0  0  0  0  0
  195.0710  175.6680  146.5120 O   0  0  0  0  0  1  0  0  0  0  0  0
  192.8780  176.5060  147.0130 C   0  0  1  0  0  3  0  0  0  0  0  0
  192.0060  175.8330  144.8720 C   0  0  1  0  0  3  0  0  0  0  0  0
  193.5120  175.8590  144.7220 C   0  0  0  0  0  2  0  0  0  0  0  0
  194.5420  177.8590  145.7560 C   0  0  0  0  0  1  0  0  0  0  0  0
  192.3260  175.1580  147.2350 N   0  0  0  0  0  2  0  0  0  0  0  0
  194.2940  169.0120  144.1570 N   0  0  0  0  0  1  0  0  0  0  0  0
  192.8670  169.2120  143.9720 C   0  0  0  0  0  2  0  0  0  0  0  0
  1  9  1  0  0  0  0
  2  5  1  0  0  0  0
  3  1  2  0  0  0  0
  4  8  2  0  0  0  0
  4  3  1  0  0  0  0
  6  8  1  0  0  0  0
  6  2  2  0  0  0  0
  7  5  1  0  0  0  0
  7  9  2  0  0  0  0
  8  7  1  0  0  0  0
 10 19  1  0  0  0  0
 11 10  1  0  0  0  0
 11 12  2  0  0  0  0
 12 16  1  0  0  0  0
 13 11  1  0  0  0  0
 14 13  1  0  0  0  0
 16 15  1  0  0  0  0
 17  2  1  0  0  0  0
 17 10  2  0  0  0  0
 18 13  2  0  0  0  0
 18 17  1  0  0  0  0
 19 15  2  0  0  0  0
 21 22  1  0  0  0  0
 22 20  2  0  0  0  0
 22 12  1  0  0  0  0
 23 29  1  6  0  0  0
 23 25  1  0  0  0  0
 23 26  1  0  0  0  0
 24 26  1  0  0  0  0
 24 30  1  1  0  0  0
 26 30  1  1  0  0  0
 27  5  1  1  0  0  0
 27 24  1  0  0  0  0
 28 27  1  0  0  0  0
 28 23  1  0  0  0  0
 32  3  1  0  0  0  0
 32 31  1  0  0  0  0
M  END
>  <MODEL>
4

>  <REMARK>
 VINA RESULT:      -7.4      3.288      6.998
  Name = 
  4 active torsions:
  status: ('A' for Active; 'I' for Inactive)
    1  A    between atoms: C_5  and  C_27
    2  A    between atoms: C_6  and  C_26
    3  A    between atoms: C_9  and  C_29
    4  A    between atoms: N_16  and  C_20
                            x       y       z     vdW  Elec       q    Type
                         _______ _______ _______ _____ _____    ______ ____

>  <TORSDO>
F 4

$$$$
=
 OpenBabel11042419353D

 32 37  0  0  1  0  0  0  0  0999 V2000
  186.8630  178.0470  145.3800 C   0  0  0  0  0  3  0  0  0  0  0  0
  188.1670  174.8220  142.5720 C   0  0  0  0  0  0  0  0  0  0  0  0
  185.7190  177.9860  144.5530 C   0  0  0  0  0  0  0  0  0  0  0  0
  185.6670  177.0790  143.4760 C   0  0  0  0  0  3  0  0  0  0  0  0
  188.7670  175.3970  143.6520 N   0  0  0  0  0  0  0  0  0  0  0  0
  186.9290  175.3250  142.3170 N   0  0  0  0  0  0  0  0  0  0  0  0
  187.8690  176.3050  144.0810 C   0  0  0  0  0  0  0  0  0  0  0  0
  186.7680  176.2510  143.2780 C   0  0  0  0  0  0  0  0  0  0  0  0
  187.9590  177.1960  145.1510 C   0  0  0  0  0  3  0  0  0  0  0  0
  188.7270  173.6730  140.3660 C   0  0  0  0  0  0  0  0  0  0  0  0
  189.4570  172.4920  139.9990 C   0  0  0  0  0  0  0  0  0  0  0  0
  189.6060  172.1670  138.6400 C   0  0  0  0  0  0  0  0  0  0  0  0
  189.9200  171.9710  141.2020 C   0  0  0  0  0  0  0  0  0  0  0  0
  191.0150  170.6220  141.4390 Cl  0  0  0  0  0  0  0  0  0  0  0  0
  188.3850  174.1660  138.0650 C   0  0  0  0  0  3  0  0  0  0  0  0
  189.0680  173.0290  137.7240 N   0  0  0  0  0  0  0  0  0  0  0  0
  188.7750  173.7600  141.7410 C   0  0  1  0  0  3  0  0  0  0  0  0
  189.5020  172.7330  142.2410 N   0  0  0  0  0  0  0  0  0  0  0  0
  188.1910  174.5220  139.4070 C   0  0  0  0  0  3  0  0  0  0  0  0
  189.5950  169.9040  137.9100 O   0  0  0  0  0  0  0  0  0  0  0  0
  191.6540  170.9610  137.8490 N   0  0  0  0  0  1  0  0  0  0  0  0
  190.2620  170.9440  138.1490 C   0  0  0  0  0  0  0  0  0  0  0  0
  191.4690  175.8900  145.9980 C   0  0  2  0  0  0  0  0  0  0  0  0
  191.1430  176.1190  143.6010 C   0  0  1  0  0  3  0  0  0  0  0  0
  191.2130  176.8530  146.9770 O   0  0  0  0  0  1  0  0  0  0  0  0
  191.9780  176.5560  144.7210 C   0  0  1  0  0  3  0  0  0  0  0  0
  190.1200  175.1320  144.1550 C   0  0  1  0  0  3  0  0  0  0  0  0
  190.1950  175.1430  145.6670 C   0  0  0  0  0  2  0  0  0  0  0  0
  192.5110  174.9150  146.5120 C   0  0  0  0  0  1  0  0  0  0  0  0
  190.9580  177.4640  144.1690 N   0  0  0  0  0  2  0  0  0  0  0  0
  184.0660  178.7110  146.1440 N   0  0  0  0  0  1  0  0  0  0  0  0
  184.5780  178.9090  144.7990 C   0  0  0  0  0  2  0  0  0  0  0  0
  2  5  1  0  0  0  0
  3 32  1  0  0  0  0
  3  1  2  0  0  0  0
  4  3  1  0  0  0  0
  5  7  1  0  0  0  0
  6  2  2  0  0  0  0
  6  8  1  0  0  0  0
  7  9  2  0  0  0  0
  8  4  2  0  0  0  0
  8  7  1  0  0  0  0
  9  1  1  0  0  0  0
 10 17  1  0  0  0  0
 11 10  2  0  0  0  0
 11 13  1  0  0  0  0
 12 11  1  0  0  0  0
 13 14  1  0  0  0  0
 13 18  2  0  0  0  0
 15 19  2  0  0  0  0
 16 15  1  0  0  0  0
 16 12  2  0  0  0  0
 17 18  1  0  0  0  0
 17  2  1  6  0  0  0
 19 10  1  0  0  0  0
 20 22  2  0  0  0  0
 21 22  1  0  0  0  0
 22 12  1  0  0  0  0
 23 29  1  1  0  0  0
 23 25  1  0  0  0  0
 24 27  1  0  0  0  0
 24 30  1  1  0  0  0
 24 26  1  0  0  0  0
 26 30  1  1  0  0  0
 26 23  1  0  0  0  0
 27  5  1  1  0  0  0
 27 28  1  0  0  0  0
 28 23  1  0  0  0  0
 32 31  1  0  0  0  0
M  END
>  <MODEL>
5

>  <REMARK>
 VINA RESULT:      -7.4      1.521      2.104
  Name = 
  4 active torsions:
  status: ('A' for Active; 'I' for Inactive)
    1  A    between atoms: C_5  and  C_27
    2  A    between atoms: C_6  and  C_26
    3  A    between atoms: C_9  and  C_29
    4  A    between atoms: N_16  and  C_20
                            x       y       z     vdW  Elec       q    Type
                         _______ _______ _______ _____ _____    ______ ____

>  <TORSDO>
F 4

$$$$
=
 OpenBabel11042419353D

 32 37  0  0  1  0  0  0  0  0999 V2000
  186.3640  176.3500  143.3890 C   0  0  0  0  0  3  0  0  0  0  0  0
  190.4670  175.0970  144.6460 C   0  0  0  0  0  0  0  0  0  0  0  0
  186.3820  176.8950  144.6920 C   0  0  0  0  0  0  0  0  0  0  0  0
  187.5170  176.7430  145.5120 C   0  0  0  0  0  3  0  0  0  0  0  0
  189.7710  174.9280  143.4870 N   0  0  0  0  0  0  0  0  0  0  0  0
  189.7770  175.7930  145.5890 N   0  0  0  0  0  0  0  0  0  0  0  0
  188.5910  175.5340  143.7230 C   0  0  0  0  0  0  0  0  0  0  0  0
  188.6060  176.0550  144.9830 C   0  0  0  0  0  0  0  0  0  0  0  0
  187.4810  175.6590  142.8860 C   0  0  0  0  0  3  0  0  0  0  0  0
  192.9830  175.3420  144.9800 C   0  0  0  0  0  0  0  0  0  0  0  0
  194.0630  174.4280  145.2250 C   0  0  0  0  0  0  0  0  0  0  0  0
  195.3640  174.9290  145.4030 C   0  0  0  0  0  0  0  0  0  0  0  0
  193.4630  173.1760  145.2920 C   0  0  0  0  0  0  0  0  0  0  0  0
  194.2060  171.6490  145.7290 Cl  0  0  0  0  0  0  0  0  0  0  0  0
  194.4990  177.1660  145.1500 C   0  0  0  0  0  3  0  0  0  0  0  0
  195.5260  176.2870  145.3670 N   0  0  0  0  0  2  0  0  0  0  0  0
  191.8350  174.5860  144.8860 C   0  0  0  0  0  0  0  0  0  0  0  0
  192.1290  173.2780  145.0820 N   0  0  0  0  0  0  0  0  0  0  0  0
  193.1870  176.7150  144.9460 C   0  0  0  0  0  3  0  0  0  0  0  0
  196.9760  173.7890  146.7290 O   0  0  0  0  0  0  0  0  0  0  0  0
  197.1960  173.5190  144.4400 N   0  0  0  0  0  1  0  0  0  0  0  0
  196.5580  174.0860  145.5800 C   0  0  0  0  0  0  0  0  0  0  0  0
  189.2080  173.5200  140.2090 C   0  0  2  0  0  0  0  0  0  0  0  0
  189.8430  172.6940  142.4040 C   0  0  1  0  0  3  0  0  0  0  0  0
  187.9120  173.6980  139.7210 O   0  0  0  0  0  1  0  0  0  0  0  0
  189.2670  172.2940  141.1190 C   0  0  1  0  0  3  0  0  0  0  0  0
  190.1970  174.1740  142.3030 C   0  0  1  0  0  3  0  0  0  0  0  0
  189.6230  174.7300  141.0170 C   0  0  0  0  0  2  0  0  0  0  0  0
  190.1620  173.3330  139.0450 C   0  0  0  0  0  1  0  0  0  0  0  0
  188.3910  172.4770  142.2900 N   0  0  0  0  0  2  0  0  0  0  0  0
  184.8180  177.0640  146.5120 N   0  0  0  0  0  1  0  0  0  0  0  0
  185.1820  177.6040  145.2130 C   0  0  0  0  0  2  0  0  0  0  0  0
  1  3  1  0  0  0  0
  2 17  1  0  0  0  0
  2  6  2  0  0  0  0
  3 32  1  0  0  0  0
  3  4  2  0  0  0  0
  5  7  1  0  0  0  0
  5  2  1  0  0  0  0
  7  8  2  0  0  0  0
  8  4  1  0  0  0  0
  8  6  1  0  0  0  0
  9  1  2  0  0  0  0
  9  7  1  0  0  0  0
 10 11  1  0  0  0  0
 11 13  1  0  0  0  0
 11 12  2  0  0  0  0
 12 22  1  0  0  0  0
 13 14  1  0  0  0  0
 15 16  1  0  0  0  0
 16 12  1  0  0  0  0
 17 10  2  0  0  0  0
 17 18  1  0  0  0  0
 18 13  2  0  0  0  0
 19 10  1  0  0  0  0
 19 15  2  0  0  0  0
 21 22  1  0  0  0  0
 22 20  2  0  0  0  0
 23 29  1  6  0  0  0
 23 28  1  0  0  0  0
 23 26  1  0  0  0  0
 24 30  1  1  0  0  0
 25 23  1  0  0  0  0
 26 30  1  1  0  0  0
 26 24  1  0  0  0  0
 27 28  1  6  0  0  0
 27 24  1  0  0  0  0
 27  5  1  0  0  0  0
 32 31  1  0  0  0  0
M  END
>  <MODEL>
6

>  <REMARK>
 VINA RESULT:      -7.3      3.187      6.146
  Name = 
  4 active torsions:
  status: ('A' for Active; 'I' for Inactive)
    1  A    between atoms: C_5  and  C_27
    2  A    between atoms: C_6  and  C_26
    3  A    between atoms: C_9  and  C_29
    4  A    between atoms: N_16  and  C_20
                            x       y       z     vdW  Elec       q    Type
                         _______ _______ _______ _____ _____    ______ ____

>  <TORSDO>
F 4

$$$$
=
 OpenBabel11042419353D

 32 37  0  0  1  0  0  0  0  0999 V2000
  195.4830  174.2520  142.9640 C   0  0  0  0  0  3  0  0  0  0  0  0
  191.5900  176.0540  144.2250 C   0  0  0  0  0  0  0  0  0  0  0  0
  195.9570  175.4640  143.5120 C   0  0  0  0  0  0  0  0  0  0  0  0
  195.0560  176.4020  144.0530 C   0  0  0  0  0  3  0  0  0  0  0  0
  191.9030  174.8670  143.6320 N   0  0  0  0  0  0  0  0  0  0  0  0
  192.6800  176.8220  144.4910 N   0  0  0  0  0  0  0  0  0  0  0  0
  193.2440  174.9050  143.5130 C   0  0  0  0  0  0  0  0  0  0  0  0
  193.7020  176.0780  144.0360 C   0  0  0  0  0  0  0  0  0  0  0  0
  194.1080  173.9560  142.9610 C   0  0  0  0  0  3  0  0  0  0  0  0
  189.3580  177.1780  143.7250 C   0  0  0  0  0  0  0  0  0  0  0  0
  188.1390  177.3750  144.4600 C   0  0  0  0  0  0  0  0  0  0  0  0
  187.0580  178.0260  143.8420 C   0  0  0  0  0  0  0  0  0  0  0  0
  188.3550  176.7510  145.6830 C   0  0  0  0  0  0  0  0  0  0  0  0
  187.1990  176.4890  146.9760 Cl  0  0  0  0  0  0  0  0  0  0  0  0
  188.3690  178.2120  141.8260 C   0  0  0  0  0  3  0  0  0  0  0  0
  187.2160  178.4120  142.5390 N   0  0  0  0  0  0  0  0  0  0  0  0
  190.2160  176.4900  144.5550 C   0  0  1  0  0  3  0  0  0  0  0  0
  189.6030  176.2280  145.7340 N   0  0  0  0  0  0  0  0  0  0  0  0
  189.4820  177.5870  142.4050 C   0  0  0  0  0  3  0  0  0  0  0  0
  184.8400  177.5340  144.5430 O   0  0  0  0  0  0  0  0  0  0  0  0
  185.6750  179.5770  145.2400 N   0  0  0  0  0  1  0  0  0  0  0  0
  185.7930  178.3540  144.5190 C   0  0  0  0  0  0  0  0  0  0  0  0
  191.1080  171.8280  141.8500 C   0  0  2  0  0  0  0  0  0  0  0  0
  190.4230  174.1580  141.7670 C   0  0  1  0  0  3  0  0  0  0  0  0
  192.1930  171.2470  141.1900 O   0  0  0  0  0  1  0  0  0  0  0  0
  190.4860  172.9230  140.9840 C   0  0  1  0  0  3  0  0  0  0  0  0
  190.9660  173.8430  143.1580 C   0  0  1  0  0  3  0  0  0  0  0  0
  191.5710  172.4550  143.1460 C   0  0  0  0  0  2  0  0  0  0  0  0
  190.0690  170.7630  142.1430 C   0  0  0  0  0  1  0  0  0  0  0  0
  191.4610  173.9990  140.7340 N   0  0  0  0  0  2  0  0  0  0  0  0
  197.6210  177.1480  143.0860 N   0  0  0  0  0  1  0  0  0  0  0  0
  197.4140  175.7680  143.4860 C   0  0  0  0  0  2  0  0  0  0  0  0
  1  3  1  0  0  0  0
  2  6  2  0  0  0  0
  3  4  2  0  0  0  0
  5  2  1  0  0  0  0
  7  5  1  0  0  0  0
  7  8  2  0  0  0  0
  8  4  1  0  0  0  0
  8  6  1  0  0  0  0
  9  1  2  0  0  0  0
  9  7  1  0  0  0  0
 10 11  2  0  0  0  0
 10 17  1  0  0  0  0
 11 13  1  0  0  0  0
 12 11  1  0  0  0  0
 12 22  1  0  0  0  0
 13 18  2  0  0  0  0
 13 14  1  0  0  0  0
 15 19  2  0  0  0  0
 15 16  1  0  0  0  0
 16 12  2  0  0  0  0
 17  2  1  6  0  0  0
 17 18  1  0  0  0  0
 19 10  1  0  0  0  0
 22 20  2  0  0  0  0
 22 21  1  0  0  0  0
 23 29  1  1  0  0  0
 23 28  1  0  0  0  0
 24 30  1  6  0  0  0
 24 27  1  0  0  0  0
 25 23  1  0  0  0  0
 26 30  1  6  0  0  0
 26 24  1  0  0  0  0
 26 23  1  0  0  0  0
 27 28  1  6  0  0  0
 27  5  1  0  0  0  0
 31 32  1  0  0  0  0
 32  3  1  0  0  0  0
M  END
>  <MODEL>
7

>  <REMARK>
 VINA RESULT:      -7.2      3.395      7.773
  Name = 
  4 active torsions:
  status: ('A' for Active; 'I' for Inactive)
    1  A    between atoms: C_5  and  C_27
    2  A    between atoms: C_6  and  C_26
    3  A    between atoms: C_9  and  C_29
    4  A    between atoms: N_16  and  C_20
                            x       y       z     vdW  Elec       q    Type
                         _______ _______ _______ _____ _____    ______ ____

>  <TORSDO>
F 4

$$$$
=
 OpenBabel11042419353D

 32 37  0  0  1  0  0  0  0  0999 V2000
  195.1810  172.7170  144.6690 C   0  0  0  0  0  3  0  0  0  0  0  0
  191.5560  175.2950  144.2150 C   0  0  0  0  0  0  0  0  0  0  0  0
  195.5610  173.7970  145.4960 C   0  0  0  0  0  0  0  0  0  0  0  0
  194.7030  174.9010  145.6670 C   0  0  0  0  0  3  0  0  0  0  0  0
  191.8830  174.0730  143.7070 N   0  0  0  0  0  0  0  0  0  0  0  0
  192.5180  175.8130  145.0250 N   0  0  0  0  0  0  0  0  0  0  0  0
  193.1070  173.8260  144.2120 C   0  0  0  0  0  0  0  0  0  0  0  0
  193.4780  174.8710  145.0050 C   0  0  0  0  0  0  0  0  0  0  0  0
  193.9360  172.7210  144.0140 C   0  0  0  0  0  3  0  0  0  0  0  0
  189.2170  176.1330  144.7860 C   0  0  0  0  0  0  0  0  0  0  0  0
  188.2270  176.9130  144.0960 C   0  0  0  0  0  0  0  0  0  0  0  0
  187.0230  177.2320  144.7470 C   0  0  0  0  0  0  0  0  0  0  0  0
  188.8100  177.2290  142.8750 C   0  0  0  0  0  0  0  0  0  0  0  0
  188.1890  178.3000  141.6320 Cl  0  0  0  0  0  0  0  0  0  0  0  0
  187.8180  176.0730  146.7070 C   0  0  0  0  0  3  0  0  0  0  0  0
  186.8720  176.8030  146.0370 N   0  0  0  0  0  2  0  0  0  0  0  0
  190.2920  176.0100  143.9320 C   0  0  0  0  0  0  0  0  0  0  0  0
  190.0450  176.6800  142.7820 N   0  0  0  0  0  0  0  0  0  0  0  0
  189.0260  175.7120  146.0940 C   0  0  0  0  0  3  0  0  0  0  0  0
  185.1640  177.3870  143.2730 O   0  0  0  0  0  0  0  0  0  0  0  0
  185.6010  179.2820  144.5290 N   0  0  0  0  0  1  0  0  0  0  0  0
  185.9070  177.9540  144.1150 C   0  0  0  0  0  0  0  0  0  0  0  0
  188.8210  173.2250  141.9890 C   0  0  2  0  0  0  0  0  0  0  0  0
  190.4170  172.0880  143.4270 C   0  0  1  0  0  3  0  0  0  0  0  0
  187.7110  173.9700  142.3910 O   0  0  0  0  0  1  0  0  0  0  0  0
  189.0390  172.0460  142.9360 C   0  0  1  0  0  3  0  0  0  0  0  0
  191.1020  173.2750  142.7560 C   0  0  1  0  0  3  0  0  0  0  0  0
  190.0610  174.0920  142.0220 C   0  0  0  0  0  2  0  0  0  0  0  0
  188.5980  172.7090  140.5810 C   0  0  0  0  0  1  0  0  0  0  0  0
  189.3160  172.5240  144.3020 N   0  0  0  0  0  2  0  0  0  0  0  0
  197.9400  173.9440  145.1710 N   0  0  0  0  0  1  0  0  0  0  0  0
  196.8910  173.7850  146.1630 C   0  0  0  0  0  2  0  0  0  0  0  0
  1  3  1  0  0  0  0
  2  6  2  0  0  0  0
  3  4  2  0  0  0  0
  3 32  1  0  0  0  0
  5  7  1  0  0  0  0
  5  2  1  0  0  0  0
  7  8  2  0  0  0  0
  8  6  1  0  0  0  0
  8  4  1  0  0  0  0
  9  7  1  0  0  0  0
  9  1  2  0  0  0  0
 10 19  1  0  0  0  0
 11 12  2  0  0  0  0
 11 10  1  0  0  0  0
 12 16  1  0  0  0  0
 13 11  1  0  0  0  0
 14 13  1  0  0  0  0
 16 15  1  0  0  0  0
 17  2  1  0  0  0  0
 17 10  2  0  0  0  0
 18 13  2  0  0  0  0
 18 17  1  0  0  0  0
 19 15  2  0  0  0  0
 20 22  2  0  0  0  0
 22 21  1  0  0  0  0
 22 12  1  0  0  0  0
 23 29  1  6  0  0  0
 23 28  1  0  0  0  0
 23 25  1  0  0  0  0
 23 26  1  0  0  0  0
 24 30  1  1  0  0  0
 26 24  1  0  0  0  0
 26 30  1  1  0  0  0
 27 28  1  1  0  0  0
 27 24  1  0  0  0  0
 27  5  1  0  0  0  0
 31 32  1  0  0  0  0
M  END
>  <MODEL>
8

>  <REMARK>
 VINA RESULT:      -6.9      3.151      7.480
  Name = 
  4 active torsions:
  status: ('A' for Active; 'I' for Inactive)
    1  A    between atoms: C_5  and  C_27
    2  A    between atoms: C_6  and  C_26
    3  A    between atoms: C_9  and  C_29
    4  A    between atoms: N_16  and  C_20
                            x       y       z     vdW  Elec       q    Type
                         _______ _______ _______ _____ _____    ______ ____

>  <TORSDO>
F 4

$$$$
=
 OpenBabel11042419353D

 32 37  0  0  1  0  0  0  0  0999 V2000
  185.6420  178.1170  143.6400 C   0  0  0  0  0  3  0  0  0  0  0  0
  189.6850  176.2170  143.4650 C   0  0  0  0  0  0  0  0  0  0  0  0
  185.7060  177.8390  142.2560 C   0  0  0  0  0  0  0  0  0  0  0  0
  186.8450  177.2200  141.7060 C   0  0  0  0  0  3  0  0  0  0  0  0
  188.9510  176.7220  144.4970 N   0  0  0  0  0  0  0  0  0  0  0  0
  189.0490  176.3000  142.2660 N   0  0  0  0  0  0  0  0  0  0  0  0
  187.8160  177.1500  143.9130 C   0  0  0  0  0  0  0  0  0  0  0  0
  187.8800  176.8880  142.5770 C   0  0  0  0  0  0  0  0  0  0  0  0
  186.7060  177.7690  144.4910 C   0  0  0  0  0  3  0  0  0  0  0  0
  191.3360  174.2970  143.7590 C   0  0  0  0  0  0  0  0  0  0  0  0
  192.7660  174.1980  143.8420 C   0  0  0  0  0  0  0  0  0  0  0  0
  193.3650  172.9330  143.9670 C   0  0  0  0  0  0  0  0  0  0  0  0
  193.2230  175.5030  143.6960 C   0  0  0  0  0  0  0  0  0  0  0  0
  194.8820  176.0510  143.5430 Cl  0  0  0  0  0  0  0  0  0  0  0  0
  191.1750  171.9280  143.8740 C   0  0  0  0  0  3  0  0  0  0  0  0
  192.5380  171.8430  143.9690 N   0  0  0  0  0  2  0  0  0  0  0  0
  191.0370  175.6330  143.6040 C   0  0  0  0  0  0  0  0  0  0  0  0
  192.1810  176.3570  143.5590 N   0  0  0  0  0  0  0  0  0  0  0  0
  190.5290  173.1670  143.7680 C   0  0  0  0  0  3  0  0  0  0  0  0
  195.3210  172.6460  145.2890 O   0  0  0  0  0  0  0  0  0  0  0  0
  195.6310  172.4850  143.0010 N   0  0  0  0  0  1  0  0  0  0  0  0
  194.8100  172.7150  144.1410 C   0  0  0  0  0  0  0  0  0  0  0  0
  191.1150  175.9330  147.2800 C   0  0  2  0  0  0  0  0  0  0  0  0
  188.7420  175.7680  146.7810 C   0  0  1  0  0  3  0  0  0  0  0  0
  192.1020  174.9890  146.9910 O   0  0  0  0  0  1  0  0  0  0  0  0
  189.8030  175.2360  147.6380 C   0  0  1  0  0  3  0  0  0  0  0  0
  189.3670  176.8440  145.8990 C   0  0  1  0  0  3  0  0  0  0  0  0
  190.8710  176.8070  146.0690 C   0  0  0  0  0  2  0  0  0  0  0  0
  191.5660  176.7920  148.4450 C   0  0  0  0  0  1  0  0  0  0  0  0
  189.3130  174.4400  146.4990 N   0  0  0  0  0  2  0  0  0  0  0  0
  183.3460  178.2920  142.1360 N   0  0  0  0  0  1  0  0  0  0  0  0
  184.5790  178.2350  141.3690 C   0  0  0  0  0  2  0  0  0  0  0  0
  1  9  1  0  0  0  0
  2 17  1  0  0  0  0
  2  5  1  0  0  0  0
  3  1  2  0  0  0  0
  4  3  1  0  0  0  0
  4  8  2  0  0  0  0
  6  8  1  0  0  0  0
  6  2  2  0  0  0  0
  7  9  2  0  0  0  0
  7  5  1  0  0  0  0
  8  7  1  0  0  0  0
 10 19  1  0  0  0  0
 10 11  1  0  0  0  0
 11 12  2  0  0  0  0
 12 16  1  0  0  0  0
 12 22  1  0  0  0  0
 13 11  1  0  0  0  0
 14 13  1  0  0  0  0
 15 16  1  0  0  0  0
 17 10  2  0  0  0  0
 18 17  1  0  0  0  0
 18 13  2  0  0  0  0
 19 15  2  0  0  0  0
 21 22  1  0  0  0  0
 22 20  2  0  0  0  0
 23 26  1  0  0  0  0
 23 29  1  1  0  0  0
 24 30  1  6  0  0  0
 24 26  1  0  0  0  0
 25 23  1  0  0  0  0
 26 30  1  6  0  0  0
 27  5  1  6  0  0  0
 27 28  1  0  0  0  0
 27 24  1  0  0  0  0
 28 23  1  0  0  0  0
 32 31  1  0  0  0  0
 32  3  1  0  0  0  0
M  END
>  <MODEL>
9

>  <REMARK>
 VINA RESULT:      -6.8      3.380      4.278
  Name = 
  4 active torsions:
  status: ('A' for Active; 'I' for Inactive)
    1  A    between atoms: C_5  and  C_27
    2  A    between atoms: C_6  and  C_26
    3  A    between atoms: C_9  and  C_29
    4  A    between atoms: N_16  and  C_20
                            x       y       z     vdW  Elec       q    Type
                         _______ _______ _______ _____ _____    ______ ____

>  <TORSDO>
F 4

$$$$
