=
 OpenBabel11042415313D

 47 54  0  0  1  0  0  0  0  0999 V2000
  190.1410  175.2040  142.5030 N   0  0  0  0  0  0  0  0  0  0  0  0
  191.0170  174.1490  145.1730 C   0  0  0  0  0  2  0  0  0  0  0  0
  189.6680  173.7990  140.6930 N   0  0  0  0  0  0  0  0  0  0  0  0
  189.1450  177.4020  142.6560 N   0  0  0  0  0  0  0  0  0  0  0  0
  186.8310  177.1930  139.9520 N   0  0  0  0  0  0  0  0  0  0  0  0
  188.2290  175.5750  147.2510 C   0  0  0  0  0  3  0  0  0  0  0  0
  187.4830  177.8980  140.9890 N   0  0  0  0  0  0  0  0  0  0  0  0
  189.3490  174.8560  146.8380 C   0  0  0  0  0  3  0  0  0  0  0  0
  189.9030  175.0590  145.5690 C   0  0  0  0  0  0  0  0  0  0  0  0
  189.1810  174.8460  141.5190 C   0  0  2  0  0  3  0  0  0  0  0  0
  191.3230  174.4770  142.1230 C   0  0  0  0  0  0  0  0  0  0  0  0
  191.0310  173.6500  141.1050 C   0  0  0  0  0  0  0  0  0  0  0  0
  189.3460  176.0340  144.6970 C   0  0  0  0  0  0  0  0  0  0  0  0
  187.3800  175.8150  139.9760 C   0  0  0  0  0  3  0  0  0  0  0  0
  189.0850  173.3110  139.4520 C   0  0  0  0  0  1  0  0  0  0  0  0
  187.6440  176.5140  146.3970 C   0  0  0  0  0  0  0  0  0  0  0  0
  189.9800  176.3990  143.3580 C   0  0  1  0  0  3  0  0  0  0  0  0
  192.6920  174.6030  142.7800 C   0  0  2  0  0  3  0  0  0  0  0  0
  188.2290  175.7230  141.1980 C   0  0  0  0  0  0  0  0  0  0  0  0
  188.2120  176.7450  145.1350 C   0  0  0  0  0  3  0  0  0  0  0  0
  192.3780  174.8170  145.2780 C   0  0  0  0  0  2  0  0  0  0  0  0
  188.2640  177.0270  141.7720 C   0  0  0  0  0  0  0  0  0  0  0  0
  192.7290  175.5470  143.9820 C   0  0  0  0  0  2  0  0  0  0  0  0
  186.2710  178.1060  147.6990 O   0  0  0  0  0  0  0  0  0  0  0  0
  184.3370  177.8990  146.8020 N   0  0  0  0  0  0  0  0  0  0  0  0
  185.1590  177.0370  146.1750 C   0  0  0  0  0  3  0  0  0  0  0  0
  185.0510  178.5330  147.7240 N   0  0  0  0  0  0  0  0  0  0  0  0
  186.3940  177.1920  146.7700 C   0  0  0  0  0  0  0  0  0  0  0  0
  194.3470  176.2110  142.0560 O   0  0  0  0  0  1  0  0  0  0  0  0
  193.8010  174.9520  141.7880 C   0  0  0  0  0  2  0  0  0  0  0  0
  192.0120  172.7850  140.3770 C   0  0  0  0  0  2  0  0  0  0  0  0
  191.9710  171.3740  140.9580 C   0  0  0  0  0  2  0  0  0  0  0  0
  192.5710  170.9570  143.3620 C   0  0  0  0  0  1  0  0  0  0  0  0
  193.1070  171.1130  141.9460 C   0  0  1  0  0  3  0  0  0  0  0  0
  193.8300  169.9590  141.5820 O   0  0  0  0  0  0  0  0  0  0  0  0
  196.4120  171.7090  142.3390 C   0  0  2  0  0  3  0  0  0  0  0  0
  195.3470  171.6620  141.4140 O   0  0  0  0  0  0  0  0  0  0  0  0
  196.2240  169.4670  141.7040 C   0  0  0  0  0  2  0  0  0  0  0  0
  196.7430  170.3190  142.8100 C   0  0  0  0  0  2  0  0  0  0  0  0
  195.1130  170.3080  141.0840 C   0  0  1  0  0  0  0  0  0  0  0  0
  195.1650  170.1820  139.5630 C   0  0  0  0  0  1  0  0  0  0  0  0
  196.0800  172.6210  143.5190 C   0  0  0  0  0  3  0  0  0  0  0  0
  196.4040  174.8710  144.6090 C   0  0  0  0  0  2  0  0  0  0  0  0
  196.2590  171.8640  144.8440 C   0  0  0  0  0  2  0  0  0  0  0  0
  196.0810  174.1410  145.9270 C   0  0  0  0  0  2  0  0  0  0  0  0
  196.8750  173.9340  143.4960 C   0  0  0  0  0  2  0  0  0  0  0  0
  196.7330  172.7610  145.9940 C   0  0  0  0  0  2  0  0  0  0  0  0
  1 17  1  0  0  0  0
  2 21  1  0  0  0  0
  2  9  1  0  0  0  0
  3 12  1  0  0  0  0
  3 10  1  0  0  0  0
  5 14  1  0  0  0  0
  5  7  2  0  0  0  0
  7 22  1  0  0  0  0
  8  6  1  0  0  0  0
  9  8  2  0  0  0  0
 10 19  1  6  0  0  0
 10  1  1  0  0  0  0
 11  1  1  0  0  0  0
 11 18  1  0  0  0  0
 12 11  2  0  0  0  0
 13 20  2  0  0  0  0
 13  9  1  0  0  0  0
 14 19  2  0  0  0  0
 15  3  1  0  0  0  0
 16 28  1  0  0  0  0
 16  6  2  0  0  0  0
 17  4  1  6  0  0  0
 17 13  1  0  0  0  0
 18 30  1  6  0  0  0
 18 23  1  0  0  0  0
 19 22  1  0  0  0  0
 20 16  1  0  0  0  0
 22  4  2  0  0  0  0
 23 21  1  0  0  0  0
 24 27  1  0  0  0  0
 25 27  2  0  0  0  0
 26 28  2  0  0  0  0
 26 25  1  0  0  0  0
 28 24  1  0  0  0  0
 30 29  1  0  0  0  0
 31 32  1  0  0  0  0
 31 12  1  0  0  0  0
 32 34  1  0  0  0  0
 34 33  1  1  0  0  0
 35 34  1  0  0  0  0
 36 39  1  0  0  0  0
 36 42  1  1  0  0  0
 37 36  1  0  0  0  0
 38 39  1  0  0  0  0
 40 41  1  6  0  0  0
 40 37  1  0  0  0  0
 40 35  1  0  0  0  0
 40 38  1  0  0  0  0
 42 44  1  0  0  0  0
 43 45  1  0  0  0  0
 44 47  1  0  0  0  0
 45 47  1  0  0  0  0
 46 42  1  0  0  0  0
 46 43  1  0  0  0  0
M  END
>  <MODEL>
1

>  <REMARK>
 VINA RESULT:      -7.9      0.000      0.000
  Name = 
  8 active torsions:
  status: ('A' for Active; 'I' for Inactive)
    1  A    between atoms: C_4  and  C_6
    2  A    between atoms: C_15  and  O_36
    3  A    between atoms: C_15  and  C_40
    4  A    between atoms: C_22  and  C_24
    5  A    between atoms: C_24  and  C_40
    6  A    between atoms: C_30  and  O_36
    7  A    between atoms: C_31  and  C_35
    8  A    between atoms: C_33  and  C_37
                            x       y       z     vdW  Elec       q    Type
                         _______ _______ _______ _____ _____    ______ ____

>  <TORSDO>
F 8

$$$$
=
 OpenBabel11042415313D

 47 54  0  0  1  0  0  0  0  0999 V2000
  192.2520  175.0010  143.6300 N   0  0  0  0  0  0  0  0  0  0  0  0
  194.5680  176.6700  144.5600 C   0  0  0  0  0  2  0  0  0  0  0  0
  190.2520  175.9460  142.8670 N   0  0  0  0  0  0  0  0  0  0  0  0
  192.9280  172.7930  142.9150 N   0  0  0  0  0  0  0  0  0  0  0  0
  190.4640  172.2000  140.4090 N   0  0  0  0  0  0  0  0  0  0  0  0
  197.1360  175.4270  142.1150 C   0  0  0  0  0  3  0  0  0  0  0  0
  191.5540  171.7960  141.2110 N   0  0  0  0  0  0  0  0  0  0  0  0
  196.4870  176.1560  143.1090 C   0  0  0  0  0  3  0  0  0  0  0  0
  195.2370  175.7530  143.5930 C   0  0  0  0  0  0  0  0  0  0  0  0
  191.3100  175.0480  142.5680 C   0  0  2  0  0  3  0  0  0  0  0  0
  191.6270  175.7510  144.6880 C   0  0  0  0  0  0  0  0  0  0  0  0
  190.4970  176.3150  144.2290 C   0  0  0  0  0  0  0  0  0  0  0  0
  194.6310  174.5660  143.0960 C   0  0  0  0  0  0  0  0  0  0  0  0
  190.1640  173.6020  140.7900 C   0  0  0  0  0  3  0  0  0  0  0  0
  188.9980  176.1040  142.1450 C   0  0  0  0  0  1  0  0  0  0  0  0
  196.5430  174.2770  141.5870 C   0  0  0  0  0  0  0  0  0  0  0  0
  193.3380  173.9980  143.6730 C   0  0  1  0  0  3  0  0  0  0  0  0
  192.1660  175.9030  146.1050 C   0  0  2  0  0  3  0  0  0  0  0  0
  191.2580  174.0320  141.7060 C   0  0  0  0  0  0  0  0  0  0  0  0
  195.3050  173.8490  142.0880 C   0  0  0  0  0  3  0  0  0  0  0  0
  194.6750  176.1800  145.9950 C   0  0  0  0  0  2  0  0  0  0  0  0
  192.0730  172.8850  141.9370 C   0  0  0  0  0  0  0  0  0  0  0  0
  193.5230  175.2380  146.3380 C   0  0  0  0  0  2  0  0  0  0  0  0
  197.4730  172.2970  140.4340 O   0  0  0  0  0  0  0  0  0  0  0  0
  197.9350  173.0610  138.4880 N   0  0  0  0  0  0  0  0  0  0  0  0
  197.4460  174.0870  139.2100 C   0  0  0  0  0  3  0  0  0  0  0  0
  197.9360  171.9880  139.2670 N   0  0  0  0  0  0  0  0  0  0  0  0
  197.1570  173.5670  140.4550 C   0  0  0  0  0  0  0  0  0  0  0  0
  191.1730  176.3500  148.2640 O   0  0  0  0  0  1  0  0  0  0  0  0
  191.1640  175.4720  147.1750 C   0  0  0  0  0  2  0  0  0  0  0  0
  189.5250  177.1060  145.0460 C   0  0  0  0  0  2  0  0  0  0  0  0
  188.4280  176.1800  145.5630 C   0  0  0  0  0  2  0  0  0  0  0  0
  186.4200  175.6890  144.1330 C   0  0  0  0  0  1  0  0  0  0  0  0
  187.0300  176.6400  145.1530 C   0  0  1  0  0  3  0  0  0  0  0  0
  186.1860  176.7340  146.2790 O   0  0  0  0  0  0  0  0  0  0  0  0
  185.0910  179.4680  145.0030 C   0  0  2  0  0  3  0  0  0  0  0  0
  186.2770  178.8770  145.4870 O   0  0  0  0  0  0  0  0  0  0  0  0
  184.4870  178.3560  146.9690 C   0  0  0  0  0  2  0  0  0  0  0  0
  183.9000  178.8700  145.7000 C   0  0  0  0  0  2  0  0  0  0  0  0
  185.9480  178.0920  146.6160 C   0  0  1  0  0  0  0  0  0  0  0  0
  186.8410  178.5370  147.7710 C   0  0  0  0  0  1  0  0  0  0  0  0
  184.9730  179.3110  143.4870 C   0  0  0  0  0  3  0  0  0  0  0  0
  183.7830  178.1980  141.5630 C   0  0  0  0  0  2  0  0  0  0  0  0
  186.3590  179.0850  142.8650 C   0  0  0  0  0  2  0  0  0  0  0  0
  185.0860  178.4410  140.7790 C   0  0  0  0  0  2  0  0  0  0  0  0
  183.9750  178.2170  143.0810 C   0  0  0  0  0  2  0  0  0  0  0  0
  186.3280  178.1770  141.6310 C   0  0  0  0  0  2  0  0  0  0  0  0
  1 17  1  0  0  0  0
  1 11  1  0  0  0  0
  2 21  1  0  0  0  0
  3 12  1  0  0  0  0
  5 14  1  0  0  0  0
  5  7  2  0  0  0  0
  6  8  1  0  0  0  0
  7 22  1  0  0  0  0
  8  9  2  0  0  0  0
  9  2  1  0  0  0  0
 10 19  1  1  0  0  0
 10  3  1  0  0  0  0
 10  1  1  0  0  0  0
 11 18  1  0  0  0  0
 12 11  2  0  0  0  0
 12 31  1  0  0  0  0
 13  9  1  0  0  0  0
 13 17  1  0  0  0  0
 14 19  2  0  0  0  0
 15  3  1  0  0  0  0
 16 20  1  0  0  0  0
 16  6  2  0  0  0  0
 17  4  1  6  0  0  0
 18 23  1  0  0  0  0
 18 30  1  1  0  0  0
 19 22  1  0  0  0  0
 20 13  2  0  0  0  0
 21 23  1  0  0  0  0
 22  4  2  0  0  0  0
 24 28  1  0  0  0  0
 25 26  1  0  0  0  0
 25 27  2  0  0  0  0
 26 28  2  0  0  0  0
 27 24  1  0  0  0  0
 28 16  1  0  0  0  0
 30 29  1  0  0  0  0
 31 32  1  0  0  0  0
 34 33  1  6  0  0  0
 34 32  1  0  0  0  0
 34 35  1  0  0  0  0
 35 40  1  0  0  0  0
 36 42  1  6  0  0  0
 36 37  1  0  0  0  0
 36 39  1  0  0  0  0
 37 40  1  0  0  0  0
 39 38  1  0  0  0  0
 40 38  1  0  0  0  0
 40 41  1  1  0  0  0
 43 46  1  0  0  0  0
 44 42  1  0  0  0  0
 45 43  1  0  0  0  0
 45 47  1  0  0  0  0
 46 42  1  0  0  0  0
 47 44  1  0  0  0  0
M  END
>  <MODEL>
2

>  <REMARK>
 VINA RESULT:      -7.8      2.907      9.841
  Name = 
  8 active torsions:
  status: ('A' for Active; 'I' for Inactive)
    1  A    between atoms: C_4  and  C_6
    2  A    between atoms: C_15  and  O_36
    3  A    between atoms: C_15  and  C_40
    4  A    between atoms: C_22  and  C_24
    5  A    between atoms: C_24  and  C_40
    6  A    between atoms: C_30  and  O_36
    7  A    between atoms: C_31  and  C_35
    8  A    between atoms: C_33  and  C_37
                            x       y       z     vdW  Elec       q    Type
                         _______ _______ _______ _____ _____    ______ ____

>  <TORSDO>
F 8

$$$$
=
 OpenBabel11042415313D

 47 54  0  0  1  0  0  0  0  0999 V2000
  189.3300  175.2330  143.3360 N   0  0  0  0  0  0  0  0  0  0  0  0
  188.5110  176.8290  145.7430 C   0  0  0  0  0  2  0  0  0  0  0  0
  189.7510  172.9340  143.4400 N   0  0  0  0  0  0  0  0  0  0  0  0
  188.6570  176.2750  141.2610 N   0  0  0  0  0  0  0  0  0  0  0  0
  188.1520  173.3600  139.2710 N   0  0  0  0  0  0  0  0  0  0  0  0
  185.2220  178.1010  144.4460 C   0  0  0  0  0  3  0  0  0  0  0  0
  188.2190  174.7610  139.4440 N   0  0  0  0  0  0  0  0  0  0  0  0
  186.3000  177.8030  145.2760 C   0  0  0  0  0  3  0  0  0  0  0  0
  187.4680  177.2320  144.7560 C   0  0  0  0  0  0  0  0  0  0  0  0
  189.0160  173.9600  142.7900 C   0  0  2  0  0  3  0  0  0  0  0  0
  190.4420  174.9760  144.2130 C   0  0  0  0  0  0  0  0  0  0  0  0
  190.6530  173.6510  144.2900 C   0  0  0  0  0  0  0  0  0  0  0  0
  187.5790  176.9840  143.3600 C   0  0  0  0  0  0  0  0  0  0  0  0
  188.4460  172.7640  140.5970 C   0  0  0  0  0  3  0  0  0  0  0  0
  189.8760  171.5430  143.0300 C   0  0  0  0  0  1  0  0  0  0  0  0
  185.2950  177.8340  143.0760 C   0  0  0  0  0  0  0  0  0  0  0  0
  188.8680  176.4910  142.7110 C   0  0  1  0  0  3  0  0  0  0  0  0
  191.2480  176.0330  144.9570 C   0  0  2  0  0  3  0  0  0  0  0  0
  188.4890  173.8950  141.5660 C   0  0  0  0  0  0  0  0  0  0  0  0
  186.4730  177.2910  142.5420 C   0  0  0  0  0  3  0  0  0  0  0  0
  189.6670  177.8140  145.8010 C   0  0  0  0  0  2  0  0  0  0  0  0
  188.3550  175.0920  140.8050 C   0  0  0  0  0  0  0  0  0  0  0  0
  190.7370  177.4620  144.7690 C   0  0  0  0  0  2  0  0  0  0  0  0
  182.8940  178.2080  142.6190 O   0  0  0  0  0  0  0  0  0  0  0  0
  182.8420  178.3670  140.4840 N   0  0  0  0  0  0  0  0  0  0  0  0
  184.1210  178.1270  140.8320 C   0  0  0  0  0  3  0  0  0  0  0  0
  182.1250  178.4100  141.5990 N   0  0  0  0  0  0  0  0  0  0  0  0
  184.1250  178.0310  142.2090 C   0  0  0  0  0  0  0  0  0  0  0  0
  193.3920  177.1500  145.0040 O   0  0  0  0  0  1  0  0  0  0  0  0
  192.7460  175.9550  144.6690 C   0  0  0  0  0  2  0  0  0  0  0  0
  191.7690  172.9890  145.0370 C   0  0  0  0  0  2  0  0  0  0  0  0
  192.8670  172.5910  144.0550 C   0  0  0  0  0  2  0  0  0  0  0  0
  193.6140  170.3050  144.7840 C   0  0  0  0  0  1  0  0  0  0  0  0
  193.9810  171.7800  144.7160 C   0  0  1  0  0  3  0  0  0  0  0  0
  195.1950  171.9370  144.0170 O   0  0  0  0  0  0  0  0  0  0  0  0
  197.3540  174.3030  144.2190 C   0  0  2  0  0  3  0  0  0  0  0  0
  197.2670  172.9030  144.0650 O   0  0  0  0  0  0  0  0  0  0  0  0
  195.7190  173.6000  145.7350 C   0  0  0  0  0  2  0  0  0  0  0  0
  196.1630  174.8080  144.9870 C   0  0  0  0  0  2  0  0  0  0  0  0
  196.2080  172.4370  144.8770 C   0  0  1  0  0  0  0  0  0  0  0  0
  196.7590  171.3340  145.7760 C   0  0  0  0  0  1  0  0  0  0  0  0
  197.4700  175.0040  142.8670 C   0  0  0  0  0  3  0  0  0  0  0  0
  196.3980  176.5450  141.1850 C   0  0  0  0  0  2  0  0  0  0  0  0
  197.9190  174.0070  141.7870 C   0  0  0  0  0  2  0  0  0  0  0  0
  197.2700  175.8160  140.1460 C   0  0  0  0  0  2  0  0  0  0  0  0
  196.1850  175.7420  142.4690 C   0  0  0  0  0  2  0  0  0  0  0  0
  197.3330  174.3100  140.4030 C   0  0  0  0  0  2  0  0  0  0  0  0
  1 11  1  0  0  0  0
  2 21  1  0  0  0  0
  3 12  1  0  0  0  0
  5  7  2  0  0  0  0
  5 14  1  0  0  0  0
  6  8  1  0  0  0  0
  7 22  1  0  0  0  0
  9  8  2  0  0  0  0
  9  2  1  0  0  0  0
 10 19  1  6  0  0  0
 10  1  1  0  0  0  0
 10  3  1  0  0  0  0
 11 12  2  0  0  0  0
 11 18  1  0  0  0  0
 12 31  1  0  0  0  0
 13  9  1  0  0  0  0
 14 19  2  0  0  0  0
 15  3  1  0  0  0  0
 16  6  2  0  0  0  0
 17  4  1  6  0  0  0
 17  1  1  0  0  0  0
 17 13  1  0  0  0  0
 18 30  1  6  0  0  0
 20 16  1  0  0  0  0
 20 13  2  0  0  0  0
 22  4  2  0  0  0  0
 22 19  1  0  0  0  0
 23 18  1  0  0  0  0
 23 21  1  0  0  0  0
 25 26  1  0  0  0  0
 25 27  2  0  0  0  0
 26 28  2  0  0  0  0
 27 24  1  0  0  0  0
 28 24  1  0  0  0  0
 28 16  1  0  0  0  0
 30 29  1  0  0  0  0
 32 34  1  0  0  0  0
 32 31  1  0  0  0  0
 34 33  1  6  0  0  0
 35 34  1  0  0  0  0
 35 40  1  0  0  0  0
 36 42  1  6  0  0  0
 36 39  1  0  0  0  0
 37 36  1  0  0  0  0
 37 40  1  0  0  0  0
 39 38  1  0  0  0  0
 40 38  1  0  0  0  0
 40 41  1  1  0  0  0
 43 46  1  0  0  0  0
 44 42  1  0  0  0  0
 45 47  1  0  0  0  0
 45 43  1  0  0  0  0
 46 42  1  0  0  0  0
 47 44  1  0  0  0  0
M  END
>  <MODEL>
3

>  <REMARK>
 VINA RESULT:      -7.7      2.652      4.014
  Name = 
  8 active torsions:
  status: ('A' for Active; 'I' for Inactive)
    1  A    between atoms: C_4  and  C_6
    2  A    between atoms: C_15  and  O_36
    3  A    between atoms: C_15  and  C_40
    4  A    between atoms: C_22  and  C_24
    5  A    between atoms: C_24  and  C_40
    6  A    between atoms: C_30  and  O_36
    7  A    between atoms: C_31  and  C_35
    8  A    between atoms: C_33  and  C_37
                            x       y       z     vdW  Elec       q    Type
                         _______ _______ _______ _____ _____    ______ ____

>  <TORSDO>
F 8

$$$$
=
 OpenBabel11042415313D

 47 54  0  0  1  0  0  0  0  0999 V2000
  191.0650  174.5340  143.5410 N   0  0  0  0  0  0  0  0  0  0  0  0
  188.8250  174.4740  141.5430 C   0  0  0  0  0  2  0  0  0  0  0  0
  193.2090  175.2940  142.9970 N   0  0  0  0  0  0  0  0  0  0  0  0
  190.2700  174.6010  145.8230 N   0  0  0  0  0  0  0  0  0  0  0  0
  192.9170  176.4630  147.3180 N   0  0  0  0  0  0  0  0  0  0  0  0
  186.4220  176.7120  143.3700 C   0  0  0  0  0  3  0  0  0  0  0  0
  191.7180  175.7190  147.3850 N   0  0  0  0  0  0  0  0  0  0  0  0
  187.0270  175.9220  142.3950 C   0  0  0  0  0  3  0  0  0  0  0  0
  188.1790  175.1820  142.6860 C   0  0  0  0  0  0  0  0  0  0  0  0
  192.1110  175.4290  143.8870 C   0  0  2  0  0  3  0  0  0  0  0  0
  191.6410  173.6930  142.5240 C   0  0  0  0  0  0  0  0  0  0  0  0
  192.8590  174.1590  142.1970 C   0  0  0  0  0  0  0  0  0  0  0  0
  188.7250  175.2020  143.9990 C   0  0  0  0  0  0  0  0  0  0  0  0
  193.3010  176.5050  145.8850 C   0  0  0  0  0  3  0  0  0  0  0  0
  194.5400  175.8650  143.1450 C   0  0  0  0  0  1  0  0  0  0  0  0
  186.9610  176.7740  144.6570 C   0  0  0  0  0  0  0  0  0  0  0  0
  189.8940  174.3170  144.4180 C   0  0  1  0  0  3  0  0  0  0  0  0
  190.9750  172.4760  141.8970 C   0  0  2  0  0  3  0  0  0  0  0  0
  192.1600  175.9160  145.1280 C   0  0  0  0  0  0  0  0  0  0  0  0
  188.0970  176.0120  144.9660 C   0  0  0  0  0  3  0  0  0  0  0  0
  188.5260  172.9830  141.5390 C   0  0  0  0  0  2  0  0  0  0  0  0
  191.2270  175.4430  146.0950 C   0  0  0  0  0  0  0  0  0  0  0  0
  189.5470  172.2200  142.3800 C   0  0  0  0  0  2  0  0  0  0  0  0
  186.0910  178.9490  145.4520 O   0  0  0  0  0  0  0  0  0  0  0  0
  185.5390  178.5210  147.4770 N   0  0  0  0  0  0  0  0  0  0  0  0
  186.0610  177.3920  146.9610 C   0  0  0  0  0  3  0  0  0  0  0  0
  185.5740  179.4470  146.5270 N   0  0  0  0  0  0  0  0  0  0  0  0
  186.4050  177.6950  145.6600 C   0  0  0  0  0  0  0  0  0  0  0  0
  192.1580  170.9400  143.3430 O   0  0  0  0  0  1  0  0  0  0  0  0
  191.8180  171.2070  142.0130 C   0  0  0  0  0  2  0  0  0  0  0  0
  193.8090  173.5140  141.2380 C   0  0  0  0  0  2  0  0  0  0  0  0
  193.5970  174.1020  139.8450 C   0  0  0  0  0  2  0  0  0  0  0  0
  194.6580  175.1330  137.8150 C   0  0  0  0  0  1  0  0  0  0  0  0
  194.9120  174.4330  139.1410 C   0  0  1  0  0  3  0  0  0  0  0  0
  195.7260  175.2430  139.9590 O   0  0  0  0  0  0  0  0  0  0  0  0
  197.8160  173.5490  141.7080 C   0  0  2  0  0  3  0  0  0  0  0  0
  197.5690  174.8630  141.2580 O   0  0  0  0  0  0  0  0  0  0  0  0
  197.1860  173.3420  139.4660 C   0  0  0  0  0  2  0  0  0  0  0  0
  197.2460  172.5580  140.7310 C   0  0  0  0  0  2  0  0  0  0  0  0
  197.0700  174.7880  139.9380 C   0  0  1  0  0  0  0  0  0  0  0  0
  197.9390  175.6830  139.0580 C   0  0  0  0  0  1  0  0  0  0  0  0
  197.2470  173.3260  143.1080 C   0  0  0  0  0  3  0  0  0  0  0  0
  197.2140  174.0600  145.5200 C   0  0  0  0  0  2  0  0  0  0  0  0
  197.3110  171.8360  143.4790 C   0  0  0  0  0  2  0  0  0  0  0  0
  196.7820  172.6130  145.8250 C   0  0  0  0  0  2  0  0  0  0  0  0
  197.9150  174.2120  144.1680 C   0  0  0  0  0  2  0  0  0  0  0  0
  197.5420  171.5950  144.9750 C   0  0  0  0  0  2  0  0  0  0  0  0
  1 10  1  0  0  0  0
  1 17  1  0  0  0  0
  2  9  1  0  0  0  0
  3 15  1  0  0  0  0
  3 10  1  0  0  0  0
  4 22  2  0  0  0  0
  5  7  2  0  0  0  0
  6 16  1  0  0  0  0
  8  9  1  0  0  0  0
  8  6  2  0  0  0  0
  9 13  2  0  0  0  0
 10 19  1  1  0  0  0
 11  1  1  0  0  0  0
 12 11  2  0  0  0  0
 12  3  1  0  0  0  0
 13 20  1  0  0  0  0
 14  5  1  0  0  0  0
 16 20  2  0  0  0  0
 16 28  1  0  0  0  0
 17 13  1  6  0  0  0
 17  4  1  0  0  0  0
 18 30  1  1  0  0  0
 18 23  1  0  0  0  0
 18 11  1  0  0  0  0
 19 14  2  0  0  0  0
 19 22  1  0  0  0  0
 21  2  1  0  0  0  0
 21 23  1  0  0  0  0
 22  7  1  0  0  0  0
 24 28  1  0  0  0  0
 24 27  1  0  0  0  0
 26 25  1  0  0  0  0
 27 25  2  0  0  0  0
 28 26  2  0  0  0  0
 30 29  1  0  0  0  0
 31 12  1  0  0  0  0
 32 31  1  0  0  0  0
 34 33  1  6  0  0  0
 34 32  1  0  0  0  0
 34 35  1  0  0  0  0
 36 42  1  1  0  0  0
 37 36  1  0  0  0  0
 38 40  1  0  0  0  0
 38 39  1  0  0  0  0
 39 36  1  0  0  0  0
 40 41  1  6  0  0  0
 40 35  1  0  0  0  0
 40 37  1  0  0  0  0
 42 44  1  0  0  0  0
 42 46  1  0  0  0  0
 43 45  1  0  0  0  0
 44 47  1  0  0  0  0
 46 43  1  0  0  0  0
 47 45  1  0  0  0  0
M  END
>  <MODEL>
4

>  <REMARK>
 VINA RESULT:      -7.3      2.350      4.301
  Name = 
  8 active torsions:
  status: ('A' for Active; 'I' for Inactive)
    1  A    between atoms: C_4  and  C_6
    2  A    between atoms: C_15  and  O_36
    3  A    between atoms: C_15  and  C_40
    4  A    between atoms: C_22  and  C_24
    5  A    between atoms: C_24  and  C_40
    6  A    between atoms: C_30  and  O_36
    7  A    between atoms: C_31  and  C_35
    8  A    between atoms: C_33  and  C_37
                            x       y       z     vdW  Elec       q    Type
                         _______ _______ _______ _____ _____    ______ ____

>  <TORSDO>
F 8

$$$$
=
 OpenBabel11042415313D

 47 54  0  0  1  0  0  0  0  0999 V2000
  191.5330  173.1380  139.5270 N   0  0  0  0  0  0  0  0  0  0  0  0
  193.3750  174.8710  141.1460 C   0  0  0  0  0  2  0  0  0  0  0  0
  189.4250  173.8660  138.8220 N   0  0  0  0  0  0  0  0  0  0  0  0
  192.7130  171.4080  138.3180 N   0  0  0  0  0  0  0  0  0  0  0  0
  190.5860  171.1170  135.4730 N   0  0  0  0  0  0  0  0  0  0  0  0
  196.2900  174.9120  138.7740 C   0  0  0  0  0  3  0  0  0  0  0  0
  191.6890  170.7110  136.2570 N   0  0  0  0  0  0  0  0  0  0  0  0
  195.4420  175.1800  139.8470 C   0  0  0  0  0  3  0  0  0  0  0  0
  194.2820  174.4220  140.0500 C   0  0  0  0  0  0  0  0  0  0  0  0
  190.6680  173.3140  138.4150 C   0  0  2  0  0  3  0  0  0  0  0  0
  190.7010  173.4120  140.6680 C   0  0  0  0  0  0  0  0  0  0  0  0
  189.5040  173.8600  140.2510 C   0  0  0  0  0  0  0  0  0  0  0  0
  193.9770  173.3410  139.1790 C   0  0  0  0  0  0  0  0  0  0  0  0
  189.9680  172.2620  136.1860 C   0  0  0  0  0  3  0  0  0  0  0  0
  188.2110  173.9870  138.0270 C   0  0  0  0  0  1  0  0  0  0  0  0
  195.9910  173.8770  137.8850 C   0  0  0  0  0  0  0  0  0  0  0  0
  192.8060  172.3940  139.4210 C   0  0  1  0  0  3  0  0  0  0  0  0
  191.1090  173.2420  142.1260 C   0  0  2  0  0  3  0  0  0  0  0  0
  190.8880  172.6040  137.3070 C   0  0  0  0  0  0  0  0  0  0  0  0
  194.8480  173.0930  138.1000 C   0  0  0  0  0  3  0  0  0  0  0  0
  193.5010  174.0120  142.3930 C   0  0  0  0  0  2  0  0  0  0  0  0
  191.9160  171.6180  137.3090 C   0  0  0  0  0  0  0  0  0  0  0  0
  192.5620  172.8090  142.3260 C   0  0  0  0  0  2  0  0  0  0  0  0
  197.1370  172.4940  136.1850 O   0  0  0  0  0  0  0  0  0  0  0  0
  197.9410  173.9640  134.8500 N   0  0  0  0  0  0  0  0  0  0  0  0
  197.3170  174.6280  135.8410 C   0  0  0  0  0  3  0  0  0  0  0  0
  197.8090  172.6660  135.0940 N   0  0  0  0  0  0  0  0  0  0  0  0
  196.8090  173.6600  136.6830 C   0  0  0  0  0  0  0  0  0  0  0  0
  190.1140  171.0510  142.3570 O   0  0  0  0  0  1  0  0  0  0  0  0
  190.1640  172.3340  142.9100 C   0  0  0  0  0  2  0  0  0  0  0  0
  188.3370  174.1760  141.1330 C   0  0  0  0  0  2  0  0  0  0  0  0
  188.2500  175.6870  141.3330 C   0  0  0  0  0  2  0  0  0  0  0  0
  186.3160  175.9170  142.9210 C   0  0  0  0  0  1  0  0  0  0  0  0
  187.8210  176.0690  142.7490 C   0  0  1  0  0  3  0  0  0  0  0  0
  188.4910  175.2770  143.7040 O   0  0  0  0  0  0  0  0  0  0  0  0
  188.3320  177.4290  146.0800 C   0  0  2  0  0  3  0  0  0  0  0  0
  188.6740  177.3200  144.7150 O   0  0  0  0  0  0  0  0  0  0  0  0
  189.5700  175.4540  145.8940 C   0  0  0  0  0  2  0  0  0  0  0  0
  188.5650  176.1140  146.7720 C   0  0  0  0  0  2  0  0  0  0  0  0
  189.3260  176.0810  144.5240 C   0  0  1  0  0  0  0  0  0  0  0  0
  190.6640  176.3560  143.8430 C   0  0  0  0  0  1  0  0  0  0  0  0
  186.8860  177.8900  146.2530 C   0  0  0  0  0  3  0  0  0  0  0  0
  184.5070  177.2390  146.7760 C   0  0  0  0  0  2  0  0  0  0  0  0
  186.4670  178.7850  145.0770 C   0  0  0  0  0  2  0  0  0  0  0  0
  184.1170  178.4850  145.9580 C   0  0  0  0  0  2  0  0  0  0  0  0
  185.9120  176.7220  146.4620 C   0  0  0  0  0  2  0  0  0  0  0  0
  184.9850  178.6480  144.7110 C   0  0  0  0  0  2  0  0  0  0  0  0
  1 11  1  0  0  0  0
  2 21  1  0  0  0  0
  3 12  1  0  0  0  0
  5 14  1  0  0  0  0
  5  7  2  0  0  0  0
  6  8  1  0  0  0  0
  7 22  1  0  0  0  0
  8  9  2  0  0  0  0
  9  2  1  0  0  0  0
 10 19  1  1  0  0  0
 10  3  1  0  0  0  0
 10  1  1  0  0  0  0
 11 18  1  0  0  0  0
 12 11  2  0  0  0  0
 12 31  1  0  0  0  0
 13 17  1  0  0  0  0
 13  9  1  0  0  0  0
 14 19  2  0  0  0  0
 15  3  1  0  0  0  0
 16 20  1  0  0  0  0
 16  6  2  0  0  0  0
 17  4  1  6  0  0  0
 17  1  1  0  0  0  0
 18 23  1  0  0  0  0
 18 30  1  6  0  0  0
 19 22  1  0  0  0  0
 20 13  2  0  0  0  0
 22  4  2  0  0  0  0
 23 21  1  0  0  0  0
 24 28  1  0  0  0  0
 25 27  2  0  0  0  0
 25 26  1  0  0  0  0
 26 28  2  0  0  0  0
 27 24  1  0  0  0  0
 28 16  1  0  0  0  0
 29 30  1  0  0  0  0
 31 32  1  0  0  0  0
 32 34  1  0  0  0  0
 34 33  1  6  0  0  0
 34 35  1  0  0  0  0
 35 40  1  0  0  0  0
 36 42  1  6  0  0  0
 36 39  1  0  0  0  0
 37 36  1  0  0  0  0
 38 39  1  0  0  0  0
 40 41  1  6  0  0  0
 40 37  1  0  0  0  0
 40 38  1  0  0  0  0
 42 46  1  0  0  0  0
 44 42  1  0  0  0  0
 45 43  1  0  0  0  0
 46 43  1  0  0  0  0
 47 44  1  0  0  0  0
 47 45  1  0  0  0  0
M  END
>  <MODEL>
5

>  <REMARK>
 VINA RESULT:      -7.2      3.706      9.556
  Name = 
  8 active torsions:
  status: ('A' for Active; 'I' for Inactive)
    1  A    between atoms: C_4  and  C_6
    2  A    between atoms: C_15  and  O_36
    3  A    between atoms: C_15  and  C_40
    4  A    between atoms: C_22  and  C_24
    5  A    between atoms: C_24  and  C_40
    6  A    between atoms: C_30  and  O_36
    7  A    between atoms: C_31  and  C_35
    8  A    between atoms: C_33  and  C_37
                            x       y       z     vdW  Elec       q    Type
                         _______ _______ _______ _____ _____    ______ ____

>  <TORSDO>
F 8

$$$$
=
 OpenBabel11042415313D

 47 54  0  0  1  0  0  0  0  0999 V2000
  190.1170  175.1780  142.5770 N   0  0  0  0  0  0  0  0  0  0  0  0
  190.9160  174.0820  145.2560 C   0  0  0  0  0  2  0  0  0  0  0  0
  189.5810  173.7970  140.7670 N   0  0  0  0  0  0  0  0  0  0  0  0
  189.2390  177.4260  142.7200 N   0  0  0  0  0  0  0  0  0  0  0  0
  186.9370  177.3380  140.0010 N   0  0  0  0  0  0  0  0  0  0  0  0
  188.1940  175.6600  147.3110 C   0  0  0  0  0  3  0  0  0  0  0  0
  187.6190  178.0080  141.0410 N   0  0  0  0  0  0  0  0  0  0  0  0
  189.2770  174.8810  146.9080 C   0  0  0  0  0  3  0  0  0  0  0  0
  189.8490  175.0510  145.6420 C   0  0  0  0  0  0  0  0  0  0  0  0
  189.1460  174.8710  141.5880 C   0  0  2  0  0  3  0  0  0  0  0  0
  191.2610  174.3870  142.2080 C   0  0  0  0  0  0  0  0  0  0  0  0
  190.9310  173.5750  141.1880 C   0  0  0  0  0  0  0  0  0  0  0  0
  189.3530  176.0540  144.7650 C   0  0  0  0  0  0  0  0  0  0  0  0
  187.4100  175.9320  140.0310 C   0  0  0  0  0  3  0  0  0  0  0  0
  188.9820  173.3390  139.5220 C   0  0  0  0  0  1  0  0  0  0  0  0
  187.6670  176.6270  146.4520 C   0  0  0  0  0  0  0  0  0  0  0  0
  190.0150  176.3820  143.4300 C   0  0  1  0  0  3  0  0  0  0  0  0
  192.6300  174.4410  142.8740 C   0  0  2  0  0  3  0  0  0  0  0  0
  188.2440  175.7960  141.2580 C   0  0  0  0  0  0  0  0  0  0  0  0
  188.2550  176.8260  145.1940 C   0  0  0  0  0  3  0  0  0  0  0  0
  192.3100  174.6760  145.3690 C   0  0  0  0  0  2  0  0  0  0  0  0
  188.3460  177.0970  141.8300 C   0  0  0  0  0  0  0  0  0  0  0  0
  192.7090  175.3830  144.0750 C   0  0  0  0  0  2  0  0  0  0  0  0
  186.4040  178.4050  147.6190 O   0  0  0  0  0  0  0  0  0  0  0  0
  184.4090  178.1160  146.8930 N   0  0  0  0  0  0  0  0  0  0  0  0
  185.1770  177.1630  146.3320 C   0  0  0  0  0  3  0  0  0  0  0  0
  185.1920  178.8540  147.6700 N   0  0  0  0  0  0  0  0  0  0  0  0
  186.4530  177.3730  146.8150 C   0  0  0  0  0  0  0  0  0  0  0  0
  193.8190  176.0850  141.5580 O   0  0  0  0  0  1  0  0  0  0  0  0
  193.7630  174.7270  141.8900 C   0  0  0  0  0  2  0  0  0  0  0  0
  191.8690  172.6570  140.4690 C   0  0  0  0  0  2  0  0  0  0  0  0
  192.0360  171.3720  141.2740 C   0  0  0  0  0  2  0  0  0  0  0  0
  190.8160  169.1780  141.3720 C   0  0  0  0  0  1  0  0  0  0  0  0
  191.6140  170.1290  140.4930 C   0  0  1  0  0  3  0  0  0  0  0  0
  190.8500  170.4860  139.3620 O   0  0  0  0  0  0  0  0  0  0  0  0
  192.3890  170.9420  136.5830 C   0  0  2  0  0  3  0  0  0  0  0  0
  191.1140  170.6210  137.0950 O   0  0  0  0  0  0  0  0  0  0  0  0
  192.7660  169.3970  138.2980 C   0  0  0  0  0  2  0  0  0  0  0  0
  193.4550  170.4760  137.5360 C   0  0  0  0  0  2  0  0  0  0  0  0
  191.2910  169.7770  138.2140 C   0  0  1  0  0  0  0  0  0  0  0  0
  190.4520  168.5210  137.9900 C   0  0  0  0  0  1  0  0  0  0  0  0
  192.5160  172.4400  136.3110 C   0  0  0  0  0  3  0  0  0  0  0  0
  193.6560  174.6080  136.9060 C   0  0  0  0  0  2  0  0  0  0  0  0
  191.1260  173.0920  136.2600 C   0  0  0  0  0  2  0  0  0  0  0  0
  192.3810  175.2830  136.3660 C   0  0  0  0  0  2  0  0  0  0  0  0
  193.4470  173.1470  137.3060 C   0  0  0  0  0  2  0  0  0  0  0  0
  191.1150  174.5340  136.7810 C   0  0  0  0  0  2  0  0  0  0  0  0
  1 17  1  0  0  0  0
  2 21  1  0  0  0  0
  2  9  1  0  0  0  0
  3 12  1  0  0  0  0
  3 10  1  0  0  0  0
  5 14  1  0  0  0  0
  5  7  2  0  0  0  0
  7 22  1  0  0  0  0
  8  6  1  0  0  0  0
  9  8  2  0  0  0  0
 10 19  1  6  0  0  0
 10  1  1  0  0  0  0
 11  1  1  0  0  0  0
 11 18  1  0  0  0  0
 12 11  2  0  0  0  0
 13 20  2  0  0  0  0
 13  9  1  0  0  0  0
 14 19  2  0  0  0  0
 15  3  1  0  0  0  0
 16 28  1  0  0  0  0
 16  6  2  0  0  0  0
 17  4  1  6  0  0  0
 17 13  1  0  0  0  0
 18 30  1  6  0  0  0
 18 23  1  0  0  0  0
 19 22  1  0  0  0  0
 20 16  1  0  0  0  0
 22  4  2  0  0  0  0
 23 21  1  0  0  0  0
 24 27  1  0  0  0  0
 25 27  2  0  0  0  0
 26 28  2  0  0  0  0
 26 25  1  0  0  0  0
 28 24  1  0  0  0  0
 29 30  1  0  0  0  0
 31 12  1  0  0  0  0
 31 32  1  0  0  0  0
 34 32  1  0  0  0  0
 34 33  1  1  0  0  0
 35 34  1  0  0  0  0
 36 42  1  1  0  0  0
 36 37  1  0  0  0  0
 36 39  1  0  0  0  0
 37 40  1  0  0  0  0
 39 38  1  0  0  0  0
 40 41  1  6  0  0  0
 40 38  1  0  0  0  0
 40 35  1  0  0  0  0
 42 46  1  0  0  0  0
 43 46  1  0  0  0  0
 44 42  1  0  0  0  0
 44 47  1  0  0  0  0
 45 47  1  0  0  0  0
 45 43  1  0  0  0  0
M  END
>  <MODEL>
6

>  <REMARK>
 VINA RESULT:      -7.1      2.194      3.972
  Name = 
  8 active torsions:
  status: ('A' for Active; 'I' for Inactive)
    1  A    between atoms: C_4  and  C_6
    2  A    between atoms: C_15  and  O_36
    3  A    between atoms: C_15  and  C_40
    4  A    between atoms: C_22  and  C_24
    5  A    between atoms: C_24  and  C_40
    6  A    between atoms: C_30  and  O_36
    7  A    between atoms: C_31  and  C_35
    8  A    between atoms: C_33  and  C_37
                            x       y       z     vdW  Elec       q    Type
                         _______ _______ _______ _____ _____    ______ ____

>  <TORSDO>
F 8

$$$$
=
 OpenBabel11042415313D

 47 54  0  0  1  0  0  0  0  0999 V2000
  190.1300  175.2640  142.6310 N   0  0  0  0  0  0  0  0  0  0  0  0
  190.9340  174.2470  145.3390 C   0  0  0  0  0  2  0  0  0  0  0  0
  189.7240  173.8330  140.8250 N   0  0  0  0  0  0  0  0  0  0  0  0
  189.1110  177.4540  142.7280 N   0  0  0  0  0  0  0  0  0  0  0  0
  186.8810  177.1940  139.9590 N   0  0  0  0  0  0  0  0  0  0  0  0
  188.0730  175.6730  147.3150 C   0  0  0  0  0  3  0  0  0  0  0  0
  187.4960  177.9160  141.0070 N   0  0  0  0  0  0  0  0  0  0  0  0
  189.2110  174.9590  146.9450 C   0  0  0  0  0  3  0  0  0  0  0  0
  189.8010  175.1520  145.6900 C   0  0  0  0  0  0  0  0  0  0  0  0
  189.2040  174.8860  141.6240 C   0  0  2  0  0  3  0  0  0  0  0  0
  191.3300  174.5420  142.2960 C   0  0  0  0  0  0  0  0  0  0  0  0
  191.0750  173.7010  141.2790 C   0  0  0  0  0  0  0  0  0  0  0  0
  189.2630  176.1120  144.7900 C   0  0  0  0  0  0  0  0  0  0  0  0
  187.4410  175.8210  140.0160 C   0  0  0  0  0  3  0  0  0  0  0  0
  189.1820  173.3260  139.5720 C   0  0  0  0  0  1  0  0  0  0  0  0
  187.5070  176.5960  146.4330 C   0  0  0  0  0  0  0  0  0  0  0  0
  189.9340  176.4670  143.4670 C   0  0  1  0  0  3  0  0  0  0  0  0
  192.6770  174.6890  142.9910 C   0  0  2  0  0  3  0  0  0  0  0  0
  188.2540  175.7500  141.2630 C   0  0  0  0  0  0  0  0  0  0  0  0
  188.1100  176.8180  145.1860 C   0  0  0  0  0  3  0  0  0  0  0  0
  192.2860  174.9290  145.4760 C   0  0  0  0  0  2  0  0  0  0  0  0
  188.2610  177.0610  141.8220 C   0  0  0  0  0  0  0  0  0  0  0  0
  192.6690  175.6460  144.1830 C   0  0  0  0  0  2  0  0  0  0  0  0
  186.0080  177.9740  147.8370 O   0  0  0  0  0  0  0  0  0  0  0  0
  184.2310  178.0940  146.6490 N   0  0  0  0  0  0  0  0  0  0  0  0
  185.1070  177.3260  145.9740 C   0  0  0  0  0  3  0  0  0  0  0  0
  184.8160  178.4710  147.7790 N   0  0  0  0  0  0  0  0  0  0  0  0
  186.2400  177.2670  146.7600 C   0  0  0  0  0  0  0  0  0  0  0  0
  193.9040  176.4160  141.8260 O   0  0  0  0  0  1  0  0  0  0  0  0
  193.8120  175.0350  142.0300 C   0  0  0  0  0  2  0  0  0  0  0  0
  192.0850  172.8370  140.5910 C   0  0  0  0  0  2  0  0  0  0  0  0
  192.5730  173.5380  139.3270 C   0  0  0  0  0  2  0  0  0  0  0  0
  194.1760  173.5130  137.3930 C   0  0  0  0  0  1  0  0  0  0  0  0
  193.7950  172.8580  138.7120 C   0  0  1  0  0  3  0  0  0  0  0  0
  194.8900  172.9020  139.5990 O   0  0  0  0  0  0  0  0  0  0  0  0
  195.6740  170.4840  141.5590 C   0  0  2  0  0  3  0  0  0  0  0  0
  196.2540  171.5510  140.8410 O   0  0  0  0  0  0  0  0  0  0  0  0
  194.6420  170.4710  139.4600 C   0  0  0  0  0  2  0  0  0  0  0  0
  194.4230  170.0200  140.8630 C   0  0  0  0  0  2  0  0  0  0  0  0
  195.5830  171.6630  139.6020 C   0  0  1  0  0  0  0  0  0  0  0  0
  196.6330  171.6190  138.4950 C   0  0  0  0  0  1  0  0  0  0  0  0
  195.3790  170.8830  143.0030 C   0  0  0  0  0  3  0  0  0  0  0  0
  193.6300  171.4780  144.7180 C   0  0  0  0  0  2  0  0  0  0  0  0
  196.3120  172.0230  143.4420 C   0  0  0  0  0  2  0  0  0  0  0  0
  194.7630  172.2440  145.4270 C   0  0  0  0  0  2  0  0  0  0  0  0
  193.9010  171.2290  143.2340 C   0  0  0  0  0  2  0  0  0  0  0  0
  195.6590  172.9890  144.4380 C   0  0  0  0  0  2  0  0  0  0  0  0
  1 17  1  0  0  0  0
  2 21  1  0  0  0  0
  2  9  1  0  0  0  0
  3 12  1  0  0  0  0
  3 10  1  0  0  0  0
  5 14  1  0  0  0  0
  5  7  2  0  0  0  0
  7 22  1  0  0  0  0
  8  6  1  0  0  0  0
  9  8  2  0  0  0  0
 10 19  1  6  0  0  0
 10  1  1  0  0  0  0
 11  1  1  0  0  0  0
 11 18  1  0  0  0  0
 12 11  2  0  0  0  0
 13 20  2  0  0  0  0
 13  9  1  0  0  0  0
 14 19  2  0  0  0  0
 15  3  1  0  0  0  0
 16 28  1  0  0  0  0
 16  6  2  0  0  0  0
 17  4  1  6  0  0  0
 17 13  1  0  0  0  0
 18 30  1  6  0  0  0
 18 23  1  0  0  0  0
 19 22  1  0  0  0  0
 20 16  1  0  0  0  0
 22  4  2  0  0  0  0
 23 21  1  0  0  0  0
 25 27  2  0  0  0  0
 26 25  1  0  0  0  0
 26 28  2  0  0  0  0
 27 24  1  0  0  0  0
 28 24  1  0  0  0  0
 29 30  1  0  0  0  0
 31 12  1  0  0  0  0
 32 31  1  0  0  0  0
 34 33  1  6  0  0  0
 34 32  1  0  0  0  0
 34 35  1  0  0  0  0
 35 40  1  0  0  0  0
 36 42  1  1  0  0  0
 37 36  1  0  0  0  0
 38 40  1  0  0  0  0
 38 39  1  0  0  0  0
 39 36  1  0  0  0  0
 40 41  1  6  0  0  0
 40 37  1  0  0  0  0
 42 46  1  0  0  0  0
 42 44  1  0  0  0  0
 43 45  1  0  0  0  0
 44 47  1  0  0  0  0
 46 43  1  0  0  0  0
 47 45  1  0  0  0  0
M  END
>  <MODEL>
7

>  <REMARK>
 VINA RESULT:      -7.0      1.037      1.864
  Name = 
  8 active torsions:
  status: ('A' for Active; 'I' for Inactive)
    1  A    between atoms: C_4  and  C_6
    2  A    between atoms: C_15  and  O_36
    3  A    between atoms: C_15  and  C_40
    4  A    between atoms: C_22  and  C_24
    5  A    between atoms: C_24  and  C_40
    6  A    between atoms: C_30  and  O_36
    7  A    between atoms: C_31  and  C_35
    8  A    between atoms: C_33  and  C_37
                            x       y       z     vdW  Elec       q    Type
                         _______ _______ _______ _____ _____    ______ ____

>  <TORSDO>
F 8

$$$$
=
 OpenBabel11042415313D

 47 54  0  0  1  0  0  0  0  0999 V2000
  190.1120  174.4940  144.0450 N   0  0  0  0  0  0  0  0  0  0  0  0
  189.8840  175.1750  146.9600 C   0  0  0  0  0  2  0  0  0  0  0  0
  190.2070  172.2860  143.2770 N   0  0  0  0  0  0  0  0  0  0  0  0
  189.3090  176.2690  142.6130 N   0  0  0  0  0  0  0  0  0  0  0  0
  188.1090  174.3250  139.8760 N   0  0  0  0  0  0  0  0  0  0  0  0
  186.6620  177.1030  146.8060 C   0  0  0  0  0  3  0  0  0  0  0  0
  188.4020  175.5580  140.5020 N   0  0  0  0  0  0  0  0  0  0  0  0
  187.7930  176.4340  147.2700 C   0  0  0  0  0  3  0  0  0  0  0  0
  188.7790  175.9940  146.3810 C   0  0  0  0  0  0  0  0  0  0  0  0
  189.5440  173.5370  143.1640 C   0  0  2  0  0  3  0  0  0  0  0  0
  191.2890  173.8450  144.5600 C   0  0  0  0  0  0  0  0  0  0  0  0
  191.3150  172.5690  144.1380 C   0  0  0  0  0  0  0  0  0  0  0  0
  188.6540  176.2590  144.9890 C   0  0  0  0  0  0  0  0  0  0  0  0
  188.5000  173.2670  140.8400 C   0  0  0  0  0  3  0  0  0  0  0  0
  190.0710  171.1330  142.3990 C   0  0  0  0  0  1  0  0  0  0  0  0
  186.5000  177.3440  145.4390 C   0  0  0  0  0  0  0  0  0  0  0  0
  189.7530  175.9270  143.9850 C   0  0  1  0  0  3  0  0  0  0  0  0
  192.3370  174.4890  145.4580 C   0  0  2  0  0  3  0  0  0  0  0  0
  188.8440  173.9630  142.1120 C   0  0  0  0  0  0  0  0  0  0  0  0
  187.4990  176.9330  144.5440 C   0  0  0  0  0  3  0  0  0  0  0  0
  191.1660  175.9710  147.1370 C   0  0  0  0  0  2  0  0  0  0  0  0
  188.7770  175.3610  141.8440 C   0  0  0  0  0  0  0  0  0  0  0  0
  192.0160  175.9270  145.8690 C   0  0  0  0  0  2  0  0  0  0  0  0
  184.3730  178.5900  145.6350 O   0  0  0  0  0  0  0  0  0  0  0  0
  183.6890  178.6720  143.6070 N   0  0  0  0  0  0  0  0  0  0  0  0
  184.8420  177.9750  143.6090 C   0  0  0  0  0  3  0  0  0  0  0  0
  183.4370  179.0300  144.8590 N   0  0  0  0  0  0  0  0  0  0  0  0
  185.2590  177.9390  144.9230 C   0  0  0  0  0  0  0  0  0  0  0  0
  194.1060  175.5630  144.2070 O   0  0  0  0  0  1  0  0  0  0  0  0
  193.7520  174.3940  144.8900 C   0  0  0  0  0  2  0  0  0  0  0  0
  192.4180  171.5900  144.3940 C   0  0  0  0  0  2  0  0  0  0  0  0
  192.9870  171.1100  143.0620 C   0  0  0  0  0  2  0  0  0  0  0  0
  195.4550  171.5350  143.2710 C   0  0  0  0  0  1  0  0  0  0  0  0
  194.1640  171.9590  142.5860 C   0  0  1  0  0  3  0  0  0  0  0  0
  194.3150  171.8630  141.1870 O   0  0  0  0  0  0  0  0  0  0  0  0
  192.6370  173.4460  138.9560 C   0  0  2  0  0  3  0  0  0  0  0  0
  193.9320  172.9490  139.2110 O   0  0  0  0  0  0  0  0  0  0  0  0
  193.0930  173.9840  141.1860 C   0  0  0  0  0  2  0  0  0  0  0  0
  191.9500  173.7760  140.2530 C   0  0  0  0  0  2  0  0  0  0  0  0
  194.2150  173.1440  140.5820 C   0  0  1  0  0  0  0  0  0  0  0  0
  195.5340  173.9040  140.6840 C   0  0  0  0  0  1  0  0  0  0  0  0
  191.8130  172.4530  138.1380 C   0  0  0  0  0  3  0  0  0  0  0  0
  189.8530  172.0980  136.5930 C   0  0  0  0  0  2  0  0  0  0  0  0
  191.4700  171.2190  138.9870 C   0  0  0  0  0  2  0  0  0  0  0  0
  189.8470  170.6560  137.1330 C   0  0  0  0  0  2  0  0  0  0  0  0
  190.5620  173.0900  137.5170 C   0  0  0  0  0  2  0  0  0  0  0  0
  190.1090  170.6050  138.6380 C   0  0  0  0  0  2  0  0  0  0  0  0
  1 11  1  0  0  0  0
  2 21  1  0  0  0  0
  3 12  1  0  0  0  0
  5  7  2  0  0  0  0
  5 14  1  0  0  0  0
  6  8  1  0  0  0  0
  7 22  1  0  0  0  0
  9  2  1  0  0  0  0
  9  8  2  0  0  0  0
 10 19  1  6  0  0  0
 10  3  1  0  0  0  0
 10  1  1  0  0  0  0
 11 18  1  0  0  0  0
 12 31  1  0  0  0  0
 12 11  2  0  0  0  0
 13  9  1  0  0  0  0
 14 19  2  0  0  0  0
 15  3  1  0  0  0  0
 16  6  2  0  0  0  0
 17  4  1  6  0  0  0
 17  1  1  0  0  0  0
 17 13  1  0  0  0  0
 18 30  1  6  0  0  0
 18 23  1  0  0  0  0
 20 13  2  0  0  0  0
 20 16  1  0  0  0  0
 22 19  1  0  0  0  0
 22  4  2  0  0  0  0
 23 21  1  0  0  0  0
 25 26  1  0  0  0  0
 25 27  2  0  0  0  0
 26 28  2  0  0  0  0
 27 24  1  0  0  0  0
 28 16  1  0  0  0  0
 28 24  1  0  0  0  0
 29 30  1  0  0  0  0
 32 31  1  0  0  0  0
 34 32  1  0  0  0  0
 34 33  1  1  0  0  0
 35 34  1  0  0  0  0
 36 42  1  1  0  0  0
 36 37  1  0  0  0  0
 36 39  1  0  0  0  0
 37 40  1  0  0  0  0
 39 38  1  0  0  0  0
 40 41  1  1  0  0  0
 40 38  1  0  0  0  0
 40 35  1  0  0  0  0
 42 44  1  0  0  0  0
 43 45  1  0  0  0  0
 43 46  1  0  0  0  0
 45 47  1  0  0  0  0
 46 42  1  0  0  0  0
 47 44  1  0  0  0  0
M  END
>  <MODEL>
8

>  <REMARK>
 VINA RESULT:      -7.0      1.924      4.326
  Name = 
  8 active torsions:
  status: ('A' for Active; 'I' for Inactive)
    1  A    between atoms: C_4  and  C_6
    2  A    between atoms: C_15  and  O_36
    3  A    between atoms: C_15  and  C_40
    4  A    between atoms: C_22  and  C_24
    5  A    between atoms: C_24  and  C_40
    6  A    between atoms: C_30  and  O_36
    7  A    between atoms: C_31  and  C_35
    8  A    between atoms: C_33  and  C_37
                            x       y       z     vdW  Elec       q    Type
                         _______ _______ _______ _____ _____    ______ ____

>  <TORSDO>
F 8

$$$$
=
 OpenBabel11042415313D

 47 54  0  0  1  0  0  0  0  0999 V2000
  194.9920  173.7160  142.2730 N   0  0  0  0  0  0  0  0  0  0  0  0
  196.8570  175.9970  141.7010 C   0  0  0  0  0  2  0  0  0  0  0  0
  192.7250  174.0390  142.7520 N   0  0  0  0  0  0  0  0  0  0  0  0
  195.7740  171.6240  141.3460 N   0  0  0  0  0  0  0  0  0  0  0  0
  192.6400  170.0630  140.6780 N   0  0  0  0  0  0  0  0  0  0  0  0
  197.9410  174.9500  138.2590 C   0  0  0  0  0  3  0  0  0  0  0  0
  194.0520  170.0610  140.7340 N   0  0  0  0  0  0  0  0  0  0  0  0
  197.7520  175.6790  139.4310 C   0  0  0  0  0  3  0  0  0  0  0  0
  197.1310  175.0980  140.5430 C   0  0  0  0  0  0  0  0  0  0  0  0
  193.6610  173.3620  141.9260 C   0  0  2  0  0  3  0  0  0  0  0  0
  194.8490  174.4810  143.4830 C   0  0  0  0  0  0  0  0  0  0  0  0
  193.5450  174.6880  143.7300 C   0  0  0  0  0  0  0  0  0  0  0  0
  196.7200  173.7370  140.4990 C   0  0  0  0  0  0  0  0  0  0  0  0
  192.2070  171.4070  141.1340 C   0  0  0  0  0  3  0  0  0  0  0  0
  191.2960  173.7830  142.8590 C   0  0  0  0  0  1  0  0  0  0  0  0
  197.5130  173.6220  138.1810 C   0  0  0  0  0  0  0  0  0  0  0  0
  196.1630  173.0050  141.7160 C   0  0  1  0  0  3  0  0  0  0  0  0
  195.9940  174.9970  144.3460 C   0  0  2  0  0  3  0  0  0  0  0  0
  193.4460  172.2250  141.2640 C   0  0  0  0  0  0  0  0  0  0  0  0
  196.9190  173.0230  139.3010 C   0  0  0  0  0  3  0  0  0  0  0  0
  197.8510  175.8050  142.8350 C   0  0  0  0  0  2  0  0  0  0  0  0
  194.5430  171.3490  141.0180 C   0  0  0  0  0  0  0  0  0  0  0  0
  197.3860  174.7040  143.7870 C   0  0  0  0  0  2  0  0  0  0  0  0
  197.5630  171.5760  136.7920 O   0  0  0  0  0  0  0  0  0  0  0  0
  197.6580  172.3620  134.8020 N   0  0  0  0  0  0  0  0  0  0  0  0
  197.6600  173.4130  135.6440 C   0  0  0  0  0  3  0  0  0  0  0  0
  197.5980  171.2600  135.5390 N   0  0  0  0  0  0  0  0  0  0  0  0
  197.5970  172.8790  136.9150 C   0  0  0  0  0  0  0  0  0  0  0  0
  196.9220  173.6610  146.1360 O   0  0  0  0  0  1  0  0  0  0  0  0
  195.8930  174.5490  145.8030 C   0  0  0  0  0  2  0  0  0  0  0  0
  192.9850  175.3730  144.9370 C   0  0  0  0  0  2  0  0  0  0  0  0
  192.7270  176.8410  144.6120 C   0  0  0  0  0  2  0  0  0  0  0  0
  190.6500  177.7110  143.4980 C   0  0  0  0  0  1  0  0  0  0  0  0
  191.2650  177.2390  144.8070 C   0  0  1  0  0  3  0  0  0  0  0  0
  190.5190  176.1580  145.3210 O   0  0  0  0  0  0  0  0  0  0  0  0
  187.7810  177.5200  146.2980 C   0  0  2  0  0  3  0  0  0  0  0  0
  189.1710  177.7580  146.2440 O   0  0  0  0  0  0  0  0  0  0  0  0
  188.7930  175.5090  146.9310 C   0  0  0  0  0  2  0  0  0  0  0  0
  187.5190  176.0410  146.3730 C   0  0  0  0  0  2  0  0  0  0  0  0
  189.8360  176.5390  146.5060 C   0  0  1  0  0  0  0  0  0  0  0  0
  190.8160  176.7770  147.6520 C   0  0  0  0  0  1  0  0  0  0  0  0
  187.0660  178.1420  145.1000 C   0  0  0  0  0  3  0  0  0  0  0  0
  185.3270  179.7770  144.2910 C   0  0  0  0  0  2  0  0  0  0  0  0
  186.6030  177.0450  144.1280 C   0  0  0  0  0  2  0  0  0  0  0  0
  185.2370  178.8760  143.0450 C   0  0  0  0  0  2  0  0  0  0  0  0
  185.9140  179.0690  145.5120 C   0  0  0  0  0  2  0  0  0  0  0  0
  185.2960  177.3920  143.4050 C   0  0  0  0  0  2  0  0  0  0  0  0
  1 11  1  0  0  0  0
  2 21  1  0  0  0  0
  3 15  1  0  0  0  0
  3 12  1  0  0  0  0
  4 17  1  0  0  0  0
  5  7  2  0  0  0  0
  5 14  1  0  0  0  0
  6  8  1  0  0  0  0
  7 22  1  0  0  0  0
  8  9  2  0  0  0  0
  9  2  1  0  0  0  0
 10 19  1  1  0  0  0
 10  1  1  0  0  0  0
 10  3  1  0  0  0  0
 11 12  2  0  0  0  0
 11 18  1  0  0  0  0
 12 31  1  0  0  0  0
 13  9  1  0  0  0  0
 14 19  2  0  0  0  0
 16  6  2  0  0  0  0
 16 20  1  0  0  0  0
 17 13  1  6  0  0  0
 17  1  1  0  0  0  0
 18 30  1  1  0  0  0
 20 13  2  0  0  0  0
 21 23  1  0  0  0  0
 22 19  1  0  0  0  0
 22  4  2  0  0  0  0
 23 18  1  0  0  0  0
 24 28  1  0  0  0  0
 25 27  2  0  0  0  0
 25 26  1  0  0  0  0
 26 28  2  0  0  0  0
 27 24  1  0  0  0  0
 28 16  1  0  0  0  0
 30 29  1  0  0  0  0
 32 34  1  0  0  0  0
 32 31  1  0  0  0  0
 34 33  1  6  0  0  0
 34 35  1  0  0  0  0
 35 40  1  0  0  0  0
 36 42  1  6  0  0  0
 36 39  1  0  0  0  0
 37 36  1  0  0  0  0
 37 40  1  0  0  0  0
 39 38  1  0  0  0  0
 40 38  1  0  0  0  0
 40 41  1  1  0  0  0
 42 46  1  0  0  0  0
 43 46  1  0  0  0  0
 44 42  1  0  0  0  0
 45 47  1  0  0  0  0
 45 43  1  0  0  0  0
 47 44  1  0  0  0  0
M  END
>  <MODEL>
9

>  <REMARK>
 VINA RESULT:      -7.0      3.756     10.108
  Name = 
  8 active torsions:
  status: ('A' for Active; 'I' for Inactive)
    1  A    between atoms: C_4  and  C_6
    2  A    between atoms: C_15  and  O_36
    3  A    between atoms: C_15  and  C_40
    4  A    between atoms: C_22  and  C_24
    5  A    between atoms: C_24  and  C_40
    6  A    between atoms: C_30  and  O_36
    7  A    between atoms: C_31  and  C_35
    8  A    between atoms: C_33  and  C_37
                            x       y       z     vdW  Elec       q    Type
                         _______ _______ _______ _____ _____    ______ ____

>  <TORSDO>
F 8

$$$$
