=
 OpenBabel11042413413D

 42 45  0  0  1  0  0  0  0  0999 V2000
  193.6700  175.1580  144.9220 C   0  0  0  0  0  0  0  0  0  0  0  0
  194.2610  175.0180  146.2100 N   0  0  0  0  0  1  0  0  0  0  0  0
  193.9540  175.5540  142.5930 C   0  0  0  0  0  0  0  0  0  0  0  0
  192.2810  175.0470  144.7640 C   0  0  0  0  0  0  0  0  0  0  0  0
  194.4620  175.4130  143.8460 N   0  0  0  0  0  0  0  0  0  0  0  0
  192.5780  175.4180  142.3880 C   0  0  0  0  0  3  0  0  0  0  0  0
  191.7320  175.1530  143.4720 C   0  0  0  0  0  0  0  0  0  0  0  0
  194.8540  175.8350  141.4640 C   0  0  0  0  0  0  0  0  0  0  0  0
  195.6660  176.7990  141.5230 O   0  0  0  0  0  0  0  0  0  0  0  0
  194.8030  175.0120  140.2950 N   0  0  0  0  0  2  0  0  0  0  0  0
  196.5090  173.7070  138.7090 S   0  0  0  0  0  1  0  0  0  0  0  0
  195.6600  175.2460  139.1450 C   0  0  0  0  0  2  0  0  0  0  0  0
  190.3590  174.9590  143.2800 O   0  0  0  0  0  0  0  0  0  0  0  0
  189.5540  175.7870  142.4510 C   0  0  1  0  0  3  0  0  0  0  0  0
  188.2000  175.0990  142.2210 C   0  0  0  0  0  2  0  0  0  0  0  0
  188.5880  178.0960  142.1800 C   0  0  0  0  0  2  0  0  0  0  0  0
  187.0090  176.0610  142.1640 C   0  0  0  0  0  2  0  0  0  0  0  0
  187.3950  177.3900  141.5050 C   0  0  1  0  0  3  0  0  0  0  0  0
  189.3880  177.1660  143.0940 C   0  0  0  0  0  2  0  0  0  0  0  0
  186.2880  178.2450  141.3320 O   0  0  0  0  0  0  0  0  0  0  0  0
  185.4770  177.6630  140.4070 N   0  0  0  0  0  2  0  0  0  0  0  0
  184.2360  178.4210  140.3940 C   0  0  0  0  0  2  0  0  0  0  0  0
  182.1390  178.2710  141.7530 C   0  0  0  0  0  3  0  0  0  0  0  0
  183.4730  178.1710  141.6580 C   0  0  0  0  0  3  0  0  0  0  0  0
  180.7460  180.0000  140.7920 N   0  0  0  0  0  2  0  0  0  0  0  0
  179.4050  179.4510  140.9540 C   0  0  0  0  0  2  0  0  0  0  0  0
  179.4310  177.5550  139.5310 O   0  0  0  0  0  1  0  0  0  0  0  0
  181.2480  178.6440  140.6030 C   0  0  2  0  0  3  0  0  0  0  0  0
  179.8760  178.0280  140.7660 C   0  0  1  0  0  3  0  0  0  0  0  0
  191.4800  174.8020  145.8920 O   0  0  0  0  0  0  0  0  0  0  0  0
  190.3810  175.5840  146.2730 C   0  0  0  0  0  0  0  0  0  0  0  0
  190.5080  176.9590  146.5340 C   0  0  0  0  0  3  0  0  0  0  0  0
  189.3940  177.7120  146.9120 C   0  0  0  0  0  3  0  0  0  0  0  0
  189.1330  174.9720  146.4230 C   0  0  0  0  0  3  0  0  0  0  0  0
  188.0180  175.7270  146.8000 C   0  0  0  0  0  3  0  0  0  0  0  0
  188.1380  177.1030  147.0430 C   0  0  0  0  0  0  0  0  0  0  0  0
  186.9610  177.9050  147.4360 C   0  0  0  0  0  0  0  0  0  0  0  0
  187.0860  178.8520  148.2580 O   0  0  0  0  0  0  0  0  0  0  0  0
  185.6030  177.5900  146.8960 C   0  0  0  0  0  2  0  0  0  0  0  0
  185.0900  178.7620  146.0830 C   0  0  0  0  0  2  0  0  0  0  0  0
  185.8820  178.8730  144.7970 C   0  0  0  0  0  2  0  0  0  0  0  0
  185.4520  180.1170  144.0500 C   0  0  0  0  0  1  0  0  0  0  0  0
  1  2  1  0  0  0  0
  3  5  1  0  0  0  0
  4  1  1  0  0  0  0
  4 30  1  0  0  0  0
  5  1  2  0  0  0  0
  6  3  2  0  0  0  0
  6  7  1  0  0  0  0
  7  4  2  0  0  0  0
  8  9  2  0  0  0  0
  8  3  1  0  0  0  0
 10  8  1  0  0  0  0
 11 12  1  0  0  0  0
 12 10  1  0  0  0  0
 13  7  1  0  0  0  0
 14 19  1  0  0  0  0
 14 13  1  1  0  0  0
 15 14  1  0  0  0  0
 16 19  1  0  0  0  0
 17 15  1  0  0  0  0
 18 20  1  1  0  0  0
 18 17  1  0  0  0  0
 18 16  1  0  0  0  0
 21 20  1  0  0  0  0
 22 21  1  0  0  0  0
 22 24  1  0  0  0  0
 24 23  2  0  0  0  0
 25 26  1  0  0  0  0
 28 29  1  0  0  0  0
 28 25  1  0  0  0  0
 28 23  1  1  0  0  0
 29 27  1  6  0  0  0
 29 26  1  0  0  0  0
 30 31  1  0  0  0  0
 31 34  2  0  0  0  0
 31 32  1  0  0  0  0
 32 33  2  0  0  0  0
 33 36  1  0  0  0  0
 34 35  1  0  0  0  0
 35 36  2  0  0  0  0
 36 37  1  0  0  0  0
 37 38  2  0  0  0  0
 39 37  1  0  0  0  0
 40 39  1  0  0  0  0
 41 40  1  0  0  0  0
 42 41  1  0  0  0  0
M  END
>  <MODEL>
1

>  <REMARK>
 VINA RESULT:      -7.3      0.000      0.000
  Name = 
  15 active torsions:
  status: ('A' for Active; 'I' for Inactive)
    1  A    between atoms: C_1  and  O_14
    2  A    between atoms: C_2  and  O_29
    3  A    between atoms: C_3  and  C_25
    4  A    between atoms: C_4  and  C_40
    5  A    between atoms: C_4  and  C_42
    6  A    between atoms: C_9  and  C_28
    7  A    between atoms: C_11  and  C_12
    8  A    between atoms: C_11  and  C_42
    9  A    between atoms: O_14  and  C_39
   10  A    between atoms: C_17  and  C_34
   11  A    between atoms: C_24  and  O_37
   12  A    between atoms: C_26  and  O_29
   13  A    between atoms: C_31  and  N_41
   14  A    between atoms: C_34  and  N_35
   15  A    between atoms: N_35  and  O_37
                            x       y       z     vdW  Elec       q    Type
                         _______ _______ _______ _____ _____    ______ ____

>  <TORSDO>
F 15

$$$$
=
 OpenBabel11042413413D

 42 45  0  0  1  0  0  0  0  0999 V2000
  194.2980  176.4590  145.8930 C   0  0  0  0  0  0  0  0  0  0  0  0
  194.1290  177.4660  146.8860 N   0  0  0  0  0  1  0  0  0  0  0  0
  195.4800  175.6700  143.9840 C   0  0  0  0  0  0  0  0  0  0  0  0
  193.4590  175.3350  145.8750 C   0  0  0  0  0  0  0  0  0  0  0  0
  195.2710  176.6000  144.9540 N   0  0  0  0  0  0  0  0  0  0  0  0
  194.6870  174.5200  143.9510 C   0  0  0  0  0  3  0  0  0  0  0  0
  193.6760  174.3390  144.9040 C   0  0  0  0  0  0  0  0  0  0  0  0
  196.5430  175.8740  142.9890 C   0  0  0  0  0  0  0  0  0  0  0  0
  197.3910  176.7950  143.1450 O   0  0  0  0  0  0  0  0  0  0  0  0
  196.6110  175.0250  141.8400 N   0  0  0  0  0  2  0  0  0  0  0  0
  196.8500  175.1810  139.1850 S   0  0  0  0  0  1  0  0  0  0  0  0
  197.6320  175.1830  140.8190 C   0  0  0  0  0  2  0  0  0  0  0  0
  192.9070  173.1690  144.9220 O   0  0  0  0  0  0  0  0  0  0  0  0
  191.9410  172.8460  143.9300 C   0  0  1  0  0  3  0  0  0  0  0  0
  190.5820  172.6240  144.6110 C   0  0  0  0  0  2  0  0  0  0  0  0
  190.8960  173.5940  141.7660 C   0  0  0  0  0  2  0  0  0  0  0  0
  189.3840  173.1250  143.7970 C   0  0  0  0  0  2  0  0  0  0  0  0
  189.6090  172.9300  142.2930 C   0  0  1  0  0  3  0  0  0  0  0  0
  191.8760  173.9590  142.8820 C   0  0  0  0  0  2  0  0  0  0  0  0
  188.4730  173.2720  141.5320 O   0  0  0  0  0  0  0  0  0  0  0  0
  187.9940  174.4410  142.0380 N   0  0  0  0  0  2  0  0  0  0  0  0
  188.1820  175.4540  141.0120 C   0  0  0  0  0  2  0  0  0  0  0  0
  187.3480  177.6430  141.8940 C   0  0  0  0  0  3  0  0  0  0  0  0
  188.3590  176.7980  141.6480 C   0  0  0  0  0  3  0  0  0  0  0  0
  185.6700  177.6160  140.1510 N   0  0  0  0  0  2  0  0  0  0  0  0
  184.7910  178.7120  140.5420 C   0  0  0  0  0  2  0  0  0  0  0  0
  183.8510  177.9390  142.5760 O   0  0  0  0  0  1  0  0  0  0  0  0
  185.9130  177.3450  141.5620 C   0  0  2  0  0  3  0  0  0  0  0  0
  185.0130  178.4730  142.0170 C   0  0  1  0  0  3  0  0  0  0  0  0
  192.4480  175.2180  146.8430 O   0  0  0  0  0  0  0  0  0  0  0  0
  191.0930  175.5000  146.6180 C   0  0  0  0  0  0  0  0  0  0  0  0
  190.0800  174.9320  147.4090 C   0  0  0  0  0  3  0  0  0  0  0  0
  188.7390  175.2330  147.1610 C   0  0  0  0  0  3  0  0  0  0  0  0
  190.7430  176.3480  145.5640 C   0  0  0  0  0  3  0  0  0  0  0  0
  189.4000  176.6500  145.3170 C   0  0  0  0  0  3  0  0  0  0  0  0
  188.3870  176.0990  146.1160 C   0  0  0  0  0  0  0  0  0  0  0  0
  186.9680  176.4200  145.8630 C   0  0  0  0  0  0  0  0  0  0  0  0
  186.5170  176.4130  144.6860 O   0  0  0  0  0  0  0  0  0  0  0  0
  186.0530  176.7880  146.9860 C   0  0  0  0  0  2  0  0  0  0  0  0
  185.0210  177.7870  146.4990 C   0  0  0  0  0  2  0  0  0  0  0  0
  185.6400  179.1670  146.4370 C   0  0  0  0  0  2  0  0  0  0  0  0
  186.1920  179.5290  147.7990 C   0  0  0  0  0  1  0  0  0  0  0  0
  1  2  1  0  0  0  0
  3  5  1  0  0  0  0
  4  1  1  0  0  0  0
  4 30  1  0  0  0  0
  5  1  2  0  0  0  0
  6  3  2  0  0  0  0
  6  7  1  0  0  0  0
  7 13  1  0  0  0  0
  7  4  2  0  0  0  0
  8  9  2  0  0  0  0
  8  3  1  0  0  0  0
 10  8  1  0  0  0  0
 11 12  1  0  0  0  0
 12 10  1  0  0  0  0
 14 15  1  0  0  0  0
 14 13  1  1  0  0  0
 16 18  1  0  0  0  0
 16 19  1  0  0  0  0
 17 15  1  0  0  0  0
 18 20  1  6  0  0  0
 18 17  1  0  0  0  0
 19 14  1  0  0  0  0
 20 21  1  0  0  0  0
 22 24  1  0  0  0  0
 22 21  1  0  0  0  0
 24 23  2  0  0  0  0
 25 26  1  0  0  0  0
 25 28  1  0  0  0  0
 26 29  1  0  0  0  0
 28 23  1  6  0  0  0
 28 29  1  0  0  0  0
 29 27  1  1  0  0  0
 31 30  1  0  0  0  0
 31 32  1  0  0  0  0
 33 32  2  0  0  0  0
 34 31  2  0  0  0  0
 35 34  1  0  0  0  0
 35 36  2  0  0  0  0
 36 33  1  0  0  0  0
 37 36  1  0  0  0  0
 37 39  1  0  0  0  0
 38 37  2  0  0  0  0
 40 39  1  0  0  0  0
 41 40  1  0  0  0  0
 41 42  1  0  0  0  0
M  END
>  <MODEL>
2

>  <REMARK>
 VINA RESULT:      -7.0      2.468      3.550
  Name = 
  15 active torsions:
  status: ('A' for Active; 'I' for Inactive)
    1  A    between atoms: C_1  and  O_14
    2  A    between atoms: C_2  and  O_29
    3  A    between atoms: C_3  and  C_25
    4  A    between atoms: C_4  and  C_40
    5  A    between atoms: C_4  and  C_42
    6  A    between atoms: C_9  and  C_28
    7  A    between atoms: C_11  and  C_12
    8  A    between atoms: C_11  and  C_42
    9  A    between atoms: O_14  and  C_39
   10  A    between atoms: C_17  and  C_34
   11  A    between atoms: C_24  and  O_37
   12  A    between atoms: C_26  and  O_29
   13  A    between atoms: C_31  and  N_41
   14  A    between atoms: C_34  and  N_35
   15  A    between atoms: N_35  and  O_37
                            x       y       z     vdW  Elec       q    Type
                         _______ _______ _______ _____ _____    ______ ____

>  <TORSDO>
F 15

$$$$
=
 OpenBabel11042413413D

 42 45  0  0  1  0  0  0  0  0999 V2000
  196.7780  175.3110  142.2900 C   0  0  0  0  0  0  0  0  0  0  0  0
  197.7840  175.8650  143.1320 N   0  0  0  0  0  1  0  0  0  0  0  0
  195.9290  174.9760  140.0920 C   0  0  0  0  0  0  0  0  0  0  0  0
  195.7030  174.6010  142.8450 C   0  0  0  0  0  0  0  0  0  0  0  0
  196.8590  175.4850  140.9440 N   0  0  0  0  0  0  0  0  0  0  0  0
  194.8600  174.2340  140.6030 C   0  0  0  0  0  3  0  0  0  0  0  0
  194.7450  174.0320  141.9840 C   0  0  0  0  0  0  0  0  0  0  0  0
  196.0610  175.1980  138.6450 C   0  0  0  0  0  0  0  0  0  0  0  0
  195.0320  175.3100  137.9230 O   0  0  0  0  0  0  0  0  0  0  0  0
  197.3610  175.2830  138.0560 N   0  0  0  0  0  2  0  0  0  0  0  0
  197.9390  173.9090  135.8410 S   0  0  0  0  0  1  0  0  0  0  0  0
  197.5550  175.4920  136.6310 C   0  0  0  0  0  2  0  0  0  0  0  0
  193.7140  173.2460  142.5120 O   0  0  0  0  0  0  0  0  0  0  0  0
  192.3390  173.4470  142.2120 C   0  0  1  0  0  3  0  0  0  0  0  0
  191.4950  172.5010  143.0790 C   0  0  0  0  0  2  0  0  0  0  0  0
  190.5060  175.1650  142.0520 C   0  0  0  0  0  2  0  0  0  0  0  0
  190.1680  173.1020  143.5560 C   0  0  0  0  0  2  0  0  0  0  0  0
  189.5630  174.0290  142.4960 C   0  0  1  0  0  3  0  0  0  0  0  0
  191.9630  174.9130  142.4410 C   0  0  0  0  0  2  0  0  0  0  0  0
  188.2850  174.4990  142.8620 O   0  0  0  0  0  0  0  0  0  0  0  0
  188.1560  175.7480  142.3370 N   0  0  0  0  0  2  0  0  0  0  0  0
  186.8440  176.2380  142.7290 C   0  0  0  0  0  2  0  0  0  0  0  0
  186.0140  178.4550  143.5430 C   0  0  0  0  0  3  0  0  0  0  0  0
  186.8550  177.7340  142.7880 C   0  0  0  0  0  3  0  0  0  0  0  0
  183.9080  178.8280  144.6750 N   0  0  0  0  0  2  0  0  0  0  0  0
  184.3040  178.8510  146.0790 C   0  0  0  0  0  2  0  0  0  0  0  0
  185.0390  176.6300  146.4600 O   0  0  0  0  0  1  0  0  0  0  0  0
  184.9580  177.8490  144.4240 C   0  0  2  0  0  3  0  0  0  0  0  0
  185.4060  177.8400  145.8690 C   0  0  1  0  0  3  0  0  0  0  0  0
  195.6290  174.4480  144.2400 O   0  0  0  0  0  0  0  0  0  0  0  0
  194.5400  174.8440  145.0280 C   0  0  0  0  0  0  0  0  0  0  0  0
  193.7270  173.9080  145.6880 C   0  0  0  0  0  3  0  0  0  0  0  0
  192.6490  174.3330  146.4680 C   0  0  0  0  0  3  0  0  0  0  0  0
  194.2410  176.2050  145.1360 C   0  0  0  0  0  3  0  0  0  0  0  0
  193.1610  176.6310  145.9170 C   0  0  0  0  0  3  0  0  0  0  0  0
  192.3590  175.6990  146.5930 C   0  0  0  0  0  0  0  0  0  0  0  0
  191.2220  176.1450  147.4230 C   0  0  0  0  0  0  0  0  0  0  0  0
  191.4070  176.9610  148.3650 O   0  0  0  0  0  0  0  0  0  0  0  0
  189.8440  175.6160  147.1840 C   0  0  0  0  0  2  0  0  0  0  0  0
  189.3740  176.0170  145.8000 C   0  0  0  0  0  2  0  0  0  0  0  0
  189.3350  177.5270  145.6950 C   0  0  0  0  0  2  0  0  0  0  0  0
  190.0720  177.9600  144.4460 C   0  0  0  0  0  1  0  0  0  0  0  0
  1  4  1  0  0  0  0
  1  2  1  0  0  0  0
  3  6  2  0  0  0  0
  3  5  1  0  0  0  0
  4 30  1  0  0  0  0
  5  1  2  0  0  0  0
  6  7  1  0  0  0  0
  7 13  1  0  0  0  0
  7  4  2  0  0  0  0
  8  3  1  0  0  0  0
  9  8  2  0  0  0  0
 10  8  1  0  0  0  0
 11 12  1  0  0  0  0
 12 10  1  0  0  0  0
 14 19  1  0  0  0  0
 14 13  1  1  0  0  0
 14 15  1  0  0  0  0
 15 17  1  0  0  0  0
 16 19  1  0  0  0  0
 16 18  1  0  0  0  0
 18 20  1  1  0  0  0
 18 17  1  0  0  0  0
 21 22  1  0  0  0  0
 21 20  1  0  0  0  0
 22 24  1  0  0  0  0
 24 23  2  0  0  0  0
 25 26  1  0  0  0  0
 28 23  1  6  0  0  0
 28 25  1  0  0  0  0
 28 29  1  0  0  0  0
 29 26  1  0  0  0  0
 29 27  1  1  0  0  0
 30 31  1  0  0  0  0
 31 34  2  0  0  0  0
 31 32  1  0  0  0  0
 32 33  2  0  0  0  0
 33 36  1  0  0  0  0
 34 35  1  0  0  0  0
 35 36  2  0  0  0  0
 36 37  1  0  0  0  0
 37 38  2  0  0  0  0
 39 37  1  0  0  0  0
 40 39  1  0  0  0  0
 41 40  1  0  0  0  0
 42 41  1  0  0  0  0
M  END
>  <MODEL>
3

>  <REMARK>
 VINA RESULT:      -6.8      3.218      4.591
  Name = 
  15 active torsions:
  status: ('A' for Active; 'I' for Inactive)
    1  A    between atoms: C_1  and  O_14
    2  A    between atoms: C_2  and  O_29
    3  A    between atoms: C_3  and  C_25
    4  A    between atoms: C_4  and  C_40
    5  A    between atoms: C_4  and  C_42
    6  A    between atoms: C_9  and  C_28
    7  A    between atoms: C_11  and  C_12
    8  A    between atoms: C_11  and  C_42
    9  A    between atoms: O_14  and  C_39
   10  A    between atoms: C_17  and  C_34
   11  A    between atoms: C_24  and  O_37
   12  A    between atoms: C_26  and  O_29
   13  A    between atoms: C_31  and  N_41
   14  A    between atoms: C_34  and  N_35
   15  A    between atoms: N_35  and  O_37
                            x       y       z     vdW  Elec       q    Type
                         _______ _______ _______ _____ _____    ______ ____

>  <TORSDO>
F 15

$$$$
=
 OpenBabel11042413413D

 42 45  0  0  1  0  0  0  0  0999 V2000
  191.8250  176.3200  147.3950 C   0  0  0  0  0  0  0  0  0  0  0  0
  191.4930  177.1860  148.4750 N   0  0  0  0  0  1  0  0  0  0  0  0
  193.4860  175.4580  145.9240 C   0  0  0  0  0  0  0  0  0  0  0  0
  190.8350  175.5360  146.7850 C   0  0  0  0  0  0  0  0  0  0  0  0
  193.1090  176.2680  146.9490 N   0  0  0  0  0  0  0  0  0  0  0  0
  192.5350  174.6360  145.3110 C   0  0  0  0  0  3  0  0  0  0  0  0
  191.2040  174.6620  145.7450 C   0  0  0  0  0  0  0  0  0  0  0  0
  194.8860  175.4430  145.4770 C   0  0  0  0  0  0  0  0  0  0  0  0
  195.3850  176.4580  144.9160 O   0  0  0  0  0  0  0  0  0  0  0  0
  195.6820  174.2720  145.6770 N   0  0  0  0  0  2  0  0  0  0  0  0
  197.1460  173.4410  143.6040 S   0  0  0  0  0  1  0  0  0  0  0  0
  197.0680  174.1940  145.2490 C   0  0  0  0  0  2  0  0  0  0  0  0
  190.2490  173.8070  145.1820 O   0  0  0  0  0  0  0  0  0  0  0  0
  190.0890  173.6170  143.7820 C   0  0  1  0  0  3  0  0  0  0  0  0
  189.4100  172.2610  143.5360 C   0  0  0  0  0  2  0  0  0  0  0  0
  189.1640  174.6250  141.6690 C   0  0  0  0  0  2  0  0  0  0  0  0
  188.4260  172.2570  142.3610 C   0  0  0  0  0  2  0  0  0  0  0  0
  188.9050  173.1710  141.2270 C   0  0  1  0  0  3  0  0  0  0  0  0
  189.2810  174.7730  143.1870 C   0  0  0  0  0  2  0  0  0  0  0  0
  188.0790  173.0900  140.0880 O   0  0  0  0  0  0  0  0  0  0  0  0
  188.3720  174.1670  139.3080 N   0  0  0  0  0  2  0  0  0  0  0  0
  188.5240  173.6760  137.9480 C   0  0  0  0  0  2  0  0  0  0  0  0
  190.8880  172.9090  137.6520 C   0  0  0  0  0  3  0  0  0  0  0  0
  189.9420  173.8470  137.5000 C   0  0  0  0  0  3  0  0  0  0  0  0
  191.8730  171.0810  138.8950 N   0  0  0  0  0  2  0  0  0  0  0  0
  191.8960  170.0060  137.9100 C   0  0  0  0  0  2  0  0  0  0  0  0
  189.5950  169.5780  137.5370 O   0  0  0  0  0  1  0  0  0  0  0  0
  190.6410  171.5720  138.2900 C   0  0  2  0  0  3  0  0  0  0  0  0
  190.6230  170.4760  137.2470 C   0  0  1  0  0  3  0  0  0  0  0  0
  189.5120  175.6190  147.2490 O   0  0  0  0  0  0  0  0  0  0  0  0
  188.5030  176.3830  146.6470 C   0  0  0  0  0  0  0  0  0  0  0  0
  187.1570  176.2600  147.0270 C   0  0  0  0  0  3  0  0  0  0  0  0
  186.1740  177.0370  146.4090 C   0  0  0  0  0  3  0  0  0  0  0  0
  188.8460  177.2710  145.6230 C   0  0  0  0  0  3  0  0  0  0  0  0
  187.8610  178.0490  145.0050 C   0  0  0  0  0  3  0  0  0  0  0  0
  186.5180  177.9420  145.3960 C   0  0  0  0  0  0  0  0  0  0  0  0
  185.4770  178.7650  144.7500 C   0  0  0  0  0  0  0  0  0  0  0  0
  184.3960  179.0080  145.3510 O   0  0  0  0  0  0  0  0  0  0  0  0
  185.6680  179.2970  143.3650 C   0  0  0  0  0  2  0  0  0  0  0  0
  184.9670  178.3950  142.3680 C   0  0  0  0  0  2  0  0  0  0  0  0
  185.8780  177.2430  141.9980 C   0  0  0  0  0  2  0  0  0  0  0  0
  187.1320  177.7860  141.3480 C   0  0  0  0  0  1  0  0  0  0  0  0
  1  2  1  0  0  0  0
  3  5  2  0  0  0  0
  4 30  1  0  0  0  0
  4  1  2  0  0  0  0
  5  1  1  0  0  0  0
  6  7  2  0  0  0  0
  6  3  1  0  0  0  0
  7  4  1  0  0  0  0
  8 10  1  0  0  0  0
  8  3  1  0  0  0  0
  9  8  2  0  0  0  0
 11 12  1  0  0  0  0
 12 10  1  0  0  0  0
 13  7  1  0  0  0  0
 14 13  1  1  0  0  0
 15 14  1  0  0  0  0
 16 19  1  0  0  0  0
 17 15  1  0  0  0  0
 18 20  1  6  0  0  0
 18 16  1  0  0  0  0
 18 17  1  0  0  0  0
 19 14  1  0  0  0  0
 21 20  1  0  0  0  0
 22 21  1  0  0  0  0
 24 23  2  0  0  0  0
 24 22  1  0  0  0  0
 26 25  1  0  0  0  0
 28 23  1  6  0  0  0
 28 25  1  0  0  0  0
 29 27  1  1  0  0  0
 29 26  1  0  0  0  0
 29 28  1  0  0  0  0
 31 32  1  0  0  0  0
 31 30  1  0  0  0  0
 33 32  2  0  0  0  0
 34 31  2  0  0  0  0
 35 36  2  0  0  0  0
 35 34  1  0  0  0  0
 36 33  1  0  0  0  0
 37 38  2  0  0  0  0
 37 36  1  0  0  0  0
 39 37  1  0  0  0  0
 40 39  1  0  0  0  0
 41 40  1  0  0  0  0
 42 41  1  0  0  0  0
M  END
>  <MODEL>
4

>  <REMARK>
 VINA RESULT:      -6.7      3.426      6.307
  Name = 
  15 active torsions:
  status: ('A' for Active; 'I' for Inactive)
    1  A    between atoms: C_1  and  O_14
    2  A    between atoms: C_2  and  O_29
    3  A    between atoms: C_3  and  C_25
    4  A    between atoms: C_4  and  C_40
    5  A    between atoms: C_4  and  C_42
    6  A    between atoms: C_9  and  C_28
    7  A    between atoms: C_11  and  C_12
    8  A    between atoms: C_11  and  C_42
    9  A    between atoms: O_14  and  C_39
   10  A    between atoms: C_17  and  C_34
   11  A    between atoms: C_24  and  O_37
   12  A    between atoms: C_26  and  O_29
   13  A    between atoms: C_31  and  N_41
   14  A    between atoms: C_34  and  N_35
   15  A    between atoms: N_35  and  O_37
                            x       y       z     vdW  Elec       q    Type
                         _______ _______ _______ _____ _____    ______ ____

>  <TORSDO>
F 15

$$$$
=
 OpenBabel11042413413D

 42 45  0  0  1  0  0  0  0  0999 V2000
  191.8790  176.3620  147.2740 C   0  0  0  0  0  0  0  0  0  0  0  0
  191.5560  177.1970  148.3820 N   0  0  0  0  0  1  0  0  0  0  0  0
  193.5150  175.5800  145.7330 C   0  0  0  0  0  0  0  0  0  0  0  0
  190.8940  175.5590  146.6820 C   0  0  0  0  0  0  0  0  0  0  0  0
  193.1480  176.3580  146.7860 N   0  0  0  0  0  0  0  0  0  0  0  0
  192.5700  174.7400  145.1360 C   0  0  0  0  0  3  0  0  0  0  0  0
  191.2530  174.7160  145.6130 C   0  0  0  0  0  0  0  0  0  0  0  0
  194.9000  175.6170  145.2400 C   0  0  0  0  0  0  0  0  0  0  0  0
  195.7900  174.9140  145.7940 O   0  0  0  0  0  0  0  0  0  0  0  0
  195.2350  176.4550  144.1310 N   0  0  0  0  0  2  0  0  0  0  0  0
  196.5560  176.2240  141.8220 S   0  0  0  0  0  1  0  0  0  0  0  0
  196.5870  176.5400  143.6050 C   0  0  0  0  0  2  0  0  0  0  0  0
  190.3060  173.8430  145.0660 O   0  0  0  0  0  0  0  0  0  0  0  0
  190.1600  173.6150  143.6700 C   0  0  1  0  0  3  0  0  0  0  0  0
  189.3630  172.3190  143.4570 C   0  0  0  0  0  2  0  0  0  0  0  0
  189.3780  174.6210  141.5000 C   0  0  0  0  0  2  0  0  0  0  0  0
  188.4080  172.3600  142.2580 C   0  0  0  0  0  2  0  0  0  0  0  0
  188.9950  173.1820  141.1050 C   0  0  1  0  0  3  0  0  0  0  0  0
  189.4760  174.8160  143.0130 C   0  0  0  0  0  2  0  0  0  0  0  0
  188.1890  173.1340  139.9490 O   0  0  0  0  0  0  0  0  0  0  0  0
  188.2010  174.3810  139.4050 N   0  0  0  0  0  2  0  0  0  0  0  0
  188.0810  174.2160  137.9650 C   0  0  0  0  0  2  0  0  0  0  0  0
  190.0080  173.2240  136.7140 C   0  0  0  0  0  3  0  0  0  0  0  0
  188.9390  173.0770  137.5090 C   0  0  0  0  0  3  0  0  0  0  0  0
  190.2110  174.6280  134.7530 N   0  0  0  0  0  2  0  0  0  0  0  0
  191.6500  174.6300  134.5150 C   0  0  0  0  0  2  0  0  0  0  0  0
  192.5010  175.7690  136.4110 O   0  0  0  0  0  1  0  0  0  0  0  0
  190.4770  174.5490  136.1840 C   0  0  2  0  0  3  0  0  0  0  0  0
  191.9770  174.5480  135.9870 C   0  0  1  0  0  3  0  0  0  0  0  0
  189.5850  175.5920  147.1910 O   0  0  0  0  0  0  0  0  0  0  0  0
  188.5390  176.3530  146.6500 C   0  0  0  0  0  0  0  0  0  0  0  0
  187.2200  176.2360  147.1210 C   0  0  0  0  0  3  0  0  0  0  0  0
  186.1990  177.0080  146.5630 C   0  0  0  0  0  3  0  0  0  0  0  0
  188.8140  177.2320  145.5990 C   0  0  0  0  0  3  0  0  0  0  0  0
  187.7910  178.0060  145.0400 C   0  0  0  0  0  3  0  0  0  0  0  0
  186.4770  177.9040  145.5200 C   0  0  0  0  0  0  0  0  0  0  0  0
  185.3960  178.7240  144.9380 C   0  0  0  0  0  0  0  0  0  0  0  0
  184.3060  178.8660  145.5540 O   0  0  0  0  0  0  0  0  0  0  0  0
  185.5590  179.3700  143.5990 C   0  0  0  0  0  2  0  0  0  0  0  0
  184.8130  178.5700  142.5490 C   0  0  0  0  0  2  0  0  0  0  0  0
  185.6370  177.3630  142.1510 C   0  0  0  0  0  2  0  0  0  0  0  0
  186.8170  177.8160  141.3180 C   0  0  0  0  0  1  0  0  0  0  0  0
  1  2  1  0  0  0  0
  3  5  2  0  0  0  0
  4 30  1  0  0  0  0
  4  1  2  0  0  0  0
  5  1  1  0  0  0  0
  6  7  2  0  0  0  0
  6  3  1  0  0  0  0
  7  4  1  0  0  0  0
  8  3  1  0  0  0  0
  8  9  2  0  0  0  0
 10  8  1  0  0  0  0
 11 12  1  0  0  0  0
 12 10  1  0  0  0  0
 13  7  1  0  0  0  0
 14 13  1  1  0  0  0
 15 14  1  0  0  0  0
 16 19  1  0  0  0  0
 17 15  1  0  0  0  0
 18 20  1  6  0  0  0
 18 16  1  0  0  0  0
 18 17  1  0  0  0  0
 19 14  1  0  0  0  0
 21 20  1  0  0  0  0
 22 21  1  0  0  0  0
 23 24  2  0  0  0  0
 24 22  1  0  0  0  0
 25 28  1  0  0  0  0
 26 25  1  0  0  0  0
 26 29  1  0  0  0  0
 28 23  1  6  0  0  0
 29 28  1  0  0  0  0
 29 27  1  1  0  0  0
 31 32  1  0  0  0  0
 31 30  1  0  0  0  0
 33 32  2  0  0  0  0
 34 31  2  0  0  0  0
 35 36  2  0  0  0  0
 35 34  1  0  0  0  0
 36 33  1  0  0  0  0
 37 36  1  0  0  0  0
 37 38  2  0  0  0  0
 39 37  1  0  0  0  0
 40 39  1  0  0  0  0
 41 40  1  0  0  0  0
 42 41  1  0  0  0  0
M  END
>  <MODEL>
5

>  <REMARK>
 VINA RESULT:      -6.7      3.295      5.964
  Name = 
  15 active torsions:
  status: ('A' for Active; 'I' for Inactive)
    1  A    between atoms: C_1  and  O_14
    2  A    between atoms: C_2  and  O_29
    3  A    between atoms: C_3  and  C_25
    4  A    between atoms: C_4  and  C_40
    5  A    between atoms: C_4  and  C_42
    6  A    between atoms: C_9  and  C_28
    7  A    between atoms: C_11  and  C_12
    8  A    between atoms: C_11  and  C_42
    9  A    between atoms: O_14  and  C_39
   10  A    between atoms: C_17  and  C_34
   11  A    between atoms: C_24  and  O_37
   12  A    between atoms: C_26  and  O_29
   13  A    between atoms: C_31  and  N_41
   14  A    between atoms: C_34  and  N_35
   15  A    between atoms: N_35  and  O_37
                            x       y       z     vdW  Elec       q    Type
                         _______ _______ _______ _____ _____    ______ ____

>  <TORSDO>
F 15

$$$$
=
 OpenBabel11042413413D

 42 45  0  0  1  0  0  0  0  0999 V2000
  184.4550  178.5820  144.8470 C   0  0  0  0  0  0  0  0  0  0  0  0
  183.8500  178.8190  146.1150 N   0  0  0  0  0  1  0  0  0  0  0  0
  184.1940  178.2620  142.5040 C   0  0  0  0  0  0  0  0  0  0  0  0
  185.8460  178.4380  144.7430 C   0  0  0  0  0  0  0  0  0  0  0  0
  183.6720  178.4850  143.7400 N   0  0  0  0  0  0  0  0  0  0  0  0
  185.5790  178.1450  142.3520 C   0  0  0  0  0  3  0  0  0  0  0  0
  186.4160  178.2420  143.4700 C   0  0  0  0  0  0  0  0  0  0  0  0
  183.3030  178.1600  141.3380 C   0  0  0  0  0  0  0  0  0  0  0  0
  183.7790  177.9230  140.1940 O   0  0  0  0  0  0  0  0  0  0  0  0
  181.8940  178.3320  141.5070 N   0  0  0  0  0  2  0  0  0  0  0  0
  179.8670  179.6920  140.4220 S   0  0  0  0  0  1  0  0  0  0  0  0
  180.9650  178.2510  140.3920 C   0  0  0  0  0  2  0  0  0  0  0  0
  187.8080  178.1830  143.3330 O   0  0  0  0  0  0  0  0  0  0  0  0
  188.4850  177.1650  142.6070 C   0  0  1  0  0  3  0  0  0  0  0  0
  190.0000  177.3560  142.7740 C   0  0  0  0  0  2  0  0  0  0  0  0
  188.6910  174.6790  142.2720 C   0  0  0  0  0  2  0  0  0  0  0  0
  190.7910  176.0460  142.8650 C   0  0  0  0  0  2  0  0  0  0  0  0
  190.1770  174.9600  141.9750 C   0  0  1  0  0  3  0  0  0  0  0  0
  188.0300  175.7870  143.0930 C   0  0  0  0  0  2  0  0  0  0  0  0
  190.9560  173.7850  141.9490 O   0  0  0  0  0  0  0  0  0  0  0  0
  191.4620  173.6720  140.6910 N   0  0  0  0  0  2  0  0  0  0  0  0
  192.8230  173.1770  140.8240 C   0  0  0  0  0  2  0  0  0  0  0  0
  194.3710  174.0800  142.5710 C   0  0  0  0  0  3  0  0  0  0  0  0
  193.2950  173.3560  142.2340 C   0  0  0  0  0  3  0  0  0  0  0  0
  196.3920  173.9810  141.2440 N   0  0  0  0  0  2  0  0  0  0  0  0
  197.2450  174.9700  141.8930 C   0  0  0  0  0  2  0  0  0  0  0  0
  196.1090  177.0070  141.4760 O   0  0  0  0  0  1  0  0  0  0  0  0
  195.2350  174.8030  141.5760 C   0  0  2  0  0  3  0  0  0  0  0  0
  196.0780  175.8550  142.2620 C   0  0  1  0  0  3  0  0  0  0  0  0
  186.6330  178.5230  145.9030 O   0  0  0  0  0  0  0  0  0  0  0  0
  187.7370  177.7050  146.1780 C   0  0  0  0  0  0  0  0  0  0  0  0
  189.0510  178.2020  146.1460 C   0  0  0  0  0  3  0  0  0  0  0  0
  190.1310  177.3620  146.4270 C   0  0  0  0  0  3  0  0  0  0  0  0
  187.5240  176.3540  146.4670 C   0  0  0  0  0  3  0  0  0  0  0  0
  188.6060  175.5130  146.7480 C   0  0  0  0  0  3  0  0  0  0  0  0
  189.9180  176.0110  146.7350 C   0  0  0  0  0  0  0  0  0  0  0  0
  191.0620  175.1280  147.0370 C   0  0  0  0  0  0  0  0  0  0  0  0
  191.3480  174.8470  148.2320 O   0  0  0  0  0  0  0  0  0  0  0  0
  191.9190  174.5800  145.9410 C   0  0  0  0  0  2  0  0  0  0  0  0
  193.3820  174.7840  146.2830 C   0  0  0  0  0  2  0  0  0  0  0  0
  193.6900  176.2660  146.3330 C   0  0  0  0  0  2  0  0  0  0  0  0
  193.6570  176.8310  144.9290 C   0  0  0  0  0  1  0  0  0  0  0  0
  1  2  1  0  0  0  0
  3  5  1  0  0  0  0
  4  1  1  0  0  0  0
  4 30  1  0  0  0  0
  5  1  2  0  0  0  0
  6  3  2  0  0  0  0
  6  7  1  0  0  0  0
  7  4  2  0  0  0  0
  8 10  1  0  0  0  0
  8  3  1  0  0  0  0
  9  8  2  0  0  0  0
 12 11  1  0  0  0  0
 12 10  1  0  0  0  0
 13  7  1  0  0  0  0
 14 15  1  0  0  0  0
 14 19  1  0  0  0  0
 14 13  1  1  0  0  0
 15 17  1  0  0  0  0
 16 19  1  0  0  0  0
 18 20  1  1  0  0  0
 18 16  1  0  0  0  0
 18 17  1  0  0  0  0
 21 22  1  0  0  0  0
 21 20  1  0  0  0  0
 22 24  1  0  0  0  0
 24 23  2  0  0  0  0
 25 28  1  0  0  0  0
 25 26  1  0  0  0  0
 26 29  1  0  0  0  0
 28 29  1  0  0  0  0
 28 23  1  1  0  0  0
 29 27  1  6  0  0  0
 30 31  1  0  0  0  0
 31 34  1  0  0  0  0
 32 31  2  0  0  0  0
 32 33  1  0  0  0  0
 33 36  2  0  0  0  0
 34 35  2  0  0  0  0
 36 35  1  0  0  0  0
 36 37  1  0  0  0  0
 37 38  2  0  0  0  0
 39 40  1  0  0  0  0
 39 37  1  0  0  0  0
 40 41  1  0  0  0  0
 42 41  1  0  0  0  0
M  END
>  <MODEL>
6

>  <REMARK>
 VINA RESULT:      -6.6      3.369      9.691
  Name = 
  15 active torsions:
  status: ('A' for Active; 'I' for Inactive)
    1  A    between atoms: C_1  and  O_14
    2  A    between atoms: C_2  and  O_29
    3  A    between atoms: C_3  and  C_25
    4  A    between atoms: C_4  and  C_40
    5  A    between atoms: C_4  and  C_42
    6  A    between atoms: C_9  and  C_28
    7  A    between atoms: C_11  and  C_12
    8  A    between atoms: C_11  and  C_42
    9  A    between atoms: O_14  and  C_39
   10  A    between atoms: C_17  and  C_34
   11  A    between atoms: C_24  and  O_37
   12  A    between atoms: C_26  and  O_29
   13  A    between atoms: C_31  and  N_41
   14  A    between atoms: C_34  and  N_35
   15  A    between atoms: N_35  and  O_37
                            x       y       z     vdW  Elec       q    Type
                         _______ _______ _______ _____ _____    ______ ____

>  <TORSDO>
F 15

$$$$
=
 OpenBabel11042413413D

 42 45  0  0  1  0  0  0  0  0999 V2000
  194.4170  176.3230  145.8880 C   0  0  0  0  0  0  0  0  0  0  0  0
  194.1890  177.3290  146.8700 N   0  0  0  0  0  1  0  0  0  0  0  0
  195.6440  175.5850  143.9880 C   0  0  0  0  0  0  0  0  0  0  0  0
  193.6460  175.1510  145.8830 C   0  0  0  0  0  0  0  0  0  0  0  0
  195.3800  176.5110  144.9470 N   0  0  0  0  0  0  0  0  0  0  0  0
  194.9190  174.3890  143.9670 C   0  0  0  0  0  3  0  0  0  0  0  0
  193.9210  174.1590  144.9220 C   0  0  0  0  0  0  0  0  0  0  0  0
  196.6930  175.8400  142.9890 C   0  0  0  0  0  0  0  0  0  0  0  0
  197.3920  176.8880  143.0570 O   0  0  0  0  0  0  0  0  0  0  0  0
  196.9160  174.8960  141.9390 N   0  0  0  0  0  2  0  0  0  0  0  0
  197.1280  175.3270  139.3120 S   0  0  0  0  0  1  0  0  0  0  0  0
  197.9320  175.0980  140.9190 C   0  0  0  0  0  2  0  0  0  0  0  0
  193.2230  172.9460  144.9540 O   0  0  0  0  0  0  0  0  0  0  0  0
  192.5550  172.3930  143.8270 C   0  0  1  0  0  3  0  0  0  0  0  0
  191.2380  171.7530  144.2930 C   0  0  0  0  0  2  0  0  0  0  0  0
  191.6670  172.8860  141.5240 C   0  0  0  0  0  2  0  0  0  0  0  0
  190.0800  171.9100  143.3010 C   0  0  0  0  0  2  0  0  0  0  0  0
  190.5730  171.8500  141.8510 C   0  0  1  0  0  3  0  0  0  0  0  0
  192.3170  173.4780  142.7750 C   0  0  0  0  0  2  0  0  0  0  0  0
  189.5130  171.8720  140.9230 O   0  0  0  0  0  0  0  0  0  0  0  0
  189.4350  173.1420  140.4390 N   0  0  0  0  0  2  0  0  0  0  0  0
  188.0610  173.5820  140.6220 C   0  0  0  0  0  2  0  0  0  0  0  0
  187.7370  175.4370  142.2710 C   0  0  0  0  0  3  0  0  0  0  0  0
  187.8810  174.1310  142.0040 C   0  0  0  0  0  3  0  0  0  0  0  0
  188.5840  177.6150  141.6430 N   0  0  0  0  0  2  0  0  0  0  0  0
  187.3940  178.4540  141.7330 C   0  0  0  0  0  2  0  0  0  0  0  0
  186.0100  177.6020  140.0090 O   0  0  0  0  0  1  0  0  0  0  0  0
  187.7360  176.5080  141.2180 C   0  0  2  0  0  3  0  0  0  0  0  0
  186.4740  177.3390  141.2990 C   0  0  1  0  0  3  0  0  0  0  0  0
  192.6430  174.9850  146.8530 O   0  0  0  0  0  0  0  0  0  0  0  0
  191.3410  175.4950  146.7480 C   0  0  0  0  0  0  0  0  0  0  0  0
  190.9450  176.6540  147.4350 C   0  0  0  0  0  3  0  0  0  0  0  0
  189.6410  177.1390  147.3100 C   0  0  0  0  0  3  0  0  0  0  0  0
  190.4090  174.8150  145.9600 C   0  0  0  0  0  3  0  0  0  0  0  0
  189.1030  175.3000  145.8350 C   0  0  0  0  0  3  0  0  0  0  0  0
  188.7090  176.4680  146.5050 C   0  0  0  0  0  0  0  0  0  0  0  0
  187.3340  176.9870  146.3710 C   0  0  0  0  0  0  0  0  0  0  0  0
  186.5150  176.8670  147.3220 O   0  0  0  0  0  0  0  0  0  0  0  0
  186.8770  177.6320  145.1010 C   0  0  0  0  0  2  0  0  0  0  0  0
  185.4220  177.2910  144.8470 C   0  0  0  0  0  2  0  0  0  0  0  0
  184.5730  178.5330  145.0160 C   0  0  0  0  0  2  0  0  0  0  0  0
  185.3530  179.7400  144.5430 C   0  0  0  0  0  1  0  0  0  0  0  0
  1  2  1  0  0  0  0
  3  5  1  0  0  0  0
  4  1  1  0  0  0  0
  4 30  1  0  0  0  0
  5  1  2  0  0  0  0
  6  3  2  0  0  0  0
  6  7  1  0  0  0  0
  7 13  1  0  0  0  0
  7  4  2  0  0  0  0
  8  9  2  0  0  0  0
  8  3  1  0  0  0  0
 10  8  1  0  0  0  0
 11 12  1  0  0  0  0
 12 10  1  0  0  0  0
 14 15  1  0  0  0  0
 14 13  1  1  0  0  0
 16 18  1  0  0  0  0
 16 19  1  0  0  0  0
 17 15  1  0  0  0  0
 18 20  1  6  0  0  0
 18 17  1  0  0  0  0
 19 14  1  0  0  0  0
 21 22  1  0  0  0  0
 21 20  1  0  0  0  0
 22 24  1  0  0  0  0
 24 23  2  0  0  0  0
 25 26  1  0  0  0  0
 28 29  1  0  0  0  0
 28 25  1  0  0  0  0
 28 23  1  1  0  0  0
 29 27  1  6  0  0  0
 29 26  1  0  0  0  0
 31 30  1  0  0  0  0
 31 32  1  0  0  0  0
 33 32  2  0  0  0  0
 34 31  2  0  0  0  0
 35 34  1  0  0  0  0
 35 36  2  0  0  0  0
 36 33  1  0  0  0  0
 37 36  1  0  0  0  0
 37 38  2  0  0  0  0
 39 37  1  0  0  0  0
 40 41  1  0  0  0  0
 40 39  1  0  0  0  0
 42 41  1  0  0  0  0
M  END
>  <MODEL>
7

>  <REMARK>
 VINA RESULT:      -6.5      2.993      4.239
  Name = 
  15 active torsions:
  status: ('A' for Active; 'I' for Inactive)
    1  A    between atoms: C_1  and  O_14
    2  A    between atoms: C_2  and  O_29
    3  A    between atoms: C_3  and  C_25
    4  A    between atoms: C_4  and  C_40
    5  A    between atoms: C_4  and  C_42
    6  A    between atoms: C_9  and  C_28
    7  A    between atoms: C_11  and  C_12
    8  A    between atoms: C_11  and  C_42
    9  A    between atoms: O_14  and  C_39
   10  A    between atoms: C_17  and  C_34
   11  A    between atoms: C_24  and  O_37
   12  A    between atoms: C_26  and  O_29
   13  A    between atoms: C_31  and  N_41
   14  A    between atoms: C_34  and  N_35
   15  A    between atoms: N_35  and  O_37
                            x       y       z     vdW  Elec       q    Type
                         _______ _______ _______ _____ _____    ______ ____

>  <TORSDO>
F 15

$$$$
=
 OpenBabel11042413413D

 42 45  0  0  1  0  0  0  0  0999 V2000
  194.0610  176.2650  145.8020 C   0  0  0  0  0  0  0  0  0  0  0  0
  194.1440  177.1780  146.8920 N   0  0  0  0  0  1  0  0  0  0  0  0
  194.9240  175.5130  143.7160 C   0  0  0  0  0  0  0  0  0  0  0  0
  193.0600  175.2830  145.7760 C   0  0  0  0  0  0  0  0  0  0  0  0
  194.9530  176.3590  144.7800 N   0  0  0  0  0  0  0  0  0  0  0  0
  193.9610  174.5000  143.6670 C   0  0  0  0  0  3  0  0  0  0  0  0
  193.0280  174.3710  144.7030 C   0  0  0  0  0  0  0  0  0  0  0  0
  195.9080  175.6610  142.6330 C   0  0  0  0  0  0  0  0  0  0  0  0
  196.5390  176.7450  142.4920 O   0  0  0  0  0  0  0  0  0  0  0  0
  196.1460  174.5720  141.7380 N   0  0  0  0  0  2  0  0  0  0  0  0
  196.2070  174.9330  139.0930 S   0  0  0  0  0  1  0  0  0  0  0  0
  197.1000  174.6620  140.6450 C   0  0  0  0  0  2  0  0  0  0  0  0
  192.0920  173.3310  144.7010 O   0  0  0  0  0  0  0  0  0  0  0  0
  190.7990  173.4360  144.1190 C   0  0  1  0  0  3  0  0  0  0  0  0
  190.7070  174.7570  143.3410 C   0  0  0  0  0  2  0  0  0  0  0  0
  189.1150  172.2850  142.6440 C   0  0  0  0  0  2  0  0  0  0  0  0
  189.8870  174.6690  142.0500 C   0  0  0  0  0  2  0  0  0  0  0  0
  188.7060  173.7040  142.2030 C   0  0  1  0  0  3  0  0  0  0  0  0
  190.5310  172.2270  143.2190 C   0  0  0  0  0  2  0  0  0  0  0  0
  187.8680  173.6980  141.0690 O   0  0  0  0  0  0  0  0  0  0  0  0
  188.3760  174.6100  140.1960 N   0  0  0  0  0  2  0  0  0  0  0  0
  188.2580  174.0330  138.8660 C   0  0  0  0  0  2  0  0  0  0  0  0
  189.8090  172.0700  138.9510 C   0  0  0  0  0  3  0  0  0  0  0  0
  188.5650  172.5690  138.9160 C   0  0  0  0  0  3  0  0  0  0  0  0
  191.7750  172.7210  137.6980 N   0  0  0  0  0  2  0  0  0  0  0  0
  192.8530  172.1010  138.4590 C   0  0  0  0  0  2  0  0  0  0  0  0
  192.7900  173.2700  140.5200 O   0  0  0  0  0  1  0  0  0  0  0  0
  191.0480  172.9210  138.9460 C   0  0  2  0  0  3  0  0  0  0  0  0
  192.1390  172.2840  139.7770 C   0  0  1  0  0  3  0  0  0  0  0  0
  192.1370  175.2160  146.8330 O   0  0  0  0  0  0  0  0  0  0  0  0
  190.8310  175.7210  146.7840 C   0  0  0  0  0  0  0  0  0  0  0  0
  190.5540  177.0040  146.2830 C   0  0  0  0  0  3  0  0  0  0  0  0
  189.2420  177.4810  146.2460 C   0  0  0  0  0  3  0  0  0  0  0  0
  189.7820  174.9370  147.2710 C   0  0  0  0  0  3  0  0  0  0  0  0
  188.4680  175.4140  147.2340 C   0  0  0  0  0  3  0  0  0  0  0  0
  188.1860  176.6870  146.7170 C   0  0  0  0  0  0  0  0  0  0  0  0
  186.7990  177.1920  146.6690 C   0  0  0  0  0  0  0  0  0  0  0  0
  185.9420  176.7680  147.4900 O   0  0  0  0  0  0  0  0  0  0  0  0
  186.3790  178.1850  145.6340 C   0  0  0  0  0  2  0  0  0  0  0  0
  185.5010  177.5080  144.6000 C   0  0  0  0  0  2  0  0  0  0  0  0
  186.2890  176.4210  143.8990 C   0  0  0  0  0  2  0  0  0  0  0  0
  187.0380  177.0210  142.7290 C   0  0  0  0  0  1  0  0  0  0  0  0
  1  2  1  0  0  0  0
  3  5  1  0  0  0  0
  4  1  1  0  0  0  0
  4 30  1  0  0  0  0
  5  1  2  0  0  0  0
  6  3  2  0  0  0  0
  6  7  1  0  0  0  0
  7  4  2  0  0  0  0
  8  3  1  0  0  0  0
  9  8  2  0  0  0  0
 10  8  1  0  0  0  0
 11 12  1  0  0  0  0
 12 10  1  0  0  0  0
 13  7  1  0  0  0  0
 14 13  1  6  0  0  0
 15 14  1  0  0  0  0
 16 19  1  0  0  0  0
 17 18  1  0  0  0  0
 17 15  1  0  0  0  0
 18 20  1  6  0  0  0
 18 16  1  0  0  0  0
 19 14  1  0  0  0  0
 21 20  1  0  0  0  0
 22 24  1  0  0  0  0
 22 21  1  0  0  0  0
 24 23  2  0  0  0  0
 25 26  1  0  0  0  0
 25 28  1  0  0  0  0
 26 29  1  0  0  0  0
 28 23  1  6  0  0  0
 28 29  1  0  0  0  0
 29 27  1  1  0  0  0
 31 30  1  0  0  0  0
 31 34  1  0  0  0  0
 32 31  2  0  0  0  0
 33 32  1  0  0  0  0
 33 36  2  0  0  0  0
 35 34  2  0  0  0  0
 36 35  1  0  0  0  0
 37 36  1  0  0  0  0
 37 38  2  0  0  0  0
 39 37  1  0  0  0  0
 40 39  1  0  0  0  0
 41 40  1  0  0  0  0
 42 41  1  0  0  0  0
M  END
>  <MODEL>
8

>  <REMARK>
 VINA RESULT:      -6.5      3.383      5.720
  Name = 
  15 active torsions:
  status: ('A' for Active; 'I' for Inactive)
    1  A    between atoms: C_1  and  O_14
    2  A    between atoms: C_2  and  O_29
    3  A    between atoms: C_3  and  C_25
    4  A    between atoms: C_4  and  C_40
    5  A    between atoms: C_4  and  C_42
    6  A    between atoms: C_9  and  C_28
    7  A    between atoms: C_11  and  C_12
    8  A    between atoms: C_11  and  C_42
    9  A    between atoms: O_14  and  C_39
   10  A    between atoms: C_17  and  C_34
   11  A    between atoms: C_24  and  O_37
   12  A    between atoms: C_26  and  O_29
   13  A    between atoms: C_31  and  N_41
   14  A    between atoms: C_34  and  N_35
   15  A    between atoms: N_35  and  O_37
                            x       y       z     vdW  Elec       q    Type
                         _______ _______ _______ _____ _____    ______ ____

>  <TORSDO>
F 15

$$$$
=
 OpenBabel11042413413D

 42 45  0  0  1  0  0  0  0  0999 V2000
  194.5740  176.4480  145.5740 C   0  0  0  0  0  0  0  0  0  0  0  0
  194.5620  177.5540  146.4710 N   0  0  0  0  0  1  0  0  0  0  0  0
  195.6510  175.2910  143.7960 C   0  0  0  0  0  0  0  0  0  0  0  0
  193.5440  175.4970  145.6090 C   0  0  0  0  0  0  0  0  0  0  0  0
  195.5860  176.3270  144.6740 N   0  0  0  0  0  0  0  0  0  0  0  0
  194.6610  174.3040  143.8200 C   0  0  0  0  0  3  0  0  0  0  0  0
  193.6040  174.3950  144.7350 C   0  0  0  0  0  0  0  0  0  0  0  0
  196.7640  175.2090  142.8380 C   0  0  0  0  0  0  0  0  0  0  0  0
  197.8000  175.9100  143.0070 O   0  0  0  0  0  0  0  0  0  0  0  0
  196.6670  174.3340  141.7120 N   0  0  0  0  0  2  0  0  0  0  0  0
  197.3290  175.2410  139.2890 S   0  0  0  0  0  1  0  0  0  0  0  0
  197.7300  174.2170  140.7280 C   0  0  0  0  0  2  0  0  0  0  0  0
  192.6340  173.3890  144.8140 O   0  0  0  0  0  0  0  0  0  0  0  0
  191.8240  172.9890  143.7160 C   0  0  1  0  0  3  0  0  0  0  0  0
  190.6510  172.1490  144.2410 C   0  0  0  0  0  2  0  0  0  0  0  0
  190.5320  173.8050  141.7160 C   0  0  0  0  0  2  0  0  0  0  0  0
  189.3340  172.3710  143.4880 C   0  0  0  0  0  2  0  0  0  0  0  0
  189.5800  172.6260  141.9970 C   0  0  1  0  0  3  0  0  0  0  0  0
  191.3420  174.2200  142.9460 C   0  0  0  0  0  2  0  0  0  0  0  0
  188.3790  172.7130  141.2630 O   0  0  0  0  0  0  0  0  0  0  0  0
  188.5850  173.6230  140.2710 N   0  0  0  0  0  2  0  0  0  0  0  0
  188.1730  172.9930  139.0270 C   0  0  0  0  0  2  0  0  0  0  0  0
  190.1590  172.3170  137.6620 C   0  0  0  0  0  3  0  0  0  0  0  0
  189.2140  173.2150  137.9730 C   0  0  0  0  0  3  0  0  0  0  0  0
  191.3320  171.0360  139.3470 N   0  0  0  0  0  2  0  0  0  0  0  0
  192.1260  170.1120  138.5450 C   0  0  0  0  0  2  0  0  0  0  0  0
  190.4790  168.7590  137.5090 O   0  0  0  0  0  1  0  0  0  0  0  0
  190.2890  170.9770  138.3310 C   0  0  2  0  0  3  0  0  0  0  0  0
  191.0750  170.0190  137.4640 C   0  0  1  0  0  3  0  0  0  0  0  0
  192.4990  175.6520  146.5350 O   0  0  0  0  0  0  0  0  0  0  0  0
  191.1720  175.9530  146.1960 C   0  0  0  0  0  0  0  0  0  0  0  0
  190.8330  177.1400  145.5240 C   0  0  0  0  0  3  0  0  0  0  0  0
  189.5020  177.4120  145.1980 C   0  0  0  0  0  3  0  0  0  0  0  0
  190.1600  175.0600  146.5590 C   0  0  0  0  0  3  0  0  0  0  0  0
  188.8280  175.3330  146.2320 C   0  0  0  0  0  3  0  0  0  0  0  0
  188.4880  176.5080  145.5450 C   0  0  0  0  0  0  0  0  0  0  0  0
  187.0840  176.7960  145.1930 C   0  0  0  0  0  0  0  0  0  0  0  0
  186.1720  176.6520  146.0520 O   0  0  0  0  0  0  0  0  0  0  0  0
  186.7130  177.2300  143.8110 C   0  0  0  0  0  2  0  0  0  0  0  0
  186.8310  176.0590  142.8570 C   0  0  0  0  0  2  0  0  0  0  0  0
  187.4100  176.5330  141.5400 C   0  0  0  0  0  2  0  0  0  0  0  0
  188.0980  177.8660  141.7480 C   0  0  0  0  0  1  0  0  0  0  0  0
  1  4  1  0  0  0  0
  1  2  1  0  0  0  0
  3  6  2  0  0  0  0
  3  5  1  0  0  0  0
  4 30  1  0  0  0  0
  5  1  2  0  0  0  0
  6  7  1  0  0  0  0
  7 13  1  0  0  0  0
  7  4  2  0  0  0  0
  8  9  2  0  0  0  0
  8  3  1  0  0  0  0
 10  8  1  0  0  0  0
 11 12  1  0  0  0  0
 12 10  1  0  0  0  0
 14 15  1  0  0  0  0
 14 13  1  1  0  0  0
 16 18  1  0  0  0  0
 16 19  1  0  0  0  0
 17 15  1  0  0  0  0
 18 20  1  6  0  0  0
 18 17  1  0  0  0  0
 19 14  1  0  0  0  0
 21 20  1  0  0  0  0
 22 21  1  0  0  0  0
 23 24  2  0  0  0  0
 24 22  1  0  0  0  0
 26 25  1  0  0  0  0
 28 23  1  6  0  0  0
 28 25  1  0  0  0  0
 29 27  1  1  0  0  0
 29 28  1  0  0  0  0
 29 26  1  0  0  0  0
 31 30  1  0  0  0  0
 31 34  1  0  0  0  0
 32 31  2  0  0  0  0
 33 32  1  0  0  0  0
 33 36  2  0  0  0  0
 35 34  2  0  0  0  0
 36 35  1  0  0  0  0
 37 36  1  0  0  0  0
 37 38  2  0  0  0  0
 39 37  1  0  0  0  0
 40 39  1  0  0  0  0
 41 42  1  0  0  0  0
 41 40  1  0  0  0  0
M  END
>  <MODEL>
9

>  <REMARK>
 VINA RESULT:      -6.3      3.765      6.135
  Name = 
  15 active torsions:
  status: ('A' for Active; 'I' for Inactive)
    1  A    between atoms: C_1  and  O_14
    2  A    between atoms: C_2  and  O_29
    3  A    between atoms: C_3  and  C_25
    4  A    between atoms: C_4  and  C_40
    5  A    between atoms: C_4  and  C_42
    6  A    between atoms: C_9  and  C_28
    7  A    between atoms: C_11  and  C_12
    8  A    between atoms: C_11  and  C_42
    9  A    between atoms: O_14  and  C_39
   10  A    between atoms: C_17  and  C_34
   11  A    between atoms: C_24  and  O_37
   12  A    between atoms: C_26  and  O_29
   13  A    between atoms: C_31  and  N_41
   14  A    between atoms: C_34  and  N_35
   15  A    between atoms: N_35  and  O_37
                            x       y       z     vdW  Elec       q    Type
                         _______ _______ _______ _____ _____    ______ ____

>  <TORSDO>
F 15

$$$$
