=
 OpenBabel11042414583D

 39 43  0  0  1  0  0  0  0  0999 V2000
  192.1180  173.1090  144.3740 C   0  0  0  0  0  0  0  0  0  0  0  0
  190.7460  172.9410  144.7480 N   0  0  0  0  0  2  0  0  0  0  0  0
  189.7480  172.3690  144.1440 C   0  0  0  0  0  3  0  0  0  0  0  0
  190.3460  171.3940  140.5440 C   0  0  2  0  0  3  0  0  0  0  0  0
  194.2010  174.2710  145.1270 C   0  0  0  0  0  0  0  0  0  0  0  0
  192.0090  173.3430  140.6830 C   0  0  2  0  0  3  0  0  0  0  0  0
  191.0730  170.0770  140.3440 C   0  0  0  0  0  1  0  0  0  0  0  0
  189.7880  171.7540  142.8540 N   0  0  0  0  0  0  0  0  0  0  0  0
  194.0750  173.2490  142.9020 C   0  0  0  0  0  2  0  0  0  0  0  0
  193.0820  173.3420  145.5110 C   0  0  0  0  0  2  0  0  0  0  0  0
  190.9850  172.6340  139.3780 S   0  0  0  0  0  0  0  0  0  0  0  0
  190.6390  171.9340  141.8950 C   0  0  0  0  0  0  0  0  0  0  0  0
  192.5810  173.1210  143.1040 C   0  0  0  0  0  0  0  0  0  0  0  0
  194.6930  174.2280  143.8680 C   0  0  0  0  0  0  0  0  0  0  0  0
  191.7250  172.8990  141.9140 C   0  0  0  0  0  0  0  0  0  0  0  0
  197.0030  176.8740  142.8530 C   0  0  0  0  0  3  0  0  0  0  0  0
  195.7770  175.0620  143.4120 N   0  0  0  0  0  0  0  0  0  0  0  0
  195.6400  176.4130  143.0920 N   0  0  0  0  0  0  0  0  0  0  0  0
  197.9350  175.7480  142.9530 N   0  0  0  0  0  0  0  0  0  0  0  0
  197.1430  174.6090  143.3790 C   0  0  0  0  0  3  0  0  0  0  0  0
  193.0840  174.3560  140.3950 C   0  0  0  0  0  2  0  0  0  0  0  0
  193.9380  174.0050  139.1890 C   0  0  0  0  0  1  0  0  0  0  0  0
  194.7130  175.2020  146.1800 C   0  0  0  0  0  2  0  0  0  0  0  0
  193.6430  176.1980  146.5990 C   0  0  0  0  0  2  0  0  0  0  0  0
  193.2670  176.9870  145.5090 O   0  0  0  0  0  0  0  0  0  0  0  0
  191.6090  177.1400  143.8040 C   0  0  0  0  0  2  0  0  0  0  0  0
  190.3060  176.5180  143.3090 C   0  0  0  0  0  2  0  0  0  0  0  0
  190.9820  176.7310  146.1440 C   0  0  0  0  0  2  0  0  0  0  0  0
  187.9550  175.9480  144.0950 N   0  0  0  0  0  2  0  0  0  0  0  0
  192.0450  176.4580  145.0890 C   0  0  2  0  0  3  0  0  0  0  0  0
  189.2970  176.3140  144.4160 C   0  0  0  0  0  0  0  0  0  0  0  0
  189.6510  176.3460  145.6690 N   0  0  0  0  0  0  0  0  0  0  0  0
  187.3540  175.8450  142.4350 S   0  0  0  0  0  0  0  0  0  0  0  0
  185.3320  177.4340  141.8050 O   0  0  0  0  0  0  0  0  0  0  0  0
  185.8730  177.5370  144.0770 N   0  0  0  0  0  2  0  0  0  0  0  0
  186.0630  177.0370  142.7520 C   0  0  0  0  0  0  0  0  0  0  0  0
  184.4080  178.3120  145.8580 C   0  0  0  0  0  1  0  0  0  0  0  0
  185.3670  179.9010  144.2280 C   0  0  0  0  0  1  0  0  0  0  0  0
  184.8330  178.4960  144.4140 C   0  0  0  0  0  3  0  0  0  0  0  0
  1  2  1  0  0  0  0
  1 10  1  0  0  0  0
  3  2  1  0  0  0  0
  4  7  1  6  0  0  0
  4 12  1  0  0  0  0
  5 10  1  0  0  0  0
  5 23  1  0  0  0  0
  6 21  1  1  0  0  0
  6 15  1  0  0  0  0
  8  3  2  0  0  0  0
  9 13  1  0  0  0  0
  9 14  1  0  0  0  0
 11  4  1  0  0  0  0
 11  6  1  0  0  0  0
 12 15  2  0  0  0  0
 12  8  1  0  0  0  0
 13  1  2  0  0  0  0
 14  5  2  0  0  0  0
 15 13  1  0  0  0  0
 16 19  1  0  0  0  0
 16 18  2  0  0  0  0
 17 14  1  0  0  0  0
 18 17  1  0  0  0  0
 19 20  2  0  0  0  0
 20 17  1  0  0  0  0
 22 21  1  0  0  0  0
 23 24  1  0  0  0  0
 25 24  1  0  0  0  0
 26 30  1  0  0  0  0
 27 26  1  0  0  0  0
 27 31  1  0  0  0  0
 29 31  1  0  0  0  0
 30 25  1  1  0  0  0
 30 28  1  0  0  0  0
 31 32  2  0  0  0  0
 32 28  1  0  0  0  0
 33 36  1  0  0  0  0
 33 29  1  0  0  0  0
 34 36  2  0  0  0  0
 35 39  1  0  0  0  0
 36 35  1  0  0  0  0
 38 39  1  0  0  0  0
 39 37  1  0  0  0  0
M  END
>  <MODEL>
1

>  <REMARK>
 VINA RESULT:      -7.0      0.000      0.000
  Name = 
  9 active torsions:
  status: ('A' for Active; 'I' for Inactive)
    1  A    between atoms: C_2  and  C_15
    2  A    between atoms: C_2  and  O_35
    3  A    between atoms: C_9  and  C_20
    4  A    between atoms: N_11  and  C_34
    5  A    between atoms: C_15  and  C_17
    6  A    between atoms: C_19  and  N_32
    7  A    between atoms: N_29  and  S_38
    8  A    between atoms: C_30  and  O_35
    9  A    between atoms: S_38  and  C_39
                            x       y       z     vdW  Elec       q    Type
                         _______ _______ _______ _____ _____    ______ ____

>  <TORSDO>
F 9

$$$$
=
 OpenBabel11042414583D

 39 43  0  0  1  0  0  0  0  0999 V2000
  192.6830  176.6520  144.3340 C   0  0  0  0  0  0  0  0  0  0  0  0
  193.6250  177.1200  145.3080 N   0  0  0  0  0  2  0  0  0  0  0  0
  194.9240  177.1440  145.3120 C   0  0  0  0  0  3  0  0  0  0  0  0
  196.6150  175.2050  142.5480 C   0  0  2  0  0  3  0  0  0  0  0  0
  190.2300  176.2600  144.0480 C   0  0  0  0  0  0  0  0  0  0  0  0
  194.4400  173.8510  142.6750 C   0  0  2  0  0  3  0  0  0  0  0  0
  196.7220  175.9320  141.2200 C   0  0  0  0  0  1  0  0  0  0  0  0
  195.7770  176.6430  144.2800 N   0  0  0  0  0  0  0  0  0  0  0  0
  191.8350  175.3830  142.4150 C   0  0  0  0  0  2  0  0  0  0  0  0
  191.3010  177.2480  144.4250 C   0  0  0  0  0  2  0  0  0  0  0  0
  196.1540  173.4680  142.2630 S   0  0  0  0  0  0  0  0  0  0  0  0
  195.5100  175.7810  143.3530 C   0  0  0  0  0  0  0  0  0  0  0  0
  192.9340  175.7060  143.4030 C   0  0  0  0  0  0  0  0  0  0  0  0
  190.4770  175.3590  143.0720 C   0  0  0  0  0  0  0  0  0  0  0  0
  194.2560  175.0580  143.2230 C   0  0  0  0  0  0  0  0  0  0  0  0
  188.0120  173.2780  141.3510 C   0  0  0  0  0  3  0  0  0  0  0  0
  189.5090  174.3880  142.6260 N   0  0  0  0  0  0  0  0  0  0  0  0
  188.6860  174.5610  141.5120 N   0  0  0  0  0  0  0  0  0  0  0  0
  188.3870  172.3760  142.4420 N   0  0  0  0  0  0  0  0  0  0  0  0
  189.3980  173.0770  143.2110 C   0  0  0  0  0  3  0  0  0  0  0  0
  193.3200  172.8760  142.4230 C   0  0  0  0  0  2  0  0  0  0  0  0
  193.1780  171.8250  143.5110 C   0  0  0  0  0  1  0  0  0  0  0  0
  188.9320  176.3380  144.7890 C   0  0  0  0  0  2  0  0  0  0  0  0
  188.1780  177.6130  144.4410 C   0  0  0  0  0  2  0  0  0  0  0  0
  187.1700  177.8470  145.3790 O   0  0  0  0  0  0  0  0  0  0  0  0
  186.2350  178.0960  143.2010 C   0  0  0  0  0  2  0  0  0  0  0  0
  184.9480  177.9230  142.3990 C   0  0  0  0  0  2  0  0  0  0  0  0
  184.9660  178.7420  145.2040 C   0  0  0  0  0  2  0  0  0  0  0  0
  182.5020  178.6220  142.3940 N   0  0  0  0  0  2  0  0  0  0  0  0
  185.9800  177.7460  144.6570 C   0  0  2  0  0  3  0  0  0  0  0  0
  183.7390  178.5030  143.0970 C   0  0  0  0  0  0  0  0  0  0  0  0
  183.7640  178.7900  144.3670 N   0  0  0  0  0  0  0  0  0  0  0  0
  182.3290  178.2430  140.6760 S   0  0  0  0  0  0  0  0  0  0  0  0
  179.9350  179.0140  139.8490 O   0  0  0  0  0  0  0  0  0  0  0  0
  179.8400  177.7880  141.8370 N   0  0  0  0  0  2  0  0  0  0  0  0
  180.5500  178.3840  140.7510 C   0  0  0  0  0  0  0  0  0  0  0  0
  177.8860  176.6490  142.7350 C   0  0  0  0  0  1  0  0  0  0  0  0
  178.0000  179.1160  142.6880 C   0  0  0  0  0  1  0  0  0  0  0  0
  178.3910  177.8490  141.9560 C   0  0  0  0  0  3  0  0  0  0  0  0
  1 10  1  0  0  0  0
  1  2  1  0  0  0  0
  2  3  1  0  0  0  0
  4  7  1  6  0  0  0
  4 12  1  0  0  0  0
  5 10  1  0  0  0  0
  5 23  1  0  0  0  0
  6 21  1  1  0  0  0
  6 15  1  0  0  0  0
  8  3  2  0  0  0  0
  9 14  1  0  0  0  0
  9 13  1  0  0  0  0
 11  4  1  0  0  0  0
 11  6  1  0  0  0  0
 12  8  1  0  0  0  0
 13  1  2  0  0  0  0
 14  5  2  0  0  0  0
 15 12  2  0  0  0  0
 15 13  1  0  0  0  0
 16 18  2  0  0  0  0
 16 19  1  0  0  0  0
 17 14  1  0  0  0  0
 17 20  1  0  0  0  0
 18 17  1  0  0  0  0
 19 20  2  0  0  0  0
 21 22  1  0  0  0  0
 24 23  1  0  0  0  0
 24 25  1  0  0  0  0
 26 30  1  0  0  0  0
 27 31  1  0  0  0  0
 27 26  1  0  0  0  0
 29 31  1  0  0  0  0
 30 28  1  0  0  0  0
 30 25  1  1  0  0  0
 31 32  2  0  0  0  0
 32 28  1  0  0  0  0
 33 36  1  0  0  0  0
 33 29  1  0  0  0  0
 34 36  2  0  0  0  0
 35 39  1  0  0  0  0
 36 35  1  0  0  0  0
 39 38  1  0  0  0  0
 39 37  1  0  0  0  0
M  END
>  <MODEL>
2

>  <REMARK>
 VINA RESULT:      -6.8      3.399      6.240
  Name = 
  9 active torsions:
  status: ('A' for Active; 'I' for Inactive)
    1  A    between atoms: C_2  and  C_15
    2  A    between atoms: C_2  and  O_35
    3  A    between atoms: C_9  and  C_20
    4  A    between atoms: N_11  and  C_34
    5  A    between atoms: C_15  and  C_17
    6  A    between atoms: C_19  and  N_32
    7  A    between atoms: N_29  and  S_38
    8  A    between atoms: C_30  and  O_35
    9  A    between atoms: S_38  and  C_39
                            x       y       z     vdW  Elec       q    Type
                         _______ _______ _______ _____ _____    ______ ____

>  <TORSDO>
F 9

$$$$
=
 OpenBabel11042414583D

 39 43  0  0  1  0  0  0  0  0999 V2000
  189.1020  174.9130  142.0930 C   0  0  0  0  0  0  0  0  0  0  0  0
  188.2040  175.1290  140.9980 N   0  0  0  0  0  0  0  0  0  0  0  0
  188.1070  174.5610  139.8330 C   0  0  0  0  0  3  0  0  0  0  0  0
  190.9650  172.2870  138.8710 C   0  0  2  0  0  3  0  0  0  0  0  0
  189.7150  175.8880  144.3130 C   0  0  0  0  0  0  0  0  0  0  0  0
  192.2450  173.8400  140.4630 C   0  0  2  0  0  3  0  0  0  0  0  0
  190.8890  170.8800  139.4340 C   0  0  0  0  0  1  0  0  0  0  0  0
  188.9620  173.5330  139.3270 N   0  0  0  0  0  0  0  0  0  0  0  0
  191.1290  174.1810  143.2630 C   0  0  0  0  0  2  0  0  0  0  0  0
  188.6050  175.3630  143.4440 C   0  0  0  0  0  2  0  0  0  0  0  0
  192.6730  172.9030  138.9810 S   0  0  0  0  0  0  0  0  0  0  0  0
  190.1570  173.2110  139.7050 C   0  0  0  0  0  0  0  0  0  0  0  0
  190.3450  174.3940  141.9860 C   0  0  1  0  0  3  0  0  0  0  0  0
  190.9390  175.3170  144.2370 C   0  0  0  0  0  0  0  0  0  0  0  0
  190.9320  173.9170  140.7110 C   0  0  0  0  0  0  0  0  0  0  0  0
  193.7450  175.7230  146.5460 C   0  0  0  0  0  3  0  0  0  0  0  0
  192.0590  175.7340  145.0440 N   0  0  0  0  0  0  0  0  0  0  0  0
  192.5140  175.0380  146.1650 N   0  0  0  0  0  0  0  0  0  0  0  0
  193.9580  176.8860  145.6810 N   0  0  0  0  0  0  0  0  0  0  0  0
  192.9080  176.8390  144.6810 C   0  0  0  0  0  3  0  0  0  0  0  0
  193.2920  174.4830  141.3330 C   0  0  0  0  0  2  0  0  0  0  0  0
  194.4170  173.5400  141.7230 C   0  0  0  0  0  1  0  0  0  0  0  0
  189.3930  177.0270  145.2270 C   0  0  0  0  0  2  0  0  0  0  0  0
  187.8970  177.1160  145.4850 C   0  0  0  0  0  2  0  0  0  0  0  0
  187.4180  178.3750  145.1130 O   0  0  0  0  0  0  0  0  0  0  0  0
  186.3760  178.5020  142.9740 C   0  0  0  0  0  2  0  0  0  0  0  0
  185.0940  178.1610  142.2190 C   0  0  0  0  0  2  0  0  0  0  0  0
  185.1090  178.9680  145.0270 C   0  0  0  0  0  2  0  0  0  0  0  0
  182.5790  178.5280  142.3100 N   0  0  0  0  0  2  0  0  0  0  0  0
  186.2250  178.1180  144.4350 C   0  0  2  0  0  3  0  0  0  0  0  0
  183.8460  178.5740  142.9650 C   0  0  0  0  0  0  0  0  0  0  0  0
  183.8810  178.8590  144.2360 N   0  0  0  0  0  0  0  0  0  0  0  0
  182.3920  178.1340  140.5960 S   0  0  0  0  0  0  0  0  0  0  0  0
  179.9450  178.6340  139.7190 O   0  0  0  0  0  0  0  0  0  0  0  0
  179.9560  177.7860  141.8980 N   0  0  0  0  0  2  0  0  0  0  0  0
  180.6110  178.2070  140.7000 C   0  0  0  0  0  0  0  0  0  0  0  0
  178.0700  176.6580  142.9420 C   0  0  0  0  0  1  0  0  0  0  0  0
  178.0840  179.1140  142.6760 C   0  0  0  0  0  1  0  0  0  0  0  0
  178.5090  177.8030  142.0490 C   0  0  0  0  0  3  0  0  0  0  0  0
  1 10  1  0  0  0  0
  2  1  2  0  0  0  0
  3  2  1  0  0  0  0
  4 11  1  0  0  0  0
  4  7  1  1  0  0  0
  4 12  1  0  0  0  0
  5 23  1  0  0  0  0
  6 15  1  0  0  0  0
  6 21  1  6  0  0  0
  8 12  1  0  0  0  0
  8  3  2  0  0  0  0
  9 14  1  0  0  0  0
 10  5  1  0  0  0  0
 11  6  1  0  0  0  0
 12 15  2  0  0  0  0
 13  1  1  0  0  0  0
 13  9  1  1  0  0  0
 14  5  2  0  0  0  0
 14 17  1  0  0  0  0
 15 13  1  0  0  0  0
 17 18  1  0  0  0  0
 18 16  2  0  0  0  0
 19 16  1  0  0  0  0
 20 17  1  0  0  0  0
 20 19  2  0  0  0  0
 21 22  1  0  0  0  0
 23 24  1  0  0  0  0
 25 24  1  0  0  0  0
 26 30  1  0  0  0  0
 27 31  1  0  0  0  0
 27 26  1  0  0  0  0
 29 31  1  0  0  0  0
 30 28  1  0  0  0  0
 30 25  1  1  0  0  0
 31 32  2  0  0  0  0
 32 28  1  0  0  0  0
 33 36  1  0  0  0  0
 33 29  1  0  0  0  0
 34 36  2  0  0  0  0
 35 39  1  0  0  0  0
 36 35  1  0  0  0  0
 39 38  1  0  0  0  0
 39 37  1  0  0  0  0
M  END
>  <MODEL>
3

>  <REMARK>
 VINA RESULT:      -6.7      3.370      4.977
  Name = 
  9 active torsions:
  status: ('A' for Active; 'I' for Inactive)
    1  A    between atoms: C_2  and  C_15
    2  A    between atoms: C_2  and  O_35
    3  A    between atoms: C_9  and  C_20
    4  A    between atoms: N_11  and  C_34
    5  A    between atoms: C_15  and  C_17
    6  A    between atoms: C_19  and  N_32
    7  A    between atoms: N_29  and  S_38
    8  A    between atoms: C_30  and  O_35
    9  A    between atoms: S_38  and  C_39
                            x       y       z     vdW  Elec       q    Type
                         _______ _______ _______ _____ _____    ______ ____

>  <TORSDO>
F 9

$$$$
=
 OpenBabel11042414583D

 39 43  0  0  1  0  0  0  0  0999 V2000
  191.4620  172.9980  143.2880 C   0  0  0  0  0  0  0  0  0  0  0  0
  190.0310  172.9400  143.2730 N   0  0  0  0  0  2  0  0  0  0  0  0
  189.1890  172.5910  142.3480 C   0  0  0  0  0  3  0  0  0  0  0  0
  190.6440  172.1190  138.8940 C   0  0  2  0  0  3  0  0  0  0  0  0
  193.3520  173.7730  144.7320 C   0  0  0  0  0  0  0  0  0  0  0  0
  192.3530  173.8090  139.7900 C   0  0  2  0  0  3  0  0  0  0  0  0
  191.2960  170.7710  138.6470 C   0  0  0  0  0  1  0  0  0  0  0  0
  189.5230  172.1830  141.0190 N   0  0  0  0  0  0  0  0  0  0  0  0
  193.7440  173.1280  142.3980 C   0  0  0  0  0  2  0  0  0  0  0  0
  192.1040  172.9360  144.6520 C   0  0  0  0  0  2  0  0  0  0  0  0
  191.6620  173.4380  138.1660 S   0  0  0  0  0  0  0  0  0  0  0  0
  190.6090  172.4050  140.3500 C   0  0  0  0  0  0  0  0  0  0  0  0
  192.2440  173.1500  142.1970 C   0  0  0  0  0  0  0  0  0  0  0  0
  194.1560  173.8650  143.6480 C   0  0  0  0  0  0  0  0  0  0  0  0
  191.7210  173.2190  140.8110 C   0  0  0  0  0  0  0  0  0  0  0  0
  197.5760  175.1560  143.6240 C   0  0  0  0  0  3  0  0  0  0  0  0
  195.3820  174.6230  143.6330 N   0  0  0  0  0  0  0  0  0  0  0  0
  196.6350  174.0840  143.9300 N   0  0  0  0  0  0  0  0  0  0  0  0
  196.8470  176.3620  143.2250 N   0  0  0  0  0  0  0  0  0  0  0  0
  195.4480  175.9840  143.1690 C   0  0  0  0  0  3  0  0  0  0  0  0
  193.5400  174.7190  139.9660 C   0  0  0  0  0  2  0  0  0  0  0  0
  194.6170  174.5180  138.9130 C   0  0  0  0  0  1  0  0  0  0  0  0
  193.6350  174.4620  146.0290 C   0  0  0  0  0  2  0  0  0  0  0  0
  192.4870  175.3760  146.4260 C   0  0  0  0  0  2  0  0  0  0  0  0
  191.8520  174.8840  147.5690 O   0  0  0  0  0  0  0  0  0  0  0  0
  189.8350  175.0480  146.3100 C   0  0  0  0  0  2  0  0  0  0  0  0
  188.4290  175.6420  146.3310 C   0  0  0  0  0  2  0  0  0  0  0  0
  190.7340  176.9900  147.5180 C   0  0  0  0  0  2  0  0  0  0  0  0
  187.2150  177.8600  146.6030 N   0  0  0  0  0  2  0  0  0  0  0  0
  190.5880  175.4750  147.5590 C   0  0  2  0  0  3  0  0  0  0  0  0
  188.4130  177.0970  146.7410 C   0  0  0  0  0  0  0  0  0  0  0  0
  189.4360  177.6440  147.3330 N   0  0  0  0  0  0  0  0  0  0  0  0
  185.7510  177.2280  145.8390 S   0  0  0  0  0  0  0  0  0  0  0  0
  185.6470  179.1450  144.0160 O   0  0  0  0  0  0  0  0  0  0  0  0
  186.9920  177.3520  143.3500 N   0  0  0  0  0  2  0  0  0  0  0  0
  186.1370  178.0140  144.2830 C   0  0  0  0  0  0  0  0  0  0  0  0
  188.8620  178.1630  142.0220 C   0  0  0  0  0  1  0  0  0  0  0  0
  186.9650  176.9970  140.9540 C   0  0  0  0  0  1  0  0  0  0  0  0
  187.3630  177.9380  142.0710 C   0  0  0  0  0  3  0  0  0  0  0  0
  1 10  1  0  0  0  0
  2  1  1  0  0  0  0
  3  2  1  0  0  0  0
  4  7  1  1  0  0  0
  4 12  1  0  0  0  0
  5 23  1  0  0  0  0
  6 21  1  1  0  0  0
  6 15  1  0  0  0  0
  8  3  2  0  0  0  0
  9 14  1  0  0  0  0
 10  5  1  0  0  0  0
 11  4  1  0  0  0  0
 11  6  1  0  0  0  0
 12 15  2  0  0  0  0
 12  8  1  0  0  0  0
 13  9  1  0  0  0  0
 13  1  2  0  0  0  0
 14  5  2  0  0  0  0
 15 13  1  0  0  0  0
 16 18  2  0  0  0  0
 17 14  1  0  0  0  0
 17 18  1  0  0  0  0
 19 16  1  0  0  0  0
 20 19  2  0  0  0  0
 20 17  1  0  0  0  0
 22 21  1  0  0  0  0
 23 24  1  0  0  0  0
 24 25  1  0  0  0  0
 26 27  1  0  0  0  0
 26 30  1  0  0  0  0
 27 31  1  0  0  0  0
 28 30  1  0  0  0  0
 29 31  1  0  0  0  0
 30 25  1  6  0  0  0
 31 32  2  0  0  0  0
 32 28  1  0  0  0  0
 33 29  1  0  0  0  0
 34 36  2  0  0  0  0
 35 36  1  0  0  0  0
 36 33  1  0  0  0  0
 37 39  1  0  0  0  0
 38 39  1  0  0  0  0
 39 35  1  0  0  0  0
M  END
>  <MODEL>
4

>  <REMARK>
 VINA RESULT:      -6.7      1.767      2.386
  Name = 
  9 active torsions:
  status: ('A' for Active; 'I' for Inactive)
    1  A    between atoms: C_2  and  C_15
    2  A    between atoms: C_2  and  O_35
    3  A    between atoms: C_9  and  C_20
    4  A    between atoms: N_11  and  C_34
    5  A    between atoms: C_15  and  C_17
    6  A    between atoms: C_19  and  N_32
    7  A    between atoms: N_29  and  S_38
    8  A    between atoms: C_30  and  O_35
    9  A    between atoms: S_38  and  C_39
                            x       y       z     vdW  Elec       q    Type
                         _______ _______ _______ _____ _____    ______ ____

>  <TORSDO>
F 9

$$$$
=
 OpenBabel11042414583D

 39 43  0  0  1  0  0  0  0  0999 V2000
  192.5460  174.0630  141.5140 C   0  0  0  0  0  0  0  0  0  0  0  0
  193.0400  174.2380  140.1800 N   0  0  0  0  0  0  0  0  0  0  0  0
  194.2390  174.4250  139.7200 C   0  0  0  0  0  3  0  0  0  0  0  0
  196.8950  175.1640  142.3020 C   0  0  2  0  0  3  0  0  0  0  0  0
  190.3920  173.8890  142.7730 C   0  0  0  0  0  0  0  0  0  0  0  0
  194.8660  176.0650  143.5870 C   0  0  2  0  0  3  0  0  0  0  0  0
  197.4780  173.9470  142.9960 C   0  0  0  0  0  1  0  0  0  0  0  0
  195.4310  174.5400  140.5020 N   0  0  0  0  0  0  0  0  0  0  0  0
  192.5150  174.1850  143.9630 C   0  0  0  0  0  2  0  0  0  0  0  0
  191.2180  173.3590  141.6320 C   0  0  0  0  0  2  0  0  0  0  0  0
  196.6180  176.4910  143.5140 S   0  0  0  0  0  0  0  0  0  0  0  0
  195.5550  174.8420  141.7540 C   0  0  0  0  0  0  0  0  0  0  0  0
  193.1530  174.5180  142.6320 C   0  0  1  0  0  3  0  0  0  0  0  0
  191.0110  174.2840  143.9080 C   0  0  0  0  0  0  0  0  0  0  0  0
  194.4600  175.2190  142.6330 C   0  0  0  0  0  0  0  0  0  0  0  0
  189.3050  174.9000  147.0820 C   0  0  0  0  0  3  0  0  0  0  0  0
  190.3060  174.7850  145.0620 N   0  0  0  0  0  0  0  0  0  0  0  0
  189.7540  173.9700  146.0520 N   0  0  0  0  0  0  0  0  0  0  0  0
  189.5250  176.2790  146.6410 N   0  0  0  0  0  0  0  0  0  0  0  0
  190.2290  176.1870  145.3760 C   0  0  0  0  0  3  0  0  0  0  0  0
  193.9480  176.6320  144.6370 C   0  0  0  0  0  2  0  0  0  0  0  0
  194.5480  176.6240  146.0330 C   0  0  0  0  0  1  0  0  0  0  0  0
  188.9100  173.9450  142.5800 C   0  0  0  0  0  2  0  0  0  0  0  0
  188.5480  173.9330  141.1030 C   0  0  0  0  0  2  0  0  0  0  0  0
  188.5800  175.2320  140.5900 O   0  0  0  0  0  0  0  0  0  0  0  0
  186.6560  176.5750  141.0050 C   0  0  0  0  0  2  0  0  0  0  0  0
  185.9390  177.3780  142.0860 C   0  0  0  0  0  2  0  0  0  0  0  0
  188.8500  177.1940  141.9210 C   0  0  0  0  0  2  0  0  0  0  0  0
  186.3300  179.2690  143.7420 N   0  0  0  0  0  2  0  0  0  0  0  0
  187.9540  176.0160  141.5600 C   0  0  2  0  0  3  0  0  0  0  0  0
  186.8680  178.2930  142.8500 C   0  0  0  0  0  0  0  0  0  0  0  0
  188.1600  178.1340  142.8070 N   0  0  0  0  0  0  0  0  0  0  0  0
  184.5960  179.5680  143.9120 S   0  0  0  0  0  0  0  0  0  0  0  0
  183.4950  178.6650  146.1440 O   0  0  0  0  0  0  0  0  0  0  0  0
  185.8170  178.8800  146.3180 N   0  0  0  0  0  2  0  0  0  0  0  0
  184.5870  178.9810  145.5990 C   0  0  0  0  0  0  0  0  0  0  0  0
  186.0730  176.8910  147.6940 C   0  0  0  0  0  1  0  0  0  0  0  0
  187.0650  179.0440  148.3880 C   0  0  0  0  0  1  0  0  0  0  0  0
  185.8890  178.3960  147.6880 C   0  0  0  0  0  3  0  0  0  0  0  0
  1 10  1  0  0  0  0
  1 13  1  0  0  0  0
  2  1  2  0  0  0  0
  3  2  1  0  0  0  0
  3  8  2  0  0  0  0
  4  7  1  1  0  0  0
  4 11  1  0  0  0  0
  5 14  2  0  0  0  0
  6 21  1  6  0  0  0
  8 12  1  0  0  0  0
 10  5  1  0  0  0  0
 11  6  1  0  0  0  0
 12  4  1  0  0  0  0
 12 15  2  0  0  0  0
 13 15  1  0  0  0  0
 13  9  1  1  0  0  0
 14  9  1  0  0  0  0
 14 17  1  0  0  0  0
 15  6  1  0  0  0  0
 17 20  1  0  0  0  0
 17 18  1  0  0  0  0
 18 16  2  0  0  0  0
 19 16  1  0  0  0  0
 20 19  2  0  0  0  0
 21 22  1  0  0  0  0
 23  5  1  0  0  0  0
 24 23  1  0  0  0  0
 25 24  1  0  0  0  0
 26 30  1  0  0  0  0
 26 27  1  0  0  0  0
 27 31  1  0  0  0  0
 28 32  1  0  0  0  0
 29 33  1  0  0  0  0
 30 25  1  6  0  0  0
 30 28  1  0  0  0  0
 31 29  1  0  0  0  0
 32 31  2  0  0  0  0
 33 36  1  0  0  0  0
 35 39  1  0  0  0  0
 36 34  2  0  0  0  0
 36 35  1  0  0  0  0
 39 37  1  0  0  0  0
 39 38  1  0  0  0  0
M  END
>  <MODEL>
5

>  <REMARK>
 VINA RESULT:      -6.6      2.730      5.630
  Name = 
  9 active torsions:
  status: ('A' for Active; 'I' for Inactive)
    1  A    between atoms: C_2  and  C_15
    2  A    between atoms: C_2  and  O_35
    3  A    between atoms: C_9  and  C_20
    4  A    between atoms: N_11  and  C_34
    5  A    between atoms: C_15  and  C_17
    6  A    between atoms: C_19  and  N_32
    7  A    between atoms: N_29  and  S_38
    8  A    between atoms: C_30  and  O_35
    9  A    between atoms: S_38  and  C_39
                            x       y       z     vdW  Elec       q    Type
                         _______ _______ _______ _____ _____    ______ ____

>  <TORSDO>
F 9

$$$$
=
 OpenBabel11042414583D

 39 43  0  0  1  0  0  0  0  0999 V2000
  195.8020  175.0490  143.6400 C   0  0  0  0  0  0  0  0  0  0  0  0
  196.8450  174.0940  143.8690 N   0  0  0  0  0  2  0  0  0  0  0  0
  197.6940  173.5300  143.0630 C   0  0  0  0  0  3  0  0  0  0  0  0
  197.0520  174.0430  139.3770 C   0  0  2  0  0  3  0  0  0  0  0  0
  193.9100  176.1700  144.8310 C   0  0  0  0  0  0  0  0  0  0  0  0
  194.6380  174.2850  140.2120 C   0  0  2  0  0  3  0  0  0  0  0  0
  197.5610  175.3550  138.8080 C   0  0  0  0  0  1  0  0  0  0  0  0
  197.7670  173.7260  141.6490 N   0  0  0  0  0  0  0  0  0  0  0  0
  194.1230  176.3290  142.3930 C   0  0  0  0  0  2  0  0  0  0  0  0
  195.3820  175.8580  144.8410 C   0  0  0  0  0  2  0  0  0  0  0  0
  195.4050  173.6750  138.6970 S   0  0  0  0  0  0  0  0  0  0  0  0
  196.8560  174.1680  140.8420 C   0  0  0  0  0  0  0  0  0  0  0  0
  195.1580  175.2280  142.4650 C   0  0  0  0  0  0  0  0  0  0  0  0
  193.2940  176.4070  143.6510 C   0  0  0  0  0  0  0  0  0  0  0  0
  195.4910  174.4920  141.2230 C   0  0  0  0  0  0  0  0  0  0  0  0
  189.9710  177.9060  143.3660 C   0  0  0  0  0  3  0  0  0  0  0  0
  191.8940  176.7350  143.5390 N   0  0  0  0  0  0  0  0  0  0  0  0
  191.3740  178.0130  143.7510 N   0  0  0  0  0  0  0  0  0  0  0  0
  189.6560  176.5210  143.0080 N   0  0  0  0  0  0  0  0  0  0  0  0
  190.9130  175.7990  143.0580 C   0  0  0  0  0  3  0  0  0  0  0  0
  193.1560  174.5280  140.3160 C   0  0  0  0  0  2  0  0  0  0  0  0
  192.3550  173.2660  140.5900 C   0  0  0  0  0  1  0  0  0  0  0  0
  193.2050  176.2030  146.1500 C   0  0  0  0  0  2  0  0  0  0  0  0
  192.3270  174.9760  146.3320 C   0  0  0  0  0  2  0  0  0  0  0  0
  191.8470  174.9170  147.6430 O   0  0  0  0  0  0  0  0  0  0  0  0
  189.8130  174.9100  146.4020 C   0  0  0  0  0  2  0  0  0  0  0  0
  188.3980  175.4820  146.3740 C   0  0  0  0  0  2  0  0  0  0  0  0
  190.6950  176.9890  147.3690 C   0  0  0  0  0  2  0  0  0  0  0  0
  187.1530  177.6990  146.4090 N   0  0  0  0  0  2  0  0  0  0  0  0
  190.5730  175.4860  147.5830 C   0  0  2  0  0  3  0  0  0  0  0  0
  188.3640  176.9730  146.6170 C   0  0  0  0  0  0  0  0  0  0  0  0
  189.3850  177.5990  147.1290 N   0  0  0  0  0  0  0  0  0  0  0  0
  185.6890  176.9640  145.7420 S   0  0  0  0  0  0  0  0  0  0  0  0
  185.5750  179.2500  144.4110 O   0  0  0  0  0  0  0  0  0  0  0  0
  185.9640  177.4190  143.0090 N   0  0  0  0  0  2  0  0  0  0  0  0
  185.7410  178.0060  144.2920 C   0  0  0  0  0  0  0  0  0  0  0  0
  187.0440  177.5930  140.8360 C   0  0  0  0  0  1  0  0  0  0  0  0
  184.6740  178.2240  141.1230 C   0  0  0  0  0  1  0  0  0  0  0  0
  186.0340  178.2060  141.7870 C   0  0  0  0  0  3  0  0  0  0  0  0
  1  2  1  0  0  0  0
  1 10  1  0  0  0  0
  3  2  1  0  0  0  0
  4  7  1  6  0  0  0
  4 12  1  0  0  0  0
  5 10  1  0  0  0  0
  5 23  1  0  0  0  0
  6 21  1  1  0  0  0
  6 15  1  0  0  0  0
  8  3  2  0  0  0  0
  9 13  1  0  0  0  0
  9 14  1  0  0  0  0
 11  4  1  0  0  0  0
 11  6  1  0  0  0  0
 12 15  2  0  0  0  0
 12  8  1  0  0  0  0
 13  1  2  0  0  0  0
 14  5  2  0  0  0  0
 15 13  1  0  0  0  0
 16 18  2  0  0  0  0
 17 14  1  0  0  0  0
 17 18  1  0  0  0  0
 19 20  2  0  0  0  0
 19 16  1  0  0  0  0
 20 17  1  0  0  0  0
 21 22  1  0  0  0  0
 23 24  1  0  0  0  0
 24 25  1  0  0  0  0
 26 30  1  0  0  0  0
 27 26  1  0  0  0  0
 27 31  1  0  0  0  0
 28 30  1  0  0  0  0
 29 31  1  0  0  0  0
 30 25  1  6  0  0  0
 31 32  2  0  0  0  0
 32 28  1  0  0  0  0
 33 29  1  0  0  0  0
 35 36  1  0  0  0  0
 36 34  2  0  0  0  0
 36 33  1  0  0  0  0
 37 39  1  0  0  0  0
 38 39  1  0  0  0  0
 39 35  1  0  0  0  0
M  END
>  <MODEL>
6

>  <REMARK>
 VINA RESULT:      -6.5      2.398      4.577
  Name = 
  9 active torsions:
  status: ('A' for Active; 'I' for Inactive)
    1  A    between atoms: C_2  and  C_15
    2  A    between atoms: C_2  and  O_35
    3  A    between atoms: C_9  and  C_20
    4  A    between atoms: N_11  and  C_34
    5  A    between atoms: C_15  and  C_17
    6  A    between atoms: C_19  and  N_32
    7  A    between atoms: N_29  and  S_38
    8  A    between atoms: C_30  and  O_35
    9  A    between atoms: S_38  and  C_39
                            x       y       z     vdW  Elec       q    Type
                         _______ _______ _______ _____ _____    ______ ____

>  <TORSDO>
F 9

$$$$
=
 OpenBabel11042414583D

 39 43  0  0  1  0  0  0  0  0999 V2000
  186.6520  177.3820  144.6990 C   0  0  0  0  0  0  0  0  0  0  0  0
  186.1950  178.5920  145.3150 N   0  0  0  0  0  2  0  0  0  0  0  0
  185.2080  179.3880  145.0310 C   0  0  0  0  0  3  0  0  0  0  0  0
  183.4970  178.7680  141.7210 C   0  0  2  0  0  3  0  0  0  0  0  0
  188.5420  175.7480  144.8140 C   0  0  0  0  0  0  0  0  0  0  0  0
  185.8100  177.8320  141.1250 C   0  0  2  0  0  3  0  0  0  0  0  0
  182.4540  177.6660  141.7300 C   0  0  0  0  0  1  0  0  0  0  0  0
  184.3010  179.2430  143.9350 N   0  0  0  0  0  0  0  0  0  0  0  0
  186.9530  175.6930  142.9470 C   0  0  0  0  0  2  0  0  0  0  0  0
  187.4660  176.4680  145.5810 C   0  0  0  0  0  2  0  0  0  0  0  0
  184.4970  178.6590  140.2060 S   0  0  0  0  0  0  0  0  0  0  0  0
  184.4520  178.5710  142.8400 C   0  0  0  0  0  0  0  0  0  0  0  0
  186.4490  177.0430  143.4070 C   0  0  0  0  0  0  0  0  0  0  0  0
  188.2990  175.3620  143.5410 C   0  0  0  0  0  0  0  0  0  0  0  0
  185.6620  177.8630  142.4550 C   0  0  0  0  0  0  0  0  0  0  0  0
  191.1050  174.1440  141.5380 C   0  0  0  0  0  3  0  0  0  0  0  0
  189.2570  174.6480  142.7330 N   0  0  0  0  0  0  0  0  0  0  0  0
  190.3260  175.2550  142.0720 N   0  0  0  0  0  0  0  0  0  0  0  0
  190.4280  172.8770  141.8220 N   0  0  0  0  0  0  0  0  0  0  0  0
  189.2830  173.2110  142.6480 C   0  0  0  0  0  3  0  0  0  0  0  0
  186.9760  177.1730  140.4370 C   0  0  0  0  0  2  0  0  0  0  0  0
  186.7010  176.8230  138.9840 C   0  0  0  0  0  1  0  0  0  0  0  0
  189.8370  175.4940  145.5200 C   0  0  0  0  0  2  0  0  0  0  0  0
  190.7750  176.6830  145.3860 C   0  0  0  0  0  2  0  0  0  0  0  0
  191.7920  176.6040  146.3410 O   0  0  0  0  0  0  0  0  0  0  0  0
  194.0970  176.0320  146.5300 C   0  0  0  0  0  2  0  0  0  0  0  0
  195.2120  175.2260  145.8700 C   0  0  0  0  0  2  0  0  0  0  0  0
  193.0960  176.5420  144.3450 C   0  0  0  0  0  2  0  0  0  0  0  0
  196.3940  174.9300  143.6370 N   0  0  0  0  0  2  0  0  0  0  0  0
  192.8260  175.9150  145.7060 C   0  0  2  0  0  3  0  0  0  0  0  0
  195.2810  175.4340  144.3740 C   0  0  0  0  0  0  0  0  0  0  0  0
  194.2860  175.9610  143.7190 N   0  0  0  0  0  0  0  0  0  0  0  0
  197.7960  174.1730  144.4040 S   0  0  0  0  0  0  0  0  0  0  0  0
  196.7660  172.0560  143.1950 O   0  0  0  0  0  0  0  0  0  0  0  0
  196.7960  171.8280  145.5210 N   0  0  0  0  0  2  0  0  0  0  0  0
  197.0570  172.5500  144.3170 C   0  0  0  0  0  0  0  0  0  0  0  0
  196.8280  169.6660  146.6380 C   0  0  0  0  0  1  0  0  0  0  0  0
  194.7190  170.6030  145.7580 C   0  0  0  0  0  1  0  0  0  0  0  0
  196.2110  170.4950  145.5280 C   0  0  0  0  0  3  0  0  0  0  0  0
  1  2  1  0  0  0  0
  1 10  1  0  0  0  0
  3  2  1  0  0  0  0
  4  7  1  6  0  0  0
  4 12  1  0  0  0  0
  5 23  1  0  0  0  0
  5 10  1  0  0  0  0
  6 21  1  1  0  0  0
  6 15  1  0  0  0  0
  8  3  2  0  0  0  0
  9 13  1  0  0  0  0
  9 14  1  0  0  0  0
 11  6  1  0  0  0  0
 11  4  1  0  0  0  0
 12  8  1  0  0  0  0
 13  1  2  0  0  0  0
 14  5  2  0  0  0  0
 15 12  2  0  0  0  0
 15 13  1  0  0  0  0
 16 19  1  0  0  0  0
 16 18  2  0  0  0  0
 17 14  1  0  0  0  0
 18 17  1  0  0  0  0
 19 20  2  0  0  0  0
 20 17  1  0  0  0  0
 22 21  1  0  0  0  0
 24 23  1  0  0  0  0
 24 25  1  0  0  0  0
 27 26  1  0  0  0  0
 28 30  1  0  0  0  0
 29 31  1  0  0  0  0
 29 33  1  0  0  0  0
 30 25  1  1  0  0  0
 30 26  1  0  0  0  0
 31 27  1  0  0  0  0
 32 28  1  0  0  0  0
 32 31  2  0  0  0  0
 34 36  2  0  0  0  0
 35 39  1  0  0  0  0
 36 33  1  0  0  0  0
 36 35  1  0  0  0  0
 39 38  1  0  0  0  0
 39 37  1  0  0  0  0
M  END
>  <MODEL>
7

>  <REMARK>
 VINA RESULT:      -6.5      2.901      8.417
  Name = 
  9 active torsions:
  status: ('A' for Active; 'I' for Inactive)
    1  A    between atoms: C_2  and  C_15
    2  A    between atoms: C_2  and  O_35
    3  A    between atoms: C_9  and  C_20
    4  A    between atoms: N_11  and  C_34
    5  A    between atoms: C_15  and  C_17
    6  A    between atoms: C_19  and  N_32
    7  A    between atoms: N_29  and  S_38
    8  A    between atoms: C_30  and  O_35
    9  A    between atoms: S_38  and  C_39
                            x       y       z     vdW  Elec       q    Type
                         _______ _______ _______ _____ _____    ______ ____

>  <TORSDO>
F 9

$$$$
=
 OpenBabel11042414583D

 39 43  0  0  1  0  0  0  0  0999 V2000
  192.1060  173.0510  144.6650 C   0  0  0  0  0  0  0  0  0  0  0  0
  190.7230  173.0670  145.0390 N   0  0  0  0  0  2  0  0  0  0  0  0
  189.6890  172.4490  144.5530 C   0  0  0  0  0  3  0  0  0  0  0  0
  190.2300  170.6730  141.2630 C   0  0  2  0  0  3  0  0  0  0  0  0
  194.2650  174.1990  145.1910 C   0  0  0  0  0  0  0  0  0  0  0  0
  192.0320  172.4830  141.0100 C   0  0  2  0  0  3  0  0  0  0  0  0
  190.8590  169.2960  141.3680 C   0  0  0  0  0  1  0  0  0  0  0  0
  189.6900  171.5670  143.4280 N   0  0  0  0  0  0  0  0  0  0  0  0
  194.0750  172.7280  143.2390 C   0  0  0  0  0  2  0  0  0  0  0  0
  193.0790  173.4570  145.7450 C   0  0  0  0  0  2  0  0  0  0  0  0
  190.9640  171.5810  139.8690 S   0  0  0  0  0  0  0  0  0  0  0  0
  190.5560  171.4720  142.4710 C   0  0  0  0  0  0  0  0  0  0  0  0
  192.5750  172.7530  143.4330 C   0  0  0  0  0  0  0  0  0  0  0  0
  194.7590  173.8470  143.9830 C   0  0  0  0  0  0  0  0  0  0  0  0
  191.7100  172.3390  142.3020 C   0  0  0  0  0  0  0  0  0  0  0  0
  197.9410  174.8120  142.4620 C   0  0  0  0  0  3  0  0  0  0  0  0
  195.9040  174.4830  143.3790 N   0  0  0  0  0  0  0  0  0  0  0  0
  197.1640  173.8890  143.2830 N   0  0  0  0  0  0  0  0  0  0  0  0
  197.1410  175.9990  142.1510 N   0  0  0  0  0  0  0  0  0  0  0  0
  195.8180  175.7420  142.6870 C   0  0  0  0  0  3  0  0  0  0  0  0
  193.1800  173.3300  140.5320 C   0  0  0  0  0  2  0  0  0  0  0  0
  194.0900  172.6150  139.5470 C   0  0  0  0  0  1  0  0  0  0  0  0
  194.8400  175.2980  146.0280 C   0  0  0  0  0  2  0  0  0  0  0  0
  193.8110  176.3900  146.2790 C   0  0  0  0  0  2  0  0  0  0  0  0
  193.4470  176.9940  145.0740 O   0  0  0  0  0  0  0  0  0  0  0  0
  191.5580  176.5600  146.4600 C   0  0  0  0  0  2  0  0  0  0  0  0
  190.0580  176.8060  146.5900 C   0  0  0  0  0  2  0  0  0  0  0  0
  191.3840  176.4400  144.0120 C   0  0  0  0  0  2  0  0  0  0  0  0
  187.8790  176.5060  145.3110 N   0  0  0  0  0  2  0  0  0  0  0  0
  192.0650  177.1670  145.1640 C   0  0  2  0  0  3  0  0  0  0  0  0
  189.3060  176.5370  145.3060 C   0  0  0  0  0  0  0  0  0  0  0  0
  189.9270  176.4500  144.1640 N   0  0  0  0  0  0  0  0  0  0  0  0
  186.9170  176.6350  146.7890 S   0  0  0  0  0  0  0  0  0  0  0  0
  184.4290  177.4970  146.5130 O   0  0  0  0  0  0  0  0  0  0  0  0
  185.6260  177.5690  144.5060 N   0  0  0  0  0  2  0  0  0  0  0  0
  185.5120  177.2910  145.9020 C   0  0  0  0  0  0  0  0  0  0  0  0
  184.2610  179.5510  144.1430 C   0  0  0  0  0  1  0  0  0  0  0  0
  184.9010  178.0930  142.2540 C   0  0  0  0  0  1  0  0  0  0  0  0
  184.5300  178.1190  143.7220 C   0  0  0  0  0  3  0  0  0  0  0  0
  1  2  1  0  0  0  0
  1 10  1  0  0  0  0
  3  2  1  0  0  0  0
  4  7  1  1  0  0  0
  4 12  1  0  0  0  0
  5 10  1  0  0  0  0
  5 23  1  0  0  0  0
  6 21  1  6  0  0  0
  6 15  1  0  0  0  0
  8  3  2  0  0  0  0
  9 13  1  0  0  0  0
  9 14  1  0  0  0  0
 11  6  1  0  0  0  0
 11  4  1  0  0  0  0
 12  8  1  0  0  0  0
 13  1  2  0  0  0  0
 14  5  2  0  0  0  0
 15 12  2  0  0  0  0
 15 13  1  0  0  0  0
 16 18  2  0  0  0  0
 17 14  1  0  0  0  0
 18 17  1  0  0  0  0
 19 16  1  0  0  0  0
 19 20  2  0  0  0  0
 20 17  1  0  0  0  0
 22 21  1  0  0  0  0
 23 24  1  0  0  0  0
 25 24  1  0  0  0  0
 26 27  1  0  0  0  0
 28 32  1  0  0  0  0
 28 30  1  0  0  0  0
 29 33  1  0  0  0  0
 30 25  1  6  0  0  0
 30 26  1  0  0  0  0
 31 29  1  0  0  0  0
 31 27  1  0  0  0  0
 32 31  2  0  0  0  0
 35 36  1  0  0  0  0
 36 34  2  0  0  0  0
 36 33  1  0  0  0  0
 38 39  1  0  0  0  0
 39 37  1  0  0  0  0
 39 35  1  0  0  0  0
M  END
>  <MODEL>
8

>  <REMARK>
 VINA RESULT:      -6.4      1.420      1.789
  Name = 
  9 active torsions:
  status: ('A' for Active; 'I' for Inactive)
    1  A    between atoms: C_2  and  C_15
    2  A    between atoms: C_2  and  O_35
    3  A    between atoms: C_9  and  C_20
    4  A    between atoms: N_11  and  C_34
    5  A    between atoms: C_15  and  C_17
    6  A    between atoms: C_19  and  N_32
    7  A    between atoms: N_29  and  S_38
    8  A    between atoms: C_30  and  O_35
    9  A    between atoms: S_38  and  C_39
                            x       y       z     vdW  Elec       q    Type
                         _______ _______ _______ _____ _____    ______ ____

>  <TORSDO>
F 9

$$$$
=
 OpenBabel11042414583D

 39 43  0  0  1  0  0  0  0  0999 V2000
  193.0960  172.4950  142.0900 C   0  0  0  0  0  0  0  0  0  0  0  0
  193.3900  171.0940  142.1650 N   0  0  0  0  0  2  0  0  0  0  0  0
  193.1770  170.1200  141.3330 C   0  0  0  0  0  3  0  0  0  0  0  0
  190.9440  170.9270  138.3950 C   0  0  2  0  0  3  0  0  0  0  0  0
  193.1570  174.5620  143.4970 C   0  0  0  0  0  0  0  0  0  0  0  0
  190.0110  172.6470  140.0540 C   0  0  2  0  0  3  0  0  0  0  0  0
  191.6320  171.6170  137.2310 C   0  0  0  0  0  1  0  0  0  0  0  0
  192.5220  170.2260  140.0660 N   0  0  0  0  0  0  0  0  0  0  0  0
  191.9910  174.5510  141.3390 C   0  0  0  0  0  2  0  0  0  0  0  0
  193.9350  173.3860  142.9720 C   0  0  0  0  0  2  0  0  0  0  0  0
  189.3190  171.6890  138.6900 S   0  0  0  0  0  0  0  0  0  0  0  0
  191.7170  171.1460  139.6420 C   0  0  0  0  0  0  0  0  0  0  0  0
  192.1140  173.0430  141.3410 C   0  0  0  0  0  0  0  0  0  0  0  0
  192.2190  175.1370  142.7100 C   0  0  0  0  0  0  0  0  0  0  0  0
  191.2350  172.2640  140.4370 C   0  0  0  0  0  0  0  0  0  0  0  0
  190.7750  178.4090  143.4730 C   0  0  0  0  0  3  0  0  0  0  0  0
  191.4380  176.2800  143.1140 N   0  0  0  0  0  0  0  0  0  0  0  0
  191.9440  177.5790  143.1990 N   0  0  0  0  0  0  0  0  0  0  0  0
  189.5890  177.5640  143.6340 N   0  0  0  0  0  0  0  0  0  0  0  0
  190.0180  176.2110  143.3330 C   0  0  0  0  0  3  0  0  0  0  0  0
  189.2550  173.7760  140.7030 C   0  0  0  0  0  2  0  0  0  0  0  0
  188.1990  173.3080  141.6890 C   0  0  0  0  0  1  0  0  0  0  0  0
  193.4750  175.0350  144.8800 C   0  0  0  0  0  2  0  0  0  0  0  0
  192.4930  174.4650  145.8920 C   0  0  0  0  0  2  0  0  0  0  0  0
  192.2380  175.4030  146.8960 O   0  0  0  0  0  0  0  0  0  0  0  0
  190.6190  177.0260  147.5450 C   0  0  0  0  0  2  0  0  0  0  0  0
  189.2150  177.5400  147.2390 C   0  0  0  0  0  2  0  0  0  0  0  0
  189.9540  174.7220  147.0110 C   0  0  0  0  0  2  0  0  0  0  0  0
  186.8080  176.7400  147.0440 N   0  0  0  0  0  2  0  0  0  0  0  0
  190.9320  175.8350  146.6570 C   0  0  2  0  0  3  0  0  0  0  0  0
  188.1990  176.4270  147.1110 C   0  0  0  0  0  0  0  0  0  0  0  0
  188.5680  175.1900  146.9400 N   0  0  0  0  0  0  0  0  0  0  0  0
  186.1770  178.3810  147.2380 S   0  0  0  0  0  0  0  0  0  0  0  0
  184.4870  179.0610  145.3170 O   0  0  0  0  0  0  0  0  0  0  0  0
  186.2110  177.6840  144.5430 N   0  0  0  0  0  2  0  0  0  0  0  0
  185.5350  178.4080  145.5720 C   0  0  0  0  0  0  0  0  0  0  0  0
  186.2340  178.9240  142.4500 C   0  0  0  0  0  1  0  0  0  0  0  0
  186.3160  176.4550  142.4570 C   0  0  0  0  0  1  0  0  0  0  0  0
  185.7550  177.6730  143.1610 C   0  0  0  0  0  3  0  0  0  0  0  0
  1  2  1  0  0  0  0
  1 10  1  0  0  0  0
  3  2  1  0  0  0  0
  4  7  1  6  0  0  0
  4 11  1  0  0  0  0
  4 12  1  0  0  0  0
  5 23  1  0  0  0  0
  6 15  1  0  0  0  0
  6 21  1  1  0  0  0
  8  3  2  0  0  0  0
  9 13  1  0  0  0  0
  9 14  1  0  0  0  0
 10  5  1  0  0  0  0
 11  6  1  0  0  0  0
 12  8  1  0  0  0  0
 12 15  2  0  0  0  0
 13  1  2  0  0  0  0
 14 17  1  0  0  0  0
 14  5  2  0  0  0  0
 15 13  1  0  0  0  0
 16 19  1  0  0  0  0
 17 18  1  0  0  0  0
 17 20  1  0  0  0  0
 18 16  2  0  0  0  0
 20 19  2  0  0  0  0
 21 22  1  0  0  0  0
 23 24  1  0  0  0  0
 24 25  1  0  0  0  0
 27 26  1  0  0  0  0
 29 31  1  0  0  0  0
 29 33  1  0  0  0  0
 30 25  1  1  0  0  0
 30 28  1  0  0  0  0
 30 26  1  0  0  0  0
 31 27  1  0  0  0  0
 32 28  1  0  0  0  0
 32 31  2  0  0  0  0
 34 36  2  0  0  0  0
 35 36  1  0  0  0  0
 36 33  1  0  0  0  0
 37 39  1  0  0  0  0
 38 39  1  0  0  0  0
 39 35  1  0  0  0  0
M  END
>  <MODEL>
9

>  <REMARK>
 VINA RESULT:      -6.4      2.601      3.798
  Name = 
  9 active torsions:
  status: ('A' for Active; 'I' for Inactive)
    1  A    between atoms: C_2  and  C_15
    2  A    between atoms: C_2  and  O_35
    3  A    between atoms: C_9  and  C_20
    4  A    between atoms: N_11  and  C_34
    5  A    between atoms: C_15  and  C_17
    6  A    between atoms: C_19  and  N_32
    7  A    between atoms: N_29  and  S_38
    8  A    between atoms: C_30  and  O_35
    9  A    between atoms: S_38  and  C_39
                            x       y       z     vdW  Elec       q    Type
                         _______ _______ _______ _____ _____    ______ ____

>  <TORSDO>
F 9

$$$$
