=
 OpenBabel11042414213D

 27 29  0  0  1  0  0  0  0  0999 V2000
  188.9310  175.1760  146.2830 O   0  0  0  0  0  0  0  0  0  0  0  0
  188.9690  176.4260  146.1160 C   0  0  0  0  0  0  0  0  0  0  0  0
  190.1450  177.1550  146.4790 N   0  0  0  0  0  2  0  0  0  0  0  0
  186.6700  177.3780  146.3590 C   0  0  0  0  0  3  0  0  0  0  0  0
  188.2730  177.9700  142.1330 C   0  0  0  0  0  3  0  0  0  0  0  0
  185.5380  178.0420  145.8490 C   0  0  0  0  0  0  0  0  0  0  0  0
  186.6350  178.2030  143.7130 C   0  0  0  0  0  0  0  0  0  0  0  0
  186.8830  178.5330  142.2860 C   0  0  2  0  0  3  0  0  0  0  0  0
  187.7350  177.5590  144.2140 C   0  0  0  0  0  0  0  0  0  0  0  0
  184.4130  179.1250  143.9770 O   0  0  0  0  0  1  0  0  0  0  0  0
  188.7350  177.4270  143.2190 N   0  0  0  0  0  0  0  0  0  0  0  0
  187.7940  177.1250  145.5480 C   0  0  0  0  0  0  0  0  0  0  0  0
  185.5160  178.4640  144.5060 C   0  0  0  0  0  0  0  0  0  0  0  0
  184.3760  178.2890  146.7450 C   0  0  0  0  0  1  0  0  0  0  0  0
  186.0000  177.8180  141.4770 O   0  0  0  0  0  1  0  0  0  0  0  0
  191.3430  176.5120  147.0010 C   0  0  0  0  0  2  0  0  0  0  0  0
  193.6000  175.7570  146.3590 C   0  0  2  0  0  3  0  0  0  0  0  0
  192.6610  174.5830  146.1900 C   0  0  0  0  0  2  0  0  0  0  0  0
  192.1870  175.9830  145.8580 C   0  0  1  0  0  3  0  0  0  0  0  0
  196.0640  174.3550  146.2100 O   0  0  0  0  0  0  0  0  0  0  0  0
  194.5190  175.8060  145.2340 N   0  0  0  0  0  2  0  0  0  0  0  0
  195.7460  175.0740  145.2240 C   0  0  0  0  0  0  0  0  0  0  0  0
  196.9920  175.8240  141.6830 C   0  0  0  0  0  3  0  0  0  0  0  0
  196.1640  175.7170  142.8370 N   0  0  0  0  0  2  0  0  0  0  0  0
  196.6410  175.1610  144.0650 C   0  0  0  0  0  0  0  0  0  0  0  0
  196.5320  176.3190  140.6230 O   0  0  0  0  0  0  0  0  0  0  0  0
  197.8280  174.7460  144.1560 O   0  0  0  0  0  0  0  0  0  0  0  0
  2  1  2  0  0  0  0
  2  3  1  0  0  0  0
  3 16  1  0  0  0  0
  5  8  1  0  0  0  0
  5 11  2  0  0  0  0
  6  4  1  0  0  0  0
  6 14  1  0  0  0  0
  7  9  2  0  0  0  0
  7 13  1  0  0  0  0
  8 15  1  6  0  0  0
  8  7  1  0  0  0  0
  9 12  1  0  0  0  0
 10 13  1  0  0  0  0
 11  9  1  0  0  0  0
 12  2  1  0  0  0  0
 12  4  2  0  0  0  0
 13  6  2  0  0  0  0
 17 21  1  6  0  0  0
 18 17  1  0  0  0  0
 19 18  1  0  0  0  0
 19 17  1  0  0  0  0
 19 16  1  1  0  0  0
 22 21  1  0  0  0  0
 22 20  2  0  0  0  0
 23 24  1  0  0  0  0
 24 25  1  0  0  0  0
 25 27  2  0  0  0  0
 25 22  1  0  0  0  0
 26 23  2  0  0  0  0
M  END
>  <MODEL>
1

>  <REMARK>
 VINA RESULT:      -7.4      0.000      0.000
  Name = 
  5 active torsions:
  status: ('A' for Active; 'I' for Inactive)
    1  A    between atoms: C_1  and  N_11
    2  A    between atoms: C_10  and  C_21
    3  A    between atoms: C_15  and  C_16
    4  A    between atoms: C_18  and  N_22
    5  A    between atoms: C_18  and  C_26
                            x       y       z     vdW  Elec       q    Type
                         _______ _______ _______ _____ _____    ______ ____

>  <TORSDO>
F 5

$$$$
=
 OpenBabel11042414213D

 27 29  0  0  1  0  0  0  0  0999 V2000
  188.5470  175.3000  146.6950 O   0  0  0  0  0  0  0  0  0  0  0  0
  188.6700  176.4780  146.2630 C   0  0  0  0  0  0  0  0  0  0  0  0
  189.9240  177.1560  146.3990 N   0  0  0  0  0  2  0  0  0  0  0  0
  186.3470  177.3940  146.3710 C   0  0  0  0  0  3  0  0  0  0  0  0
  188.1630  177.9570  142.2270 C   0  0  0  0  0  3  0  0  0  0  0  0
  185.2330  178.0310  145.7920 C   0  0  0  0  0  0  0  0  0  0  0  0
  186.4390  178.1820  143.7150 C   0  0  0  0  0  0  0  0  0  0  0  0
  186.7570  178.4980  142.2990 C   0  0  2  0  0  3  0  0  0  0  0  0
  187.5210  177.5650  144.2820 C   0  0  0  0  0  0  0  0  0  0  0  0
  184.1910  179.0690  143.8470 O   0  0  0  0  0  1  0  0  0  0  0  0
  188.5750  177.4360  143.3440 N   0  0  0  0  0  0  0  0  0  0  0  0
  187.5170  177.1490  145.6240 C   0  0  0  0  0  0  0  0  0  0  0  0
  185.2760  178.4350  144.4440 C   0  0  0  0  0  0  0  0  0  0  0  0
  184.0200  178.2700  146.6210 C   0  0  0  0  0  1  0  0  0  0  0  0
  185.9310  177.7560  141.4540 O   0  0  0  0  0  1  0  0  0  0  0  0
  191.1020  176.5280  146.9790 C   0  0  0  0  0  2  0  0  0  0  0  0
  193.3910  175.9860  146.2430 C   0  0  2  0  0  3  0  0  0  0  0  0
  192.6680  174.6800  146.4830 C   0  0  0  0  0  2  0  0  0  0  0  0
  191.9220  175.8590  145.8940 C   0  0  1  0  0  3  0  0  0  0  0  0
  195.3770  177.8470  145.4340 O   0  0  0  0  0  0  0  0  0  0  0  0
  194.1820  175.8840  145.0280 N   0  0  0  0  0  2  0  0  0  0  0  0
  195.1670  176.8590  144.6790 C   0  0  0  0  0  0  0  0  0  0  0  0
  196.0110  176.0020  141.0450 C   0  0  0  0  0  3  0  0  0  0  0  0
  195.3090  176.1660  142.2740 N   0  0  0  0  0  2  0  0  0  0  0  0
  195.9350  176.7110  143.4380 C   0  0  0  0  0  0  0  0  0  0  0  0
  195.4220  175.5180  140.0440 O   0  0  0  0  0  0  0  0  0  0  0  0
  197.1440  177.0650  143.4030 O   0  0  0  0  0  0  0  0  0  0  0  0
  2  3  1  0  0  0  0
  2  1  2  0  0  0  0
  3 16  1  0  0  0  0
  5  8  1  0  0  0  0
  5 11  2  0  0  0  0
  6  4  1  0  0  0  0
  6 14  1  0  0  0  0
  7  9  2  0  0  0  0
  7 13  1  0  0  0  0
  8 15  1  6  0  0  0
  8  7  1  0  0  0  0
  9 12  1  0  0  0  0
 10 13  1  0  0  0  0
 11  9  1  0  0  0  0
 12  2  1  0  0  0  0
 12  4  2  0  0  0  0
 13  6  2  0  0  0  0
 17 21  1  6  0  0  0
 17 18  1  0  0  0  0
 19 17  1  0  0  0  0
 19 18  1  0  0  0  0
 19 16  1  1  0  0  0
 22 21  1  0  0  0  0
 22 20  2  0  0  0  0
 23 24  1  0  0  0  0
 24 25  1  0  0  0  0
 25 22  1  0  0  0  0
 26 23  2  0  0  0  0
 27 25  2  0  0  0  0
M  END
>  <MODEL>
2

>  <REMARK>
 VINA RESULT:      -7.3      1.112      1.112
  Name = 
  5 active torsions:
  status: ('A' for Active; 'I' for Inactive)
    1  A    between atoms: C_1  and  N_11
    2  A    between atoms: C_10  and  C_21
    3  A    between atoms: C_15  and  C_16
    4  A    between atoms: C_18  and  N_22
    5  A    between atoms: C_18  and  C_26
                            x       y       z     vdW  Elec       q    Type
                         _______ _______ _______ _____ _____    ______ ____

>  <TORSDO>
F 5

$$$$
=
 OpenBabel11042414213D

 27 29  0  0  1  0  0  0  0  0999 V2000
  189.4340  175.8670  143.5450 O   0  0  0  0  0  0  0  0  0  0  0  0
  189.3430  176.8730  144.3000 C   0  0  0  0  0  0  0  0  0  0  0  0
  190.5290  177.5510  144.7250 N   0  0  0  0  0  2  0  0  0  0  0  0
  187.6410  177.2280  146.0960 C   0  0  0  0  0  3  0  0  0  0  0  0
  186.1100  178.6660  142.0500 C   0  0  0  0  0  3  0  0  0  0  0  0
  186.3800  177.6650  146.5470 C   0  0  0  0  0  0  0  0  0  0  0  0
  185.8400  178.3250  144.2970 C   0  0  0  0  0  0  0  0  0  0  0  0
  185.0860  178.8680  143.1380 C   0  0  2  0  0  3  0  0  0  0  0  0
  187.0680  177.9010  143.8620 C   0  0  0  0  0  0  0  0  0  0  0  0
  184.2130  178.6670  146.0540 O   0  0  0  0  0  1  0  0  0  0  0  0
  187.2120  178.1230  142.4700 N   0  0  0  0  0  0  0  0  0  0  0  0
  188.0100  177.3400  144.7400 C   0  0  0  0  0  0  0  0  0  0  0  0
  185.4630  178.2240  145.6360 C   0  0  0  0  0  0  0  0  0  0  0  0
  186.0370  177.5280  147.9880 C   0  0  0  0  0  1  0  0  0  0  0  0
  183.9730  178.0660  142.8820 O   0  0  0  0  0  1  0  0  0  0  0  0
  191.8620  177.1600  144.2870 C   0  0  0  0  0  2  0  0  0  0  0  0
  193.6720  176.4470  145.8000 C   0  0  2  0  0  3  0  0  0  0  0  0
  192.3860  176.4460  146.5960 C   0  0  0  0  0  2  0  0  0  0  0  0
  192.3760  176.0190  145.1420 C   0  0  1  0  0  3  0  0  0  0  0  0
  196.0750  175.6560  144.5100 O   0  0  0  0  0  0  0  0  0  0  0  0
  194.4490  175.2660  146.1380 N   0  0  0  0  0  2  0  0  0  0  0  0
  195.6520  174.9250  145.4460 C   0  0  0  0  0  0  0  0  0  0  0  0
  196.9170  171.3120  145.4080 C   0  0  0  0  0  3  0  0  0  0  0  0
  196.2180  172.5100  145.0820 N   0  0  0  0  0  2  0  0  0  0  0  0
  196.3960  173.7190  145.8240 C   0  0  0  0  0  0  0  0  0  0  0  0
  196.7300  170.2700  144.7290 O   0  0  0  0  0  0  0  0  0  0  0  0
  197.1910  173.7530  146.8020 O   0  0  0  0  0  0  0  0  0  0  0  0
  1  2  2  0  0  0  0
  2  3  1  0  0  0  0
  2 12  1  0  0  0  0
  4  6  1  0  0  0  0
  5 11  2  0  0  0  0
  5  8  1  0  0  0  0
  6 14  1  0  0  0  0
  7 13  1  0  0  0  0
  8 15  1  6  0  0  0
  8  7  1  0  0  0  0
  9  7  2  0  0  0  0
  9 12  1  0  0  0  0
 11  9  1  0  0  0  0
 12  4  2  0  0  0  0
 13 10  1  0  0  0  0
 13  6  2  0  0  0  0
 16  3  1  0  0  0  0
 17 21  1  1  0  0  0
 17 18  1  0  0  0  0
 19 16  1  6  0  0  0
 19 17  1  0  0  0  0
 19 18  1  0  0  0  0
 20 22  2  0  0  0  0
 22 25  1  0  0  0  0
 22 21  1  0  0  0  0
 24 23  1  0  0  0  0
 24 25  1  0  0  0  0
 25 27  2  0  0  0  0
 26 23  2  0  0  0  0
M  END
>  <MODEL>
3

>  <REMARK>
 VINA RESULT:      -7.1      1.901      2.619
  Name = 
  5 active torsions:
  status: ('A' for Active; 'I' for Inactive)
    1  A    between atoms: C_1  and  N_11
    2  A    between atoms: C_10  and  C_21
    3  A    between atoms: C_15  and  C_16
    4  A    between atoms: C_18  and  N_22
    5  A    between atoms: C_18  and  C_26
                            x       y       z     vdW  Elec       q    Type
                         _______ _______ _______ _____ _____    ______ ____

>  <TORSDO>
F 5

$$$$
=
 OpenBabel11042414213D

 27 29  0  0  1  0  0  0  0  0999 V2000
  190.2210  178.2400  144.6900 O   0  0  0  0  0  0  0  0  0  0  0  0
  189.3580  177.3510  144.9250 C   0  0  0  0  0  0  0  0  0  0  0  0
  189.7230  176.1870  145.6730 N   0  0  0  0  0  2  0  0  0  0  0  0
  187.7460  177.6150  143.0330 C   0  0  0  0  0  3  0  0  0  0  0  0
  185.6010  177.6180  147.0550 C   0  0  0  0  0  3  0  0  0  0  0  0
  186.4440  177.7740  142.5210 C   0  0  0  0  0  0  0  0  0  0  0  0
  185.5910  177.7500  144.7710 C   0  0  0  0  0  0  0  0  0  0  0  0
  184.6360  177.7860  145.9090 C   0  0  2  0  0  3  0  0  0  0  0  0
  186.8580  177.5920  145.2650 C   0  0  0  0  0  0  0  0  0  0  0  0
  184.0490  177.9960  142.9220 O   0  0  0  0  0  1  0  0  0  0  0  0
  186.8390  177.5130  146.6790 N   0  0  0  0  0  0  0  0  0  0  0  0
  187.9780  177.5190  144.4200 C   0  0  0  0  0  0  0  0  0  0  0  0
  185.3460  177.8420  143.4000 C   0  0  0  0  0  0  0  0  0  0  0  0
  186.2480  177.8690  141.0480 C   0  0  0  0  0  1  0  0  0  0  0  0
  184.0410  179.0460  145.9840 O   0  0  0  0  0  1  0  0  0  0  0  0
  191.0540  175.9920  146.2300 C   0  0  0  0  0  2  0  0  0  0  0  0
  193.4010  175.4730  145.6820 C   0  0  2  0  0  3  0  0  0  0  0  0
  192.6480  174.1630  145.7480 C   0  0  0  0  0  2  0  0  0  0  0  0
  191.9730  175.3950  145.1810 C   0  0  1  0  0  3  0  0  0  0  0  0
  195.3380  177.4690  145.1090 O   0  0  0  0  0  0  0  0  0  0  0  0
  194.3070  175.4520  144.5460 N   0  0  0  0  0  2  0  0  0  0  0  0
  195.2600  176.4920  144.3150 C   0  0  0  0  0  0  0  0  0  0  0  0
  196.4550  175.9230  140.7230 C   0  0  0  0  0  3  0  0  0  0  0  0
  195.6340  176.0050  141.8850 N   0  0  0  0  0  2  0  0  0  0  0  0
  196.1480  176.4250  143.1500 C   0  0  0  0  0  0  0  0  0  0  0  0
  195.9610  175.5480  139.6290 O   0  0  0  0  0  0  0  0  0  0  0  0
  197.3640  176.7380  143.2700 O   0  0  0  0  0  0  0  0  0  0  0  0
  1  2  2  0  0  0  0
  2  3  1  0  0  0  0
  3 16  1  0  0  0  0
  4 12  1  0  0  0  0
  6  4  2  0  0  0  0
  6 13  1  0  0  0  0
  7  9  1  0  0  0  0
  7  8  1  0  0  0  0
  8 15  1  1  0  0  0
  8  5  1  0  0  0  0
  9 11  1  0  0  0  0
 10 13  1  0  0  0  0
 11  5  2  0  0  0  0
 12  2  1  0  0  0  0
 12  9  2  0  0  0  0
 13  7  2  0  0  0  0
 14  6  1  0  0  0  0
 17 21  1  6  0  0  0
 17 18  1  0  0  0  0
 19 17  1  0  0  0  0
 19 18  1  0  0  0  0
 19 16  1  1  0  0  0
 22 21  1  0  0  0  0
 22 20  2  0  0  0  0
 23 24  1  0  0  0  0
 24 25  1  0  0  0  0
 25 27  2  0  0  0  0
 25 22  1  0  0  0  0
 26 23  2  0  0  0  0
M  END
>  <MODEL>
4

>  <REMARK>
 VINA RESULT:      -7.0      1.677      2.785
  Name = 
  5 active torsions:
  status: ('A' for Active; 'I' for Inactive)
    1  A    between atoms: C_1  and  N_11
    2  A    between atoms: C_10  and  C_21
    3  A    between atoms: C_15  and  C_16
    4  A    between atoms: C_18  and  N_22
    5  A    between atoms: C_18  and  C_26
                            x       y       z     vdW  Elec       q    Type
                         _______ _______ _______ _____ _____    ______ ____

>  <TORSDO>
F 5

$$$$
=
 OpenBabel11042414213D

 27 29  0  0  1  0  0  0  0  0999 V2000
  192.4940  176.6620  147.0580 O   0  0  0  0  0  0  0  0  0  0  0  0
  192.5040  175.6630  146.2880 C   0  0  0  0  0  0  0  0  0  0  0  0
  191.3380  174.8420  146.1770 N   0  0  0  0  0  2  0  0  0  0  0  0
  194.8230  174.7400  146.1470 C   0  0  0  0  0  3  0  0  0  0  0  0
  193.4090  176.3050  142.1050 C   0  0  0  0  0  3  0  0  0  0  0  0
  195.9960  174.4280  145.4340 C   0  0  0  0  0  0  0  0  0  0  0  0
  194.9910  175.3360  143.4450 C   0  0  0  0  0  0  0  0  0  0  0  0
  194.8100  175.7540  142.0310 C   0  0  2  0  0  3  0  0  0  0  0  0
  193.8500  175.6350  144.1410 C   0  0  0  0  0  0  0  0  0  0  0  0
  197.2310  174.4280  143.3320 O   0  0  0  0  0  1  0  0  0  0  0  0
  192.8860  176.2330  143.2920 N   0  0  0  0  0  0  0  0  0  0  0  0
  193.7230  175.3510  145.5100 C   0  0  0  0  0  0  0  0  0  0  0  0
  196.0850  174.7280  144.0610 C   0  0  0  0  0  0  0  0  0  0  0  0
  197.1300  173.7820  146.1490 C   0  0  0  0  0  1  0  0  0  0  0  0
  195.6990  176.7860  141.7280 O   0  0  0  0  0  1  0  0  0  0  0  0
  190.0990  175.1290  146.8860 C   0  0  0  0  0  2  0  0  0  0  0  0
  188.0200  176.4550  146.8880 C   0  0  2  0  0  3  0  0  0  0  0  0
  189.1800  177.4240  146.8140 C   0  0  0  0  0  2  0  0  0  0  0  0
  189.2540  176.0990  146.0830 C   0  0  1  0  0  3  0  0  0  0  0  0
  185.8290  178.1070  147.6160 O   0  0  0  0  0  0  0  0  0  0  0  0
  186.9700  176.8910  145.9840 N   0  0  0  0  0  2  0  0  0  0  0  0
  185.8920  177.7230  146.4170 C   0  0  0  0  0  0  0  0  0  0  0  0
  184.0690  178.2910  143.0980 C   0  0  0  0  0  3  0  0  0  0  0  0
  185.0460  177.9130  144.0640 N   0  0  0  0  0  2  0  0  0  0  0  0
  184.8540  178.1310  145.4640 C   0  0  0  0  0  0  0  0  0  0  0  0
  184.2790  178.0810  141.8770 O   0  0  0  0  0  0  0  0  0  0  0  0
  183.7950  178.6720  145.8840 O   0  0  0  0  0  0  0  0  0  0  0  0
  2  1  2  0  0  0  0
  3  2  1  0  0  0  0
  3 16  1  0  0  0  0
  5 11  2  0  0  0  0
  6  4  2  0  0  0  0
  6 14  1  0  0  0  0
  7 13  2  0  0  0  0
  7  9  1  0  0  0  0
  8 15  1  1  0  0  0
  8  5  1  0  0  0  0
  8  7  1  0  0  0  0
  9 12  2  0  0  0  0
 10 13  1  0  0  0  0
 11  9  1  0  0  0  0
 12  4  1  0  0  0  0
 12  2  1  0  0  0  0
 13  6  1  0  0  0  0
 17 21  1  6  0  0  0
 18 17  1  0  0  0  0
 19 18  1  0  0  0  0
 19 16  1  1  0  0  0
 19 17  1  0  0  0  0
 21 22  1  0  0  0  0
 22 20  2  0  0  0  0
 23 24  1  0  0  0  0
 24 25  1  0  0  0  0
 25 27  2  0  0  0  0
 25 22  1  0  0  0  0
 26 23  2  0  0  0  0
M  END
>  <MODEL>
5

>  <REMARK>
 VINA RESULT:      -6.8      2.204      9.176
  Name = 
  5 active torsions:
  status: ('A' for Active; 'I' for Inactive)
    1  A    between atoms: C_1  and  N_11
    2  A    between atoms: C_10  and  C_21
    3  A    between atoms: C_15  and  C_16
    4  A    between atoms: C_18  and  N_22
    5  A    between atoms: C_18  and  C_26
                            x       y       z     vdW  Elec       q    Type
                         _______ _______ _______ _____ _____    ______ ____

>  <TORSDO>
F 5

$$$$
=
 OpenBabel11042414213D

 27 29  0  0  1  0  0  0  0  0999 V2000
  184.2570  178.7330  140.2280 O   0  0  0  0  0  0  0  0  0  0  0  0
  183.9620  178.3610  141.3970 C   0  0  0  0  0  0  0  0  0  0  0  0
  182.5920  178.1340  141.7440 N   0  0  0  0  0  2  0  0  0  0  0  0
  184.8710  178.6630  143.7050 C   0  0  0  0  0  3  0  0  0  0  0  0
  187.8040  176.4000  141.0480 C   0  0  0  0  0  3  0  0  0  0  0  0
  185.8730  178.4920  144.6790 C   0  0  0  0  0  0  0  0  0  0  0  0
  187.2150  177.3360  143.0510 C   0  0  0  0  0  0  0  0  0  0  0  0
  188.3490  176.5950  142.4400 C   0  0  2  0  0  3  0  0  0  0  0  0
  186.2370  177.5010  142.1070 C   0  0  0  0  0  0  0  0  0  0  0  0
  188.0700  177.6320  145.2960 O   0  0  0  0  0  1  0  0  0  0  0  0
  186.6230  176.9140  140.8770 N   0  0  0  0  0  0  0  0  0  0  0  0
  185.0350  178.1670  142.3960 C   0  0  0  0  0  0  0  0  0  0  0  0
  187.0650  177.8170  144.3520 C   0  0  0  0  0  0  0  0  0  0  0  0
  185.6540  179.0320  146.0500 C   0  0  0  0  0  1  0  0  0  0  0  0
  189.4750  177.4170  142.3870 O   0  0  0  0  0  1  0  0  0  0  0  0
  181.5020  178.2680  140.7880 C   0  0  0  0  0  2  0  0  0  0  0  0
  179.7470  179.7600  139.9090 C   0  0  2  0  0  3  0  0  0  0  0  0
  179.5720  179.6830  141.4090 C   0  0  0  0  0  2  0  0  0  0  0  0
  180.9640  179.6850  140.8100 C   0  0  1  0  0  3  0  0  0  0  0  0
  178.0320  180.5750  137.7980 O   0  0  0  0  0  0  0  0  0  0  0  0
  179.5620  181.1320  139.4700 N   0  0  0  0  0  2  0  0  0  0  0  0
  178.6810  181.4740  138.3980 C   0  0  0  0  0  0  0  0  0  0  0  0
  179.2320  185.2600  138.2480 C   0  0  0  0  0  3  0  0  0  0  0  0
  179.3380  183.8850  138.6070 N   0  0  0  0  0  2  0  0  0  0  0  0
  178.5330  182.8760  137.9920 C   0  0  0  0  0  0  0  0  0  0  0  0
  179.9590  186.1150  138.8150 O   0  0  0  0  0  0  0  0  0  0  0  0
  177.6960  183.1860  137.1010 O   0  0  0  0  0  0  0  0  0  0  0  0
  1  2  2  0  0  0  0
  2  3  1  0  0  0  0
  2 12  1  0  0  0  0
  4  6  1  0  0  0  0
  5  8  1  0  0  0  0
  6 14  1  0  0  0  0
  7 13  1  0  0  0  0
  8 15  1  6  0  0  0
  8  7  1  0  0  0  0
  9 12  1  0  0  0  0
  9  7  2  0  0  0  0
 11  5  2  0  0  0  0
 11  9  1  0  0  0  0
 12  4  2  0  0  0  0
 13  6  2  0  0  0  0
 13 10  1  0  0  0  0
 16  3  1  0  0  0  0
 17 21  1  1  0  0  0
 17 19  1  0  0  0  0
 17 18  1  0  0  0  0
 19 16  1  6  0  0  0
 19 18  1  0  0  0  0
 20 22  2  0  0  0  0
 22 21  1  0  0  0  0
 23 24  1  0  0  0  0
 23 26  2  0  0  0  0
 25 22  1  0  0  0  0
 25 24  1  0  0  0  0
 27 25  2  0  0  0  0
M  END
>  <MODEL>
6

>  <REMARK>
 VINA RESULT:      -6.8      6.488     12.590
  Name = 
  5 active torsions:
  status: ('A' for Active; 'I' for Inactive)
    1  A    between atoms: C_1  and  N_11
    2  A    between atoms: C_10  and  C_21
    3  A    between atoms: C_15  and  C_16
    4  A    between atoms: C_18  and  N_22
    5  A    between atoms: C_18  and  C_26
                            x       y       z     vdW  Elec       q    Type
                         _______ _______ _______ _____ _____    ______ ____

>  <TORSDO>
F 5

$$$$
=
 OpenBabel11042414213D

 27 29  0  0  1  0  0  0  0  0999 V2000
  189.7440  177.9230  147.5860 O   0  0  0  0  0  0  0  0  0  0  0  0
  189.6130  177.2780  146.5100 C   0  0  0  0  0  0  0  0  0  0  0  0
  190.6760  176.4360  146.0540 N   0  0  0  0  0  2  0  0  0  0  0  0
  187.1160  177.3020  146.3840 C   0  0  0  0  0  3  0  0  0  0  0  0
  188.9940  177.9480  142.2800 C   0  0  0  0  0  3  0  0  0  0  0  0
  185.9080  177.4170  145.6700 C   0  0  0  0  0  0  0  0  0  0  0  0
  187.1710  177.7260  143.6450 C   0  0  0  0  0  0  0  0  0  0  0  0
  187.4880  177.9520  142.2110 C   0  0  2  0  0  3  0  0  0  0  0  0
  188.3440  177.6160  144.3430 C   0  0  0  0  0  0  0  0  0  0  0  0
  184.7530  177.7540  143.5490 O   0  0  0  0  0  1  0  0  0  0  0  0
  189.4570  177.7570  143.4780 N   0  0  0  0  0  0  0  0  0  0  0  0
  188.3620  177.4010  145.7310 C   0  0  0  0  0  0  0  0  0  0  0  0
  185.9310  177.6340  144.2790 C   0  0  0  0  0  0  0  0  0  0  0  0
  184.6180  177.3070  146.4030 C   0  0  0  0  0  1  0  0  0  0  0  0
  187.0550  176.8620  141.4560 O   0  0  0  0  0  1  0  0  0  0  0  0
  191.9090  176.2450  146.8040 C   0  0  0  0  0  2  0  0  0  0  0  0
  193.7360  176.6640  145.2030 C   0  0  2  0  0  3  0  0  0  0  0  0
  194.3350  175.9760  146.4090 C   0  0  0  0  0  2  0  0  0  0  0  0
  192.9540  175.5850  145.9250 C   0  0  1  0  0  3  0  0  0  0  0  0
  192.5360  176.7660  142.6320 O   0  0  0  0  0  0  0  0  0  0  0  0
  194.3140  176.1060  143.9920 N   0  0  0  0  0  2  0  0  0  0  0  0
  193.6550  176.1910  142.7270 C   0  0  0  0  0  0  0  0  0  0  0  0
  196.2660  175.4320  140.0330 C   0  0  0  0  0  3  0  0  0  0  0  0
  195.6150  175.9710  141.1800 N   0  0  0  0  0  2  0  0  0  0  0  0
  194.2790  175.6070  141.5360 C   0  0  0  0  0  0  0  0  0  0  0  0
  197.4420  175.7810  139.7560 O   0  0  0  0  0  0  0  0  0  0  0  0
  193.6360  174.7830  140.8300 O   0  0  0  0  0  0  0  0  0  0  0  0
  2  1  2  0  0  0  0
  3  2  1  0  0  0  0
  3 16  1  0  0  0  0
  5 11  2  0  0  0  0
  6  4  2  0  0  0  0
  6 14  1  0  0  0  0
  7 13  2  0  0  0  0
  7  9  1  0  0  0  0
  8 15  1  6  0  0  0
  8  5  1  0  0  0  0
  8  7  1  0  0  0  0
  9 12  2  0  0  0  0
 10 13  1  0  0  0  0
 11  9  1  0  0  0  0
 12  4  1  0  0  0  0
 12  2  1  0  0  0  0
 13  6  1  0  0  0  0
 17 21  1  6  0  0  0
 17 19  1  0  0  0  0
 17 18  1  0  0  0  0
 19 18  1  0  0  0  0
 19 16  1  1  0  0  0
 20 22  2  0  0  0  0
 22 21  1  0  0  0  0
 23 24  1  0  0  0  0
 24 25  1  0  0  0  0
 25 22  1  0  0  0  0
 26 23  2  0  0  0  0
 27 25  2  0  0  0  0
M  END
>  <MODEL>
7

>  <REMARK>
 VINA RESULT:      -6.7      1.951      2.147
  Name = 
  5 active torsions:
  status: ('A' for Active; 'I' for Inactive)
    1  A    between atoms: C_1  and  N_11
    2  A    between atoms: C_10  and  C_21
    3  A    between atoms: C_15  and  C_16
    4  A    between atoms: C_18  and  N_22
    5  A    between atoms: C_18  and  C_26
                            x       y       z     vdW  Elec       q    Type
                         _______ _______ _______ _____ _____    ______ ____

>  <TORSDO>
F 5

$$$$
=
 OpenBabel11042414213D

 27 29  0  0  1  0  0  0  0  0999 V2000
  187.8220  176.9830  141.3450 O   0  0  0  0  0  0  0  0  0  0  0  0
  187.3880  176.2670  142.2880 C   0  0  0  0  0  0  0  0  0  0  0  0
  187.7290  174.8790  142.3390 N   0  0  0  0  0  2  0  0  0  0  0  0
  185.3630  177.5720  142.9560 C   0  0  0  0  0  3  0  0  0  0  0  0
  187.7870  176.2870  146.5970 C   0  0  0  0  0  3  0  0  0  0  0  0
  184.5230  178.1560  143.9240 C   0  0  0  0  0  0  0  0  0  0  0  0
  186.0000  177.3530  145.6450 C   0  0  0  0  0  0  0  0  0  0  0  0
  186.5680  177.0820  146.9910 C   0  0  2  0  0  3  0  0  0  0  0  0
  186.8130  176.7840  144.7020 C   0  0  0  0  0  0  0  0  0  0  0  0
  184.0280  178.6110  146.2670 O   0  0  0  0  0  1  0  0  0  0  0  0
  187.9110  176.1300  145.3140 N   0  0  0  0  0  0  0  0  0  0  0  0
  186.5280  176.8710  143.3290 C   0  0  0  0  0  0  0  0  0  0  0  0
  184.8420  178.0460  145.2910 C   0  0  0  0  0  0  0  0  0  0  0  0
  183.3030  178.8850  143.4810 C   0  0  0  0  0  1  0  0  0  0  0  0
  186.9680  178.2810  147.5830 O   0  0  0  0  0  1  0  0  0  0  0  0
  188.6060  174.2450  141.3650 C   0  0  0  0  0  2  0  0  0  0  0  0
  190.6590  173.2840  142.3360 C   0  0  2  0  0  3  0  0  0  0  0  0
  190.9520  173.6210  140.8910 C   0  0  0  0  0  2  0  0  0  0  0  0
  190.0550  174.5260  141.7110 C   0  0  1  0  0  3  0  0  0  0  0  0
  190.6350  173.4190  145.1720 O   0  0  0  0  0  0  0  0  0  0  0  0
  191.7920  173.6670  143.1600 N   0  0  0  0  0  2  0  0  0  0  0  0
  191.7120  173.7150  144.5860 C   0  0  0  0  0  0  0  0  0  0  0  0
  194.2650  175.9350  146.3780 C   0  0  0  0  0  3  0  0  0  0  0  0
  193.1400  175.4970  145.6210 N   0  0  0  0  0  2  0  0  0  0  0  0
  192.8850  174.1130  145.3720 C   0  0  0  0  0  0  0  0  0  0  0  0
  194.4530  177.1630  146.5730 O   0  0  0  0  0  0  0  0  0  0  0  0
  193.6650  173.2310  145.8260 O   0  0  0  0  0  0  0  0  0  0  0  0
  1  2  2  0  0  0  0
  2  3  1  0  0  0  0
  2 12  1  0  0  0  0
  4 12  2  0  0  0  0
  4  6  1  0  0  0  0
  5  8  1  0  0  0  0
  6 13  2  0  0  0  0
  7  8  1  0  0  0  0
  8 15  1  6  0  0  0
  9 11  1  0  0  0  0
  9  7  2  0  0  0  0
 11  5  2  0  0  0  0
 12  9  1  0  0  0  0
 13  7  1  0  0  0  0
 13 10  1  0  0  0  0
 14  6  1  0  0  0  0
 16  3  1  0  0  0  0
 17 21  1  1  0  0  0
 18 19  1  0  0  0  0
 18 17  1  0  0  0  0
 19 16  1  6  0  0  0
 19 17  1  0  0  0  0
 21 22  1  0  0  0  0
 22 20  2  0  0  0  0
 22 25  1  0  0  0  0
 23 26  2  0  0  0  0
 24 23  1  0  0  0  0
 25 24  1  0  0  0  0
 25 27  2  0  0  0  0
M  END
>  <MODEL>
8

>  <REMARK>
 VINA RESULT:      -6.6      2.720      4.475
  Name = 
  5 active torsions:
  status: ('A' for Active; 'I' for Inactive)
    1  A    between atoms: C_1  and  N_11
    2  A    between atoms: C_10  and  C_21
    3  A    between atoms: C_15  and  C_16
    4  A    between atoms: C_18  and  N_22
    5  A    between atoms: C_18  and  C_26
                            x       y       z     vdW  Elec       q    Type
                         _______ _______ _______ _____ _____    ______ ____

>  <TORSDO>
F 5

$$$$
=
 OpenBabel11042414213D

 27 29  0  0  1  0  0  0  0  0999 V2000
  188.1660  175.0000  142.8920 O   0  0  0  0  0  0  0  0  0  0  0  0
  188.2810  176.1590  143.3750 C   0  0  0  0  0  0  0  0  0  0  0  0
  189.5500  176.8190  143.3400 N   0  0  0  0  0  2  0  0  0  0  0  0
  186.1200  177.3940  143.1440 C   0  0  0  0  0  3  0  0  0  0  0  0
  187.1830  176.7120  147.5250 C   0  0  0  0  0  3  0  0  0  0  0  0
  184.9880  178.0300  143.6860 C   0  0  0  0  0  0  0  0  0  0  0  0
  185.8050  177.5360  145.8940 C   0  0  0  0  0  0  0  0  0  0  0  0
  185.8850  177.4650  147.3760 C   0  0  2  0  0  3  0  0  0  0  0  0
  186.9050  176.9160  145.3640 C   0  0  0  0  0  0  0  0  0  0  0  0
  183.7110  178.7230  145.6440 O   0  0  0  0  0  1  0  0  0  0  0  0
  187.7420  176.4140  146.3910 N   0  0  0  0  0  0  0  0  0  0  0  0
  187.1030  176.8210  143.9770 C   0  0  0  0  0  0  0  0  0  0  0  0
  184.8220  178.1030  145.0820 C   0  0  0  0  0  0  0  0  0  0  0  0
  183.9750  178.6180  142.7660 C   0  0  0  0  0  1  0  0  0  0  0  0
  186.0310  178.7490  147.9020 O   0  0  0  0  0  1  0  0  0  0  0  0
  190.7300  176.2300  142.7220 C   0  0  0  0  0  2  0  0  0  0  0  0
  193.0660  176.0190  143.4830 C   0  0  2  0  0  3  0  0  0  0  0  0
  192.2990  176.7520  144.5610 C   0  0  0  0  0  2  0  0  0  0  0  0
  191.6310  175.6350  143.7860 C   0  0  1  0  0  3  0  0  0  0  0  0
  195.8720  176.3460  143.7590 O   0  0  0  0  0  0  0  0  0  0  0  0
  193.9590  175.0530  144.0980 N   0  0  0  0  0  2  0  0  0  0  0  0
  195.3660  175.2800  144.2040 C   0  0  0  0  0  0  0  0  0  0  0  0
  196.4880  171.9630  145.7520 C   0  0  0  0  0  3  0  0  0  0  0  0
  195.6960  172.9790  145.1430 N   0  0  0  0  0  2  0  0  0  0  0  0
  196.2250  174.2690  144.8310 C   0  0  0  0  0  0  0  0  0  0  0  0
  195.9820  170.8410  146.0100 O   0  0  0  0  0  0  0  0  0  0  0  0
  197.4280  174.5430  145.0920 O   0  0  0  0  0  0  0  0  0  0  0  0
  1  2  2  0  0  0  0
  2 12  1  0  0  0  0
  3  2  1  0  0  0  0
  4  6  2  0  0  0  0
  4 12  1  0  0  0  0
  6 13  1  0  0  0  0
  7  8  1  0  0  0  0
  8  5  1  0  0  0  0
  8 15  1  1  0  0  0
  9  7  1  0  0  0  0
  9 11  1  0  0  0  0
 11  5  2  0  0  0  0
 12  9  2  0  0  0  0
 13 10  1  0  0  0  0
 13  7  2  0  0  0  0
 14  6  1  0  0  0  0
 16  3  1  0  0  0  0
 17 19  1  0  0  0  0
 17 21  1  1  0  0  0
 17 18  1  0  0  0  0
 19 16  1  6  0  0  0
 19 18  1  0  0  0  0
 20 22  2  0  0  0  0
 21 22  1  0  0  0  0
 22 25  1  0  0  0  0
 23 26  2  0  0  0  0
 24 23  1  0  0  0  0
 25 27  2  0  0  0  0
 25 24  1  0  0  0  0
M  END
>  <MODEL>
9

>  <REMARK>
 VINA RESULT:      -6.5      2.159      3.610
  Name = 
  5 active torsions:
  status: ('A' for Active; 'I' for Inactive)
    1  A    between atoms: C_1  and  N_11
    2  A    between atoms: C_10  and  C_21
    3  A    between atoms: C_15  and  C_16
    4  A    between atoms: C_18  and  N_22
    5  A    between atoms: C_18  and  C_26
                            x       y       z     vdW  Elec       q    Type
                         _______ _______ _______ _____ _____    ______ ____

>  <TORSDO>
F 5

$$$$
