=
 OpenBabel11042416293D

 29 33  0  0  1  0  0  0  0  0999 V2000
  184.2680  179.0050  147.0400 O   0  0  0  0  0  1  0  0  0  0  0  0
  187.7560  177.0580  145.8620 N   0  0  0  0  0  0  0  0  0  0  0  0
  189.1690  176.7670  145.6570 C   0  0  1  0  0  3  0  0  0  0  0  0
  189.6600  173.8880  143.1290 C   0  0  0  0  0  1  0  0  0  0  0  0
  189.3520  175.3250  145.1670 C   0  0  1  0  0  3  0  0  0  0  0  0
  189.7650  175.2950  143.6840 C   0  0  2  0  0  3  0  0  0  0  0  0
  187.5510  178.0400  143.5040 C   0  0  1  0  0  3  0  0  0  0  0  0
  185.7670  178.3920  145.3010 C   0  0  0  0  0  0  0  0  0  0  0  0
  186.0490  177.3690  147.5090 C   0  0  0  0  0  3  0  0  0  0  0  0
  185.3100  178.2260  142.1820 C   0  0  0  0  0  0  0  0  0  0  0  0
  184.3860  178.6550  143.2800 C   0  0  0  0  0  2  0  0  0  0  0  0
  189.0060  177.5220  143.3340 C   0  0  1  0  0  0  0  0  0  0  0  0
  186.6720  177.8740  142.2600 C   0  0  0  0  0  0  0  0  0  0  0  0
  185.3490  178.2650  146.5730 C   0  0  0  0  0  0  0  0  0  0  0  0
  186.8460  177.4660  144.7670 C   0  0  2  0  0  3  0  0  0  0  0  0
  189.7370  178.3450  142.2850 C   0  0  0  0  0  1  0  0  0  0  0  0
  185.1030  179.3820  144.3970 C   0  0  0  0  0  2  0  0  0  0  0  0
  189.7410  177.7560  144.6600 C   0  0  0  0  0  2  0  0  0  0  0  0
  184.7500  177.9180  140.6290 S   0  0  0  0  0  0  0  0  0  0  0  0
  186.2110  177.3780  140.0250 C   0  0  0  0  0  0  0  0  0  0  0  0
  187.2090  176.8130  147.1620 C   0  0  0  0  0  3  0  0  0  0  0  0
  187.1680  177.4110  141.0240 C   0  0  0  0  0  3  0  0  0  0  0  0
  188.9520  176.1560  142.9120 O   0  0  0  0  0  0  0  0  0  0  0  0
  192.1650  175.7950  144.9910 O   0  0  0  0  0  0  0  0  0  0  0  0
  190.3680  174.6760  145.9840 N   0  0  0  0  0  2  0  0  0  0  0  0
  192.6740  174.3560  146.6990 O   0  0  0  0  0  1  0  0  0  0  0  0
  191.7590  174.9780  145.8610 C   0  0  0  0  0  0  0  0  0  0  0  0
  186.4380  176.9400  138.6770 C   0  0  0  0  0  0  0  0  0  0  0  0
  186.6220  176.5870  137.5910 N   0  0  0  0  0  0  0  0  0  0  0  0
  2 21  1  0  0  0  0
  3 18  1  6  0  0  0
  3  2  1  0  0  0  0
  5  3  1  0  0  0  0
  5 25  1  1  0  0  0
  6  4  1  6  0  0  0
  6  5  1  0  0  0  0
  7 13  1  6  0  0  0
  7 15  1  0  0  0  0
  8 14  2  0  0  0  0
 10 13  2  0  0  0  0
 10 11  1  0  0  0  0
 11 17  1  0  0  0  0
 12 16  1  6  0  0  0
 12  7  1  0  0  0  0
 12 18  1  0  0  0  0
 14  1  1  0  0  0  0
 14  9  1  0  0  0  0
 15  8  1  1  0  0  0
 15  2  1  0  0  0  0
 17  8  1  0  0  0  0
 19 10  1  0  0  0  0
 20 19  1  0  0  0  0
 20 22  2  0  0  0  0
 21  9  2  0  0  0  0
 22 13  1  0  0  0  0
 23 12  1  0  0  0  0
 23  6  1  0  0  0  0
 24 27  2  0  0  0  0
 27 25  1  0  0  0  0
 27 26  1  0  0  0  0
 28 20  1  0  0  0  0
 29 28  3  0  0  0  0
M  END
>  <MODEL>
1

>  <REMARK>
 VINA RESULT:      -8.2      0.000      0.000
  Name = 
  2 active torsions:
  status: ('A' for Active; 'I' for Inactive)
    1  A    between atoms: C_6  and  N_16
    2  A    between atoms: C_23  and  C_26
                            x       y       z     vdW  Elec       q    Type
                         _______ _______ _______ _____ _____    ______ ____

>  <TORSDO>
F 2

$$$$
=
 OpenBabel11042416293D

 29 33  0  0  1  0  0  0  0  0999 V2000
  191.1970  176.4210  148.7730 O   0  0  0  0  0  1  0  0  0  0  0  0
  191.0130  175.3900  144.7420 N   0  0  0  0  0  0  0  0  0  0  0  0
  191.3370  175.3130  143.3230 C   0  0  1  0  0  3  0  0  0  0  0  0
  188.4340  173.7670  141.2970 C   0  0  0  0  0  1  0  0  0  0  0  0
  190.5080  174.2160  142.6440 C   0  0  1  0  0  3  0  0  0  0  0  0
  189.4280  174.8270  141.7320 C   0  0  2  0  0  3  0  0  0  0  0  0
  189.2860  177.2340  144.3110 C   0  0  1  0  0  3  0  0  0  0  0  0
  190.1610  176.6860  146.6500 C   0  0  0  0  0  0  0  0  0  0  0  0
  191.7800  174.8720  146.9480 C   0  0  0  0  0  3  0  0  0  0  0  0
  187.2960  177.7800  145.9050 C   0  0  0  0  0  0  0  0  0  0  0  0
  187.9730  177.6520  147.2350 C   0  0  0  0  0  2  0  0  0  0  0  0
  189.5800  176.9390  142.8140 C   0  0  1  0  0  0  0  0  0  0  0  0
  187.8150  177.5280  144.6200 C   0  0  0  0  0  0  0  0  0  0  0  0
  191.0070  176.0190  147.4550 C   0  0  0  0  0  0  0  0  0  0  0  0
  189.8510  176.1420  145.2670 C   0  0  2  0  0  3  0  0  0  0  0  0
  189.2930  178.1710  141.9710 C   0  0  0  0  0  1  0  0  0  0  0  0
  189.4630  177.9080  147.1580 C   0  0  0  0  0  2  0  0  0  0  0  0
  191.0830  176.6620  142.6810 C   0  0  0  0  0  2  0  0  0  0  0  0
  185.6500  178.0950  145.7820 S   0  0  0  0  0  0  0  0  0  0  0  0
  185.5750  177.9590  144.1180 C   0  0  0  0  0  0  0  0  0  0  0  0
  191.7880  174.5940  145.6450 C   0  0  0  0  0  3  0  0  0  0  0  0
  186.8280  177.6500  143.6200 C   0  0  0  0  0  3  0  0  0  0  0  0
  188.7340  175.8660  142.3910 O   0  0  0  0  0  0  0  0  0  0  0  0
  191.4820  171.6570  143.4600 O   0  0  0  0  0  1  0  0  0  0  0  0
  191.3990  173.3660  141.8670 N   0  0  0  0  0  2  0  0  0  0  0  0
  192.6430  171.3010  141.5180 O   0  0  0  0  0  0  0  0  0  0  0  0
  191.8280  172.0820  142.3250 C   0  0  0  0  0  0  0  0  0  0  0  0
  184.3900  178.1300  143.3270 C   0  0  0  0  0  0  0  0  0  0  0  0
  183.4350  178.2670  142.6880 N   0  0  0  0  0  0  0  0  0  0  0  0
  2 15  1  0  0  0  0
  2 21  1  0  0  0  0
  3 18  1  6  0  0  0
  3  2  1  0  0  0  0
  5 25  1  6  0  0  0
  5  3  1  0  0  0  0
  6  4  1  1  0  0  0
  6 23  1  0  0  0  0
  6  5  1  0  0  0  0
  7 13  1  6  0  0  0
  7 15  1  0  0  0  0
  8 17  1  0  0  0  0
  8 14  2  0  0  0  0
  9 14  1  0  0  0  0
 10 11  1  0  0  0  0
 12 16  1  6  0  0  0
 12  7  1  0  0  0  0
 13 10  2  0  0  0  0
 14  1  1  0  0  0  0
 15  8  1  1  0  0  0
 17 11  1  0  0  0  0
 18 12  1  0  0  0  0
 19 10  1  0  0  0  0
 20 19  1  0  0  0  0
 21  9  2  0  0  0  0
 22 20  2  0  0  0  0
 22 13  1  0  0  0  0
 23 12  1  0  0  0  0
 25 27  1  0  0  0  0
 26 27  2  0  0  0  0
 27 24  1  0  0  0  0
 28 20  1  0  0  0  0
 29 28  3  0  0  0  0
M  END
>  <MODEL>
2

>  <REMARK>
 VINA RESULT:      -7.8      2.809      4.371
  Name = 
  2 active torsions:
  status: ('A' for Active; 'I' for Inactive)
    1  A    between atoms: C_6  and  N_16
    2  A    between atoms: C_23  and  C_26
                            x       y       z     vdW  Elec       q    Type
                         _______ _______ _______ _____ _____    ______ ____

>  <TORSDO>
F 2

$$$$
=
 OpenBabel11042416293D

 29 33  0  0  1  0  0  0  0  0999 V2000
  186.4930  177.5160  145.3890 O   0  0  0  0  0  1  0  0  0  0  0  0
  188.3300  174.8340  142.7850 N   0  0  0  0  0  0  0  0  0  0  0  0
  188.6200  173.6130  142.0440 C   0  0  1  0  0  3  0  0  0  0  0  0
  192.1060  173.7700  140.3860 C   0  0  0  0  0  1  0  0  0  0  0  0
  189.6590  173.8870  140.9500 C   0  0  1  0  0  3  0  0  0  0  0  0
  191.0180  173.2570  141.3100 C   0  0  2  0  0  3  0  0  0  0  0  0
  190.0740  174.2420  144.5670 C   0  0  1  0  0  3  0  0  0  0  0  0
  188.3130  176.0620  144.9150 C   0  0  0  0  0  0  0  0  0  0  0  0
  186.7210  176.5720  143.1240 C   0  0  0  0  0  3  0  0  0  0  0  0
  191.2270  175.9860  146.1270 C   0  0  0  0  0  0  0  0  0  0  0  0
  190.0600  176.8680  146.4510 C   0  0  0  0  0  2  0  0  0  0  0  0
  190.4260  173.0730  143.6060 C   0  0  1  0  0  0  0  0  0  0  0  0
  191.2850  174.8840  145.2500 C   0  0  0  0  0  0  0  0  0  0  0  0
  187.2120  176.7170  144.5060 C   0  0  0  0  0  0  0  0  0  0  0  0
  189.1690  175.3210  143.9040 C   0  0  2  0  0  3  0  0  0  0  0  0
  191.0320  171.9170  144.3860 C   0  0  0  0  0  1  0  0  0  0  0  0
  188.7340  176.1450  146.3480 C   0  0  0  0  0  2  0  0  0  0  0  0
  189.1130  172.5510  143.0070 C   0  0  0  0  0  2  0  0  0  0  0  0
  192.7750  176.3350  146.6770 S   0  0  0  0  0  0  0  0  0  0  0  0
  193.5310  175.0900  145.8570 C   0  0  0  0  0  0  0  0  0  0  0  0
  187.2530  175.6540  142.3180 C   0  0  0  0  0  3  0  0  0  0  0  0
  192.5970  174.3820  145.1230 C   0  0  0  0  0  3  0  0  0  0  0  0
  191.3740  173.5470  142.6460 O   0  0  0  0  0  0  0  0  0  0  0  0
  187.9440  175.2450  139.1130 O   0  0  0  0  0  1  0  0  0  0  0  0
  189.1720  173.3410  139.6910 N   0  0  0  0  0  2  0  0  0  0  0  0
  187.9390  173.5260  137.5990 O   0  0  0  0  0  0  0  0  0  0  0  0
  188.3350  174.0870  138.8050 C   0  0  0  0  0  0  0  0  0  0  0  0
  194.9360  174.8030  145.9030 C   0  0  0  0  0  0  0  0  0  0  0  0
  196.0690  174.5720  145.9390 N   0  0  0  0  0  0  0  0  0  0  0  0
  2 15  1  0  0  0  0
  3  2  1  0  0  0  0
  3 18  1  1  0  0  0
  5 25  1  6  0  0  0
  5  6  1  0  0  0  0
  5  3  1  0  0  0  0
  6  4  1  6  0  0  0
  6 23  1  0  0  0  0
  7 13  1  6  0  0  0
  8 17  1  0  0  0  0
  9 14  1  0  0  0  0
 10 11  1  0  0  0  0
 10 19  1  0  0  0  0
 12 16  1  1  0  0  0
 12  7  1  0  0  0  0
 13 10  2  0  0  0  0
 14  8  2  0  0  0  0
 14  1  1  0  0  0  0
 15  7  1  0  0  0  0
 15  8  1  1  0  0  0
 17 11  1  0  0  0  0
 18 12  1  0  0  0  0
 20 28  1  0  0  0  0
 20 19  1  0  0  0  0
 21  2  1  0  0  0  0
 21  9  2  0  0  0  0
 22 13  1  0  0  0  0
 22 20  2  0  0  0  0
 23 12  1  0  0  0  0
 26 27  2  0  0  0  0
 27 24  1  0  0  0  0
 27 25  1  0  0  0  0
 28 29  3  0  0  0  0
M  END
>  <MODEL>
3

>  <REMARK>
 VINA RESULT:      -7.6      3.351      6.644
  Name = 
  2 active torsions:
  status: ('A' for Active; 'I' for Inactive)
    1  A    between atoms: C_6  and  N_16
    2  A    between atoms: C_23  and  C_26
                            x       y       z     vdW  Elec       q    Type
                         _______ _______ _______ _____ _____    ______ ____

>  <TORSDO>
F 2

$$$$
=
 OpenBabel11042416293D

 29 33  0  0  1  0  0  0  0  0999 V2000
  188.5750  173.8950  140.0860 O   0  0  0  0  0  1  0  0  0  0  0  0
  189.5780  175.8650  143.6160 N   0  0  0  0  0  0  0  0  0  0  0  0
  189.9570  176.9240  144.5420 C   0  0  1  0  0  3  0  0  0  0  0  0
  191.0580  175.4810  147.9530 C   0  0  0  0  0  1  0  0  0  0  0  0
  189.8140  176.4430  145.9910 C   0  0  1  0  0  3  0  0  0  0  0  0
  191.1950  176.2270  146.6390 C   0  0  2  0  0  3  0  0  0  0  0  0
  192.0130  175.0990  143.3950 C   0  0  1  0  0  3  0  0  0  0  0  0
  190.1800  174.3430  141.7810 C   0  0  0  0  0  0  0  0  0  0  0  0
  187.8760  175.1060  142.1150 C   0  0  0  0  0  3  0  0  0  0  0  0
  192.7350  172.7060  142.6500 C   0  0  0  0  0  0  0  0  0  0  0  0
  191.7450  172.4560  141.5540 C   0  0  0  0  0  2  0  0  0  0  0  0
  192.2750  176.1360  144.5220 C   0  0  1  0  0  0  0  0  0  0  0  0
  192.8300  173.8090  143.5210 C   0  0  0  0  0  0  0  0  0  0  0  0
  188.9170  174.4230  141.3270 C   0  0  0  0  0  0  0  0  0  0  0  0
  190.5010  174.7860  143.1980 C   0  0  2  0  0  3  0  0  0  0  0  0
  193.7100  176.6310  144.4560 C   0  0  0  0  0  1  0  0  0  0  0  0
  191.2400  173.7340  140.9190 C   0  0  0  0  0  2  0  0  0  0  0  0
  191.3810  177.3540  144.2510 C   0  0  0  0  0  2  0  0  0  0  0  0
  193.8350  171.5300  143.1280 S   0  0  0  0  0  0  0  0  0  0  0  0
  194.4690  172.4010  144.4060 C   0  0  0  0  0  0  0  0  0  0  0  0
  188.2090  175.8080  143.1970 C   0  0  0  0  0  3  0  0  0  0  0  0
  193.8280  173.6230  144.4990 C   0  0  0  0  0  3  0  0  0  0  0  0
  192.0500  175.4980  145.7830 O   0  0  0  0  0  0  0  0  0  0  0  0
  186.9890  176.3940  146.4100 O   0  0  0  0  0  0  0  0  0  0  0  0
  189.0560  177.4330  146.7440 N   0  0  0  0  0  2  0  0  0  0  0  0
  186.9860  178.2870  147.7000 O   0  0  0  0  0  1  0  0  0  0  0  0
  187.6440  177.3330  146.9360 C   0  0  0  0  0  0  0  0  0  0  0  0
  195.5150  171.9470  145.2780 C   0  0  0  0  0  0  0  0  0  0  0  0
  196.3590  171.5820  145.9800 N   0  0  0  0  0  0  0  0  0  0  0  0
  1 14  1  0  0  0  0
  2  3  1  0  0  0  0
  3 18  1  6  0  0  0
  3  5  1  0  0  0  0
  5  6  1  0  0  0  0
  5 25  1  1  0  0  0
  6  4  1  1  0  0  0
  7 13  1  1  0  0  0
  7 12  1  0  0  0  0
  9 21  2  0  0  0  0
 10 19  1  0  0  0  0
 10 13  2  0  0  0  0
 11 10  1  0  0  0  0
 12 16  1  6  0  0  0
 12 23  1  0  0  0  0
 13 22  1  0  0  0  0
 14  8  2  0  0  0  0
 14  9  1  0  0  0  0
 15  8  1  6  0  0  0
 15  7  1  0  0  0  0
 15  2  1  0  0  0  0
 17 11  1  0  0  0  0
 17  8  1  0  0  0  0
 18 12  1  0  0  0  0
 19 20  1  0  0  0  0
 20 22  2  0  0  0  0
 20 28  1  0  0  0  0
 21  2  1  0  0  0  0
 23  6  1  0  0  0  0
 24 27  2  0  0  0  0
 25 27  1  0  0  0  0
 27 26  1  0  0  0  0
 28 29  3  0  0  0  0
M  END
>  <MODEL>
4

>  <REMARK>
 VINA RESULT:      -7.5      3.502      7.190
  Name = 
  2 active torsions:
  status: ('A' for Active; 'I' for Inactive)
    1  A    between atoms: C_6  and  N_16
    2  A    between atoms: C_23  and  C_26
                            x       y       z     vdW  Elec       q    Type
                         _______ _______ _______ _____ _____    ______ ____

>  <TORSDO>
F 2

$$$$
=
 OpenBabel11042416293D

 29 33  0  0  1  0  0  0  0  0999 V2000
  186.8280  178.6880  148.3820 O   0  0  0  0  0  1  0  0  0  0  0  0
  188.5100  176.6490  145.1630 N   0  0  0  0  0  0  0  0  0  0  0  0
  189.4370  176.2710  144.1040 C   0  0  1  0  0  3  0  0  0  0  0  0
  187.8170  173.7780  141.6380 C   0  0  0  0  0  1  0  0  0  0  0  0
  189.0480  174.9100  143.5140 C   0  0  1  0  0  3  0  0  0  0  0  0
  188.4630  175.0700  142.0980 C   0  0  2  0  0  3  0  0  0  0  0  0
  187.0770  177.9920  143.5170 C   0  0  1  0  0  3  0  0  0  0  0  0
  186.8390  178.2180  146.0520 C   0  0  0  0  0  0  0  0  0  0  0  0
  188.2330  176.8510  147.5310 C   0  0  0  0  0  3  0  0  0  0  0  0
  184.5620  178.5690  143.8940 C   0  0  0  0  0  0  0  0  0  0  0  0
  184.5790  178.9040  145.3540 C   0  0  0  0  0  2  0  0  0  0  0  0
  188.0210  177.3810  142.4440 C   0  0  1  0  0  0  0  0  0  0  0  0
  185.6120  178.0930  143.0830 C   0  0  0  0  0  0  0  0  0  0  0  0
  187.2650  177.9360  147.2960 C   0  0  0  0  0  0  0  0  0  0  0  0
  187.2030  177.2950  144.9030 C   0  0  2  0  0  3  0  0  0  0  0  0
  188.0870  178.2880  141.2260 C   0  0  0  0  0  1  0  0  0  0  0  0
  185.9340  179.3880  145.8260 C   0  0  0  0  0  2  0  0  0  0  0  0
  189.4370  177.3460  143.0360 C   0  0  0  0  0  2  0  0  0  0  0  0
  183.1330  178.5500  143.0120 S   0  0  0  0  0  0  0  0  0  0  0  0
  183.8150  177.9840  141.5950 C   0  0  0  0  0  0  0  0  0  0  0  0
  188.8340  176.2560  146.5020 C   0  0  0  0  0  3  0  0  0  0  0  0
  185.1710  177.7820  141.7800 C   0  0  0  0  0  3  0  0  0  0  0  0
  187.5020  176.1050  142.0590 O   0  0  0  0  0  0  0  0  0  0  0  0
  189.6910  172.8850  145.4230 O   0  0  0  0  0  1  0  0  0  0  0  0
  190.2300  174.0590  143.4750 N   0  0  0  0  0  2  0  0  0  0  0  0
  191.6000  172.2390  144.3340 O   0  0  0  0  0  0  0  0  0  0  0  0
  190.4770  173.0460  144.4510 C   0  0  0  0  0  0  0  0  0  0  0  0
  183.1020  177.7380  140.3740 C   0  0  0  0  0  0  0  0  0  0  0  0
  182.5270  177.5410  139.3900 N   0  0  0  0  0  0  0  0  0  0  0  0
  2 21  1  0  0  0  0
  3 18  1  6  0  0  0
  3  2  1  0  0  0  0
  5 25  1  6  0  0  0
  5  3  1  0  0  0  0
  6  4  1  1  0  0  0
  6  5  1  0  0  0  0
  7 13  1  6  0  0  0
  7 15  1  0  0  0  0
  8 14  2  0  0  0  0
 10 11  1  0  0  0  0
 11 17  1  0  0  0  0
 12 16  1  6  0  0  0
 12 18  1  0  0  0  0
 12  7  1  0  0  0  0
 13 10  2  0  0  0  0
 14  9  1  0  0  0  0
 14  1  1  0  0  0  0
 15  2  1  0  0  0  0
 15  8  1  1  0  0  0
 17  8  1  0  0  0  0
 19 10  1  0  0  0  0
 20 22  2  0  0  0  0
 20 19  1  0  0  0  0
 21  9  2  0  0  0  0
 22 13  1  0  0  0  0
 23  6  1  0  0  0  0
 23 12  1  0  0  0  0
 25 27  1  0  0  0  0
 26 27  2  0  0  0  0
 27 24  1  0  0  0  0
 28 20  1  0  0  0  0
 29 28  3  0  0  0  0
M  END
>  <MODEL>
5

>  <REMARK>
 VINA RESULT:      -7.4      2.021      2.361
  Name = 
  2 active torsions:
  status: ('A' for Active; 'I' for Inactive)
    1  A    between atoms: C_6  and  N_16
    2  A    between atoms: C_23  and  C_26
                            x       y       z     vdW  Elec       q    Type
                         _______ _______ _______ _____ _____    ______ ____

>  <TORSDO>
F 2

$$$$
=
 OpenBabel11042416293D

 29 33  0  0  1  0  0  0  0  0999 V2000
  188.5690  174.4170  139.9810 O   0  0  0  0  0  1  0  0  0  0  0  0
  190.8960  174.3790  143.4350 N   0  0  0  0  0  0  0  0  0  0  0  0
  191.6110  173.8960  144.6100 C   0  0  1  0  0  3  0  0  0  0  0  0
  192.6490  176.8110  146.9230 C   0  0  0  0  0  1  0  0  0  0  0  0
  192.5050  175.0020  145.1840 C   0  0  1  0  0  3  0  0  0  0  0  0
  191.9370  175.5360  146.5120 C   0  0  2  0  0  3  0  0  0  0  0  0
  188.8620  175.0170  144.8570 C   0  0  1  0  0  3  0  0  0  0  0  0
  188.7670  174.8680  142.3070 C   0  0  0  0  0  0  0  0  0  0  0  0
  190.7870  174.2910  141.0470 C   0  0  0  0  0  3  0  0  0  0  0  0
  187.0820  176.7910  144.1580 C   0  0  0  0  0  0  0  0  0  0  0  0
  186.9360  176.4660  142.7030 C   0  0  0  0  0  2  0  0  0  0  0  0
  189.7810  174.6450  146.0530 C   0  0  1  0  0  0  0  0  0  0  0  0
  187.9660  176.2350  145.1040 C   0  0  0  0  0  0  0  0  0  0  0  0
  189.3390  174.5480  141.1330 C   0  0  0  0  0  0  0  0  0  0  0  0
  189.6390  175.1570  143.5160 C   0  0  2  0  0  3  0  0  0  0  0  0
  188.9410  174.2160  147.2460 C   0  0  0  0  0  1  0  0  0  0  0  0
  187.2810  175.0260  142.3890 C   0  0  0  0  0  2  0  0  0  0  0  0
  190.6070  173.4190  145.6410 C   0  0  0  0  0  2  0  0  0  0  0  0
  186.2680  178.0830  144.8580 S   0  0  0  0  0  0  0  0  0  0  0  0
  186.9820  177.9390  146.3620 C   0  0  0  0  0  0  0  0  0  0  0  0
  191.5160  174.1950  142.1580 C   0  0  0  0  0  3  0  0  0  0  0  0
  187.8830  176.8890  146.3510 C   0  0  0  0  0  3  0  0  0  0  0  0
  190.5530  175.7970  146.4050 O   0  0  0  0  0  0  0  0  0  0  0  0
  194.8950  176.0140  143.9900 O   0  0  0  0  0  0  0  0  0  0  0  0
  193.8430  174.4650  145.3900 N   0  0  0  0  0  2  0  0  0  0  0  0
  196.2540  174.5060  145.0510 O   0  0  0  0  0  1  0  0  0  0  0  0
  195.0010  175.0380  144.7800 C   0  0  0  0  0  0  0  0  0  0  0  0
  186.7070  178.7790  147.4920 C   0  0  0  0  0  0  0  0  0  0  0  0
  186.4850  179.4580  148.4030 N   0  0  0  0  0  0  0  0  0  0  0  0
  1 14  1  0  0  0  0
  2 15  1  0  0  0  0
  2  3  1  0  0  0  0
  3  5  1  0  0  0  0
  3 18  1  1  0  0  0
  5 25  1  1  0  0  0
  5  6  1  0  0  0  0
  6  4  1  6  0  0  0
  7 13  1  1  0  0  0
  7 12  1  0  0  0  0
  8 17  1  0  0  0  0
  9 14  1  0  0  0  0
  9 21  2  0  0  0  0
 10 19  1  0  0  0  0
 10 13  2  0  0  0  0
 11 10  1  0  0  0  0
 12 23  1  0  0  0  0
 12 16  1  1  0  0  0
 13 22  1  0  0  0  0
 14  8  2  0  0  0  0
 15  8  1  6  0  0  0
 15  7  1  0  0  0  0
 17 11  1  0  0  0  0
 18 12  1  0  0  0  0
 19 20  1  0  0  0  0
 20 28  1  0  0  0  0
 21  2  1  0  0  0  0
 22 20  2  0  0  0  0
 23  6  1  0  0  0  0
 24 27  2  0  0  0  0
 27 26  1  0  0  0  0
 27 25  1  0  0  0  0
 28 29  3  0  0  0  0
M  END
>  <MODEL>
6

>  <REMARK>
 VINA RESULT:      -7.2      3.046      5.643
  Name = 
  2 active torsions:
  status: ('A' for Active; 'I' for Inactive)
    1  A    between atoms: C_6  and  N_16
    2  A    between atoms: C_23  and  C_26
                            x       y       z     vdW  Elec       q    Type
                         _______ _______ _______ _____ _____    ______ ____

>  <TORSDO>
F 2

$$$$
=
 OpenBabel11042416293D

 29 33  0  0  1  0  0  0  0  0999 V2000
  186.8350  178.7600  142.8480 O   0  0  0  0  0  1  0  0  0  0  0  0
  188.2750  175.1470  141.3580 N   0  0  0  0  0  0  0  0  0  0  0  0
  188.3530  173.7350  141.0080 C   0  0  1  0  0  3  0  0  0  0  0  0
  191.9440  172.7350  139.9910 C   0  0  0  0  0  1  0  0  0  0  0  0
  189.5450  173.4800  140.0760 C   0  0  1  0  0  3  0  0  0  0  0  0
  190.6680  172.7260  140.8110 C   0  0  2  0  0  3  0  0  0  0  0  0
  189.6190  174.7550  143.5040 C   0  0  1  0  0  3  0  0  0  0  0  0
  188.3050  176.9060  143.0760 C   0  0  0  0  0  0  0  0  0  0  0  0
  187.0900  177.1890  140.9680 C   0  0  0  0  0  3  0  0  0  0  0  0
  190.9630  176.6090  144.7520 C   0  0  0  0  0  0  0  0  0  0  0  0
  190.0070  177.7560  144.6380 C   0  0  0  0  0  2  0  0  0  0  0  0
  189.7930  173.3170  142.9430 C   0  0  1  0  0  0  0  0  0  0  0  0
  190.8610  175.3150  144.2030 C   0  0  0  0  0  0  0  0  0  0  0  0
  187.4420  177.6200  142.3310 C   0  0  0  0  0  0  0  0  0  0  0  0
  189.0720  175.7570  142.4460 C   0  0  2  0  0  3  0  0  0  0  0  0
  190.0200  172.3330  144.0800 C   0  0  0  0  0  1  0  0  0  0  0  0
  188.5690  177.3060  144.4930 C   0  0  0  0  0  2  0  0  0  0  0  0
  188.4710  172.9130  142.2760 C   0  0  0  0  0  2  0  0  0  0  0  0
  192.4770  176.7900  145.4560 S   0  0  0  0  0  0  0  0  0  0  0  0
  193.0090  175.2420  145.1170 C   0  0  0  0  0  0  0  0  0  0  0  0
  187.4800  175.9950  140.5210 C   0  0  0  0  0  3  0  0  0  0  0  0
  192.0240  174.5520  144.4340 C   0  0  0  0  0  3  0  0  0  0  0  0
  190.9290  173.3060  142.0730 O   0  0  0  0  0  0  0  0  0  0  0  0
  189.9850  174.1670  137.3380 O   0  0  0  0  0  1  0  0  0  0  0  0
  189.0890  172.7070  138.9290 N   0  0  0  0  0  2  0  0  0  0  0  0
  188.9410  172.2930  136.5340 O   0  0  0  0  0  0  0  0  0  0  0  0
  189.3670  173.0960  137.5830 C   0  0  0  0  0  0  0  0  0  0  0  0
  194.2940  174.7120  145.4750 C   0  0  0  0  0  0  0  0  0  0  0  0
  195.3300  174.2850  145.7630 N   0  0  0  0  0  0  0  0  0  0  0  0
  2 15  1  0  0  0  0
  3  2  1  0  0  0  0
  3 18  1  1  0  0  0
  5 25  1  6  0  0  0
  5  6  1  0  0  0  0
  5  3  1  0  0  0  0
  6  4  1  6  0  0  0
  6 23  1  0  0  0  0
  7 13  1  6  0  0  0
  8 17  1  0  0  0  0
  9 14  1  0  0  0  0
 10 19  1  0  0  0  0
 11 10  1  0  0  0  0
 12  7  1  0  0  0  0
 12 16  1  1  0  0  0
 13 22  1  0  0  0  0
 13 10  2  0  0  0  0
 14  1  1  0  0  0  0
 14  8  2  0  0  0  0
 15  8  1  1  0  0  0
 15  7  1  0  0  0  0
 17 11  1  0  0  0  0
 18 12  1  0  0  0  0
 20 19  1  0  0  0  0
 20 28  1  0  0  0  0
 21  9  2  0  0  0  0
 21  2  1  0  0  0  0
 22 20  2  0  0  0  0
 23 12  1  0  0  0  0
 24 27  1  0  0  0  0
 26 27  2  0  0  0  0
 27 25  1  0  0  0  0
 28 29  3  0  0  0  0
M  END
>  <MODEL>
7

>  <REMARK>
 VINA RESULT:      -7.2      3.532      6.699
  Name = 
  2 active torsions:
  status: ('A' for Active; 'I' for Inactive)
    1  A    between atoms: C_6  and  N_16
    2  A    between atoms: C_23  and  C_26
                            x       y       z     vdW  Elec       q    Type
                         _______ _______ _______ _____ _____    ______ ____

>  <TORSDO>
F 2

$$$$
=
 OpenBabel11042416293D

 29 33  0  0  1  0  0  0  0  0999 V2000
  191.9670  176.8550  147.9690 O   0  0  0  0  0  1  0  0  0  0  0  0
  191.2370  174.1750  144.8660 N   0  0  0  0  0  0  0  0  0  0  0  0
  190.9930  172.9290  144.1500 C   0  0  1  0  0  3  0  0  0  0  0  0
  191.3860  173.3960  140.3350 C   0  0  0  0  0  1  0  0  0  0  0  0
  190.5670  173.2170  142.7050 C   0  0  1  0  0  3  0  0  0  0  0  0
  191.6880  172.8450  141.7160 C   0  0  2  0  0  3  0  0  0  0  0  0
  193.7380  174.0740  144.3150 C   0  0  1  0  0  3  0  0  0  0  0  0
  192.7820  175.6410  146.0950 C   0  0  0  0  0  0  0  0  0  0  0  0
  190.3670  175.6830  146.5060 C   0  0  0  0  0  3  0  0  0  0  0  0
  195.3180  176.1490  144.2850 C   0  0  0  0  0  0  0  0  0  0  0  0
  194.8220  176.8810  145.4940 C   0  0  0  0  0  2  0  0  0  0  0  0
  193.3330  172.8600  143.4340 C   0  0  1  0  0  0  0  0  0  0  0  0
  194.8180  174.9690  143.7000 C   0  0  0  0  0  0  0  0  0  0  0  0
  191.7490  176.0690  146.8420 C   0  0  0  0  0  0  0  0  0  0  0  0
  192.5170  174.9160  144.7870 C   0  0  2  0  0  3  0  0  0  0  0  0
  194.5110  171.9130  143.2720 C   0  0  0  0  0  1  0  0  0  0  0  0
  194.1820  175.9620  146.5130 C   0  0  0  0  0  2  0  0  0  0  0  0
  192.2480  172.0790  144.1870 C   0  0  0  0  0  2  0  0  0  0  0  0
  196.5150  176.7900  143.2970 S   0  0  0  0  0  0  0  0  0  0  0  0
  196.4510  175.5800  142.1460 C   0  0  0  0  0  0  0  0  0  0  0  0
  190.1380  174.7620  145.5710 C   0  0  0  0  0  3  0  0  0  0  0  0
  195.4840  174.6550  142.4970 C   0  0  0  0  0  3  0  0  0  0  0  0
  192.9350  173.3480  142.1490 O   0  0  0  0  0  0  0  0  0  0  0  0
  188.0370  174.3320  141.9860 O   0  0  0  0  0  1  0  0  0  0  0  0
  189.3630  172.4530  142.4080 N   0  0  0  0  0  2  0  0  0  0  0  0
  187.0340  172.2910  141.7170 O   0  0  0  0  0  0  0  0  0  0  0  0
  188.1350  173.0760  142.0290 C   0  0  0  0  0  0  0  0  0  0  0  0
  197.2700  175.5130  140.9700 C   0  0  0  0  0  0  0  0  0  0  0  0
  197.9310  175.4600  140.0210 N   0  0  0  0  0  0  0  0  0  0  0  0
  2 21  1  0  0  0  0
  3 18  1  6  0  0  0
  3  2  1  0  0  0  0
  5 25  1  6  0  0  0
  5  3  1  0  0  0  0
  6  4  1  6  0  0  0
  6 23  1  0  0  0  0
  6  5  1  0  0  0  0
  7 13  1  6  0  0  0
  7 15  1  0  0  0  0
  8 17  1  0  0  0  0
  8 14  2  0  0  0  0
  9 14  1  0  0  0  0
 10 11  1  0  0  0  0
 11 17  1  0  0  0  0
 12 16  1  6  0  0  0
 12 18  1  0  0  0  0
 12  7  1  0  0  0  0
 13 10  2  0  0  0  0
 14  1  1  0  0  0  0
 15  2  1  0  0  0  0
 15  8  1  1  0  0  0
 19 10  1  0  0  0  0
 20 22  2  0  0  0  0
 20 19  1  0  0  0  0
 21  9  2  0  0  0  0
 22 13  1  0  0  0  0
 23 12  1  0  0  0  0
 24 27  1  0  0  0  0
 26 27  2  0  0  0  0
 27 25  1  0  0  0  0
 28 20  1  0  0  0  0
 29 28  3  0  0  0  0
M  END
>  <MODEL>
8

>  <REMARK>
 VINA RESULT:      -7.1      5.001      7.622
  Name = 
  2 active torsions:
  status: ('A' for Active; 'I' for Inactive)
    1  A    between atoms: C_6  and  N_16
    2  A    between atoms: C_23  and  C_26
                            x       y       z     vdW  Elec       q    Type
                         _______ _______ _______ _____ _____    ______ ____

>  <TORSDO>
F 2

$$$$
=
 OpenBabel11042416293D

 29 33  0  0  1  0  0  0  0  0999 V2000
  191.5920  177.2640  148.9680 O   0  0  0  0  0  1  0  0  0  0  0  0
  189.0660  176.6890  145.7070 N   0  0  0  0  0  0  0  0  0  0  0  0
  188.0310  176.1280  144.8470 C   0  0  1  0  0  3  0  0  0  0  0  0
  188.2820  177.5140  141.2500 C   0  0  0  0  0  1  0  0  0  0  0  0
  187.7510  177.0640  143.6660 C   0  0  1  0  0  3  0  0  0  0  0  0
  188.2960  176.4720  142.3520 C   0  0  2  0  0  3  0  0  0  0  0  0
  190.8880  175.3680  144.4810 C   0  0  1  0  0  3  0  0  0  0  0  0
  191.2910  176.5040  146.7360 C   0  0  0  0  0  0  0  0  0  0  0  0
  189.4860  177.7780  147.7950 C   0  0  0  0  0  3  0  0  0  0  0  0
  193.4080  176.0370  144.4410 C   0  0  0  0  0  0  0  0  0  0  0  0
  193.5930  176.4710  145.8630 C   0  0  0  0  0  2  0  0  0  0  0  0
  189.7340  174.9770  143.5170 C   0  0  1  0  0  0  0  0  0  0  0  0
  192.2290  175.6270  143.7880 C   0  0  0  0  0  0  0  0  0  0  0  0
  190.8280  177.1690  147.8090 C   0  0  0  0  0  0  0  0  0  0  0  0
  190.5130  176.5420  145.4320 C   0  0  2  0  0  3  0  0  0  0  0  0
  190.0370  173.6470  142.8480 C   0  0  0  0  0  1  0  0  0  0  0  0
  192.6140  175.8090  146.8090 C   0  0  0  0  0  2  0  0  0  0  0  0
  188.4730  174.7600  144.3650 C   0  0  0  0  0  2  0  0  0  0  0  0
  194.6470  176.1610  143.3140 S   0  0  0  0  0  0  0  0  0  0  0  0
  193.7350  175.6680  142.0040 C   0  0  0  0  0  0  0  0  0  0  0  0
  188.6470  177.5250  146.7910 C   0  0  0  0  0  3  0  0  0  0  0  0
  192.4390  175.4090  142.4110 C   0  0  0  0  0  3  0  0  0  0  0  0
  189.6160  175.9950  142.5190 O   0  0  0  0  0  0  0  0  0  0  0  0
  186.3050  179.2180  144.8620 O   0  0  0  0  0  1  0  0  0  0  0  0
  186.3140  177.2750  143.5620 N   0  0  0  0  0  2  0  0  0  0  0  0
  184.2910  178.5590  143.9940 O   0  0  0  0  0  0  0  0  0  0  0  0
  185.6570  178.3910  144.1660 C   0  0  0  0  0  0  0  0  0  0  0  0
  194.2210  175.5390  140.6600 C   0  0  0  0  0  0  0  0  0  0  0  0
  194.6120  175.4350  139.5760 N   0  0  0  0  0  0  0  0  0  0  0  0
  2 21  1  0  0  0  0
  3 18  1  6  0  0  0
  3  2  1  0  0  0  0
  5 25  1  6  0  0  0
  5  3  1  0  0  0  0
  6  4  1  6  0  0  0
  6 23  1  0  0  0  0
  6  5  1  0  0  0  0
  7 13  1  6  0  0  0
  7 15  1  0  0  0  0
  8 17  1  0  0  0  0
  8 14  2  0  0  0  0
  9 14  1  0  0  0  0
 10 11  1  0  0  0  0
 11 17  1  0  0  0  0
 12 16  1  6  0  0  0
 12 18  1  0  0  0  0
 12  7  1  0  0  0  0
 13 10  2  0  0  0  0
 14  1  1  0  0  0  0
 15  2  1  0  0  0  0
 15  8  1  1  0  0  0
 19 10  1  0  0  0  0
 20 22  2  0  0  0  0
 20 19  1  0  0  0  0
 21  9  2  0  0  0  0
 22 13  1  0  0  0  0
 23 12  1  0  0  0  0
 25 27  1  0  0  0  0
 26 27  2  0  0  0  0
 27 24  1  0  0  0  0
 28 20  1  0  0  0  0
 29 28  3  0  0  0  0
M  END
>  <MODEL>
9

>  <REMARK>
 VINA RESULT:      -7.0      3.319      6.167
  Name = 
  2 active torsions:
  status: ('A' for Active; 'I' for Inactive)
    1  A    between atoms: C_6  and  N_16
    2  A    between atoms: C_23  and  C_26
                            x       y       z     vdW  Elec       q    Type
                         _______ _______ _______ _____ _____    ______ ____

>  <TORSDO>
F 2

$$$$
