=
 OpenBabel11042413483D

 25 28  0  0  0  0  0  0  0  0999 V2000
  188.5570  175.6200  142.1630 C   0  0  0  0  0  0  0  0  0  0  0  0
  191.8310  175.7420  144.4050 C   0  0  0  0  0  2  0  0  0  0  0  0
  188.0040  175.7530  140.9280 C   0  0  0  0  0  0  0  0  0  0  0  0
  190.9730  176.9170  143.9380 C   0  0  0  0  0  2  0  0  0  0  0  0
  189.5710  173.5820  141.4110 C   0  0  0  0  0  0  0  0  0  0  0  0
  189.3650  174.5170  142.4530 C   0  0  0  0  0  0  0  0  0  0  0  0
  189.9560  174.3560  143.7060 O   0  0  0  0  0  0  0  0  0  0  0  0
  189.9750  177.3870  146.1730 C   0  0  0  0  0  3  0  0  0  0  0  0
  188.4560  176.8980  144.3360 C   0  0  0  0  0  0  0  0  0  0  0  0
  188.9810  173.7830  140.1910 N   0  0  0  0  0  0  0  0  0  0  0  0
  187.3550  177.4360  142.1950 C   0  0  0  0  0  3  0  0  0  0  0  0
  187.5880  177.3850  146.5630 C   0  0  0  0  0  0  0  0  0  0  0  0
  191.3700  174.4020  143.8360 C   0  0  0  0  0  2  0  0  0  0  0  0
  187.3770  177.0750  145.2130 C   0  0  0  0  0  3  0  0  0  0  0  0
  186.4330  177.4300  139.7940 C   0  0  0  0  0  1  0  0  0  0  0  0
  187.2430  176.8920  140.9210 C   0  0  0  0  0  0  0  0  0  0  0  0
  188.1790  176.6580  142.9460 N   0  0  0  0  0  0  0  0  0  0  0  0
  188.8900  177.5430  147.0370 C   0  0  0  0  0  3  0  0  0  0  0  0
  188.2080  174.8470  139.9440 N   0  0  0  0  0  0  0  0  0  0  0  0
  190.3970  172.3620  141.6230 C   0  0  0  0  0  1  0  0  0  0  0  0
  189.7740  177.0610  144.8230 C   0  0  0  0  0  0  0  0  0  0  0  0
  186.4920  177.5550  147.4650 N   0  0  0  0  0  2  0  0  0  0  0  0
  185.5730  178.6820  147.3890 C   0  0  0  0  0  2  0  0  0  0  0  0
  184.1150  178.8900  145.3810 C   0  0  0  0  0  1  0  0  0  0  0  0
  184.2690  178.2470  146.7460 C   0  0  0  0  0  2  0  0  0  0  0  0
  1  6  1  0  0  0  0
  1 17  1  0  0  0  0
  3  1  2  0  0  0  0
  4  2  1  0  0  0  0
  4 21  1  0  0  0  0
  5 20  1  0  0  0  0
  5  6  2  0  0  0  0
  6  7  1  0  0  0  0
  7 13  1  0  0  0  0
  8 18  1  0  0  0  0
  9 21  1  0  0  0  0
  9 14  2  0  0  0  0
 10  5  1  0  0  0  0
 11 17  1  0  0  0  0
 12 18  2  0  0  0  0
 12 22  1  0  0  0  0
 13  2  1  0  0  0  0
 14 12  1  0  0  0  0
 15 16  1  0  0  0  0
 16  3  1  0  0  0  0
 16 11  2  0  0  0  0
 17  9  1  0  0  0  0
 19 10  2  0  0  0  0
 19  3  1  0  0  0  0
 21  8  2  0  0  0  0
 23 22  1  0  0  0  0
 24 25  1  0  0  0  0
 25 23  1  0  0  0  0
M  END
>  <MODEL>
1

>  <REMARK>
 VINA RESULT:      -7.2      0.000      0.000
  Name = 
  3 active torsions:
  status: ('A' for Active; 'I' for Inactive)
    1  A    between atoms: C_13  and  N_21
    2  A    between atoms: C_15  and  C_20
    3  A    between atoms: C_15  and  N_21
                            x       y       z     vdW  Elec       q    Type
                         _______ _______ _______ _____ _____    ______ ____

>  <TORSDO>
F 3

$$$$
=
 OpenBabel11042413483D

 25 28  0  0  0  0  0  0  0  0999 V2000
  191.2180  176.4150  144.9970 C   0  0  0  0  0  0  0  0  0  0  0  0
  189.8730  174.0590  142.0990 C   0  0  0  0  0  2  0  0  0  0  0  0
  191.9190  176.5240  146.1580 C   0  0  0  0  0  0  0  0  0  0  0  0
  189.2680  174.2740  143.4850 C   0  0  0  0  0  2  0  0  0  0  0  0
  193.2940  176.0400  143.8620 C   0  0  0  0  0  0  0  0  0  0  0  0
  191.8880  176.1700  143.7950 C   0  0  0  0  0  0  0  0  0  0  0  0
  191.1970  176.0420  142.5900 O   0  0  0  0  0  0  0  0  0  0  0  0
  187.3160  175.6040  142.6900 C   0  0  0  0  0  3  0  0  0  0  0  0
  188.7980  176.6350  144.3200 C   0  0  0  0  0  0  0  0  0  0  0  0
  193.9340  176.1610  145.0670 N   0  0  0  0  0  0  0  0  0  0  0  0
  189.7780  176.8420  146.5750 C   0  0  0  0  0  3  0  0  0  0  0  0
  186.8480  177.8410  143.4830 C   0  0  0  0  0  0  0  0  0  0  0  0
  191.1940  174.7980  141.9020 C   0  0  0  0  0  2  0  0  0  0  0  0
  187.9790  177.7740  144.3090 C   0  0  0  0  0  3  0  0  0  0  0  0
  191.3460  177.0130  148.6070 C   0  0  0  0  0  1  0  0  0  0  0  0
  191.0340  176.7910  147.1690 C   0  0  0  0  0  0  0  0  0  0  0  0
  189.8980  176.5910  145.2440 N   0  0  0  0  0  0  0  0  0  0  0  0
  186.5200  176.7510  142.6780 C   0  0  0  0  0  3  0  0  0  0  0  0
  193.2650  176.4010  146.2020 N   0  0  0  0  0  0  0  0  0  0  0  0
  194.1040  175.7990  142.6350 C   0  0  0  0  0  1  0  0  0  0  0  0
  188.4570  175.5340  143.5020 C   0  0  0  0  0  0  0  0  0  0  0  0
  186.0170  179.0030  143.4580 N   0  0  0  0  0  2  0  0  0  0  0  0
  185.4520  179.5970  144.6620 C   0  0  0  0  0  2  0  0  0  0  0  0
  184.4020  178.1970  146.4330 C   0  0  0  0  0  1  0  0  0  0  0  0
  184.2020  178.8430  145.0750 C   0  0  0  0  0  2  0  0  0  0  0  0
  1 17  1  0  0  0  0
  1  3  1  0  0  0  0
  2  4  1  0  0  0  0
  3 19  2  0  0  0  0
  3 16  1  0  0  0  0
  4 21  1  0  0  0  0
  5 10  2  0  0  0  0
  6  5  1  0  0  0  0
  6  1  2  0  0  0  0
  7  6  1  0  0  0  0
  8 21  1  0  0  0  0
  9 17  1  0  0  0  0
 10 19  1  0  0  0  0
 11 16  2  0  0  0  0
 12 14  2  0  0  0  0
 13  2  1  0  0  0  0
 13  7  1  0  0  0  0
 14  9  1  0  0  0  0
 16 15  1  0  0  0  0
 17 11  1  0  0  0  0
 18  8  2  0  0  0  0
 18 12  1  0  0  0  0
 20  5  1  0  0  0  0
 21  9  2  0  0  0  0
 22 12  1  0  0  0  0
 22 23  1  0  0  0  0
 23 25  1  0  0  0  0
 25 24  1  0  0  0  0
M  END
>  <MODEL>
2

>  <REMARK>
 VINA RESULT:      -7.1      2.389      4.738
  Name = 
  3 active torsions:
  status: ('A' for Active; 'I' for Inactive)
    1  A    between atoms: C_13  and  N_21
    2  A    between atoms: C_15  and  C_20
    3  A    between atoms: C_15  and  N_21
                            x       y       z     vdW  Elec       q    Type
                         _______ _______ _______ _____ _____    ______ ____

>  <TORSDO>
F 3

$$$$
=
 OpenBabel11042413483D

 25 28  0  0  0  0  0  0  0  0999 V2000
  188.6620  175.7300  143.5480 C   0  0  0  0  0  0  0  0  0  0  0  0
  189.1300  174.8110  147.3820 C   0  0  0  0  0  2  0  0  0  0  0  0
  188.0000  175.4980  142.3830 C   0  0  0  0  0  0  0  0  0  0  0  0
  189.6980  174.0780  146.1680 C   0  0  0  0  0  2  0  0  0  0  0  0
  186.6640  176.7480  144.3970 C   0  0  0  0  0  0  0  0  0  0  0  0
  188.0120  176.3730  144.6060 C   0  0  0  0  0  0  0  0  0  0  0  0
  188.6590  176.6160  145.8170 O   0  0  0  0  0  0  0  0  0  0  0  0
  192.0520  174.8130  146.5260 C   0  0  0  0  0  3  0  0  0  0  0  0
  191.0080  175.3610  144.3990 C   0  0  0  0  0  0  0  0  0  0  0  0
  186.0620  176.4810  143.1950 N   0  0  0  0  0  0  0  0  0  0  0  0
  190.0700  174.7670  142.1950 C   0  0  0  0  0  3  0  0  0  0  0  0
  193.3130  176.0200  144.8510 C   0  0  0  0  0  0  0  0  0  0  0  0
  188.2130  175.9720  147.0030 C   0  0  0  0  0  2  0  0  0  0  0  0
  192.2050  175.9700  143.9950 C   0  0  0  0  0  3  0  0  0  0  0  0
  188.5910  174.4680  140.1120 C   0  0  0  0  0  1  0  0  0  0  0  0
  188.8660  174.8890  141.5130 C   0  0  0  0  0  0  0  0  0  0  0  0
  189.9310  175.2690  143.4510 N   0  0  0  0  0  0  0  0  0  0  0  0
  193.2310  175.4370  146.1160 C   0  0  0  0  0  3  0  0  0  0  0  0
  186.7110  175.8670  142.1980 N   0  0  0  0  0  0  0  0  0  0  0  0
  185.8890  177.4570  145.4520 C   0  0  0  0  0  1  0  0  0  0  0  0
  190.9340  174.7710  145.6820 C   0  0  0  0  0  0  0  0  0  0  0  0
  194.5320  176.6500  144.4500 N   0  0  0  0  0  2  0  0  0  0  0  0
  195.7730  175.9150  144.2520 C   0  0  0  0  0  2  0  0  0  0  0  0
  195.9460  176.5470  141.8500 C   0  0  0  0  0  1  0  0  0  0  0  0
  196.6260  176.6060  143.2050 C   0  0  0  0  0  2  0  0  0  0  0  0
  1  6  1  0  0  0  0
  3  1  2  0  0  0  0
  4  2  1  0  0  0  0
  5  6  2  0  0  0  0
  5 20  1  0  0  0  0
  6  7  1  0  0  0  0
  7 13  1  0  0  0  0
  9 21  1  0  0  0  0
 10  5  1  0  0  0  0
 11 17  1  0  0  0  0
 12 18  2  0  0  0  0
 13  2  1  0  0  0  0
 14  9  2  0  0  0  0
 14 12  1  0  0  0  0
 15 16  1  0  0  0  0
 16 11  2  0  0  0  0
 16  3  1  0  0  0  0
 17  1  1  0  0  0  0
 17  9  1  0  0  0  0
 18  8  1  0  0  0  0
 19  3  1  0  0  0  0
 19 10  2  0  0  0  0
 21  4  1  0  0  0  0
 21  8  2  0  0  0  0
 22 12  1  0  0  0  0
 23 22  1  0  0  0  0
 24 25  1  0  0  0  0
 25 23  1  0  0  0  0
M  END
>  <MODEL>
3

>  <REMARK>
 VINA RESULT:      -7.0      2.674      5.927
  Name = 
  3 active torsions:
  status: ('A' for Active; 'I' for Inactive)
    1  A    between atoms: C_13  and  N_21
    2  A    between atoms: C_15  and  C_20
    3  A    between atoms: C_15  and  N_21
                            x       y       z     vdW  Elec       q    Type
                         _______ _______ _______ _____ _____    ______ ____

>  <TORSDO>
F 3

$$$$
=
 OpenBabel11042413483D

 25 28  0  0  0  0  0  0  0  0999 V2000
  188.9370  176.1730  143.2290 C   0  0  0  0  0  0  0  0  0  0  0  0
  187.5530  176.8810  146.8810 C   0  0  0  0  0  2  0  0  0  0  0  0
  188.7540  175.5590  142.0280 C   0  0  0  0  0  0  0  0  0  0  0  0
  188.3080  175.6460  146.3900 C   0  0  0  0  0  2  0  0  0  0  0  0
  187.1710  177.6840  142.6450 C   0  0  0  0  0  0  0  0  0  0  0  0
  188.1470  177.2700  143.5820 C   0  0  0  0  0  0  0  0  0  0  0  0
  188.3020  177.9150  144.8090 O   0  0  0  0  0  0  0  0  0  0  0  0
  190.4300  176.1740  147.5850 C   0  0  0  0  0  3  0  0  0  0  0  0
  190.5280  175.9100  145.1690 C   0  0  0  0  0  0  0  0  0  0  0  0
  187.0440  177.0170  141.4550 N   0  0  0  0  0  0  0  0  0  0  0  0
  190.4090  174.5720  143.0990 C   0  0  0  0  0  3  0  0  0  0  0  0
  192.5480  176.4140  146.4420 C   0  0  0  0  0  0  0  0  0  0  0  0
  187.2530  177.8810  145.7670 C   0  0  0  0  0  2  0  0  0  0  0  0
  191.9100  176.1460  145.2230 C   0  0  0  0  0  3  0  0  0  0  0  0
  189.8580  173.6160  140.7760 C   0  0  0  0  0  1  0  0  0  0  0  0
  189.6690  174.5440  141.9230 C   0  0  0  0  0  0  0  0  0  0  0  0
  189.9410  175.5630  143.9030 N   0  0  0  0  0  0  0  0  0  0  0  0
  191.8030  176.4230  147.6200 C   0  0  0  0  0  3  0  0  0  0  0  0
  187.8190  175.9710  141.1420 N   0  0  0  0  0  0  0  0  0  0  0  0
  186.2920  178.8550  142.9150 C   0  0  0  0  0  1  0  0  0  0  0  0
  189.7800  175.9200  146.3690 C   0  0  0  0  0  0  0  0  0  0  0  0
  193.9530  176.6670  146.5020 N   0  0  0  0  0  2  0  0  0  0  0  0
  194.9030  176.0830  145.5640 C   0  0  0  0  0  2  0  0  0  0  0  0
  194.7600  173.6040  145.3870 C   0  0  0  0  0  1  0  0  0  0  0  0
  195.4230  174.7650  146.1050 C   0  0  0  0  0  2  0  0  0  0  0  0
  1  6  1  0  0  0  0
  1 17  1  0  0  0  0
  3  1  2  0  0  0  0
  4  2  1  0  0  0  0
  5 20  1  0  0  0  0
  5  6  2  0  0  0  0
  6  7  1  0  0  0  0
  7 13  1  0  0  0  0
  8 18  1  0  0  0  0
  9 14  2  0  0  0  0
  9 21  1  0  0  0  0
 10  5  1  0  0  0  0
 11 17  1  0  0  0  0
 12 22  1  0  0  0  0
 12 18  2  0  0  0  0
 13  2  1  0  0  0  0
 14 12  1  0  0  0  0
 15 16  1  0  0  0  0
 16  3  1  0  0  0  0
 16 11  2  0  0  0  0
 17  9  1  0  0  0  0
 19 10  2  0  0  0  0
 19  3  1  0  0  0  0
 21  4  1  0  0  0  0
 21  8  2  0  0  0  0
 23 25  1  0  0  0  0
 23 22  1  0  0  0  0
 24 25  1  0  0  0  0
M  END
>  <MODEL>
4

>  <REMARK>
 VINA RESULT:      -6.9      2.449      5.562
  Name = 
  3 active torsions:
  status: ('A' for Active; 'I' for Inactive)
    1  A    between atoms: C_13  and  N_21
    2  A    between atoms: C_15  and  C_20
    3  A    between atoms: C_15  and  N_21
                            x       y       z     vdW  Elec       q    Type
                         _______ _______ _______ _____ _____    ______ ____

>  <TORSDO>
F 3

$$$$
=
 OpenBabel11042413483D

 25 28  0  0  0  0  0  0  0  0999 V2000
  187.5650  177.1910  145.4440 C   0  0  0  0  0  0  0  0  0  0  0  0
  186.0170  178.3890  141.9900 C   0  0  0  0  0  2  0  0  0  0  0  0
  188.1390  177.5360  146.6290 C   0  0  0  0  0  0  0  0  0  0  0  0
  187.4940  178.2210  142.3450 C   0  0  0  0  0  2  0  0  0  0  0  0
  185.4940  178.0630  146.2750 C   0  0  0  0  0  0  0  0  0  0  0  0
  186.2080  177.4410  145.2240 C   0  0  0  0  0  0  0  0  0  0  0  0
  185.5930  177.1100  144.0180 O   0  0  0  0  0  0  0  0  0  0  0  0
  187.8400  176.1780  140.9600 C   0  0  0  0  0  3  0  0  0  0  0  0
  188.3260  176.0270  143.3390 C   0  0  0  0  0  0  0  0  0  0  0  0
  186.1380  178.3820  147.4410 N   0  0  0  0  0  0  0  0  0  0  0  0
  189.6510  176.5690  145.3490 C   0  0  0  0  0  3  0  0  0  0  0  0
  188.6420  174.0920  141.8860 C   0  0  0  0  0  0  0  0  0  0  0  0
  185.0860  178.1350  143.1730 C   0  0  0  0  0  2  0  0  0  0  0  0
  188.7090  174.6910  143.1510 C   0  0  0  0  0  3  0  0  0  0  0  0
  190.4680  177.3100  147.6720 C   0  0  0  0  0  1  0  0  0  0  0  0
  189.4550  177.1570  146.5930 C   0  0  0  0  0  0  0  0  0  0  0  0
  188.4900  176.6110  144.6420 N   0  0  0  0  0  0  0  0  0  0  0  0
  188.2090  174.8420  140.7930 C   0  0  0  0  0  3  0  0  0  0  0  0
  187.4390  178.1260  147.6250 N   0  0  0  0  0  0  0  0  0  0  0  0
  184.0390  178.3540  146.1500 C   0  0  0  0  0  1  0  0  0  0  0  0
  187.8900  176.7810  142.2250 C   0  0  0  0  0  0  0  0  0  0  0  0
  189.0200  172.7280  141.6920 N   0  0  0  0  0  2  0  0  0  0  0  0
  189.3000  171.8200  142.7950 C   0  0  0  0  0  2  0  0  0  0  0  0
  191.3050  172.1460  144.2360 C   0  0  0  0  0  1  0  0  0  0  0  0
  190.7960  171.5960  142.9170 C   0  0  0  0  0  2  0  0  0  0  0  0
  1  3  1  0  0  0  0
  2  4  1  0  0  0  0
  2 13  1  0  0  0  0
  3 19  2  0  0  0  0
  5 10  2  0  0  0  0
  6  1  2  0  0  0  0
  6  5  1  0  0  0  0
  7  6  1  0  0  0  0
  8 21  1  0  0  0  0
  9 17  1  0  0  0  0
 10 19  1  0  0  0  0
 11 16  2  0  0  0  0
 12 14  2  0  0  0  0
 13  7  1  0  0  0  0
 14  9  1  0  0  0  0
 16  3  1  0  0  0  0
 16 15  1  0  0  0  0
 17 11  1  0  0  0  0
 17  1  1  0  0  0  0
 18  8  2  0  0  0  0
 18 12  1  0  0  0  0
 20  5  1  0  0  0  0
 21  4  1  0  0  0  0
 21  9  2  0  0  0  0
 22 12  1  0  0  0  0
 22 23  1  0  0  0  0
 23 25  1  0  0  0  0
 25 24  1  0  0  0  0
M  END
>  <MODEL>
5

>  <REMARK>
 VINA RESULT:      -6.9      1.758      6.771
  Name = 
  3 active torsions:
  status: ('A' for Active; 'I' for Inactive)
    1  A    between atoms: C_13  and  N_21
    2  A    between atoms: C_15  and  C_20
    3  A    between atoms: C_15  and  N_21
                            x       y       z     vdW  Elec       q    Type
                         _______ _______ _______ _____ _____    ______ ____

>  <TORSDO>
F 3

$$$$
=
 OpenBabel11042413483D

 25 28  0  0  0  0  0  0  0  0999 V2000
  186.3950  177.7230  144.7760 C   0  0  0  0  0  0  0  0  0  0  0  0
  188.1560  178.0540  141.2330 C   0  0  0  0  0  2  0  0  0  0  0  0
  185.7900  178.3480  145.8220 C   0  0  0  0  0  0  0  0  0  0  0  0
  188.7760  178.2840  142.6110 C   0  0  0  0  0  2  0  0  0  0  0  0
  184.4470  178.1910  143.4610 C   0  0  0  0  0  0  0  0  0  0  0  0
  185.7380  177.6180  143.5470 C   0  0  0  0  0  0  0  0  0  0  0  0
  186.3350  176.9940  142.4530 O   0  0  0  0  0  0  0  0  0  0  0  0
  190.1600  176.2110  142.5980 C   0  0  0  0  0  3  0  0  0  0  0  0
  188.5710  176.4980  144.4170 C   0  0  0  0  0  0  0  0  0  0  0  0
  183.9000  178.8050  144.5570 N   0  0  0  0  0  0  0  0  0  0  0  0
  187.7590  177.5980  146.4700 C   0  0  0  0  0  3  0  0  0  0  0  0
  189.9870  174.5130  144.3120 C   0  0  0  0  0  0  0  0  0  0  0  0
  186.6610  177.7500  141.2940 C   0  0  0  0  0  2  0  0  0  0  0  0
  189.0010  175.2750  144.9530 C   0  0  0  0  0  3  0  0  0  0  0  0
  186.3820  178.8140  148.2710 C   0  0  0  0  0  1  0  0  0  0  0  0
  186.6300  178.2850  146.9020 C   0  0  0  0  0  0  0  0  0  0  0  0
  187.6140  177.2730  145.1580 N   0  0  0  0  0  0  0  0  0  0  0  0
  190.5660  174.9890  143.1350 C   0  0  0  0  0  3  0  0  0  0  0  0
  184.5530  178.8860  145.7230 N   0  0  0  0  0  0  0  0  0  0  0  0
  183.6530  178.1150  142.2040 C   0  0  0  0  0  1  0  0  0  0  0  0
  189.1630  176.9730  143.2240 C   0  0  0  0  0  0  0  0  0  0  0  0
  190.4210  173.2610  144.8470 N   0  0  0  0  0  2  0  0  0  0  0  0
  189.6300  172.0430  144.7480 C   0  0  0  0  0  2  0  0  0  0  0  0
  190.2330  171.2550  142.4640 C   0  0  0  0  0  1  0  0  0  0  0  0
  189.1380  171.8570  143.3250 C   0  0  0  0  0  2  0  0  0  0  0  0
  1 17  1  0  0  0  0
  1  3  1  0  0  0  0
  2 13  1  0  0  0  0
  2  4  1  0  0  0  0
  3 16  1  0  0  0  0
  4 21  1  0  0  0  0
  5  6  1  0  0  0  0
  5 10  2  0  0  0  0
  6  1  2  0  0  0  0
  7  6  1  0  0  0  0
  8 18  2  0  0  0  0
  8 21  1  0  0  0  0
  9 14  1  0  0  0  0
  9 17  1  0  0  0  0
 10 19  1  0  0  0  0
 11 16  2  0  0  0  0
 12 22  1  0  0  0  0
 12 14  2  0  0  0  0
 13  7  1  0  0  0  0
 16 15  1  0  0  0  0
 17 11  1  0  0  0  0
 18 12  1  0  0  0  0
 19  3  2  0  0  0  0
 20  5  1  0  0  0  0
 21  9  2  0  0  0  0
 23 22  1  0  0  0  0
 24 25  1  0  0  0  0
 25 23  1  0  0  0  0
M  END
>  <MODEL>
6

>  <REMARK>
 VINA RESULT:      -6.8      2.362      6.098
  Name = 
  3 active torsions:
  status: ('A' for Active; 'I' for Inactive)
    1  A    between atoms: C_13  and  N_21
    2  A    between atoms: C_15  and  C_20
    3  A    between atoms: C_15  and  N_21
                            x       y       z     vdW  Elec       q    Type
                         _______ _______ _______ _____ _____    ______ ____

>  <TORSDO>
F 3

$$$$
=
 OpenBabel11042413483D

 25 28  0  0  0  0  0  0  0  0999 V2000
  191.9660  176.3020  144.6670 C   0  0  0  0  0  0  0  0  0  0  0  0
  191.3750  174.0020  141.4860 C   0  0  0  0  0  2  0  0  0  0  0  0
  192.4270  176.4040  145.9430 C   0  0  0  0  0  0  0  0  0  0  0  0
  190.5060  174.1070  142.7390 C   0  0  0  0  0  2  0  0  0  0  0  0
  194.2420  176.1290  143.9350 C   0  0  0  0  0  0  0  0  0  0  0  0
  192.8660  176.1640  143.6070 C   0  0  0  0  0  0  0  0  0  0  0  0
  192.4260  176.0460  142.2890 O   0  0  0  0  0  0  0  0  0  0  0  0
  188.6400  175.3350  141.6330 C   0  0  0  0  0  3  0  0  0  0  0  0
  189.7060  176.3860  143.5510 C   0  0  0  0  0  0  0  0  0  0  0  0
  194.6330  176.2360  145.2440 N   0  0  0  0  0  0  0  0  0  0  0  0
  190.2280  176.5510  145.9570 C   0  0  0  0  0  3  0  0  0  0  0  0
  187.8600  177.4920  142.4000 C   0  0  0  0  0  0  0  0  0  0  0  0
  192.6480  174.8410  141.5700 C   0  0  0  0  0  2  0  0  0  0  0  0
  188.8180  177.4640  143.4230 C   0  0  0  0  0  3  0  0  0  0  0  0
  191.3700  176.7320  148.2540 C   0  0  0  0  0  1  0  0  0  0  0  0
  191.3510  176.5590  146.7760 C   0  0  0  0  0  0  0  0  0  0  0  0
  190.6140  176.3740  144.6650 N   0  0  0  0  0  0  0  0  0  0  0  0
  187.7740  176.4220  141.5100 C   0  0  0  0  0  3  0  0  0  0  0  0
  193.7470  176.3730  146.2390 N   0  0  0  0  0  0  0  0  0  0  0  0
  195.2830  176.0050  142.8780 C   0  0  0  0  0  1  0  0  0  0  0  0
  189.6110  175.3050  142.6440 C   0  0  0  0  0  0  0  0  0  0  0  0
  186.9600  178.5930  142.2580 N   0  0  0  0  0  2  0  0  0  0  0  0
  185.9880  178.9560  143.2790 C   0  0  0  0  0  2  0  0  0  0  0  0
  183.9950  178.1180  142.0440 C   0  0  0  0  0  1  0  0  0  0  0  0
  184.8460  177.9570  143.2890 C   0  0  0  0  0  2  0  0  0  0  0  0
  1  3  1  0  0  0  0
  2 13  1  0  0  0  0
  2  4  1  0  0  0  0
  3 19  2  0  0  0  0
  3 16  1  0  0  0  0
  5 10  2  0  0  0  0
  6  5  1  0  0  0  0
  6  1  2  0  0  0  0
  7  6  1  0  0  0  0
  8 21  1  0  0  0  0
  9 17  1  0  0  0  0
 10 19  1  0  0  0  0
 11 16  2  0  0  0  0
 12 14  2  0  0  0  0
 13  7  1  0  0  0  0
 14  9  1  0  0  0  0
 16 15  1  0  0  0  0
 17  1  1  0  0  0  0
 17 11  1  0  0  0  0
 18  8  2  0  0  0  0
 18 12  1  0  0  0  0
 20  5  1  0  0  0  0
 21  4  1  0  0  0  0
 21  9  2  0  0  0  0
 22 12  1  0  0  0  0
 22 23  1  0  0  0  0
 23 25  1  0  0  0  0
 24 25  1  0  0  0  0
M  END
>  <MODEL>
7

>  <REMARK>
 VINA RESULT:      -6.5      2.765      5.180
  Name = 
  3 active torsions:
  status: ('A' for Active; 'I' for Inactive)
    1  A    between atoms: C_13  and  N_21
    2  A    between atoms: C_15  and  C_20
    3  A    between atoms: C_15  and  N_21
                            x       y       z     vdW  Elec       q    Type
                         _______ _______ _______ _____ _____    ______ ____

>  <TORSDO>
F 3

$$$$
=
 OpenBabel11042413483D

 25 28  0  0  0  0  0  0  0  0999 V2000
  189.2770  175.7430  143.0100 C   0  0  0  0  0  0  0  0  0  0  0  0
  188.4940  176.0760  146.8880 C   0  0  0  0  0  2  0  0  0  0  0  0
  188.9120  175.2330  141.8030 C   0  0  0  0  0  0  0  0  0  0  0  0
  189.1810  174.9160  146.1690 C   0  0  0  0  0  2  0  0  0  0  0  0
  187.4130  177.2410  142.8610 C   0  0  0  0  0  0  0  0  0  0  0  0
  188.5350  176.7780  143.5860 C   0  0  0  0  0  0  0  0  0  0  0  0
  188.8770  177.3150  144.8270 O   0  0  0  0  0  0  0  0  0  0  0  0
  191.4600  175.4040  147.0510 C   0  0  0  0  0  3  0  0  0  0  0  0
  191.1680  175.3600  144.6360 C   0  0  0  0  0  0  0  0  0  0  0  0
  187.1050  176.6780  141.6500 N   0  0  0  0  0  0  0  0  0  0  0  0
  190.7360  174.2090  142.4970 C   0  0  0  0  0  3  0  0  0  0  0  0
  193.3590  175.8150  145.6090 C   0  0  0  0  0  0  0  0  0  0  0  0
  187.9990  177.1610  145.9340 C   0  0  0  0  0  2  0  0  0  0  0  0
  192.5350  175.6360  144.4900 C   0  0  0  0  0  3  0  0  0  0  0  0
  189.8320  173.4460  140.2130 C   0  0  0  0  0  1  0  0  0  0  0  0
  189.8150  174.2620  141.4580 C   0  0  0  0  0  0  0  0  0  0  0  0
  190.3880  175.1080  143.4550 N   0  0  0  0  0  0  0  0  0  0  0  0
  192.8150  175.6940  146.8880 C   0  0  0  0  0  3  0  0  0  0  0  0
  187.8370  175.6910  141.1210 N   0  0  0  0  0  0  0  0  0  0  0  0
  186.5690  178.3540  143.3760 C   0  0  0  0  0  1  0  0  0  0  0  0
  190.6250  175.2390  145.9360 C   0  0  0  0  0  0  0  0  0  0  0  0
  194.7500  176.1080  145.4660 N   0  0  0  0  0  2  0  0  0  0  0  0
  195.3650  176.4160  144.1830 C   0  0  0  0  0  2  0  0  0  0  0  0
  197.4620  176.0400  142.8950 C   0  0  0  0  0  1  0  0  0  0  0  0
  196.4970  175.4460  143.9030 C   0  0  0  0  0  2  0  0  0  0  0  0
  1 17  1  0  0  0  0
  1  6  1  0  0  0  0
  3  1  2  0  0  0  0
  4  2  1  0  0  0  0
  5 20  1  0  0  0  0
  5  6  2  0  0  0  0
  6  7  1  0  0  0  0
  7 13  1  0  0  0  0
  9 21  1  0  0  0  0
 10  5  1  0  0  0  0
 11 17  1  0  0  0  0
 12 18  2  0  0  0  0
 13  2  1  0  0  0  0
 14  9  2  0  0  0  0
 14 12  1  0  0  0  0
 15 16  1  0  0  0  0
 16  3  1  0  0  0  0
 16 11  2  0  0  0  0
 17  9  1  0  0  0  0
 18  8  1  0  0  0  0
 19 10  2  0  0  0  0
 19  3  1  0  0  0  0
 21  4  1  0  0  0  0
 21  8  2  0  0  0  0
 22 12  1  0  0  0  0
 23 22  1  0  0  0  0
 24 25  1  0  0  0  0
 25 23  1  0  0  0  0
M  END
>  <MODEL>
8

>  <REMARK>
 VINA RESULT:      -6.5      2.721      5.952
  Name = 
  3 active torsions:
  status: ('A' for Active; 'I' for Inactive)
    1  A    between atoms: C_13  and  N_21
    2  A    between atoms: C_15  and  C_20
    3  A    between atoms: C_15  and  N_21
                            x       y       z     vdW  Elec       q    Type
                         _______ _______ _______ _____ _____    ______ ____

>  <TORSDO>
F 3

$$$$
=
 OpenBabel11042413483D

 25 28  0  0  0  0  0  0  0  0999 V2000
  188.0870  176.6780  144.6200 C   0  0  0  0  0  0  0  0  0  0  0  0
  185.6050  178.3520  142.0140 C   0  0  0  0  0  2  0  0  0  0  0  0
  188.9250  176.8420  145.6800 C   0  0  0  0  0  0  0  0  0  0  0  0
  187.1310  178.3060  141.9550 C   0  0  0  0  0  2  0  0  0  0  0  0
  186.2480  177.0840  146.1020 C   0  0  0  0  0  0  0  0  0  0  0  0
  186.7050  176.7900  144.7960 C   0  0  0  0  0  0  0  0  0  0  0  0
  185.8210  176.6380  143.7290 O   0  0  0  0  0  0  0  0  0  0  0  0
  187.2490  176.6550  140.0920 C   0  0  0  0  0  3  0  0  0  0  0  0
  188.3510  176.0810  142.1830 C   0  0  0  0  0  0  0  0  0  0  0  0
  187.1510  177.2370  147.1220 N   0  0  0  0  0  0  0  0  0  0  0  0
  190.1140  176.3640  143.8870 C   0  0  0  0  0  3  0  0  0  0  0  0
  188.4150  174.5450  140.2890 C   0  0  0  0  0  0  0  0  0  0  0  0
  185.0370  177.7410  143.2930 C   0  0  0  0  0  2  0  0  0  0  0  0
  188.7680  174.8740  141.6040 C   0  0  0  0  0  3  0  0  0  0  0  0
  191.4560  176.7100  146.0530 C   0  0  0  0  0  1  0  0  0  0  0  0
  190.2090  176.6520  145.2430 C   0  0  0  0  0  0  0  0  0  0  0  0
  188.8090  176.4010  143.5080 N   0  0  0  0  0  0  0  0  0  0  0  0
  187.6570  175.4420  139.5360 C   0  0  0  0  0  3  0  0  0  0  0  0
  188.4700  177.1190  146.9230 N   0  0  0  0  0  0  0  0  0  0  0  0
  184.7950  177.2040  146.4010 C   0  0  0  0  0  1  0  0  0  0  0  0
  187.5850  176.9860  141.4130 C   0  0  0  0  0  0  0  0  0  0  0  0
  188.8260  173.3100  139.6980 N   0  0  0  0  0  2  0  0  0  0  0  0
  190.1830  172.7940  139.8090 C   0  0  0  0  0  2  0  0  0  0  0  0
  189.5520  170.9190  138.2970 C   0  0  0  0  0  1  0  0  0  0  0  0
  190.1830  171.2880  139.6260 C   0  0  0  0  0  2  0  0  0  0  0  0
  1  6  2  0  0  0  0
  1  3  1  0  0  0  0
  2 13  1  0  0  0  0
  3 19  2  0  0  0  0
  4  2  1  0  0  0  0
  5 20  1  0  0  0  0
  5 10  2  0  0  0  0
  6  5  1  0  0  0  0
  7  6  1  0  0  0  0
  8 21  1  0  0  0  0
  9 17  1  0  0  0  0
 11 16  2  0  0  0  0
 12 14  2  0  0  0  0
 13  7  1  0  0  0  0
 14  9  1  0  0  0  0
 16  3  1  0  0  0  0
 16 15  1  0  0  0  0
 17 11  1  0  0  0  0
 17  1  1  0  0  0  0
 18  8  2  0  0  0  0
 18 12  1  0  0  0  0
 19 10  1  0  0  0  0
 21  4  1  0  0  0  0
 21  9  2  0  0  0  0
 22 23  1  0  0  0  0
 22 12  1  0  0  0  0
 24 25  1  0  0  0  0
 25 23  1  0  0  0  0
M  END
>  <MODEL>
9

>  <REMARK>
 VINA RESULT:      -6.2      1.781      6.963
  Name = 
  3 active torsions:
  status: ('A' for Active; 'I' for Inactive)
    1  A    between atoms: C_13  and  N_21
    2  A    between atoms: C_15  and  C_20
    3  A    between atoms: C_15  and  N_21
                            x       y       z     vdW  Elec       q    Type
                         _______ _______ _______ _____ _____    ______ ____

>  <TORSDO>
F 3

$$$$
