=
 OpenBabel11042417533D

 55 60  0  0  1  0  0  0  0  0999 V2000
  191.7800  173.0060  143.7690 C   0  0  0  0  0  3  0  0  0  0  0  0
  192.7600  172.1320  144.0180 C   0  0  0  0  0  0  0  0  0  0  0  0
  192.1510  170.7600  142.0780 C   0  0  0  0  0  0  0  0  0  0  0  0
  192.0450  170.1640  139.7350 C   0  0  0  0  0  3  0  0  0  0  0  0
  188.2170  172.6180  139.1140 C   0  0  0  0  0  2  0  0  0  0  0  0
  189.9020  171.8350  137.4400 C   0  0  0  0  0  2  0  0  0  0  0  0
  190.7040  172.0190  140.5760 C   0  0  0  0  0  0  0  0  0  0  0  0
  190.8690  171.5440  141.9450 C   0  0  2  0  0  3  0  0  0  0  0  0
  191.2580  171.4110  139.5100 C   0  0  0  0  0  0  0  0  0  0  0  0
  190.3580  173.8600  141.9840 O   0  0  0  0  0  0  0  0  0  0  0  0
  192.4800  169.8350  140.9630 C   0  0  0  0  0  0  0  0  0  0  0  0
  193.0040  171.0160  143.0760 C   0  0  0  0  0  3  0  0  0  0  0  0
  191.2230  172.0770  138.1580 C   0  0  1  0  0  3  0  0  0  0  0  0
  188.9030  172.9250  137.7900 C   0  0  0  0  0  2  0  0  0  0  0  0
  190.9030  172.8040  142.6540 N   0  0  0  0  0  0  0  0  0  0  0  0
  188.7000  173.4970  140.2790 C   0  0  1  0  0  3  0  0  0  0  0  0
  190.1960  173.4210  140.6390 C   0  0  2  0  0  3  0  0  0  0  0  0
  193.6500  172.2510  137.4870 N   0  0  0  0  0  0  0  0  0  0  0  0
  192.3940  170.9190  136.2010 C   0  0  0  0  0  3  0  0  0  0  0  0
  194.3600  171.6940  136.4880 C   0  0  0  0  0  0  0  0  0  0  0  0
  192.4140  171.7590  137.2950 C   0  0  0  0  0  0  0  0  0  0  0  0
  193.6370  170.8830  135.6880 N   0  0  0  0  0  2  0  0  0  0  0  0
  195.8190  171.9280  136.3040 C   0  0  0  0  0  2  0  0  0  0  0  0
  197.2510  172.6660  134.6160 C   0  0  0  0  0  1  0  0  0  0  0  0
  196.0250  172.9850  135.3290 N   0  0  0  0  0  2  0  0  0  0  0  0
  194.5080  168.4760  140.5160 C   0  0  0  0  0  1  0  0  0  0  0  0
  193.2380  168.6700  141.1210 O   0  0  0  0  0  0  0  0  0  0  0  0
  188.1830  174.9330  140.1910 C   0  0  0  0  0  2  0  0  0  0  0  0
  187.6120  175.3700  141.4560 N   0  0  0  0  0  2  0  0  0  0  0  0
  187.7300  176.8190  141.4950 C   0  0  0  0  0  2  0  0  0  0  0  0
  186.5120  177.4180  142.1230 C   0  0  0  0  0  0  0  0  0  0  0  0
  185.4740  177.5620  141.4220 O   0  0  0  0  0  0  0  0  0  0  0  0
  188.7570  177.2190  146.4650 C   0  0  0  0  0  1  0  0  0  0  0  0
  187.4870  177.1370  145.6360 C   0  0  1  0  0  3  0  0  0  0  0  0
  186.3220  177.8350  146.3480 C   0  0  2  0  0  3  0  0  0  0  0  0
  186.5180  177.8350  143.4980 N   0  0  0  0  0  0  0  0  0  0  0  0
  185.3180  178.4170  144.0960 C   0  0  1  0  0  3  0  0  0  0  0  0
  186.0050  177.1440  147.6630 C   0  0  0  0  0  1  0  0  0  0  0  0
  187.7490  177.7920  144.2830 C   0  0  0  0  0  2  0  0  0  0  0  0
  185.0670  177.8070  145.4730 C   0  0  0  0  0  2  0  0  0  0  0  0
  185.4450  179.9300  144.1850 C   0  0  0  0  0  1  0  0  0  0  0  0
  193.5820  172.3310  145.1260 O   0  0  0  0  0  0  0  0  0  0  0  0
  193.6330  173.5480  145.7730 N   0  0  0  0  0  0  0  0  0  0  0  0
  194.6130  174.3800  145.5940 C   0  0  0  0  0  0  0  0  0  0  0  0
  196.9700  174.1560  145.3670 O   0  0  0  0  0  1  0  0  0  0  0  0
  195.7600  174.0800  144.6730 C   0  0  2  0  0  3  0  0  0  0  0  0
  195.7650  175.0400  143.4910 C   0  0  0  0  0  2  0  0  0  0  0  0
  195.0160  174.4770  142.3250 C   0  0  0  0  0  0  0  0  0  0  0  0
  195.5180  173.2590  141.6400 C   0  0  0  0  0  1  0  0  0  0  0  0
  194.0110  175.0310  141.9130 O   0  0  0  0  0  0  0  0  0  0  0  0
  194.5900  175.6890  146.3050 C   0  0  0  0  0  2  0  0  0  0  0  0
  192.9580  176.7520  144.7030 N   0  0  0  0  0  2  0  0  0  0  0  0
  193.3080  176.3990  146.0420 C   0  0  0  0  0  0  0  0  0  0  0  0
  191.7610  177.5170  144.3980 C   0  0  0  0  0  1  0  0  0  0  0  0
  192.5580  176.7060  147.0060 O   0  0  0  0  0  0  0  0  0  0  0  0
  1  2  2  0  0  0  0
  2 42  1  0  0  0  0
  3 12  2  0  0  0  0
  4 11  2  0  0  0  0
  5 16  1  0  0  0  0
  6 14  1  0  0  0  0
  6 13  1  0  0  0  0
  8  7  1  6  0  0  0
  8  3  1  0  0  0  0
  8 15  1  0  0  0  0
  9  4  1  0  0  0  0
  9  7  2  0  0  0  0
 10 15  1  0  0  0  0
 11 27  1  0  0  0  0
 11  3  1  0  0  0  0
 12  2  1  0  0  0  0
 13 21  1  6  0  0  0
 13  9  1  0  0  0  0
 14  5  1  0  0  0  0
 15  1  1  0  0  0  0
 16 28  1  6  0  0  0
 16 17  1  0  0  0  0
 17  7  1  1  0  0  0
 17 10  1  0  0  0  0
 19 21  2  0  0  0  0
 20 18  2  0  0  0  0
 21 18  1  0  0  0  0
 22 19  1  0  0  0  0
 22 20  1  0  0  0  0
 23 20  1  0  0  0  0
 24 25  1  0  0  0  0
 25 23  1  0  0  0  0
 26 27  1  0  0  0  0
 28 29  1  0  0  0  0
 29 30  1  0  0  0  0
 30 31  1  0  0  0  0
 31 36  1  0  0  0  0
 32 31  2  0  0  0  0
 34 35  1  0  0  0  0
 34 33  1  1  0  0  0
 35 38  1  1  0  0  0
 36 37  1  0  0  0  0
 36 39  1  0  0  0  0
 37 41  1  1  0  0  0
 37 40  1  0  0  0  0
 39 34  1  0  0  0  0
 40 35  1  0  0  0  0
 42 43  1  0  0  0  0
 44 43  2  0  0  0  0
 44 51  1  0  0  0  0
 46 45  1  1  0  0  0
 46 44  1  0  0  0  0
 47 46  1  0  0  0  0
 48 47  1  0  0  0  0
 49 48  1  0  0  0  0
 50 48  2  0  0  0  0
 52 53  1  0  0  0  0
 53 51  1  0  0  0  0
 53 55  2  0  0  0  0
 54 52  1  0  0  0  0
M  END
>  <MODEL>
1

>  <REMARK>
 VINA RESULT:      -6.8      0.000      0.000
  Name = 
  15 active torsions:
  status: ('A' for Active; 'I' for Inactive)
    1  A    between atoms: C_1  and  C_32
    2  A    between atoms: C_4  and  C_43
    3  A    between atoms: N_7  and  O_31
    4  A    between atoms: C_9  and  O_31
    5  A    between atoms: C_17  and  C_22
    6  A    between atoms: C_17  and  C_33
    7  A    between atoms: C_20  and  C_52
    8  A    between atoms: C_20  and  N_53
    9  A    between atoms: C_23  and  C_33
   10  A    between atoms: C_23  and  C_43
   11  A    between atoms: C_26  and  C_27
   12  A    between atoms: C_27  and  N_45
   13  A    between atoms: C_29  and  C_46
   14  A    between atoms: C_32  and  N_53
   15  A    between atoms: C_38  and  O_54
                            x       y       z     vdW  Elec       q    Type
                         _______ _______ _______ _____ _____    ______ ____

>  <TORSDO>
F 15

$$$$
=
 OpenBabel11042417533D

 55 60  0  0  1  0  0  0  0  0999 V2000
  187.9440  176.1220  140.9460 C   0  0  0  0  0  3  0  0  0  0  0  0
  187.7860  176.8780  142.0370 C   0  0  0  0  0  0  0  0  0  0  0  0
  188.7270  175.1380  143.4880 C   0  0  0  0  0  0  0  0  0  0  0  0
  190.4800  173.8160  144.5070 C   0  0  0  0  0  3  0  0  0  0  0  0
  190.4560  170.8110  141.0370 C   0  0  0  0  0  2  0  0  0  0  0  0
  192.2390  171.2900  142.7240 C   0  0  0  0  0  2  0  0  0  0  0  0
  189.9210  173.4840  142.1550 C   0  0  0  0  0  0  0  0  0  0  0  0
  188.6420  174.1590  142.3440 C   0  0  2  0  0  3  0  0  0  0  0  0
  190.8240  173.3210  143.1410 C   0  0  0  0  0  0  0  0  0  0  0  0
  189.2450  174.2650  140.0520 O   0  0  0  0  0  0  0  0  0  0  0  0
  189.4740  174.6880  144.6910 C   0  0  0  0  0  0  0  0  0  0  0  0
  188.2840  176.3920  143.3450 C   0  0  0  0  0  3  0  0  0  0  0  0
  192.2060  172.8080  142.8230 C   0  0  1  0  0  3  0  0  0  0  0  0
  191.9550  170.8470  141.2980 C   0  0  0  0  0  2  0  0  0  0  0  0
  188.4980  174.8050  141.0580 N   0  0  0  0  0  0  0  0  0  0  0  0
  189.9540  171.9690  140.1580 C   0  0  1  0  0  3  0  0  0  0  0  0
  190.1780  173.3970  140.6880 C   0  0  2  0  0  3  0  0  0  0  0  0
  193.8280  174.5710  143.6210 N   0  0  0  0  0  0  0  0  0  0  0  0
  193.8240  172.6680  144.7980 C   0  0  0  0  0  3  0  0  0  0  0  0
  194.7150  174.6000  144.6330 C   0  0  0  0  0  0  0  0  0  0  0  0
  193.2750  173.3500  143.7320 C   0  0  0  0  0  0  0  0  0  0  0  0
  194.7430  173.4690  145.3690 N   0  0  0  0  0  2  0  0  0  0  0  0
  195.5630  175.7860  144.9340 C   0  0  0  0  0  2  0  0  0  0  0  0
  194.2390  176.8420  146.5390 C   0  0  0  0  0  1  0  0  0  0  0  0
  194.7170  176.9440  145.1700 N   0  0  0  0  0  2  0  0  0  0  0  0
  189.9950  176.1220  146.6480 C   0  0  0  0  0  1  0  0  0  0  0  0
  189.2060  175.1450  145.9860 O   0  0  0  0  0  0  0  0  0  0  0  0
  190.3490  171.8110  138.6900 C   0  0  0  0  0  2  0  0  0  0  0  0
  191.3080  172.8290  138.2870 N   0  0  0  0  0  2  0  0  0  0  0  0
  192.5350  172.1350  137.9260 C   0  0  0  0  0  2  0  0  0  0  0  0
  193.6170  173.1240  137.6310 C   0  0  0  0  0  0  0  0  0  0  0  0
  193.4660  173.9230  136.6680 O   0  0  0  0  0  0  0  0  0  0  0  0
  195.8690  171.7600  141.7540 C   0  0  0  0  0  1  0  0  0  0  0  0
  195.5130  172.8370  140.7450 C   0  0  1  0  0  3  0  0  0  0  0  0
  196.7130  173.7530  140.4730 C   0  0  2  0  0  3  0  0  0  0  0  0
  194.8180  173.1630  138.4190 N   0  0  0  0  0  0  0  0  0  0  0  0
  195.8650  174.1370  138.1170 C   0  0  1  0  0  3  0  0  0  0  0  0
  197.1240  174.4880  141.7370 C   0  0  0  0  0  1  0  0  0  0  0  0
  195.0620  172.1610  139.4540 C   0  0  0  0  0  2  0  0  0  0  0  0
  196.3630  174.7900  139.4050 C   0  0  0  0  0  2  0  0  0  0  0  0
  197.0090  173.4760  137.3640 C   0  0  0  0  0  1  0  0  0  0  0  0
  187.2150  178.1430  141.9100 O   0  0  0  0  0  0  0  0  0  0  0  0
  186.5060  178.7170  142.9440 N   0  0  0  0  0  0  0  0  0  0  0  0
  185.2080  178.7460  142.9550 C   0  0  0  0  0  0  0  0  0  0  0  0
  184.7480  178.7250  140.6210 O   0  0  0  0  0  1  0  0  0  0  0  0
  184.3860  178.1570  141.8450 C   0  0  2  0  0  3  0  0  0  0  0  0
  182.9010  178.3660  142.1090 C   0  0  0  0  0  2  0  0  0  0  0  0
  182.1040  178.2840  140.8460 C   0  0  0  0  0  0  0  0  0  0  0  0
  180.9080  179.1480  140.6660 C   0  0  0  0  0  1  0  0  0  0  0  0
  182.4110  177.4890  139.9740 O   0  0  0  0  0  0  0  0  0  0  0  0
  184.5070  179.3600  144.1170 C   0  0  0  0  0  2  0  0  0  0  0  0
  185.1040  177.3790  145.5580 N   0  0  0  0  0  2  0  0  0  0  0  0
  185.0270  178.7950  145.3930 C   0  0  0  0  0  0  0  0  0  0  0  0
  185.5260  176.7730  146.8100 C   0  0  0  0  0  1  0  0  0  0  0  0
  185.3660  179.5710  146.3230 O   0  0  0  0  0  0  0  0  0  0  0  0
  1 15  1  0  0  0  0
  1  2  2  0  0  0  0
  2 12  1  0  0  0  0
  3 11  1  0  0  0  0
  4 11  2  0  0  0  0
  5 14  1  0  0  0  0
  6 13  1  0  0  0  0
  7  9  2  0  0  0  0
  8  7  1  6  0  0  0
  8  3  1  0  0  0  0
  9  4  1  0  0  0  0
 10 15  1  0  0  0  0
 11 27  1  0  0  0  0
 12  3  2  0  0  0  0
 13  9  1  0  0  0  0
 13 21  1  1  0  0  0
 14  6  1  0  0  0  0
 15  8  1  0  0  0  0
 16 28  1  6  0  0  0
 16 17  1  0  0  0  0
 16  5  1  0  0  0  0
 17 10  1  6  0  0  0
 17  7  1  0  0  0  0
 18 21  1  0  0  0  0
 18 20  2  0  0  0  0
 19 22  1  0  0  0  0
 20 23  1  0  0  0  0
 20 22  1  0  0  0  0
 21 19  2  0  0  0  0
 23 25  1  0  0  0  0
 25 24  1  0  0  0  0
 27 26  1  0  0  0  0
 29 28  1  0  0  0  0
 30 29  1  0  0  0  0
 31 30  1  0  0  0  0
 31 36  1  0  0  0  0
 32 31  2  0  0  0  0
 34 33  1  1  0  0  0
 35 34  1  0  0  0  0
 35 38  1  1  0  0  0
 36 39  1  0  0  0  0
 37 41  1  1  0  0  0
 37 36  1  0  0  0  0
 37 40  1  0  0  0  0
 39 34  1  0  0  0  0
 40 35  1  0  0  0  0
 42  2  1  0  0  0  0
 42 43  1  0  0  0  0
 43 44  2  0  0  0  0
 44 51  1  0  0  0  0
 46 45  1  6  0  0  0
 46 47  1  0  0  0  0
 46 44  1  0  0  0  0
 48 47  1  0  0  0  0
 49 48  1  0  0  0  0
 50 48  2  0  0  0  0
 51 53  1  0  0  0  0
 52 54  1  0  0  0  0
 53 52  1  0  0  0  0
 53 55  2  0  0  0  0
M  END
>  <MODEL>
2

>  <REMARK>
 VINA RESULT:      -6.7      2.490      9.225
  Name = 
  15 active torsions:
  status: ('A' for Active; 'I' for Inactive)
    1  A    between atoms: C_1  and  C_32
    2  A    between atoms: C_4  and  C_43
    3  A    between atoms: N_7  and  O_31
    4  A    between atoms: C_9  and  O_31
    5  A    between atoms: C_17  and  C_22
    6  A    between atoms: C_17  and  C_33
    7  A    between atoms: C_20  and  C_52
    8  A    between atoms: C_20  and  N_53
    9  A    between atoms: C_23  and  C_33
   10  A    between atoms: C_23  and  C_43
   11  A    between atoms: C_26  and  C_27
   12  A    between atoms: C_27  and  N_45
   13  A    between atoms: C_29  and  C_46
   14  A    between atoms: C_32  and  N_53
   15  A    between atoms: C_38  and  O_54
                            x       y       z     vdW  Elec       q    Type
                         _______ _______ _______ _____ _____    ______ ____

>  <TORSDO>
F 15

$$$$
=
 OpenBabel11042417533D

 55 60  0  0  1  0  0  0  0  0999 V2000
  191.7120  173.3920  144.2310 C   0  0  0  0  0  3  0  0  0  0  0  0
  192.6210  172.4910  144.6140 C   0  0  0  0  0  0  0  0  0  0  0  0
  191.9160  170.9090  142.8760 C   0  0  0  0  0  0  0  0  0  0  0  0
  191.7720  170.0000  140.6380 C   0  0  0  0  0  3  0  0  0  0  0  0
  188.1450  172.6230  139.6270 C   0  0  0  0  0  2  0  0  0  0  0  0
  189.7700  171.4880  138.1030 C   0  0  0  0  0  2  0  0  0  0  0  0
  190.5740  172.0510  141.1930 C   0  0  0  0  0  0  0  0  0  0  0  0
  190.6980  171.7610  142.6170 C   0  0  2  0  0  3  0  0  0  0  0  0
  191.0840  171.2590  140.2300 C   0  0  0  0  0  0  0  0  0  0  0  0
  190.3650  174.0920  142.3240 O   0  0  0  0  0  0  0  0  0  0  0  0
  192.1770  169.8150  141.9060 C   0  0  0  0  0  0  0  0  0  0  0  0
  192.7820  171.2380  143.8400 C   0  0  0  0  0  3  0  0  0  0  0  0
  191.1030  171.7290  138.7970 C   0  0  1  0  0  3  0  0  0  0  0  0
  188.8560  172.6890  138.2820 C   0  0  0  0  0  2  0  0  0  0  0  0
  190.8250  173.1020  143.1430 N   0  0  0  0  0  0  0  0  0  0  0  0
  188.6890  173.6180  140.6640 C   0  0  1  0  0  3  0  0  0  0  0  0
  190.1740  173.4810  141.0520 C   0  0  2  0  0  3  0  0  0  0  0  0
  193.5360  171.6400  138.1270 N   0  0  0  0  0  0  0  0  0  0  0  0
  192.1930  170.2070  137.0550 C   0  0  0  0  0  3  0  0  0  0  0  0
  194.2060  170.8890  137.2320 C   0  0  0  0  0  0  0  0  0  0  0  0
  192.2690  171.2040  138.0050 C   0  0  1  0  0  3  0  0  0  0  0  0
  193.4300  170.0110  136.5640 N   0  0  0  0  0  0  0  0  0  0  0  0
  195.6760  170.9970  137.0250 C   0  0  0  0  0  2  0  0  0  0  0  0
  196.8200  170.2430  135.1360 C   0  0  0  0  0  1  0  0  0  0  0  0
  196.1640  169.8030  136.3570 N   0  0  0  0  0  2  0  0  0  0  0  0
  194.2490  168.4670  142.1260 C   0  0  0  0  0  1  0  0  0  0  0  0
  192.8430  168.6290  142.2360 O   0  0  0  0  0  0  0  0  0  0  0  0
  188.2840  175.0620  140.3690 C   0  0  0  0  0  2  0  0  0  0  0  0
  187.5130  175.6320  141.4640 N   0  0  0  0  0  2  0  0  0  0  0  0
  187.3360  177.0450  141.1670 C   0  0  0  0  0  2  0  0  0  0  0  0
  186.1780  177.5910  141.9400 C   0  0  0  0  0  0  0  0  0  0  0  0
  185.0790  177.7650  141.3470 O   0  0  0  0  0  0  0  0  0  0  0  0
  188.8180  177.1620  146.0350 C   0  0  0  0  0  1  0  0  0  0  0  0
  187.4770  177.1150  145.3240 C   0  0  1  0  0  3  0  0  0  0  0  0
  186.3790  177.7560  146.1810 C   0  0  2  0  0  3  0  0  0  0  0  0
  186.3090  177.9260  143.3300 N   0  0  0  0  0  0  0  0  0  0  0  0
  185.1670  178.4590  144.0700 C   0  0  1  0  0  3  0  0  0  0  0  0
  186.1890  176.9860  147.4760 C   0  0  0  0  0  1  0  0  0  0  0  0
  187.6080  177.8510  143.9950 C   0  0  0  0  0  2  0  0  0  0  0  0
  185.0490  177.7650  145.4260 C   0  0  0  0  0  2  0  0  0  0  0  0
  185.2930  179.9650  144.2380 C   0  0  0  0  0  1  0  0  0  0  0  0
  193.4520  172.7800  145.6950 O   0  0  0  0  0  0  0  0  0  0  0  0
  194.8000  172.4900  145.6610 N   0  0  0  0  0  0  0  0  0  0  0  0
  195.6860  173.3780  145.3270 C   0  0  0  0  0  0  0  0  0  0  0  0
  196.3800  175.4150  144.3140 O   0  0  0  0  0  1  0  0  0  0  0  0
  195.3100  174.7830  144.9540 C   0  0  2  0  0  3  0  0  0  0  0  0
  194.8870  175.5710  146.1860 C   0  0  0  0  0  2  0  0  0  0  0  0
  193.5610  176.2320  145.9850 C   0  0  0  0  0  0  0  0  0  0  0  0
  192.4500  175.9730  146.9360 C   0  0  0  0  0  1  0  0  0  0  0  0
  193.3760  176.9590  145.0240 O   0  0  0  0  0  0  0  0  0  0  0  0
  197.1270  173.0020  145.3390 C   0  0  0  0  0  2  0  0  0  0  0  0
  197.6340  170.5380  145.1600 N   0  0  0  0  0  2  0  0  0  0  0  0
  197.3510  171.7810  144.5160 C   0  0  0  0  0  0  0  0  0  0  0  0
  197.9410  169.3340  144.4060 C   0  0  0  0  0  1  0  0  0  0  0  0
  197.3170  171.8620  143.2610 O   0  0  0  0  0  0  0  0  0  0  0  0
  1  2  2  0  0  0  0
  2 42  1  0  0  0  0
  3 12  2  0  0  0  0
  4 11  2  0  0  0  0
  5 16  1  0  0  0  0
  6 14  1  0  0  0  0
  8  7  1  6  0  0  0
  8  3  1  0  0  0  0
  8 15  1  0  0  0  0
  9  4  1  0  0  0  0
  9  7  2  0  0  0  0
 10 15  1  0  0  0  0
 11 27  1  0  0  0  0
 11  3  1  0  0  0  0
 12  2  1  0  0  0  0
 13  6  1  6  0  0  0
 13  9  1  0  0  0  0
 14  5  1  0  0  0  0
 15  1  1  0  0  0  0
 16 28  1  6  0  0  0
 16 17  1  0  0  0  0
 17  7  1  1  0  0  0
 17 10  1  0  0  0  0
 20 18  2  0  0  0  0
 21 19  1  1  0  0  0
 21 18  1  0  0  0  0
 21 13  1  0  0  0  0
 22 19  2  0  0  0  0
 22 20  1  0  0  0  0
 23 20  1  0  0  0  0
 24 25  1  0  0  0  0
 25 23  1  0  0  0  0
 26 27  1  0  0  0  0
 28 29  1  0  0  0  0
 30 29  1  0  0  0  0
 30 31  1  0  0  0  0
 31 36  1  0  0  0  0
 32 31  2  0  0  0  0
 34 33  1  1  0  0  0
 34 35  1  0  0  0  0
 35 38  1  1  0  0  0
 36 39  1  0  0  0  0
 36 37  1  0  0  0  0
 37 41  1  1  0  0  0
 37 40  1  0  0  0  0
 39 34  1  0  0  0  0
 40 35  1  0  0  0  0
 43 42  1  0  0  0  0
 44 51  1  0  0  0  0
 44 43  2  0  0  0  0
 46 45  1  1  0  0  0
 46 44  1  0  0  0  0
 46 47  1  0  0  0  0
 48 47  1  0  0  0  0
 48 49  1  0  0  0  0
 50 48  2  0  0  0  0
 53 52  1  0  0  0  0
 53 51  1  0  0  0  0
 54 52  1  0  0  0  0
 55 53  2  0  0  0  0
M  END
>  <MODEL>
3

>  <REMARK>
 VINA RESULT:      -6.7      1.489      2.742
  Name = 
  15 active torsions:
  status: ('A' for Active; 'I' for Inactive)
    1  A    between atoms: C_1  and  C_32
    2  A    between atoms: C_4  and  C_43
    3  A    between atoms: N_7  and  O_31
    4  A    between atoms: C_9  and  O_31
    5  A    between atoms: C_17  and  C_22
    6  A    between atoms: C_17  and  C_33
    7  A    between atoms: C_20  and  C_52
    8  A    between atoms: C_20  and  N_53
    9  A    between atoms: C_23  and  C_33
   10  A    between atoms: C_23  and  C_43
   11  A    between atoms: C_26  and  C_27
   12  A    between atoms: C_27  and  N_45
   13  A    between atoms: C_29  and  C_46
   14  A    between atoms: C_32  and  N_53
   15  A    between atoms: C_38  and  O_54
                            x       y       z     vdW  Elec       q    Type
                         _______ _______ _______ _____ _____    ______ ____

>  <TORSDO>
F 15

$$$$
=
 OpenBabel11042417533D

 55 60  0  0  1  0  0  0  0  0999 V2000
  190.9430  173.7030  143.7500 C   0  0  0  0  0  3  0  0  0  0  0  0
  191.9310  172.9000  144.1580 C   0  0  0  0  0  0  0  0  0  0  0  0
  191.7630  171.5190  142.1380 C   0  0  0  0  0  0  0  0  0  0  0  0
  192.0990  170.9570  139.8080 C   0  0  0  0  0  3  0  0  0  0  0  0
  188.2570  173.1320  138.5570 C   0  0  0  0  0  2  0  0  0  0  0  0
  190.2550  172.5040  137.1900 C   0  0  0  0  0  2  0  0  0  0  0  0
  190.4990  172.6940  140.4170 C   0  0  0  0  0  0  0  0  0  0  0  0
  190.4660  172.2090  141.7920 C   0  0  2  0  0  3  0  0  0  0  0  0
  191.2700  172.1470  139.4580 C   0  0  0  0  0  0  0  0  0  0  0  0
  189.7830  174.4800  141.7530 O   0  0  0  0  0  0  0  0  0  0  0  0
  192.3450  170.6400  141.0900 C   0  0  0  0  0  0  0  0  0  0  0  0
  192.4130  171.8200  143.2670 C   0  0  0  0  0  3  0  0  0  0  0  0
  191.4130  172.8310  138.1220 C   0  0  1  0  0  3  0  0  0  0  0  0
  189.1310  173.5120  137.3690 C   0  0  0  0  0  2  0  0  0  0  0  0
  190.2850  173.4560  142.5020 N   0  0  0  0  0  0  0  0  0  0  0  0
  188.4680  174.0250  139.7910 C   0  0  1  0  0  3  0  0  0  0  0  0
  189.8830  174.0530  140.3990 C   0  0  2  0  0  3  0  0  0  0  0  0
  193.8890  173.2350  137.8400 N   0  0  0  0  0  0  0  0  0  0  0  0
  192.9910  171.7550  136.4220 C   0  0  0  0  0  3  0  0  0  0  0  0
  194.8020  172.7310  136.9880 C   0  0  0  0  0  0  0  0  0  0  0  0
  192.7530  172.6160  137.4730 C   0  0  0  0  0  0  0  0  0  0  0  0
  194.3000  171.8330  136.1150 N   0  0  0  0  0  2  0  0  0  0  0  0
  196.2420  173.1070  137.0290 C   0  0  0  0  0  2  0  0  0  0  0  0
  197.8780  171.4640  136.7680 C   0  0  0  0  0  1  0  0  0  0  0  0
  196.9930  172.0850  137.7390 N   0  0  0  0  0  2  0  0  0  0  0  0
  192.6780  168.3710  142.0360 C   0  0  0  0  0  1  0  0  0  0  0  0
  193.1510  169.5310  141.3690 O   0  0  0  0  0  0  0  0  0  0  0  0
  187.8670  175.4200  139.6210 C   0  0  0  0  0  2  0  0  0  0  0  0
  187.2510  175.8850  140.8560 N   0  0  0  0  0  2  0  0  0  0  0  0
  187.0110  177.3110  140.6970 C   0  0  0  0  0  2  0  0  0  0  0  0
  185.9410  177.7600  141.6410 C   0  0  0  0  0  0  0  0  0  0  0  0
  184.7690  177.9120  141.2040 O   0  0  0  0  0  0  0  0  0  0  0  0
  189.1050  177.2450  145.3370 C   0  0  0  0  0  1  0  0  0  0  0  0
  187.6860  177.1710  144.8000 C   0  0  1  0  0  3  0  0  0  0  0  0
  186.6830  177.7140  145.8250 C   0  0  2  0  0  3  0  0  0  0  0  0
  186.2380  178.0290  143.0210 N   0  0  0  0  0  0  0  0  0  0  0  0
  185.1800  178.4670  143.9290 C   0  0  1  0  0  3  0  0  0  0  0  0
  186.6940  176.8690  147.0870 C   0  0  0  0  0  1  0  0  0  0  0  0
  187.6140  177.9810  143.5090 C   0  0  0  0  0  2  0  0  0  0  0  0
  185.2670  177.6990  145.2470 C   0  0  0  0  0  2  0  0  0  0  0  0
  185.2650  179.9660  144.1660 C   0  0  0  0  0  1  0  0  0  0  0  0
  192.5360  173.1390  145.3910 O   0  0  0  0  0  0  0  0  0  0  0  0
  193.7800  173.7290  145.4760 N   0  0  0  0  0  0  0  0  0  0  0  0
  193.9260  175.0090  145.6320 C   0  0  0  0  0  0  0  0  0  0  0  0
  192.6730  176.7400  144.5880 O   0  0  0  0  0  1  0  0  0  0  0  0
  192.7520  175.9410  145.7310 C   0  0  2  0  0  3  0  0  0  0  0  0
  192.8590  176.8070  146.9790 C   0  0  0  0  0  2  0  0  0  0  0  0
  191.7390  176.5360  147.9310 C   0  0  0  0  0  0  0  0  0  0  0  0
  190.8980  175.3230  147.7610 C   0  0  0  0  0  1  0  0  0  0  0  0
  191.4900  177.3220  148.8290 O   0  0  0  0  0  0  0  0  0  0  0  0
  195.2990  175.5730  145.7430 C   0  0  0  0  0  2  0  0  0  0  0  0
  195.6800  175.9240  143.2750 N   0  0  0  0  0  2  0  0  0  0  0  0
  196.0730  175.3030  144.5000 C   0  0  0  0  0  0  0  0  0  0  0  0
  196.3470  175.6340  142.0180 C   0  0  0  0  0  1  0  0  0  0  0  0
  197.0480  174.5090  144.5350 O   0  0  0  0  0  0  0  0  0  0  0  0
  1  2  2  0  0  0  0
  2 42  1  0  0  0  0
  3 12  2  0  0  0  0
  4 11  2  0  0  0  0
  5 16  1  0  0  0  0
  6 14  1  0  0  0  0
  6 13  1  0  0  0  0
  8  7  1  6  0  0  0
  8  3  1  0  0  0  0
  8 15  1  0  0  0  0
  9  4  1  0  0  0  0
  9  7  2  0  0  0  0
 10 15  1  0  0  0  0
 11 27  1  0  0  0  0
 11  3  1  0  0  0  0
 12  2  1  0  0  0  0
 13 21  1  6  0  0  0
 13  9  1  0  0  0  0
 14  5  1  0  0  0  0
 15  1  1  0  0  0  0
 16 28  1  6  0  0  0
 16 17  1  0  0  0  0
 17  7  1  1  0  0  0
 17 10  1  0  0  0  0
 19 21  2  0  0  0  0
 20 23  1  0  0  0  0
 20 18  2  0  0  0  0
 21 18  1  0  0  0  0
 22 19  1  0  0  0  0
 22 20  1  0  0  0  0
 23 25  1  0  0  0  0
 24 25  1  0  0  0  0
 27 26  1  0  0  0  0
 28 29  1  0  0  0  0
 30 29  1  0  0  0  0
 30 31  1  0  0  0  0
 31 36  1  0  0  0  0
 32 31  2  0  0  0  0
 34 33  1  1  0  0  0
 34 35  1  0  0  0  0
 35 38  1  1  0  0  0
 36 39  1  0  0  0  0
 36 37  1  0  0  0  0
 37 41  1  1  0  0  0
 37 40  1  0  0  0  0
 39 34  1  0  0  0  0
 40 35  1  0  0  0  0
 42 43  1  0  0  0  0
 43 44  2  0  0  0  0
 44 46  1  0  0  0  0
 44 51  1  0  0  0  0
 46 45  1  6  0  0  0
 46 47  1  0  0  0  0
 47 48  1  0  0  0  0
 48 50  2  0  0  0  0
 49 48  1  0  0  0  0
 52 53  1  0  0  0  0
 53 55  2  0  0  0  0
 53 51  1  0  0  0  0
 54 52  1  0  0  0  0
M  END
>  <MODEL>
4

>  <REMARK>
 VINA RESULT:      -6.5      1.317      2.588
  Name = 
  15 active torsions:
  status: ('A' for Active; 'I' for Inactive)
    1  A    between atoms: C_1  and  C_32
    2  A    between atoms: C_4  and  C_43
    3  A    between atoms: N_7  and  O_31
    4  A    between atoms: C_9  and  O_31
    5  A    between atoms: C_17  and  C_22
    6  A    between atoms: C_17  and  C_33
    7  A    between atoms: C_20  and  C_52
    8  A    between atoms: C_20  and  N_53
    9  A    between atoms: C_23  and  C_33
   10  A    between atoms: C_23  and  C_43
   11  A    between atoms: C_26  and  C_27
   12  A    between atoms: C_27  and  N_45
   13  A    between atoms: C_29  and  C_46
   14  A    between atoms: C_32  and  N_53
   15  A    between atoms: C_38  and  O_54
                            x       y       z     vdW  Elec       q    Type
                         _______ _______ _______ _____ _____    ______ ____

>  <TORSDO>
F 15

$$$$
=
 OpenBabel11042417533D

 55 60  0  0  1  0  0  0  0  0999 V2000
  184.1390  178.3330  143.5050 C   0  0  0  0  0  3  0  0  0  0  0  0
  183.4820  178.2610  142.3440 C   0  0  0  0  0  0  0  0  0  0  0  0
  185.5590  177.9160  141.0860 C   0  0  0  0  0  0  0  0  0  0  0  0
  187.4510  176.6680  140.2360 C   0  0  0  0  0  3  0  0  0  0  0  0
  189.9480  177.5860  143.9760 C   0  0  0  0  0  2  0  0  0  0  0  0
  190.2090  175.7590  142.2890 C   0  0  0  0  0  2  0  0  0  0  0  0
  187.3630  177.2790  142.5960 C   0  0  0  0  0  0  0  0  0  0  0  0
  186.3480  178.2890  142.3170 C   0  0  2  0  0  3  0  0  0  0  0  0
  187.8910  176.4810  141.6490 C   0  0  0  0  0  0  0  0  0  0  0  0
  186.2100  177.6610  144.6000 O   0  0  0  0  0  0  0  0  0  0  0  0
  186.3330  177.3560  139.9480 C   0  0  0  0  0  0  0  0  0  0  0  0
  184.2230  177.9490  141.1000 C   0  0  0  0  0  3  0  0  0  0  0  0
  188.7720  175.3220  142.0440 C   0  0  1  0  0  3  0  0  0  0  0  0
  190.4020  176.1510  143.7450 C   0  0  0  0  0  2  0  0  0  0  0  0
  185.5670  178.2140  143.5310 N   0  0  0  0  0  0  0  0  0  0  0  0
  188.6120  177.6980  144.7290 C   0  0  1  0  0  3  0  0  0  0  0  0
  187.3810  177.0480  144.0700 C   0  0  2  0  0  3  0  0  0  0  0  0
  189.5420  173.8900  140.1120 N   0  0  0  0  0  0  0  0  0  0  0  0
  187.6980  173.1770  141.1590 C   0  0  0  0  0  3  0  0  0  0  0  0
  189.0570  172.7590  139.5680 C   0  0  0  0  0  0  0  0  0  0  0  0
  188.6780  174.1460  141.1110 C   0  0  0  0  0  0  0  0  0  0  0  0
  187.9430  172.2950  140.1720 N   0  0  0  0  0  2  0  0  0  0  0  0
  189.7110  172.0650  138.4250 C   0  0  0  0  0  2  0  0  0  0  0  0
  191.8160  172.6870  137.6320 C   0  0  0  0  0  1  0  0  0  0  0  0
  190.4050  173.0360  137.5960 N   0  0  0  0  0  2  0  0  0  0  0  0
  186.2980  176.5460  137.6030 C   0  0  0  0  0  1  0  0  0  0  0  0
  185.9450  177.4820  138.6100 O   0  0  0  0  0  0  0  0  0  0  0  0
  188.7400  177.3560  146.2140 C   0  0  0  0  0  2  0  0  0  0  0  0
  190.1200  177.4610  146.6650 N   0  0  0  0  0  2  0  0  0  0  0  0
  190.3820  176.2950  147.4950 C   0  0  0  0  0  2  0  0  0  0  0  0
  190.8970  175.1710  146.6540 C   0  0  0  0  0  0  0  0  0  0  0  0
  190.1340  174.1990  146.4040 O   0  0  0  0  0  0  0  0  0  0  0  0
  194.9250  177.7980  145.7570 C   0  0  0  0  0  1  0  0  0  0  0  0
  193.8820  176.7920  145.3010 C   0  0  1  0  0  3  0  0  0  0  0  0
  194.5290  175.6540  144.5030 C   0  0  2  0  0  3  0  0  0  0  0  0
  192.2400  175.1830  146.1450 N   0  0  0  0  0  0  0  0  0  0  0  0
  192.7260  174.0750  145.3250 C   0  0  1  0  0  3  0  0  0  0  0  0
  195.1740  176.1870  143.2350 C   0  0  0  0  0  1  0  0  0  0  0  0
  193.1730  176.2380  146.5330 C   0  0  0  0  0  2  0  0  0  0  0  0
  193.4800  174.6130  144.1090 C   0  0  0  0  0  2  0  0  0  0  0  0
  193.6080  173.1470  146.1460 C   0  0  0  0  0  1  0  0  0  0  0  0
  182.0960  178.4100  142.3370 O   0  0  0  0  0  0  0  0  0  0  0  0
  181.3830  178.4390  141.1570 N   0  0  0  0  0  0  0  0  0  0  0  0
  180.1130  178.1750  141.1140 C   0  0  0  0  0  0  0  0  0  0  0  0
  178.1590  177.1410  141.9920 O   0  0  0  0  0  1  0  0  0  0  0  0
  179.3270  177.8220  142.3440 C   0  0  2  0  0  3  0  0  0  0  0  0
  178.9930  179.0720  143.1450 C   0  0  0  0  0  2  0  0  0  0  0  0
  178.4580  178.7290  144.4990 C   0  0  0  0  0  0  0  0  0  0  0  0
  177.9080  179.7970  145.3730 C   0  0  0  0  0  1  0  0  0  0  0  0
  178.5010  177.5790  144.9040 O   0  0  0  0  0  0  0  0  0  0  0  0
  179.4010  178.2510  139.8080 C   0  0  0  0  0  2  0  0  0  0  0  0
  179.5620  180.7560  140.0430 N   0  0  0  0  0  2  0  0  0  0  0  0
  178.8290  179.6110  139.6070 C   0  0  0  0  0  0  0  0  0  0  0  0
  179.0170  182.1000  139.9460 C   0  0  0  0  0  1  0  0  0  0  0  0
  177.6930  179.7360  139.0800 O   0  0  0  0  0  0  0  0  0  0  0  0
  1 15  1  0  0  0  0
  2  1  2  0  0  0  0
  3 12  2  0  0  0  0
  4  9  1  0  0  0  0
  5 16  1  0  0  0  0
  6 14  1  0  0  0  0
  8  3  1  6  0  0  0
  8  7  1  0  0  0  0
  8 15  1  0  0  0  0
  9 13  1  0  0  0  0
  9  7  2  0  0  0  0
 11  4  2  0  0  0  0
 11  3  1  0  0  0  0
 12  2  1  0  0  0  0
 13 21  1  6  0  0  0
 13  6  1  0  0  0  0
 14  5  1  0  0  0  0
 15 10  1  0  0  0  0
 16 28  1  1  0  0  0
 17  7  1  6  0  0  0
 17 10  1  0  0  0  0
 17 16  1  0  0  0  0
 18 21  1  0  0  0  0
 20 18  2  0  0  0  0
 20 22  1  0  0  0  0
 21 19  2  0  0  0  0
 22 19  1  0  0  0  0
 23 20  1  0  0  0  0
 25 24  1  0  0  0  0
 25 23  1  0  0  0  0
 26 27  1  0  0  0  0
 27 11  1  0  0  0  0
 28 29  1  0  0  0  0
 29 30  1  0  0  0  0
 31 30  1  0  0  0  0
 32 31  2  0  0  0  0
 34 33  1  1  0  0  0
 34 39  1  0  0  0  0
 35 38  1  6  0  0  0
 35 34  1  0  0  0  0
 36 39  1  0  0  0  0
 36 31  1  0  0  0  0
 37 36  1  0  0  0  0
 37 41  1  1  0  0  0
 40 35  1  0  0  0  0
 40 37  1  0  0  0  0
 42  2  1  0  0  0  0
 43 42  1  0  0  0  0
 44 43  2  0  0  0  0
 44 46  1  0  0  0  0
 46 45  1  6  0  0  0
 46 47  1  0  0  0  0
 47 48  1  0  0  0  0
 48 50  2  0  0  0  0
 48 49  1  0  0  0  0
 51 44  1  0  0  0  0
 53 51  1  0  0  0  0
 53 52  1  0  0  0  0
 54 52  1  0  0  0  0
 55 53  2  0  0  0  0
M  END
>  <MODEL>
5

>  <REMARK>
 VINA RESULT:      -6.5      3.990     10.688
  Name = 
  15 active torsions:
  status: ('A' for Active; 'I' for Inactive)
    1  A    between atoms: C_1  and  C_32
    2  A    between atoms: C_4  and  C_43
    3  A    between atoms: N_7  and  O_31
    4  A    between atoms: C_9  and  O_31
    5  A    between atoms: C_17  and  C_22
    6  A    between atoms: C_17  and  C_33
    7  A    between atoms: C_20  and  C_52
    8  A    between atoms: C_20  and  N_53
    9  A    between atoms: C_23  and  C_33
   10  A    between atoms: C_23  and  C_43
   11  A    between atoms: C_26  and  C_27
   12  A    between atoms: C_27  and  N_45
   13  A    between atoms: C_29  and  C_46
   14  A    between atoms: C_32  and  N_53
   15  A    between atoms: C_38  and  O_54
                            x       y       z     vdW  Elec       q    Type
                         _______ _______ _______ _____ _____    ______ ____

>  <TORSDO>
F 15

$$$$
=
 OpenBabel11042417533D

 55 60  0  0  1  0  0  0  0  0999 V2000
  189.1420  172.4770  142.4680 C   0  0  0  0  0  3  0  0  0  0  0  0
  188.8640  173.7170  142.8810 C   0  0  0  0  0  0  0  0  0  0  0  0
  190.6550  173.6580  144.5550 C   0  0  0  0  0  0  0  0  0  0  0  0
  192.9350  173.7670  145.3620 C   0  0  0  0  0  3  0  0  0  0  0  0
  193.5930  169.2890  144.5990 C   0  0  0  0  0  2  0  0  0  0  0  0
  195.2670  171.1320  144.8420 C   0  0  0  0  0  2  0  0  0  0  0  0
  192.1940  171.8290  144.0790 C   0  0  0  0  0  0  0  0  0  0  0  0
  190.7990  172.1730  144.3270 C   0  0  2  0  0  3  0  0  0  0  0  0
  193.2280  172.5640  144.5290 C   0  0  0  0  0  0  0  0  0  0  0  0
  190.9300  170.8230  142.3810 O   0  0  0  0  0  0  0  0  0  0  0  0
  191.7030  174.3040  145.3870 C   0  0  0  0  0  0  0  0  0  0  0  0
  189.7190  174.3580  143.9060 C   0  0  0  0  0  3  0  0  0  0  0  0
  194.6290  172.2680  144.0550 C   0  0  1  0  0  3  0  0  0  0  0  0
  194.9660  169.7970  144.1800 C   0  0  0  0  0  2  0  0  0  0  0  0
  190.1980  171.7330  143.0880 N   0  0  0  0  0  0  0  0  0  0  0  0
  192.5270  169.4120  143.4990 C   0  0  1  0  0  3  0  0  0  0  0  0
  192.2260  170.8290  142.9730 C   0  0  2  0  0  3  0  0  0  0  0  0
  195.3440  174.4990  143.1130 N   0  0  0  0  0  0  0  0  0  0  0  0
  196.6020  173.7180  144.7910 C   0  0  0  0  0  3  0  0  0  0  0  0
  196.3540  175.3340  143.4200 C   0  0  0  0  0  0  0  0  0  0  0  0
  195.5110  173.4840  143.9800 C   0  0  0  0  0  0  0  0  0  0  0  0
  197.1370  174.8990  144.4290 N   0  0  0  0  0  2  0  0  0  0  0  0
  196.5660  176.6360  142.7300 C   0  0  0  0  0  2  0  0  0  0  0  0
  197.5180  175.6740  140.8290 C   0  0  0  0  0  1  0  0  0  0  0  0
  196.3920  176.4640  141.2980 N   0  0  0  0  0  2  0  0  0  0  0  0
  190.8100  175.4260  147.4120 C   0  0  0  0  0  1  0  0  0  0  0  0
  191.4820  175.4480  146.1620 O   0  0  0  0  0  0  0  0  0  0  0  0
  192.7120  168.3890  142.3780 C   0  0  0  0  0  2  0  0  0  0  0  0
  193.2440  169.0120  141.1750 N   0  0  0  0  0  2  0  0  0  0  0  0
  192.6810  168.2920  140.0420 C   0  0  0  0  0  2  0  0  0  0  0  0
  191.4740  169.0100  139.5280 C   0  0  0  0  0  0  0  0  0  0  0  0
  190.3350  168.6550  139.9350 O   0  0  0  0  0  0  0  0  0  0  0  0
  194.4300  172.2400  137.3460 C   0  0  0  0  0  1  0  0  0  0  0  0
  193.1270  171.9220  138.0580 C   0  0  1  0  0  3  0  0  0  0  0  0
  191.9510  172.6620  137.4090 C   0  0  2  0  0  3  0  0  0  0  0  0
  191.5990  170.0790  138.5760 N   0  0  0  0  0  0  0  0  0  0  0  0
  190.4080  170.7700  138.0840 C   0  0  1  0  0  3  0  0  0  0  0  0
  192.1330  174.1650  137.5260 C   0  0  0  0  0  1  0  0  0  0  0  0
  192.8990  170.4150  138.0010 C   0  0  0  0  0  2  0  0  0  0  0  0
  190.6360  172.2800  138.0900 C   0  0  0  0  0  2  0  0  0  0  0  0
  190.0420  170.2800  136.6920 C   0  0  0  0  0  1  0  0  0  0  0  0
  187.8120  174.4110  142.2860 O   0  0  0  0  0  0  0  0  0  0  0  0
  186.9930  175.2420  143.0220 N   0  0  0  0  0  0  0  0  0  0  0  0
  186.9550  176.5240  142.8210 C   0  0  0  0  0  0  0  0  0  0  0  0
  188.9540  177.7240  142.3520 O   0  0  0  0  0  1  0  0  0  0  0  0
  187.7970  177.1950  141.7740 C   0  0  2  0  0  3  0  0  0  0  0  0
  187.0060  178.2890  141.0700 C   0  0  0  0  0  2  0  0  0  0  0  0
  186.0530  177.7170  140.0690 C   0  0  0  0  0  0  0  0  0  0  0  0
  186.5630  176.8800  138.9520 C   0  0  0  0  0  1  0  0  0  0  0  0
  184.8610  177.9600  140.1460 O   0  0  0  0  0  0  0  0  0  0  0  0
  186.0280  177.3570  143.6360 C   0  0  0  0  0  2  0  0  0  0  0  0
  185.5780  177.0500  146.0980 N   0  0  0  0  0  2  0  0  0  0  0  0
  186.4840  177.4060  145.0530 C   0  0  0  0  0  0  0  0  0  0  0  0
  185.9430  177.1580  147.5000 C   0  0  0  0  0  1  0  0  0  0  0  0
  187.6540  177.7870  145.3170 O   0  0  0  0  0  0  0  0  0  0  0  0
  1  2  2  0  0  0  0
  1 15  1  0  0  0  0
  2 12  1  0  0  0  0
  3 11  1  0  0  0  0
  4 11  2  0  0  0  0
  7  9  2  0  0  0  0
  8  7  1  6  0  0  0
  8  3  1  0  0  0  0
  9  4  1  0  0  0  0
 10 15  1  0  0  0  0
 11 27  1  0  0  0  0
 12  3  2  0  0  0  0
 13 21  1  1  0  0  0
 13  9  1  0  0  0  0
 13  6  1  0  0  0  0
 14  5  1  0  0  0  0
 14  6  1  0  0  0  0
 15  8  1  0  0  0  0
 16 28  1  6  0  0  0
 16  5  1  0  0  0  0
 17 10  1  1  0  0  0
 17 16  1  0  0  0  0
 17  7  1  0  0  0  0
 18 20  2  0  0  0  0
 18 21  1  0  0  0  0
 20 22  1  0  0  0  0
 21 19  2  0  0  0  0
 22 19  1  0  0  0  0
 23 20  1  0  0  0  0
 24 25  1  0  0  0  0
 25 23  1  0  0  0  0
 27 26  1  0  0  0  0
 29 28  1  0  0  0  0
 30 29  1  0  0  0  0
 31 32  2  0  0  0  0
 31 30  1  0  0  0  0
 34 33  1  6  0  0  0
 35 38  1  1  0  0  0
 35 34  1  0  0  0  0
 35 40  1  0  0  0  0
 36 31  1  0  0  0  0
 37 41  1  6  0  0  0
 37 40  1  0  0  0  0
 37 36  1  0  0  0  0
 39 34  1  0  0  0  0
 39 36  1  0  0  0  0
 42  2  1  0  0  0  0
 42 43  1  0  0  0  0
 44 43  2  0  0  0  0
 44 51  1  0  0  0  0
 46 45  1  1  0  0  0
 46 44  1  0  0  0  0
 47 46  1  0  0  0  0
 48 50  2  0  0  0  0
 48 47  1  0  0  0  0
 49 48  1  0  0  0  0
 51 53  1  0  0  0  0
 52 54  1  0  0  0  0
 53 55  2  0  0  0  0
 53 52  1  0  0  0  0
M  END
>  <MODEL>
6

>  <REMARK>
 VINA RESULT:      -6.5      2.483      8.403
  Name = 
  15 active torsions:
  status: ('A' for Active; 'I' for Inactive)
    1  A    between atoms: C_1  and  C_32
    2  A    between atoms: C_4  and  C_43
    3  A    between atoms: N_7  and  O_31
    4  A    between atoms: C_9  and  O_31
    5  A    between atoms: C_17  and  C_22
    6  A    between atoms: C_17  and  C_33
    7  A    between atoms: C_20  and  C_52
    8  A    between atoms: C_20  and  N_53
    9  A    between atoms: C_23  and  C_33
   10  A    between atoms: C_23  and  C_43
   11  A    between atoms: C_26  and  C_27
   12  A    between atoms: C_27  and  N_45
   13  A    between atoms: C_29  and  C_46
   14  A    between atoms: C_32  and  N_53
   15  A    between atoms: C_38  and  O_54
                            x       y       z     vdW  Elec       q    Type
                         _______ _______ _______ _____ _____    ______ ____

>  <TORSDO>
F 15

$$$$
=
 OpenBabel11042417533D

 55 60  0  0  1  0  0  0  0  0999 V2000
  192.3930  172.4670  143.4370 C   0  0  0  0  0  3  0  0  0  0  0  0
  193.6130  171.9740  143.2040 C   0  0  0  0  0  0  0  0  0  0  0  0
  193.0250  171.3660  140.9020 C   0  0  0  0  0  0  0  0  0  0  0  0
  192.5960  171.7530  138.5510 C   0  0  0  0  0  3  0  0  0  0  0  0
  188.1830  172.7280  139.3480 C   0  0  0  0  0  2  0  0  0  0  0  0
  189.6230  173.3230  137.3920 C   0  0  0  0  0  2  0  0  0  0  0  0
  190.9890  172.5180  140.2190 C   0  0  0  0  0  0  0  0  0  0  0  0
  191.5730  171.6310  141.2180 C   0  0  2  0  0  3  0  0  0  0  0  0
  191.4540  172.6220  138.9600 C   0  0  0  0  0  0  0  0  0  0  0  0
  190.4370  173.3980  142.3200 O   0  0  0  0  0  0  0  0  0  0  0  0
  193.3600  171.1400  139.4720 C   0  0  0  0  0  0  0  0  0  0  0  0
  193.9600  171.4870  141.8490 C   0  0  0  0  0  3  0  0  0  0  0  0
  190.9390  173.7100  138.0510 C   0  0  1  0  0  3  0  0  0  0  0  0
  188.4500  173.7560  138.2570 C   0  0  0  0  0  2  0  0  0  0  0  0
  191.3940  172.4290  142.4110 N   0  0  0  0  0  0  0  0  0  0  0  0
  188.6290  173.1810  140.7470 C   0  0  1  0  0  3  0  0  0  0  0  0
  190.1240  173.5020  140.9340 C   0  0  2  0  0  3  0  0  0  0  0  0
  193.0660  174.8930  137.3810 N   0  0  0  0  0  0  0  0  0  0  0  0
  191.8900  174.0070  135.6970 C   0  0  0  0  0  3  0  0  0  0  0  0
  193.6510  175.1070  136.1870 C   0  0  0  0  0  0  0  0  0  0  0  0
  191.9580  174.2020  137.0600 C   0  0  0  0  0  0  0  0  0  0  0  0
  192.9720  174.5870  135.1440 N   0  0  0  0  0  2  0  0  0  0  0  0
  194.9470  175.8230  136.0380 C   0  0  0  0  0  2  0  0  0  0  0  0
  195.9870  177.5110  134.8060 C   0  0  0  0  0  1  0  0  0  0  0  0
  195.0220  176.4280  134.7190 N   0  0  0  0  0  2  0  0  0  0  0  0
  195.4230  170.8190  138.1320 C   0  0  0  0  0  1  0  0  0  0  0  0
  194.4370  170.3570  139.0420 O   0  0  0  0  0  0  0  0  0  0  0  0
  187.7140  174.2510  141.3430 C   0  0  0  0  0  2  0  0  0  0  0  0
  188.3720  175.5490  141.3860 N   0  0  0  0  0  2  0  0  0  0  0  0
  187.6780  176.3410  142.3890 C   0  0  0  0  0  2  0  0  0  0  0  0
  188.4880  176.4020  143.6460 C   0  0  0  0  0  0  0  0  0  0  0  0
  189.7350  176.2350  143.5740 O   0  0  0  0  0  0  0  0  0  0  0  0
  184.4920  177.8840  146.0480 C   0  0  0  0  0  1  0  0  0  0  0  0
  185.9980  177.9170  145.8540 C   0  0  1  0  0  3  0  0  0  0  0  0
  186.7250  177.9140  147.2040 C   0  0  2  0  0  3  0  0  0  0  0  0
  187.8620  176.6330  144.9180 N   0  0  0  0  0  0  0  0  0  0  0  0
  188.6690  176.6890  146.1350 C   0  0  1  0  0  3  0  0  0  0  0  0
  186.3820  179.1600  148.0020 C   0  0  0  0  0  1  0  0  0  0  0  0
  186.4070  176.7000  145.0310 C   0  0  0  0  0  2  0  0  0  0  0  0
  188.2400  177.8770  146.9960 C   0  0  0  0  0  2  0  0  0  0  0  0
  188.5590  175.3860  146.9110 C   0  0  0  0  0  1  0  0  0  0  0  0
  194.5600  171.9920  144.2270 O   0  0  0  0  0  0  0  0  0  0  0  0
  194.6770  173.0720  145.0760 N   0  0  0  0  0  0  0  0  0  0  0  0
  195.4840  174.0580  144.8280 C   0  0  0  0  0  0  0  0  0  0  0  0
  197.5140  173.3560  143.8060 O   0  0  0  0  0  1  0  0  0  0  0  0
  196.3470  174.0950  143.5990 C   0  0  2  0  0  3  0  0  0  0  0  0
  196.6860  175.5320  143.2250 C   0  0  0  0  0  2  0  0  0  0  0  0
  195.9960  175.9470  141.9650 C   0  0  0  0  0  0  0  0  0  0  0  0
  194.8460  175.1570  141.4540 C   0  0  0  0  0  1  0  0  0  0  0  0
  196.3920  176.9120  141.3350 O   0  0  0  0  0  0  0  0  0  0  0  0
  195.5400  175.2040  145.7770 C   0  0  0  0  0  2  0  0  0  0  0  0
  193.4970  176.0260  147.0040 N   0  0  0  0  0  2  0  0  0  0  0  0
  194.2410  175.9310  145.7890 C   0  0  0  0  0  0  0  0  0  0  0  0
  192.1870  176.6520  147.0560 C   0  0  0  0  0  1  0  0  0  0  0  0
  193.7980  176.4310  144.7220 O   0  0  0  0  0  0  0  0  0  0  0  0
  2  1  2  0  0  0  0
  2 42  1  0  0  0  0
  3  8  1  0  0  0  0
  3 12  2  0  0  0  0
  4  9  1  0  0  0  0
  4 11  2  0  0  0  0
  5 16  1  0  0  0  0
  6 13  1  0  0  0  0
  6 14  1  0  0  0  0
  8  7  1  6  0  0  0
  8 15  1  0  0  0  0
  9  7  2  0  0  0  0
 10 15  1  0  0  0  0
 11  3  1  0  0  0  0
 12  2  1  0  0  0  0
 13 21  1  6  0  0  0
 13  9  1  0  0  0  0
 14  5  1  0  0  0  0
 15  1  1  0  0  0  0
 16 17  1  0  0  0  0
 16 28  1  6  0  0  0
 17  7  1  6  0  0  0
 17 10  1  0  0  0  0
 19 21  2  0  0  0  0
 20 18  2  0  0  0  0
 21 18  1  0  0  0  0
 22 19  1  0  0  0  0
 22 20  1  0  0  0  0
 23 20  1  0  0  0  0
 25 24  1  0  0  0  0
 25 23  1  0  0  0  0
 26 27  1  0  0  0  0
 27 11  1  0  0  0  0
 28 29  1  0  0  0  0
 29 30  1  0  0  0  0
 30 31  1  0  0  0  0
 31 36  1  0  0  0  0
 32 31  2  0  0  0  0
 34 33  1  1  0  0  0
 34 35  1  0  0  0  0
 35 38  1  6  0  0  0
 36 39  1  0  0  0  0
 36 37  1  0  0  0  0
 37 41  1  1  0  0  0
 37 40  1  0  0  0  0
 39 34  1  0  0  0  0
 40 35  1  0  0  0  0
 42 43  1  0  0  0  0
 44 43  2  0  0  0  0
 44 51  1  0  0  0  0
 46 45  1  1  0  0  0
 46 44  1  0  0  0  0
 47 46  1  0  0  0  0
 48 47  1  0  0  0  0
 49 48  1  0  0  0  0
 50 48  2  0  0  0  0
 51 53  1  0  0  0  0
 52 54  1  0  0  0  0
 53 52  1  0  0  0  0
 55 53  2  0  0  0  0
M  END
>  <MODEL>
7

>  <REMARK>
 VINA RESULT:      -6.4      1.938      2.499
  Name = 
  15 active torsions:
  status: ('A' for Active; 'I' for Inactive)
    1  A    between atoms: C_1  and  C_32
    2  A    between atoms: C_4  and  C_43
    3  A    between atoms: N_7  and  O_31
    4  A    between atoms: C_9  and  O_31
    5  A    between atoms: C_17  and  C_22
    6  A    between atoms: C_17  and  C_33
    7  A    between atoms: C_20  and  C_52
    8  A    between atoms: C_20  and  N_53
    9  A    between atoms: C_23  and  C_33
   10  A    between atoms: C_23  and  C_43
   11  A    between atoms: C_26  and  C_27
   12  A    between atoms: C_27  and  N_45
   13  A    between atoms: C_29  and  C_46
   14  A    between atoms: C_32  and  N_53
   15  A    between atoms: C_38  and  O_54
                            x       y       z     vdW  Elec       q    Type
                         _______ _______ _______ _____ _____    ______ ____

>  <TORSDO>
F 15

$$$$
=
 OpenBabel11042417533D

 55 60  0  0  1  0  0  0  0  0999 V2000
  190.3090  174.9380  145.0160 C   0  0  0  0  0  3  0  0  0  0  0  0
  190.5030  176.2540  145.1470 C   0  0  0  0  0  0  0  0  0  0  0  0
  192.8930  175.9460  145.6040 C   0  0  0  0  0  0  0  0  0  0  0  0
  195.2150  175.5320  145.0590 C   0  0  0  0  0  3  0  0  0  0  0  0
  194.6440  170.9870  145.3540 C   0  0  0  0  0  2  0  0  0  0  0  0
  196.4170  172.3020  144.1770 C   0  0  0  0  0  2  0  0  0  0  0  0
  193.5970  173.7100  144.9390 C   0  0  0  0  0  0  0  0  0  0  0  0
  192.6580  174.4640  145.7600 C   0  0  2  0  0  3  0  0  0  0  0  0
  194.8020  174.1840  144.5680 C   0  0  0  0  0  0  0  0  0  0  0  0
  191.4620  172.8560  144.4910 O   0  0  0  0  0  0  0  0  0  0  0  0
  194.3110  176.3900  145.5610 C   0  0  0  0  0  0  0  0  0  0  0  0
  191.8730  176.7750  145.3610 C   0  0  0  0  0  3  0  0  0  0  0  0
  195.6260  173.4400  143.5480 C   0  0  1  0  0  3  0  0  0  0  0  0
  195.5980  171.0210  144.1670 C   0  0  0  0  0  2  0  0  0  0  0  0
  191.4040  174.0290  145.1850 N   0  0  0  0  0  0  0  0  0  0  0  0
  193.1760  171.2380  144.9730 C   0  0  1  0  0  3  0  0  0  0  0  0
  192.8480  172.5870  144.3040 C   0  0  2  0  0  3  0  0  0  0  0  0
  196.5130  174.3100  141.3500 N   0  0  0  0  0  0  0  0  0  0  0  0
  197.3440  175.2980  143.1770 C   0  0  0  0  0  3  0  0  0  0  0  0
  197.4080  175.2690  141.0450 C   0  0  0  0  0  0  0  0  0  0  0  0
  196.4830  174.3350  142.6940 C   0  0  0  0  0  0  0  0  0  0  0  0
  197.9330  175.8900  142.1220 N   0  0  0  0  0  2  0  0  0  0  0  0
  197.7600  175.6330  139.6450 C   0  0  0  0  0  2  0  0  0  0  0  0
  197.1230  174.6190  137.6430 C   0  0  0  0  0  1  0  0  0  0  0  0
  196.6240  175.3810  138.7750 N   0  0  0  0  0  2  0  0  0  0  0  0
  195.7830  178.3760  145.3460 C   0  0  0  0  0  1  0  0  0  0  0  0
  194.7410  177.6520  145.9830 O   0  0  0  0  0  0  0  0  0  0  0  0
  192.5390  170.0490  144.2550 C   0  0  0  0  0  2  0  0  0  0  0  0
  192.6440  170.1840  142.8090 N   0  0  0  0  0  2  0  0  0  0  0  0
  191.4020  169.6790  142.2460 C   0  0  0  0  0  2  0  0  0  0  0  0
  190.5920  170.8090  141.6930 C   0  0  0  0  0  0  0  0  0  0  0  0
  189.6080  171.2340  142.3580 O   0  0  0  0  0  0  0  0  0  0  0  0
  193.8990  171.3230  138.1260 C   0  0  0  0  0  1  0  0  0  0  0  0
  192.8920  171.9350  139.0840 C   0  0  1  0  0  3  0  0  0  0  0  0
  192.0780  173.0360  138.3940 C   0  0  2  0  0  3  0  0  0  0  0  0
  190.9130  171.3970  140.4230 N   0  0  0  0  0  0  0  0  0  0  0  0
  190.1110  172.5000  139.8980 C   0  0  1  0  0  3  0  0  0  0  0  0
  192.9800  174.1760  137.9560 C   0  0  0  0  0  1  0  0  0  0  0  0
  191.9680  170.8300  139.5860 C   0  0  0  0  0  2  0  0  0  0  0  0
  191.0210  173.5960  139.3470 C   0  0  0  0  0  2  0  0  0  0  0  0
  189.1490  172.0020  138.8310 C   0  0  0  0  0  1  0  0  0  0  0  0
  189.4180  177.1180  145.0100 O   0  0  0  0  0  0  0  0  0  0  0  0
  188.3530  176.8070  144.1900 N   0  0  0  0  0  0  0  0  0  0  0  0
  187.1380  176.7370  144.6390 C   0  0  0  0  0  0  0  0  0  0  0  0
  187.2950  175.9540  146.8790 O   0  0  0  0  0  1  0  0  0  0  0  0
  186.8010  176.9880  146.0800 C   0  0  2  0  0  3  0  0  0  0  0  0
  185.2960  177.1280  146.2640 C   0  0  0  0  0  2  0  0  0  0  0  0
  184.8750  178.5630  146.2560 C   0  0  0  0  0  0  0  0  0  0  0  0
  183.6380  178.9700  145.5400 C   0  0  0  0  0  1  0  0  0  0  0  0
  185.5590  179.4080  146.8070 O   0  0  0  0  0  0  0  0  0  0  0  0
  186.0330  176.4220  143.6900 C   0  0  0  0  0  2  0  0  0  0  0  0
  186.4950  176.8040  141.2410 N   0  0  0  0  0  2  0  0  0  0  0  0
  186.0910  177.3250  142.5080 C   0  0  0  0  0  0  0  0  0  0  0  0
  186.6480  177.6560  140.0740 C   0  0  0  0  0  1  0  0  0  0  0  0
  185.8120  178.5450  142.6430 O   0  0  0  0  0  0  0  0  0  0  0  0
  1  2  2  0  0  0  0
  1 15  1  0  0  0  0
  2 12  1  0  0  0  0
  3  8  1  0  0  0  0
  4 11  2  0  0  0  0
  8  7  1  6  0  0  0
  9  7  2  0  0  0  0
  9  4  1  0  0  0  0
 10 15  1  0  0  0  0
 11  3  1  0  0  0  0
 11 27  1  0  0  0  0
 12  3  2  0  0  0  0
 13 21  1  1  0  0  0
 13  6  1  0  0  0  0
 13  9  1  0  0  0  0
 14  6  1  0  0  0  0
 14  5  1  0  0  0  0
 15  8  1  0  0  0  0
 16 28  1  6  0  0  0
 16  5  1  0  0  0  0
 17 10  1  1  0  0  0
 17  7  1  0  0  0  0
 17 16  1  0  0  0  0
 18 21  1  0  0  0  0
 20 18  2  0  0  0  0
 20 22  1  0  0  0  0
 21 19  2  0  0  0  0
 22 19  1  0  0  0  0
 23 20  1  0  0  0  0
 24 25  1  0  0  0  0
 25 23  1  0  0  0  0
 26 27  1  0  0  0  0
 29 28  1  0  0  0  0
 30 29  1  0  0  0  0
 31 30  1  0  0  0  0
 31 32  2  0  0  0  0
 34 33  1  6  0  0  0
 34 39  1  0  0  0  0
 35 38  1  1  0  0  0
 35 34  1  0  0  0  0
 35 40  1  0  0  0  0
 36 31  1  0  0  0  0
 37 41  1  6  0  0  0
 37 36  1  0  0  0  0
 39 36  1  0  0  0  0
 40 37  1  0  0  0  0
 42  2  1  0  0  0  0
 43 44  2  0  0  0  0
 43 42  1  0  0  0  0
 44 46  1  0  0  0  0
 46 47  1  0  0  0  0
 46 45  1  1  0  0  0
 48 47  1  0  0  0  0
 48 50  2  0  0  0  0
 49 48  1  0  0  0  0
 51 44  1  0  0  0  0
 52 53  1  0  0  0  0
 53 55  2  0  0  0  0
 53 51  1  0  0  0  0
 54 52  1  0  0  0  0
M  END
>  <MODEL>
8

>  <REMARK>
 VINA RESULT:      -6.3      2.478      8.275
  Name = 
  15 active torsions:
  status: ('A' for Active; 'I' for Inactive)
    1  A    between atoms: C_1  and  C_32
    2  A    between atoms: C_4  and  C_43
    3  A    between atoms: N_7  and  O_31
    4  A    between atoms: C_9  and  O_31
    5  A    between atoms: C_17  and  C_22
    6  A    between atoms: C_17  and  C_33
    7  A    between atoms: C_20  and  C_52
    8  A    between atoms: C_20  and  N_53
    9  A    between atoms: C_23  and  C_33
   10  A    between atoms: C_23  and  C_43
   11  A    between atoms: C_26  and  C_27
   12  A    between atoms: C_27  and  N_45
   13  A    between atoms: C_29  and  C_46
   14  A    between atoms: C_32  and  N_53
   15  A    between atoms: C_38  and  O_54
                            x       y       z     vdW  Elec       q    Type
                         _______ _______ _______ _____ _____    ______ ____

>  <TORSDO>
F 15

$$$$
=
 OpenBabel11042417533D

 55 60  0  0  1  0  0  0  0  0999 V2000
  191.9400  172.0940  144.3930 C   0  0  0  0  0  3  0  0  0  0  0  0
  192.9900  171.2780  144.2570 C   0  0  0  0  0  0  0  0  0  0  0  0
  192.2010  170.4800  142.0760 C   0  0  0  0  0  0  0  0  0  0  0  0
  191.8140  170.5840  139.6890 C   0  0  0  0  0  3  0  0  0  0  0  0
  187.8120  172.7550  140.2640 C   0  0  0  0  0  2  0  0  0  0  0  0
  189.2980  172.6480  138.2550 C   0  0  0  0  0  2  0  0  0  0  0  0
  190.5010  171.9850  141.1920 C   0  0  0  0  0  0  0  0  0  0  0  0
  190.8730  171.1490  142.3280 C   0  0  2  0  0  3  0  0  0  0  0  0
  190.9390  171.7660  139.9380 C   0  0  0  0  0  0  0  0  0  0  0  0
  190.2480  173.2980  143.1160 O   0  0  0  0  0  0  0  0  0  0  0  0
  192.4270  169.9530  140.7050 C   0  0  0  0  0  0  0  0  0  0  0  0
  193.1640  170.5110  143.0020 C   0  0  0  0  0  3  0  0  0  0  0  0
  190.6880  172.7900  138.8600 C   0  0  1  0  0  3  0  0  0  0  0  0
  188.2970  173.4950  139.0250 C   0  0  0  0  0  2  0  0  0  0  0  0
  190.9340  172.1460  143.3740 N   0  0  0  0  0  0  0  0  0  0  0  0
  188.3990  173.2970  141.5780 C   0  0  1  0  0  3  0  0  0  0  0  0
  189.9310  173.2550  141.7290 C   0  0  2  0  0  3  0  0  0  0  0  0
  192.9780  173.4050  137.9930 N   0  0  0  0  0  0  0  0  0  0  0  0
  191.6610  172.3280  136.5410 C   0  0  0  0  0  3  0  0  0  0  0  0
  193.5820  173.2150  136.8060 C   0  0  0  0  0  0  0  0  0  0  0  0
  191.7680  172.8460  137.8150 C   0  0  0  0  0  0  0  0  0  0  0  0
  192.8200  172.5670  135.9010 N   0  0  0  0  0  2  0  0  0  0  0  0
  194.9790  173.6500  136.5290 C   0  0  0  0  0  2  0  0  0  0  0  0
  196.9850  172.6990  137.2500 C   0  0  0  0  0  1  0  0  0  0  0  0
  195.8040  173.4170  137.7020 N   0  0  0  0  0  2  0  0  0  0  0  0
  194.6750  168.9600  140.3650 C   0  0  0  0  0  1  0  0  0  0  0  0
  193.2600  168.8660  140.4200 O   0  0  0  0  0  0  0  0  0  0  0  0
  187.7990  174.6440  141.9820 C   0  0  0  0  0  2  0  0  0  0  0  0
  188.0170  175.6510  140.9550 N   0  0  0  0  0  2  0  0  0  0  0  0
  188.2240  176.9170  141.6420 C   0  0  0  0  0  2  0  0  0  0  0  0
  186.9220  177.4400  142.1600 C   0  0  0  0  0  0  0  0  0  0  0  0
  185.9430  177.5240  141.3700 O   0  0  0  0  0  0  0  0  0  0  0  0
  188.7860  177.3630  146.6820 C   0  0  0  0  0  1  0  0  0  0  0  0
  187.6010  177.2080  145.7450 C   0  0  1  0  0  3  0  0  0  0  0  0
  186.3380  177.8330  146.3500 C   0  0  2  0  0  3  0  0  0  0  0  0
  186.7830  177.8520  143.5280 N   0  0  0  0  0  0  0  0  0  0  0  0
  185.5020  178.3610  144.0180 C   0  0  1  0  0  3  0  0  0  0  0  0
  185.9490  177.1210  147.6340 C   0  0  0  0  0  1  0  0  0  0  0  0
  187.9400  177.8800  144.4190 C   0  0  0  0  0  2  0  0  0  0  0  0
  185.1690  177.7320  145.3690 C   0  0  0  0  0  2  0  0  0  0  0  0
  185.5310  179.8780  144.1140 C   0  0  0  0  0  1  0  0  0  0  0  0
  193.9400  171.2190  145.2750 O   0  0  0  0  0  0  0  0  0  0  0  0
  194.5760  172.3560  145.7290 N   0  0  0  0  0  0  0  0  0  0  0  0
  195.8650  172.4950  145.6640 C   0  0  0  0  0  0  0  0  0  0  0  0
  197.2000  170.5760  146.1020 O   0  0  0  0  0  1  0  0  0  0  0  0
  196.7570  171.4310  145.0900 C   0  0  2  0  0  3  0  0  0  0  0  0
  197.9410  172.0570  144.3660 C   0  0  0  0  0  2  0  0  0  0  0  0
  197.6310  172.3090  142.9250 C   0  0  0  0  0  0  0  0  0  0  0  0
  197.1690  171.1930  142.0600 C   0  0  0  0  0  1  0  0  0  0  0  0
  197.7850  173.4200  142.4470 O   0  0  0  0  0  0  0  0  0  0  0  0
  196.4820  173.7610  146.1490 C   0  0  0  0  0  2  0  0  0  0  0  0
  194.9220  175.7120  146.4960 N   0  0  0  0  0  2  0  0  0  0  0  0
  195.7390  174.9370  145.6170 C   0  0  0  0  0  0  0  0  0  0  0  0
  194.1130  176.8190  146.0150 C   0  0  0  0  0  1  0  0  0  0  0  0
  195.8170  175.2190  144.3940 O   0  0  0  0  0  0  0  0  0  0  0  0
  2  1  2  0  0  0  0
  2 42  1  0  0  0  0
  3  8  1  0  0  0  0
  3 12  2  0  0  0  0
  4  9  1  0  0  0  0
  4 11  2  0  0  0  0
  5 16  1  0  0  0  0
  6 13  1  0  0  0  0
  6 14  1  0  0  0  0
  8  7  1  6  0  0  0
  8 15  1  0  0  0  0
  9  7  2  0  0  0  0
 10 15  1  0  0  0  0
 11  3  1  0  0  0  0
 12  2  1  0  0  0  0
 13 21  1  6  0  0  0
 13  9  1  0  0  0  0
 14  5  1  0  0  0  0
 15  1  1  0  0  0  0
 16 17  1  0  0  0  0
 16 28  1  6  0  0  0
 17  7  1  1  0  0  0
 17 10  1  0  0  0  0
 19 21  2  0  0  0  0
 20 18  2  0  0  0  0
 21 18  1  0  0  0  0
 22 19  1  0  0  0  0
 22 20  1  0  0  0  0
 23 20  1  0  0  0  0
 23 25  1  0  0  0  0
 24 25  1  0  0  0  0
 26 27  1  0  0  0  0
 27 11  1  0  0  0  0
 29 30  1  0  0  0  0
 29 28  1  0  0  0  0
 30 31  1  0  0  0  0
 31 36  1  0  0  0  0
 32 31  2  0  0  0  0
 34 35  1  0  0  0  0
 34 33  1  1  0  0  0
 35 38  1  1  0  0  0
 36 37  1  0  0  0  0
 36 39  1  0  0  0  0
 37 41  1  1  0  0  0
 37 40  1  0  0  0  0
 39 34  1  0  0  0  0
 40 35  1  0  0  0  0
 42 43  1  0  0  0  0
 44 43  2  0  0  0  0
 44 51  1  0  0  0  0
 46 44  1  0  0  0  0
 46 45  1  1  0  0  0
 47 46  1  0  0  0  0
 48 47  1  0  0  0  0
 49 48  1  0  0  0  0
 50 48  2  0  0  0  0
 53 51  1  0  0  0  0
 53 52  1  0  0  0  0
 54 52  1  0  0  0  0
 55 53  2  0  0  0  0
M  END
>  <MODEL>
9

>  <REMARK>
 VINA RESULT:      -6.3      1.531      1.833
  Name = 
  15 active torsions:
  status: ('A' for Active; 'I' for Inactive)
    1  A    between atoms: C_1  and  C_32
    2  A    between atoms: C_4  and  C_43
    3  A    between atoms: N_7  and  O_31
    4  A    between atoms: C_9  and  O_31
    5  A    between atoms: C_17  and  C_22
    6  A    between atoms: C_17  and  C_33
    7  A    between atoms: C_20  and  C_52
    8  A    between atoms: C_20  and  N_53
    9  A    between atoms: C_23  and  C_33
   10  A    between atoms: C_23  and  C_43
   11  A    between atoms: C_26  and  C_27
   12  A    between atoms: C_27  and  N_45
   13  A    between atoms: C_29  and  C_46
   14  A    between atoms: C_32  and  N_53
   15  A    between atoms: C_38  and  O_54
                            x       y       z     vdW  Elec       q    Type
                         _______ _______ _______ _____ _____    ______ ____

>  <TORSDO>
F 15

$$$$
