=
 OpenBabel11042414473D

 28 31  0  0  1  0  0  0  0  0999 V2000
  188.7980  173.6250  140.8800 C   0  0  0  0  0  0  0  0  0  0  0  0
  190.7080  173.8970  142.3320 C   0  0  0  0  0  3  0  0  0  0  0  0
  188.1540  172.9490  139.8540 O   0  0  0  0  0  1  0  0  0  0  0  0
  188.8140  175.4140  142.5320 C   0  0  0  0  0  0  0  0  0  0  0  0
  190.1100  175.0080  142.9460 C   0  0  0  0  0  0  0  0  0  0  0  0
  190.0570  173.2080  141.3090 C   0  0  0  0  0  3  0  0  0  0  0  0
  188.1790  174.7160  141.4930 C   0  0  0  0  0  3  0  0  0  0  0  0
  186.8570  178.4830  142.4190 C   0  0  0  0  0  3  0  0  0  0  0  0
  186.7120  177.1840  145.2270 C   0  0  0  0  0  0  0  0  0  0  0  0
  185.2120  179.1350  145.7180 C   0  0  2  0  0  3  0  0  0  0  0  0
  186.2790  177.9140  147.5960 C   0  0  0  0  0  2  0  0  0  0  0  0
  185.9870  178.2430  144.7660 C   0  0  0  0  0  0  0  0  0  0  0  0
  184.9890  178.5310  147.1000 C   0  0  0  0  0  2  0  0  0  0  0  0
  183.9860  179.4820  145.1780 F   0  0  0  0  0  0  0  0  0  0  0  0
  187.4490  176.2280  144.3710 C   0  0  0  0  0  3  0  0  0  0  0  0
  185.9120  178.6470  143.3420 C   0  0  0  0  0  3  0  0  0  0  0  0
  188.0600  176.4910  143.2120 C   0  0  0  0  0  0  0  0  0  0  0  0
  188.1910  177.8930  142.7150 C   0  0  0  0  0  2  0  0  0  0  0  0
  186.6370  176.7630  146.6700 C   0  0  0  0  0  2  0  0  0  0  0  0
  192.9750  176.5720  145.6940 N   0  0  0  0  0  0  0  0  0  0  0  0
  191.7830  176.6730  143.5700 C   0  0  0  0  0  3  0  0  0  0  0  0
  190.9010  175.7400  143.9560 C   0  0  0  0  0  0  0  0  0  0  0  0
  192.6120  177.4300  144.5680 C   0  0  0  0  0  2  0  0  0  0  0  0
  192.3020  174.8730  147.1660 O   0  0  0  0  0  0  0  0  0  0  0  0
  192.0500  175.5700  146.1470 C   0  0  0  0  0  0  0  0  0  0  0  0
  190.7600  175.3700  145.4120 C   0  0  0  0  0  2  0  0  0  0  0  0
  194.9350  177.8380  145.7400 O   0  0  0  0  0  1  0  0  0  0  0  0
  194.2390  176.8080  146.3740 C   0  0  0  0  0  2  0  0  0  0  0  0
  1  6  2  0  0  0  0
  1  7  1  0  0  0  0
  2  5  2  0  0  0  0
  3  1  1  0  0  0  0
  4  5  1  0  0  0  0
  4 17  1  0  0  0  0
  5 22  1  0  0  0  0
  6  2  1  0  0  0  0
  7  4  2  0  0  0  0
  8 18  1  0  0  0  0
  8 16  2  0  0  0  0
  9 19  1  0  0  0  0
 10 14  1  6  0  0  0
 10 13  1  0  0  0  0
 12  9  2  0  0  0  0
 12 10  1  0  0  0  0
 13 11  1  0  0  0  0
 15  9  1  0  0  0  0
 16 12  1  0  0  0  0
 17 15  2  0  0  0  0
 18 17  1  0  0  0  0
 19 11  1  0  0  0  0
 20 25  1  0  0  0  0
 20 28  1  0  0  0  0
 21 22  2  0  0  0  0
 21 23  1  0  0  0  0
 22 26  1  0  0  0  0
 23 20  1  0  0  0  0
 25 24  2  0  0  0  0
 26 25  1  0  0  0  0
 27 28  1  0  0  0  0
M  END
>  <MODEL>
1

>  <REMARK>
 VINA RESULT:      -8.3      0.000      0.000
  Name = 
  3 active torsions:
  status: ('A' for Active; 'I' for Inactive)
    1  A    between atoms: N_8  and  C_12
    2  A    between atoms: C_15  and  C_23
    3  A    between atoms: C_17  and  C_21
                            x       y       z     vdW  Elec       q    Type
                         _______ _______ _______ _____ _____    ______ ____

>  <TORSDO>
F 3

$$$$
=
 OpenBabel11042414473D

 28 31  0  0  1  0  0  0  0  0999 V2000
  191.3250  176.5950  147.6800 C   0  0  0  0  0  0  0  0  0  0  0  0
  191.8980  174.9380  146.0190 C   0  0  0  0  0  3  0  0  0  0  0  0
  191.5400  177.1800  148.9200 O   0  0  0  0  0  1  0  0  0  0  0  0
  190.0800  176.4990  145.5890 C   0  0  0  0  0  0  0  0  0  0  0  0
  190.8750  175.3970  145.1770 C   0  0  0  0  0  0  0  0  0  0  0  0
  192.1240  175.5330  147.2610 C   0  0  0  0  0  3  0  0  0  0  0  0
  190.3150  177.0780  146.8460 C   0  0  0  0  0  3  0  0  0  0  0  0
  188.9450  177.5400  142.2900 C   0  0  0  0  0  3  0  0  0  0  0  0
  186.6420  177.7090  144.3530 C   0  0  0  0  0  0  0  0  0  0  0  0
  185.3180  178.4630  142.3580 C   0  0  2  0  0  3  0  0  0  0  0  0
  184.4880  178.9780  144.6390 C   0  0  0  0  0  2  0  0  0  0  0  0
  186.5550  177.8630  143.0000 C   0  0  0  0  0  0  0  0  0  0  0  0
  184.0920  178.4860  143.2640 C   0  0  0  0  0  2  0  0  0  0  0  0
  184.9980  177.7940  141.1890 F   0  0  0  0  0  0  0  0  0  0  0  0
  187.7810  177.0830  145.0600 C   0  0  0  0  0  3  0  0  0  0  0  0
  187.6360  177.5120  142.0490 C   0  0  0  0  0  3  0  0  0  0  0  0
  189.0690  177.1280  144.7100 C   0  0  0  0  0  0  0  0  0  0  0  0
  189.5270  177.9920  143.5820 C   0  0  0  0  0  2  0  0  0  0  0  0
  185.4540  177.9710  145.2400 C   0  0  0  0  0  2  0  0  0  0  0  0
  189.8300  173.9500  141.3020 N   0  0  0  0  0  0  0  0  0  0  0  0
  191.4720  174.8130  142.8830 C   0  0  0  0  0  3  0  0  0  0  0  0
  190.6380  174.6570  143.9210 C   0  0  0  0  0  0  0  0  0  0  0  0
  191.2570  174.0850  141.5870 C   0  0  0  0  0  2  0  0  0  0  0  0
  187.6820  173.5640  142.1640 O   0  0  0  0  0  0  0  0  0  0  0  0
  188.9060  173.7650  142.3860 C   0  0  0  0  0  0  0  0  0  0  0  0
  189.4090  173.7900  143.7970 C   0  0  0  0  0  2  0  0  0  0  0  0
  189.4150  172.6240  139.4260 O   0  0  0  0  0  1  0  0  0  0  0  0
  189.3920  173.9320  139.9140 C   0  0  0  0  0  2  0  0  0  0  0  0
  1  3  1  0  0  0  0
  2  6  2  0  0  0  0
  4  7  1  0  0  0  0
  5  4  2  0  0  0  0
  5  2  1  0  0  0  0
  6  1  1  0  0  0  0
  7  1  2  0  0  0  0
  8 18  1  0  0  0  0
  9 15  1  0  0  0  0
  9 19  1  0  0  0  0
 10 14  1  6  0  0  0
 10 12  1  0  0  0  0
 10 13  1  0  0  0  0
 11 19  1  0  0  0  0
 12  9  2  0  0  0  0
 13 11  1  0  0  0  0
 16  8  2  0  0  0  0
 16 12  1  0  0  0  0
 17 15  2  0  0  0  0
 17  4  1  0  0  0  0
 18 17  1  0  0  0  0
 20 23  1  0  0  0  0
 20 25  1  0  0  0  0
 21 22  2  0  0  0  0
 22  5  1  0  0  0  0
 23 21  1  0  0  0  0
 24 25  2  0  0  0  0
 25 26  1  0  0  0  0
 26 22  1  0  0  0  0
 27 28  1  0  0  0  0
 28 20  1  0  0  0  0
M  END
>  <MODEL>
2

>  <REMARK>
 VINA RESULT:      -8.3      2.268      4.985
  Name = 
  3 active torsions:
  status: ('A' for Active; 'I' for Inactive)
    1  A    between atoms: N_8  and  C_12
    2  A    between atoms: C_15  and  C_23
    3  A    between atoms: C_17  and  C_21
                            x       y       z     vdW  Elec       q    Type
                         _______ _______ _______ _____ _____    ______ ____

>  <TORSDO>
F 3

$$$$
=
 OpenBabel11042414473D

 28 31  0  0  1  0  0  0  0  0999 V2000
  184.8230  178.7770  144.5260 C   0  0  0  0  0  0  0  0  0  0  0  0
  186.1600  178.4240  146.5070 C   0  0  0  0  0  3  0  0  0  0  0  0
  183.6940  179.3040  143.9150 O   0  0  0  0  0  1  0  0  0  0  0  0
  186.9060  177.5240  144.3710 C   0  0  0  0  0  0  0  0  0  0  0  0
  187.0990  177.6910  145.7680 C   0  0  0  0  0  0  0  0  0  0  0  0
  185.0300  178.9660  145.8910 C   0  0  0  0  0  3  0  0  0  0  0  0
  185.7580  178.0670  143.7710 C   0  0  0  0  0  3  0  0  0  0  0  0
  190.2890  177.3000  143.0450 C   0  0  0  0  0  3  0  0  0  0  0  0
  188.6480  174.7780  142.3120 C   0  0  0  0  0  0  0  0  0  0  0  0
  190.7960  174.0670  141.2270 C   0  0  2  0  0  3  0  0  0  0  0  0
  188.6680  172.9950  140.5380 C   0  0  0  0  0  2  0  0  0  0  0  0
  189.9840  174.9790  142.1280 C   0  0  0  0  0  0  0  0  0  0  0  0
  190.1160  172.7430  140.8990 C   0  0  0  0  0  2  0  0  0  0  0  0
  192.0380  173.8080  141.7800 F   0  0  0  0  0  0  0  0  0  0  0  0
  187.7900  175.5770  143.2150 C   0  0  0  0  0  3  0  0  0  0  0  0
  190.7530  176.0910  142.7350 C   0  0  0  0  0  3  0  0  0  0  0  0
  187.9100  176.8780  143.4970 C   0  0  0  0  0  0  0  0  0  0  0  0
  188.8930  177.7330  142.7680 C   0  0  0  0  0  2  0  0  0  0  0  0
  187.9660  173.5540  141.7630 C   0  0  0  0  0  2  0  0  0  0  0  0
  190.6540  175.7860  147.1590 N   0  0  0  0  0  0  0  0  0  0  0  0
  189.3170  177.7880  146.7860 C   0  0  0  0  0  3  0  0  0  0  0  0
  188.2180  177.0710  146.5070 C   0  0  0  0  0  0  0  0  0  0  0  0
  190.4780  177.1890  147.5260 C   0  0  0  0  0  2  0  0  0  0  0  0
  189.6190  173.7480  146.6280 O   0  0  0  0  0  0  0  0  0  0  0  0
  189.5020  174.9800  146.8670 C   0  0  0  0  0  0  0  0  0  0  0  0
  188.1410  175.6090  146.8700 C   0  0  0  0  0  2  0  0  0  0  0  0
  192.9250  176.2010  146.8160 O   0  0  0  0  0  1  0  0  0  0  0  0
  191.9960  175.2230  147.1720 C   0  0  0  0  0  2  0  0  0  0  0  0
  1  6  1  0  0  0  0
  3  1  1  0  0  0  0
  4  5  2  0  0  0  0
  5  2  1  0  0  0  0
  5 22  1  0  0  0  0
  6  2  2  0  0  0  0
  7  4  1  0  0  0  0
  7  1  2  0  0  0  0
  9 15  1  0  0  0  0
 10 14  1  1  0  0  0
 10 12  1  0  0  0  0
 11 13  1  0  0  0  0
 11 19  1  0  0  0  0
 12  9  2  0  0  0  0
 12 16  1  0  0  0  0
 13 10  1  0  0  0  0
 15 17  2  0  0  0  0
 16  8  2  0  0  0  0
 17  4  1  0  0  0  0
 18  8  1  0  0  0  0
 18 17  1  0  0  0  0
 19  9  1  0  0  0  0
 20 28  1  0  0  0  0
 20 23  1  0  0  0  0
 21 23  1  0  0  0  0
 22 21  2  0  0  0  0
 22 26  1  0  0  0  0
 24 25  2  0  0  0  0
 25 26  1  0  0  0  0
 25 20  1  0  0  0  0
 27 28  1  0  0  0  0
M  END
>  <MODEL>
3

>  <REMARK>
 VINA RESULT:      -8.1      2.973      5.739
  Name = 
  3 active torsions:
  status: ('A' for Active; 'I' for Inactive)
    1  A    between atoms: N_8  and  C_12
    2  A    between atoms: C_15  and  C_23
    3  A    between atoms: C_17  and  C_21
                            x       y       z     vdW  Elec       q    Type
                         _______ _______ _______ _____ _____    ______ ____

>  <TORSDO>
F 3

$$$$
=
 OpenBabel11042414473D

 28 31  0  0  1  0  0  0  0  0999 V2000
  186.3980  177.3110  139.7670 C   0  0  0  0  0  0  0  0  0  0  0  0
  185.1560  178.1120  141.6780 C   0  0  0  0  0  3  0  0  0  0  0  0
  186.4970  177.1000  138.3990 O   0  0  0  0  0  1  0  0  0  0  0  0
  187.3640  177.1370  141.9960 C   0  0  0  0  0  0  0  0  0  0  0  0
  186.1900  177.7200  142.5410 C   0  0  0  0  0  0  0  0  0  0  0  0
  185.2590  177.9120  140.3010 C   0  0  0  0  0  3  0  0  0  0  0  0
  187.4450  176.9340  140.6090 C   0  0  0  0  0  3  0  0  0  0  0  0
  189.6550  177.9250  144.7140 C   0  0  0  0  0  3  0  0  0  0  0  0
  190.0830  175.0240  143.7170 C   0  0  0  0  0  0  0  0  0  0  0  0
  191.8180  174.9800  145.5290 C   0  0  2  0  0  3  0  0  0  0  0  0
  191.9310  173.3180  143.6910 C   0  0  0  0  0  2  0  0  0  0  0  0
  190.6390  175.6130  144.8140 C   0  0  0  0  0  0  0  0  0  0  0  0
  192.0420  173.5110  145.1880 C   0  0  0  0  0  2  0  0  0  0  0  0
  191.6860  175.1060  146.9010 F   0  0  0  0  0  0  0  0  0  0  0  0
  188.8980  175.5360  142.9930 C   0  0  0  0  0  3  0  0  0  0  0  0
  190.1940  176.9080  145.3830 C   0  0  0  0  0  3  0  0  0  0  0  0
  188.5520  176.8150  142.8180 C   0  0  0  0  0  0  0  0  0  0  0  0
  189.4630  177.9200  143.2390 C   0  0  0  0  0  2  0  0  0  0  0  0
  190.5080  173.6490  143.2770 C   0  0  0  0  0  2  0  0  0  0  0  0
  186.3520  178.3280  146.7610 N   0  0  0  0  0  0  0  0  0  0  0  0
  185.8060  179.1030  144.5160 C   0  0  0  0  0  3  0  0  0  0  0  0
  185.9680  177.8790  143.9920 C   0  0  0  0  0  0  0  0  0  0  0  0
  185.5890  179.3050  145.9880 C   0  0  0  0  0  2  0  0  0  0  0  0
  187.1160  176.1150  146.9220 O   0  0  0  0  0  0  0  0  0  0  0  0
  186.5340  177.0010  146.2410 C   0  0  0  0  0  0  0  0  0  0  0  0
  186.0030  176.6610  144.8810 C   0  0  0  0  0  2  0  0  0  0  0  0
  186.4630  180.0170  148.3670 O   0  0  0  0  0  1  0  0  0  0  0  0
  186.8450  178.7070  148.0760 C   0  0  0  0  0  2  0  0  0  0  0  0
  1  6  2  0  0  0  0
  1  7  1  0  0  0  0
  2  5  2  0  0  0  0
  3  1  1  0  0  0  0
  4  5  1  0  0  0  0
  4 17  1  0  0  0  0
  5 22  1  0  0  0  0
  6  2  1  0  0  0  0
  7  4  2  0  0  0  0
  8 16  2  0  0  0  0
  9 12  2  0  0  0  0
 10 14  1  1  0  0  0
 11 13  1  0  0  0  0
 12 16  1  0  0  0  0
 12 10  1  0  0  0  0
 13 10  1  0  0  0  0
 15  9  1  0  0  0  0
 17 15  2  0  0  0  0
 17 18  1  0  0  0  0
 18  8  1  0  0  0  0
 19 11  1  0  0  0  0
 19  9  1  0  0  0  0
 20 28  1  0  0  0  0
 21 23  1  0  0  0  0
 22 21  2  0  0  0  0
 22 26  1  0  0  0  0
 23 20  1  0  0  0  0
 25 20  1  0  0  0  0
 25 24  2  0  0  0  0
 26 25  1  0  0  0  0
 28 27  1  0  0  0  0
M  END
>  <MODEL>
4

>  <REMARK>
 VINA RESULT:      -8.1      3.262      5.961
  Name = 
  3 active torsions:
  status: ('A' for Active; 'I' for Inactive)
    1  A    between atoms: N_8  and  C_12
    2  A    between atoms: C_15  and  C_23
    3  A    between atoms: C_17  and  C_21
                            x       y       z     vdW  Elec       q    Type
                         _______ _______ _______ _____ _____    ______ ____

>  <TORSDO>
F 3

$$$$
=
 OpenBabel11042414473D

 28 31  0  0  1  0  0  0  0  0999 V2000
  188.7150  173.4100  139.4640 C   0  0  0  0  0  0  0  0  0  0  0  0
  190.0710  173.3170  141.4600 C   0  0  0  0  0  3  0  0  0  0  0  0
  188.3810  172.9130  138.2120 O   0  0  0  0  0  1  0  0  0  0  0  0
  188.3490  175.0250  141.2500 C   0  0  0  0  0  0  0  0  0  0  0  0
  189.4030  174.4300  141.9920 C   0  0  0  0  0  0  0  0  0  0  0  0
  189.7290  172.8080  140.2070 C   0  0  0  0  0  3  0  0  0  0  0  0
  188.0260  174.5060  139.9860 C   0  0  0  0  0  3  0  0  0  0  0  0
  186.1440  177.8800  140.7580 C   0  0  0  0  0  3  0  0  0  0  0  0
  186.1110  176.9580  143.7140 C   0  0  0  0  0  0  0  0  0  0  0  0
  184.4550  178.8280  143.9620 C   0  0  2  0  0  3  0  0  0  0  0  0
  185.6230  177.9580  145.9710 C   0  0  0  0  0  2  0  0  0  0  0  0
  185.3000  177.8840  143.1260 C   0  0  0  0  0  0  0  0  0  0  0  0
  184.2860  178.3970  145.4140 C   0  0  0  0  0  2  0  0  0  0  0  0
  183.2040  178.9980  143.3960 F   0  0  0  0  0  0  0  0  0  0  0  0
  186.9240  175.9610  142.9820 C   0  0  0  0  0  3  0  0  0  0  0  0
  185.1890  178.0870  141.6620 C   0  0  0  0  0  3  0  0  0  0  0  0
  187.5090  176.1170  141.7910 C   0  0  0  0  0  0  0  0  0  0  0  0
  187.5220  177.4460  141.1110 C   0  0  0  0  0  2  0  0  0  0  0  0
  186.0740  176.7280  145.2010 C   0  0  0  0  0  2  0  0  0  0  0  0
  190.0390  176.2860  145.7800 N   0  0  0  0  0  0  0  0  0  0  0  0
  189.6290  174.3070  144.4200 C   0  0  0  0  0  3  0  0  0  0  0  0
  189.8850  174.9660  143.2810 C   0  0  0  0  0  0  0  0  0  0  0  0
  190.0920  174.8270  145.7500 C   0  0  0  0  0  2  0  0  0  0  0  0
  190.3640  178.2890  144.6020 O   0  0  0  0  0  0  0  0  0  0  0  0
  190.3230  177.0300  144.5840 C   0  0  0  0  0  0  0  0  0  0  0  0
  190.5950  176.2970  143.3060 C   0  0  0  0  0  2  0  0  0  0  0  0
  190.9150  176.9300  147.8450 O   0  0  0  0  0  1  0  0  0  0  0  0
  189.7710  176.9500  147.0470 C   0  0  0  0  0  2  0  0  0  0  0  0
  1  7  2  0  0  0  0
  1  6  1  0  0  0  0
  2  5  1  0  0  0  0
  3  1  1  0  0  0  0
  4 17  1  0  0  0  0
  4  5  2  0  0  0  0
  5 22  1  0  0  0  0
  6  2  2  0  0  0  0
  7  4  1  0  0  0  0
  8 18  1  0  0  0  0
  8 16  2  0  0  0  0
  9 19  1  0  0  0  0
 10 14  1  6  0  0  0
 10 13  1  0  0  0  0
 12  9  2  0  0  0  0
 12 10  1  0  0  0  0
 13 11  1  0  0  0  0
 15  9  1  0  0  0  0
 16 12  1  0  0  0  0
 17 15  2  0  0  0  0
 18 17  1  0  0  0  0
 19 11  1  0  0  0  0
 20 28  1  0  0  0  0
 21 23  1  0  0  0  0
 22 26  1  0  0  0  0
 22 21  2  0  0  0  0
 23 20  1  0  0  0  0
 25 24  2  0  0  0  0
 25 20  1  0  0  0  0
 26 25  1  0  0  0  0
 28 27  1  0  0  0  0
M  END
>  <MODEL>
5

>  <REMARK>
 VINA RESULT:      -7.9      1.923      2.426
  Name = 
  3 active torsions:
  status: ('A' for Active; 'I' for Inactive)
    1  A    between atoms: N_8  and  C_12
    2  A    between atoms: C_15  and  C_23
    3  A    between atoms: C_17  and  C_21
                            x       y       z     vdW  Elec       q    Type
                         _______ _______ _______ _____ _____    ______ ____

>  <TORSDO>
F 3

$$$$
=
 OpenBabel11042414473D

 28 31  0  0  1  0  0  0  0  0999 V2000
  193.7730  176.7540  145.9620 C   0  0  0  0  0  0  0  0  0  0  0  0
  193.5760  175.4300  143.9520 C   0  0  0  0  0  3  0  0  0  0  0  0
  194.5540  177.4550  146.8690 O   0  0  0  0  0  1  0  0  0  0  0  0
  191.5840  175.9630  145.2440 C   0  0  0  0  0  0  0  0  0  0  0  0
  192.1910  175.3170  144.1350 C   0  0  0  0  0  0  0  0  0  0  0  0
  194.3630  176.1450  144.8560 C   0  0  0  0  0  3  0  0  0  0  0  0
  192.3920  176.6690  146.1500 C   0  0  0  0  0  3  0  0  0  0  0  0
  188.6280  175.2920  147.2620 C   0  0  0  0  0  3  0  0  0  0  0  0
  187.9350  177.1280  144.8660 C   0  0  0  0  0  0  0  0  0  0  0  0
  185.6350  177.0570  145.8690 C   0  0  2  0  0  3  0  0  0  0  0  0
  185.9100  177.7080  143.4910 C   0  0  0  0  0  2  0  0  0  0  0  0
  187.1290  176.7960  145.9160 C   0  0  0  0  0  0  0  0  0  0  0  0
  185.2050  178.0420  144.7880 C   0  0  0  0  0  2  0  0  0  0  0  0
  185.1760  177.5080  147.0940 F   0  0  0  0  0  0  0  0  0  0  0  0
  189.4050  176.9650  144.8460 C   0  0  0  0  0  3  0  0  0  0  0  0
  187.6020  176.1330  147.1550 C   0  0  0  0  0  3  0  0  0  0  0  0
  190.1170  176.0030  145.4410 C   0  0  0  0  0  0  0  0  0  0  0  0
  189.4420  174.8460  146.1000 C   0  0  0  0  0  2  0  0  0  0  0  0
  187.4010  177.9120  143.6980 C   0  0  0  0  0  2  0  0  0  0  0  0
  189.3650  173.1620  141.7750 N   0  0  0  0  0  0  0  0  0  0  0  0
  190.9440  174.9960  142.0610 C   0  0  0  0  0  3  0  0  0  0  0  0
  191.4410  174.4670  143.1880 C   0  0  0  0  0  0  0  0  0  0  0  0
  190.1680  174.1650  141.0800 C   0  0  0  0  0  2  0  0  0  0  0  0
  189.2350  171.6350  143.5520 O   0  0  0  0  0  0  0  0  0  0  0  0
  189.8690  172.5600  142.9780 C   0  0  0  0  0  0  0  0  0  0  0  0
  191.1780  173.0240  143.5430 C   0  0  0  0  0  2  0  0  0  0  0  0
  188.2220  172.6930  139.7950 O   0  0  0  0  0  1  0  0  0  0  0  0
  188.1020  172.7450  141.1850 C   0  0  0  0  0  2  0  0  0  0  0  0
  1  7  1  0  0  0  0
  1  3  1  0  0  0  0
  2  5  2  0  0  0  0
  2  6  1  0  0  0  0
  4 17  1  0  0  0  0
  4  7  2  0  0  0  0
  5  4  1  0  0  0  0
  6  1  2  0  0  0  0
  9 12  2  0  0  0  0
 10 12  1  0  0  0  0
 10 14  1  1  0  0  0
 11 19  1  0  0  0  0
 11 13  1  0  0  0  0
 12 16  1  0  0  0  0
 13 10  1  0  0  0  0
 15  9  1  0  0  0  0
 15 17  2  0  0  0  0
 16  8  2  0  0  0  0
 17 18  1  0  0  0  0
 18  8  1  0  0  0  0
 19  9  1  0  0  0  0
 20 25  1  0  0  0  0
 21 22  2  0  0  0  0
 22 26  1  0  0  0  0
 22  5  1  0  0  0  0
 23 20  1  0  0  0  0
 23 21  1  0  0  0  0
 25 26  1  0  0  0  0
 25 24  2  0  0  0  0
 27 28  1  0  0  0  0
 28 20  1  0  0  0  0
M  END
>  <MODEL>
6

>  <REMARK>
 VINA RESULT:      -7.8      2.008      5.242
  Name = 
  3 active torsions:
  status: ('A' for Active; 'I' for Inactive)
    1  A    between atoms: N_8  and  C_12
    2  A    between atoms: C_15  and  C_23
    3  A    between atoms: C_17  and  C_21
                            x       y       z     vdW  Elec       q    Type
                         _______ _______ _______ _____ _____    ______ ____

>  <TORSDO>
F 3

$$$$
=
 OpenBabel11042414473D

 28 31  0  0  1  0  0  0  0  0999 V2000
  191.2670  177.3930  148.3230 C   0  0  0  0  0  0  0  0  0  0  0  0
  191.9480  176.0120  146.4620 C   0  0  0  0  0  3  0  0  0  0  0  0
  191.5660  178.0420  149.5110 O   0  0  0  0  0  1  0  0  0  0  0  0
  189.6540  176.8160  146.5910 C   0  0  0  0  0  0  0  0  0  0  0  0
  190.6540  176.0590  145.9250 C   0  0  0  0  0  0  0  0  0  0  0  0
  192.2550  176.6750  147.6500 C   0  0  0  0  0  3  0  0  0  0  0  0
  189.9780  177.4680  147.7920 C   0  0  0  0  0  3  0  0  0  0  0  0
  186.0930  177.4410  147.0220 C   0  0  0  0  0  3  0  0  0  0  0  0
  186.9240  177.7920  144.0590 C   0  0  0  0  0  0  0  0  0  0  0  0
  184.5000  178.3680  143.7630 C   0  0  2  0  0  3  0  0  0  0  0  0
  185.8370  177.6710  141.7940 C   0  0  0  0  0  2  0  0  0  0  0  0
  185.7200  178.0960  144.6230 C   0  0  0  0  0  0  0  0  0  0  0  0
  184.8170  178.6650  142.3020 C   0  0  0  0  0  2  0  0  0  0  0  0
  183.7560  179.4130  144.2820 F   0  0  0  0  0  0  0  0  0  0  0  0
  188.1780  177.5700  144.8130 C   0  0  0  0  0  3  0  0  0  0  0  0
  185.4720  178.1530  146.0830 C   0  0  0  0  0  3  0  0  0  0  0  0
  188.3020  177.0250  146.0270 C   0  0  0  0  0  0  0  0  0  0  0  0
  187.1260  176.4150  146.7170 C   0  0  0  0  0  2  0  0  0  0  0  0
  187.1260  177.8780  142.5700 C   0  0  0  0  0  2  0  0  0  0  0  0
  190.5590  173.3410  142.6380 N   0  0  0  0  0  0  0  0  0  0  0  0
  189.7570  174.0760  144.8190 C   0  0  0  0  0  3  0  0  0  0  0  0
  190.3840  175.2560  144.7150 C   0  0  0  0  0  0  0  0  0  0  0  0
  189.4760  173.2270  143.6120 C   0  0  0  0  0  2  0  0  0  0  0  0
  192.1270  174.7420  141.5980 O   0  0  0  0  0  0  0  0  0  0  0  0
  191.2460  174.5930  142.4860 C   0  0  0  0  0  0  0  0  0  0  0  0
  190.8920  175.7420  143.3800 C   0  0  0  0  0  2  0  0  0  0  0  0
  190.0770  172.2330  140.6410 O   0  0  0  0  0  1  0  0  0  0  0  0
  190.8630  172.1950  141.7940 C   0  0  0  0  0  2  0  0  0  0  0  0
  1  3  1  0  0  0  0
  2  6  1  0  0  0  0
  4  7  2  0  0  0  0
  5  2  2  0  0  0  0
  5  4  1  0  0  0  0
  6  1  2  0  0  0  0
  7  1  1  0  0  0  0
  9 12  2  0  0  0  0
  9 15  1  0  0  0  0
 10 14  1  1  0  0  0
 10 12  1  0  0  0  0
 11 13  1  0  0  0  0
 11 19  1  0  0  0  0
 12 16  1  0  0  0  0
 13 10  1  0  0  0  0
 15 17  2  0  0  0  0
 16  8  2  0  0  0  0
 17  4  1  0  0  0  0
 17 18  1  0  0  0  0
 18  8  1  0  0  0  0
 19  9  1  0  0  0  0
 20 23  1  0  0  0  0
 22 21  2  0  0  0  0
 22  5  1  0  0  0  0
 23 21  1  0  0  0  0
 24 25  2  0  0  0  0
 25 20  1  0  0  0  0
 25 26  1  0  0  0  0
 26 22  1  0  0  0  0
 27 28  1  0  0  0  0
 28 20  1  0  0  0  0
M  END
>  <MODEL>
7

>  <REMARK>
 VINA RESULT:      -7.8      2.130      5.220
  Name = 
  3 active torsions:
  status: ('A' for Active; 'I' for Inactive)
    1  A    between atoms: N_8  and  C_12
    2  A    between atoms: C_15  and  C_23
    3  A    between atoms: C_17  and  C_21
                            x       y       z     vdW  Elec       q    Type
                         _______ _______ _______ _____ _____    ______ ____

>  <TORSDO>
F 3

$$$$
=
 OpenBabel11042414473D

 28 31  0  0  1  0  0  0  0  0999 V2000
  189.9760  173.4050  139.8390 C   0  0  0  0  0  0  0  0  0  0  0  0
  187.9080  174.6510  139.7730 C   0  0  0  0  0  3  0  0  0  0  0  0
  190.8420  172.4820  139.2730 O   0  0  0  0  0  1  0  0  0  0  0  0
  189.4400  174.9540  141.6410 C   0  0  0  0  0  0  0  0  0  0  0  0
  188.2110  175.2610  140.9990 C   0  0  0  0  0  0  0  0  0  0  0  0
  188.7840  173.7310  139.1950 C   0  0  0  0  0  3  0  0  0  0  0  0
  190.3040  174.0180  141.0500 C   0  0  0  0  0  3  0  0  0  0  0  0
  189.6870  177.9540  143.6890 C   0  0  0  0  0  3  0  0  0  0  0  0
  190.5410  175.4480  145.2960 C   0  0  0  0  0  0  0  0  0  0  0  0
  190.8570  177.1150  147.1450 C   0  0  2  0  0  3  0  0  0  0  0  0
  191.9930  174.9140  147.2800 C   0  0  0  0  0  2  0  0  0  0  0  0
  190.3530  176.7120  145.7720 C   0  0  0  0  0  0  0  0  0  0  0  0
  191.1980  175.9420  148.0560 C   0  0  0  0  0  2  0  0  0  0  0  0
  189.9380  177.9280  147.7870 F   0  0  0  0  0  0  0  0  0  0  0  0
  190.0340  174.9500  143.9980 C   0  0  0  0  0  3  0  0  0  0  0  0
  189.6940  177.8010  145.0110 C   0  0  0  0  0  3  0  0  0  0  0  0
  189.8960  175.6470  142.8660 C   0  0  0  0  0  0  0  0  0  0  0  0
  190.4100  177.0450  142.7590 C   0  0  0  0  0  2  0  0  0  0  0  0
  191.1050  174.3650  146.1760 C   0  0  0  0  0  2  0  0  0  0  0  0
  185.9060  178.1870  143.0790 N   0  0  0  0  0  0  0  0  0  0  0  0
  186.9460  177.3490  141.0410 C   0  0  0  0  0  3  0  0  0  0  0  0
  187.1920  176.1510  141.5910 C   0  0  0  0  0  0  0  0  0  0  0  0
  185.9260  178.2850  141.6210 C   0  0  0  0  0  2  0  0  0  0  0  0
  186.0580  176.7880  144.9570 O   0  0  0  0  0  0  0  0  0  0  0  0
  186.1500  176.9180  143.7070 C   0  0  0  0  0  0  0  0  0  0  0  0
  186.4940  175.7300  142.8610 C   0  0  0  0  0  2  0  0  0  0  0  0
  184.1820  179.4480  144.0190 O   0  0  0  0  0  1  0  0  0  0  0  0
  185.5650  179.3700  143.8550 C   0  0  0  0  0  2  0  0  0  0  0  0
  1  7  1  0  0  0  0
  2  5  2  0  0  0  0
  3  1  1  0  0  0  0
  4 17  1  0  0  0  0
  5 22  1  0  0  0  0
  5  4  1  0  0  0  0
  6  2  1  0  0  0  0
  6  1  2  0  0  0  0
  7  4  2  0  0  0  0
  8 16  2  0  0  0  0
  9 12  2  0  0  0  0
  9 19  1  0  0  0  0
 10 14  1  1  0  0  0
 10 13  1  0  0  0  0
 11 13  1  0  0  0  0
 12 10  1  0  0  0  0
 15  9  1  0  0  0  0
 16 12  1  0  0  0  0
 17 15  2  0  0  0  0
 18 17  1  0  0  0  0
 18  8  1  0  0  0  0
 19 11  1  0  0  0  0
 20 25  1  0  0  0  0
 20 28  1  0  0  0  0
 21 22  2  0  0  0  0
 21 23  1  0  0  0  0
 22 26  1  0  0  0  0
 23 20  1  0  0  0  0
 25 24  2  0  0  0  0
 26 25  1  0  0  0  0
 28 27  1  0  0  0  0
M  END
>  <MODEL>
8

>  <REMARK>
 VINA RESULT:      -7.6      3.414      5.398
  Name = 
  3 active torsions:
  status: ('A' for Active; 'I' for Inactive)
    1  A    between atoms: N_8  and  C_12
    2  A    between atoms: C_15  and  C_23
    3  A    between atoms: C_17  and  C_21
                            x       y       z     vdW  Elec       q    Type
                         _______ _______ _______ _____ _____    ______ ____

>  <TORSDO>
F 3

$$$$
=
 OpenBabel11042414473D

 28 31  0  0  1  0  0  0  0  0999 V2000
  186.5950  177.8700  145.0070 C   0  0  0  0  0  0  0  0  0  0  0  0
  186.4630  176.5190  143.0090 C   0  0  0  0  0  3  0  0  0  0  0  0
  186.0550  178.8380  145.8420 O   0  0  0  0  0  1  0  0  0  0  0  0
  188.3800  176.2950  144.4940 C   0  0  0  0  0  0  0  0  0  0  0  0
  187.6990  175.9240  143.3040 C   0  0  0  0  0  0  0  0  0  0  0  0
  185.9130  177.4830  143.8540 C   0  0  0  0  0  3  0  0  0  0  0  0
  187.8160  177.2750  145.3270 C   0  0  0  0  0  3  0  0  0  0  0  0
  190.3470  173.2790  145.0320 C   0  0  0  0  0  3  0  0  0  0  0  0
  192.1040  175.8110  145.3390 C   0  0  0  0  0  0  0  0  0  0  0  0
  193.9210  174.1300  145.7520 C   0  0  2  0  0  3  0  0  0  0  0  0
  194.2290  176.4720  146.5120 C   0  0  0  0  0  2  0  0  0  0  0  0
  192.5200  174.5130  145.3110 C   0  0  0  0  0  0  0  0  0  0  0  0
  194.8950  175.3000  145.8240 C   0  0  0  0  0  2  0  0  0  0  0  0
  194.4490  173.1580  144.9210 F   0  0  0  0  0  0  0  0  0  0  0  0
  190.7800  176.2830  144.8740 C   0  0  0  0  0  3  0  0  0  0  0  0
  191.6690  173.3710  144.9000 C   0  0  0  0  0  3  0  0  0  0  0  0
  189.6200  175.6250  144.9450 C   0  0  0  0  0  0  0  0  0  0  0  0
  189.5170  174.3290  145.6800 C   0  0  0  0  0  2  0  0  0  0  0  0
  193.0650  176.9270  145.6480 C   0  0  0  0  0  2  0  0  0  0  0  0
  189.6500  172.8380  141.0980 N   0  0  0  0  0  0  0  0  0  0  0  0
  187.6440  173.8140  142.0770 C   0  0  0  0  0  3  0  0  0  0  0  0
  188.2590  174.9820  142.3150 C   0  0  0  0  0  0  0  0  0  0  0  0
  188.1890  172.8260  141.0870 C   0  0  0  0  0  2  0  0  0  0  0  0
  191.6040  174.1270  141.2660 O   0  0  0  0  0  0  0  0  0  0  0  0
  190.3470  174.0730  141.3320 C   0  0  0  0  0  0  0  0  0  0  0  0
  189.5650  175.3140  141.6370 C   0  0  0  0  0  2  0  0  0  0  0  0
  190.4280  170.8030  141.9350 O   0  0  0  0  0  1  0  0  0  0  0  0
  190.3620  171.6060  140.7950 C   0  0  0  0  0  2  0  0  0  0  0  0
  1  7  1  0  0  0  0
  1  3  1  0  0  0  0
  2  5  2  0  0  0  0
  2  6  1  0  0  0  0
  4 17  1  0  0  0  0
  4  7  2  0  0  0  0
  5  4  1  0  0  0  0
  6  1  2  0  0  0  0
  8 18  1  0  0  0  0
  9 19  1  0  0  0  0
 10 14  1  6  0  0  0
 10 13  1  0  0  0  0
 12  9  2  0  0  0  0
 12 10  1  0  0  0  0
 13 11  1  0  0  0  0
 15 17  2  0  0  0  0
 15  9  1  0  0  0  0
 16  8  2  0  0  0  0
 16 12  1  0  0  0  0
 17 18  1  0  0  0  0
 19 11  1  0  0  0  0
 20 25  1  0  0  0  0
 21 22  2  0  0  0  0
 22  5  1  0  0  0  0
 23 20  1  0  0  0  0
 23 21  1  0  0  0  0
 24 25  2  0  0  0  0
 25 26  1  0  0  0  0
 26 22  1  0  0  0  0
 28 20  1  0  0  0  0
 28 27  1  0  0  0  0
M  END
>  <MODEL>
9

>  <REMARK>
 VINA RESULT:      -7.5      3.478      6.806
  Name = 
  3 active torsions:
  status: ('A' for Active; 'I' for Inactive)
    1  A    between atoms: N_8  and  C_12
    2  A    between atoms: C_15  and  C_23
    3  A    between atoms: C_17  and  C_21
                            x       y       z     vdW  Elec       q    Type
                         _______ _______ _______ _____ _____    ______ ____

>  <TORSDO>
F 3

$$$$
