=
 OpenBabel11042413383D

 42 46  0  0  1  0  0  0  0  0999 V2000
  189.7550  177.2010  143.6470 C   0  0  2  0  0  3  0  0  0  0  0  0
  189.3140  176.3320  144.8300 C   0  0  2  0  0  3  0  0  0  0  0  0
  188.0720  176.8610  145.5510 C   0  0  1  0  0  3  0  0  0  0  0  0
  189.4480  177.1020  146.1350 C   0  0  1  0  0  3  0  0  0  0  0  0
  189.6630  176.1490  147.3020 C   0  0  1  0  0  3  0  0  0  0  0  0
  189.2440  174.7430  146.9130 C   0  0  0  0  0  1  0  0  0  0  0  0
  192.0880  175.2010  147.1430 C   0  0  0  0  0  1  0  0  0  0  0  0
  191.4660  176.9430  148.5880 O   0  0  0  0  0  0  0  0  0  0  0  0
  191.0990  176.1550  147.7330 C   0  0  0  0  0  0  0  0  0  0  0  0
  187.5790  178.0800  145.0030 O   0  0  0  0  0  0  0  0  0  0  0  0
  184.1200  179.0070  144.0210 C   0  0  0  0  0  3  0  0  0  0  0  0
  185.3040  178.9360  144.7590 C   0  0  0  0  0  3  0  0  0  0  0  0
  186.3770  178.1580  144.2970 C   0  0  0  0  0  0  0  0  0  0  0  0
  182.7330  178.3700  142.0440 C   0  0  0  0  0  1  0  0  0  0  0  0
  186.2490  177.4550  143.0950 C   0  0  0  0  0  3  0  0  0  0  0  0
  185.0600  177.5220  142.3620 C   0  0  0  0  0  3  0  0  0  0  0  0
  183.9960  178.2960  142.8250 C   0  0  0  0  0  0  0  0  0  0  0  0
  189.6360  176.4440  142.3220 C   0  0  0  0  0  2  0  0  0  0  0  0
  189.1140  175.0310  142.5150 C   0  0  0  0  0  2  0  0  0  0  0  0
  188.5380  174.5410  141.2730 N   0  0  0  0  0  2  0  0  0  0  0  0
  189.6290  173.9770  140.5020 C   0  0  0  0  0  1  0  0  0  0  0  0
  191.1720  177.7570  143.8500 C   0  0  0  0  0  2  0  0  0  0  0  0
  192.2280  177.1290  142.9390 C   0  0  0  0  0  2  0  0  0  0  0  0
  196.7740  172.6940  145.9880 C   0  0  0  0  0  2  0  0  0  0  0  0
  196.5230  171.9150  144.6690 C   0  0  0  0  0  2  0  0  0  0  0  0
  193.0100  176.0450  143.6550 C   0  0  1  0  0  3  0  0  0  0  0  0
  190.4890  170.8880  142.4640 C   0  0  0  0  0  2  0  0  0  0  0  0
  191.0440  172.0000  143.3540 C   0  0  0  0  0  2  0  0  0  0  0  0
  194.9880  175.9000  145.0900 O   0  0  0  0  0  0  0  0  0  0  0  0
  192.9690  173.5720  143.6750 C   0  0  0  0  0  2  0  0  0  0  0  0
  193.0150  174.7960  142.7800 C   0  0  0  0  0  2  0  0  0  0  0  0
  194.5660  171.6640  141.7600 N   0  0  0  0  0  0  0  0  0  0  0  0
  191.4370  169.8620  142.3610 O   0  0  0  0  0  0  0  0  0  0  0  0
  194.4210  176.5570  143.9570 C   0  0  0  0  0  2  0  0  0  0  0  0
  195.6990  174.7050  144.9870 C   0  0  0  0  0  0  0  0  0  0  0  0
  196.0610  174.0300  146.0840 C   0  0  0  0  0  3  0  0  0  0  0  0
  192.4650  172.3510  142.9850 C   0  0  0  0  0  0  0  0  0  0  0  0
  192.4550  170.3670  141.5360 C   0  0  0  0  0  2  0  0  0  0  0  0
  195.5880  172.1220  142.3770 N   0  0  0  0  0  0  0  0  0  0  0  0
  195.5900  172.6640  143.7170 C   0  0  2  0  0  3  0  0  0  0  0  0
  193.1970  171.4970  142.2050 C   0  0  0  0  0  0  0  0  0  0  0  0
  196.0100  174.1190  143.6530 C   0  0  0  0  0  2  0  0  0  0  0  0
  1 18  1  6  0  0  0
  1 22  1  0  0  0  0
  2  1  1  6  0  0  0
  2  3  1  0  0  0  0
  2  4  1  0  0  0  0
  3 10  1  6  0  0  0
  3  4  1  0  0  0  0
  4  5  1  1  0  0  0
  5  6  1  6  0  0  0
  5  9  1  0  0  0  0
  7  9  1  0  0  0  0
  9  8  2  0  0  0  0
 11 12  1  0  0  0  0
 13 12  2  0  0  0  0
 13 10  1  0  0  0  0
 14 17  1  0  0  0  0
 15 13  1  0  0  0  0
 16 17  1  0  0  0  0
 16 15  2  0  0  0  0
 17 11  2  0  0  0  0
 18 19  1  0  0  0  0
 20 19  1  0  0  0  0
 21 20  1  0  0  0  0
 23 22  1  0  0  0  0
 24 36  1  0  0  0  0
 25 24  1  0  0  0  0
 26 23  1  6  0  0  0
 26 34  1  0  0  0  0
 27 28  1  0  0  0  0
 31 26  1  0  0  0  0
 31 30  1  0  0  0  0
 32 41  1  0  0  0  0
 32 39  2  0  0  0  0
 33 27  1  0  0  0  0
 34 29  1  0  0  0  0
 35 29  1  0  0  0  0
 35 36  2  0  0  0  0
 37 28  1  0  0  0  0
 37 30  1  0  0  0  0
 38 41  1  0  0  0  0
 38 33  1  0  0  0  0
 39 40  1  0  0  0  0
 40 42  1  6  0  0  0
 40 25  1  0  0  0  0
 41 37  2  0  0  0  0
 42 35  1  0  0  0  0
M  END
>  <MODEL>
1

>  <REMARK>
 VINA RESULT:      -7.2      0.000      0.000
  Name = 
  11 active torsions:
  status: ('A' for Active; 'I' for Inactive)
    1  A    between atoms: C_2  and  C_10
    2  A    between atoms: C_2  and  C_36
    3  A    between atoms: N_6  and  C_37
    4  A    between atoms: O_7  and  C_18
    5  A    between atoms: O_7  and  C_24
    6  A    between atoms: C_9  and  C_23
    7  A    between atoms: C_13  and  C_32
    8  A    between atoms: C_13  and  C_37
    9  A    between atoms: C_14  and  C_32
   10  A    between atoms: C_23  and  C_29
   11  A    between atoms: C_32  and  C_36
                            x       y       z     vdW  Elec       q    Type
                         _______ _______ _______ _____ _____    ______ ____

>  <TORSDO>
F 11

$$$$
=
 OpenBabel11042413383D

 42 46  0  0  1  0  0  0  0  0999 V2000
  188.5370  176.3870  144.4620 C   0  0  2  0  0  3  0  0  0  0  0  0
  187.1660  176.1690  143.8110 C   0  0  2  0  0  3  0  0  0  0  0  0
  187.2430  175.5890  142.3960 C   0  0  1  0  0  3  0  0  0  0  0  0
  187.0040  177.0710  142.5960 C   0  0  1  0  0  3  0  0  0  0  0  0
  185.5350  177.3720  142.3420 C   0  0  1  0  0  3  0  0  0  0  0  0
  185.0150  178.3530  143.3780 C   0  0  0  0  0  1  0  0  0  0  0  0
  183.9900  178.3710  140.4930 C   0  0  0  0  0  1  0  0  0  0  0  0
  186.2920  178.0170  140.2100 O   0  0  0  0  0  0  0  0  0  0  0  0
  185.3380  177.9300  140.9640 C   0  0  0  0  0  0  0  0  0  0  0  0
  188.5790  175.3910  141.9410 O   0  0  0  0  0  0  0  0  0  0  0  0
  189.6090  172.2100  140.3240 C   0  0  0  0  0  3  0  0  0  0  0  0
  189.0370  173.4730  140.4990 C   0  0  0  0  0  3  0  0  0  0  0  0
  189.1260  174.1220  141.7400 C   0  0  0  0  0  0  0  0  0  0  0  0
  190.8700  170.2400  141.1990 C   0  0  0  0  0  1  0  0  0  0  0  0
  189.7910  173.4940  142.7970 C   0  0  0  0  0  3  0  0  0  0  0  0
  190.3580  172.2270  142.6220 C   0  0  0  0  0  3  0  0  0  0  0  0
  190.2650  171.5850  141.3870 C   0  0  0  0  0  0  0  0  0  0  0  0
  188.5030  176.0610  145.9570 C   0  0  0  0  0  2  0  0  0  0  0  0
  188.5070  177.3130  146.8160 C   0  0  0  0  0  2  0  0  0  0  0  0
  187.1590  177.8460  146.9240 N   0  0  0  0  0  2  0  0  0  0  0  0
  186.3390  176.7940  147.4940 C   0  0  0  0  0  1  0  0  0  0  0  0
  189.0640  177.8060  144.2080 C   0  0  0  0  0  2  0  0  0  0  0  0
  190.2510  177.8700  143.2460 C   0  0  0  0  0  2  0  0  0  0  0  0
  195.7440  174.3600  145.9150 C   0  0  0  0  0  2  0  0  0  0  0  0
  196.3840  174.8330  144.5830 C   0  0  0  0  0  2  0  0  0  0  0  0
  191.3670  176.9350  143.6710 C   0  0  1  0  0  3  0  0  0  0  0  0
  193.2790  174.0940  138.9130 C   0  0  0  0  0  2  0  0  0  0  0  0
  192.7310  174.2300  140.3340 C   0  0  0  0  0  2  0  0  0  0  0  0
  192.5440  176.3580  145.7390 O   0  0  0  0  0  0  0  0  0  0  0  0
  192.9790  175.4760  142.4940 C   0  0  0  0  0  2  0  0  0  0  0  0
  192.4000  176.8760  142.5510 C   0  0  0  0  0  2  0  0  0  0  0  0
  195.8200  176.3020  141.4400 N   0  0  0  0  0  0  0  0  0  0  0  0
  194.6590  173.8630  138.9710 O   0  0  0  0  0  0  0  0  0  0  0  0
  191.9590  177.4270  144.9940 C   0  0  0  0  0  2  0  0  0  0  0  0
  193.8680  175.9590  145.5660 C   0  0  0  0  0  0  0  0  0  0  0  0
  194.3260  174.8460  146.1500 C   0  0  0  0  0  3  0  0  0  0  0  0
  193.5910  175.1400  141.1770 C   0  0  0  0  0  0  0  0  0  0  0  0
  195.2330  175.0870  139.3510 C   0  0  0  0  0  2  0  0  0  0  0  0
  196.1010  176.4080  142.6830 N   0  0  0  0  0  0  0  0  0  0  0  0
  195.4380  175.7070  143.7590 C   0  0  2  0  0  3  0  0  0  0  0  0
  194.8560  175.4570  140.7630 C   0  0  0  0  0  0  0  0  0  0  0  0
  194.7820  176.7230  144.6720 C   0  0  0  0  0  2  0  0  0  0  0  0
  1 22  1  1  0  0  0
  1 18  1  0  0  0  0
  2  1  1  6  0  0  0
  3 10  1  6  0  0  0
  3  4  1  0  0  0  0
  3  2  1  0  0  0  0
  4  5  1  1  0  0  0
  4  2  1  0  0  0  0
  5  6  1  1  0  0  0
  7  9  1  0  0  0  0
  8  9  2  0  0  0  0
  9  5  1  0  0  0  0
 11 12  2  0  0  0  0
 11 17  1  0  0  0  0
 12 13  1  0  0  0  0
 13 10  1  0  0  0  0
 13 15  2  0  0  0  0
 14 17  1  0  0  0  0
 16 15  1  0  0  0  0
 17 16  2  0  0  0  0
 18 19  1  0  0  0  0
 19 20  1  0  0  0  0
 20 21  1  0  0  0  0
 23 22  1  0  0  0  0
 24 36  1  0  0  0  0
 25 24  1  0  0  0  0
 26 23  1  6  0  0  0
 26 34  1  0  0  0  0
 27 33  1  0  0  0  0
 27 28  1  0  0  0  0
 28 37  1  0  0  0  0
 30 31  1  0  0  0  0
 31 26  1  0  0  0  0
 32 39  2  0  0  0  0
 33 38  1  0  0  0  0
 34 29  1  0  0  0  0
 35 29  1  0  0  0  0
 35 36  2  0  0  0  0
 37 30  1  0  0  0  0
 38 41  1  0  0  0  0
 39 40  1  0  0  0  0
 40 25  1  1  0  0  0
 40 42  1  0  0  0  0
 41 37  2  0  0  0  0
 41 32  1  0  0  0  0
 42 35  1  0  0  0  0
M  END
>  <MODEL>
2

>  <REMARK>
 VINA RESULT:      -7.0      2.546      5.675
  Name = 
  11 active torsions:
  status: ('A' for Active; 'I' for Inactive)
    1  A    between atoms: C_2  and  C_10
    2  A    between atoms: C_2  and  C_36
    3  A    between atoms: N_6  and  C_37
    4  A    between atoms: O_7  and  C_18
    5  A    between atoms: O_7  and  C_24
    6  A    between atoms: C_9  and  C_23
    7  A    between atoms: C_13  and  C_32
    8  A    between atoms: C_13  and  C_37
    9  A    between atoms: C_14  and  C_32
   10  A    between atoms: C_23  and  C_29
   11  A    between atoms: C_32  and  C_36
                            x       y       z     vdW  Elec       q    Type
                         _______ _______ _______ _____ _____    ______ ____

>  <TORSDO>
F 11

$$$$
=
 OpenBabel11042413383D

 42 46  0  0  1  0  0  0  0  0999 V2000
  189.4660  175.0770  142.3270 C   0  0  2  0  0  3  0  0  0  0  0  0
  189.0420  175.3380  143.7770 C   0  0  2  0  0  3  0  0  0  0  0  0
  188.2120  176.6120  143.9540 C   0  0  1  0  0  3  0  0  0  0  0  0
  189.6860  176.6150  144.2980 C   0  0  1  0  0  3  0  0  0  0  0  0
  189.8400  176.5600  145.8110 C   0  0  1  0  0  3  0  0  0  0  0  0
  189.0820  175.3710  146.3720 C   0  0  0  0  0  1  0  0  0  0  0  0
  192.3660  176.5350  145.1600 C   0  0  0  0  0  1  0  0  0  0  0  0
  191.5920  176.3370  147.3660 O   0  0  0  0  0  0  0  0  0  0  0  0
  191.2870  176.4720  146.1930 C   0  0  0  0  0  0  0  0  0  0  0  0
  188.0160  177.3300  142.7390 O   0  0  0  0  0  0  0  0  0  0  0  0
  185.2680  178.0680  140.3520 C   0  0  0  0  0  3  0  0  0  0  0  0
  186.5510  177.8180  140.8450 C   0  0  0  0  0  3  0  0  0  0  0  0
  186.7490  177.5990  142.2170 C   0  0  0  0  0  0  0  0  0  0  0  0
  182.8140  178.3790  140.6970 C   0  0  0  0  0  1  0  0  0  0  0  0
  185.6520  177.6350  143.0840 C   0  0  0  0  0  3  0  0  0  0  0  0
  184.3690  177.8920  142.5890 C   0  0  0  0  0  3  0  0  0  0  0  0
  184.1780  178.1090  141.2250 C   0  0  0  0  0  0  0  0  0  0  0  0
  188.4670  174.1660  141.6090 C   0  0  0  0  0  2  0  0  0  0  0  0
  188.2340  174.5950  140.1710 C   0  0  0  0  0  2  0  0  0  0  0  0
  188.6450  173.5350  139.2640 N   0  0  0  0  0  2  0  0  0  0  0  0
  188.2760  173.9630  137.9280 C   0  0  0  0  0  1  0  0  0  0  0  0
  190.8930  174.5190  142.2470 C   0  0  0  0  0  2  0  0  0  0  0  0
  190.9700  172.9910  142.2610 C   0  0  0  0  0  2  0  0  0  0  0  0
  196.4570  170.5490  145.9410 C   0  0  0  0  0  2  0  0  0  0  0  0
  196.7540  172.0690  146.0440 C   0  0  0  0  0  2  0  0  0  0  0  0
  192.2780  172.5010  142.8500 C   0  0  1  0  0  3  0  0  0  0  0  0
  196.5910  175.8900  140.7810 C   0  0  0  0  0  2  0  0  0  0  0  0
  195.8650  174.5790  141.0780 C   0  0  0  0  0  2  0  0  0  0  0  0
  193.0150  170.7560  144.4000 O   0  0  0  0  0  0  0  0  0  0  0  0
  194.6180  173.3010  142.8370 C   0  0  0  0  0  2  0  0  0  0  0  0
  193.1790  173.7070  143.0930 C   0  0  0  0  0  2  0  0  0  0  0  0
  195.9240  175.2840  144.8930 N   0  0  0  0  0  0  0  0  0  0  0  0
  197.5960  176.0890  141.7380 O   0  0  0  0  0  0  0  0  0  0  0  0
  191.9910  171.7130  144.1310 C   0  0  0  0  0  2  0  0  0  0  0  0
  194.1610  171.0660  145.1300 C   0  0  0  0  0  0  0  0  0  0  0  0
  195.1750  170.1980  145.2100 C   0  0  0  0  0  3  0  0  0  0  0  0
  195.5160  174.4540  142.5410 C   0  0  0  0  0  0  0  0  0  0  0  0
  196.9270  176.4280  142.9250 C   0  0  0  0  0  2  0  0  0  0  0  0
  195.7600  174.3220  145.7190 N   0  0  0  0  0  0  0  0  0  0  0  0
  195.6760  172.9210  145.3740 C   0  0  2  0  0  3  0  0  0  0  0  0
  196.1260  175.2670  143.4580 C   0  0  0  0  0  0  0  0  0  0  0  0
  194.3110  172.4000  145.7770 C   0  0  0  0  0  2  0  0  0  0  0  0
  1 18  1  1  0  0  0
  2  1  1  6  0  0  0
  2  3  1  0  0  0  0
  2  4  1  0  0  0  0
  3 10  1  6  0  0  0
  3  4  1  0  0  0  0
  4  5  1  1  0  0  0
  5  9  1  0  0  0  0
  5  6  1  6  0  0  0
  7  9  1  0  0  0  0
  9  8  2  0  0  0  0
 11 12  2  0  0  0  0
 11 17  1  0  0  0  0
 12 13  1  0  0  0  0
 13 10  1  0  0  0  0
 13 15  2  0  0  0  0
 14 17  1  0  0  0  0
 16 15  1  0  0  0  0
 17 16  2  0  0  0  0
 19 18  1  0  0  0  0
 20 19  1  0  0  0  0
 21 20  1  0  0  0  0
 22 23  1  0  0  0  0
 22  1  1  0  0  0  0
 24 25  1  0  0  0  0
 26 23  1  1  0  0  0
 26 31  1  0  0  0  0
 26 34  1  0  0  0  0
 27 28  1  0  0  0  0
 27 33  1  0  0  0  0
 28 37  1  0  0  0  0
 29 35  1  0  0  0  0
 30 31  1  0  0  0  0
 32 39  2  0  0  0  0
 33 38  1  0  0  0  0
 34 29  1  0  0  0  0
 35 36  2  0  0  0  0
 35 42  1  0  0  0  0
 36 24  1  0  0  0  0
 37 30  1  0  0  0  0
 37 41  2  0  0  0  0
 38 41  1  0  0  0  0
 40 39  1  0  0  0  0
 40 42  1  1  0  0  0
 40 25  1  0  0  0  0
 41 32  1  0  0  0  0
M  END
>  <MODEL>
3

>  <REMARK>
 VINA RESULT:      -6.9      2.017      3.725
  Name = 
  11 active torsions:
  status: ('A' for Active; 'I' for Inactive)
    1  A    between atoms: C_2  and  C_10
    2  A    between atoms: C_2  and  C_36
    3  A    between atoms: N_6  and  C_37
    4  A    between atoms: O_7  and  C_18
    5  A    between atoms: O_7  and  C_24
    6  A    between atoms: C_9  and  C_23
    7  A    between atoms: C_13  and  C_32
    8  A    between atoms: C_13  and  C_37
    9  A    between atoms: C_14  and  C_32
   10  A    between atoms: C_23  and  C_29
   11  A    between atoms: C_32  and  C_36
                            x       y       z     vdW  Elec       q    Type
                         _______ _______ _______ _____ _____    ______ ____

>  <TORSDO>
F 11

$$$$
=
 OpenBabel11042413383D

 42 46  0  0  1  0  0  0  0  0999 V2000
  190.6800  174.5860  145.4050 C   0  0  2  0  0  3  0  0  0  0  0  0
  190.6360  175.5270  144.1950 C   0  0  2  0  0  3  0  0  0  0  0  0
  189.7610  176.7640  144.4110 C   0  0  1  0  0  3  0  0  0  0  0  0
  189.2300  175.5880  143.6180 C   0  0  1  0  0  3  0  0  0  0  0  0
  189.2710  175.9320  142.1370 C   0  0  1  0  0  3  0  0  0  0  0  0
  188.9460  174.7050  141.3050 C   0  0  0  0  0  1  0  0  0  0  0  0
  186.8370  176.7710  141.7150 C   0  0  0  0  0  1  0  0  0  0  0  0
  188.7230  178.1660  141.6400 O   0  0  0  0  0  0  0  0  0  0  0  0
  188.3050  177.0350  141.8220 C   0  0  0  0  0  0  0  0  0  0  0  0
  189.1270  176.7900  145.6860 O   0  0  0  0  0  0  0  0  0  0  0  0
  185.6520  177.0350  146.9750 C   0  0  0  0  0  3  0  0  0  0  0  0
  186.9670  176.5920  146.8120 C   0  0  0  0  0  3  0  0  0  0  0  0
  187.8030  177.1990  145.8610 C   0  0  0  0  0  0  0  0  0  0  0  0
  183.7600  178.5450  146.3600 C   0  0  0  0  0  1  0  0  0  0  0  0
  187.3070  178.2480  145.0800 C   0  0  0  0  0  3  0  0  0  0  0  0
  185.9880  178.6850  145.2410 C   0  0  0  0  0  3  0  0  0  0  0  0
  185.1610  178.0780  146.1860 C   0  0  0  0  0  0  0  0  0  0  0  0
  192.1140  174.3600  145.8860 C   0  0  0  0  0  2  0  0  0  0  0  0
  193.0730  175.4030  145.3390 C   0  0  0  0  0  2  0  0  0  0  0  0
  194.1770  175.5970  146.2650 N   0  0  0  0  0  2  0  0  0  0  0  0
  195.3740  175.1380  145.5880 C   0  0  0  0  0  1  0  0  0  0  0  0
  189.9690  173.2570  145.1130 C   0  0  0  0  0  2  0  0  0  0  0  0
  190.8750  172.1810  144.5130 C   0  0  0  0  0  2  0  0  0  0  0  0
  191.2060  171.6800  137.4940 C   0  0  0  0  0  2  0  0  0  0  0  0
  192.7240  171.7750  137.8020 C   0  0  0  0  0  2  0  0  0  0  0  0
  190.9780  172.3130  143.0060 C   0  0  1  0  0  3  0  0  0  0  0  0
  195.0650  176.3400  141.8030 C   0  0  0  0  0  2  0  0  0  0  0  0
  193.6830  175.6900  141.7410 C   0  0  0  0  0  2  0  0  0  0  0  0
  189.9420  171.2980  141.0330 O   0  0  0  0  0  0  0  0  0  0  0  0
  192.4760  173.5130  141.4470 C   0  0  0  0  0  2  0  0  0  0  0  0
  192.4340  172.5820  142.6430 C   0  0  0  0  0  2  0  0  0  0  0  0
  195.1670  172.4330  140.2420 N   0  0  0  0  0  0  0  0  0  0  0  0
  195.7800  176.0190  140.6420 O   0  0  0  0  0  0  0  0  0  0  0  0
  190.4320  171.0420  142.3500 C   0  0  0  0  0  2  0  0  0  0  0  0
  190.7590  171.2470  139.9050 C   0  0  0  0  0  0  0  0  0  0  0  0
  190.3080  171.6630  138.7170 C   0  0  0  0  0  3  0  0  0  0  0  0
  193.7670  174.2450  141.3090 C   0  0  0  0  0  0  0  0  0  0  0  0
  196.1280  174.6640  140.7740 C   0  0  0  0  0  2  0  0  0  0  0  0
  194.4040  171.6130  139.6250 N   0  0  0  0  0  0  0  0  0  0  0  0
  193.0140  171.8370  139.3020 C   0  0  2  0  0  3  0  0  0  0  0  0
  194.9100  173.7760  140.7220 C   0  0  0  0  0  0  0  0  0  0  0  0
  192.1740  170.7930  140.0120 C   0  0  0  0  0  2  0  0  0  0  0  0
  1 22  1  6  0  0  0
  1 18  1  0  0  0  0
  2  3  1  0  0  0  0
  2  1  1  1  0  0  0
  3 10  1  1  0  0  0
  4  5  1  6  0  0  0
  4  2  1  0  0  0  0
  4  3  1  0  0  0  0
  5  6  1  6  0  0  0
  7  9  1  0  0  0  0
  8  9  2  0  0  0  0
  9  5  1  0  0  0  0
 10 13  1  0  0  0  0
 12 11  1  0  0  0  0
 13 12  2  0  0  0  0
 15 16  2  0  0  0  0
 15 13  1  0  0  0  0
 16 17  1  0  0  0  0
 17 14  1  0  0  0  0
 17 11  2  0  0  0  0
 19 18  1  0  0  0  0
 19 20  1  0  0  0  0
 21 20  1  0  0  0  0
 23 22  1  0  0  0  0
 24 25  1  0  0  0  0
 24 36  1  0  0  0  0
 26 23  1  1  0  0  0
 28 27  1  0  0  0  0
 29 34  1  0  0  0  0
 30 31  1  0  0  0  0
 31 26  1  0  0  0  0
 32 41  1  0  0  0  0
 33 38  1  0  0  0  0
 33 27  1  0  0  0  0
 34 26  1  0  0  0  0
 35 42  1  0  0  0  0
 35 29  1  0  0  0  0
 36 35  2  0  0  0  0
 37 30  1  0  0  0  0
 37 28  1  0  0  0  0
 39 32  2  0  0  0  0
 40 25  1  6  0  0  0
 40 39  1  0  0  0  0
 40 42  1  0  0  0  0
 41 38  1  0  0  0  0
 41 37  2  0  0  0  0
M  END
>  <MODEL>
4

>  <REMARK>
 VINA RESULT:      -6.9      2.368      5.506
  Name = 
  11 active torsions:
  status: ('A' for Active; 'I' for Inactive)
    1  A    between atoms: C_2  and  C_10
    2  A    between atoms: C_2  and  C_36
    3  A    between atoms: N_6  and  C_37
    4  A    between atoms: O_7  and  C_18
    5  A    between atoms: O_7  and  C_24
    6  A    between atoms: C_9  and  C_23
    7  A    between atoms: C_13  and  C_32
    8  A    between atoms: C_13  and  C_37
    9  A    between atoms: C_14  and  C_32
   10  A    between atoms: C_23  and  C_29
   11  A    between atoms: C_32  and  C_36
                            x       y       z     vdW  Elec       q    Type
                         _______ _______ _______ _____ _____    ______ ____

>  <TORSDO>
F 11

$$$$
=
 OpenBabel11042413383D

 42 46  0  0  1  0  0  0  0  0999 V2000
  188.6270  176.9360  143.4940 C   0  0  2  0  0  3  0  0  0  0  0  0
  189.0060  177.1570  144.9630 C   0  0  2  0  0  3  0  0  0  0  0  0
  190.4980  177.4270  145.1780 C   0  0  1  0  0  3  0  0  0  0  0  0
  189.9300  176.0490  145.4470 C   0  0  1  0  0  3  0  0  0  0  0  0
  189.7950  175.8550  146.9500 C   0  0  1  0  0  3  0  0  0  0  0  0
  189.0960  174.5410  147.2480 C   0  0  0  0  0  1  0  0  0  0  0  0
  191.5730  177.0470  148.4410 C   0  0  0  0  0  1  0  0  0  0  0  0
  191.9020  174.9410  147.4600 O   0  0  0  0  0  0  0  0  0  0  0  0
  191.1410  175.8810  147.6100 C   0  0  0  0  0  0  0  0  0  0  0  0
  191.2560  177.3900  143.9730 O   0  0  0  0  0  0  0  0  0  0  0  0
  194.6700  176.3460  144.9990 C   0  0  0  0  0  3  0  0  0  0  0  0
  193.3630  176.8340  145.0780 C   0  0  0  0  0  3  0  0  0  0  0  0
  192.5710  176.9220  143.9230 C   0  0  0  0  0  0  0  0  0  0  0  0
  196.5890  175.4360  143.6840 C   0  0  0  0  0  1  0  0  0  0  0  0
  193.1020  176.5180  142.6940 C   0  0  0  0  0  3  0  0  0  0  0  0
  194.4120  176.0360  142.6150 C   0  0  0  0  0  3  0  0  0  0  0  0
  195.1960  175.9520  143.7660 C   0  0  0  0  0  0  0  0  0  0  0  0
  187.5260  177.9020  143.0500 C   0  0  0  0  0  2  0  0  0  0  0  0
  186.4560  178.0790  144.1130 C   0  0  0  0  0  2  0  0  0  0  0  0
  185.8280  179.3820  143.9730 N   0  0  0  0  0  2  0  0  0  0  0  0
  184.4170  179.1980  144.2530 C   0  0  0  0  0  1  0  0  0  0  0  0
  188.2360  175.4760  143.2250 C   0  0  0  0  0  2  0  0  0  0  0  0
  187.8240  175.1950  141.7780 C   0  0  0  0  0  2  0  0  0  0  0  0
  192.1410  171.6090  137.5210 C   0  0  0  0  0  2  0  0  0  0  0  0
  192.0550  170.5920  138.6910 C   0  0  0  0  0  2  0  0  0  0  0  0
  188.9310  174.5030  141.0060 C   0  0  1  0  0  3  0  0  0  0  0  0
  192.8610  172.4890  144.8620 C   0  0  0  0  0  2  0  0  0  0  0  0
  192.3740  173.2680  143.6400 C   0  0  0  0  0  2  0  0  0  0  0  0
  189.4570  174.0060  138.6680 O   0  0  0  0  0  0  0  0  0  0  0  0
  190.9110  173.1500  141.6080 C   0  0  0  0  0  2  0  0  0  0  0  0
  189.4190  173.3130  141.8240 C   0  0  0  0  0  2  0  0  0  0  0  0
  190.9960  170.0350  141.9950 N   0  0  0  0  0  0  0  0  0  0  0  0
  193.4190  171.2740  144.4430 O   0  0  0  0  0  0  0  0  0  0  0  0
  188.4040  174.0950  139.6280 C   0  0  0  0  0  2  0  0  0  0  0  0
  190.1970  172.8420  138.4690 C   0  0  0  0  0  0  0  0  0  0  0  0
  191.2850  172.8500  137.6910 C   0  0  0  0  0  3  0  0  0  0  0  0
  191.5890  172.3890  142.6960 C   0  0  0  0  0  0  0  0  0  0  0  0
  192.3340  170.4760  144.0450 C   0  0  0  0  0  2  0  0  0  0  0  0
  190.7730  170.0090  140.7360 N   0  0  0  0  0  0  0  0  0  0  0  0
  191.1110  171.0560  139.8000 C   0  0  2  0  0  3  0  0  0  0  0  0
  191.6670  171.0280  142.8100 C   0  0  0  0  0  0  0  0  0  0  0  0
  189.8330  171.5810  139.1750 C   0  0  0  0  0  2  0  0  0  0  0  0
  1 18  1  1  0  0  0
  2  1  1  6  0  0  0
  2  3  1  0  0  0  0
  2  4  1  0  0  0  0
  3 10  1  6  0  0  0
  3  4  1  0  0  0  0
  4  5  1  1  0  0  0
  5  6  1  6  0  0  0
  5  9  1  0  0  0  0
  8  9  2  0  0  0  0
  9  7  1  0  0  0  0
 11 12  1  0  0  0  0
 13 10  1  0  0  0  0
 13 12  2  0  0  0  0
 14 17  1  0  0  0  0
 15 13  1  0  0  0  0
 16 15  2  0  0  0  0
 16 17  1  0  0  0  0
 17 11  2  0  0  0  0
 18 19  1  0  0  0  0
 20 19  1  0  0  0  0
 20 21  1  0  0  0  0
 22  1  1  0  0  0  0
 23 22  1  0  0  0  0
 24 36  1  0  0  0  0
 24 25  1  0  0  0  0
 26 23  1  1  0  0  0
 26 31  1  0  0  0  0
 28 27  1  0  0  0  0
 29 34  1  0  0  0  0
 30 31  1  0  0  0  0
 30 37  1  0  0  0  0
 32 41  1  0  0  0  0
 33 27  1  0  0  0  0
 34 26  1  0  0  0  0
 35 29  1  0  0  0  0
 35 42  1  0  0  0  0
 36 35  2  0  0  0  0
 37 41  2  0  0  0  0
 37 28  1  0  0  0  0
 38 33  1  0  0  0  0
 39 32  2  0  0  0  0
 40 25  1  6  0  0  0
 40 39  1  0  0  0  0
 41 38  1  0  0  0  0
 42 40  1  0  0  0  0
M  END
>  <MODEL>
5

>  <REMARK>
 VINA RESULT:      -6.9      2.374      6.183
  Name = 
  11 active torsions:
  status: ('A' for Active; 'I' for Inactive)
    1  A    between atoms: C_2  and  C_10
    2  A    between atoms: C_2  and  C_36
    3  A    between atoms: N_6  and  C_37
    4  A    between atoms: O_7  and  C_18
    5  A    between atoms: O_7  and  C_24
    6  A    between atoms: C_9  and  C_23
    7  A    between atoms: C_13  and  C_32
    8  A    between atoms: C_13  and  C_37
    9  A    between atoms: C_14  and  C_32
   10  A    between atoms: C_23  and  C_29
   11  A    between atoms: C_32  and  C_36
                            x       y       z     vdW  Elec       q    Type
                         _______ _______ _______ _____ _____    ______ ____

>  <TORSDO>
F 11

$$$$
=
 OpenBabel11042413383D

 42 46  0  0  1  0  0  0  0  0999 V2000
  188.4350  177.0000  143.6690 C   0  0  2  0  0  3  0  0  0  0  0  0
  187.5250  177.7950  144.6120 C   0  0  2  0  0  3  0  0  0  0  0  0
  187.3410  177.1420  145.9840 C   0  0  1  0  0  3  0  0  0  0  0  0
  186.2640  177.0040  144.9290 C   0  0  1  0  0  3  0  0  0  0  0  0
  185.1140  177.9390  145.2710 C   0  0  1  0  0  3  0  0  0  0  0  0
  185.4580  178.7650  146.4970 C   0  0  0  0  0  1  0  0  0  0  0  0
  184.3620  178.2900  142.7980 C   0  0  0  0  0  1  0  0  0  0  0  0
  184.9210  180.0490  144.2470 O   0  0  0  0  0  0  0  0  0  0  0  0
  184.8030  178.8430  144.1160 C   0  0  0  0  0  0  0  0  0  0  0  0
  188.0270  175.9000  146.1130 O   0  0  0  0  0  0  0  0  0  0  0  0
  191.5400  174.7020  145.9800 C   0  0  0  0  0  3  0  0  0  0  0  0
  190.1570  174.7460  145.7910 C   0  0  0  0  0  3  0  0  0  0  0  0
  189.4090  175.8190  146.3000 C   0  0  0  0  0  0  0  0  0  0  0  0
  193.6560  175.6700  146.8870 C   0  0  0  0  0  1  0  0  0  0  0  0
  190.0610  176.8400  146.9980 C   0  0  0  0  0  3  0  0  0  0  0  0
  191.4450  176.7910  147.1920 C   0  0  0  0  0  3  0  0  0  0  0  0
  192.1840  175.7220  146.6850 C   0  0  0  0  0  0  0  0  0  0  0  0
  189.4420  177.9120  142.9650 C   0  0  0  0  0  2  0  0  0  0  0  0
  190.8680  177.6450  143.4140 C   0  0  0  0  0  2  0  0  0  0  0  0
  191.3780  176.4490  142.7630 N   0  0  0  0  0  2  0  0  0  0  0  0
  192.8070  176.4160  143.0130 C   0  0  0  0  0  1  0  0  0  0  0  0
  187.6220  176.1760  142.6610 C   0  0  0  0  0  2  0  0  0  0  0  0
  187.8550  174.6670  142.7550 C   0  0  0  0  0  2  0  0  0  0  0  0
  191.7050  172.1810  137.4050 C   0  0  0  0  0  2  0  0  0  0  0  0
  191.8040  170.9620  138.3610 C   0  0  0  0  0  2  0  0  0  0  0  0
  188.8750  174.1940  141.7380 C   0  0  1  0  0  3  0  0  0  0  0  0
  193.3350  171.7310  144.6380 C   0  0  0  0  0  2  0  0  0  0  0  0
  192.6690  172.6930  143.6550 C   0  0  0  0  0  2  0  0  0  0  0  0
  189.1120  174.1680  139.3010 O   0  0  0  0  0  0  0  0  0  0  0  0
  190.9610  172.8690  141.8290 C   0  0  0  0  0  2  0  0  0  0  0  0
  189.5040  172.9030  142.2500 C   0  0  0  0  0  2  0  0  0  0  0  0
  191.1990  169.7460  141.6030 N   0  0  0  0  0  0  0  0  0  0  0  0
  193.8740  170.6480  143.9320 O   0  0  0  0  0  0  0  0  0  0  0  0
  188.1890  174.0170  140.3800 C   0  0  0  0  0  2  0  0  0  0  0  0
  189.8590  173.1050  138.7970 C   0  0  0  0  0  0  0  0  0  0  0  0
  190.8360  173.3180  137.9100 C   0  0  0  0  0  3  0  0  0  0  0  0
  191.7980  171.9600  142.6620 C   0  0  0  0  0  0  0  0  0  0  0  0
  192.7740  169.8760  143.5230 C   0  0  0  0  0  2  0  0  0  0  0  0
  190.8160  169.9390  140.3980 N   0  0  0  0  0  0  0  0  0  0  0  0
  190.9950  171.1590  139.6440 C   0  0  2  0  0  3  0  0  0  0  0  0
  191.9360  170.6080  142.5050 C   0  0  0  0  0  0  0  0  0  0  0  0
  189.6310  171.7170  139.2890 C   0  0  0  0  0  2  0  0  0  0  0  0
  1 22  1  6  0  0  0
  2  1  1  6  0  0  0
  2  4  1  0  0  0  0
  2  3  1  0  0  0  0
  3 10  1  6  0  0  0
  4  5  1  1  0  0  0
  4  3  1  0  0  0  0
  5  6  1  1  0  0  0
  7  9  1  0  0  0  0
  9  8  2  0  0  0  0
  9  5  1  0  0  0  0
 10 13  1  0  0  0  0
 11 17  1  0  0  0  0
 12 11  2  0  0  0  0
 12 13  1  0  0  0  0
 13 15  2  0  0  0  0
 15 16  1  0  0  0  0
 17 14  1  0  0  0  0
 17 16  2  0  0  0  0
 18 19  1  0  0  0  0
 18  1  1  0  0  0  0
 20 21  1  0  0  0  0
 20 19  1  0  0  0  0
 22 23  1  0  0  0  0
 24 36  1  0  0  0  0
 24 25  1  0  0  0  0
 26 31  1  0  0  0  0
 26 23  1  1  0  0  0
 28 27  1  0  0  0  0
 29 34  1  0  0  0  0
 30 31  1  0  0  0  0
 30 37  1  0  0  0  0
 32 41  1  0  0  0  0
 33 27  1  0  0  0  0
 34 26  1  0  0  0  0
 35 42  1  0  0  0  0
 35 29  1  0  0  0  0
 36 35  2  0  0  0  0
 37 28  1  0  0  0  0
 38 33  1  0  0  0  0
 39 32  2  0  0  0  0
 40 25  1  6  0  0  0
 40 39  1  0  0  0  0
 41 37  2  0  0  0  0
 41 38  1  0  0  0  0
 42 40  1  0  0  0  0
M  END
>  <MODEL>
6

>  <REMARK>
 VINA RESULT:      -6.7      2.309      6.098
  Name = 
  11 active torsions:
  status: ('A' for Active; 'I' for Inactive)
    1  A    between atoms: C_2  and  C_10
    2  A    between atoms: C_2  and  C_36
    3  A    between atoms: N_6  and  C_37
    4  A    between atoms: O_7  and  C_18
    5  A    between atoms: O_7  and  C_24
    6  A    between atoms: C_9  and  C_23
    7  A    between atoms: C_13  and  C_32
    8  A    between atoms: C_13  and  C_37
    9  A    between atoms: C_14  and  C_32
   10  A    between atoms: C_23  and  C_29
   11  A    between atoms: C_32  and  C_36
                            x       y       z     vdW  Elec       q    Type
                         _______ _______ _______ _____ _____    ______ ____

>  <TORSDO>
F 11

$$$$
=
 OpenBabel11042413383D

 42 46  0  0  1  0  0  0  0  0999 V2000
  188.9470  176.9900  142.7240 C   0  0  2  0  0  3  0  0  0  0  0  0
  188.9290  177.4860  144.1740 C   0  0  2  0  0  3  0  0  0  0  0  0
  190.3170  177.8340  144.7210 C   0  0  1  0  0  3  0  0  0  0  0  0
  189.6700  176.5120  145.0790 C   0  0  1  0  0  3  0  0  0  0  0  0
  189.1400  176.5910  146.5030 C   0  0  1  0  0  3  0  0  0  0  0  0
  187.6220  176.5560  146.4990 C   0  0  0  0  0  1  0  0  0  0  0  0
  191.1000  175.4480  147.7900 C   0  0  0  0  0  1  0  0  0  0  0  0
  188.9440  174.5360  147.6310 O   0  0  0  0  0  0  0  0  0  0  0  0
  189.6770  175.4630  147.3320 C   0  0  0  0  0  0  0  0  0  0  0  0
  191.3650  177.6000  143.7860 O   0  0  0  0  0  0  0  0  0  0  0  0
  194.3780  176.2780  145.5090 C   0  0  0  0  0  3  0  0  0  0  0  0
  193.2710  177.0810  145.2240 C   0  0  0  0  0  3  0  0  0  0  0  0
  192.4870  176.8260  144.0890 C   0  0  0  0  0  0  0  0  0  0  0  0
  195.8950  174.3700  144.9630 C   0  0  0  0  0  1  0  0  0  0  0  0
  192.8260  175.7620  143.2460 C   0  0  0  0  0  3  0  0  0  0  0  0
  193.9380  174.9630  143.5290 C   0  0  0  0  0  3  0  0  0  0  0  0
  194.7140  175.2210  144.6590 C   0  0  0  0  0  0  0  0  0  0  0  0
  188.2370  177.9710  141.7890 C   0  0  0  0  0  2  0  0  0  0  0  0
  187.0450  177.3390  141.0920 C   0  0  0  0  0  2  0  0  0  0  0  0
  185.8650  178.1670  141.2770 N   0  0  0  0  0  2  0  0  0  0  0  0
  185.2120  177.7000  142.4840 C   0  0  0  0  0  1  0  0  0  0  0  0
  188.3620  175.5760  142.6030 C   0  0  0  0  0  2  0  0  0  0  0  0
  189.4130  174.4700  142.5020 C   0  0  0  0  0  2  0  0  0  0  0  0
  189.8400  171.8070  135.9950 C   0  0  0  0  0  2  0  0  0  0  0  0
  191.1120  171.1590  136.6050 C   0  0  0  0  0  2  0  0  0  0  0  0
  189.6690  174.0700  141.0620 C   0  0  1  0  0  3  0  0  0  0  0  0
  195.3970  174.7000  139.9850 C   0  0  0  0  0  2  0  0  0  0  0  0
  193.9010  174.9090  139.7540 C   0  0  0  0  0  2  0  0  0  0  0  0
  188.3660  173.2370  139.1650 O   0  0  0  0  0  0  0  0  0  0  0  0
  191.6800  173.7500  139.6600 C   0  0  0  0  0  2  0  0  0  0  0  0
  191.0330  173.3930  140.9840 C   0  0  0  0  0  2  0  0  0  0  0  0
  193.3250  171.0940  139.3340 N   0  0  0  0  0  0  0  0  0  0  0  0
  195.8680  173.7170  139.1050 O   0  0  0  0  0  0  0  0  0  0  0  0
  188.5330  173.1640  140.5810 C   0  0  0  0  0  2  0  0  0  0  0  0
  189.0730  172.4220  138.2820 C   0  0  0  0  0  0  0  0  0  0  0  0
  189.0210  172.6390  136.9640 C   0  0  0  0  0  3  0  0  0  0  0  0
  193.1630  173.5940  139.6630 C   0  0  0  0  0  0  0  0  0  0  0  0
  195.3610  172.5000  139.5890 C   0  0  0  0  0  2  0  0  0  0  0  0
  192.2700  170.6720  138.7480 N   0  0  0  0  0  0  0  0  0  0  0  0
  191.2870  171.4990  138.0850 C   0  0  2  0  0  3  0  0  0  0  0  0
  193.8600  172.4360  139.4550 C   0  0  0  0  0  0  0  0  0  0  0  0
  189.9570  171.3370  138.7920 C   0  0  0  0  0  2  0  0  0  0  0  0
  1 18  1  6  0  0  0
  2  1  1  6  0  0  0
  2  3  1  0  0  0  0
  2  4  1  0  0  0  0
  3 10  1  6  0  0  0
  3  4  1  0  0  0  0
  4  5  1  1  0  0  0
  5  6  1  6  0  0  0
  5  9  1  0  0  0  0
  9  8  2  0  0  0  0
  9  7  1  0  0  0  0
 10 13  1  0  0  0  0
 12 11  1  0  0  0  0
 13 12  2  0  0  0  0
 15 16  2  0  0  0  0
 15 13  1  0  0  0  0
 16 17  1  0  0  0  0
 17 14  1  0  0  0  0
 17 11  2  0  0  0  0
 19 20  1  0  0  0  0
 19 18  1  0  0  0  0
 20 21  1  0  0  0  0
 22  1  1  0  0  0  0
 23 22  1  0  0  0  0
 24 25  1  0  0  0  0
 24 36  1  0  0  0  0
 26 23  1  1  0  0  0
 28 27  1  0  0  0  0
 29 34  1  0  0  0  0
 30 37  1  0  0  0  0
 30 31  1  0  0  0  0
 31 26  1  0  0  0  0
 32 41  1  0  0  0  0
 33 38  1  0  0  0  0
 33 27  1  0  0  0  0
 34 26  1  0  0  0  0
 35 42  1  0  0  0  0
 35 29  1  0  0  0  0
 36 35  2  0  0  0  0
 37 28  1  0  0  0  0
 39 32  2  0  0  0  0
 40 25  1  6  0  0  0
 40 39  1  0  0  0  0
 40 42  1  0  0  0  0
 41 38  1  0  0  0  0
 41 37  2  0  0  0  0
M  END
>  <MODEL>
7

>  <REMARK>
 VINA RESULT:      -6.6      2.822      6.567
  Name = 
  11 active torsions:
  status: ('A' for Active; 'I' for Inactive)
    1  A    between atoms: C_2  and  C_10
    2  A    between atoms: C_2  and  C_36
    3  A    between atoms: N_6  and  C_37
    4  A    between atoms: O_7  and  C_18
    5  A    between atoms: O_7  and  C_24
    6  A    between atoms: C_9  and  C_23
    7  A    between atoms: C_13  and  C_32
    8  A    between atoms: C_13  and  C_37
    9  A    between atoms: C_14  and  C_32
   10  A    between atoms: C_23  and  C_29
   11  A    between atoms: C_32  and  C_36
                            x       y       z     vdW  Elec       q    Type
                         _______ _______ _______ _____ _____    ______ ____

>  <TORSDO>
F 11

$$$$
=
 OpenBabel11042413383D

 42 46  0  0  1  0  0  0  0  0999 V2000
  189.9780  172.6810  140.8720 C   0  0  2  0  0  3  0  0  0  0  0  0
  190.9650  172.2870  139.7680 C   0  0  2  0  0  3  0  0  0  0  0  0
  192.2320  173.1470  139.7410 C   0  0  1  0  0  3  0  0  0  0  0  0
  191.1130  173.4160  138.7580 C   0  0  1  0  0  3  0  0  0  0  0  0
  191.5110  172.8700  137.3950 C   0  0  1  0  0  3  0  0  0  0  0  0
  192.0400  171.4540  137.5330 C   0  0  0  0  0  1  0  0  0  0  0  0
  189.3040  173.9630  136.5350 C   0  0  0  0  0  1  0  0  0  0  0  0
  190.2350  172.0160  135.6120 O   0  0  0  0  0  0  0  0  0  0  0  0
  190.3440  172.8920  136.4540 C   0  0  0  0  0  0  0  0  0  0  0  0
  192.2380  174.1720  140.7310 O   0  0  0  0  0  0  0  0  0  0  0  0
  194.7370  176.0350  142.7500 C   0  0  0  0  0  3  0  0  0  0  0  0
  193.6090  175.7710  141.9700 C   0  0  0  0  0  3  0  0  0  0  0  0
  193.3650  174.4710  141.4990 C   0  0  0  0  0  0  0  0  0  0  0  0
  196.8340  175.2940  143.8860 C   0  0  0  0  0  1  0  0  0  0  0  0
  194.2620  173.4460  141.8180 C   0  0  0  0  0  3  0  0  0  0  0  0
  195.3940  173.7140  142.5940 C   0  0  0  0  0  3  0  0  0  0  0  0
  195.6320  175.0080  143.0580 C   0  0  0  0  0  0  0  0  0  0  0  0
  189.7680  171.5390  141.8680 C   0  0  0  0  0  2  0  0  0  0  0  0
  190.7650  170.4110  141.6630 C   0  0  0  0  0  2  0  0  0  0  0  0
  191.7570  170.4260  142.7260 N   0  0  0  0  0  2  0  0  0  0  0  0
  192.5750  169.2420  142.5490 C   0  0  0  0  0  1  0  0  0  0  0  0
  188.6440  173.1710  140.2900 C   0  0  0  0  0  2  0  0  0  0  0  0
  188.3850  174.6650  140.4890 C   0  0  0  0  0  2  0  0  0  0  0  0
  186.6210  177.1420  146.8420 C   0  0  0  0  0  2  0  0  0  0  0  0
  188.1190  177.5460  146.8330 C   0  0  0  0  0  2  0  0  0  0  0  0
  188.1090  174.9970  141.9420 C   0  0  1  0  0  3  0  0  0  0  0  0
  192.7360  173.2970  145.1140 C   0  0  0  0  0  2  0  0  0  0  0  0
  191.2610  173.3700  144.7240 C   0  0  0  0  0  2  0  0  0  0  0  0
  186.3160  176.0420  143.2420 O   0  0  0  0  0  0  0  0  0  0  0  0
  189.4160  174.9220  144.0400 C   0  0  0  0  0  2  0  0  0  0  0  0
  189.4200  175.4060  142.6020 C   0  0  0  0  0  2  0  0  0  0  0  0
  191.2140  177.2200  145.2000 N   0  0  0  0  0  0  0  0  0  0  0  0
  192.9740  174.1670  146.1860 O   0  0  0  0  0  0  0  0  0  0  0  0
  187.0450  176.0950  142.0150 C   0  0  0  0  0  2  0  0  0  0  0  0
  186.7380  176.7020  144.3950 C   0  0  0  0  0  0  0  0  0  0  0  0
  186.1290  176.4860  145.5650 C   0  0  0  0  0  3  0  0  0  0  0  0
  190.7800  174.7980  144.6280 C   0  0  0  0  0  0  0  0  0  0  0  0
  192.9160  175.4610  145.6450 C   0  0  0  0  0  2  0  0  0  0  0  0
  190.1000  177.8270  145.3610 N   0  0  0  0  0  0  0  0  0  0  0  0
  188.8110  177.1920  145.5160 C   0  0  2  0  0  3  0  0  0  0  0  0
  191.5200  175.8040  145.1870 C   0  0  0  0  0  0  0  0  0  0  0  0
  187.9210  177.6070  144.3620 C   0  0  0  0  0  2  0  0  0  0  0  0
  1 22  1  6  0  0  0
  1 18  1  0  0  0  0
  2  1  1  1  0  0  0
  3  2  1  0  0  0  0
  3 10  1  1  0  0  0
  4  5  1  6  0  0  0
  4  3  1  0  0  0  0
  4  2  1  0  0  0  0
  5  6  1  1  0  0  0
  8  9  2  0  0  0  0
  9  7  1  0  0  0  0
  9  5  1  0  0  0  0
 10 13  1  0  0  0  0
 11 17  1  0  0  0  0
 12 11  2  0  0  0  0
 13 15  2  0  0  0  0
 13 12  1  0  0  0  0
 15 16  1  0  0  0  0
 16 17  2  0  0  0  0
 17 14  1  0  0  0  0
 19 18  1  0  0  0  0
 19 20  1  0  0  0  0
 21 20  1  0  0  0  0
 22 23  1  0  0  0  0
 25 24  1  0  0  0  0
 26 23  1  6  0  0  0
 26 34  1  0  0  0  0
 26 31  1  0  0  0  0
 27 33  1  0  0  0  0
 28 27  1  0  0  0  0
 29 35  1  0  0  0  0
 30 37  1  0  0  0  0
 31 30  1  0  0  0  0
 32 39  2  0  0  0  0
 34 29  1  0  0  0  0
 35 36  2  0  0  0  0
 36 24  1  0  0  0  0
 37 28  1  0  0  0  0
 37 41  2  0  0  0  0
 38 33  1  0  0  0  0
 39 40  1  0  0  0  0
 40 42  1  6  0  0  0
 40 25  1  0  0  0  0
 41 32  1  0  0  0  0
 41 38  1  0  0  0  0
 42 35  1  0  0  0  0
M  END
>  <MODEL>
8

>  <REMARK>
 VINA RESULT:      -6.5      2.721      8.434
  Name = 
  11 active torsions:
  status: ('A' for Active; 'I' for Inactive)
    1  A    between atoms: C_2  and  C_10
    2  A    between atoms: C_2  and  C_36
    3  A    between atoms: N_6  and  C_37
    4  A    between atoms: O_7  and  C_18
    5  A    between atoms: O_7  and  C_24
    6  A    between atoms: C_9  and  C_23
    7  A    between atoms: C_13  and  C_32
    8  A    between atoms: C_13  and  C_37
    9  A    between atoms: C_14  and  C_32
   10  A    between atoms: C_23  and  C_29
   11  A    between atoms: C_32  and  C_36
                            x       y       z     vdW  Elec       q    Type
                         _______ _______ _______ _____ _____    ______ ____

>  <TORSDO>
F 11

$$$$
=
 OpenBabel11042413383D

 42 46  0  0  1  0  0  0  0  0999 V2000
  192.6640  171.8470  142.1850 C   0  0  2  0  0  3  0  0  0  0  0  0
  193.7980  172.8650  142.3450 C   0  0  2  0  0  3  0  0  0  0  0  0
  195.0840  172.2680  142.9240 C   0  0  1  0  0  3  0  0  0  0  0  0
  194.1430  173.0510  143.8160 C   0  0  1  0  0  3  0  0  0  0  0  0
  194.7310  174.4330  144.0600 C   0  0  1  0  0  3  0  0  0  0  0  0
  193.6650  175.4970  143.8690 C   0  0  0  0  0  1  0  0  0  0  0  0
  196.4510  173.6600  145.8620 C   0  0  0  0  0  1  0  0  0  0  0  0
  194.8330  175.3170  146.2380 O   0  0  0  0  0  0  0  0  0  0  0  0
  195.3090  174.5270  145.4400 C   0  0  0  0  0  0  0  0  0  0  0  0
  194.9700  170.8810  143.2330 O   0  0  0  0  0  0  0  0  0  0  0  0
  197.3970  169.6740  145.7720 C   0  0  0  0  0  3  0  0  0  0  0  0
  196.8920  170.2240  144.5910 C   0  0  0  0  0  3  0  0  0  0  0  0
  195.5060  170.3220  144.3950 C   0  0  0  0  0  0  0  0  0  0  0  0
  197.0640  168.6230  148.0140 C   0  0  0  0  0  1  0  0  0  0  0  0
  194.6370  169.8640  145.3910 C   0  0  0  0  0  3  0  0  0  0  0  0
  195.1450  169.3080  146.5700 C   0  0  0  0  0  3  0  0  0  0  0  0
  196.5230  169.2110  146.7590 C   0  0  0  0  0  0  0  0  0  0  0  0
  192.0510  171.9090  140.7850 C   0  0  0  0  0  2  0  0  0  0  0  0
  192.2840  173.2520  140.1170 C   0  0  0  0  0  2  0  0  0  0  0  0
  191.3760  173.4130  138.9930 N   0  0  0  0  0  2  0  0  0  0  0  0
  190.6100  172.1850  138.8980 C   0  0  0  0  0  1  0  0  0  0  0  0
  191.5950  172.0150  143.2740 C   0  0  0  0  0  2  0  0  0  0  0  0
  190.1600  171.8480  142.7730 C   0  0  0  0  0  2  0  0  0  0  0  0
  186.2660  177.7080  143.1200 C   0  0  0  0  0  2  0  0  0  0  0  0
  187.6280  178.2950  143.5770 C   0  0  0  0  0  2  0  0  0  0  0  0
  189.3130  173.0670  143.0860 C   0  0  1  0  0  3  0  0  0  0  0  0
  191.1990  175.3470  148.1460 C   0  0  0  0  0  2  0  0  0  0  0  0
  190.1740  174.7760  147.1670 C   0  0  0  0  0  2  0  0  0  0  0  0
  187.4630  174.2890  142.0490 O   0  0  0  0  0  0  0  0  0  0  0  0
  189.3720  174.8540  144.7940 C   0  0  0  0  0  2  0  0  0  0  0  0
  190.1970  174.1070  143.7630 C   0  0  0  0  0  2  0  0  0  0  0  0
  190.9170  177.5800  144.5890 N   0  0  0  0  0  0  0  0  0  0  0  0
  191.1080  176.7450  148.1480 O   0  0  0  0  0  0  0  0  0  0  0  0
  188.6780  173.5840  141.7930 C   0  0  0  0  0  2  0  0  0  0  0  0
  187.4310  175.6530  142.3330 C   0  0  0  0  0  0  0  0  0  0  0  0
  186.3000  176.2390  142.7400 C   0  0  0  0  0  3  0  0  0  0  0  0
  190.1940  175.5130  145.8490 C   0  0  0  0  0  0  0  0  0  0  0  0
  191.6610  177.1630  146.9260 C   0  0  0  0  0  2  0  0  0  0  0  0
  190.0680  177.8370  143.6680 N   0  0  0  0  0  0  0  0  0  0  0  0
  188.7490  177.2560  143.5530 C   0  0  2  0  0  3  0  0  0  0  0  0
  190.8060  176.7320  145.7600 C   0  0  0  0  0  0  0  0  0  0  0  0
  188.6730  176.4740  142.2570 C   0  0  0  0  0  2  0  0  0  0  0  0
  1 18  1  6  0  0  0
  1 22  1  0  0  0  0
  2  1  1  1  0  0  0
  2  3  1  0  0  0  0
  2  4  1  0  0  0  0
  3 10  1  1  0  0  0
  3  4  1  0  0  0  0
  4  5  1  6  0  0  0
  5  6  1  1  0  0  0
  5  9  1  0  0  0  0
  9  7  1  0  0  0  0
  9  8  2  0  0  0  0
 10 13  1  0  0  0  0
 11 17  1  0  0  0  0
 12 11  2  0  0  0  0
 13 12  1  0  0  0  0
 13 15  2  0  0  0  0
 15 16  1  0  0  0  0
 16 17  2  0  0  0  0
 17 14  1  0  0  0  0
 19 18  1  0  0  0  0
 20 19  1  0  0  0  0
 21 20  1  0  0  0  0
 23 22  1  0  0  0  0
 24 25  1  0  0  0  0
 26 23  1  6  0  0  0
 26 31  1  0  0  0  0
 27 33  1  0  0  0  0
 28 27  1  0  0  0  0
 29 35  1  0  0  0  0
 30 37  1  0  0  0  0
 31 30  1  0  0  0  0
 32 41  1  0  0  0  0
 34 29  1  0  0  0  0
 34 26  1  0  0  0  0
 35 36  2  0  0  0  0
 36 24  1  0  0  0  0
 37 28  1  0  0  0  0
 38 33  1  0  0  0  0
 39 32  2  0  0  0  0
 40 42  1  6  0  0  0
 40 25  1  0  0  0  0
 40 39  1  0  0  0  0
 41 37  2  0  0  0  0
 41 38  1  0  0  0  0
 42 35  1  0  0  0  0
M  END
>  <MODEL>
9

>  <REMARK>
 VINA RESULT:      -6.4      2.306      8.837
  Name = 
  11 active torsions:
  status: ('A' for Active; 'I' for Inactive)
    1  A    between atoms: C_2  and  C_10
    2  A    between atoms: C_2  and  C_36
    3  A    between atoms: N_6  and  C_37
    4  A    between atoms: O_7  and  C_18
    5  A    between atoms: O_7  and  C_24
    6  A    between atoms: C_9  and  C_23
    7  A    between atoms: C_13  and  C_32
    8  A    between atoms: C_13  and  C_37
    9  A    between atoms: C_14  and  C_32
   10  A    between atoms: C_23  and  C_29
   11  A    between atoms: C_32  and  C_36
                            x       y       z     vdW  Elec       q    Type
                         _______ _______ _______ _____ _____    ______ ____

>  <TORSDO>
F 11

$$$$
