=
 OpenBabel11042414133D

 62 71  0  0  1  0  0  0  0  0999 V2000
  193.4560  174.8140  140.2490 C   0  0  1  0  0  3  0  0  0  0  0  0
  193.8350  173.3620  139.9450 C   0  0  2  0  0  3  0  0  0  0  0  0
  194.9930  173.3500  139.1450 O   0  0  0  0  0  0  0  0  0  0  0  0
  193.8070  172.9610  138.4990 C   0  0  2  0  0  3  0  0  0  0  0  0
  192.1680  173.9570  136.8990 C   0  0  0  0  0  3  0  0  0  0  0  0
  193.2520  173.9830  137.6090 N   0  0  0  0  0  0  0  0  0  0  0  0
  189.5220  173.8570  138.3360 O   0  0  0  0  0  1  0  0  0  0  0  0
  191.0200  170.4800  138.5420 C   0  0  0  0  0  0  0  0  0  0  0  0
  191.8040  170.4080  137.5080 N   0  0  0  0  0  0  0  0  0  0  0  0
  191.9650  171.5050  136.6020 C   0  0  0  0  0  0  0  0  0  0  0  0
  191.2140  172.8000  136.8140 C   0  0  1  0  0  3  0  0  0  0  0  0
  190.3260  172.7630  138.0360 C   0  0  0  0  0  0  0  0  0  0  0  0
  190.2460  171.6910  138.8160 C   0  0  0  0  0  3  0  0  0  0  0  0
  192.7090  171.3680  135.5940 O   0  0  0  0  0  0  0  0  0  0  0  0
  190.8820  169.1040  139.6850 S   0  0  0  0  0  0  0  0  0  0  0  0
  193.2160  170.0080  140.6530 N   0  0  0  0  0  2  0  0  0  0  0  0
  191.8240  169.8700  141.0610 C   0  0  2  0  0  3  0  0  0  0  0  0
  193.1170  168.1720  142.0330 C   0  0  0  0  0  2  0  0  0  0  0  0
  191.8620  168.9620  142.2550 C   0  0  0  0  0  2  0  0  0  0  0  0
  193.8490  168.7740  140.9190 N   0  0  0  0  0  0  0  0  0  0  0  0
  195.2690  170.5000  141.9370 C   0  0  0  0  0  1  0  0  0  0  0  0
  195.1960  169.0850  141.3820 C   0  0  0  0  0  2  0  0  0  0  0  0
  192.7400  174.9120  141.5250 N   0  0  0  0  0  2  0  0  0  0  0  0
  191.7450  173.8400  141.5560 C   0  0  0  0  0  2  0  0  0  0  0  0
  189.5880  174.2310  142.4930 C   0  0  0  0  0  3  0  0  0  0  0  0
  190.3710  174.3960  141.4410 C   0  0  0  0  0  3  0  0  0  0  0  0
  188.2640  174.6760  142.5040 O   0  0  0  0  0  0  0  0  0  0  0  0
  187.9760  176.0090  142.1880 C   0  0  0  0  0  0  0  0  0  0  0  0
  187.5170  176.2910  141.0440 O   0  0  0  0  0  0  0  0  0  0  0  0
  188.1860  177.0970  143.2030 C   0  0  0  0  0  2  0  0  0  0  0  0
  185.7660  178.5790  144.0320 C   0  0  0  0  0  2  0  0  0  0  0  0
  185.1680  176.8910  145.6880 C   0  0  1  0  0  3  0  0  0  0  0  0
  186.1070  176.4290  146.8580 C   0  0  0  0  0  2  0  0  0  0  0  0
  184.4970  178.2470  146.0760 C   0  0  1  0  0  3  0  0  0  0  0  0
  187.5620  178.5130  147.9150 O   0  0  0  0  0  0  0  0  0  0  0  0
  186.2390  178.4080  147.6210 C   0  0  1  0  0  3  0  0  0  0  0  0
  185.5350  179.3040  146.5730 C   0  0  1  0  0  3  0  0  0  0  0  0
  187.4650  176.8690  144.5430 C   0  0  2  0  0  3  0  0  0  0  0  0
  185.9550  177.1190  144.3780 C   0  0  2  0  0  3  0  0  0  0  0  0
  187.2510  177.4540  146.9960 C   0  0  2  0  0  0  0  0  0  0  0  0
  187.9610  177.7880  145.6690 C   0  0  0  0  0  2  0  0  0  0  0  0
  184.9750  179.2680  145.1310 C   0  0  1  0  0  3  0  0  0  0  0  0
  194.5970  175.7430  140.2050 N   0  0  0  0  0  2  0  0  0  0  0  0
  194.9580  176.1220  141.5060 N   0  0  0  0  0  2  0  0  0  0  0  0
  196.3940  176.3300  141.4730 C   0  0  0  0  0  2  0  0  0  0  0  0
  196.9090  176.7170  142.8500 C   0  0  0  0  0  2  0  0  0  0  0  0
  196.6270  175.5800  143.8090 C   0  0  0  0  0  2  0  0  0  0  0  0
  195.7510  176.0530  144.7880 O   0  0  0  0  0  0  0  0  0  0  0  0
  195.5300  174.9590  145.6350 C   0  0  1  0  0  3  0  0  0  0  0  0
  191.9290  173.5960  145.3720 C   0  0  0  0  0  3  0  0  0  0  0  0
  194.0380  174.7970  145.9350 C   0  0  2  0  0  3  0  0  0  0  0  0
  191.1320  177.1070  145.2330 O   0  0  0  0  0  1  0  0  0  0  0  0
  191.8030  176.0250  145.8090 C   0  0  1  0  0  0  0  0  0  0  0  0
  193.3770  173.7610  145.0160 C   0  0  0  0  0  2  0  0  0  0  0  0
  191.1790  174.6560  145.7070 C   0  0  0  0  0  0  0  0  0  0  0  0
  193.3270  176.1550  145.8430 C   0  0  1  0  0  3  0  0  0  0  0  0
  189.7470  174.4640  146.0610 C   0  0  0  0  0  1  0  0  0  0  0  0
  192.4910  176.3600  147.1110 C   0  0  0  0  0  2  0  0  0  0  0  0
  196.0730  173.7010  144.9750 C   0  0  0  0  0  2  0  0  0  0  0  0
  197.0720  173.0080  145.8800 C   0  0  0  0  0  2  0  0  0  0  0  0
  195.8130  171.2540  145.2550 O   0  0  0  0  0  1  0  0  0  0  0  0
  196.5580  171.7100  146.2860 N   0  0  0  0  0  2  0  0  0  0  0  0
  1 43  1  1  0  0  0
  1 23  1  0  0  0  0
  2  1  1  6  0  0  0
  3  2  1  0  0  0  0
  4  6  1  6  0  0  0
  4  3  1  0  0  0  0
  4  2  1  0  0  0  0
  5  6  2  0  0  0  0
  8 13  1  0  0  0  0
  8 15  1  0  0  0  0
  9  8  2  0  0  0  0
 10 11  1  0  0  0  0
 10  9  1  0  0  0  0
 11  5  1  1  0  0  0
 11 12  1  0  0  0  0
 12  7  1  0  0  0  0
 12 13  2  0  0  0  0
 14 10  2  0  0  0  0
 16 20  1  0  0  0  0
 16 17  1  0  0  0  0
 17 15  1  6  0  0  0
 17 19  1  0  0  0  0
 18 19  1  0  0  0  0
 20 22  1  0  0  0  0
 20 18  1  0  0  0  0
 22 21  1  0  0  0  0
 23 24  1  0  0  0  0
 25 27  1  0  0  0  0
 26 24  1  0  0  0  0
 26 25  2  0  0  0  0
 28 27  1  0  0  0  0
 28 30  1  0  0  0  0
 29 28  2  0  0  0  0
 30 38  1  0  0  0  0
 31 39  1  0  0  0  0
 31 42  1  0  0  0  0
 32 34  1  0  0  0  0
 32 33  1  1  0  0  0
 33 40  1  0  0  0  0
 34 37  1  0  0  0  0
 36 35  1  0  0  0  0
 37 36  1  0  0  0  0
 38 41  1  0  0  0  0
 39 38  1  0  0  0  0
 39 32  1  0  0  0  0
 40 36  1  0  0  0  0
 40 35  1  0  0  0  0
 41 40  1  0  0  0  0
 42 34  1  0  0  0  0
 42 37  1  0  0  0  0
 43 44  1  0  0  0  0
 45 44  1  0  0  0  0
 45 46  1  0  0  0  0
 46 47  1  0  0  0  0
 47 48  1  0  0  0  0
 48 49  1  0  0  0  0
 49 51  1  0  0  0  0
 50 55  2  0  0  0  0
 52 53  1  0  0  0  0
 53 56  1  0  0  0  0
 53 58  1  0  0  0  0
 54 50  1  0  0  0  0
 54 51  1  0  0  0  0
 55 53  1  0  0  0  0
 55 57  1  0  0  0  0
 56 51  1  0  0  0  0
 56 58  1  0  0  0  0
 59 49  1  0  0  0  0
 59 60  1  0  0  0  0
 60 62  1  0  0  0  0
 61 62  1  0  0  0  0
M  END
>  <MODEL>
1

>  <REMARK>
 VINA RESULT:      -6.4      0.000      0.000
  Name = 
  24 active torsions:
  status: ('A' for Active; 'I' for Inactive)
    1  A    between atoms: C_3  and  C_46
    2  A    between atoms: S_4  and  C_15
    3  A    between atoms: S_4  and  C_36
    4  A    between atoms: C_5  and  O_37
    5  A    between atoms: C_5  and  C_59
    6  A    between atoms: C_6  and  C_51
    7  A    between atoms: C_9  and  C_48
    8  A    between atoms: N_13  and  N_25
    9  A    between atoms: N_13  and  C_26
   10  A    between atoms: O_16  and  C_32
   11  A    between atoms: O_16  and  C_48
   12  A    between atoms: C_21  and  C_26
   13  A    between atoms: C_21  and  C_32
   14  A    between atoms: N_24  and  C_29
   15  A    between atoms: N_25  and  C_46
   16  A    between atoms: N_27  and  C_34
   17  A    between atoms: N_27  and  C_46
   18  A    between atoms: C_28  and  O_37
   19  A    between atoms: C_29  and  C_50
   20  A    between atoms: C_34  and  C_62
   21  A    between atoms: C_38  and  N_47
   22  A    between atoms: C_48  and  C_50
   23  A    between atoms: C_49  and  C_59
   24  A    between atoms: C_52  and  N_58
                            x       y       z     vdW  Elec       q    Type
                         _______ _______ _______ _____ _____    ______ ____

>  <TORSDO>
F 24

$$$$
=
 OpenBabel11042414133D

 62 71  0  0  1  0  0  0  0  0999 V2000
  189.1190  173.9670  137.5780 C   0  0  1  0  0  3  0  0  0  0  0  0
  189.1410  172.4580  137.8380 C   0  0  2  0  0  3  0  0  0  0  0  0
  188.5870  172.2050  139.1080 O   0  0  0  0  0  0  0  0  0  0  0  0
  189.9730  172.0010  139.0010 C   0  0  2  0  0  3  0  0  0  0  0  0
  190.9000  173.3950  140.8540 C   0  0  0  0  0  3  0  0  0  0  0  0
  190.7800  173.0610  139.6070 N   0  0  0  0  0  0  0  0  0  0  0  0
  188.0460  174.0090  141.6030 O   0  0  0  0  0  1  0  0  0  0  0  0
  189.9600  173.6400  144.7480 C   0  0  0  0  0  0  0  0  0  0  0  0
  190.9570  172.8680  144.4340 N   0  0  0  0  0  0  0  0  0  0  0  0
  191.1460  172.3800  143.1010 C   0  0  0  0  0  0  0  0  0  0  0  0
  190.1780  172.7450  141.9990 C   0  0  1  0  0  3  0  0  0  0  0  0
  189.0550  173.6330  142.4820 C   0  0  0  0  0  0  0  0  0  0  0  0
  188.9680  174.0320  143.7470 C   0  0  0  0  0  3  0  0  0  0  0  0
  192.1090  171.6030  142.8590 O   0  0  0  0  0  0  0  0  0  0  0  0
  189.7820  174.2750  146.4160 S   0  0  0  0  0  0  0  0  0  0  0  0
  191.8230  175.9070  145.8080 N   0  0  0  0  0  2  0  0  0  0  0  0
  190.3910  175.9710  146.0700 C   0  0  2  0  0  3  0  0  0  0  0  0
  191.5850  176.6690  147.9640 C   0  0  0  0  0  2  0  0  0  0  0  0
  190.2610  176.8450  147.2820 C   0  0  0  0  0  2  0  0  0  0  0  0
  192.4750  175.9390  147.0600 N   0  0  0  0  0  0  0  0  0  0  0  0
  193.9870  176.9450  145.4070 C   0  0  0  0  0  1  0  0  0  0  0  0
  193.6850  176.7320  146.8840 C   0  0  0  0  0  2  0  0  0  0  0  0
  189.4900  174.2630  136.1900 N   0  0  0  0  0  2  0  0  0  0  0  0
  190.6660  173.4560  135.8650 C   0  0  0  0  0  2  0  0  0  0  0  0
  193.0130  173.8780  135.8470 C   0  0  0  0  0  3  0  0  0  0  0  0
  191.8170  174.3270  135.5070 C   0  0  0  0  0  3  0  0  0  0  0  0
  194.1740  174.6120  135.6000 O   0  0  0  0  0  0  0  0  0  0  0  0
  195.0230  174.9490  136.6610 C   0  0  0  0  0  0  0  0  0  0  0  0
  196.2740  174.9590  136.4770 O   0  0  0  0  0  0  0  0  0  0  0  0
  194.4570  175.3210  138.0020 C   0  0  0  0  0  2  0  0  0  0  0  0
  194.8660  176.1250  140.8170 C   0  0  0  0  0  2  0  0  0  0  0  0
  194.4640  173.8620  141.6350 C   0  0  1  0  0  3  0  0  0  0  0  0
  195.2720  172.5990  141.1730 C   0  0  0  0  0  2  0  0  0  0  0  0
  195.3020  174.6460  142.6940 C   0  0  1  0  0  3  0  0  0  0  0  0
  197.9410  173.1500  140.7850 O   0  0  0  0  0  0  0  0  0  0  0  0
  197.1080  173.4570  141.8130 C   0  0  1  0  0  3  0  0  0  0  0  0
  196.7660  174.9120  142.2160 C   0  0  1  0  0  3  0  0  0  0  0  0
  194.7850  174.3290  139.1320 C   0  0  2  0  0  3  0  0  0  0  0  0
  194.1830  174.8240  140.4590 C   0  0  2  0  0  3  0  0  0  0  0  0
  196.5470  173.0760  140.4480 C   0  0  2  0  0  0  0  0  0  0  0  0
  196.2920  174.1360  139.3570 C   0  0  0  0  0  2  0  0  0  0  0  0
  195.6310  175.9600  142.1190 C   0  0  1  0  0  3  0  0  0  0  0  0
  187.8450  174.6090  137.9380 N   0  0  0  0  0  2  0  0  0  0  0  0
  187.4790  175.5380  136.9540 N   0  0  0  0  0  2  0  0  0  0  0  0
  187.0390  176.7210  137.6700 C   0  0  0  0  0  2  0  0  0  0  0  0
  186.5360  176.3500  139.0560 C   0  0  0  0  0  2  0  0  0  0  0  0
  186.6940  177.5520  139.9640 C   0  0  0  0  0  2  0  0  0  0  0  0
  187.5540  177.1930  141.0030 O   0  0  0  0  0  0  0  0  0  0  0  0
  187.5840  178.3090  141.8500 C   0  0  1  0  0  3  0  0  0  0  0  0
  184.7090  179.1320  144.2890 C   0  0  0  0  0  3  0  0  0  0  0  0
  186.6020  178.1370  143.0110 C   0  0  2  0  0  3  0  0  0  0  0  0
  187.1820  178.2140  146.7430 O   0  0  0  0  0  1  0  0  0  0  0  0
  186.4850  177.9720  145.5560 C   0  0  1  0  0  0  0  0  0  0  0  0
  185.6880  179.3580  143.1750 C   0  0  0  0  0  2  0  0  0  0  0  0
  185.0870  178.5180  145.4200 C   0  0  0  0  0  0  0  0  0  0  0  0
  187.3630  177.8360  144.3100 C   0  0  1  0  0  3  0  0  0  0  0  0
  184.0960  178.3020  146.5080 C   0  0  0  0  0  1  0  0  0  0  0  0
  186.7380  176.6030  144.9720 C   0  0  0  0  0  2  0  0  0  0  0  0
  188.9970  178.4940  142.3790 C   0  0  0  0  0  2  0  0  0  0  0  0
  189.7040  177.1590  142.5010 C   0  0  0  0  0  2  0  0  0  0  0  0
  191.7740  176.2840  142.4380 O   0  0  0  0  0  1  0  0  0  0  0  0
  191.0930  177.3640  142.8800 N   0  0  0  0  0  2  0  0  0  0  0  0
  1 23  1  6  0  0  0
  1 43  1  0  0  0  0
  2  1  1  1  0  0  0
  2  4  1  0  0  0  0
  2  3  1  0  0  0  0
  4  3  1  0  0  0  0
  4  6  1  1  0  0  0
  6  5  2  0  0  0  0
  7 12  1  0  0  0  0
  8 15  1  0  0  0  0
  9  8  2  0  0  0  0
 10  9  1  0  0  0  0
 11  5  1  6  0  0  0
 11 12  1  0  0  0  0
 11 10  1  0  0  0  0
 12 13  2  0  0  0  0
 13  8  1  0  0  0  0
 14 10  2  0  0  0  0
 16 17  1  0  0  0  0
 16 20  1  0  0  0  0
 17 15  1  1  0  0  0
 17 19  1  0  0  0  0
 19 18  1  0  0  0  0
 20 18  1  0  0  0  0
 21 22  1  0  0  0  0
 22 20  1  0  0  0  0
 24 23  1  0  0  0  0
 26 25  2  0  0  0  0
 26 24  1  0  0  0  0
 27 25  1  0  0  0  0
 27 28  1  0  0  0  0
 28 30  1  0  0  0  0
 29 28  2  0  0  0  0
 30 38  1  0  0  0  0
 31 42  1  0  0  0  0
 32 33  1  6  0  0  0
 32 34  1  0  0  0  0
 35 36  1  0  0  0  0
 36 37  1  0  0  0  0
 37 34  1  0  0  0  0
 38 41  1  0  0  0  0
 38 39  1  0  0  0  0
 39 31  1  0  0  0  0
 39 32  1  0  0  0  0
 40 35  1  0  0  0  0
 40 33  1  0  0  0  0
 40 36  1  0  0  0  0
 41 40  1  0  0  0  0
 42 37  1  0  0  0  0
 42 34  1  0  0  0  0
 44 45  1  0  0  0  0
 44 43  1  0  0  0  0
 45 46  1  0  0  0  0
 46 47  1  0  0  0  0
 47 48  1  0  0  0  0
 48 49  1  0  0  0  0
 49 59  1  0  0  0  0
 49 51  1  0  0  0  0
 50 55  2  0  0  0  0
 51 54  1  0  0  0  0
 51 56  1  0  0  0  0
 53 52  1  0  0  0  0
 54 50  1  0  0  0  0
 55 53  1  0  0  0  0
 55 57  1  0  0  0  0
 56 58  1  0  0  0  0
 56 53  1  0  0  0  0
 58 53  1  0  0  0  0
 59 60  1  0  0  0  0
 60 62  1  0  0  0  0
 61 62  1  0  0  0  0
M  END
>  <MODEL>
2

>  <REMARK>
 VINA RESULT:      -6.1      2.822      8.591
  Name = 
  24 active torsions:
  status: ('A' for Active; 'I' for Inactive)
    1  A    between atoms: C_3  and  C_46
    2  A    between atoms: S_4  and  C_15
    3  A    between atoms: S_4  and  C_36
    4  A    between atoms: C_5  and  O_37
    5  A    between atoms: C_5  and  C_59
    6  A    between atoms: C_6  and  C_51
    7  A    between atoms: C_9  and  C_48
    8  A    between atoms: N_13  and  N_25
    9  A    between atoms: N_13  and  C_26
   10  A    between atoms: O_16  and  C_32
   11  A    between atoms: O_16  and  C_48
   12  A    between atoms: C_21  and  C_26
   13  A    between atoms: C_21  and  C_32
   14  A    between atoms: N_24  and  C_29
   15  A    between atoms: N_25  and  C_46
   16  A    between atoms: N_27  and  C_34
   17  A    between atoms: N_27  and  C_46
   18  A    between atoms: C_28  and  O_37
   19  A    between atoms: C_29  and  C_50
   20  A    between atoms: C_34  and  C_62
   21  A    between atoms: C_38  and  N_47
   22  A    between atoms: C_48  and  C_50
   23  A    between atoms: C_49  and  C_59
   24  A    between atoms: C_52  and  N_58
                            x       y       z     vdW  Elec       q    Type
                         _______ _______ _______ _____ _____    ______ ____

>  <TORSDO>
F 24

$$$$
=
 OpenBabel11042414133D

 62 71  0  0  1  0  0  0  0  0999 V2000
  194.5730  175.2310  139.9830 C   0  0  1  0  0  3  0  0  0  0  0  0
  194.7280  173.8370  139.3690 C   0  0  2  0  0  3  0  0  0  0  0  0
  196.0620  173.6680  138.9510 O   0  0  0  0  0  0  0  0  0  0  0  0
  195.1160  173.7930  137.9190 C   0  0  2  0  0  3  0  0  0  0  0  0
  194.5740  175.4670  136.1470 C   0  0  0  0  0  3  0  0  0  0  0  0
  195.1180  175.1030  137.2650 N   0  0  0  0  0  0  0  0  0  0  0  0
  191.5680  175.4390  135.9530 O   0  0  0  0  0  1  0  0  0  0  0  0
  192.7210  171.9290  135.7480 C   0  0  0  0  0  0  0  0  0  0  0  0
  193.9330  172.0110  135.2840 N   0  0  0  0  0  0  0  0  0  0  0  0
  194.5500  173.2710  134.9980 C   0  0  0  0  0  0  0  0  0  0  0  0
  193.8040  174.5670  135.2230 C   0  0  1  0  0  3  0  0  0  0  0  0
  192.4060  174.3490  135.7510 C   0  0  0  0  0  0  0  0  0  0  0  0
  191.9230  173.1330  135.9830 C   0  0  0  0  0  3  0  0  0  0  0  0
  195.7140  173.2920  134.5140 O   0  0  0  0  0  0  0  0  0  0  0  0
  191.9970  170.3370  136.1430 S   0  0  0  0  0  0  0  0  0  0  0  0
  191.4590  171.1150  138.6540 N   0  0  0  0  0  2  0  0  0  0  0  0
  190.7820  170.9500  137.3740 C   0  0  2  0  0  3  0  0  0  0  0  0
  190.2730  169.1490  138.7880 C   0  0  0  0  0  2  0  0  0  0  0  0
  189.7170  169.9250  137.6320 C   0  0  0  0  0  2  0  0  0  0  0  0
  191.4520  169.8540  139.2910 N   0  0  0  0  0  0  0  0  0  0  0  0
  192.2580  169.3210  141.5490 C   0  0  0  0  0  1  0  0  0  0  0  0
  191.2550  170.1030  140.7130 C   0  0  0  0  0  2  0  0  0  0  0  0
  193.5270  175.2360  141.0110 N   0  0  0  0  0  2  0  0  0  0  0  0
  192.7290  174.0220  140.8340 C   0  0  0  0  0  2  0  0  0  0  0  0
  190.6640  173.9900  142.0260 C   0  0  0  0  0  3  0  0  0  0  0  0
  191.2770  174.3340  140.9060 C   0  0  0  0  0  3  0  0  0  0  0  0
  189.2950  174.1960  142.2110 O   0  0  0  0  0  0  0  0  0  0  0  0
  188.6930  175.3570  141.7110 C   0  0  0  0  0  0  0  0  0  0  0  0
  188.1680  175.3400  140.5610 O   0  0  0  0  0  0  0  0  0  0  0  0
  188.6470  176.6100  142.5410 C   0  0  0  0  0  2  0  0  0  0  0  0
  186.4960  178.6340  142.6610 C   0  0  0  0  0  2  0  0  0  0  0  0
  185.0920  177.2160  144.0640 C   0  0  1  0  0  3  0  0  0  0  0  0
  185.5370  176.6250  145.4480 C   0  0  0  0  0  2  0  0  0  0  0  0
  184.6660  178.7070  144.2570 C   0  0  1  0  0  3  0  0  0  0  0  0
  187.0750  178.3930  146.8940 O   0  0  0  0  0  0  0  0  0  0  0  0
  185.8990  178.5660  146.2350 C   0  0  1  0  0  3  0  0  0  0  0  0
  185.7380  179.5340  145.0380 C   0  0  1  0  0  3  0  0  0  0  0  0
  187.5480  176.6230  143.6190 C   0  0  2  0  0  3  0  0  0  0  0  0
  186.2430  177.1910  143.0340 C   0  0  2  0  0  3  0  0  0  0  0  0
  186.7990  177.3780  145.9150 C   0  0  2  0  0  0  0  0  0  0  0  0
  187.9080  177.4710  144.8470 C   0  0  0  0  0  2  0  0  0  0  0  0
  185.6090  179.5420  143.4960 C   0  0  1  0  0  3  0  0  0  0  0  0
  195.8310  175.7910  140.5010 N   0  0  0  0  0  2  0  0  0  0  0  0
  195.9410  175.5370  141.8750 N   0  0  0  0  0  2  0  0  0  0  0  0
  196.4520  176.7610  142.4640 C   0  0  0  0  0  2  0  0  0  0  0  0
  196.1000  176.8320  143.9410 C   0  0  0  0  0  2  0  0  0  0  0  0
  194.7320  176.2140  144.1410 C   0  0  0  0  0  2  0  0  0  0  0  0
  194.4410  176.2500  145.5060 O   0  0  0  0  0  0  0  0  0  0  0  0
  194.1560  174.9230  145.8510 C   0  0  1  0  0  3  0  0  0  0  0  0
  190.3830  174.1230  145.9830 C   0  0  0  0  0  3  0  0  0  0  0  0
  192.7400  174.8010  146.4200 C   0  0  2  0  0  3  0  0  0  0  0  0
  190.2180  177.4690  147.3080 O   0  0  0  0  0  1  0  0  0  0  0  0
  190.7780  176.1890  147.2800 C   0  0  1  0  0  0  0  0  0  0  0  0
  191.7460  174.2740  145.3760 C   0  0  0  0  0  2  0  0  0  0  0  0
  189.9100  175.0350  146.8450 C   0  0  0  0  0  0  0  0  0  0  0  0
  192.2800  176.1490  146.9930 C   0  0  1  0  0  3  0  0  0  0  0  0
  188.5570  174.8600  147.4370 C   0  0  0  0  0  1  0  0  0  0  0  0
  191.7420  175.9230  148.4110 C   0  0  0  0  0  2  0  0  0  0  0  0
  194.3050  174.0460  144.6170 C   0  0  0  0  0  2  0  0  0  0  0  0
  195.1650  172.8350  144.9200 C   0  0  0  0  0  2  0  0  0  0  0  0
  197.2470  172.1280  145.3870 O   0  0  0  0  0  1  0  0  0  0  0  0
  196.5650  173.2220  144.9820 N   0  0  0  0  0  2  0  0  0  0  0  0
  1 43  1  1  0  0  0
  1 23  1  0  0  0  0
  2  1  1  1  0  0  0
  3  2  1  0  0  0  0
  4  6  1  1  0  0  0
  4  3  1  0  0  0  0
  4  2  1  0  0  0  0
  5  6  2  0  0  0  0
  8 13  1  0  0  0  0
  8 15  1  0  0  0  0
  9  8  2  0  0  0  0
 10 11  1  0  0  0  0
 10  9  1  0  0  0  0
 11 12  1  0  0  0  0
 11  5  1  1  0  0  0
 12  7  1  0  0  0  0
 12 13  2  0  0  0  0
 14 10  2  0  0  0  0
 16 20  1  0  0  0  0
 17 15  1  6  0  0  0
 17 19  1  0  0  0  0
 17 16  1  0  0  0  0
 18 20  1  0  0  0  0
 19 18  1  0  0  0  0
 20 22  1  0  0  0  0
 22 21  1  0  0  0  0
 24 26  1  0  0  0  0
 24 23  1  0  0  0  0
 25 27  1  0  0  0  0
 26 25  2  0  0  0  0
 28 27  1  0  0  0  0
 28 30  1  0  0  0  0
 29 28  2  0  0  0  0
 30 38  1  0  0  0  0
 31 39  1  0  0  0  0
 31 42  1  0  0  0  0
 32 34  1  0  0  0  0
 32 33  1  1  0  0  0
 33 40  1  0  0  0  0
 34 37  1  0  0  0  0
 36 35  1  0  0  0  0
 37 36  1  0  0  0  0
 38 41  1  0  0  0  0
 39 38  1  0  0  0  0
 39 32  1  0  0  0  0
 40 36  1  0  0  0  0
 40 35  1  0  0  0  0
 41 40  1  0  0  0  0
 42 34  1  0  0  0  0
 42 37  1  0  0  0  0
 43 44  1  0  0  0  0
 44 45  1  0  0  0  0
 45 46  1  0  0  0  0
 46 47  1  0  0  0  0
 47 48  1  0  0  0  0
 48 49  1  0  0  0  0
 49 51  1  0  0  0  0
 50 55  2  0  0  0  0
 51 56  1  0  0  0  0
 53 52  1  0  0  0  0
 53 58  1  0  0  0  0
 54 50  1  0  0  0  0
 54 51  1  0  0  0  0
 55 53  1  0  0  0  0
 55 57  1  0  0  0  0
 56 53  1  0  0  0  0
 56 58  1  0  0  0  0
 59 60  1  0  0  0  0
 59 49  1  0  0  0  0
 60 62  1  0  0  0  0
 62 61  1  0  0  0  0
M  END
>  <MODEL>
3

>  <REMARK>
 VINA RESULT:      -5.9      1.641      2.329
  Name = 
  24 active torsions:
  status: ('A' for Active; 'I' for Inactive)
    1  A    between atoms: C_3  and  C_46
    2  A    between atoms: S_4  and  C_15
    3  A    between atoms: S_4  and  C_36
    4  A    between atoms: C_5  and  O_37
    5  A    between atoms: C_5  and  C_59
    6  A    between atoms: C_6  and  C_51
    7  A    between atoms: C_9  and  C_48
    8  A    between atoms: N_13  and  N_25
    9  A    between atoms: N_13  and  C_26
   10  A    between atoms: O_16  and  C_32
   11  A    between atoms: O_16  and  C_48
   12  A    between atoms: C_21  and  C_26
   13  A    between atoms: C_21  and  C_32
   14  A    between atoms: N_24  and  C_29
   15  A    between atoms: N_25  and  C_46
   16  A    between atoms: N_27  and  C_34
   17  A    between atoms: N_27  and  C_46
   18  A    between atoms: C_28  and  O_37
   19  A    between atoms: C_29  and  C_50
   20  A    between atoms: C_34  and  C_62
   21  A    between atoms: C_38  and  N_47
   22  A    between atoms: C_48  and  C_50
   23  A    between atoms: C_49  and  C_59
   24  A    between atoms: C_52  and  N_58
                            x       y       z     vdW  Elec       q    Type
                         _______ _______ _______ _____ _____    ______ ____

>  <TORSDO>
F 24

$$$$
=
 OpenBabel11042414133D

 62 71  0  0  1  0  0  0  0  0999 V2000
  189.8340  173.3210  137.4050 C   0  0  1  0  0  3  0  0  0  0  0  0
  189.7520  171.8430  137.7950 C   0  0  2  0  0  3  0  0  0  0  0  0
  189.0560  171.7290  139.0140 O   0  0  0  0  0  0  0  0  0  0  0  0
  190.4340  171.4580  139.0750 C   0  0  2  0  0  3  0  0  0  0  0  0
  191.0830  173.1270  140.8160 C   0  0  0  0  0  3  0  0  0  0  0  0
  191.2260  172.5340  139.6730 N   0  0  0  0  0  0  0  0  0  0  0  0
  188.6140  174.8200  141.1580 O   0  0  0  0  0  1  0  0  0  0  0  0
  189.7320  173.8010  144.5350 C   0  0  0  0  0  0  0  0  0  0  0  0
  190.3860  172.6940  144.3410 N   0  0  0  0  0  0  0  0  0  0  0  0
  190.5710  172.1440  143.0330 C   0  0  0  0  0  0  0  0  0  0  0  0
  190.0000  172.8340  141.8150 C   0  0  1  0  0  3  0  0  0  0  0  0
  189.2520  174.0990  142.1620 C   0  0  0  0  0  0  0  0  0  0  0  0
  189.1340  174.5270  143.4140 C   0  0  0  0  0  3  0  0  0  0  0  0
  191.1810  171.0480  142.9060 O   0  0  0  0  0  0  0  0  0  0  0  0
  189.5630  174.4890  146.1830 S   0  0  0  0  0  0  0  0  0  0  0  0
  191.8860  175.7130  145.6310 N   0  0  0  0  0  2  0  0  0  0  0  0
  190.4860  176.0430  145.8650 C   0  0  2  0  0  3  0  0  0  0  0  0
  191.7480  176.4950  147.7890 C   0  0  0  0  0  2  0  0  0  0  0  0
  190.4960  176.9200  147.0820 C   0  0  0  0  0  2  0  0  0  0  0  0
  192.5050  175.6160  146.8970 N   0  0  0  0  0  0  0  0  0  0  0  0
  193.8950  177.1920  145.6260 C   0  0  0  0  0  1  0  0  0  0  0  0
  193.8450  176.1700  146.7530 C   0  0  0  0  0  2  0  0  0  0  0  0
  191.1070  173.6160  136.7390 N   0  0  0  0  0  2  0  0  0  0  0  0
  191.4110  172.4940  135.8510 C   0  0  0  0  0  2  0  0  0  0  0  0
  193.5840  172.8540  136.7620 C   0  0  0  0  0  3  0  0  0  0  0  0
  192.8380  172.0960  135.9770 C   0  0  0  0  0  3  0  0  0  0  0  0
  194.9480  172.6110  136.9420 O   0  0  0  0  0  0  0  0  0  0  0  0
  195.4820  172.5720  138.2360 C   0  0  0  0  0  0  0  0  0  0  0  0
  194.9730  171.7980  139.0960 O   0  0  0  0  0  0  0  0  0  0  0  0
  196.6670  173.4240  138.5980 C   0  0  0  0  0  2  0  0  0  0  0  0
  197.0250  173.3420  141.5310 C   0  0  0  0  0  2  0  0  0  0  0  0
  197.0350  175.7740  141.7060 C   0  0  1  0  0  3  0  0  0  0  0  0
  195.8760  176.7020  141.1970 C   0  0  0  0  0  2  0  0  0  0  0  0
  196.6320  175.1650  143.0870 C   0  0  1  0  0  3  0  0  0  0  0  0
  193.3900  175.5970  141.6210 O   0  0  0  0  0  0  0  0  0  0  0  0
  194.4590  175.7310  142.4490 C   0  0  1  0  0  3  0  0  0  0  0  0
  195.2080  174.5220  143.0610 C   0  0  1  0  0  3  0  0  0  0  0  0
  196.3440  174.6060  139.5290 C   0  0  2  0  0  3  0  0  0  0  0  0
  197.2970  174.6000  140.7380 C   0  0  2  0  0  3  0  0  0  0  0  0
  194.6330  175.8270  140.9370 C   0  0  2  0  0  0  0  0  0  0  0  0
  194.9100  174.5790  140.0760 C   0  0  0  0  0  2  0  0  0  0  0  0
  196.5160  173.7080  142.9150 C   0  0  1  0  0  3  0  0  0  0  0  0
  188.6920  173.7830  136.6000 N   0  0  0  0  0  2  0  0  0  0  0  0
  188.5000  175.1600  136.7840 N   0  0  0  0  0  2  0  0  0  0  0  0
  187.4360  175.2830  137.7640 C   0  0  0  0  0  2  0  0  0  0  0  0
  187.1440  176.7460  138.0540 C   0  0  0  0  0  2  0  0  0  0  0  0
  185.9730  176.8240  139.0110 C   0  0  0  0  0  2  0  0  0  0  0  0
  186.3390  177.6590  140.0690 O   0  0  0  0  0  0  0  0  0  0  0  0
  185.2770  177.5760  140.9800 C   0  0  1  0  0  3  0  0  0  0  0  0
  186.5760  176.7080  144.5090 C   0  0  0  0  0  3  0  0  0  0  0  0
  185.7720  177.7880  142.4120 C   0  0  2  0  0  3  0  0  0  0  0  0
  183.9210  178.9330  145.5000 O   0  0  0  0  0  1  0  0  0  0  0  0
  185.0300  178.6260  144.7070 C   0  0  1  0  0  0  0  0  0  0  0  0
  186.0470  176.4580  143.1270 C   0  0  0  0  0  2  0  0  0  0  0  0
  186.0780  177.6960  145.2660 C   0  0  0  0  0  0  0  0  0  0  0  0
  184.7690  178.6440  143.2000 C   0  0  1  0  0  3  0  0  0  0  0  0
  186.6220  177.9260  146.6310 C   0  0  0  0  0  1  0  0  0  0  0  0
  185.5280  179.7880  143.8820 C   0  0  0  0  0  2  0  0  0  0  0  0
  184.2330  178.6220  140.6230 C   0  0  0  0  0  2  0  0  0  0  0  0
  182.9190  177.9640  140.2500 C   0  0  0  0  0  2  0  0  0  0  0  0
  181.1090  177.9850  141.5830 O   0  0  0  0  0  1  0  0  0  0  0  0
  181.8070  178.7680  140.7300 N   0  0  0  0  0  2  0  0  0  0  0  0
  1 43  1  6  0  0  0
  2  1  1  1  0  0  0
  2  3  1  0  0  0  0
  2  4  1  0  0  0  0
  3  4  1  0  0  0  0
  4  6  1  1  0  0  0
  6  5  2  0  0  0  0
  7 12  1  0  0  0  0
  8 15  1  0  0  0  0
  9  8  2  0  0  0  0
 10  9  1  0  0  0  0
 11  5  1  6  0  0  0
 11 12  1  0  0  0  0
 11 10  1  0  0  0  0
 12 13  2  0  0  0  0
 13  8  1  0  0  0  0
 14 10  2  0  0  0  0
 16 17  1  0  0  0  0
 16 20  1  0  0  0  0
 17 15  1  1  0  0  0
 17 19  1  0  0  0  0
 19 18  1  0  0  0  0
 20 18  1  0  0  0  0
 21 22  1  0  0  0  0
 22 20  1  0  0  0  0
 23  1  1  0  0  0  0
 24 26  1  0  0  0  0
 24 23  1  0  0  0  0
 25 27  1  0  0  0  0
 26 25  2  0  0  0  0
 27 28  1  0  0  0  0
 28 30  1  0  0  0  0
 28 29  2  0  0  0  0
 30 38  1  0  0  0  0
 31 42  1  0  0  0  0
 32 33  1  6  0  0  0
 32 34  1  0  0  0  0
 35 36  1  0  0  0  0
 36 37  1  0  0  0  0
 37 34  1  0  0  0  0
 38 41  1  0  0  0  0
 38 39  1  0  0  0  0
 39 31  1  0  0  0  0
 39 32  1  0  0  0  0
 40 33  1  0  0  0  0
 40 35  1  0  0  0  0
 40 36  1  0  0  0  0
 41 40  1  0  0  0  0
 42 37  1  0  0  0  0
 42 34  1  0  0  0  0
 43 44  1  0  0  0  0
 44 45  1  0  0  0  0
 45 46  1  0  0  0  0
 46 47  1  0  0  0  0
 47 48  1  0  0  0  0
 48 49  1  0  0  0  0
 49 51  1  0  0  0  0
 50 55  2  0  0  0  0
 51 54  1  0  0  0  0
 51 56  1  0  0  0  0
 53 55  1  0  0  0  0
 53 52  1  0  0  0  0
 54 50  1  0  0  0  0
 55 57  1  0  0  0  0
 56 58  1  0  0  0  0
 56 53  1  0  0  0  0
 58 53  1  0  0  0  0
 59 49  1  0  0  0  0
 60 59  1  0  0  0  0
 60 62  1  0  0  0  0
 62 61  1  0  0  0  0
M  END
>  <MODEL>
4

>  <REMARK>
 VINA RESULT:      -5.7      3.222      9.256
  Name = 
  24 active torsions:
  status: ('A' for Active; 'I' for Inactive)
    1  A    between atoms: C_3  and  C_46
    2  A    between atoms: S_4  and  C_15
    3  A    between atoms: S_4  and  C_36
    4  A    between atoms: C_5  and  O_37
    5  A    between atoms: C_5  and  C_59
    6  A    between atoms: C_6  and  C_51
    7  A    between atoms: C_9  and  C_48
    8  A    between atoms: N_13  and  N_25
    9  A    between atoms: N_13  and  C_26
   10  A    between atoms: O_16  and  C_32
   11  A    between atoms: O_16  and  C_48
   12  A    between atoms: C_21  and  C_26
   13  A    between atoms: C_21  and  C_32
   14  A    between atoms: N_24  and  C_29
   15  A    between atoms: N_25  and  C_46
   16  A    between atoms: N_27  and  C_34
   17  A    between atoms: N_27  and  C_46
   18  A    between atoms: C_28  and  O_37
   19  A    between atoms: C_29  and  C_50
   20  A    between atoms: C_34  and  C_62
   21  A    between atoms: C_38  and  N_47
   22  A    between atoms: C_48  and  C_50
   23  A    between atoms: C_49  and  C_59
   24  A    between atoms: C_52  and  N_58
                            x       y       z     vdW  Elec       q    Type
                         _______ _______ _______ _____ _____    ______ ____

>  <TORSDO>
F 24

$$$$
=
 OpenBabel11042414133D

 62 71  0  0  1  0  0  0  0  0999 V2000
  192.6660  172.5180  141.9900 C   0  0  1  0  0  3  0  0  0  0  0  0
  192.8760  174.0250  142.1650 C   0  0  2  0  0  3  0  0  0  0  0  0
  193.1330  174.6000  140.9060 O   0  0  0  0  0  0  0  0  0  0  0  0
  194.2290  174.5520  141.7850 C   0  0  2  0  0  3  0  0  0  0  0  0
  196.2650  173.1430  142.1110 C   0  0  0  0  0  3  0  0  0  0  0  0
  195.2040  173.5080  141.4630 N   0  0  0  0  0  0  0  0  0  0  0  0
  196.1300  171.7840  144.7970 O   0  0  0  0  0  1  0  0  0  0  0  0
  195.2900  175.3500  145.3180 C   0  0  0  0  0  0  0  0  0  0  0  0
  195.8770  175.9690  144.3370 N   0  0  0  0  0  0  0  0  0  0  0  0
  196.6210  175.2670  143.3360 C   0  0  0  0  0  0  0  0  0  0  0  0
  196.7580  173.7620  143.3870 C   0  0  1  0  0  3  0  0  0  0  0  0
  196.0480  173.1540  144.5730 C   0  0  0  0  0  0  0  0  0  0  0  0
  195.3820  173.8960  145.4510 C   0  0  0  0  0  3  0  0  0  0  0  0
  197.2020  175.9200  142.4280 O   0  0  0  0  0  0  0  0  0  0  0  0
  194.3220  176.2560  146.5260 S   0  0  0  0  0  0  0  0  0  0  0  0
  191.7060  176.8390  146.3930 N   0  0  0  0  0  2  0  0  0  0  0  0
  192.7840  176.3710  145.5320 C   0  0  2  0  0  3  0  0  0  0  0  0
  191.4240  174.5690  146.1670 C   0  0  0  0  0  2  0  0  0  0  0  0
  192.3430  175.0130  145.0690 C   0  0  0  0  0  2  0  0  0  0  0  0
  191.1830  175.7070  147.0550 N   0  0  0  0  0  0  0  0  0  0  0  0
  189.3820  177.3760  146.9970 C   0  0  0  0  0  1  0  0  0  0  0  0
  189.7420  175.9050  147.1500 C   0  0  0  0  0  2  0  0  0  0  0  0
  193.0750  171.7890  143.1950 N   0  0  0  0  0  2  0  0  0  0  0  0
  193.0570  170.3620  142.8740 C   0  0  0  0  0  2  0  0  0  0  0  0
  193.6210  169.1580  140.8940 C   0  0  0  0  0  3  0  0  0  0  0  0
  194.0150  170.0590  141.7780 C   0  0  0  0  0  3  0  0  0  0  0  0
  194.4380  168.7580  139.8350 O   0  0  0  0  0  0  0  0  0  0  0  0
  194.3730  169.4360  138.6110 C   0  0  0  0  0  0  0  0  0  0  0  0
  195.2650  170.2840  138.3220 O   0  0  0  0  0  0  0  0  0  0  0  0
  193.2670  169.1440  137.6360 C   0  0  0  0  0  2  0  0  0  0  0  0
  191.5320  170.0720  135.4300 C   0  0  0  0  0  2  0  0  0  0  0  0
  189.6400  170.4350  136.9260 C   0  0  1  0  0  3  0  0  0  0  0  0
  189.6780  171.3660  138.1880 C   0  0  0  0  0  2  0  0  0  0  0  0
  189.4560  171.3130  135.6470 C   0  0  1  0  0  3  0  0  0  0  0  0
  191.1740  173.6390  137.7660 O   0  0  0  0  0  0  0  0  0  0  0  0
  190.2090  173.0540  137.0090 C   0  0  1  0  0  3  0  0  0  0  0  0
  190.4730  172.4980  135.5880 C   0  0  1  0  0  3  0  0  0  0  0  0
  191.9900  169.9770  137.8490 C   0  0  2  0  0  3  0  0  0  0  0  0
  190.9560  169.6420  136.7590 C   0  0  2  0  0  3  0  0  0  0  0  0
  190.9300  172.2620  138.0940 C   0  0  2  0  0  0  0  0  0  0  0  0
  192.2340  171.4920  137.7990 C   0  0  0  0  0  2  0  0  0  0  0  0
  190.6680  171.1660  134.8260 C   0  0  1  0  0  3  0  0  0  0  0  0
  191.2980  172.1570  141.5870 N   0  0  0  0  0  2  0  0  0  0  0  0
  190.3950  173.1440  142.0090 N   0  0  0  0  0  2  0  0  0  0  0  0
  189.0790  172.5390  141.9220 C   0  0  0  0  0  2  0  0  0  0  0  0
  188.1280  173.4380  141.1490 C   0  0  0  0  0  2  0  0  0  0  0  0
  188.4770  174.8810  141.4480 C   0  0  0  0  0  2  0  0  0  0  0  0
  187.7030  175.2930  142.5350 O   0  0  0  0  0  0  0  0  0  0  0  0
  187.5220  176.6700  142.3500 C   0  0  1  0  0  3  0  0  0  0  0  0
  185.6780  176.8760  145.7340 C   0  0  0  0  0  3  0  0  0  0  0  0
  186.8180  177.2930  143.5580 C   0  0  2  0  0  3  0  0  0  0  0  0
  183.4420  178.9660  143.8330 O   0  0  0  0  0  1  0  0  0  0  0  0
  184.7290  178.5950  144.2340 C   0  0  1  0  0  0  0  0  0  0  0  0
  186.3180  176.2270  144.5420 C   0  0  0  0  0  2  0  0  0  0  0  0
  184.9040  177.9610  145.5900 C   0  0  0  0  0  0  0  0  0  0  0  0
  185.6700  178.2010  143.0940 C   0  0  1  0  0  3  0  0  0  0  0  0
  184.2850  178.5900  146.7880 C   0  0  0  0  0  1  0  0  0  0  0  0
  185.8040  179.5590  143.7920 C   0  0  0  0  0  2  0  0  0  0  0  0
  188.8780  177.3250  142.1360 C   0  0  0  0  0  2  0  0  0  0  0  0
  189.3950  177.9230  143.4290 C   0  0  0  0  0  2  0  0  0  0  0  0
  191.3650  177.2430  142.5850 O   0  0  0  0  0  1  0  0  0  0  0  0
  190.8070  178.2470  143.2970 N   0  0  0  0  0  2  0  0  0  0  0  0
  1 43  1  1  0  0  0
  1 23  1  0  0  0  0
  2  1  1  6  0  0  0
  3  4  1  0  0  0  0
  3  2  1  0  0  0  0
  4  6  1  6  0  0  0
  4  2  1  0  0  0  0
  6  5  2  0  0  0  0
  8 13  1  0  0  0  0
  8 15  1  0  0  0  0
  9  8  2  0  0  0  0
 10 11  1  0  0  0  0
 10  9  1  0  0  0  0
 11  5  1  6  0  0  0
 11 12  1  0  0  0  0
 12  7  1  0  0  0  0
 12 13  2  0  0  0  0
 14 10  2  0  0  0  0
 16 20  1  0  0  0  0
 17 16  1  0  0  0  0
 17 15  1  1  0  0  0
 18 20  1  0  0  0  0
 19 17  1  0  0  0  0
 19 18  1  0  0  0  0
 20 22  1  0  0  0  0
 21 22  1  0  0  0  0
 24 23  1  0  0  0  0
 25 26  2  0  0  0  0
 26 24  1  0  0  0  0
 27 25  1  0  0  0  0
 28 27  1  0  0  0  0
 29 28  2  0  0  0  0
 30 38  1  0  0  0  0
 30 28  1  0  0  0  0
 31 39  1  0  0  0  0
 32 33  1  1  0  0  0
 34 32  1  0  0  0  0
 35 40  1  0  0  0  0
 36 35  1  0  0  0  0
 36 40  1  0  0  0  0
 37 34  1  0  0  0  0
 37 36  1  0  0  0  0
 39 32  1  0  0  0  0
 39 38  1  0  0  0  0
 40 33  1  0  0  0  0
 41 38  1  0  0  0  0
 41 40  1  0  0  0  0
 42 31  1  0  0  0  0
 42 37  1  0  0  0  0
 42 34  1  0  0  0  0
 43 44  1  0  0  0  0
 45 44  1  0  0  0  0
 46 47  1  0  0  0  0
 46 45  1  0  0  0  0
 47 48  1  0  0  0  0
 49 48  1  0  0  0  0
 49 51  1  0  0  0  0
 51 54  1  0  0  0  0
 52 53  1  0  0  0  0
 53 55  1  0  0  0  0
 54 50  1  0  0  0  0
 55 50  2  0  0  0  0
 55 57  1  0  0  0  0
 56 51  1  0  0  0  0
 56 58  1  0  0  0  0
 56 53  1  0  0  0  0
 58 53  1  0  0  0  0
 59 49  1  0  0  0  0
 59 60  1  0  0  0  0
 61 62  1  0  0  0  0
 62 60  1  0  0  0  0
M  END
>  <MODEL>
5

>  <REMARK>
 VINA RESULT:      -5.6      2.639      8.991
  Name = 
  24 active torsions:
  status: ('A' for Active; 'I' for Inactive)
    1  A    between atoms: C_3  and  C_46
    2  A    between atoms: S_4  and  C_15
    3  A    between atoms: S_4  and  C_36
    4  A    between atoms: C_5  and  O_37
    5  A    between atoms: C_5  and  C_59
    6  A    between atoms: C_6  and  C_51
    7  A    between atoms: C_9  and  C_48
    8  A    between atoms: N_13  and  N_25
    9  A    between atoms: N_13  and  C_26
   10  A    between atoms: O_16  and  C_32
   11  A    between atoms: O_16  and  C_48
   12  A    between atoms: C_21  and  C_26
   13  A    between atoms: C_21  and  C_32
   14  A    between atoms: N_24  and  C_29
   15  A    between atoms: N_25  and  C_46
   16  A    between atoms: N_27  and  C_34
   17  A    between atoms: N_27  and  C_46
   18  A    between atoms: C_28  and  O_37
   19  A    between atoms: C_29  and  C_50
   20  A    between atoms: C_34  and  C_62
   21  A    between atoms: C_38  and  N_47
   22  A    between atoms: C_48  and  C_50
   23  A    between atoms: C_49  and  C_59
   24  A    between atoms: C_52  and  N_58
                            x       y       z     vdW  Elec       q    Type
                         _______ _______ _______ _____ _____    ______ ____

>  <TORSDO>
F 24

$$$$
=
 OpenBabel11042414133D

 62 71  0  0  1  0  0  0  0  0999 V2000
  191.5540  175.4410  143.5390 C   0  0  1  0  0  3  0  0  0  0  0  0
  192.5610  175.2910  142.3960 C   0  0  2  0  0  3  0  0  0  0  0  0
  193.3670  174.1620  142.6420 O   0  0  0  0  0  0  0  0  0  0  0  0
  194.0100  175.4050  142.7740 C   0  0  2  0  0  3  0  0  0  0  0  0
  195.3180  175.7830  144.8670 C   0  0  0  0  0  3  0  0  0  0  0  0
  194.2320  175.8160  144.1610 N   0  0  0  0  0  0  0  0  0  0  0  0
  197.3790  177.4830  143.4740 O   0  0  0  0  0  1  0  0  0  0  0  0
  197.3470  174.1860  141.7950 C   0  0  0  0  0  0  0  0  0  0  0  0
  196.9160  173.3620  142.7040 N   0  0  0  0  0  0  0  0  0  0  0  0
  196.5440  173.8060  144.0130 C   0  0  0  0  0  0  0  0  0  0  0  0
  196.6460  175.2660  144.3930 C   0  0  1  0  0  3  0  0  0  0  0  0
  197.1690  176.1250  143.2660 C   0  0  0  0  0  0  0  0  0  0  0  0
  197.4900  175.6140  142.0820 C   0  0  0  0  0  3  0  0  0  0  0  0
  196.1680  172.9600  144.8680 O   0  0  0  0  0  0  0  0  0  0  0  0
  197.7570  173.6030  140.1490 S   0  0  0  0  0  0  0  0  0  0  0  0
  196.0250  172.8330  138.2490 N   0  0  0  0  0  2  0  0  0  0  0  0
  196.0460  173.6040  139.4860 C   0  0  2  0  0  3  0  0  0  0  0  0
  196.0280  175.0510  137.6410 C   0  0  0  0  0  2  0  0  0  0  0  0
  195.6280  174.9870  139.0840 C   0  0  0  0  0  2  0  0  0  0  0  0
  196.4170  173.7070  137.2110 N   0  0  0  0  0  0  0  0  0  0  0  0
  195.2990  174.5920  135.2120 C   0  0  0  0  0  1  0  0  0  0  0  0
  195.6160  173.3580  136.0450 C   0  0  0  0  0  2  0  0  0  0  0  0
  191.9020  174.5630  144.6620 N   0  0  0  0  0  2  0  0  0  0  0  0
  190.7150  173.7740  144.9890 C   0  0  0  0  0  2  0  0  0  0  0  0
  189.7280  172.4180  143.2920 C   0  0  0  0  0  3  0  0  0  0  0  0
  190.6880  172.5150  144.1970 C   0  0  0  0  0  3  0  0  0  0  0  0
  189.5700  171.2760  142.5050 O   0  0  0  0  0  0  0  0  0  0  0  0
  190.6710  170.7430  141.8240 C   0  0  0  0  0  0  0  0  0  0  0  0
  191.0450  169.5620  142.0770 O   0  0  0  0  0  0  0  0  0  0  0  0
  191.3900  171.5540  140.7830 C   0  0  0  0  0  2  0  0  0  0  0  0
  192.4530  173.0290  138.4530 C   0  0  0  0  0  2  0  0  0  0  0  0
  191.1580  171.6910  136.8780 C   0  0  1  0  0  3  0  0  0  0  0  0
  189.5970  171.5400  136.9220 C   0  0  0  0  0  2  0  0  0  0  0  0
  191.5210  173.0550  136.2100 C   0  0  1  0  0  3  0  0  0  0  0  0
  188.3400  173.8820  137.6400 O   0  0  0  0  0  0  0  0  0  0  0  0
  189.3220  173.6390  136.7330 C   0  0  1  0  0  3  0  0  0  0  0  0
  190.7390  174.2520  136.8400 C   0  0  1  0  0  3  0  0  0  0  0  0
  190.7120  171.5670  139.4020 C   0  0  2  0  0  3  0  0  0  0  0  0
  191.7740  171.6870  138.2940 C   0  0  2  0  0  3  0  0  0  0  0  0
  189.0280  172.6370  137.8440 C   0  0  2  0  0  0  0  0  0  0  0  0
  189.7240  172.7290  139.2170 C   0  0  0  0  0  2  0  0  0  0  0  0
  192.1930  173.8840  137.2240 C   0  0  1  0  0  3  0  0  0  0  0  0
  191.3710  176.8310  143.9860 N   0  0  0  0  0  2  0  0  0  0  0  0
  191.1900  177.6720  142.8790 N   0  0  0  0  0  2  0  0  0  0  0  0
  189.7560  177.8540  142.7510 C   0  0  0  0  0  2  0  0  0  0  0  0
  189.1420  176.7140  141.9540 C   0  0  0  0  0  2  0  0  0  0  0  0
  187.7750  177.1470  141.4680 C   0  0  0  0  0  2  0  0  0  0  0  0
  186.8260  176.3040  142.0510 O   0  0  0  0  0  0  0  0  0  0  0  0
  185.7920  177.1540  142.4640 C   0  0  1  0  0  3  0  0  0  0  0  0
  186.9830  177.2490  146.1340 C   0  0  0  0  0  3  0  0  0  0  0  0
  186.0720  177.7130  143.8610 C   0  0  2  0  0  3  0  0  0  0  0  0
  183.7000  178.6400  146.6510 O   0  0  0  0  0  1  0  0  0  0  0  0
  184.9140  178.5890  145.9610 C   0  0  1  0  0  0  0  0  0  0  0  0
  186.6780  176.6530  144.7910 C   0  0  0  0  0  2  0  0  0  0  0  0
  186.1430  178.1260  146.7020 C   0  0  0  0  0  0  0  0  0  0  0  0
  184.7920  178.3110  144.4620 C   0  0  1  0  0  3  0  0  0  0  0  0
  186.4710  178.7070  148.0310 C   0  0  0  0  0  1  0  0  0  0  0  0
  185.1020  179.7200  144.9780 C   0  0  0  0  0  2  0  0  0  0  0  0
  185.6520  178.2900  141.4620 C   0  0  0  0  0  2  0  0  0  0  0  0
  184.6740  177.9190  140.3640 C   0  0  0  0  0  2  0  0  0  0  0  0
  182.4350  177.8070  140.5350 O   0  0  0  0  0  1  0  0  0  0  0  0
  183.4530  178.6960  140.5030 N   0  0  0  0  0  2  0  0  0  0  0  0
  1 43  1  1  0  0  0
  1 23  1  0  0  0  0
  2  3  1  0  0  0  0
  2  4  1  0  0  0  0
  2  1  1  1  0  0  0
  3  4  1  0  0  0  0
  4  6  1  1  0  0  0
  6  5  2  0  0  0  0
  8 13  1  0  0  0  0
  8  9  2  0  0  0  0
  9 10  1  0  0  0  0
 10 11  1  0  0  0  0
 10 14  2  0  0  0  0
 11  5  1  6  0  0  0
 12  7  1  0  0  0  0
 12 11  1  0  0  0  0
 13 12  2  0  0  0  0
 15  8  1  0  0  0  0
 16 17  1  0  0  0  0
 17 15  1  6  0  0  0
 18 19  1  0  0  0  0
 19 17  1  0  0  0  0
 20 18  1  0  0  0  0
 20 16  1  0  0  0  0
 21 22  1  0  0  0  0
 22 20  1  0  0  0  0
 23 24  1  0  0  0  0
 25 26  2  0  0  0  0
 26 24  1  0  0  0  0
 27 25  1  0  0  0  0
 28 29  2  0  0  0  0
 28 27  1  0  0  0  0
 30 28  1  0  0  0  0
 32 33  1  1  0  0  0
 32 39  1  0  0  0  0
 33 40  1  0  0  0  0
 34 37  1  0  0  0  0
 34 32  1  0  0  0  0
 34 42  1  0  0  0  0
 35 40  1  0  0  0  0
 36 37  1  0  0  0  0
 36 35  1  0  0  0  0
 36 40  1  0  0  0  0
 37 42  1  0  0  0  0
 38 30  1  0  0  0  0
 39 31  1  0  0  0  0
 39 38  1  0  0  0  0
 40 41  1  0  0  0  0
 41 38  1  0  0  0  0
 42 31  1  0  0  0  0
 44 43  1  0  0  0  0
 45 44  1  0  0  0  0
 46 45  1  0  0  0  0
 47 46  1  0  0  0  0
 47 48  1  0  0  0  0
 48 49  1  0  0  0  0
 49 51  1  0  0  0  0
 50 55  2  0  0  0  0
 51 56  1  0  0  0  0
 51 54  1  0  0  0  0
 53 52  1  0  0  0  0
 53 55  1  0  0  0  0
 54 50  1  0  0  0  0
 55 57  1  0  0  0  0
 56 58  1  0  0  0  0
 56 53  1  0  0  0  0
 58 53  1  0  0  0  0
 59 49  1  0  0  0  0
 60 62  1  0  0  0  0
 60 59  1  0  0  0  0
 62 61  1  0  0  0  0
M  END
>  <MODEL>
6

>  <REMARK>
 VINA RESULT:      -5.5      2.853      8.725
  Name = 
  24 active torsions:
  status: ('A' for Active; 'I' for Inactive)
    1  A    between atoms: C_3  and  C_46
    2  A    between atoms: S_4  and  C_15
    3  A    between atoms: S_4  and  C_36
    4  A    between atoms: C_5  and  O_37
    5  A    between atoms: C_5  and  C_59
    6  A    between atoms: C_6  and  C_51
    7  A    between atoms: C_9  and  C_48
    8  A    between atoms: N_13  and  N_25
    9  A    between atoms: N_13  and  C_26
   10  A    between atoms: O_16  and  C_32
   11  A    between atoms: O_16  and  C_48
   12  A    between atoms: C_21  and  C_26
   13  A    between atoms: C_21  and  C_32
   14  A    between atoms: N_24  and  C_29
   15  A    between atoms: N_25  and  C_46
   16  A    between atoms: N_27  and  C_34
   17  A    between atoms: N_27  and  C_46
   18  A    between atoms: C_28  and  O_37
   19  A    between atoms: C_29  and  C_50
   20  A    between atoms: C_34  and  C_62
   21  A    between atoms: C_38  and  N_47
   22  A    between atoms: C_48  and  C_50
   23  A    between atoms: C_49  and  C_59
   24  A    between atoms: C_52  and  N_58
                            x       y       z     vdW  Elec       q    Type
                         _______ _______ _______ _____ _____    ______ ____

>  <TORSDO>
F 24

$$$$
=
 OpenBabel11042414133D

 62 71  0  0  1  0  0  0  0  0999 V2000
  196.0190  173.1760  144.3910 C   0  0  1  0  0  3  0  0  0  0  0  0
  195.2470  172.4370  145.4870 C   0  0  2  0  0  3  0  0  0  0  0  0
  194.1300  171.8030  144.9100 O   0  0  0  0  0  0  0  0  0  0  0  0
  193.8420  172.9050  145.7340 C   0  0  2  0  0  3  0  0  0  0  0  0
  192.5420  174.9790  145.2380 C   0  0  0  0  0  3  0  0  0  0  0  0
  193.4810  174.1190  145.0000 N   0  0  0  0  0  0  0  0  0  0  0  0
  190.1840  173.1030  145.2690 O   0  0  0  0  0  1  0  0  0  0  0  0
  189.0550  176.3230  146.7010 C   0  0  0  0  0  0  0  0  0  0  0  0
  190.1360  176.8660  147.1750 N   0  0  0  0  0  0  0  0  0  0  0  0
  191.4160  176.2350  147.0540 C   0  0  0  0  0  0  0  0  0  0  0  0
  191.5560  174.8950  146.3670 C   0  0  1  0  0  3  0  0  0  0  0  0
  190.2350  174.3560  145.8700 C   0  0  0  0  0  0  0  0  0  0  0  0
  189.0970  175.0210  146.0340 C   0  0  0  0  0  3  0  0  0  0  0  0
  192.4270  176.7870  147.5650 O   0  0  0  0  0  0  0  0  0  0  0  0
  187.4760  177.1650  146.8250 S   0  0  0  0  0  0  0  0  0  0  0  0
  187.1630  177.4670  144.1780 N   0  0  0  0  0  2  0  0  0  0  0  0
  186.7770  176.5510  145.2430 C   0  0  2  0  0  3  0  0  0  0  0  0
  184.9780  177.9540  144.7010 C   0  0  0  0  0  2  0  0  0  0  0  0
  185.2780  176.5980  145.2660 C   0  0  0  0  0  2  0  0  0  0  0  0
  186.2210  178.5190  144.1740 N   0  0  0  0  0  0  0  0  0  0  0  0
  186.9880  178.1690  141.8680 C   0  0  0  0  0  1  0  0  0  0  0  0
  185.9960  178.8770  142.7800 C   0  0  0  0  0  2  0  0  0  0  0  0
  197.2420  173.7800  144.9290 N   0  0  0  0  0  2  0  0  0  0  0  0
  197.5810  174.9220  144.0800 C   0  0  0  0  0  2  0  0  0  0  0  0
  196.4100  175.8840  142.2390 C   0  0  0  0  0  3  0  0  0  0  0  0
  196.3520  175.5370  143.5140 C   0  0  0  0  0  3  0  0  0  0  0  0
  195.3370  176.5020  141.5930 O   0  0  0  0  0  0  0  0  0  0  0  0
  194.0580  175.9360  141.6720 C   0  0  0  0  0  0  0  0  0  0  0  0
  193.1050  176.6170  142.1490 O   0  0  0  0  0  0  0  0  0  0  0  0
  193.8100  174.5390  141.1740 C   0  0  0  0  0  2  0  0  0  0  0  0
  192.2900  172.2560  142.2750 C   0  0  0  0  0  2  0  0  0  0  0  0
  190.1450  173.2780  141.7220 C   0  0  1  0  0  3  0  0  0  0  0  0
  189.7280  173.7300  140.2790 C   0  0  0  0  0  2  0  0  0  0  0  0
  189.9570  171.7330  141.8500 C   0  0  1  0  0  3  0  0  0  0  0  0
  190.6320  171.9990  138.3390 O   0  0  0  0  0  0  0  0  0  0  0  0
  189.9930  171.7640  139.5150 C   0  0  1  0  0  3  0  0  0  0  0  0
  190.6260  170.9530  140.6720 C   0  0  1  0  0  3  0  0  0  0  0  0
  192.3440  174.2400  140.8150 C   0  0  2  0  0  3  0  0  0  0  0  0
  191.6300  173.5910  142.0140 C   0  0  2  0  0  3  0  0  0  0  0  0
  190.7020  173.0910  139.2690 C   0  0  2  0  0  0  0  0  0  0  0  0
  192.1910  173.2870  139.6200 C   0  0  0  0  0  2  0  0  0  0  0  0
  191.2860  171.1370  142.0600 C   0  0  1  0  0  3  0  0  0  0  0  0
  196.3100  172.3440  143.2120 N   0  0  0  0  0  2  0  0  0  0  0  0
  197.1820  171.3030  143.5610 N   0  0  0  0  0  2  0  0  0  0  0  0
  197.1850  170.3940  142.4300 C   0  0  0  0  0  2  0  0  0  0  0  0
  196.9110  171.1460  141.1380 C   0  0  0  0  0  2  0  0  0  0  0  0
  197.5410  170.3830  139.9920 C   0  0  0  0  0  2  0  0  0  0  0  0
  197.8550  171.3000  138.9880 O   0  0  0  0  0  0  0  0  0  0  0  0
  196.8230  171.1760  138.0480 C   0  0  1  0  0  3  0  0  0  0  0  0
  197.6710  174.6510  136.5990 C   0  0  0  0  0  3  0  0  0  0  0  0
  196.6540  172.4720  137.2510 C   0  0  2  0  0  3  0  0  0  0  0  0
  194.3790  175.4300  137.8370 O   0  0  0  0  0  1  0  0  0  0  0  0
  195.2580  174.6060  137.1300 C   0  0  1  0  0  0  0  0  0  0  0  0
  197.8500  173.4160  137.4320 C   0  0  0  0  0  2  0  0  0  0  0  0
  196.4690  175.2330  136.4860 C   0  0  0  0  0  0  0  0  0  0  0  0
  195.3380  173.1650  137.6360 C   0  0  1  0  0  3  0  0  0  0  0  0
  196.3160  176.4540  135.6500 C   0  0  0  0  0  1  0  0  0  0  0  0
  194.5710  173.5080  136.3540 C   0  0  0  0  0  2  0  0  0  0  0  0
  197.1390  170.0200  137.1120 C   0  0  0  0  0  2  0  0  0  0  0  0
  196.4380  170.2010  135.7800 C   0  0  0  0  0  2  0  0  0  0  0  0
  197.4400  168.4180  134.8470 O   0  0  0  0  0  1  0  0  0  0  0  0
  196.2180  168.9060  135.1550 N   0  0  0  0  0  2  0  0  0  0  0  0
  1 43  1  6  0  0  0
  1 23  1  0  0  0  0
  2  1  1  6  0  0  0
  2  4  1  0  0  0  0
  3  2  1  0  0  0  0
  3  4  1  0  0  0  0
  4  6  1  6  0  0  0
  6  5  2  0  0  0  0
  7 12  1  0  0  0  0
  8 15  1  0  0  0  0
  8  9  2  0  0  0  0
 10  9  1  0  0  0  0
 10 14  2  0  0  0  0
 11  5  1  6  0  0  0
 11 10  1  0  0  0  0
 12 13  2  0  0  0  0
 12 11  1  0  0  0  0
 13  8  1  0  0  0  0
 16 17  1  0  0  0  0
 17 19  1  0  0  0  0
 17 15  1  1  0  0  0
 18 19  1  0  0  0  0
 20 16  1  0  0  0  0
 20 18  1  0  0  0  0
 21 22  1  0  0  0  0
 22 20  1  0  0  0  0
 24 23  1  0  0  0  0
 25 26  2  0  0  0  0
 26 24  1  0  0  0  0
 27 28  1  0  0  0  0
 27 25  1  0  0  0  0
 28 29  2  0  0  0  0
 30 28  1  0  0  0  0
 32 33  1  6  0  0  0
 32 34  1  0  0  0  0
 32 39  1  0  0  0  0
 34 42  1  0  0  0  0
 35 40  1  0  0  0  0
 35 36  1  0  0  0  0
 36 37  1  0  0  0  0
 37 34  1  0  0  0  0
 37 42  1  0  0  0  0
 38 30  1  0  0  0  0
 38 39  1  0  0  0  0
 39 31  1  0  0  0  0
 40 36  1  0  0  0  0
 40 41  1  0  0  0  0
 40 33  1  0  0  0  0
 41 38  1  0  0  0  0
 42 31  1  0  0  0  0
 43 44  1  0  0  0  0
 45 44  1  0  0  0  0
 46 45  1  0  0  0  0
 47 46  1  0  0  0  0
 48 47  1  0  0  0  0
 49 48  1  0  0  0  0
 50 54  1  0  0  0  0
 51 54  1  0  0  0  0
 51 56  1  0  0  0  0
 51 49  1  0  0  0  0
 53 56  1  0  0  0  0
 53 52  1  0  0  0  0
 55 50  2  0  0  0  0
 55 53  1  0  0  0  0
 57 55  1  0  0  0  0
 58 53  1  0  0  0  0
 58 56  1  0  0  0  0
 59 49  1  0  0  0  0
 60 59  1  0  0  0  0
 61 62  1  0  0  0  0
 62 60  1  0  0  0  0
M  END
>  <MODEL>
7

>  <REMARK>
 VINA RESULT:      -5.4      3.311      9.174
  Name = 
  24 active torsions:
  status: ('A' for Active; 'I' for Inactive)
    1  A    between atoms: C_3  and  C_46
    2  A    between atoms: S_4  and  C_15
    3  A    between atoms: S_4  and  C_36
    4  A    between atoms: C_5  and  O_37
    5  A    between atoms: C_5  and  C_59
    6  A    between atoms: C_6  and  C_51
    7  A    between atoms: C_9  and  C_48
    8  A    between atoms: N_13  and  N_25
    9  A    between atoms: N_13  and  C_26
   10  A    between atoms: O_16  and  C_32
   11  A    between atoms: O_16  and  C_48
   12  A    between atoms: C_21  and  C_26
   13  A    between atoms: C_21  and  C_32
   14  A    between atoms: N_24  and  C_29
   15  A    between atoms: N_25  and  C_46
   16  A    between atoms: N_27  and  C_34
   17  A    between atoms: N_27  and  C_46
   18  A    between atoms: C_28  and  O_37
   19  A    between atoms: C_29  and  C_50
   20  A    between atoms: C_34  and  C_62
   21  A    between atoms: C_38  and  N_47
   22  A    between atoms: C_48  and  C_50
   23  A    between atoms: C_49  and  C_59
   24  A    between atoms: C_52  and  N_58
                            x       y       z     vdW  Elec       q    Type
                         _______ _______ _______ _____ _____    ______ ____

>  <TORSDO>
F 24

$$$$
=
 OpenBabel11042414133D

 62 71  0  0  1  0  0  0  0  0999 V2000
  189.2000  172.6040  140.1730 C   0  0  1  0  0  3  0  0  0  0  0  0
  190.6910  172.7190  139.8470 C   0  0  2  0  0  3  0  0  0  0  0  0
  191.0130  171.7850  138.8440 O   0  0  0  0  0  0  0  0  0  0  0  0
  191.5240  171.5010  140.1230 C   0  0  2  0  0  3  0  0  0  0  0  0
  191.1510  169.7680  141.8820 C   0  0  0  0  0  3  0  0  0  0  0  0
  190.8050  170.4370  140.8280 N   0  0  0  0  0  0  0  0  0  0  0  0
  191.4730  171.5330  144.3020 O   0  0  0  0  0  1  0  0  0  0  0  0
  194.5210  171.9160  142.2410 C   0  0  0  0  0  0  0  0  0  0  0  0
  194.6040  170.8050  141.5720 N   0  0  0  0  0  0  0  0  0  0  0  0
  193.6220  169.7710  141.6980 C   0  0  0  0  0  0  0  0  0  0  0  0
  192.4420  169.9330  142.6300 C   0  0  1  0  0  3  0  0  0  0  0  0
  192.4580  171.2550  143.3620 C   0  0  0  0  0  0  0  0  0  0  0  0
  193.4200  172.1510  143.1750 C   0  0  0  0  0  3  0  0  0  0  0  0
  193.7710  168.6970  141.0540 O   0  0  0  0  0  0  0  0  0  0  0  0
  195.7420  173.2120  142.0200 S   0  0  0  0  0  0  0  0  0  0  0  0
  194.9210  174.6200  144.1520 N   0  0  0  0  0  2  0  0  0  0  0  0
  195.9340  173.6340  143.7960 C   0  0  2  0  0  3  0  0  0  0  0  0
  196.8930  175.7720  143.8900 C   0  0  0  0  0  2  0  0  0  0  0  0
  197.2440  174.3230  144.0450 C   0  0  0  0  0  2  0  0  0  0  0  0
  195.4370  175.8870  143.8050 N   0  0  0  0  0  0  0  0  0  0  0  0
  193.7050  176.3420  145.4860 C   0  0  0  0  0  1  0  0  0  0  0  0
  194.9980  176.8160  144.8390 C   0  0  0  0  0  2  0  0  0  0  0  0
  188.9410  172.9650  141.5710 N   0  0  0  0  0  2  0  0  0  0  0  0
  188.6520  174.3990  141.6090 C   0  0  0  0  0  2  0  0  0  0  0  0
  190.1340  174.3410  143.4770 C   0  0  0  0  0  3  0  0  0  0  0  0
  189.1650  175.0030  142.8670 C   0  0  0  0  0  3  0  0  0  0  0  0
  190.6820  174.7810  144.6840 O   0  0  0  0  0  0  0  0  0  0  0  0
  189.8370  175.2040  145.7170 C   0  0  0  0  0  0  0  0  0  0  0  0
  189.5670  174.4100  146.6630 O   0  0  0  0  0  0  0  0  0  0  0  0
  189.2740  176.5970  145.7200 C   0  0  0  0  0  2  0  0  0  0  0  0
  187.3330  178.1090  144.0810 C   0  0  0  0  0  2  0  0  0  0  0  0
  185.4380  176.8680  144.9860 C   0  0  1  0  0  3  0  0  0  0  0  0
  185.0940  176.7690  146.5130 C   0  0  0  0  0  2  0  0  0  0  0  0
  184.9340  178.2400  144.4350 C   0  0  1  0  0  3  0  0  0  0  0  0
  185.5770  179.1290  147.8480 O   0  0  0  0  0  0  0  0  0  0  0  0
  184.9280  178.8820  146.6800 C   0  0  1  0  0  3  0  0  0  0  0  0
  185.4010  179.4420  145.3170 C   0  0  1  0  0  3  0  0  0  0  0  0
  187.7700  176.6790  146.0390 C   0  0  2  0  0  3  0  0  0  0  0  0
  186.9610  176.7980  144.7350 C   0  0  2  0  0  3  0  0  0  0  0  0
  185.8930  177.8560  147.2620 C   0  0  2  0  0  0  0  0  0  0  0  0
  187.3970  177.8790  146.9210 C   0  0  0  0  0  2  0  0  0  0  0  0
  186.1130  179.0120  144.0120 C   0  0  1  0  0  3  0  0  0  0  0  0
  188.3350  173.3650  139.2570 N   0  0  0  0  0  2  0  0  0  0  0  0
  188.5340  172.9320  137.9380 N   0  0  0  0  0  2  0  0  0  0  0  0
  188.6880  174.1380  137.1450 C   0  0  0  0  0  2  0  0  0  0  0  0
  189.6380  173.8960  135.9830 C   0  0  0  0  0  2  0  0  0  0  0  0
  190.9200  174.6610  136.2400 C   0  0  0  0  0  2  0  0  0  0  0  0
  191.8790  173.7500  136.6870 O   0  0  0  0  0  0  0  0  0  0  0  0
  193.0240  174.0300  135.9290 C   0  0  1  0  0  3  0  0  0  0  0  0
  195.1760  175.2390  138.8960 C   0  0  0  0  0  3  0  0  0  0  0  0
  194.2480  174.1930  136.8340 C   0  0  2  0  0  3  0  0  0  0  0  0
  197.4940  176.0370  136.2560 O   0  0  0  0  0  1  0  0  0  0  0  0
  196.6120  175.1550  136.8870 C   0  0  1  0  0  0  0  0  0  0  0  0
  193.9720  175.1430  138.0070 C   0  0  0  0  0  2  0  0  0  0  0  0
  196.4110  175.2830  138.3760 C   0  0  0  0  0  0  0  0  0  0  0  0
  195.4580  174.6640  136.0130 C   0  0  1  0  0  3  0  0  0  0  0  0
  197.5890  175.3730  139.2790 C   0  0  0  0  0  1  0  0  0  0  0  0
  196.6500  173.7530  136.3270 C   0  0  0  0  0  2  0  0  0  0  0  0
  193.2510  172.9020  134.9350 C   0  0  0  0  0  2  0  0  0  0  0  0
  192.6490  171.6070  135.4460 C   0  0  0  0  0  2  0  0  0  0  0  0
  194.7900  171.1110  134.9720 O   0  0  0  0  0  1  0  0  0  0  0  0
  193.6710  170.5740  135.5070 N   0  0  0  0  0  2  0  0  0  0  0  0
  1 43  1  6  0  0  0
  1 23  1  0  0  0  0
  2  4  1  0  0  0  0
  2  1  1  1  0  0  0
  3  2  1  0  0  0  0
  3  4  1  0  0  0  0
  4  6  1  1  0  0  0
  6  5  2  0  0  0  0
  8 13  1  0  0  0  0
  9 10  1  0  0  0  0
  9  8  2  0  0  0  0
 10 11  1  0  0  0  0
 11  5  1  6  0  0  0
 11 12  1  0  0  0  0
 12  7  1  0  0  0  0
 13 12  2  0  0  0  0
 14 10  2  0  0  0  0
 15  8  1  0  0  0  0
 17 15  1  6  0  0  0
 17 19  1  0  0  0  0
 17 16  1  0  0  0  0
 18 19  1  0  0  0  0
 20 18  1  0  0  0  0
 20 16  1  0  0  0  0
 20 22  1  0  0  0  0
 22 21  1  0  0  0  0
 23 24  1  0  0  0  0
 24 26  1  0  0  0  0
 25 27  1  0  0  0  0
 26 25  2  0  0  0  0
 27 28  1  0  0  0  0
 28 30  1  0  0  0  0
 28 29  2  0  0  0  0
 30 38  1  0  0  0  0
 31 39  1  0  0  0  0
 32 33  1  1  0  0  0
 33 40  1  0  0  0  0
 34 32  1  0  0  0  0
 34 37  1  0  0  0  0
 36 40  1  0  0  0  0
 36 35  1  0  0  0  0
 37 36  1  0  0  0  0
 38 41  1  0  0  0  0
 39 32  1  0  0  0  0
 39 38  1  0  0  0  0
 40 35  1  0  0  0  0
 41 40  1  0  0  0  0
 42 31  1  0  0  0  0
 42 34  1  0  0  0  0
 42 37  1  0  0  0  0
 44 43  1  0  0  0  0
 45 44  1  0  0  0  0
 46 47  1  0  0  0  0
 46 45  1  0  0  0  0
 47 48  1  0  0  0  0
 49 48  1  0  0  0  0
 49 51  1  0  0  0  0
 51 54  1  0  0  0  0
 52 53  1  0  0  0  0
 53 55  1  0  0  0  0
 54 50  1  0  0  0  0
 55 50  2  0  0  0  0
 55 57  1  0  0  0  0
 56 58  1  0  0  0  0
 56 51  1  0  0  0  0
 56 53  1  0  0  0  0
 58 53  1  0  0  0  0
 59 60  1  0  0  0  0
 59 49  1  0  0  0  0
 60 62  1  0  0  0  0
 61 62  1  0  0  0  0
M  END
>  <MODEL>
8

>  <REMARK>
 VINA RESULT:      -5.4      2.524      6.819
  Name = 
  24 active torsions:
  status: ('A' for Active; 'I' for Inactive)
    1  A    between atoms: C_3  and  C_46
    2  A    between atoms: S_4  and  C_15
    3  A    between atoms: S_4  and  C_36
    4  A    between atoms: C_5  and  O_37
    5  A    between atoms: C_5  and  C_59
    6  A    between atoms: C_6  and  C_51
    7  A    between atoms: C_9  and  C_48
    8  A    between atoms: N_13  and  N_25
    9  A    between atoms: N_13  and  C_26
   10  A    between atoms: O_16  and  C_32
   11  A    between atoms: O_16  and  C_48
   12  A    between atoms: C_21  and  C_26
   13  A    between atoms: C_21  and  C_32
   14  A    between atoms: N_24  and  C_29
   15  A    between atoms: N_25  and  C_46
   16  A    between atoms: N_27  and  C_34
   17  A    between atoms: N_27  and  C_46
   18  A    between atoms: C_28  and  O_37
   19  A    between atoms: C_29  and  C_50
   20  A    between atoms: C_34  and  C_62
   21  A    between atoms: C_38  and  N_47
   22  A    between atoms: C_48  and  C_50
   23  A    between atoms: C_49  and  C_59
   24  A    between atoms: C_52  and  N_58
                            x       y       z     vdW  Elec       q    Type
                         _______ _______ _______ _____ _____    ______ ____

>  <TORSDO>
F 24

$$$$
=
 OpenBabel11042414133D

 62 71  0  0  1  0  0  0  0  0999 V2000
  193.1020  172.2320  144.2810 C   0  0  1  0  0  3  0  0  0  0  0  0
  193.5990  172.9270  143.0100 C   0  0  2  0  0  3  0  0  0  0  0  0
  193.3410  172.0950  141.9040 O   0  0  0  0  0  0  0  0  0  0  0  0
  194.6950  172.2270  142.2600 C   0  0  2  0  0  3  0  0  0  0  0  0
  195.8020  169.9990  142.4730 C   0  0  0  0  0  3  0  0  0  0  0  0
  195.2430  171.0630  142.9570 N   0  0  0  0  0  0  0  0  0  0  0  0
  197.9310  171.2870  140.7730 O   0  0  0  0  0  1  0  0  0  0  0  0
  194.8560  171.0820  138.7260 C   0  0  0  0  0  0  0  0  0  0  0  0
  194.1940  170.0840  139.2320 N   0  0  0  0  0  0  0  0  0  0  0  0
  194.6770  169.3510  140.3620 C   0  0  0  0  0  0  0  0  0  0  0  0
  195.9940  169.7100  141.0120 C   0  0  1  0  0  3  0  0  0  0  0  0
  196.6790  170.8720  140.3330 C   0  0  0  0  0  0  0  0  0  0  0  0
  196.1460  171.4890  139.2840 C   0  0  0  0  0  3  0  0  0  0  0  0
  194.0130  168.3680  140.7890 O   0  0  0  0  0  0  0  0  0  0  0  0
  194.1960  172.0120  137.3410 S   0  0  0  0  0  0  0  0  0  0  0  0
  191.5190  171.8500  137.2380 N   0  0  0  0  0  2  0  0  0  0  0  0
  192.5660  172.3940  138.0930 C   0  0  2  0  0  3  0  0  0  0  0  0
  191.6060  174.1070  136.8110 C   0  0  0  0  0  2  0  0  0  0  0  0
  192.3170  173.8740  138.1100 C   0  0  0  0  0  2  0  0  0  0  0  0
  191.2680  172.8070  136.2310 N   0  0  0  0  0  0  0  0  0  0  0  0
  189.2640  171.3890  136.1820 C   0  0  0  0  0  1  0  0  0  0  0  0
  189.8330  172.7860  135.9810 C   0  0  0  0  0  2  0  0  0  0  0  0
  192.7160  173.2150  145.2980 N   0  0  0  0  0  2  0  0  0  0  0  0
  193.7020  174.2950  145.2650 C   0  0  0  0  0  2  0  0  0  0  0  0
  192.3790  175.5770  146.7780 C   0  0  0  0  0  3  0  0  0  0  0  0
  193.5920  175.1420  146.4810 C   0  0  0  0  0  3  0  0  0  0  0  0
  192.1410  176.4090  147.8750 O   0  0  0  0  0  0  0  0  0  0  0  0
  190.9780  177.1880  147.9180 C   0  0  0  0  0  0  0  0  0  0  0  0
  190.7760  177.9500  148.9060 O   0  0  0  0  0  0  0  0  0  0  0  0
  189.9860  177.1400  146.7890 C   0  0  0  0  0  2  0  0  0  0  0  0
  187.7200  177.4620  144.9190 C   0  0  0  0  0  2  0  0  0  0  0  0
  186.1280  176.5340  146.5180 C   0  0  1  0  0  3  0  0  0  0  0  0
  185.8940  177.1020  147.9610 C   0  0  0  0  0  2  0  0  0  0  0  0
  185.3590  177.4220  145.4870 C   0  0  1  0  0  3  0  0  0  0  0  0
  186.0250  179.8510  148.0380 O   0  0  0  0  0  0  0  0  0  0  0  0
  185.3650  179.0130  147.1960 C   0  0  1  0  0  3  0  0  0  0  0  0
  185.6550  178.9440  145.6770 C   0  0  1  0  0  3  0  0  0  0  0  0
  188.5120  177.1580  147.2320 C   0  0  2  0  0  3  0  0  0  0  0  0
  187.6230  176.5590  146.1280 C   0  0  2  0  0  3  0  0  0  0  0  0
  186.5280  178.5050  148.0410 C   0  0  2  0  0  0  0  0  0  0  0  0
  187.9830  178.5680  147.5320 C   0  0  0  0  0  2  0  0  0  0  0  0
  186.3580  178.0620  144.6170 C   0  0  1  0  0  3  0  0  0  0  0  0
  192.0220  171.2620  144.0380 N   0  0  0  0  0  2  0  0  0  0  0  0
  190.7760  171.9030  144.1100 N   0  0  0  0  0  2  0  0  0  0  0  0
  190.0820  171.5540  142.8840 C   0  0  0  0  0  2  0  0  0  0  0  0
  188.6210  171.9680  142.9610 C   0  0  0  0  0  2  0  0  0  0  0  0
  188.2290  172.6040  141.6440 C   0  0  0  0  0  2  0  0  0  0  0  0
  187.4470  173.7250  141.9250 O   0  0  0  0  0  0  0  0  0  0  0  0
  188.0110  174.7600  141.1680 C   0  0  1  0  0  3  0  0  0  0  0  0
  189.3570  178.1330  142.4740 C   0  0  0  0  0  3  0  0  0  0  0  0
  188.7550  175.7490  142.0680 C   0  0  2  0  0  3  0  0  0  0  0  0
  192.4590  176.3020  142.5660 O   0  0  0  0  0  1  0  0  0  0  0  0
  191.0940  176.4150  142.8450 C   0  0  1  0  0  0  0  0  0  0  0  0
  188.6590  177.1880  141.5420 C   0  0  0  0  0  2  0  0  0  0  0  0
  190.5150  177.7910  143.0570 C   0  0  0  0  0  0  0  0  0  0  0  0
  190.2190  175.3170  142.2360 C   0  0  1  0  0  3  0  0  0  0  0  0
  191.1860  178.7430  143.9820 C   0  0  0  0  0  1  0  0  0  0  0  0
  190.5620  175.3120  143.7300 C   0  0  0  0  0  2  0  0  0  0  0  0
  188.9620  174.1630  140.1420 C   0  0  0  0  0  2  0  0  0  0  0  0
  188.2630  173.9680  138.8110 C   0  0  0  0  0  2  0  0  0  0  0  0
  187.8230  175.0160  136.8720 O   0  0  0  0  0  1  0  0  0  0  0  0
  188.0120  175.2580  138.1880 N   0  0  0  0  0  2  0  0  0  0  0  0
  1 43  1  6  0  0  0
  1 23  1  0  0  0  0
  2  1  1  1  0  0  0
  3  4  1  0  0  0  0
  3  2  1  0  0  0  0
  4  6  1  1  0  0  0
  4  2  1  0  0  0  0
  5  6  2  0  0  0  0
  8  9  2  0  0  0  0
  8 13  1  0  0  0  0
  9 10  1  0  0  0  0
 10 14  2  0  0  0  0
 10 11  1  0  0  0  0
 11  5  1  1  0  0  0
 12  7  1  0  0  0  0
 12 11  1  0  0  0  0
 13 12  2  0  0  0  0
 15  8  1  0  0  0  0
 16 17  1  0  0  0  0
 17 15  1  6  0  0  0
 17 19  1  0  0  0  0
 18 19  1  0  0  0  0
 20 18  1  0  0  0  0
 20 16  1  0  0  0  0
 22 21  1  0  0  0  0
 22 20  1  0  0  0  0
 24 23  1  0  0  0  0
 24 26  1  0  0  0  0
 25 27  1  0  0  0  0
 26 25  2  0  0  0  0
 27 28  1  0  0  0  0
 28 29  2  0  0  0  0
 30 38  1  0  0  0  0
 30 28  1  0  0  0  0
 31 39  1  0  0  0  0
 32 33  1  1  0  0  0
 33 40  1  0  0  0  0
 34 37  1  0  0  0  0
 34 32  1  0  0  0  0
 35 40  1  0  0  0  0
 36 35  1  0  0  0  0
 36 40  1  0  0  0  0
 37 36  1  0  0  0  0
 38 41  1  0  0  0  0
 39 32  1  0  0  0  0
 39 38  1  0  0  0  0
 41 40  1  0  0  0  0
 42 31  1  0  0  0  0
 42 34  1  0  0  0  0
 42 37  1  0  0  0  0
 43 44  1  0  0  0  0
 45 46  1  0  0  0  0
 45 44  1  0  0  0  0
 47 48  1  0  0  0  0
 47 46  1  0  0  0  0
 49 48  1  0  0  0  0
 49 51  1  0  0  0  0
 50 55  2  0  0  0  0
 51 56  1  0  0  0  0
 52 53  1  0  0  0  0
 53 55  1  0  0  0  0
 53 58  1  0  0  0  0
 54 51  1  0  0  0  0
 54 50  1  0  0  0  0
 55 57  1  0  0  0  0
 56 53  1  0  0  0  0
 56 58  1  0  0  0  0
 59 49  1  0  0  0  0
 60 59  1  0  0  0  0
 61 62  1  0  0  0  0
 62 60  1  0  0  0  0
M  END
>  <MODEL>
9

>  <REMARK>
 VINA RESULT:      -5.2      2.617      6.159
  Name = 
  24 active torsions:
  status: ('A' for Active; 'I' for Inactive)
    1  A    between atoms: C_3  and  C_46
    2  A    between atoms: S_4  and  C_15
    3  A    between atoms: S_4  and  C_36
    4  A    between atoms: C_5  and  O_37
    5  A    between atoms: C_5  and  C_59
    6  A    between atoms: C_6  and  C_51
    7  A    between atoms: C_9  and  C_48
    8  A    between atoms: N_13  and  N_25
    9  A    between atoms: N_13  and  C_26
   10  A    between atoms: O_16  and  C_32
   11  A    between atoms: O_16  and  C_48
   12  A    between atoms: C_21  and  C_26
   13  A    between atoms: C_21  and  C_32
   14  A    between atoms: N_24  and  C_29
   15  A    between atoms: N_25  and  C_46
   16  A    between atoms: N_27  and  C_34
   17  A    between atoms: N_27  and  C_46
   18  A    between atoms: C_28  and  O_37
   19  A    between atoms: C_29  and  C_50
   20  A    between atoms: C_34  and  C_62
   21  A    between atoms: C_38  and  N_47
   22  A    between atoms: C_48  and  C_50
   23  A    between atoms: C_49  and  C_59
   24  A    between atoms: C_52  and  N_58
                            x       y       z     vdW  Elec       q    Type
                         _______ _______ _______ _____ _____    ______ ____

>  <TORSDO>
F 24

$$$$
