=
 OpenBabel11042418023D

 35 38  0  0  1  0  0  0  0  0999 V2000
  188.6790  175.9720  145.9830 C   0  0  1  0  0  3  0  0  0  0  0  0
  189.6010  175.1330  146.8200 C   0  0  0  0  0  0  0  0  0  0  0  0
  189.1360  174.4920  147.8030 O   0  0  0  0  0  0  0  0  0  0  0  0
  191.9300  176.0300  146.9690 C   0  0  0  0  0  3  0  0  0  0  0  0
  191.0390  175.0530  146.5030 C   0  0  0  0  0  0  0  0  0  0  0  0
  193.3560  172.8170  144.6950 O   0  0  0  0  0  1  0  0  0  0  0  0
  192.8960  173.8900  145.4510 C   0  0  0  0  0  0  0  0  0  0  0  0
  193.7860  174.8660  145.9290 C   0  0  0  0  0  0  0  0  0  0  0  0
  191.5320  173.9880  145.7400 C   0  0  0  0  0  3  0  0  0  0  0  0
  193.2950  175.9400  146.6860 C   0  0  0  0  0  0  0  0  0  0  0  0
  194.1320  176.9000  147.1540 F   0  0  0  0  0  0  0  0  0  0  0  0
  196.3290  174.6860  145.4210 N   0  0  0  0  0  0  0  0  0  0  0  0
  195.1960  174.7660  145.6480 C   0  0  0  0  0  0  0  0  0  0  0  0
  188.4090  177.3230  146.6330 C   0  0  0  0  0  2  0  0  0  0  0  0
  185.9520  176.6520  146.4280 C   0  0  0  0  0  3  0  0  0  0  0  0
  184.6370  178.4090  147.2720 C   0  0  0  0  0  3  0  0  0  0  0  0
  186.9450  177.5280  146.8300 C   0  0  0  0  0  0  0  0  0  0  0  0
  184.6640  177.1440  146.6840 C   0  0  0  0  0  3  0  0  0  0  0  0
  186.2330  178.9050  147.4650 S   0  0  0  0  0  0  0  0  0  0  0  0
  189.2550  176.1660  144.5910 C   0  0  0  0  0  2  0  0  0  0  0  0
  189.0720  177.6100  144.1590 C   0  0  2  0  0  3  0  0  0  0  0  0
  188.4490  177.6660  142.9130 N   0  0  0  0  0  0  0  0  0  0  0  0
  191.0950  178.1600  142.6780 O   0  0  0  0  0  0  0  0  0  0  0  0
  189.9460  177.9060  143.1220 C   0  0  0  0  0  0  0  0  0  0  0  0
  187.2790  177.5540  142.0590 C   0  0  2  0  0  3  0  0  0  0  0  0
  186.0370  177.3340  142.9150 C   0  0  1  0  0  3  0  0  0  0  0  0
  185.5080  178.6580  143.4260 C   0  0  0  0  0  2  0  0  0  0  0  0
  184.7580  177.9370  142.3240 C   0  0  1  0  0  3  0  0  0  0  0  0
  183.8370  178.3440  140.3550 C   0  0  0  0  0  1  0  0  0  0  0  0
  184.9870  178.5850  141.1060 O   0  0  0  0  0  0  0  0  0  0  0  0
  187.4410  176.4720  141.1910 O   0  0  0  0  0  0  0  0  0  0  0  0
  187.2110  175.3430  141.9810 C   0  0  0  0  0  2  0  0  0  0  0  0
  187.8430  172.9160  141.7340 N   0  0  0  0  0  1  0  0  0  0  0  0
  189.3570  174.6120  141.2550 O   0  0  0  0  0  0  0  0  0  0  0  0
  188.2060  174.2890  141.6490 C   0  0  0  0  0  0  0  0  0  0  0  0
  1 20  1  6  0  0  0
  1 14  1  0  0  0  0
  1  2  1  0  0  0  0
  2  3  2  0  0  0  0
  5  2  1  0  0  0  0
  5  4  2  0  0  0  0
  6  7  1  0  0  0  0
  7  9  2  0  0  0  0
  7  8  1  0  0  0  0
  8 10  2  0  0  0  0
  9  5  1  0  0  0  0
 10  4  1  0  0  0  0
 10 11  1  0  0  0  0
 12 13  3  0  0  0  0
 13  8  1  0  0  0  0
 14 17  1  0  0  0  0
 15 18  1  0  0  0  0
 15 17  2  0  0  0  0
 16 19  1  0  0  0  0
 17 19  1  0  0  0  0
 18 16  2  0  0  0  0
 21 20  1  6  0  0  0
 22 24  1  0  0  0  0
 22 21  1  0  0  0  0
 23 24  2  0  0  0  0
 24 21  1  0  0  0  0
 25 31  1  6  0  0  0
 25 22  1  0  0  0  0
 26 25  1  6  0  0  0
 26 27  1  0  0  0  0
 28 30  1  6  0  0  0
 28 26  1  0  0  0  0
 28 27  1  0  0  0  0
 29 30  1  0  0  0  0
 31 32  1  0  0  0  0
 34 35  2  0  0  0  0
 35 33  1  0  0  0  0
 35 32  1  0  0  0  0
M  END
>  <MODEL>
1

>  <REMARK>
 VINA RESULT:      -6.9      0.000      0.000
  Name = 
  13 active torsions:
  status: ('A' for Active; 'I' for Inactive)
    1  A    between atoms: C_3  and  C_13
    2  A    between atoms: C_3  and  C_16
    3  A    between atoms: O_4  and  C_11
    4  A    between atoms: O_4  and  C_14
    5  A    between atoms: CA_5  and  C_22
    6  A    between atoms: N_6  and  C_11
    7  A    between atoms: C_8  and  C_13
    8  A    between atoms: C_8  and  C_30
    9  A    between atoms: C_11  and  C_19
   10  A    between atoms: C_13  and  C_22
   11  A    between atoms: C_14  and  C_26
   12  A    between atoms: C_23  and  C_31
   13  A    between atoms: O_32  and  C_34
                            x       y       z     vdW  Elec       q    Type
                         _______ _______ _______ _____ _____    ______ ____

>  <TORSDO>
F 13

$$$$
=
 OpenBabel11042418023D

 35 38  0  0  1  0  0  0  0  0999 V2000
  188.8600  174.2400  141.9220 C   0  0  1  0  0  3  0  0  0  0  0  0
  189.4610  173.5650  143.1210 C   0  0  0  0  0  0  0  0  0  0  0  0
  189.6050  172.3110  143.1210 O   0  0  0  0  0  0  0  0  0  0  0  0
  189.3520  174.0920  145.5630 C   0  0  0  0  0  3  0  0  0  0  0  0
  189.8840  174.3550  144.2930 C   0  0  0  0  0  0  0  0  0  0  0  0
  192.2120  177.1110  145.0830 O   0  0  0  0  0  1  0  0  0  0  0  0
  191.2610  176.1120  145.2560 C   0  0  0  0  0  0  0  0  0  0  0  0
  190.7300  175.8380  146.5280 C   0  0  0  0  0  0  0  0  0  0  0  0
  190.8370  175.3710  144.1490 C   0  0  0  0  0  3  0  0  0  0  0  0
  189.7690  174.8260  146.6750 C   0  0  0  0  0  0  0  0  0  0  0  0
  189.2360  174.5460  147.8900 F   0  0  0  0  0  0  0  0  0  0  0  0
  191.5280  177.1860  148.6020 N   0  0  0  0  0  0  0  0  0  0  0  0
  191.1720  176.5860  147.6780 C   0  0  0  0  0  0  0  0  0  0  0  0
  188.3950  173.2250  140.8860 C   0  0  0  0  0  2  0  0  0  0  0  0
  188.2520  173.9380  138.4360 C   0  0  0  0  0  3  0  0  0  0  0  0
  190.4060  173.8020  137.5030 C   0  0  0  0  0  3  0  0  0  0  0  0
  188.9740  173.5380  139.5470 C   0  0  0  0  0  0  0  0  0  0  0  0
  189.0570  174.0910  137.2980 C   0  0  0  0  0  3  0  0  0  0  0  0
  190.5810  173.3490  139.1140 S   0  0  0  0  0  0  0  0  0  0  0  0
  187.7030  175.1310  142.3380 C   0  0  0  0  0  2  0  0  0  0  0  0
  188.0030  176.5700  141.9560 C   0  0  2  0  0  3  0  0  0  0  0  0
  186.9560  177.4020  142.3490 N   0  0  0  0  0  0  0  0  0  0  0  0
  186.8630  176.9450  139.6880 O   0  0  0  0  0  0  0  0  0  0  0  0
  187.1870  176.9580  140.9030 C   0  0  0  0  0  0  0  0  0  0  0  0
  186.2000  178.1210  143.3600 C   0  0  2  0  0  3  0  0  0  0  0  0
  185.5430  177.1280  144.3130 C   0  0  1  0  0  3  0  0  0  0  0  0
  186.5030  176.7450  145.4190 C   0  0  0  0  0  2  0  0  0  0  0  0
  185.3420  177.6670  145.7340 C   0  0  1  0  0  3  0  0  0  0  0  0
  185.8460  179.1890  147.2580 C   0  0  0  0  0  1  0  0  0  0  0  0
  185.8150  178.9750  145.8800 O   0  0  0  0  0  0  0  0  0  0  0  0
  185.2140  178.8910  142.7410 O   0  0  0  0  0  0  0  0  0  0  0  0
  184.1440  178.0130  142.5470 C   0  0  0  0  0  2  0  0  0  0  0  0
  182.1300  178.0260  141.0330 N   0  0  0  0  0  1  0  0  0  0  0  0
  184.2070  178.7490  140.2850 O   0  0  0  0  0  0  0  0  0  0  0  0
  183.5180  178.2730  141.2250 C   0  0  0  0  0  0  0  0  0  0  0  0
  1 14  1  6  0  0  0
  1 20  1  0  0  0  0
  1  2  1  0  0  0  0
  2  3  2  0  0  0  0
  2  5  1  0  0  0  0
  4 10  1  0  0  0  0
  5  4  2  0  0  0  0
  6  7  1  0  0  0  0
  7  8  1  0  0  0  0
  8 10  2  0  0  0  0
  8 13  1  0  0  0  0
  9  5  1  0  0  0  0
  9  7  2  0  0  0  0
 10 11  1  0  0  0  0
 13 12  3  0  0  0  0
 15 17  2  0  0  0  0
 16 19  1  0  0  0  0
 17 14  1  0  0  0  0
 18 16  2  0  0  0  0
 18 15  1  0  0  0  0
 19 17  1  0  0  0  0
 21 20  1  1  0  0  0
 21 22  1  0  0  0  0
 22 25  1  0  0  0  0
 23 24  2  0  0  0  0
 24 21  1  0  0  0  0
 24 22  1  0  0  0  0
 25 31  1  6  0  0  0
 26 25  1  6  0  0  0
 26 27  1  0  0  0  0
 26 28  1  0  0  0  0
 27 28  1  0  0  0  0
 28 30  1  6  0  0  0
 30 29  1  0  0  0  0
 32 31  1  0  0  0  0
 33 35  1  0  0  0  0
 34 35  2  0  0  0  0
 35 32  1  0  0  0  0
M  END
>  <MODEL>
2

>  <REMARK>
 VINA RESULT:      -6.6      3.273      5.735
  Name = 
  13 active torsions:
  status: ('A' for Active; 'I' for Inactive)
    1  A    between atoms: C_3  and  C_13
    2  A    between atoms: C_3  and  C_16
    3  A    between atoms: O_4  and  C_11
    4  A    between atoms: O_4  and  C_14
    5  A    between atoms: CA_5  and  C_22
    6  A    between atoms: N_6  and  C_11
    7  A    between atoms: C_8  and  C_13
    8  A    between atoms: C_8  and  C_30
    9  A    between atoms: C_11  and  C_19
   10  A    between atoms: C_13  and  C_22
   11  A    between atoms: C_14  and  C_26
   12  A    between atoms: C_23  and  C_31
   13  A    between atoms: O_32  and  C_34
                            x       y       z     vdW  Elec       q    Type
                         _______ _______ _______ _____ _____    ______ ____

>  <TORSDO>
F 13

$$$$
=
 OpenBabel11042418023D

 35 38  0  0  1  0  0  0  0  0999 V2000
  188.8470  176.5330  146.2470 C   0  0  1  0  0  3  0  0  0  0  0  0
  189.5290  175.2870  146.7330 C   0  0  0  0  0  0  0  0  0  0  0  0
  188.9360  174.5350  147.5560 O   0  0  0  0  0  0  0  0  0  0  0  0
  192.0160  175.5310  146.8260 C   0  0  0  0  0  3  0  0  0  0  0  0
  190.8810  174.9370  146.2580 C   0  0  0  0  0  0  0  0  0  0  0  0
  192.4500  172.6910  143.7810 O   0  0  0  0  0  1  0  0  0  0  0  0
  192.3200  173.6360  144.7920 C   0  0  0  0  0  0  0  0  0  0  0  0
  193.4540  174.2280  145.3720 C   0  0  0  0  0  0  0  0  0  0  0  0
  191.0440  173.9910  145.2370 C   0  0  0  0  0  3  0  0  0  0  0  0
  193.2950  175.1820  146.3890 C   0  0  0  0  0  0  0  0  0  0  0  0
  194.3740  175.7740  146.9600 F   0  0  0  0  0  0  0  0  0  0  0  0
  195.8360  173.5590  144.5740 N   0  0  0  0  0  0  0  0  0  0  0  0
  194.7760  173.8570  144.9310 C   0  0  0  0  0  0  0  0  0  0  0  0
  188.1030  177.2380  147.3740 C   0  0  0  0  0  2  0  0  0  0  0  0
  185.9450  176.8550  146.0610 C   0  0  0  0  0  3  0  0  0  0  0  0
  184.4990  178.6610  146.4780 C   0  0  0  0  0  3  0  0  0  0  0  0
  186.7140  177.5810  146.9530 C   0  0  0  0  0  0  0  0  0  0  0  0
  184.7050  177.4580  145.8040 C   0  0  0  0  0  3  0  0  0  0  0  0
  185.8790  178.9650  147.3920 S   0  0  0  0  0  0  0  0  0  0  0  0
  189.8540  177.4770  145.6130 C   0  0  0  0  0  2  0  0  0  0  0  0
  189.3780  177.8740  144.2260 C   0  0  2  0  0  3  0  0  0  0  0  0
  189.1510  176.7380  143.4510 N   0  0  0  0  0  0  0  0  0  0  0  0
  191.4780  177.9220  142.7510 O   0  0  0  0  0  0  0  0  0  0  0  0
  190.3810  177.6370  143.2980 C   0  0  0  0  0  0  0  0  0  0  0  0
  188.3660  175.5730  143.0830 C   0  0  2  0  0  3  0  0  0  0  0  0
  188.7410  175.1250  141.6740 C   0  0  1  0  0  3  0  0  0  0  0  0
  190.1270  174.5160  141.6670 C   0  0  0  0  0  2  0  0  0  0  0  0
  188.9200  173.6100  141.5290 C   0  0  1  0  0  3  0  0  0  0  0  0
  189.4360  171.7460  142.6030 C   0  0  0  0  0  1  0  0  0  0  0  0
  188.7100  172.9300  142.7330 O   0  0  0  0  0  0  0  0  0  0  0  0
  187.0080  175.8990  143.1190 O   0  0  0  0  0  0  0  0  0  0  0  0
  186.7870  176.6390  141.9550 C   0  0  0  0  0  2  0  0  0  0  0  0
  186.2840  178.9430  142.8440 N   0  0  0  0  0  1  0  0  0  0  0  0
  184.6200  177.6220  141.9060 O   0  0  0  0  0  0  0  0  0  0  0  0
  185.8280  177.7390  142.2380 C   0  0  0  0  0  0  0  0  0  0  0  0
  1 20  1  1  0  0  0
  1  2  1  0  0  0  0
  1 14  1  0  0  0  0
  2  3  2  0  0  0  0
  5  2  1  0  0  0  0
  5  4  2  0  0  0  0
  6  7  1  0  0  0  0
  7  9  2  0  0  0  0
  7  8  1  0  0  0  0
  8 10  2  0  0  0  0
  9  5  1  0  0  0  0
 10  4  1  0  0  0  0
 10 11  1  0  0  0  0
 12 13  3  0  0  0  0
 13  8  1  0  0  0  0
 15 17  2  0  0  0  0
 16 19  1  0  0  0  0
 17 14  1  0  0  0  0
 17 19  1  0  0  0  0
 18 15  1  0  0  0  0
 18 16  2  0  0  0  0
 21 20  1  1  0  0  0
 22 21  1  0  0  0  0
 23 24  2  0  0  0  0
 24 22  1  0  0  0  0
 24 21  1  0  0  0  0
 25 31  1  6  0  0  0
 25 22  1  0  0  0  0
 26 25  1  1  0  0  0
 27 26  1  0  0  0  0
 28 27  1  0  0  0  0
 28 26  1  0  0  0  0
 28 30  1  1  0  0  0
 29 30  1  0  0  0  0
 32 35  1  0  0  0  0
 32 31  1  0  0  0  0
 34 35  2  0  0  0  0
 35 33  1  0  0  0  0
M  END
>  <MODEL>
3

>  <REMARK>
 VINA RESULT:      -6.5      1.357      3.121
  Name = 
  13 active torsions:
  status: ('A' for Active; 'I' for Inactive)
    1  A    between atoms: C_3  and  C_13
    2  A    between atoms: C_3  and  C_16
    3  A    between atoms: O_4  and  C_11
    4  A    between atoms: O_4  and  C_14
    5  A    between atoms: CA_5  and  C_22
    6  A    between atoms: N_6  and  C_11
    7  A    between atoms: C_8  and  C_13
    8  A    between atoms: C_8  and  C_30
    9  A    between atoms: C_11  and  C_19
   10  A    between atoms: C_13  and  C_22
   11  A    between atoms: C_14  and  C_26
   12  A    between atoms: C_23  and  C_31
   13  A    between atoms: O_32  and  C_34
                            x       y       z     vdW  Elec       q    Type
                         _______ _______ _______ _____ _____    ______ ____

>  <TORSDO>
F 13

$$$$
=
 OpenBabel11042418023D

 35 38  0  0  1  0  0  0  0  0999 V2000
  190.1980  176.5170  143.7750 C   0  0  1  0  0  3  0  0  0  0  0  0
  191.4600  177.3250  143.8620 C   0  0  0  0  0  0  0  0  0  0  0  0
  191.4040  178.5800  143.7400 O   0  0  0  0  0  0  0  0  0  0  0  0
  193.2740  176.5210  145.3850 C   0  0  0  0  0  3  0  0  0  0  0  0
  192.7600  176.6650  144.0880 C   0  0  0  0  0  0  0  0  0  0  0  0
  195.4110  175.0180  142.1140 O   0  0  0  0  0  1  0  0  0  0  0  0
  194.7120  175.5130  143.2090 C   0  0  0  0  0  0  0  0  0  0  0  0
  195.2170  175.3640  144.5110 C   0  0  0  0  0  0  0  0  0  0  0  0
  193.4900  176.1600  143.0050 C   0  0  0  0  0  3  0  0  0  0  0  0
  194.4930  175.8760  145.5980 C   0  0  0  0  0  0  0  0  0  0  0  0
  194.9620  175.7510  146.8650 F   0  0  0  0  0  0  0  0  0  0  0  0
  197.4750  174.1390  144.9090 N   0  0  0  0  0  0  0  0  0  0  0  0
  196.4700  174.6850  144.7330 C   0  0  0  0  0  0  0  0  0  0  0  0
  190.2990  175.2350  144.5890 C   0  0  0  0  0  2  0  0  0  0  0  0
  189.7210  172.7830  144.1590 C   0  0  0  0  0  3  0  0  0  0  0  0
  190.0240  172.3470  141.8680 C   0  0  0  0  0  3  0  0  0  0  0  0
  190.0950  174.0410  143.7180 C   0  0  0  0  0  0  0  0  0  0  0  0
  189.6760  171.8410  143.1200 C   0  0  0  0  0  3  0  0  0  0  0  0
  190.3930  173.9760  142.0710 S   0  0  0  0  0  0  0  0  0  0  0  0
  189.0070  177.3400  144.2370 C   0  0  0  0  0  2  0  0  0  0  0  0
  188.0930  177.6220  143.0580 C   0  0  2  0  0  3  0  0  0  0  0  0
  186.7830  177.8090  143.4990 N   0  0  0  0  0  0  0  0  0  0  0  0
  187.0790  175.3580  142.3990 O   0  0  0  0  0  0  0  0  0  0  0  0
  187.2750  176.5260  142.8230 C   0  0  0  0  0  0  0  0  0  0  0  0
  185.7450  178.6000  144.1370 C   0  0  2  0  0  3  0  0  0  0  0  0
  184.8580  177.6960  144.9850 C   0  0  1  0  0  3  0  0  0  0  0  0
  185.6910  176.9450  146.0020 C   0  0  0  0  0  2  0  0  0  0  0  0
  184.8070  178.0850  146.4660 C   0  0  1  0  0  3  0  0  0  0  0  0
  186.3250  178.8380  147.8890 C   0  0  0  0  0  1  0  0  0  0  0  0
  185.6000  179.2000  146.7530 O   0  0  0  0  0  0  0  0  0  0  0  0
  184.9700  179.2240  143.1570 O   0  0  0  0  0  0  0  0  0  0  0  0
  184.0820  178.2360  142.7220 C   0  0  0  0  0  2  0  0  0  0  0  0
  182.7700  178.1430  140.5730 N   0  0  0  0  0  1  0  0  0  0  0  0
  185.0830  178.3520  140.5660 O   0  0  0  0  0  0  0  0  0  0  0  0
  184.0250  178.2340  141.2370 C   0  0  0  0  0  0  0  0  0  0  0  0
  1  2  1  0  0  0  0
  1 20  1  1  0  0  0
  1 14  1  0  0  0  0
  2  5  1  0  0  0  0
  3  2  2  0  0  0  0
  4 10  1  0  0  0  0
  5  4  2  0  0  0  0
  6  7  1  0  0  0  0
  7  8  1  0  0  0  0
  8 13  1  0  0  0  0
  8 10  2  0  0  0  0
  9  7  2  0  0  0  0
  9  5  1  0  0  0  0
 10 11  1  0  0  0  0
 13 12  3  0  0  0  0
 16 19  1  0  0  0  0
 16 18  2  0  0  0  0
 17 15  2  0  0  0  0
 17 14  1  0  0  0  0
 18 15  1  0  0  0  0
 19 17  1  0  0  0  0
 21 22  1  0  0  0  0
 21 20  1  1  0  0  0
 22 25  1  0  0  0  0
 23 24  2  0  0  0  0
 24 21  1  0  0  0  0
 24 22  1  0  0  0  0
 25 31  1  6  0  0  0
 26 25  1  6  0  0  0
 26 27  1  0  0  0  0
 26 28  1  0  0  0  0
 27 28  1  0  0  0  0
 28 30  1  6  0  0  0
 30 29  1  0  0  0  0
 32 31  1  0  0  0  0
 33 35  1  0  0  0  0
 34 35  2  0  0  0  0
 35 32  1  0  0  0  0
M  END
>  <MODEL>
4

>  <REMARK>
 VINA RESULT:      -6.5      2.706      4.713
  Name = 
  13 active torsions:
  status: ('A' for Active; 'I' for Inactive)
    1  A    between atoms: C_3  and  C_13
    2  A    between atoms: C_3  and  C_16
    3  A    between atoms: O_4  and  C_11
    4  A    between atoms: O_4  and  C_14
    5  A    between atoms: CA_5  and  C_22
    6  A    between atoms: N_6  and  C_11
    7  A    between atoms: C_8  and  C_13
    8  A    between atoms: C_8  and  C_30
    9  A    between atoms: C_11  and  C_19
   10  A    between atoms: C_13  and  C_22
   11  A    between atoms: C_14  and  C_26
   12  A    between atoms: C_23  and  C_31
   13  A    between atoms: O_32  and  C_34
                            x       y       z     vdW  Elec       q    Type
                         _______ _______ _______ _____ _____    ______ ____

>  <TORSDO>
F 13

$$$$
=
 OpenBabel11042418023D

 35 38  0  0  1  0  0  0  0  0999 V2000
  188.8390  176.1210  145.8460 C   0  0  1  0  0  3  0  0  0  0  0  0
  189.6930  175.1830  146.6480 C   0  0  0  0  0  0  0  0  0  0  0  0
  189.1660  174.4880  147.5600 O   0  0  0  0  0  0  0  0  0  0  0  0
  192.0340  176.0430  146.8390 C   0  0  0  0  0  3  0  0  0  0  0  0
  191.1390  175.0670  146.3770 C   0  0  0  0  0  0  0  0  0  0  0  0
  193.4680  172.7330  144.7150 O   0  0  0  0  0  1  0  0  0  0  0  0
  193.0050  173.8380  145.4210 C   0  0  0  0  0  0  0  0  0  0  0  0
  193.8980  174.8140  145.8940 C   0  0  0  0  0  0  0  0  0  0  0  0
  191.6360  173.9680  145.6650 C   0  0  0  0  0  3  0  0  0  0  0  0
  193.4040  175.9210  146.6000 C   0  0  0  0  0  0  0  0  0  0  0  0
  194.2440  176.8810  147.0610 F   0  0  0  0  0  0  0  0  0  0  0  0
  196.4520  174.5730  145.4740 N   0  0  0  0  0  0  0  0  0  0  0  0
  195.3140  174.6800  145.6600 C   0  0  0  0  0  0  0  0  0  0  0  0
  188.4990  177.3780  146.6340 C   0  0  0  0  0  2  0  0  0  0  0  0
  186.0780  176.8170  146.0390 C   0  0  0  0  0  3  0  0  0  0  0  0
  184.6730  178.3280  147.1680 C   0  0  0  0  0  3  0  0  0  0  0  0
  187.0210  177.5510  146.7380 C   0  0  0  0  0  0  0  0  0  0  0  0
  184.7670  177.2500  146.2880 C   0  0  0  0  0  3  0  0  0  0  0  0
  186.2400  178.7360  147.6280 S   0  0  0  0  0  0  0  0  0  0  0  0
  189.5300  176.4890  144.5440 C   0  0  0  0  0  2  0  0  0  0  0  0
  188.6610  176.0770  143.3690 C   0  0  2  0  0  3  0  0  0  0  0  0
  189.4510  175.5560  142.3450 N   0  0  0  0  0  0  0  0  0  0  0  0
  188.6680  178.0740  141.7570 O   0  0  0  0  0  0  0  0  0  0  0  0
  188.8440  176.9600  142.3150 C   0  0  0  0  0  0  0  0  0  0  0  0
  190.2590  174.4990  141.7610 C   0  0  2  0  0  3  0  0  0  0  0  0
  189.4950  173.1800  141.8120 C   0  0  1  0  0  3  0  0  0  0  0  0
  188.2230  173.2780  140.9960 C   0  0  0  0  0  2  0  0  0  0  0  0
  189.3880  172.4710  140.4580 C   0  0  1  0  0  3  0  0  0  0  0  0
  189.9970  172.3170  138.3370 C   0  0  0  0  0  1  0  0  0  0  0  0
  190.0110  173.1840  139.4300 O   0  0  0  0  0  0  0  0  0  0  0  0
  191.4490  174.3740  142.4810 O   0  0  0  0  0  0  0  0  0  0  0  0
  192.4310  174.9100  141.6440 C   0  0  0  0  0  2  0  0  0  0  0  0
  194.6520  175.9400  142.2420 N   0  0  0  0  0  1  0  0  0  0  0  0
  192.6670  176.7480  143.1380 O   0  0  0  0  0  0  0  0  0  0  0  0
  193.2370  175.9070  142.3960 C   0  0  0  0  0  0  0  0  0  0  0  0
  1 20  1  6  0  0  0
  1 14  1  0  0  0  0
  1  2  1  0  0  0  0
  2  3  2  0  0  0  0
  5  2  1  0  0  0  0
  5  4  2  0  0  0  0
  6  7  1  0  0  0  0
  7  9  2  0  0  0  0
  7  8  1  0  0  0  0
  8 10  2  0  0  0  0
  9  5  1  0  0  0  0
 10  4  1  0  0  0  0
 10 11  1  0  0  0  0
 12 13  3  0  0  0  0
 13  8  1  0  0  0  0
 14 17  1  0  0  0  0
 15 18  1  0  0  0  0
 15 17  2  0  0  0  0
 16 19  1  0  0  0  0
 17 19  1  0  0  0  0
 18 16  2  0  0  0  0
 21 20  1  1  0  0  0
 22 21  1  0  0  0  0
 23 24  2  0  0  0  0
 24 22  1  0  0  0  0
 24 21  1  0  0  0  0
 25 22  1  0  0  0  0
 25 31  1  1  0  0  0
 26 25  1  6  0  0  0
 27 26  1  0  0  0  0
 28 30  1  6  0  0  0
 28 27  1  0  0  0  0
 28 26  1  0  0  0  0
 29 30  1  0  0  0  0
 32 35  1  0  0  0  0
 32 31  1  0  0  0  0
 33 35  1  0  0  0  0
 35 34  2  0  0  0  0
M  END
>  <MODEL>
5

>  <REMARK>
 VINA RESULT:      -6.5      1.890      3.601
  Name = 
  13 active torsions:
  status: ('A' for Active; 'I' for Inactive)
    1  A    between atoms: C_3  and  C_13
    2  A    between atoms: C_3  and  C_16
    3  A    between atoms: O_4  and  C_11
    4  A    between atoms: O_4  and  C_14
    5  A    between atoms: CA_5  and  C_22
    6  A    between atoms: N_6  and  C_11
    7  A    between atoms: C_8  and  C_13
    8  A    between atoms: C_8  and  C_30
    9  A    between atoms: C_11  and  C_19
   10  A    between atoms: C_13  and  C_22
   11  A    between atoms: C_14  and  C_26
   12  A    between atoms: C_23  and  C_31
   13  A    between atoms: O_32  and  C_34
                            x       y       z     vdW  Elec       q    Type
                         _______ _______ _______ _____ _____    ______ ____

>  <TORSDO>
F 13

$$$$
=
 OpenBabel11042418023D

 35 38  0  0  1  0  0  0  0  0999 V2000
  190.0820  175.1190  145.9760 C   0  0  1  0  0  3  0  0  0  0  0  0
  191.2970  175.1360  146.8580 C   0  0  0  0  0  0  0  0  0  0  0  0
  191.1540  175.2020  148.1110 O   0  0  0  0  0  0  0  0  0  0  0  0
  193.2380  173.8440  145.9550 C   0  0  0  0  0  3  0  0  0  0  0  0
  192.6500  175.0760  146.2730 C   0  0  0  0  0  0  0  0  0  0  0  0
  195.3080  177.4020  145.1960 O   0  0  0  0  0  1  0  0  0  0  0  0
  194.6310  176.2130  145.4430 C   0  0  0  0  0  0  0  0  0  0  0  0
  195.2120  174.9760  145.1180 C   0  0  0  0  0  0  0  0  0  0  0  0
  193.3580  176.2570  146.0170 C   0  0  0  0  0  3  0  0  0  0  0  0
  194.5100  173.7900  145.3810 C   0  0  0  0  0  0  0  0  0  0  0  0
  195.0500  172.5820  145.0830 F   0  0  0  0  0  0  0  0  0  0  0  0
  197.5690  174.8790  144.0270 N   0  0  0  0  0  0  0  0  0  0  0  0
  196.5190  174.9210  144.5120 C   0  0  0  0  0  0  0  0  0  0  0  0
  189.7340  173.7040  145.5330 C   0  0  0  0  0  2  0  0  0  0  0  0
  190.5870  174.4540  143.2450 C   0  0  0  0  0  3  0  0  0  0  0  0
  189.8930  172.8750  141.6470 C   0  0  0  0  0  3  0  0  0  0  0  0
  189.9390  173.5470  144.0640 C   0  0  0  0  0  0  0  0  0  0  0  0
  190.5660  174.0710  141.8950 C   0  0  0  0  0  3  0  0  0  0  0  0
  189.3230  172.3050  143.1240 S   0  0  0  0  0  0  0  0  0  0  0  0
  188.8990  175.7520  146.6880 C   0  0  0  0  0  2  0  0  0  0  0  0
  188.9050  177.2530  146.4530 C   0  0  2  0  0  3  0  0  0  0  0  0
  188.0110  177.5850  145.4360 N   0  0  0  0  0  0  0  0  0  0  0  0
  190.5560  177.6560  144.5300 O   0  0  0  0  0  0  0  0  0  0  0  0
  189.5300  177.5390  145.2480 C   0  0  0  0  0  0  0  0  0  0  0  0
  186.6660  177.7920  144.9290 C   0  0  2  0  0  3  0  0  0  0  0  0
  185.6530  177.5320  146.0390 C   0  0  1  0  0  3  0  0  0  0  0  0
  185.5870  178.7180  146.9780 C   0  0  0  0  0  2  0  0  0  0  0  0
  184.4450  178.4760  146.0120 C   0  0  1  0  0  3  0  0  0  0  0  0
  183.4800  179.0460  144.1050 C   0  0  0  0  0  1  0  0  0  0  0  0
  184.5150  179.4040  144.9690 O   0  0  0  0  0  0  0  0  0  0  0  0
  186.4300  176.9110  143.8710 O   0  0  0  0  0  0  0  0  0  0  0  0
  186.6890  177.6590  142.7190 C   0  0  0  0  0  2  0  0  0  0  0  0
  187.0080  177.2130  140.2600 N   0  0  0  0  0  1  0  0  0  0  0  0
  187.4480  175.5780  141.8500 O   0  0  0  0  0  0  0  0  0  0  0  0
  187.0560  176.7480  141.6040 C   0  0  0  0  0  0  0  0  0  0  0  0
  1 14  1  1  0  0  0
  1 20  1  0  0  0  0
  1  2  1  0  0  0  0
  2  3  2  0  0  0  0
  4  5  1  0  0  0  0
  5  2  1  0  0  0  0
  6  7  1  0  0  0  0
  7  9  1  0  0  0  0
  8 10  1  0  0  0  0
  8  7  2  0  0  0  0
  9  5  2  0  0  0  0
 10  4  2  0  0  0  0
 11 10  1  0  0  0  0
 12 13  3  0  0  0  0
 13  8  1  0  0  0  0
 15 17  2  0  0  0  0
 16 18  2  0  0  0  0
 16 19  1  0  0  0  0
 17 14  1  0  0  0  0
 18 15  1  0  0  0  0
 19 17  1  0  0  0  0
 21 20  1  6  0  0  0
 22 21  1  0  0  0  0
 23 24  2  0  0  0  0
 24 22  1  0  0  0  0
 24 21  1  0  0  0  0
 25 31  1  6  0  0  0
 25 22  1  0  0  0  0
 26 25  1  6  0  0  0
 26 27  1  0  0  0  0
 28 30  1  6  0  0  0
 28 26  1  0  0  0  0
 28 27  1  0  0  0  0
 29 30  1  0  0  0  0
 32 31  1  0  0  0  0
 33 35  1  0  0  0  0
 35 34  2  0  0  0  0
 35 32  1  0  0  0  0
M  END
>  <MODEL>
6

>  <REMARK>
 VINA RESULT:      -6.2      2.558      4.024
  Name = 
  13 active torsions:
  status: ('A' for Active; 'I' for Inactive)
    1  A    between atoms: C_3  and  C_13
    2  A    between atoms: C_3  and  C_16
    3  A    between atoms: O_4  and  C_11
    4  A    between atoms: O_4  and  C_14
    5  A    between atoms: CA_5  and  C_22
    6  A    between atoms: N_6  and  C_11
    7  A    between atoms: C_8  and  C_13
    8  A    between atoms: C_8  and  C_30
    9  A    between atoms: C_11  and  C_19
   10  A    between atoms: C_13  and  C_22
   11  A    between atoms: C_14  and  C_26
   12  A    between atoms: C_23  and  C_31
   13  A    between atoms: O_32  and  C_34
                            x       y       z     vdW  Elec       q    Type
                         _______ _______ _______ _____ _____    ______ ____

>  <TORSDO>
F 13

$$$$
=
 OpenBabel11042418023D

 35 38  0  0  1  0  0  0  0  0999 V2000
  190.3170  175.5570  145.8230 C   0  0  1  0  0  3  0  0  0  0  0  0
  191.5190  175.6350  146.7190 C   0  0  0  0  0  0  0  0  0  0  0  0
  191.3640  175.9020  147.9440 O   0  0  0  0  0  0  0  0  0  0  0  0
  193.4130  174.1090  146.1400 C   0  0  0  0  0  3  0  0  0  0  0  0
  192.8730  175.4020  146.1820 C   0  0  0  0  0  0  0  0  0  0  0  0
  195.6280  177.3470  144.6790 O   0  0  0  0  0  1  0  0  0  0  0  0
  194.9040  176.2630  145.1610 C   0  0  0  0  0  0  0  0  0  0  0  0
  195.4370  174.9640  145.1130 C   0  0  0  0  0  0  0  0  0  0  0  0
  193.6290  176.4750  145.6930 C   0  0  0  0  0  3  0  0  0  0  0  0
  194.6860  173.8880  145.6110 C   0  0  0  0  0  0  0  0  0  0  0  0
  195.1810  172.6250  145.5830 F   0  0  0  0  0  0  0  0  0  0  0  0
  197.7950  174.5470  144.1040 N   0  0  0  0  0  0  0  0  0  0  0  0
  196.7450  174.7340  144.5540 C   0  0  0  0  0  0  0  0  0  0  0  0
  189.7010  174.1650  145.8350 C   0  0  0  0  0  2  0  0  0  0  0  0
  189.6940  172.1200  144.3020 C   0  0  0  0  0  3  0  0  0  0  0  0
  190.8910  172.6580  142.3510 C   0  0  0  0  0  3  0  0  0  0  0  0
  190.0150  173.4390  144.5690 C   0  0  0  0  0  0  0  0  0  0  0  0
  190.1790  171.6900  143.0580 C   0  0  0  0  0  3  0  0  0  0  0  0
  190.9130  174.0520  143.2940 S   0  0  0  0  0  0  0  0  0  0  0  0
  189.2820  176.5920  146.2300 C   0  0  0  0  0  2  0  0  0  0  0  0
  187.8910  176.0790  145.9020 C   0  0  2  0  0  3  0  0  0  0  0  0
  187.1720  177.0490  145.2040 N   0  0  0  0  0  0  0  0  0  0  0  0
  186.3670  176.9350  147.7810 O   0  0  0  0  0  0  0  0  0  0  0  0
  186.9510  176.7330  146.6850 C   0  0  0  0  0  0  0  0  0  0  0  0
  186.8750  177.8060  144.0010 C   0  0  2  0  0  3  0  0  0  0  0  0
  188.0630  177.7420  143.0470 C   0  0  1  0  0  3  0  0  0  0  0  0
  188.2600  176.3260  142.5470 C   0  0  0  0  0  2  0  0  0  0  0  0
  187.6870  177.3690  141.6080 C   0  0  1  0  0  3  0  0  0  0  0  0
  185.9930  177.7570  140.2400 C   0  0  0  0  0  1  0  0  0  0  0  0
  186.3150  177.1510  141.4540 O   0  0  0  0  0  0  0  0  0  0  0  0
  186.6250  179.1380  144.3400 O   0  0  0  0  0  0  0  0  0  0  0  0
  185.5680  179.5250  143.5120 C   0  0  0  0  0  2  0  0  0  0  0  0
  183.9870  178.8630  145.3600 N   0  0  0  0  0  1  0  0  0  0  0  0
  183.5120  178.3860  143.1370 O   0  0  0  0  0  0  0  0  0  0  0  0
  184.3100  178.8820  143.9740 C   0  0  0  0  0  0  0  0  0  0  0  0
  1 14  1  1  0  0  0
  1 20  1  0  0  0  0
  1  2  1  0  0  0  0
  2  3  2  0  0  0  0
  4  5  1  0  0  0  0
  5  2  1  0  0  0  0
  6  7  1  0  0  0  0
  7  9  1  0  0  0  0
  8  7  2  0  0  0  0
  8 10  1  0  0  0  0
  9  5  2  0  0  0  0
 10  4  2  0  0  0  0
 11 10  1  0  0  0  0
 12 13  3  0  0  0  0
 13  8  1  0  0  0  0
 15 17  2  0  0  0  0
 16 18  2  0  0  0  0
 16 19  1  0  0  0  0
 17 14  1  0  0  0  0
 18 15  1  0  0  0  0
 19 17  1  0  0  0  0
 21 20  1  1  0  0  0
 21 24  1  0  0  0  0
 22 21  1  0  0  0  0
 22 24  1  0  0  0  0
 24 23  2  0  0  0  0
 25 31  1  1  0  0  0
 25 22  1  0  0  0  0
 26 25  1  1  0  0  0
 27 26  1  0  0  0  0
 28 30  1  1  0  0  0
 28 27  1  0  0  0  0
 28 26  1  0  0  0  0
 29 30  1  0  0  0  0
 32 35  1  0  0  0  0
 32 31  1  0  0  0  0
 34 35  2  0  0  0  0
 35 33  1  0  0  0  0
M  END
>  <MODEL>
7

>  <REMARK>
 VINA RESULT:      -6.2      2.708      4.637
  Name = 
  13 active torsions:
  status: ('A' for Active; 'I' for Inactive)
    1  A    between atoms: C_3  and  C_13
    2  A    between atoms: C_3  and  C_16
    3  A    between atoms: O_4  and  C_11
    4  A    between atoms: O_4  and  C_14
    5  A    between atoms: CA_5  and  C_22
    6  A    between atoms: N_6  and  C_11
    7  A    between atoms: C_8  and  C_13
    8  A    between atoms: C_8  and  C_30
    9  A    between atoms: C_11  and  C_19
   10  A    between atoms: C_13  and  C_22
   11  A    between atoms: C_14  and  C_26
   12  A    between atoms: C_23  and  C_31
   13  A    between atoms: O_32  and  C_34
                            x       y       z     vdW  Elec       q    Type
                         _______ _______ _______ _____ _____    ______ ____

>  <TORSDO>
F 13

$$$$
=
 OpenBabel11042418023D

 35 38  0  0  1  0  0  0  0  0999 V2000
  188.9650  173.9730  141.6450 C   0  0  1  0  0  3  0  0  0  0  0  0
  189.4840  173.4030  142.9330 C   0  0  0  0  0  0  0  0  0  0  0  0
  189.1010  172.2590  143.3050 O   0  0  0  0  0  0  0  0  0  0  0  0
  190.3590  174.1250  145.1610 C   0  0  0  0  0  3  0  0  0  0  0  0
  190.4350  174.1670  143.7620 C   0  0  0  0  0  0  0  0  0  0  0  0
  193.3440  176.3950  143.3010 O   0  0  0  0  0  1  0  0  0  0  0  0
  192.3570  175.6460  143.9310 C   0  0  0  0  0  0  0  0  0  0  0  0
  192.2820  175.5930  145.3330 C   0  0  0  0  0  0  0  0  0  0  0  0
  191.4370  174.9350  143.1560 C   0  0  0  0  0  3  0  0  0  0  0  0
  191.2740  174.8320  145.9450 C   0  0  0  0  0  0  0  0  0  0  0  0
  191.1740  174.7700  147.2960 F   0  0  0  0  0  0  0  0  0  0  0  0
  194.0010  176.8860  146.7910 N   0  0  0  0  0  0  0  0  0  0  0  0
  193.2350  176.3110  146.1420 C   0  0  0  0  0  0  0  0  0  0  0  0
  188.6160  172.8750  140.6490 C   0  0  0  0  0  2  0  0  0  0  0  0
  190.4930  172.9410  138.9170 C   0  0  0  0  0  3  0  0  0  0  0  0
  189.6780  174.0090  136.9880 C   0  0  0  0  0  3  0  0  0  0  0  0
  189.1870  173.1810  139.3060 C   0  0  0  0  0  0  0  0  0  0  0  0
  190.7610  173.3980  137.6190 C   0  0  0  0  0  3  0  0  0  0  0  0
  188.3870  173.9760  138.0670 S   0  0  0  0  0  0  0  0  0  0  0  0
  187.7530  174.8510  141.9020 C   0  0  0  0  0  2  0  0  0  0  0  0
  188.1290  176.3100  141.7100 C   0  0  2  0  0  3  0  0  0  0  0  0
  187.2480  177.1310  142.4120 N   0  0  0  0  0  0  0  0  0  0  0  0
  186.6790  177.1590  139.7700 O   0  0  0  0  0  0  0  0  0  0  0  0
  187.1960  176.9340  140.8950 C   0  0  0  0  0  0  0  0  0  0  0  0
  186.7410  177.7120  143.6430 C   0  0  2  0  0  3  0  0  0  0  0  0
  185.7830  178.8530  143.3170 C   0  0  1  0  0  3  0  0  0  0  0  0
  184.4520  178.3040  142.8490 C   0  0  0  0  0  2  0  0  0  0  0  0
  184.5550  178.9150  144.2320 C   0  0  1  0  0  3  0  0  0  0  0  0
  184.2730  178.5450  146.3950 C   0  0  0  0  0  1  0  0  0  0  0  0
  184.5510  177.8970  145.1910 O   0  0  0  0  0  0  0  0  0  0  0  0
  187.8090  178.2060  144.3960 O   0  0  0  0  0  0  0  0  0  0  0  0
  188.4060  177.0720  144.9540 C   0  0  0  0  0  2  0  0  0  0  0  0
  189.3880  177.6760  147.1950 N   0  0  0  0  0  1  0  0  0  0  0  0
  187.2650  176.7500  147.0180 O   0  0  0  0  0  0  0  0  0  0  0  0
  188.3120  177.1360  146.4360 C   0  0  0  0  0  0  0  0  0  0  0  0
  1 14  1  6  0  0  0
  1 20  1  0  0  0  0
  1  2  1  0  0  0  0
  2  3  2  0  0  0  0
  2  5  1  0  0  0  0
  4 10  1  0  0  0  0
  5  4  2  0  0  0  0
  6  7  1  0  0  0  0
  7  8  1  0  0  0  0
  8 10  2  0  0  0  0
  8 13  1  0  0  0  0
  9  5  1  0  0  0  0
  9  7  2  0  0  0  0
 10 11  1  0  0  0  0
 13 12  3  0  0  0  0
 15 17  2  0  0  0  0
 16 18  2  0  0  0  0
 16 19  1  0  0  0  0
 17 14  1  0  0  0  0
 18 15  1  0  0  0  0
 19 17  1  0  0  0  0
 21 20  1  1  0  0  0
 21 22  1  0  0  0  0
 22 25  1  0  0  0  0
 23 24  2  0  0  0  0
 24 21  1  0  0  0  0
 24 22  1  0  0  0  0
 25 31  1  1  0  0  0
 26 25  1  1  0  0  0
 26 28  1  0  0  0  0
 27 26  1  0  0  0  0
 27 28  1  0  0  0  0
 28 30  1  1  0  0  0
 30 29  1  0  0  0  0
 31 32  1  0  0  0  0
 32 35  1  0  0  0  0
 35 34  2  0  0  0  0
 35 33  1  0  0  0  0
M  END
>  <MODEL>
8

>  <REMARK>
 VINA RESULT:      -6.1      3.102      5.519
  Name = 
  13 active torsions:
  status: ('A' for Active; 'I' for Inactive)
    1  A    between atoms: C_3  and  C_13
    2  A    between atoms: C_3  and  C_16
    3  A    between atoms: O_4  and  C_11
    4  A    between atoms: O_4  and  C_14
    5  A    between atoms: CA_5  and  C_22
    6  A    between atoms: N_6  and  C_11
    7  A    between atoms: C_8  and  C_13
    8  A    between atoms: C_8  and  C_30
    9  A    between atoms: C_11  and  C_19
   10  A    between atoms: C_13  and  C_22
   11  A    between atoms: C_14  and  C_26
   12  A    between atoms: C_23  and  C_31
   13  A    between atoms: O_32  and  C_34
                            x       y       z     vdW  Elec       q    Type
                         _______ _______ _______ _____ _____    ______ ____

>  <TORSDO>
F 13

$$$$
=
 OpenBabel11042418023D

 35 38  0  0  1  0  0  0  0  0999 V2000
  189.9710  175.0250  145.4480 C   0  0  1  0  0  3  0  0  0  0  0  0
  191.2020  175.4820  146.1760 C   0  0  0  0  0  0  0  0  0  0  0  0
  191.1160  175.8260  147.3870 O   0  0  0  0  0  0  0  0  0  0  0  0
  192.6140  176.0570  144.1940 C   0  0  0  0  0  3  0  0  0  0  0  0
  192.5070  175.5300  145.4880 C   0  0  0  0  0  0  0  0  0  0  0  0
  196.0280  174.6470  146.1640 O   0  0  0  0  0  1  0  0  0  0  0  0
  194.9020  175.1180  145.4980 C   0  0  0  0  0  0  0  0  0  0  0  0
  195.0060  175.6560  144.2040 C   0  0  0  0  0  0  0  0  0  0  0  0
  193.6580  175.0580  146.1310 C   0  0  0  0  0  3  0  0  0  0  0  0
  193.8530  176.1210  143.5530 C   0  0  0  0  0  0  0  0  0  0  0  0
  193.9240  176.6390  142.3010 F   0  0  0  0  0  0  0  0  0  0  0  0
  197.3150  175.7980  143.0210 N   0  0  0  0  0  0  0  0  0  0  0  0
  196.2870  175.7360  143.5490 C   0  0  0  0  0  0  0  0  0  0  0  0
  189.6960  173.5470  145.6900 C   0  0  0  0  0  2  0  0  0  0  0  0
  191.4180  172.3010  144.2730 C   0  0  0  0  0  3  0  0  0  0  0  0
  190.3450  171.5120  142.3350 C   0  0  0  0  0  3  0  0  0  0  0  0
  190.1260  172.7320  144.5170 C   0  0  0  0  0  0  0  0  0  0  0  0
  191.5340  171.6130  143.0560 C   0  0  0  0  0  3  0  0  0  0  0  0
  189.1510  172.2920  143.2280 S   0  0  0  0  0  0  0  0  0  0  0  0
  188.7700  175.8570  145.8600 C   0  0  0  0  0  2  0  0  0  0  0  0
  188.5350  176.9580  144.8410 C   0  0  2  0  0  3  0  0  0  0  0  0
  187.2370  176.8790  144.3370 N   0  0  0  0  0  0  0  0  0  0  0  0
  189.0150  175.9050  142.5500 O   0  0  0  0  0  0  0  0  0  0  0  0
  188.4750  176.4130  143.5660 C   0  0  0  0  0  0  0  0  0  0  0  0
  185.8020  177.0660  144.4570 C   0  0  2  0  0  3  0  0  0  0  0  0
  185.4720  178.5540  144.4010 C   0  0  1  0  0  3  0  0  0  0  0  0
  186.1050  179.1880  143.1800 C   0  0  0  0  0  2  0  0  0  0  0  0
  184.6080  178.9560  143.2010 C   0  0  1  0  0  3  0  0  0  0  0  0
  183.1930  178.2900  141.6360 C   0  0  0  0  0  1  0  0  0  0  0  0
  184.2960  177.8680  142.3800 O   0  0  0  0  0  0  0  0  0  0  0  0
  185.3660  176.5400  145.6750 O   0  0  0  0  0  0  0  0  0  0  0  0
  185.1130  177.6570  146.4760 C   0  0  0  0  0  2  0  0  0  0  0  0
  186.6420  178.8780  148.0630 N   0  0  0  0  0  1  0  0  0  0  0  0
  186.2680  176.5940  148.2650 O   0  0  0  0  0  0  0  0  0  0  0  0
  186.0420  177.6610  147.6360 C   0  0  0  0  0  0  0  0  0  0  0  0
  1 14  1  1  0  0  0
  1 20  1  0  0  0  0
  1  2  1  0  0  0  0
  2  3  2  0  0  0  0
  4  5  1  0  0  0  0
  5  9  2  0  0  0  0
  5  2  1  0  0  0  0
  7  9  1  0  0  0  0
  7  6  1  0  0  0  0
  8  7  2  0  0  0  0
 10  4  2  0  0  0  0
 10  8  1  0  0  0  0
 11 10  1  0  0  0  0
 12 13  3  0  0  0  0
 13  8  1  0  0  0  0
 15 17  2  0  0  0  0
 16 18  2  0  0  0  0
 16 19  1  0  0  0  0
 17 14  1  0  0  0  0
 18 15  1  0  0  0  0
 19 17  1  0  0  0  0
 21 20  1  1  0  0  0
 22 25  1  0  0  0  0
 22 21  1  0  0  0  0
 23 24  2  0  0  0  0
 24 22  1  0  0  0  0
 24 21  1  0  0  0  0
 25 31  1  1  0  0  0
 26 25  1  6  0  0  0
 27 28  1  0  0  0  0
 27 26  1  0  0  0  0
 28 30  1  6  0  0  0
 28 26  1  0  0  0  0
 29 30  1  0  0  0  0
 31 32  1  0  0  0  0
 32 35  1  0  0  0  0
 35 33  1  0  0  0  0
 35 34  2  0  0  0  0
M  END
>  <MODEL>
9

>  <REMARK>
 VINA RESULT:      -6.1      2.809      4.665
  Name = 
  13 active torsions:
  status: ('A' for Active; 'I' for Inactive)
    1  A    between atoms: C_3  and  C_13
    2  A    between atoms: C_3  and  C_16
    3  A    between atoms: O_4  and  C_11
    4  A    between atoms: O_4  and  C_14
    5  A    between atoms: CA_5  and  C_22
    6  A    between atoms: N_6  and  C_11
    7  A    between atoms: C_8  and  C_13
    8  A    between atoms: C_8  and  C_30
    9  A    between atoms: C_11  and  C_19
   10  A    between atoms: C_13  and  C_22
   11  A    between atoms: C_14  and  C_26
   12  A    between atoms: C_23  and  C_31
   13  A    between atoms: O_32  and  C_34
                            x       y       z     vdW  Elec       q    Type
                         _______ _______ _______ _____ _____    ______ ____

>  <TORSDO>
F 13

$$$$
