=
 OpenBabel11042413463D

 30 32  0  0  1  0  0  0  0  0999 V2000
  182.1980  179.1150  143.2430 O   0  0  0  0  0  1  0  0  0  0  0  0
  184.3230  178.0460  142.8340 C   0  0  0  0  0  0  0  0  0  0  0  0
  184.7380  178.2830  144.1790 N   0  0  0  0  0  0  0  0  0  0  0  0
  185.1030  177.4500  142.0450 O   0  0  0  0  0  0  0  0  0  0  0  0
  185.7520  178.1940  145.3020 C   0  0  1  0  0  0  0  0  0  0  0  0
  185.5370  177.1680  146.4290 C   0  0  0  0  0  2  0  0  0  0  0  0
  186.1240  176.7070  145.1730 C   0  0  2  0  0  3  0  0  0  0  0  0
  183.0360  178.4850  142.3860 N   0  0  0  0  0  0  0  0  0  0  0  0
  184.5290  178.8130  145.5230 C   0  0  0  0  0  2  0  0  0  0  0  0
  188.3900  176.1020  144.2440 C   0  0  0  0  0  0  0  0  0  0  0  0
  187.5650  176.5700  145.3120 N   0  0  0  0  0  2  0  0  0  0  0  0
  188.9860  175.3230  142.2620 N   0  0  0  0  0  2  0  0  0  0  0  0
  190.2100  175.5380  142.9590 C   0  0  0  0  0  0  0  0  0  0  0  0
  187.9290  175.7150  143.0980 N   0  0  0  0  0  0  0  0  0  0  0  0
  191.2390  174.7930  142.7310 N   0  0  0  0  0  2  0  0  0  0  0  0
  190.5790  176.5360  145.2350 N   0  0  0  0  0  0  0  0  0  0  0  0
  189.8410  176.0420  144.2820 C   0  0  0  0  0  0  0  0  0  0  0  0
  192.0090  176.6590  145.2990 C   0  0  0  0  0  0  0  0  0  0  0  0
  192.6400  177.4160  144.5110 O   0  0  0  0  0  0  0  0  0  0  0  0
  192.7540  175.9030  146.3230 C   0  0  0  0  0  0  0  0  0  0  0  0
  192.1680  175.0320  147.0170 O   0  0  0  0  0  0  0  0  0  0  0  0
  194.4270  177.3680  147.0740 F   0  0  0  0  0  0  0  0  0  0  0  0
  194.2180  176.1210  146.5140 C   0  0  0  0  0  2  0  0  0  0  0  0
  182.6420  178.3330  140.9910 C   0  0  0  0  0  2  0  0  0  0  0  0
  181.1280  178.3160  140.8670 C   0  0  0  0  0  2  0  0  0  0  0  0
  180.6530  179.6300  140.4690 N   0  0  0  0  0  2  0  0  0  0  0  0
  178.0680  179.5590  141.5860 O   0  0  0  0  0  1  0  0  0  0  0  0
  178.6490  178.1960  139.4250 O   0  0  0  0  0  1  0  0  0  0  0  0
  178.9370  179.4990  140.1360 P   0  0  0  0  0  0  0  0  0  0  0  0
  178.4690  180.7870  139.1470 O   0  0  0  0  0  0  0  0  0  0  0  0
  2  3  1  0  0  0  0
  3  5  1  0  0  0  0
  3  9  1  0  0  0  0
  4  2  2  0  0  0  0
  5  9  1  1  0  0  0
  5  6  1  0  0  0  0
  7  5  1  0  0  0  0
  7 11  1  1  0  0  0
  7  6  1  0  0  0  0
  8  2  1  0  0  0  0
  8  1  1  0  0  0  0
 10 17  1  0  0  0  0
 10 11  1  0  0  0  0
 12 13  1  0  0  0  0
 12 14  1  0  0  0  0
 13 17  1  0  0  0  0
 14 10  2  0  0  0  0
 15 13  2  0  0  0  0
 16 18  1  0  0  0  0
 17 16  2  0  0  0  0
 18 20  1  0  0  0  0
 19 18  2  0  0  0  0
 20 23  1  0  0  0  0
 20 21  2  0  0  0  0
 23 22  1  0  0  0  0
 24  8  1  0  0  0  0
 25 24  1  0  0  0  0
 26 25  1  0  0  0  0
 28 29  1  0  0  0  0
 29 26  1  0  0  0  0
 29 27  1  0  0  0  0
 30 29  2  0  0  0  0
M  END
>  <MODEL>
1

>  <REMARK>
 VINA RESULT:      -6.8      0.000      0.000
  Name = 
  8 active torsions:
  status: ('A' for Active; 'I' for Inactive)
    1  A    between atoms: C_2  and  C_13
    2  A    between atoms: C_2  and  N_29
    3  A    between atoms: C_3  and  C_12
    4  A    between atoms: C_3  and  N_19
    5  A    between atoms: N_4  and  C_25
    6  A    between atoms: N_8  and  C_13
    7  A    between atoms: N_8  and  P_24
    8  A    between atoms: C_12  and  C_27
                            x       y       z     vdW  Elec       q    Type
                         _______ _______ _______ _____ _____    ______ ____

>  <TORSDO>
F 8

$$$$
=
 OpenBabel11042413463D

 30 32  0  0  1  0  0  0  0  0999 V2000
  186.1830  176.6450  147.7800 O   0  0  0  0  0  1  0  0  0  0  0  0
  187.7710  177.1690  146.0400 C   0  0  0  0  0  0  0  0  0  0  0  0
  188.5970  176.0690  146.4170 N   0  0  0  0  0  0  0  0  0  0  0  0
  188.1210  177.9000  145.0760 O   0  0  0  0  0  0  0  0  0  0  0  0
  189.8340  175.2070  146.2590 C   0  0  1  0  0  0  0  0  0  0  0  0
  189.7040  173.8150  145.6160 C   0  0  0  0  0  2  0  0  0  0  0  0
  189.7760  174.9800  144.7380 C   0  0  2  0  0  3  0  0  0  0  0  0
  186.5600  177.4420  146.7520 N   0  0  0  0  0  0  0  0  0  0  0  0
  188.9170  174.9200  147.2610 C   0  0  0  0  0  2  0  0  0  0  0  0
  191.4440  174.6900  142.8680 C   0  0  0  0  0  0  0  0  0  0  0  0
  191.1170  175.1160  144.1910 N   0  0  0  0  0  2  0  0  0  0  0  0
  191.2220  173.8220  140.8470 N   0  0  0  0  0  2  0  0  0  0  0  0
  192.5550  174.3230  140.8900 C   0  0  0  0  0  0  0  0  0  0  0  0
  190.6040  174.1080  142.0730 N   0  0  0  0  0  0  0  0  0  0  0  0
  193.4980  173.7510  140.2190 N   0  0  0  0  0  2  0  0  0  0  0  0
  193.7020  175.6070  142.7210 N   0  0  0  0  0  0  0  0  0  0  0  0
  192.7320  174.8920  142.2270 C   0  0  0  0  0  0  0  0  0  0  0  0
  194.9460  175.9850  142.1100 C   0  0  0  0  0  0  0  0  0  0  0  0
  194.9880  176.8270  141.1710 O   0  0  0  0  0  0  0  0  0  0  0  0
  196.2040  175.3970  142.6070 C   0  0  0  0  0  0  0  0  0  0  0  0
  196.3240  174.1470  142.7010 O   0  0  0  0  0  0  0  0  0  0  0  0
  196.9130  177.3970  143.6100 F   0  0  0  0  0  0  0  0  0  0  0  0
  197.3660  176.2670  142.9540 C   0  0  0  0  0  2  0  0  0  0  0  0
  185.7590  178.6190  146.4360 C   0  0  0  0  0  2  0  0  0  0  0  0
  184.5490  178.2290  145.6050 C   0  0  0  0  0  2  0  0  0  0  0  0
  184.4570  179.0880  144.4380 N   0  0  0  0  0  2  0  0  0  0  0  0
  183.7160  178.0610  141.9220 O   0  0  0  0  0  0  0  0  0  0  0  0
  185.3770  176.7660  143.4790 O   0  0  0  0  0  1  0  0  0  0  0  0
  184.9760  178.1580  143.0470 P   0  0  0  0  0  0  0  0  0  0  0  0
  186.3040  178.9230  142.3370 O   0  0  0  0  0  1  0  0  0  0  0  0
  2  3  1  0  0  0  0
  2  8  1  0  0  0  0
  3  9  1  0  0  0  0
  4  2  2  0  0  0  0
  5  6  1  6  0  0  0
  5  3  1  0  0  0  0
  5  9  1  0  0  0  0
  7 11  1  6  0  0  0
  7  6  1  0  0  0  0
  7  5  1  0  0  0  0
  8  1  1  0  0  0  0
 10 11  1  0  0  0  0
 12 13  1  0  0  0  0
 12 14  1  0  0  0  0
 13 17  1  0  0  0  0
 14 10  2  0  0  0  0
 15 13  2  0  0  0  0
 17 16  2  0  0  0  0
 17 10  1  0  0  0  0
 18 20  1  0  0  0  0
 18 16  1  0  0  0  0
 19 18  2  0  0  0  0
 20 21  2  0  0  0  0
 20 23  1  0  0  0  0
 23 22  1  0  0  0  0
 24  8  1  0  0  0  0
 25 24  1  0  0  0  0
 26 25  1  0  0  0  0
 27 29  2  0  0  0  0
 29 28  1  0  0  0  0
 29 26  1  0  0  0  0
 30 29  1  0  0  0  0
M  END
>  <MODEL>
2

>  <REMARK>
 VINA RESULT:      -6.7      3.673      5.223
  Name = 
  8 active torsions:
  status: ('A' for Active; 'I' for Inactive)
    1  A    between atoms: C_2  and  C_13
    2  A    between atoms: C_2  and  N_29
    3  A    between atoms: C_3  and  C_12
    4  A    between atoms: C_3  and  N_19
    5  A    between atoms: N_4  and  C_25
    6  A    between atoms: N_8  and  C_13
    7  A    between atoms: N_8  and  P_24
    8  A    between atoms: C_12  and  C_27
                            x       y       z     vdW  Elec       q    Type
                         _______ _______ _______ _____ _____    ______ ____

>  <TORSDO>
F 8

$$$$
=
 OpenBabel11042413463D

 30 32  0  0  1  0  0  0  0  0999 V2000
  185.9750  176.9480  146.7740 O   0  0  0  0  0  1  0  0  0  0  0  0
  188.0150  177.2850  145.5290 C   0  0  0  0  0  0  0  0  0  0  0  0
  188.6410  176.1890  146.1950 N   0  0  0  0  0  0  0  0  0  0  0  0
  188.6610  177.9280  144.6600 O   0  0  0  0  0  0  0  0  0  0  0  0
  189.8250  175.2780  146.4510 C   0  0  1  0  0  0  0  0  0  0  0  0
  189.8070  173.8450  145.8890 C   0  0  0  0  0  2  0  0  0  0  0  0
  190.1850  174.9380  144.9940 C   0  0  2  0  0  3  0  0  0  0  0  0
  186.6680  177.6510  145.8470 N   0  0  0  0  0  0  0  0  0  0  0  0
  188.6480  175.0990  147.1670 C   0  0  0  0  0  2  0  0  0  0  0  0
  192.2650  174.9260  143.5670 C   0  0  0  0  0  0  0  0  0  0  0  0
  191.6310  174.9860  144.8450 N   0  0  0  0  0  2  0  0  0  0  0  0
  192.5210  174.7610  141.3770 N   0  0  0  0  0  2  0  0  0  0  0  0
  193.8340  174.9750  141.8880 C   0  0  0  0  0  0  0  0  0  0  0  0
  191.6220  174.7720  142.4540 N   0  0  0  0  0  0  0  0  0  0  0  0
  194.8640  174.4710  141.2960 N   0  0  0  0  0  2  0  0  0  0  0  0
  194.5550  175.4200  144.2540 N   0  0  0  0  0  0  0  0  0  0  0  0
  193.6930  175.0740  143.3420 C   0  0  0  0  0  0  0  0  0  0  0  0
  195.9490  175.7340  144.1060 C   0  0  0  0  0  0  0  0  0  0  0  0
  196.3320  176.8860  143.7620 O   0  0  0  0  0  0  0  0  0  0  0  0
  196.9580  174.6940  144.3860 C   0  0  0  0  0  0  0  0  0  0  0  0
  197.8330  174.4140  143.5250 O   0  0  0  0  0  0  0  0  0  0  0  0
  197.2600  172.6570  145.5120 F   0  0  0  0  0  0  0  0  0  0  0  0
  196.9880  173.9990  145.7060 C   0  0  0  0  0  2  0  0  0  0  0  0
  186.0540  178.8270  145.2420 C   0  0  0  0  0  2  0  0  0  0  0  0
  185.2850  178.4380  143.9910 C   0  0  0  0  0  2  0  0  0  0  0  0
  185.9110  179.0350  142.8240 N   0  0  0  0  0  2  0  0  0  0  0  0
  185.4410  177.7730  140.3510 O   0  0  0  0  0  0  0  0  0  0  0  0
  186.2160  176.4040  142.4450 O   0  0  0  0  0  1  0  0  0  0  0  0
  186.3900  177.7360  141.7500 P   0  0  0  0  0  0  0  0  0  0  0  0
  188.0150  177.9370  141.3330 O   0  0  0  0  0  1  0  0  0  0  0  0
  2  8  1  0  0  0  0
  2  3  1  0  0  0  0
  3  5  1  0  0  0  0
  3  9  1  0  0  0  0
  4  2  2  0  0  0  0
  5  6  1  6  0  0  0
  5  9  1  0  0  0  0
  7 11  1  1  0  0  0
  7  6  1  0  0  0  0
  7  5  1  0  0  0  0
  8  1  1  0  0  0  0
 10 11  1  0  0  0  0
 12 13  1  0  0  0  0
 12 14  1  0  0  0  0
 13 17  1  0  0  0  0
 14 10  2  0  0  0  0
 15 13  2  0  0  0  0
 17 10  1  0  0  0  0
 17 16  2  0  0  0  0
 18 16  1  0  0  0  0
 18 20  1  0  0  0  0
 19 18  2  0  0  0  0
 20 23  1  0  0  0  0
 21 20  2  0  0  0  0
 22 23  1  0  0  0  0
 24  8  1  0  0  0  0
 25 24  1  0  0  0  0
 26 25  1  0  0  0  0
 27 29  2  0  0  0  0
 29 28  1  0  0  0  0
 29 26  1  0  0  0  0
 30 29  1  0  0  0  0
M  END
>  <MODEL>
3

>  <REMARK>
 VINA RESULT:      -6.6      4.013      5.448
  Name = 
  8 active torsions:
  status: ('A' for Active; 'I' for Inactive)
    1  A    between atoms: C_2  and  C_13
    2  A    between atoms: C_2  and  N_29
    3  A    between atoms: C_3  and  C_12
    4  A    between atoms: C_3  and  N_19
    5  A    between atoms: N_4  and  C_25
    6  A    between atoms: N_8  and  C_13
    7  A    between atoms: N_8  and  P_24
    8  A    between atoms: C_12  and  C_27
                            x       y       z     vdW  Elec       q    Type
                         _______ _______ _______ _____ _____    ______ ____

>  <TORSDO>
F 8

$$$$
=
 OpenBabel11042413463D

 30 32  0  0  1  0  0  0  0  0999 V2000
  194.5930  173.7390  145.0610 O   0  0  0  0  0  1  0  0  0  0  0  0
  193.1140  175.6210  144.7590 C   0  0  0  0  0  0  0  0  0  0  0  0
  191.9800  174.7590  144.6770 N   0  0  0  0  0  0  0  0  0  0  0  0
  192.9490  176.8670  144.6610 O   0  0  0  0  0  0  0  0  0  0  0  0
  190.4940  174.5140  144.5050 C   0  0  1  0  0  0  0  0  0  0  0  0
  189.6460  174.1410  145.7340 C   0  0  0  0  0  2  0  0  0  0  0  0
  189.9620  175.5500  145.5100 C   0  0  2  0  0  3  0  0  0  0  0  0
  194.4240  175.0780  144.9450 N   0  0  0  0  0  0  0  0  0  0  0  0
  191.3560  173.4380  144.6720 C   0  0  0  0  0  2  0  0  0  0  0  0
  187.6840  176.6190  145.6930 C   0  0  0  0  0  0  0  0  0  0  0  0
  188.8210  176.2330  144.9200 N   0  0  0  0  0  2  0  0  0  0  0  0
  186.3330  176.8690  147.4250 N   0  0  0  0  0  2  0  0  0  0  0  0
  185.6920  177.5560  146.3540 C   0  0  0  0  0  0  0  0  0  0  0  0
  187.5480  176.3520  146.9520 N   0  0  0  0  0  0  0  0  0  0  0  0
  184.4050  177.6250  146.2890 N   0  0  0  0  0  2  0  0  0  0  0  0
  186.5160  177.9520  144.0130 N   0  0  0  0  0  0  0  0  0  0  0  0
  186.5620  177.3930  145.1880 C   0  0  0  0  0  0  0  0  0  0  0  0
  185.5300  178.8490  143.4780 C   0  0  0  0  0  0  0  0  0  0  0  0
  185.3850  180.0160  143.9360 O   0  0  0  0  0  0  0  0  0  0  0  0
  184.6850  178.4060  142.3530 C   0  0  0  0  0  0  0  0  0  0  0  0
  183.4570  178.1920  142.5300 O   0  0  0  0  0  0  0  0  0  0  0  0
  186.0230  177.1060  140.9290 F   0  0  0  0  0  0  0  0  0  0  0  0
  185.2580  178.2570  140.9840 C   0  0  0  0  0  2  0  0  0  0  0  0
  195.5980  175.9420  144.9340 C   0  0  0  0  0  2  0  0  0  0  0  0
  196.6620  175.3800  144.0060 C   0  0  0  0  0  2  0  0  0  0  0  0
  196.9160  176.3160  142.9250 N   0  0  0  0  0  2  0  0  0  0  0  0
  196.9750  175.9160  140.1380 O   0  0  0  0  0  0  0  0  0  0  0  0
  194.7650  176.6080  141.3620 O   0  0  0  0  0  1  0  0  0  0  0  0
  196.0150  175.7740  141.5240 P   0  0  0  0  0  0  0  0  0  0  0  0
  195.5800  174.1560  141.7420 O   0  0  0  0  0  1  0  0  0  0  0  0
  2  8  1  0  0  0  0
  3  2  1  0  0  0  0
  4  2  2  0  0  0  0
  5  9  1  6  0  0  0
  5  3  1  0  0  0  0
  5  7  1  0  0  0  0
  5  6  1  0  0  0  0
  7 11  1  6  0  0  0
  7  6  1  0  0  0  0
  8  1  1  0  0  0  0
  9  3  1  0  0  0  0
 10 14  2  0  0  0  0
 11 10  1  0  0  0  0
 13 12  1  0  0  0  0
 14 12  1  0  0  0  0
 15 13  2  0  0  0  0
 16 17  2  0  0  0  0
 17 10  1  0  0  0  0
 17 13  1  0  0  0  0
 18 19  2  0  0  0  0
 18 16  1  0  0  0  0
 20 21  2  0  0  0  0
 20 18  1  0  0  0  0
 22 23  1  0  0  0  0
 23 20  1  0  0  0  0
 24  8  1  0  0  0  0
 25 24  1  0  0  0  0
 26 25  1  0  0  0  0
 27 29  2  0  0  0  0
 28 29  1  0  0  0  0
 29 30  1  0  0  0  0
 29 26  1  0  0  0  0
M  END
>  <MODEL>
4

>  <REMARK>
 VINA RESULT:      -6.6      4.743     10.724
  Name = 
  8 active torsions:
  status: ('A' for Active; 'I' for Inactive)
    1  A    between atoms: C_2  and  C_13
    2  A    between atoms: C_2  and  N_29
    3  A    between atoms: C_3  and  C_12
    4  A    between atoms: C_3  and  N_19
    5  A    between atoms: N_4  and  C_25
    6  A    between atoms: N_8  and  C_13
    7  A    between atoms: N_8  and  P_24
    8  A    between atoms: C_12  and  C_27
                            x       y       z     vdW  Elec       q    Type
                         _______ _______ _______ _____ _____    ______ ____

>  <TORSDO>
F 8

$$$$
=
 OpenBabel11042413463D

 30 32  0  0  1  0  0  0  0  0999 V2000
  183.9510  178.6700  144.0820 O   0  0  0  0  0  1  0  0  0  0  0  0
  185.9780  177.7680  143.1330 C   0  0  0  0  0  0  0  0  0  0  0  0
  186.6270  177.8030  144.4030 N   0  0  0  0  0  0  0  0  0  0  0  0
  186.6090  177.3380  142.1310 O   0  0  0  0  0  0  0  0  0  0  0  0
  187.8290  177.5780  145.2990 C   0  0  1  0  0  0  0  0  0  0  0  0
  187.8350  176.3770  146.2620 C   0  0  0  0  0  2  0  0  0  0  0  0
  188.1890  176.1470  144.8630 C   0  0  2  0  0  3  0  0  0  0  0  0
  184.6270  178.2200  142.9980 N   0  0  0  0  0  0  0  0  0  0  0  0
  186.6590  178.1030  145.8320 C   0  0  0  0  0  2  0  0  0  0  0  0
  190.3050  174.7910  144.6490 C   0  0  0  0  0  0  0  0  0  0  0  0
  189.6330  176.0490  144.7200 N   0  0  0  0  0  2  0  0  0  0  0  0
  190.6330  172.6040  144.6380 N   0  0  0  0  0  2  0  0  0  0  0  0
  191.9160  173.1730  144.3860 C   0  0  0  0  0  0  0  0  0  0  0  0
  189.7050  173.6500  144.7580 N   0  0  0  0  0  0  0  0  0  0  0  0
  192.9910  172.5800  144.7850 N   0  0  0  0  0  2  0  0  0  0  0  0
  192.5410  175.5870  144.0760 N   0  0  0  0  0  0  0  0  0  0  0  0
  191.7270  174.6240  144.4030 C   0  0  0  0  0  0  0  0  0  0  0  0
  193.9180  175.5070  143.6720 C   0  0  0  0  0  0  0  0  0  0  0  0
  194.2440  175.1050  142.5210 O   0  0  0  0  0  0  0  0  0  0  0  0
  194.9720  175.9270  144.6140 C   0  0  0  0  0  0  0  0  0  0  0  0
  195.8190  176.7940  144.2700 O   0  0  0  0  0  0  0  0  0  0  0  0
  194.4850  176.2940  146.8810 F   0  0  0  0  0  0  0  0  0  0  0  0
  195.0210  175.3730  145.9990 C   0  0  0  0  0  2  0  0  0  0  0  0
  183.9880  178.2770  141.6890 C   0  0  0  0  0  2  0  0  0  0  0  0
  182.4760  178.2900  141.8380 C   0  0  0  0  0  2  0  0  0  0  0  0
  181.8570  178.5290  140.5460 N   0  0  0  0  0  2  0  0  0  0  0  0
  179.1350  177.9960  140.0580 O   0  0  0  0  0  0  0  0  0  0  0  0
  180.0130  180.4520  140.2970 O   0  0  0  0  0  1  0  0  0  0  0  0
  180.2090  179.0510  140.8300 P   0  0  0  0  0  0  0  0  0  0  0  0
  179.9070  179.0410  142.4920 O   0  0  0  0  0  1  0  0  0  0  0  0
  2  3  1  0  0  0  0
  3  5  1  0  0  0  0
  3  9  1  0  0  0  0
  4  2  2  0  0  0  0
  5  9  1  1  0  0  0
  5  6  1  0  0  0  0
  7 11  1  1  0  0  0
  7  5  1  0  0  0  0
  7  6  1  0  0  0  0
  8  2  1  0  0  0  0
  8  1  1  0  0  0  0
 10 11  1  0  0  0  0
 10 14  2  0  0  0  0
 12 14  1  0  0  0  0
 13 17  1  0  0  0  0
 13 12  1  0  0  0  0
 13 15  2  0  0  0  0
 16 17  2  0  0  0  0
 17 10  1  0  0  0  0
 18 16  1  0  0  0  0
 18 20  1  0  0  0  0
 19 18  2  0  0  0  0
 20 23  1  0  0  0  0
 21 20  2  0  0  0  0
 23 22  1  0  0  0  0
 24 25  1  0  0  0  0
 24  8  1  0  0  0  0
 26 29  1  0  0  0  0
 26 25  1  0  0  0  0
 27 29  2  0  0  0  0
 28 29  1  0  0  0  0
 29 30  1  0  0  0  0
M  END
>  <MODEL>
5

>  <REMARK>
 VINA RESULT:      -6.5      2.066      2.589
  Name = 
  8 active torsions:
  status: ('A' for Active; 'I' for Inactive)
    1  A    between atoms: C_2  and  C_13
    2  A    between atoms: C_2  and  N_29
    3  A    between atoms: C_3  and  C_12
    4  A    between atoms: C_3  and  N_19
    5  A    between atoms: N_4  and  C_25
    6  A    between atoms: N_8  and  C_13
    7  A    between atoms: N_8  and  P_24
    8  A    between atoms: C_12  and  C_27
                            x       y       z     vdW  Elec       q    Type
                         _______ _______ _______ _____ _____    ______ ____

>  <TORSDO>
F 8

$$$$
=
 OpenBabel11042413463D

 30 32  0  0  1  0  0  0  0  0999 V2000
  189.2570  176.3510  147.0430 O   0  0  0  0  0  1  0  0  0  0  0  0
  188.0880  177.5220  145.2870 C   0  0  0  0  0  0  0  0  0  0  0  0
  186.8330  177.2940  145.9250 N   0  0  0  0  0  0  0  0  0  0  0  0
  188.1200  178.1610  144.2010 O   0  0  0  0  0  0  0  0  0  0  0  0
  185.3240  177.4210  145.9960 C   0  0  1  0  0  0  0  0  0  0  0  0
  184.6990  178.4260  146.9790 C   0  0  0  0  0  2  0  0  0  0  0  0
  185.1950  178.9250  145.6980 C   0  0  2  0  0  3  0  0  0  0  0  0
  189.2970  177.0270  145.8700 N   0  0  0  0  0  0  0  0  0  0  0  0
  186.0070  176.7430  146.9960 C   0  0  0  0  0  2  0  0  0  0  0  0
  184.0970  178.5930  143.4510 C   0  0  0  0  0  0  0  0  0  0  0  0
  184.0890  179.1280  144.7750 N   0  0  0  0  0  2  0  0  0  0  0  0
  184.7940  177.5380  141.6370 N   0  0  0  0  0  2  0  0  0  0  0  0
  183.4650  177.9550  141.3360 C   0  0  0  0  0  0  0  0  0  0  0  0
  185.0940  177.9390  142.9490 N   0  0  0  0  0  0  0  0  0  0  0  0
  183.1230  178.2500  140.1270 N   0  0  0  0  0  2  0  0  0  0  0  0
  181.7960  179.1090  142.8190 N   0  0  0  0  0  0  0  0  0  0  0  0
  182.9850  178.6700  142.5190 C   0  0  0  0  0  0  0  0  0  0  0  0
  180.6010  179.0910  142.0220 C   0  0  0  0  0  0  0  0  0  0  0  0
  180.5430  179.6820  140.9090 O   0  0  0  0  0  0  0  0  0  0  0  0
  179.4230  178.3450  142.5030 C   0  0  0  0  0  0  0  0  0  0  0  0
  179.2130  177.1690  142.1060 O   0  0  0  0  0  0  0  0  0  0  0  0
  179.1600  179.1180  144.7040 F   0  0  0  0  0  0  0  0  0  0  0  0
  178.4950  178.9500  143.5030 C   0  0  0  0  0  2  0  0  0  0  0  0
  190.5720  177.1720  145.1780 C   0  0  0  0  0  2  0  0  0  0  0  0
  191.0470  175.8260  144.6560 C   0  0  0  0  0  2  0  0  0  0  0  0
  190.7430  175.7130  143.2410 N   0  0  0  0  0  2  0  0  0  0  0  0
  189.5030  173.4990  144.4620 O   0  0  0  0  0  1  0  0  0  0  0  0
  189.9730  173.5390  141.8850 O   0  0  0  0  0  0  0  0  0  0  0  0
  189.5750  174.4220  143.0460 P   0  0  0  0  0  0  0  0  0  0  0  0
  188.0560  175.0950  142.7370 O   0  0  0  0  0  1  0  0  0  0  0  0
  2  8  1  0  0  0  0
  2  3  1  0  0  0  0
  3  5  1  0  0  0  0
  3  9  1  0  0  0  0
  4  2  2  0  0  0  0
  5  6  1  1  0  0  0
  5  9  1  0  0  0  0
  7 11  1  6  0  0  0
  7  5  1  0  0  0  0
  7  6  1  0  0  0  0
  8  1  1  0  0  0  0
 10 11  1  0  0  0  0
 12 14  1  0  0  0  0
 13 12  1  0  0  0  0
 13 17  1  0  0  0  0
 14 10  2  0  0  0  0
 15 13  2  0  0  0  0
 17 16  2  0  0  0  0
 17 10  1  0  0  0  0
 18 20  1  0  0  0  0
 18 16  1  0  0  0  0
 19 18  2  0  0  0  0
 20 23  1  0  0  0  0
 21 20  2  0  0  0  0
 23 22  1  0  0  0  0
 24  8  1  0  0  0  0
 25 24  1  0  0  0  0
 26 25  1  0  0  0  0
 28 29  2  0  0  0  0
 29 26  1  0  0  0  0
 29 27  1  0  0  0  0
 30 29  1  0  0  0  0
M  END
>  <MODEL>
6

>  <REMARK>
 VINA RESULT:      -6.5      4.260      9.498
  Name = 
  8 active torsions:
  status: ('A' for Active; 'I' for Inactive)
    1  A    between atoms: C_2  and  C_13
    2  A    between atoms: C_2  and  N_29
    3  A    between atoms: C_3  and  C_12
    4  A    between atoms: C_3  and  N_19
    5  A    between atoms: N_4  and  C_25
    6  A    between atoms: N_8  and  C_13
    7  A    between atoms: N_8  and  P_24
    8  A    between atoms: C_12  and  C_27
                            x       y       z     vdW  Elec       q    Type
                         _______ _______ _______ _____ _____    ______ ____

>  <TORSDO>
F 8

$$$$
=
 OpenBabel11042413463D

 30 32  0  0  1  0  0  0  0  0999 V2000
  186.6290  177.8610  147.1760 O   0  0  0  0  0  1  0  0  0  0  0  0
  188.0320  176.6240  145.6520 C   0  0  0  0  0  0  0  0  0  0  0  0
  189.1920  176.9180  146.4280 N   0  0  0  0  0  0  0  0  0  0  0  0
  188.1490  175.9250  144.6100 O   0  0  0  0  0  0  0  0  0  0  0  0
  190.6820  176.8320  146.6950 C   0  0  1  0  0  0  0  0  0  0  0  0
  191.1950  175.8990  147.8060 C   0  0  0  0  0  2  0  0  0  0  0  0
  190.8730  175.3170  146.5040 C   0  0  2  0  0  3  0  0  0  0  0  0
  186.7500  177.1200  146.0490 N   0  0  0  0  0  0  0  0  0  0  0  0
  189.8660  177.5480  147.5610 C   0  0  0  0  0  2  0  0  0  0  0  0
  192.0870  175.0040  144.3150 C   0  0  0  0  0  0  0  0  0  0  0  0
  192.0900  175.0910  145.7400 N   0  0  0  0  0  2  0  0  0  0  0  0
  191.3400  174.9570  142.2350 N   0  0  0  0  0  2  0  0  0  0  0  0
  192.7580  174.8690  142.1210 C   0  0  0  0  0  0  0  0  0  0  0  0
  191.0130  175.0640  143.5950 N   0  0  0  0  0  0  0  0  0  0  0  0
  193.3040  174.2180  141.1490 N   0  0  0  0  0  2  0  0  0  0  0  0
  194.4980  174.9820  143.9300 N   0  0  0  0  0  0  0  0  0  0  0  0
  193.2770  174.8840  143.4890 C   0  0  0  0  0  0  0  0  0  0  0  0
  195.7260  175.0250  143.1850 C   0  0  0  0  0  0  0  0  0  0  0  0
  196.3400  173.9690  142.8680 O   0  0  0  0  0  0  0  0  0  0  0  0
  196.2680  176.3290  142.7590 C   0  0  0  0  0  0  0  0  0  0  0  0
  196.7350  177.1290  143.6120 O   0  0  0  0  0  0  0  0  0  0  0  0
  195.0510  177.0450  140.8850 F   0  0  0  0  0  0  0  0  0  0  0  0
  196.3180  176.6960  141.3140 C   0  0  0  0  0  2  0  0  0  0  0  0
  185.5760  176.9060  145.2120 C   0  0  0  0  0  2  0  0  0  0  0  0
  185.1740  178.1990  144.5220 C   0  0  0  0  0  2  0  0  0  0  0  0
  184.5420  177.9010  143.2490 N   0  0  0  0  0  2  0  0  0  0  0  0
  186.5120  176.4300  141.8770 O   0  0  0  0  0  1  0  0  0  0  0  0
  186.8250  178.9830  142.3700 O   0  0  0  0  0  1  0  0  0  0  0  0
  185.7820  177.9490  142.0120 P   0  0  0  0  0  0  0  0  0  0  0  0
  185.0710  178.3640  140.5360 O   0  0  0  0  0  0  0  0  0  0  0  0
  2  8  1  0  0  0  0
  2  3  1  0  0  0  0
  3  5  1  0  0  0  0
  3  9  1  0  0  0  0
  4  2  2  0  0  0  0
  5  9  1  6  0  0  0
  5  6  1  0  0  0  0
  7 11  1  6  0  0  0
  7  5  1  0  0  0  0
  7  6  1  0  0  0  0
  8  1  1  0  0  0  0
 10 11  1  0  0  0  0
 12 14  1  0  0  0  0
 13 12  1  0  0  0  0
 13 17  1  0  0  0  0
 14 10  2  0  0  0  0
 15 13  2  0  0  0  0
 17 16  2  0  0  0  0
 17 10  1  0  0  0  0
 18 16  1  0  0  0  0
 19 18  2  0  0  0  0
 20 18  1  0  0  0  0
 20 21  2  0  0  0  0
 22 23  1  0  0  0  0
 23 20  1  0  0  0  0
 24  8  1  0  0  0  0
 25 24  1  0  0  0  0
 26 25  1  0  0  0  0
 27 29  1  0  0  0  0
 29 28  1  0  0  0  0
 29 26  1  0  0  0  0
 30 29  2  0  0  0  0
M  END
>  <MODEL>
7

>  <REMARK>
 VINA RESULT:      -6.4      3.815      5.439
  Name = 
  8 active torsions:
  status: ('A' for Active; 'I' for Inactive)
    1  A    between atoms: C_2  and  C_13
    2  A    between atoms: C_2  and  N_29
    3  A    between atoms: C_3  and  C_12
    4  A    between atoms: C_3  and  N_19
    5  A    between atoms: N_4  and  C_25
    6  A    between atoms: N_8  and  C_13
    7  A    between atoms: N_8  and  P_24
    8  A    between atoms: C_12  and  C_27
                            x       y       z     vdW  Elec       q    Type
                         _______ _______ _______ _____ _____    ______ ____

>  <TORSDO>
F 8

$$$$
=
 OpenBabel11042413463D

 30 32  0  0  1  0  0  0  0  0999 V2000
  183.1880  178.5930  140.5110 O   0  0  0  0  0  1  0  0  0  0  0  0
  184.5450  177.9440  142.3980 C   0  0  0  0  0  0  0  0  0  0  0  0
  185.6480  177.6450  141.5440 N   0  0  0  0  0  0  0  0  0  0  0  0
  184.6680  177.7860  143.6420 O   0  0  0  0  0  0  0  0  0  0  0  0
  187.0680  177.1700  141.3080 C   0  0  1  0  0  0  0  0  0  0  0  0
  188.1610  178.2010  140.9730 C   0  0  0  0  0  2  0  0  0  0  0  0
  187.7860  178.0170  142.3740 C   0  0  2  0  0  3  0  0  0  0  0  0
  183.3110  178.4140  141.8480 N   0  0  0  0  0  0  0  0  0  0  0  0
  186.2760  177.5390  140.2290 C   0  0  0  0  0  2  0  0  0  0  0  0
  188.5380  176.6500  144.3550 C   0  0  0  0  0  0  0  0  0  0  0  0
  188.7670  177.1850  143.0520 N   0  0  0  0  0  2  0  0  0  0  0  0
  187.5450  176.2210  146.2840 N   0  0  0  0  0  2  0  0  0  0  0  0
  188.7450  175.4520  146.3060 C   0  0  0  0  0  0  0  0  0  0  0  0
  187.4790  176.8980  145.0560 N   0  0  0  0  0  0  0  0  0  0  0  0
  189.3530  175.2090  147.4180 N   0  0  0  0  0  2  0  0  0  0  0  0
  190.4740  175.1690  144.5040 N   0  0  0  0  0  0  0  0  0  0  0  0
  189.4290  175.7300  145.0420 C   0  0  0  0  0  0  0  0  0  0  0  0
  191.3260  174.1460  145.0430 C   0  0  0  0  0  0  0  0  0  0  0  0
  192.1780  174.4030  145.9380 O   0  0  0  0  0  0  0  0  0  0  0  0
  191.1870  172.7600  144.5580 C   0  0  0  0  0  0  0  0  0  0  0  0
  192.2050  172.1020  144.2190 O   0  0  0  0  0  0  0  0  0  0  0  0
  189.2700  172.1470  145.7670 F   0  0  0  0  0  0  0  0  0  0  0  0
  189.8480  172.1020  144.5120 C   0  0  0  0  0  2  0  0  0  0  0  0
  182.1490  178.6300  142.7020 C   0  0  0  0  0  2  0  0  0  0  0  0
  180.9380  179.0050  141.8640 C   0  0  0  0  0  2  0  0  0  0  0  0
  180.1490  177.8190  141.5820 N   0  0  0  0  0  2  0  0  0  0  0  0
  177.8300  176.5690  142.5780 O   0  0  0  0  0  1  0  0  0  0  0  0
  177.6950  178.8440  141.2870 O   0  0  0  0  0  0  0  0  0  0  0  0
  178.5520  178.0650  142.2590 P   0  0  0  0  0  0  0  0  0  0  0  0
  178.6930  178.9380  143.6990 O   0  0  0  0  0  1  0  0  0  0  0  0
  1  8  1  0  0  0  0
  2  4  2  0  0  0  0
  3  2  1  0  0  0  0
  5  9  1  6  0  0  0
  5  3  1  0  0  0  0
  5  7  1  0  0  0  0
  6  5  1  0  0  0  0
  6  7  1  0  0  0  0
  7 11  1  1  0  0  0
  8  2  1  0  0  0  0
  8 24  1  0  0  0  0
  9  3  1  0  0  0  0
 10 17  1  0  0  0  0
 10 14  2  0  0  0  0
 11 10  1  0  0  0  0
 12 13  1  0  0  0  0
 13 15  2  0  0  0  0
 14 12  1  0  0  0  0
 16 17  2  0  0  0  0
 16 18  1  0  0  0  0
 17 13  1  0  0  0  0
 18 19  2  0  0  0  0
 20 18  1  0  0  0  0
 21 20  2  0  0  0  0
 23 20  1  0  0  0  0
 23 22  1  0  0  0  0
 25 24  1  0  0  0  0
 26 25  1  0  0  0  0
 26 29  1  0  0  0  0
 28 29  2  0  0  0  0
 29 27  1  0  0  0  0
 29 30  1  0  0  0  0
M  END
>  <MODEL>
8

>  <REMARK>
 VINA RESULT:      -6.2      2.717      3.633
  Name = 
  8 active torsions:
  status: ('A' for Active; 'I' for Inactive)
    1  A    between atoms: C_2  and  C_13
    2  A    between atoms: C_2  and  N_29
    3  A    between atoms: C_3  and  C_12
    4  A    between atoms: C_3  and  N_19
    5  A    between atoms: N_4  and  C_25
    6  A    between atoms: N_8  and  C_13
    7  A    between atoms: N_8  and  P_24
    8  A    between atoms: C_12  and  C_27
                            x       y       z     vdW  Elec       q    Type
                         _______ _______ _______ _____ _____    ______ ____

>  <TORSDO>
F 8

$$$$
=
 OpenBabel11042413463D

 30 32  0  0  1  0  0  0  0  0999 V2000
  183.4280  178.9630  143.9310 O   0  0  0  0  0  1  0  0  0  0  0  0
  185.3860  177.7200  143.2660 C   0  0  0  0  0  0  0  0  0  0  0  0
  186.0000  177.9440  144.5340 N   0  0  0  0  0  0  0  0  0  0  0  0
  186.0010  177.0500  142.3940 O   0  0  0  0  0  0  0  0  0  0  0  0
  187.1490  177.7920  145.5110 C   0  0  1  0  0  0  0  0  0  0  0  0
  187.0130  176.8040  146.6840 C   0  0  0  0  0  2  0  0  0  0  0  0
  187.3830  176.2770  145.3720 C   0  0  2  0  0  3  0  0  0  0  0  0
  184.0890  178.2540  142.9850 N   0  0  0  0  0  0  0  0  0  0  0  0
  186.0200  178.5110  145.8800 C   0  0  0  0  0  2  0  0  0  0  0  0
  189.4820  175.7020  144.0980 C   0  0  0  0  0  0  0  0  0  0  0  0
  188.8150  176.0270  145.3180 N   0  0  0  0  0  2  0  0  0  0  0  0
  189.8020  175.2460  141.9580 N   0  0  0  0  0  2  0  0  0  0  0  0
  191.1060  175.2580  142.5330 C   0  0  0  0  0  0  0  0  0  0  0  0
  188.8740  175.5520  142.9650 N   0  0  0  0  0  0  0  0  0  0  0  0
  192.0410  174.5000  142.0660 N   0  0  0  0  0  2  0  0  0  0  0  0
  191.7910  175.8150  144.8860 N   0  0  0  0  0  0  0  0  0  0  0  0
  190.9200  175.5440  143.9560 C   0  0  0  0  0  0  0  0  0  0  0  0
  193.2250  175.8340  144.8020 C   0  0  0  0  0  0  0  0  0  0  0  0
  193.8620  176.9140  144.6690 O   0  0  0  0  0  0  0  0  0  0  0  0
  193.9700  174.5650  144.8980 C   0  0  0  0  0  0  0  0  0  0  0  0
  195.0770  174.4350  144.3120 O   0  0  0  0  0  0  0  0  0  0  0  0
  192.8990  172.4760  144.9060 F   0  0  0  0  0  0  0  0  0  0  0  0
  193.4520  173.4390  145.7300 C   0  0  0  0  0  2  0  0  0  0  0  0
  183.4950  178.1120  141.6610 C   0  0  0  0  0  2  0  0  0  0  0  0
  181.9970  178.3550  141.7230 C   0  0  0  0  0  2  0  0  0  0  0  0
  181.4400  178.3410  140.3820 N   0  0  0  0  0  2  0  0  0  0  0  0
  179.2500  177.6290  142.0010 O   0  0  0  0  0  1  0  0  0  0  0  0
  179.0900  177.5360  139.3890 O   0  0  0  0  0  0  0  0  0  0  0  0
  179.6940  178.3270  140.5260 P   0  0  0  0  0  0  0  0  0  0  0  0
  179.1240  179.9160  140.4630 O   0  0  0  0  0  1  0  0  0  0  0  0
  2  3  1  0  0  0  0
  3  5  1  0  0  0  0
  3  9  1  0  0  0  0
  4  2  2  0  0  0  0
  5  9  1  6  0  0  0
  5  6  1  0  0  0  0
  7 11  1  1  0  0  0
  7  5  1  0  0  0  0
  7  6  1  0  0  0  0
  8  2  1  0  0  0  0
  8  1  1  0  0  0  0
 10 11  1  0  0  0  0
 12 13  1  0  0  0  0
 12 14  1  0  0  0  0
 13 17  1  0  0  0  0
 14 10  2  0  0  0  0
 15 13  2  0  0  0  0
 17 10  1  0  0  0  0
 17 16  2  0  0  0  0
 18 16  1  0  0  0  0
 18 20  1  0  0  0  0
 19 18  2  0  0  0  0
 20 23  1  0  0  0  0
 21 20  2  0  0  0  0
 22 23  1  0  0  0  0
 24 25  1  0  0  0  0
 24  8  1  0  0  0  0
 26 29  1  0  0  0  0
 26 25  1  0  0  0  0
 28 29  2  0  0  0  0
 29 27  1  0  0  0  0
 30 29  1  0  0  0  0
M  END
>  <MODEL>
9

>  <REMARK>
 VINA RESULT:      -6.2      1.835      1.901
  Name = 
  8 active torsions:
  status: ('A' for Active; 'I' for Inactive)
    1  A    between atoms: C_2  and  C_13
    2  A    between atoms: C_2  and  N_29
    3  A    between atoms: C_3  and  C_12
    4  A    between atoms: C_3  and  N_19
    5  A    between atoms: N_4  and  C_25
    6  A    between atoms: N_8  and  C_13
    7  A    between atoms: N_8  and  P_24
    8  A    between atoms: C_12  and  C_27
                            x       y       z     vdW  Elec       q    Type
                         _______ _______ _______ _____ _____    ______ ____

>  <TORSDO>
F 8

$$$$
