=
 OpenBabel11042416003D

 52 57  0  0  1  0  0  0  0  0999 V2000
  188.3700  177.0170  143.7030 C   0  0  0  0  0  3  0  0  0  0  0  0
  189.1390  175.9310  143.5450 C   0  0  0  0  0  0  0  0  0  0  0  0
  190.1490  174.0240  144.5310 O   0  0  0  0  0  0  0  0  0  0  0  0
  189.0180  175.4560  146.0910 C   0  0  1  0  0  3  0  0  0  0  0  0
  188.6750  176.9450  146.1770 C   0  0  0  0  0  2  0  0  0  0  0  0
  187.7580  177.3720  145.0270 C   0  0  2  0  0  3  0  0  0  0  0  0
  189.4990  175.0890  144.7080 C   0  0  0  0  0  0  0  0  0  0  0  0
  186.4570  176.7280  145.1520 N   0  0  0  0  0  2  0  0  0  0  0  0
  185.5050  177.7230  145.4490 N   0  0  0  0  0  0  0  0  0  0  0  0
  185.7930  177.2580  147.8680 N   0  0  0  0  0  1  0  0  0  0  0  0
  184.2970  178.8570  147.1100 O   0  0  0  0  0  0  0  0  0  0  0  0
  185.1630  177.9890  146.8200 C   0  0  0  0  0  0  0  0  0  0  0  0
  184.8490  178.4850  144.3800 C   0  0  0  0  0  3  0  0  0  0  0  0
  185.5660  179.8040  144.1530 C   0  0  0  0  0  1  0  0  0  0  0  0
  184.7840  177.6990  143.0790 C   0  0  0  0  0  1  0  0  0  0  0  0
  190.0620  175.1140  147.1470 C   0  0  0  0  0  2  0  0  0  0  0  0
  190.6750  176.3750  147.7470 C   0  0  0  0  0  2  0  0  0  0  0  0
  192.1750  176.4500  147.4960 C   0  0  0  0  0  2  0  0  0  0  0  0
  192.6540  175.2920  146.6340 C   0  0  0  0  0  2  0  0  0  0  0  0
  192.8780  176.3890  144.4760 N   0  0  0  0  0  2  0  0  0  0  0  0
  193.6300  175.7910  145.5860 C   0  0  2  0  0  3  0  0  0  0  0  0
  193.4450  175.0390  144.3480 C   0  0  2  0  0  3  0  0  0  0  0  0
  194.7360  175.0190  143.4960 C   0  0  1  0  0  3  0  0  0  0  0  0
  194.8190  174.7810  140.5000 C   0  0  0  0  0  2  0  0  0  0  0  0
  194.8290  176.1700  142.5560 N   0  0  0  0  0  0  0  0  0  0  0  0
  196.0580  175.3040  140.0860 O   0  0  0  0  0  0  0  0  0  0  0  0
  196.8360  175.5010  141.2430 C   0  0  0  0  0  2  0  0  0  0  0  0
  196.1790  176.5790  142.1100 C   0  0  2  0  0  3  0  0  0  0  0  0
  194.0590  175.8150  141.3540 C   0  0  0  0  0  2  0  0  0  0  0  0
  196.9920  176.9800  143.1730 O   0  0  0  0  0  1  0  0  0  0  0  0
  196.0590  173.4250  144.9480 C   0  0  1  0  0  0  0  0  0  0  0  0
  195.9490  174.8080  144.4180 C   0  0  1  0  0  3  0  0  0  0  0  0
  196.8210  173.8510  143.8490 O   0  0  0  0  0  0  0  0  0  0  0  0
  196.9220  173.1490  146.1590 C   0  0  0  0  0  1  0  0  0  0  0  0
  195.1200  172.4630  144.5670 O   0  0  0  0  0  1  0  0  0  0  0  0
  189.6560  175.6160  142.1810 C   0  0  0  0  0  2  0  0  0  0  0  0
  188.6370  174.8070  141.3960 C   0  0  0  0  0  2  0  0  0  0  0  0
  189.3080  174.1140  140.2200 C   0  0  2  0  0  3  0  0  0  0  0  0
  188.3130  173.8970  139.0920 C   0  0  0  0  0  1  0  0  0  0  0  0
  189.7440  171.5300  139.6470 O   0  0  0  0  0  0  0  0  0  0  0  0
  189.3100  172.0890  141.9910 O   0  0  0  0  0  0  0  0  0  0  0  0
  189.9860  172.5450  140.7290 S   0  0  0  0  0  0  0  0  0  0  0  0
  192.5050  171.7890  140.0950 C   0  0  0  0  0  2  0  0  0  0  0  0
  193.1710  170.8020  141.0150 C   0  0  1  0  0  3  0  0  0  0  0  0
  192.0500  172.2640  142.3880 N   0  0  0  0  0  2  0  0  0  0  0  0
  191.7430  172.6910  141.0260 C   0  0  2  0  0  3  0  0  0  0  0  0
  192.5150  170.9390  142.3100 N   0  0  0  0  0  2  0  0  0  0  0  0
  192.9000  169.3940  139.0330 N   0  0  0  0  0  2  0  0  0  0  0  0
  193.0140  169.3800  140.4780 C   0  0  2  0  0  3  0  0  0  0  0  0
  191.9070  168.4520  138.7170 N   0  0  0  0  0  2  0  0  0  0  0  0
  191.7290  168.7790  140.9660 C   0  0  0  0  0  2  0  0  0  0  0  0
  190.9730  168.4580  139.7720 N   0  0  0  0  0  2  0  0  0  0  0  0
  1  6  1  0  0  0  0
  2  1  2  0  0  0  0
  2  7  1  0  0  0  0
  3  7  2  0  0  0  0
  4  5  1  0  0  0  0
  4 16  1  1  0  0  0
  6  8  1  1  0  0  0
  6  5  1  0  0  0  0
  7  4  1  0  0  0  0
  8  9  1  0  0  0  0
  9 12  1  0  0  0  0
 12 11  2  0  0  0  0
 12 10  1  0  0  0  0
 13  9  1  0  0  0  0
 14 13  1  0  0  0  0
 15 13  1  0  0  0  0
 16 17  1  0  0  0  0
 18 17  1  0  0  0  0
 19 18  1  0  0  0  0
 20 21  1  0  0  0  0
 21 19  1  1  0  0  0
 22 23  1  6  0  0  0
 22 20  1  0  0  0  0
 22 21  1  0  0  0  0
 23 25  1  1  0  0  0
 24 29  1  0  0  0  0
 26 24  1  0  0  0  0
 26 27  1  0  0  0  0
 27 28  1  0  0  0  0
 28 25  1  0  0  0  0
 28 30  1  1  0  0  0
 29 25  1  0  0  0  0
 31 34  1  1  0  0  0
 32 23  1  6  0  0  0
 32 31  1  0  0  0  0
 33 32  1  0  0  0  0
 33 31  1  0  0  0  0
 35 31  1  0  0  0  0
 36  2  1  0  0  0  0
 37 36  1  0  0  0  0
 38 39  1  6  0  0  0
 38 42  1  0  0  0  0
 38 37  1  0  0  0  0
 40 42  2  0  0  0  0
 42 41  2  0  0  0  0
 43 46  1  0  0  0  0
 44 43  1  6  0  0  0
 44 47  1  0  0  0  0
 46 42  1  6  0  0  0
 46 45  1  0  0  0  0
 47 45  1  0  0  0  0
 48 49  1  0  0  0  0
 49 51  1  1  0  0  0
 49 44  1  0  0  0  0
 50 48  1  0  0  0  0
 50 52  1  0  0  0  0
 52 51  1  0  0  0  0
M  END
>  <MODEL>
1

>  <REMARK>
 VINA RESULT:      -7.0      0.000      0.000
  Name = 
  17 active torsions:
  status: ('A' for Active; 'I' for Inactive)
    1  A    between atoms: N_2  and  C_45
    2  A    between atoms: C_3  and  C_10
    3  A    between atoms: C_3  and  C_51
    4  A    between atoms: C_7  and  N_18
    5  A    between atoms: C_9  and  C_12
    6  A    between atoms: C_9  and  C_39
    7  A    between atoms: C_11  and  C_32
    8  A    between atoms: C_12  and  C_17
    9  A    between atoms: N_18  and  N_48
   10  A    between atoms: C_25  and  C_45
   11  A    between atoms: C_26  and  S_30
   12  A    between atoms: C_26  and  C_51
   13  A    between atoms: S_30  and  C_36
   14  A    between atoms: C_35  and  C_52
   15  A    between atoms: C_39  and  C_52
   16  A    between atoms: C_40  and  C_45
   17  A    between atoms: C_42  and  N_48
                            x       y       z     vdW  Elec       q    Type
                         _______ _______ _______ _____ _____    ______ ____

>  <TORSDO>
F 17

$$$$
=
 OpenBabel11042416003D

 52 57  0  0  1  0  0  0  0  0999 V2000
  188.3630  176.9420  143.5800 C   0  0  0  0  0  3  0  0  0  0  0  0
  189.1490  175.8750  143.3820 C   0  0  0  0  0  0  0  0  0  0  0  0
  190.2050  173.9610  144.3030 O   0  0  0  0  0  0  0  0  0  0  0  0
  189.0710  175.3300  145.9170 C   0  0  1  0  0  3  0  0  0  0  0  0
  188.7030  176.8110  146.0460 C   0  0  0  0  0  2  0  0  0  0  0  0
  187.7640  177.2520  144.9210 C   0  0  2  0  0  3  0  0  0  0  0  0
  189.5390  175.0080  144.5180 C   0  0  0  0  0  0  0  0  0  0  0  0
  186.4750  176.5810  145.0460 N   0  0  0  0  0  2  0  0  0  0  0  0
  185.5150  177.5470  145.4060 N   0  0  0  0  0  0  0  0  0  0  0  0
  185.8420  176.9650  147.7940 N   0  0  0  0  0  1  0  0  0  0  0  0
  184.3160  178.5800  147.1370 O   0  0  0  0  0  0  0  0  0  0  0  0
  185.1890  177.7390  146.7930 C   0  0  0  0  0  0  0  0  0  0  0  0
  184.8350  178.3530  144.3850 C   0  0  0  0  0  3  0  0  0  0  0  0
  185.5200  179.6990  144.2300 C   0  0  0  0  0  1  0  0  0  0  0  0
  184.7790  177.6410  143.0420 C   0  0  0  0  0  1  0  0  0  0  0  0
  190.1360  174.9800  146.9490 C   0  0  0  0  0  2  0  0  0  0  0  0
  190.7330  176.2350  147.5750 C   0  0  0  0  0  2  0  0  0  0  0  0
  192.2410  176.3050  147.3750 C   0  0  0  0  0  2  0  0  0  0  0  0
  192.7330  175.1980  146.4560 C   0  0  0  0  0  2  0  0  0  0  0  0
  193.2230  176.5840  144.5190 N   0  0  0  0  0  2  0  0  0  0  0  0
  193.8260  175.7230  145.5450 C   0  0  2  0  0  3  0  0  0  0  0  0
  193.6260  175.2080  144.1930 C   0  0  2  0  0  3  0  0  0  0  0  0
  194.9550  175.1520  143.4030 C   0  0  1  0  0  3  0  0  0  0  0  0
  195.2010  175.0000  140.4110 C   0  0  0  0  0  2  0  0  0  0  0  0
  195.1460  176.3270  142.5070 N   0  0  0  0  0  0  0  0  0  0  0  0
  196.4810  175.4850  140.0840 O   0  0  0  0  0  0  0  0  0  0  0  0
  197.1980  175.6160  141.2890 C   0  0  0  0  0  2  0  0  0  0  0  0
  196.5340  176.6940  142.1510 C   0  0  2  0  0  3  0  0  0  0  0  0
  194.4340  176.0390  141.2530 C   0  0  0  0  0  2  0  0  0  0  0  0
  197.3000  177.0290  143.2710 O   0  0  0  0  0  1  0  0  0  0  0  0
  196.1460  173.4470  144.8410 C   0  0  1  0  0  0  0  0  0  0  0  0
  196.1100  174.8560  144.3730 C   0  0  1  0  0  3  0  0  0  0  0  0
  196.9780  173.8960  143.8040 O   0  0  0  0  0  0  0  0  0  0  0  0
  196.9360  173.0840  146.0800 C   0  0  0  0  0  1  0  0  0  0  0  0
  195.1960  172.5380  144.3680 O   0  0  0  0  0  1  0  0  0  0  0  0
  189.6510  175.6050  142.0040 C   0  0  0  0  0  2  0  0  0  0  0  0
  188.5970  174.8830  141.1810 C   0  0  0  0  0  2  0  0  0  0  0  0
  189.2570  174.0720  140.0750 C   0  0  2  0  0  3  0  0  0  0  0  0
  188.3910  174.0720  138.8270 C   0  0  0  0  0  1  0  0  0  0  0  0
  189.0920  171.4520  139.5280 O   0  0  0  0  0  0  0  0  0  0  0  0
  188.7230  172.1250  141.8540 O   0  0  0  0  0  0  0  0  0  0  0  0
  189.5290  172.3950  140.6150 S   0  0  0  0  0  0  0  0  0  0  0  0
  192.1040  173.1430  140.2540 C   0  0  0  0  0  2  0  0  0  0  0  0
  192.9250  172.3180  139.3000 C   0  0  1  0  0  3  0  0  0  0  0  0
  191.6660  170.8100  140.4910 N   0  0  0  0  0  2  0  0  0  0  0  0
  191.2600  172.1270  140.9730 C   0  0  2  0  0  3  0  0  0  0  0  0
  192.3000  171.0020  139.2510 N   0  0  0  0  0  2  0  0  0  0  0  0
  192.4080  174.3070  137.9730 N   0  0  0  0  0  2  0  0  0  0  0  0
  192.9410  172.9600  137.9140 C   0  0  2  0  0  3  0  0  0  0  0  0
  191.6040  174.4530  136.8310 N   0  0  0  0  0  2  0  0  0  0  0  0
  192.0240  172.2180  136.9870 C   0  0  0  0  0  2  0  0  0  0  0  0
  191.0440  173.1920  136.5500 N   0  0  0  0  0  2  0  0  0  0  0  0
  1  6  1  0  0  0  0
  2  1  2  0  0  0  0
  2  7  1  0  0  0  0
  3  7  2  0  0  0  0
  4  5  1  0  0  0  0
  4 16  1  1  0  0  0
  6  8  1  1  0  0  0
  6  5  1  0  0  0  0
  7  4  1  0  0  0  0
  8  9  1  0  0  0  0
  9 12  1  0  0  0  0
 12 11  2  0  0  0  0
 12 10  1  0  0  0  0
 13  9  1  0  0  0  0
 14 13  1  0  0  0  0
 15 13  1  0  0  0  0
 16 17  1  0  0  0  0
 18 17  1  0  0  0  0
 19 18  1  0  0  0  0
 20 21  1  0  0  0  0
 21 19  1  1  0  0  0
 22 23  1  6  0  0  0
 22 20  1  0  0  0  0
 22 21  1  0  0  0  0
 23 25  1  1  0  0  0
 24 29  1  0  0  0  0
 26 24  1  0  0  0  0
 26 27  1  0  0  0  0
 27 28  1  0  0  0  0
 28 25  1  0  0  0  0
 28 30  1  1  0  0  0
 29 25  1  0  0  0  0
 31 34  1  1  0  0  0
 32 23  1  6  0  0  0
 32 31  1  0  0  0  0
 33 32  1  0  0  0  0
 33 31  1  0  0  0  0
 35 31  1  0  0  0  0
 36  2  1  0  0  0  0
 37 36  1  0  0  0  0
 38 39  1  6  0  0  0
 38 42  1  0  0  0  0
 38 37  1  0  0  0  0
 40 42  2  0  0  0  0
 42 41  2  0  0  0  0
 43 46  1  0  0  0  0
 44 43  1  1  0  0  0
 45 46  1  0  0  0  0
 46 42  1  6  0  0  0
 47 44  1  0  0  0  0
 47 45  1  0  0  0  0
 49 51  1  6  0  0  0
 49 48  1  0  0  0  0
 49 44  1  0  0  0  0
 50 48  1  0  0  0  0
 52 50  1  0  0  0  0
 52 51  1  0  0  0  0
M  END
>  <MODEL>
2

>  <REMARK>
 VINA RESULT:      -7.0      1.452      1.819
  Name = 
  17 active torsions:
  status: ('A' for Active; 'I' for Inactive)
    1  A    between atoms: N_2  and  C_45
    2  A    between atoms: C_3  and  C_10
    3  A    between atoms: C_3  and  C_51
    4  A    between atoms: C_7  and  N_18
    5  A    between atoms: C_9  and  C_12
    6  A    between atoms: C_9  and  C_39
    7  A    between atoms: C_11  and  C_32
    8  A    between atoms: C_12  and  C_17
    9  A    between atoms: N_18  and  N_48
   10  A    between atoms: C_25  and  C_45
   11  A    between atoms: C_26  and  S_30
   12  A    between atoms: C_26  and  C_51
   13  A    between atoms: S_30  and  C_36
   14  A    between atoms: C_35  and  C_52
   15  A    between atoms: C_39  and  C_52
   16  A    between atoms: C_40  and  C_45
   17  A    between atoms: C_42  and  N_48
                            x       y       z     vdW  Elec       q    Type
                         _______ _______ _______ _____ _____    ______ ____

>  <TORSDO>
F 17

$$$$
=
 OpenBabel11042416003D

 52 57  0  0  1  0  0  0  0  0999 V2000
  188.8010  176.3330  143.4750 C   0  0  0  0  0  3  0  0  0  0  0  0
  189.3270  175.1250  143.7190 C   0  0  0  0  0  0  0  0  0  0  0  0
  189.7590  173.4040  145.2940 O   0  0  0  0  0  0  0  0  0  0  0  0
  188.7780  175.3810  146.2410 C   0  0  1  0  0  3  0  0  0  0  0  0
  188.7620  176.8750  145.9080 C   0  0  0  0  0  2  0  0  0  0  0  0
  188.1170  177.1340  144.5440 C   0  0  2  0  0  3  0  0  0  0  0  0
  189.3400  174.5760  145.0940 C   0  0  0  0  0  0  0  0  0  0  0  0
  186.7010  176.7910  144.5800 N   0  0  0  0  0  2  0  0  0  0  0  0
  185.9720  177.9740  144.8140 N   0  0  0  0  0  0  0  0  0  0  0  0
  186.5930  178.7890  142.5560 N   0  0  0  0  0  1  0  0  0  0  0  0
  185.2970  180.0640  143.9930 O   0  0  0  0  0  0  0  0  0  0  0  0
  185.9210  178.9880  143.7960 C   0  0  0  0  0  0  0  0  0  0  0  0
  185.2740  178.1910  146.0870 C   0  0  0  0  0  3  0  0  0  0  0  0
  184.8650  176.8630  146.7000 C   0  0  0  0  0  1  0  0  0  0  0  0
  186.1210  178.9800  147.0740 C   0  0  0  0  0  1  0  0  0  0  0  0
  189.5770  175.1540  147.5180 C   0  0  0  0  0  2  0  0  0  0  0  0
  190.7220  176.1520  147.6380 C   0  0  0  0  0  2  0  0  0  0  0  0
  192.0440  175.5560  147.1730 C   0  0  0  0  0  2  0  0  0  0  0  0
  192.6440  176.3560  146.0280 C   0  0  0  0  0  2  0  0  0  0  0  0
  194.8200  176.9600  145.1250 N   0  0  0  0  0  2  0  0  0  0  0  0
  194.0470  175.8660  145.7270 C   0  0  2  0  0  3  0  0  0  0  0  0
  194.2740  175.8840  144.2840 C   0  0  2  0  0  3  0  0  0  0  0  0
  195.3520  174.8570  143.8650 C   0  0  1  0  0  3  0  0  0  0  0  0
  197.9410  173.5210  144.6050 C   0  0  0  0  0  2  0  0  0  0  0  0
  195.4790  173.7240  144.8230 N   0  0  0  0  0  0  0  0  0  0  0  0
  197.8400  172.1810  144.1880 O   0  0  0  0  0  0  0  0  0  0  0  0
  196.6810  172.0770  143.3940 C   0  0  0  0  0  2  0  0  0  0  0  0
  195.4520  172.3540  144.2660 C   0  0  2  0  0  3  0  0  0  0  0  0
  196.7600  173.8870  145.5250 C   0  0  0  0  0  2  0  0  0  0  0  0
  194.2540  172.0710  143.6050 O   0  0  0  0  0  1  0  0  0  0  0  0
  195.5460  175.5250  141.4330 C   0  0  1  0  0  0  0  0  0  0  0  0
  195.1370  174.4680  142.3930 C   0  0  1  0  0  3  0  0  0  0  0  0
  196.3800  174.4340  141.7200 O   0  0  0  0  0  0  0  0  0  0  0  0
  195.0390  175.4860  140.0080 C   0  0  0  0  0  1  0  0  0  0  0  0
  196.0940  176.7180  141.9120 O   0  0  0  0  0  1  0  0  0  0  0  0
  189.9330  174.3680  142.5850 C   0  0  0  0  0  2  0  0  0  0  0  0
  189.2980  174.7790  141.2670 C   0  0  0  0  0  2  0  0  0  0  0  0
  188.5810  173.5940  140.6360 C   0  0  2  0  0  3  0  0  0  0  0  0
  188.0580  172.6560  141.7110 C   0  0  0  0  0  1  0  0  0  0  0  0
  190.7400  173.6500  139.0480 O   0  0  0  0  0  0  0  0  0  0  0  0
  188.9140  172.1590  138.3860 O   0  0  0  0  0  0  0  0  0  0  0  0
  189.6840  172.7070  139.5540 S   0  0  0  0  0  0  0  0  0  0  0  0
  191.7470  171.8140  141.0590 C   0  0  0  0  0  2  0  0  0  0  0  0
  192.8040  171.0060  140.3550 C   0  0  1  0  0  3  0  0  0  0  0  0
  190.8010  170.2900  139.4870 N   0  0  0  0  0  2  0  0  0  0  0  0
  190.4630  171.3550  140.4270 C   0  0  2  0  0  3  0  0  0  0  0  0
  192.1660  170.4320  139.1780 N   0  0  0  0  0  2  0  0  0  0  0  0
  193.8650  172.2850  138.5590 N   0  0  0  0  0  2  0  0  0  0  0  0
  193.9780  171.8970  139.9520 C   0  0  2  0  0  3  0  0  0  0  0  0
  195.1640  172.2030  138.0300 N   0  0  0  0  0  2  0  0  0  0  0  0
  195.2660  171.1310  140.0400 C   0  0  0  0  0  2  0  0  0  0  0  0
  195.8230  171.1560  138.7030 N   0  0  0  0  0  2  0  0  0  0  0  0
  1  2  2  0  0  0  0
  1  6  1  0  0  0  0
  2  7  1  0  0  0  0
  4 16  1  1  0  0  0
  5  4  1  0  0  0  0
  6  8  1  1  0  0  0
  6  5  1  0  0  0  0
  7  3  2  0  0  0  0
  7  4  1  0  0  0  0
  8  9  1  0  0  0  0
  9 13  1  0  0  0  0
 10 12  1  0  0  0  0
 12 11  2  0  0  0  0
 12  9  1  0  0  0  0
 13 14  1  0  0  0  0
 13 15  1  0  0  0  0
 16 17  1  0  0  0  0
 18 17  1  0  0  0  0
 19 18  1  0  0  0  0
 20 21  1  0  0  0  0
 21 19  1  6  0  0  0
 22 23  1  1  0  0  0
 22 20  1  0  0  0  0
 22 21  1  0  0  0  0
 23 25  1  1  0  0  0
 24 29  1  0  0  0  0
 25 29  1  0  0  0  0
 26 24  1  0  0  0  0
 27 26  1  0  0  0  0
 27 28  1  0  0  0  0
 28 30  1  6  0  0  0
 28 25  1  0  0  0  0
 31 34  1  6  0  0  0
 31 33  1  0  0  0  0
 31 35  1  0  0  0  0
 31 32  1  0  0  0  0
 32 23  1  1  0  0  0
 33 32  1  0  0  0  0
 36  2  1  0  0  0  0
 37 36  1  0  0  0  0
 38 37  1  0  0  0  0
 38 39  1  1  0  0  0
 40 42  2  0  0  0  0
 41 42  2  0  0  0  0
 42 38  1  0  0  0  0
 44 43  1  6  0  0  0
 45 46  1  0  0  0  0
 46 42  1  6  0  0  0
 46 43  1  0  0  0  0
 47 45  1  0  0  0  0
 47 44  1  0  0  0  0
 48 49  1  0  0  0  0
 49 51  1  6  0  0  0
 49 44  1  0  0  0  0
 50 48  1  0  0  0  0
 50 52  1  0  0  0  0
 52 51  1  0  0  0  0
M  END
>  <MODEL>
3

>  <REMARK>
 VINA RESULT:      -6.7      1.706      3.195
  Name = 
  17 active torsions:
  status: ('A' for Active; 'I' for Inactive)
    1  A    between atoms: N_2  and  C_45
    2  A    between atoms: C_3  and  C_10
    3  A    between atoms: C_3  and  C_51
    4  A    between atoms: C_7  and  N_18
    5  A    between atoms: C_9  and  C_12
    6  A    between atoms: C_9  and  C_39
    7  A    between atoms: C_11  and  C_32
    8  A    between atoms: C_12  and  C_17
    9  A    between atoms: N_18  and  N_48
   10  A    between atoms: C_25  and  C_45
   11  A    between atoms: C_26  and  S_30
   12  A    between atoms: C_26  and  C_51
   13  A    between atoms: S_30  and  C_36
   14  A    between atoms: C_35  and  C_52
   15  A    between atoms: C_39  and  C_52
   16  A    between atoms: C_40  and  C_45
   17  A    between atoms: C_42  and  N_48
                            x       y       z     vdW  Elec       q    Type
                         _______ _______ _______ _____ _____    ______ ____

>  <TORSDO>
F 17

$$$$
=
 OpenBabel11042416003D

 52 57  0  0  1  0  0  0  0  0999 V2000
  189.4000  173.5960  140.9880 C   0  0  0  0  0  3  0  0  0  0  0  0
  189.9470  174.0540  142.1220 C   0  0  0  0  0  0  0  0  0  0  0  0
  191.4930  173.7080  143.8880 O   0  0  0  0  0  0  0  0  0  0  0  0
  191.2970  171.8540  142.3760 C   0  0  1  0  0  3  0  0  0  0  0  0
  190.2110  171.2860  141.4590 C   0  0  0  0  0  2  0  0  0  0  0  0
  189.8170  172.2920  140.3740 C   0  0  2  0  0  3  0  0  0  0  0  0
  190.9230  173.2300  142.8720 C   0  0  0  0  0  0  0  0  0  0  0  0
  190.9320  172.5150  139.4620 N   0  0  0  0  0  2  0  0  0  0  0  0
  190.6090  171.9220  138.2250 N   0  0  0  0  0  0  0  0  0  0  0  0
  189.4010  173.9860  137.5670 N   0  0  0  0  0  1  0  0  0  0  0  0
  189.5080  172.1430  136.1660 O   0  0  0  0  0  0  0  0  0  0  0  0
  189.8300  172.6610  137.2690 C   0  0  0  0  0  0  0  0  0  0  0  0
  191.0450  170.5590  137.9050 C   0  0  0  0  0  3  0  0  0  0  0  0
  192.3180  170.2180  138.6600 C   0  0  0  0  0  1  0  0  0  0  0  0
  189.9690  169.5290  138.2100 C   0  0  0  0  0  1  0  0  0  0  0  0
  191.5330  170.8950  143.5360 C   0  0  0  0  0  2  0  0  0  0  0  0
  192.9870  170.4400  143.5900 C   0  0  0  0  0  2  0  0  0  0  0  0
  193.7390  171.0830  144.7480 C   0  0  0  0  0  2  0  0  0  0  0  0
  195.2400  170.8760  144.6210 C   0  0  0  0  0  2  0  0  0  0  0  0
  196.1300  172.8110  145.7940 N   0  0  0  0  0  2  0  0  0  0  0  0
  195.9410  172.2120  144.4660 C   0  0  2  0  0  3  0  0  0  0  0  0
  195.0540  173.2840  144.9100 C   0  0  2  0  0  3  0  0  0  0  0  0
  195.3980  174.6280  144.2260 C   0  0  1  0  0  3  0  0  0  0  0  0
  196.9570  176.7770  142.8150 C   0  0  0  0  0  2  0  0  0  0  0  0
  196.0960  174.4520  142.9220 N   0  0  0  0  0  0  0  0  0  0  0  0
  196.3090  177.0090  141.5890 O   0  0  0  0  0  0  0  0  0  0  0  0
  195.0800  176.3220  141.6290 C   0  0  0  0  0  2  0  0  0  0  0  0
  195.3520  174.8160  141.6960 C   0  0  2  0  0  3  0  0  0  0  0  0
  197.3090  175.2830  142.9610 C   0  0  0  0  0  2  0  0  0  0  0  0
  194.1910  174.0560  141.5330 O   0  0  0  0  0  1  0  0  0  0  0  0
  193.7630  176.0440  145.5360 C   0  0  1  0  0  0  0  0  0  0  0  0
  194.1460  175.5200  144.2000 C   0  0  1  0  0  3  0  0  0  0  0  0
  194.4820  176.8270  144.6200 O   0  0  0  0  0  0  0  0  0  0  0  0
  192.3670  176.5820  145.7620 C   0  0  0  0  0  1  0  0  0  0  0  0
  194.5440  175.7290  146.6510 O   0  0  0  0  0  1  0  0  0  0  0  0
  189.5220  175.3910  142.6300 C   0  0  0  0  0  2  0  0  0  0  0  0
  188.1910  175.2890  143.3560 C   0  0  0  0  0  2  0  0  0  0  0  0
  187.8290  176.6290  143.9810 C   0  0  2  0  0  3  0  0  0  0  0  0
  188.6130  177.7520  143.3230 C   0  0  0  0  0  1  0  0  0  0  0  0
  188.9660  177.8310  146.0910 O   0  0  0  0  0  0  0  0  0  0  0  0
  188.9650  175.3820  146.0760 O   0  0  0  0  0  0  0  0  0  0  0  0
  188.1690  176.6080  145.7300 S   0  0  0  0  0  0  0  0  0  0  0  0
  185.4640  176.6750  145.7340 C   0  0  0  0  0  2  0  0  0  0  0  0
  184.8160  177.9870  146.0840 C   0  0  1  0  0  3  0  0  0  0  0  0
  186.5870  177.7680  147.5310 N   0  0  0  0  0  2  0  0  0  0  0  0
  186.6440  176.5960  146.6630 C   0  0  2  0  0  3  0  0  0  0  0  0
  185.7880  178.7260  146.8810 N   0  0  0  0  0  2  0  0  0  0  0  0
  184.4940  177.8880  143.6610 N   0  0  0  0  0  2  0  0  0  0  0  0
  184.4570  178.7620  144.8180 C   0  0  2  0  0  3  0  0  0  0  0  0
  185.0940  178.6350  142.6340 N   0  0  0  0  0  2  0  0  0  0  0  0
  185.4880  179.8170  144.5430 C   0  0  0  0  0  2  0  0  0  0  0  0
  186.0280  179.5010  143.2360 N   0  0  0  0  0  2  0  0  0  0  0  0
  1  2  2  0  0  0  0
  2 36  1  0  0  0  0
  2  7  1  0  0  0  0
  4  7  1  0  0  0  0
  4 16  1  1  0  0  0
  5  4  1  0  0  0  0
  6  8  1  6  0  0  0
  6  1  1  0  0  0  0
  6  5  1  0  0  0  0
  7  3  2  0  0  0  0
  9  8  1  0  0  0  0
 11 12  2  0  0  0  0
 12 10  1  0  0  0  0
 12  9  1  0  0  0  0
 13 15  1  0  0  0  0
 13  9  1  0  0  0  0
 13 14  1  0  0  0  0
 16 17  1  0  0  0  0
 17 18  1  0  0  0  0
 19 18  1  0  0  0  0
 21 19  1  1  0  0  0
 21 22  1  0  0  0  0
 21 20  1  0  0  0  0
 22 23  1  6  0  0  0
 22 20  1  0  0  0  0
 23 25  1  6  0  0  0
 24 29  1  0  0  0  0
 25 29  1  0  0  0  0
 26 27  1  0  0  0  0
 26 24  1  0  0  0  0
 27 28  1  0  0  0  0
 28 30  1  1  0  0  0
 28 25  1  0  0  0  0
 31 34  1  1  0  0  0
 31 35  1  0  0  0  0
 32 23  1  1  0  0  0
 32 33  1  0  0  0  0
 32 31  1  0  0  0  0
 33 31  1  0  0  0  0
 36 37  1  0  0  0  0
 37 38  1  0  0  0  0
 38 39  1  6  0  0  0
 38 42  1  0  0  0  0
 42 41  2  0  0  0  0
 42 40  2  0  0  0  0
 43 46  1  0  0  0  0
 44 43  1  6  0  0  0
 44 47  1  0  0  0  0
 46 42  1  6  0  0  0
 46 45  1  0  0  0  0
 47 45  1  0  0  0  0
 48 49  1  0  0  0  0
 49 51  1  6  0  0  0
 49 44  1  0  0  0  0
 50 52  1  0  0  0  0
 50 48  1  0  0  0  0
 52 51  1  0  0  0  0
M  END
>  <MODEL>
4

>  <REMARK>
 VINA RESULT:      -6.6      2.540      7.846
  Name = 
  17 active torsions:
  status: ('A' for Active; 'I' for Inactive)
    1  A    between atoms: N_2  and  C_45
    2  A    between atoms: C_3  and  C_10
    3  A    between atoms: C_3  and  C_51
    4  A    between atoms: C_7  and  N_18
    5  A    between atoms: C_9  and  C_12
    6  A    between atoms: C_9  and  C_39
    7  A    between atoms: C_11  and  C_32
    8  A    between atoms: C_12  and  C_17
    9  A    between atoms: N_18  and  N_48
   10  A    between atoms: C_25  and  C_45
   11  A    between atoms: C_26  and  S_30
   12  A    between atoms: C_26  and  C_51
   13  A    between atoms: S_30  and  C_36
   14  A    between atoms: C_35  and  C_52
   15  A    between atoms: C_39  and  C_52
   16  A    between atoms: C_40  and  C_45
   17  A    between atoms: C_42  and  N_48
                            x       y       z     vdW  Elec       q    Type
                         _______ _______ _______ _____ _____    ______ ____

>  <TORSDO>
F 17

$$$$
=
 OpenBabel11042416003D

 52 57  0  0  1  0  0  0  0  0999 V2000
  188.2000  176.6100  142.9090 C   0  0  0  0  0  3  0  0  0  0  0  0
  189.0170  175.5530  143.0220 C   0  0  0  0  0  0  0  0  0  0  0  0
  190.0340  173.9440  144.4380 O   0  0  0  0  0  0  0  0  0  0  0  0
  188.7590  175.6120  145.6030 C   0  0  1  0  0  3  0  0  0  0  0  0
  188.3580  177.0690  145.3550 C   0  0  0  0  0  2  0  0  0  0  0  0
  187.4980  177.2030  144.0950 C   0  0  2  0  0  3  0  0  0  0  0  0
  189.3350  174.9890  144.3540 C   0  0  0  0  0  0  0  0  0  0  0  0
  186.2150  176.5360  144.2860 N   0  0  0  0  0  2  0  0  0  0  0  0
  185.2350  177.5290  144.4890 N   0  0  0  0  0  0  0  0  0  0  0  0
  184.9960  177.7770  142.0330 N   0  0  0  0  0  1  0  0  0  0  0  0
  183.7620  179.0690  143.5090 O   0  0  0  0  0  0  0  0  0  0  0  0
  184.6230  178.1620  143.3520 C   0  0  0  0  0  0  0  0  0  0  0  0
  184.8400  177.9340  145.8430 C   0  0  0  0  0  3  0  0  0  0  0  0
  185.1000  176.8090  146.8290 C   0  0  0  0  0  1  0  0  0  0  0  0
  185.5590  179.1960  146.2930 C   0  0  0  0  0  1  0  0  0  0  0  0
  189.7500  175.5490  146.7590 C   0  0  0  0  0  2  0  0  0  0  0  0
  190.6770  176.7590  146.7600 C   0  0  0  0  0  2  0  0  0  0  0  0
  192.1390  176.3520  146.8830 C   0  0  0  0  0  2  0  0  0  0  0  0
  192.8500  176.4170  145.5410 C   0  0  0  0  0  2  0  0  0  0  0  0
  193.5690  174.1730  146.1390 N   0  0  0  0  0  2  0  0  0  0  0  0
  193.1200  175.0170  145.0250 C   0  0  2  0  0  3  0  0  0  0  0  0
  194.5400  174.7060  145.1720 C   0  0  2  0  0  3  0  0  0  0  0  0
  194.9980  173.6410  144.1470 C   0  0  1  0  0  3  0  0  0  0  0  0
  195.9350  176.4780  143.8110 C   0  0  0  0  0  2  0  0  0  0  0  0
  196.2160  174.0490  143.3930 N   0  0  0  0  0  0  0  0  0  0  0  0
  195.8970  176.7570  142.4330 O   0  0  0  0  0  0  0  0  0  0  0  0
  195.2200  175.6910  141.8090 C   0  0  0  0  0  2  0  0  0  0  0  0
  196.0470  174.4120  141.9690 C   0  0  2  0  0  3  0  0  0  0  0  0
  196.7830  175.2190  144.0790 C   0  0  0  0  0  2  0  0  0  0  0  0
  195.5480  173.3540  141.2050 O   0  0  0  0  0  1  0  0  0  0  0  0
  194.1870  171.2460  144.2120 C   0  0  1  0  0  0  0  0  0  0  0  0
  195.0650  172.2690  144.8370 C   0  0  1  0  0  3  0  0  0  0  0  0
  195.5610  171.3030  143.9320 O   0  0  0  0  0  0  0  0  0  0  0  0
  193.8200  169.9970  144.9830 C   0  0  0  0  0  1  0  0  0  0  0  0
  193.4290  171.5820  143.0880 O   0  0  0  0  0  1  0  0  0  0  0  0
  189.6250  174.9860  141.7840 C   0  0  0  0  0  2  0  0  0  0  0  0
  188.6920  173.9710  141.1450 C   0  0  0  0  0  2  0  0  0  0  0  0
  189.2950  173.4430  139.8510 C   0  0  2  0  0  3  0  0  0  0  0  0
  188.1990  173.0310  138.8830 C   0  0  0  0  0  1  0  0  0  0  0  0
  190.1080  170.9860  139.1500 O   0  0  0  0  0  0  0  0  0  0  0  0
  190.0410  171.4910  141.5450 O   0  0  0  0  0  0  0  0  0  0  0  0
  190.3530  172.0480  140.1850 S   0  0  0  0  0  0  0  0  0  0  0  0
  192.2490  173.7190  139.2170 C   0  0  0  0  0  2  0  0  0  0  0  0
  193.1270  173.1870  138.1160 C   0  0  1  0  0  3  0  0  0  0  0  0
  192.8830  171.4520  139.6020 N   0  0  0  0  0  2  0  0  0  0  0  0
  192.0710  172.5420  140.1360 C   0  0  2  0  0  3  0  0  0  0  0  0
  193.1120  171.7360  138.2440 N   0  0  0  0  0  2  0  0  0  0  0  0
  192.4140  175.0530  136.7030 N   0  0  0  0  0  2  0  0  0  0  0  0
  192.5910  173.6150  136.7510 C   0  0  2  0  0  3  0  0  0  0  0  0
  191.2010  175.2690  136.0270 N   0  0  0  0  0  2  0  0  0  0  0  0
  191.2200  173.0450  136.5280 C   0  0  0  0  0  2  0  0  0  0  0  0
  190.3520  174.1890  136.3370 N   0  0  0  0  0  2  0  0  0  0  0  0
  1  2  2  0  0  0  0
  1  6  1  0  0  0  0
  2  7  1  0  0  0  0
  4 16  1  1  0  0  0
  5  4  1  0  0  0  0
  6  8  1  1  0  0  0
  6  5  1  0  0  0  0
  7  3  2  0  0  0  0
  7  4  1  0  0  0  0
  8  9  1  0  0  0  0
  9 13  1  0  0  0  0
 10 12  1  0  0  0  0
 12 11  2  0  0  0  0
 12  9  1  0  0  0  0
 13 15  1  0  0  0  0
 13 14  1  0  0  0  0
 16 17  1  0  0  0  0
 17 18  1  0  0  0  0
 19 18  1  0  0  0  0
 21 22  1  0  0  0  0
 21 19  1  1  0  0  0
 21 20  1  0  0  0  0
 22 23  1  6  0  0  0
 22 20  1  0  0  0  0
 23 25  1  1  0  0  0
 24 29  1  0  0  0  0
 25 29  1  0  0  0  0
 26 24  1  0  0  0  0
 27 28  1  0  0  0  0
 27 26  1  0  0  0  0
 28 30  1  6  0  0  0
 28 25  1  0  0  0  0
 31 32  1  0  0  0  0
 31 34  1  1  0  0  0
 32 23  1  6  0  0  0
 33 31  1  0  0  0  0
 33 32  1  0  0  0  0
 35 31  1  0  0  0  0
 36  2  1  0  0  0  0
 37 36  1  0  0  0  0
 38 39  1  6  0  0  0
 38 42  1  0  0  0  0
 38 37  1  0  0  0  0
 40 42  2  0  0  0  0
 42 41  2  0  0  0  0
 43 46  1  0  0  0  0
 44 47  1  0  0  0  0
 44 43  1  1  0  0  0
 45 46  1  0  0  0  0
 46 42  1  6  0  0  0
 47 45  1  0  0  0  0
 48 49  1  0  0  0  0
 49 51  1  1  0  0  0
 49 44  1  0  0  0  0
 50 52  1  0  0  0  0
 50 48  1  0  0  0  0
 52 51  1  0  0  0  0
M  END
>  <MODEL>
5

>  <REMARK>
 VINA RESULT:      -6.6      2.349      3.093
  Name = 
  17 active torsions:
  status: ('A' for Active; 'I' for Inactive)
    1  A    between atoms: N_2  and  C_45
    2  A    between atoms: C_3  and  C_10
    3  A    between atoms: C_3  and  C_51
    4  A    between atoms: C_7  and  N_18
    5  A    between atoms: C_9  and  C_12
    6  A    between atoms: C_9  and  C_39
    7  A    between atoms: C_11  and  C_32
    8  A    between atoms: C_12  and  C_17
    9  A    between atoms: N_18  and  N_48
   10  A    between atoms: C_25  and  C_45
   11  A    between atoms: C_26  and  S_30
   12  A    between atoms: C_26  and  C_51
   13  A    between atoms: S_30  and  C_36
   14  A    between atoms: C_35  and  C_52
   15  A    between atoms: C_39  and  C_52
   16  A    between atoms: C_40  and  C_45
   17  A    between atoms: C_42  and  N_48
                            x       y       z     vdW  Elec       q    Type
                         _______ _______ _______ _____ _____    ______ ____

>  <TORSDO>
F 17

$$$$
=
 OpenBabel11042416003D

 52 57  0  0  1  0  0  0  0  0999 V2000
  190.1950  171.1600  141.6320 C   0  0  0  0  0  3  0  0  0  0  0  0
  190.3640  171.6710  142.8590 C   0  0  0  0  0  0  0  0  0  0  0  0
  191.8180  172.0420  144.6970 O   0  0  0  0  0  0  0  0  0  0  0  0
  192.7650  170.6940  142.9500 C   0  0  1  0  0  3  0  0  0  0  0  0
  192.2310  169.7430  141.8750 C   0  0  0  0  0  2  0  0  0  0  0  0
  191.3070  170.4710  140.8960 C   0  0  2  0  0  3  0  0  0  0  0  0
  191.6430  171.4830  143.5810 C   0  0  0  0  0  0  0  0  0  0  0  0
  192.0600  171.4510  140.1230 N   0  0  0  0  0  2  0  0  0  0  0  0
  191.9370  171.1160  138.7590 N   0  0  0  0  0  0  0  0  0  0  0  0
  194.0850  169.8820  138.8810 N   0  0  0  0  0  1  0  0  0  0  0  0
  192.8860  170.0390  136.9050 O   0  0  0  0  0  0  0  0  0  0  0  0
  192.9620  170.3300  138.1280 C   0  0  0  0  0  0  0  0  0  0  0  0
  190.7850  171.5700  137.9720 C   0  0  0  0  0  3  0  0  0  0  0  0
  189.6910  170.5160  137.9790 C   0  0  0  0  0  1  0  0  0  0  0  0
  190.2340  172.8930  138.4790 C   0  0  0  0  0  1  0  0  0  0  0  0
  193.5360  169.8970  143.9950 C   0  0  0  0  0  2  0  0  0  0  0  0
  194.9300  170.4740  144.2120 C   0  0  0  0  0  2  0  0  0  0  0  0
  195.1320  170.9450  145.6460 C   0  0  0  0  0  2  0  0  0  0  0  0
  196.5680  171.3800  145.8930 C   0  0  0  0  0  2  0  0  0  0  0  0
  196.8380  173.7330  146.4410 N   0  0  0  0  0  2  0  0  0  0  0  0
  196.7960  172.7710  145.3330 C   0  0  2  0  0  3  0  0  0  0  0  0
  195.6300  173.6070  145.6110 C   0  0  2  0  0  3  0  0  0  0  0  0
  195.4970  174.7560  144.5840 C   0  0  1  0  0  3  0  0  0  0  0  0
  196.8160  176.7880  142.8040 C   0  0  0  0  0  2  0  0  0  0  0  0
  196.1470  174.4470  143.2800 N   0  0  0  0  0  0  0  0  0  0  0  0
  196.0970  176.7960  141.5950 O   0  0  0  0  0  0  0  0  0  0  0  0
  194.9290  176.0340  141.7980 C   0  0  0  0  0  2  0  0  0  0  0  0
  195.3220  174.5780  142.0590 C   0  0  2  0  0  3  0  0  0  0  0  0
  197.2910  175.3600  143.1350 C   0  0  0  0  0  2  0  0  0  0  0  0
  194.2190  173.7200  142.0670 O   0  0  0  0  0  1  0  0  0  0  0  0
  193.5890  176.0000  145.6830 C   0  0  1  0  0  0  0  0  0  0  0  0
  194.0270  175.2020  144.5100 C   0  0  1  0  0  3  0  0  0  0  0  0
  193.9570  176.6140  144.4760 O   0  0  0  0  0  0  0  0  0  0  0  0
  192.1130  176.1660  145.9720 C   0  0  0  0  0  1  0  0  0  0  0  0
  194.5030  176.2950  146.6970 O   0  0  0  0  0  1  0  0  0  0  0  0
  189.2250  172.3960  143.4930 C   0  0  0  0  0  2  0  0  0  0  0  0
  189.5740  173.8590  143.7080 C   0  0  0  0  0  2  0  0  0  0  0  0
  189.7520  174.5600  142.3690 C   0  0  2  0  0  3  0  0  0  0  0  0
  191.0060  175.4180  142.3810 C   0  0  0  0  0  1  0  0  0  0  0  0
  187.1060  174.9360  142.5930 O   0  0  0  0  0  0  0  0  0  0  0  0
  188.1650  175.7040  140.5230 O   0  0  0  0  0  0  0  0  0  0  0  0
  188.3340  175.5790  142.0100 S   0  0  0  0  0  0  0  0  0  0  0  0
  187.8400  177.2980  144.0400 C   0  0  0  0  0  2  0  0  0  0  0  0
  186.7690  178.3310  143.8120 C   0  0  1  0  0  3  0  0  0  0  0  0
  187.9360  178.2060  141.8370 N   0  0  0  0  0  2  0  0  0  0  0  0
  188.5420  177.2090  142.7140 C   0  0  2  0  0  3  0  0  0  0  0  0
  186.6690  178.5080  142.3680 N   0  0  0  0  0  2  0  0  0  0  0  0
  184.6740  178.9830  144.8930 N   0  0  0  0  0  2  0  0  0  0  0  0
  185.4370  177.8580  144.3900 C   0  0  2  0  0  3  0  0  0  0  0  0
  184.1020  178.5520  146.1020 N   0  0  0  0  0  2  0  0  0  0  0  0
  185.6710  176.9800  145.5850 C   0  0  0  0  0  2  0  0  0  0  0  0
  185.0030  177.6410  146.6880 N   0  0  0  0  0  2  0  0  0  0  0  0
  1  2  2  0  0  0  0
  2 36  1  0  0  0  0
  2  7  1  0  0  0  0
  4  7  1  0  0  0  0
  4 16  1  1  0  0  0
  5  4  1  0  0  0  0
  6  8  1  1  0  0  0
  6  1  1  0  0  0  0
  6  5  1  0  0  0  0
  7  3  2  0  0  0  0
  9  8  1  0  0  0  0
 11 12  2  0  0  0  0
 12  9  1  0  0  0  0
 12 10  1  0  0  0  0
 13 14  1  0  0  0  0
 13 15  1  0  0  0  0
 13  9  1  0  0  0  0
 16 17  1  0  0  0  0
 17 18  1  0  0  0  0
 18 19  1  0  0  0  0
 21 22  1  0  0  0  0
 21 19  1  1  0  0  0
 21 20  1  0  0  0  0
 22 23  1  6  0  0  0
 22 20  1  0  0  0  0
 23 25  1  6  0  0  0
 24 29  1  0  0  0  0
 26 27  1  0  0  0  0
 26 24  1  0  0  0  0
 27 28  1  0  0  0  0
 28 30  1  1  0  0  0
 28 25  1  0  0  0  0
 29 25  1  0  0  0  0
 31 34  1  1  0  0  0
 31 35  1  0  0  0  0
 32 23  1  1  0  0  0
 32 31  1  0  0  0  0
 33 32  1  0  0  0  0
 33 31  1  0  0  0  0
 36 37  1  0  0  0  0
 38 39  1  1  0  0  0
 38 37  1  0  0  0  0
 41 42  2  0  0  0  0
 42 38  1  0  0  0  0
 42 40  2  0  0  0  0
 44 43  1  6  0  0  0
 44 49  1  0  0  0  0
 45 47  1  0  0  0  0
 45 46  1  0  0  0  0
 46 42  1  6  0  0  0
 46 43  1  0  0  0  0
 47 44  1  0  0  0  0
 48 50  1  0  0  0  0
 49 48  1  0  0  0  0
 49 51  1  1  0  0  0
 50 52  1  0  0  0  0
 51 52  1  0  0  0  0
M  END
>  <MODEL>
6

>  <REMARK>
 VINA RESULT:      -6.5      2.457      7.845
  Name = 
  17 active torsions:
  status: ('A' for Active; 'I' for Inactive)
    1  A    between atoms: N_2  and  C_45
    2  A    between atoms: C_3  and  C_10
    3  A    between atoms: C_3  and  C_51
    4  A    between atoms: C_7  and  N_18
    5  A    between atoms: C_9  and  C_12
    6  A    between atoms: C_9  and  C_39
    7  A    between atoms: C_11  and  C_32
    8  A    between atoms: C_12  and  C_17
    9  A    between atoms: N_18  and  N_48
   10  A    between atoms: C_25  and  C_45
   11  A    between atoms: C_26  and  S_30
   12  A    between atoms: C_26  and  C_51
   13  A    between atoms: S_30  and  C_36
   14  A    between atoms: C_35  and  C_52
   15  A    between atoms: C_39  and  C_52
   16  A    between atoms: C_40  and  C_45
   17  A    between atoms: C_42  and  N_48
                            x       y       z     vdW  Elec       q    Type
                         _______ _______ _______ _____ _____    ______ ____

>  <TORSDO>
F 17

$$$$
=
 OpenBabel11042416003D

 52 57  0  0  1  0  0  0  0  0999 V2000
  193.9430  173.3740  143.4850 C   0  0  0  0  0  3  0  0  0  0  0  0
  193.3690  174.5130  143.0720 C   0  0  0  0  0  0  0  0  0  0  0  0
  192.8860  176.7930  143.5120 O   0  0  0  0  0  0  0  0  0  0  0  0
  193.9640  175.6480  145.3270 C   0  0  1  0  0  3  0  0  0  0  0  0
  194.0390  174.2050  145.8330 C   0  0  0  0  0  2  0  0  0  0  0  0
  194.6750  173.2810  144.7910 C   0  0  2  0  0  3  0  0  0  0  0  0
  193.3520  175.7070  143.9470 C   0  0  0  0  0  0  0  0  0  0  0  0
  196.0760  173.6330  144.5920 N   0  0  0  0  0  2  0  0  0  0  0  0
  196.7130  172.5430  143.9650 N   0  0  0  0  0  0  0  0  0  0  0  0
  197.0780  173.9350  141.9450 N   0  0  0  0  0  1  0  0  0  0  0  0
  197.7650  171.7240  142.0360 O   0  0  0  0  0  0  0  0  0  0  0  0
  197.2140  172.6910  142.6260 C   0  0  0  0  0  0  0  0  0  0  0  0
  196.8610  171.2570  144.6550 C   0  0  0  0  0  3  0  0  0  0  0  0
  196.7740  171.4490  146.1590 C   0  0  0  0  0  1  0  0  0  0  0  0
  195.8220  170.2440  144.2010 C   0  0  0  0  0  1  0  0  0  0  0  0
  193.1730  176.4930  146.3180 C   0  0  0  0  0  2  0  0  0  0  0  0
  191.9710  175.7300  146.8600 C   0  0  0  0  0  2  0  0  0  0  0  0
  190.7360  176.6160  146.9620 C   0  0  0  0  0  2  0  0  0  0  0  0
  190.1070  176.8550  145.5980 C   0  0  0  0  0  2  0  0  0  0  0  0
  187.9130  176.0710  146.2940 N   0  0  0  0  0  2  0  0  0  0  0  0
  188.6450  177.2250  145.7560 C   0  0  2  0  0  3  0  0  0  0  0  0
  187.8330  176.4030  144.8630 C   0  0  2  0  0  3  0  0  0  0  0  0
  186.5050  177.1050  144.4930 C   0  0  1  0  0  3  0  0  0  0  0  0
  187.9960  176.5060  141.9520 C   0  0  0  0  0  2  0  0  0  0  0  0
  185.8850  176.5580  143.2540 N   0  0  0  0  0  0  0  0  0  0  0  0
  187.4570  177.3440  140.9580 O   0  0  0  0  0  0  0  0  0  0  0  0
  186.6180  178.2730  141.6050 C   0  0  0  0  0  2  0  0  0  0  0  0
  185.4360  177.5270  142.2310 C   0  0  2  0  0  3  0  0  0  0  0  0
  186.8790  175.6800  142.6200 C   0  0  0  0  0  2  0  0  0  0  0  0
  184.4530  178.3950  142.7140 O   0  0  0  0  0  1  0  0  0  0  0  0
  185.3160  178.5350  146.2080 C   0  0  1  0  0  0  0  0  0  0  0  0
  185.5960  177.1560  145.7310 C   0  0  1  0  0  3  0  0  0  0  0  0
  184.3950  177.8330  145.4160 O   0  0  0  0  0  0  0  0  0  0  0  0
  184.7980  178.7560  147.6120 C   0  0  0  0  0  1  0  0  0  0  0  0
  185.8490  179.6250  145.5160 O   0  0  0  0  0  1  0  0  0  0  0  0
  192.7160  174.5360  141.7300 C   0  0  0  0  0  2  0  0  0  0  0  0
  191.7960  173.3390  141.5620 C   0  0  0  0  0  2  0  0  0  0  0  0
  190.3630  173.7230  141.9030 C   0  0  2  0  0  3  0  0  0  0  0  0
  190.2120  173.9310  143.4010 C   0  0  0  0  0  1  0  0  0  0  0  0
  188.1280  172.3160  142.3660 O   0  0  0  0  0  0  0  0  0  0  0  0
  189.9620  171.1470  141.2420 O   0  0  0  0  0  0  0  0  0  0  0  0
  189.2350  172.4560  141.3580 S   0  0  0  0  0  0  0  0  0  0  0  0
  188.9110  171.8450  138.7420 C   0  0  0  0  0  2  0  0  0  0  0  0
  189.7610  172.6010  137.7560 C   0  0  1  0  0  3  0  0  0  0  0  0
  189.0930  174.1540  139.3110 N   0  0  0  0  0  2  0  0  0  0  0  0
  188.5400  172.8820  139.7660 C   0  0  2  0  0  3  0  0  0  0  0  0
  190.1240  173.8550  138.4030 N   0  0  0  0  0  2  0  0  0  0  0  0
  191.2970  170.8220  138.4340 N   0  0  0  0  0  2  0  0  0  0  0  0
  191.0100  171.7960  137.3990 C   0  0  2  0  0  3  0  0  0  0  0  0
  192.6920  170.8410  138.6030 N   0  0  0  0  0  2  0  0  0  0  0  0
  192.2130  172.6930  137.3620 C   0  0  0  0  0  2  0  0  0  0  0  0
  193.1250  172.1580  138.3530 N   0  0  0  0  0  2  0  0  0  0  0  0
  1  6  1  0  0  0  0
  2  1  2  0  0  0  0
  2  7  1  0  0  0  0
  3  7  2  0  0  0  0
  4  5  1  0  0  0  0
  4 16  1  1  0  0  0
  6  8  1  6  0  0  0
  6  5  1  0  0  0  0
  7  4  1  0  0  0  0
  9  8  1  0  0  0  0
  9 13  1  0  0  0  0
 10 12  1  0  0  0  0
 11 12  2  0  0  0  0
 12  9  1  0  0  0  0
 13 14  1  0  0  0  0
 15 13  1  0  0  0  0
 16 17  1  0  0  0  0
 17 18  1  0  0  0  0
 19 18  1  0  0  0  0
 21 19  1  6  0  0  0
 21 20  1  0  0  0  0
 22 23  1  1  0  0  0
 22 21  1  0  0  0  0
 22 20  1  0  0  0  0
 23 25  1  6  0  0  0
 24 29  1  0  0  0  0
 26 27  1  0  0  0  0
 26 24  1  0  0  0  0
 27 28  1  0  0  0  0
 28 30  1  1  0  0  0
 28 25  1  0  0  0  0
 29 25  1  0  0  0  0
 31 34  1  1  0  0  0
 32 23  1  6  0  0  0
 32 31  1  0  0  0  0
 33 32  1  0  0  0  0
 33 31  1  0  0  0  0
 35 31  1  0  0  0  0
 36  2  1  0  0  0  0
 37 36  1  0  0  0  0
 37 38  1  0  0  0  0
 38 39  1  1  0  0  0
 41 42  2  0  0  0  0
 42 38  1  0  0  0  0
 42 40  2  0  0  0  0
 43 46  1  0  0  0  0
 44 47  1  0  0  0  0
 44 43  1  1  0  0  0
 45 46  1  0  0  0  0
 46 42  1  1  0  0  0
 47 45  1  0  0  0  0
 48 50  1  0  0  0  0
 49 51  1  1  0  0  0
 49 44  1  0  0  0  0
 49 48  1  0  0  0  0
 51 52  1  0  0  0  0
 52 50  1  0  0  0  0
M  END
>  <MODEL>
7

>  <REMARK>
 VINA RESULT:      -6.5      2.451      8.219
  Name = 
  17 active torsions:
  status: ('A' for Active; 'I' for Inactive)
    1  A    between atoms: N_2  and  C_45
    2  A    between atoms: C_3  and  C_10
    3  A    between atoms: C_3  and  C_51
    4  A    between atoms: C_7  and  N_18
    5  A    between atoms: C_9  and  C_12
    6  A    between atoms: C_9  and  C_39
    7  A    between atoms: C_11  and  C_32
    8  A    between atoms: C_12  and  C_17
    9  A    between atoms: N_18  and  N_48
   10  A    between atoms: C_25  and  C_45
   11  A    between atoms: C_26  and  S_30
   12  A    between atoms: C_26  and  C_51
   13  A    between atoms: S_30  and  C_36
   14  A    between atoms: C_35  and  C_52
   15  A    between atoms: C_39  and  C_52
   16  A    between atoms: C_40  and  C_45
   17  A    between atoms: C_42  and  N_48
                            x       y       z     vdW  Elec       q    Type
                         _______ _______ _______ _____ _____    ______ ____

>  <TORSDO>
F 17

$$$$
=
 OpenBabel11042416003D

 52 57  0  0  1  0  0  0  0  0999 V2000
  187.4750  175.8030  142.3180 C   0  0  0  0  0  3  0  0  0  0  0  0
  188.3600  174.9290  142.8170 C   0  0  0  0  0  0  0  0  0  0  0  0
  189.6440  174.2130  144.6800 O   0  0  0  0  0  0  0  0  0  0  0  0
  188.4330  176.2540  145.0460 C   0  0  1  0  0  3  0  0  0  0  0  0
  187.9180  177.4040  144.1770 C   0  0  0  0  0  2  0  0  0  0  0  0
  186.8970  176.9110  143.1480 C   0  0  2  0  0  3  0  0  0  0  0  0
  188.8800  175.0900  144.1940 C   0  0  0  0  0  0  0  0  0  0  0  0
  185.6910  176.4400  143.8190 N   0  0  0  0  0  2  0  0  0  0  0  0
  184.9200  177.5670  144.1700 N   0  0  0  0  0  0  0  0  0  0  0  0
  184.4130  177.9500  141.7730 N   0  0  0  0  0  1  0  0  0  0  0  0
  183.6050  179.3600  143.4250 O   0  0  0  0  0  0  0  0  0  0  0  0
  184.2790  178.3350  143.1380 C   0  0  0  0  0  0  0  0  0  0  0  0
  184.7730  177.9730  145.5720 C   0  0  0  0  0  3  0  0  0  0  0  0
  185.1120  176.8170  146.4970 C   0  0  0  0  0  1  0  0  0  0  0  0
  185.6360  179.1790  145.9100 C   0  0  0  0  0  1  0  0  0  0  0  0
  189.5660  176.7560  145.9320 C   0  0  0  0  0  2  0  0  0  0  0  0
  190.5480  177.6130  145.1430 C   0  0  0  0  0  2  0  0  0  0  0  0
  191.9250  176.9680  145.0630 C   0  0  0  0  0  2  0  0  0  0  0  0
  192.3020  176.2940  146.3730 C   0  0  0  0  0  2  0  0  0  0  0  0
  194.5600  177.1570  146.1110 N   0  0  0  0  0  2  0  0  0  0  0  0
  193.7770  175.9430  146.3740 C   0  0  2  0  0  3  0  0  0  0  0  0
  194.3350  176.1700  145.0430 C   0  0  2  0  0  3  0  0  0  0  0  0
  195.5770  175.2830  144.7880 C   0  0  1  0  0  3  0  0  0  0  0  0
  197.8830  173.3770  145.0800 C   0  0  0  0  0  2  0  0  0  0  0  0
  195.5120  173.9770  145.5000 N   0  0  0  0  0  0  0  0  0  0  0  0
  197.5140  172.1900  144.4210 O   0  0  0  0  0  0  0  0  0  0  0  0
  196.3330  172.4610  143.7030 C   0  0  0  0  0  2  0  0  0  0  0  0
  195.2070  172.7750  144.6920 C   0  0  2  0  0  3  0  0  0  0  0  0
  196.8220  173.7590  146.1310 C   0  0  0  0  0  2  0  0  0  0  0  0
  193.9570  172.8530  144.0720 O   0  0  0  0  0  1  0  0  0  0  0  0
  196.4960  176.4260  142.7270 C   0  0  1  0  0  0  0  0  0  0  0  0
  195.8440  175.2090  143.2750 C   0  0  1  0  0  3  0  0  0  0  0  0
  197.2360  175.2740  143.0320 O   0  0  0  0  0  0  0  0  0  0  0  0
  196.4590  176.6940  141.2380 C   0  0  0  0  0  1  0  0  0  0  0  0
  196.8250  177.4780  143.5850 O   0  0  0  0  0  1  0  0  0  0  0  0
  188.8370  173.8190  141.9420 C   0  0  0  0  0  2  0  0  0  0  0  0
  189.8990  174.3160  140.9760 C   0  0  0  0  0  2  0  0  0  0  0  0
  191.2870  173.9710  141.4970 C   0  0  2  0  0  3  0  0  0  0  0  0
  191.9480  175.1980  142.1030 C   0  0  0  0  0  1  0  0  0  0  0  0
  191.6540  173.6540  138.8600 O   0  0  0  0  0  0  0  0  0  0  0  0
  192.4340  171.8450  140.3140 O   0  0  0  0  0  0  0  0  0  0  0  0
  192.3030  173.3350  140.1780 S   0  0  0  0  0  0  0  0  0  0  0  0
  194.1460  174.9520  139.0320 C   0  0  0  0  0  2  0  0  0  0  0  0
  195.2740  174.2820  138.2930 C   0  0  1  0  0  3  0  0  0  0  0  0
  194.9490  173.0260  140.1890 N   0  0  0  0  0  2  0  0  0  0  0  0
  193.9310  174.0730  140.2330 C   0  0  2  0  0  3  0  0  0  0  0  0
  195.4000  172.9450  138.8600 N   0  0  0  0  0  2  0  0  0  0  0  0
  193.7960  175.0070  136.4830 N   0  0  0  0  0  2  0  0  0  0  0  0
  194.9640  174.2070  136.7990 C   0  0  2  0  0  3  0  0  0  0  0  0
  193.0520  174.2530  135.5600 N   0  0  0  0  0  2  0  0  0  0  0  0
  194.5920  172.8050  136.4140 C   0  0  0  0  0  2  0  0  0  0  0  0
  193.2500  172.8940  135.8740 N   0  0  0  0  0  2  0  0  0  0  0  0
  1  2  2  0  0  0  0
  1  6  1  0  0  0  0
  2  7  1  0  0  0  0
  4 16  1  6  0  0  0
  5  4  1  0  0  0  0
  6  8  1  1  0  0  0
  6  5  1  0  0  0  0
  7  3  2  0  0  0  0
  7  4  1  0  0  0  0
  8  9  1  0  0  0  0
  9 13  1  0  0  0  0
 10 12  1  0  0  0  0
 12 11  2  0  0  0  0
 12  9  1  0  0  0  0
 13 15  1  0  0  0  0
 13 14  1  0  0  0  0
 17 16  1  0  0  0  0
 18 17  1  0  0  0  0
 18 19  1  0  0  0  0
 20 21  1  0  0  0  0
 21 19  1  6  0  0  0
 22 23  1  1  0  0  0
 22 20  1  0  0  0  0
 22 21  1  0  0  0  0
 23 25  1  6  0  0  0
 24 29  1  0  0  0  0
 25 29  1  0  0  0  0
 26 24  1  0  0  0  0
 27 26  1  0  0  0  0
 27 28  1  0  0  0  0
 28 30  1  6  0  0  0
 28 25  1  0  0  0  0
 31 34  1  6  0  0  0
 31 33  1  0  0  0  0
 31 32  1  0  0  0  0
 31 35  1  0  0  0  0
 32 23  1  1  0  0  0
 33 32  1  0  0  0  0
 36  2  1  0  0  0  0
 37 38  1  0  0  0  0
 37 36  1  0  0  0  0
 38 39  1  6  0  0  0
 40 42  2  0  0  0  0
 42 41  2  0  0  0  0
 42 38  1  0  0  0  0
 43 46  1  0  0  0  0
 44 47  1  0  0  0  0
 44 43  1  1  0  0  0
 45 46  1  0  0  0  0
 46 42  1  6  0  0  0
 47 45  1  0  0  0  0
 48 49  1  0  0  0  0
 49 51  1  1  0  0  0
 49 44  1  0  0  0  0
 50 52  1  0  0  0  0
 50 48  1  0  0  0  0
 52 51  1  0  0  0  0
M  END
>  <MODEL>
8

>  <REMARK>
 VINA RESULT:      -6.5      2.520      3.841
  Name = 
  17 active torsions:
  status: ('A' for Active; 'I' for Inactive)
    1  A    between atoms: N_2  and  C_45
    2  A    between atoms: C_3  and  C_10
    3  A    between atoms: C_3  and  C_51
    4  A    between atoms: C_7  and  N_18
    5  A    between atoms: C_9  and  C_12
    6  A    between atoms: C_9  and  C_39
    7  A    between atoms: C_11  and  C_32
    8  A    between atoms: C_12  and  C_17
    9  A    between atoms: N_18  and  N_48
   10  A    between atoms: C_25  and  C_45
   11  A    between atoms: C_26  and  S_30
   12  A    between atoms: C_26  and  C_51
   13  A    between atoms: S_30  and  C_36
   14  A    between atoms: C_35  and  C_52
   15  A    between atoms: C_39  and  C_52
   16  A    between atoms: C_40  and  C_45
   17  A    between atoms: C_42  and  N_48
                            x       y       z     vdW  Elec       q    Type
                         _______ _______ _______ _____ _____    ______ ____

>  <TORSDO>
F 17

$$$$
=
 OpenBabel11042416003D

 52 57  0  0  1  0  0  0  0  0999 V2000
  193.7830  174.2630  144.0990 C   0  0  0  0  0  3  0  0  0  0  0  0
  193.0630  175.3400  143.7580 C   0  0  0  0  0  0  0  0  0  0  0  0
  192.0290  177.3630  144.4410 O   0  0  0  0  0  0  0  0  0  0  0  0
  192.9800  176.0890  146.2400 C   0  0  1  0  0  3  0  0  0  0  0  0
  193.2700  174.6110  146.5140 C   0  0  0  0  0  2  0  0  0  0  0  0
  194.2690  174.0420  145.5020 C   0  0  2  0  0  3  0  0  0  0  0  0
  192.6310  176.3120  144.7880 C   0  0  0  0  0  0  0  0  0  0  0  0
  195.5730  174.6700  145.6720 N   0  0  0  0  0  2  0  0  0  0  0  0
  196.4320  174.1640  144.6760 N   0  0  0  0  0  0  0  0  0  0  0  0
  196.4250  176.3790  143.5610 N   0  0  0  0  0  1  0  0  0  0  0  0
  197.6070  174.5850  142.6900 O   0  0  0  0  0  0  0  0  0  0  0  0
  196.8590  175.0230  143.6050 C   0  0  0  0  0  0  0  0  0  0  0  0
  196.8880  172.7690  144.7100 C   0  0  0  0  0  3  0  0  0  0  0  0
  196.8030  172.2190  146.1230 C   0  0  0  0  0  1  0  0  0  0  0  0
  196.0930  171.8870  143.7600 C   0  0  0  0  0  1  0  0  0  0  0  0
  191.8600  176.5650  147.1560 C   0  0  0  0  0  2  0  0  0  0  0  0
  190.8170  175.4730  147.3680 C   0  0  0  0  0  2  0  0  0  0  0  0
  189.4300  175.9220  146.9270 C   0  0  0  0  0  2  0  0  0  0  0  0
  189.0210  175.2620  145.6200 C   0  0  0  0  0  2  0  0  0  0  0  0
  189.0600  177.5890  144.9130 N   0  0  0  0  0  2  0  0  0  0  0  0
  188.4140  176.2900  144.6840 C   0  0  2  0  0  3  0  0  0  0  0  0
  187.7240  177.3150  145.4640 C   0  0  2  0  0  3  0  0  0  0  0  0
  186.5980  177.9910  144.6470 C   0  0  1  0  0  3  0  0  0  0  0  0
  186.0050  178.0130  147.5930 C   0  0  0  0  0  2  0  0  0  0  0  0
  185.9510  179.1180  145.3730 N   0  0  0  0  0  0  0  0  0  0  0  0
  184.6080  178.1070  147.7250 O   0  0  0  0  0  0  0  0  0  0  0  0
  184.0530  177.9140  146.4440 C   0  0  0  0  0  2  0  0  0  0  0  0
  184.4810  179.0700  145.5360 C   0  0  2  0  0  3  0  0  0  0  0  0
  186.5390  179.1650  146.7190 C   0  0  0  0  0  2  0  0  0  0  0  0
  183.8090  179.0620  144.3100 O   0  0  0  0  0  1  0  0  0  0  0  0
  186.3310  177.6760  142.1510 C   0  0  1  0  0  0  0  0  0  0  0  0
  187.1190  178.3130  143.2360 C   0  0  1  0  0  3  0  0  0  0  0  0
  186.1310  179.0170  142.5110 O   0  0  0  0  0  0  0  0  0  0  0  0
  186.9250  177.5470  140.7650 C   0  0  0  0  0  1  0  0  0  0  0  0
  185.2180  176.8960  142.4740 O   0  0  0  0  0  1  0  0  0  0  0  0
  192.6750  175.5140  142.3280 C   0  0  0  0  0  2  0  0  0  0  0  0
  192.6630  174.1750  141.6090 C   0  0  0  0  0  2  0  0  0  0  0  0
  191.2660  173.8700  141.0890 C   0  0  2  0  0  3  0  0  0  0  0  0
  190.2280  174.6800  141.8470 C   0  0  0  0  0  1  0  0  0  0  0  0
  189.4870  171.9650  141.7210 O   0  0  0  0  0  0  0  0  0  0  0  0
  191.8310  171.5230  142.2760 O   0  0  0  0  0  0  0  0  0  0  0  0
  190.9080  172.1320  141.2590 S   0  0  0  0  0  0  0  0  0  0  0  0
  191.6800  172.2430  138.6680 C   0  0  0  0  0  2  0  0  0  0  0  0
  190.5880  172.3330  137.6360 C   0  0  1  0  0  3  0  0  0  0  0  0
  189.8350  170.8280  139.2000 N   0  0  0  0  0  2  0  0  0  0  0  0
  191.1270  171.2940  139.6950 C   0  0  2  0  0  3  0  0  0  0  0  0
  189.3930  171.7670  138.2500 N   0  0  0  0  0  2  0  0  0  0  0  0
  188.9630  174.1520  137.4490 N   0  0  0  0  0  2  0  0  0  0  0  0
  190.3490  173.7870  137.2340 C   0  0  2  0  0  3  0  0  0  0  0  0
  188.5930  174.9300  136.3390 N   0  0  0  0  0  2  0  0  0  0  0  0
  190.5750  173.9630  135.7600 C   0  0  0  0  0  2  0  0  0  0  0  0
  189.3160  174.4470  135.2310 N   0  0  0  0  0  2  0  0  0  0  0  0
  1  6  1  0  0  0  0
  2  1  2  0  0  0  0
  2  7  1  0  0  0  0
  3  7  2  0  0  0  0
  4  5  1  0  0  0  0
  4 16  1  1  0  0  0
  6  8  1  6  0  0  0
  6  5  1  0  0  0  0
  7  4  1  0  0  0  0
  9 13  1  0  0  0  0
  9  8  1  0  0  0  0
 10 12  1  0  0  0  0
 11 12  2  0  0  0  0
 12  9  1  0  0  0  0
 13 14  1  0  0  0  0
 15 13  1  0  0  0  0
 16 17  1  0  0  0  0
 18 17  1  0  0  0  0
 19 18  1  0  0  0  0
 20 22  1  0  0  0  0
 21 20  1  0  0  0  0
 21 22  1  0  0  0  0
 21 19  1  1  0  0  0
 22 23  1  6  0  0  0
 23 25  1  1  0  0  0
 24 26  1  0  0  0  0
 25 28  1  0  0  0  0
 25 29  1  0  0  0  0
 27 26  1  0  0  0  0
 28 30  1  6  0  0  0
 28 27  1  0  0  0  0
 29 24  1  0  0  0  0
 31 34  1  6  0  0  0
 31 35  1  0  0  0  0
 31 33  1  0  0  0  0
 31 32  1  0  0  0  0
 32 23  1  1  0  0  0
 33 32  1  0  0  0  0
 36  2  1  0  0  0  0
 37 36  1  0  0  0  0
 38 42  1  0  0  0  0
 38 37  1  0  0  0  0
 38 39  1  1  0  0  0
 42 40  2  0  0  0  0
 42 41  2  0  0  0  0
 43 46  1  0  0  0  0
 44 47  1  0  0  0  0
 44 43  1  1  0  0  0
 45 46  1  0  0  0  0
 46 42  1  1  0  0  0
 47 45  1  0  0  0  0
 49 51  1  6  0  0  0
 49 48  1  0  0  0  0
 49 44  1  0  0  0  0
 50 48  1  0  0  0  0
 52 51  1  0  0  0  0
 52 50  1  0  0  0  0
M  END
>  <MODEL>
9

>  <REMARK>
 VINA RESULT:      -6.5      2.718      8.408
  Name = 
  17 active torsions:
  status: ('A' for Active; 'I' for Inactive)
    1  A    between atoms: N_2  and  C_45
    2  A    between atoms: C_3  and  C_10
    3  A    between atoms: C_3  and  C_51
    4  A    between atoms: C_7  and  N_18
    5  A    between atoms: C_9  and  C_12
    6  A    between atoms: C_9  and  C_39
    7  A    between atoms: C_11  and  C_32
    8  A    between atoms: C_12  and  C_17
    9  A    between atoms: N_18  and  N_48
   10  A    between atoms: C_25  and  C_45
   11  A    between atoms: C_26  and  S_30
   12  A    between atoms: C_26  and  C_51
   13  A    between atoms: S_30  and  C_36
   14  A    between atoms: C_35  and  C_52
   15  A    between atoms: C_39  and  C_52
   16  A    between atoms: C_40  and  C_45
   17  A    between atoms: C_42  and  N_48
                            x       y       z     vdW  Elec       q    Type
                         _______ _______ _______ _____ _____    ______ ____

>  <TORSDO>
F 17

$$$$
