=
 OpenBabel11042415253D

 51 57  0  0  1  0  0  0  0  0999 V2000
  196.3310  171.8320  144.5930 C   0  0  2  0  0  3  0  0  0  0  0  0
  191.2490  171.6580  141.0440 O   0  0  0  0  0  0  0  0  0  0  0  0
  197.8600  172.7880  143.2760 C   0  0  0  0  0  2  0  0  0  0  0  0
  197.7270  171.8660  144.3360 O   0  0  0  0  0  0  0  0  0  0  0  0
  196.4610  174.6450  142.6420 O   0  0  0  0  0  0  0  0  0  0  0  0
  192.9490  172.6240  142.0060 C   0  0  0  0  0  0  0  0  0  0  0  0
  192.2000  171.4760  141.9240 C   0  0  0  0  0  0  0  0  0  0  0  0
  192.3790  170.2630  142.7680 C   0  0  0  0  0  0  0  0  0  0  0  0
  194.6250  170.7590  145.9550 C   0  0  0  0  0  2  0  0  0  0  0  0
  191.3240  172.8960  140.5910 C   0  0  0  0  0  0  0  0  0  0  0  0
  196.7120  173.7130  143.4000 C   0  0  0  0  0  0  0  0  0  0  0  0
  193.7040  168.8280  144.2520 O   0  0  0  0  0  1  0  0  0  0  0  0
  193.3940  172.5910  144.6570 C   0  0  2  0  0  3  0  0  0  0  0  0
  192.3720  173.5720  141.1830 C   0  0  0  0  0  3  0  0  0  0  0  0
  191.7560  169.2150  142.4080 O   0  0  0  0  0  0  0  0  0  0  0  0
  194.3310  173.5670  144.3500 C   0  0  1  0  0  0  0  0  0  0  0  0
  195.8570  173.2640  144.4980 C   0  0  1  0  0  3  0  0  0  0  0  0
  193.7530  171.1290  144.7820 C   0  0  0  0  0  0  0  0  0  0  0  0
  193.5730  172.9310  143.2250 N   0  0  0  0  0  0  0  0  0  0  0  0
  193.2950  170.1280  143.9590 C   0  0  0  0  0  0  0  0  0  0  0  0
  196.0080  171.3000  145.9290 N   0  0  0  0  0  0  0  0  0  0  0  0
  188.1410  174.4180  139.3330 N   0  0  0  0  0  0  0  0  0  0  0  0
  188.8260  174.0440  141.6090 N   0  0  0  0  0  1  0  0  0  0  0  0
  188.3120  174.2920  137.9910 C   0  0  0  0  0  3  0  0  0  0  0  0
  190.4900  173.4100  138.3670 N   0  0  0  0  0  0  0  0  0  0  0  0
  189.1000  174.0110  140.2090 C   0  0  0  0  0  0  0  0  0  0  0  0
  190.3280  173.5280  139.7140 C   0  0  0  0  0  0  0  0  0  0  0  0
  189.5190  173.7900  137.4980 C   0  0  0  0  0  3  0  0  0  0  0  0
  196.2090  169.1970  147.2080 C   0  0  0  0  0  1  0  0  0  0  0  0
  196.8830  170.1590  146.2350 C   0  0  0  0  0  2  0  0  0  0  0  0
  193.8590  174.9980  144.6130 C   0  0  0  0  0  2  0  0  0  0  0  0
  194.2630  175.4510  146.0020 C   0  0  0  0  0  2  0  0  0  0  0  0
  191.9430  175.3020  146.6010 N   0  0  0  0  0  0  0  0  0  0  0  0
  193.0560  175.9340  146.7390 C   0  0  0  0  0  3  0  0  0  0  0  0
  190.7430  175.8010  147.2350 C   0  0  0  0  0  2  0  0  0  0  0  0
  189.5420  175.0560  146.7320 C   0  0  0  0  0  0  0  0  0  0  0  0
  189.7150  174.0760  145.9550 O   0  0  0  0  0  0  0  0  0  0  0  0
  188.2440  175.3820  147.1520 O   0  0  0  0  0  0  0  0  0  0  0  0
  187.5770  176.5620  146.7240 C   0  0  0  0  0  2  0  0  0  0  0  0
  187.3420  176.4960  145.2250 C   0  0  0  0  0  2  0  0  0  0  0  0
  184.9250  178.8300  142.6070 O   0  0  0  0  0  1  0  0  0  0  0  0
  186.8590  177.6220  141.8770 C   0  0  0  0  0  0  0  0  0  0  0  0
  187.8620  177.6950  144.5800 N   0  0  0  0  0  0  0  0  0  0  0  0
  188.3270  177.8400  142.0780 C   0  0  0  0  0  2  0  0  0  0  0  0
  186.7260  178.5450  144.1840 C   0  0  0  0  0  2  0  0  0  0  0  0
  188.7010  177.2470  143.4460 C   0  0  1  0  0  3  0  0  0  0  0  0
  186.4520  177.0600  140.8670 O   0  0  0  0  0  0  0  0  0  0  0  0
  185.9270  177.9400  143.0090 C   0  0  1  0  0  3  0  0  0  0  0  0
  191.0320  176.3070  143.3000 N   0  0  0  0  0  1  0  0  0  0  0  0
  190.6330  178.3680  144.3250 O   0  0  0  0  0  0  0  0  0  0  0  0
  190.1610  177.3450  143.7520 C   0  0  0  0  0  0  0  0  0  0  0  0
  1  4  1  1  0  0  0
  1 21  1  0  0  0  0
  2  7  1  0  0  0  0
  3 11  1  0  0  0  0
  3  4  1  0  0  0  0
  5 11  2  0  0  0  0
  6 19  1  0  0  0  0
  7  6  2  0  0  0  0
  7  8  1  0  0  0  0
  8 20  1  0  0  0  0
 10  2  1  0  0  0  0
 10 14  2  0  0  0  0
 13 18  1  6  0  0  0
 14  6  1  0  0  0  0
 15  8  2  0  0  0  0
 16 17  1  0  0  0  0
 16 31  1  1  0  0  0
 16 13  1  0  0  0  0
 17 11  1  6  0  0  0
 17  1  1  0  0  0  0
 18  9  1  0  0  0  0
 19 16  1  0  0  0  0
 19 13  1  0  0  0  0
 20 12  1  0  0  0  0
 20 18  2  0  0  0  0
 21  9  1  0  0  0  0
 21 30  1  0  0  0  0
 22 26  1  0  0  0  0
 24 22  2  0  0  0  0
 25 27  1  0  0  0  0
 26 23  1  0  0  0  0
 27 26  2  0  0  0  0
 27 10  1  0  0  0  0
 28 24  1  0  0  0  0
 28 25  2  0  0  0  0
 30 29  1  0  0  0  0
 31 32  1  0  0  0  0
 32 34  1  0  0  0  0
 33 34  2  0  0  0  0
 33 35  1  0  0  0  0
 36 38  1  0  0  0  0
 36 35  1  0  0  0  0
 37 36  2  0  0  0  0
 39 38  1  0  0  0  0
 40 39  1  0  0  0  0
 42 44  1  0  0  0  0
 42 48  1  0  0  0  0
 43 40  1  0  0  0  0
 44 46  1  0  0  0  0
 45 43  1  0  0  0  0
 46 51  1  1  0  0  0
 46 43  1  0  0  0  0
 47 42  2  0  0  0  0
 48 41  1  6  0  0  0
 48 45  1  0  0  0  0
 49 51  1  0  0  0  0
 51 50  2  0  0  0  0
M  END
>  <MODEL>
1

>  <REMARK>
 VINA RESULT:      -7.4      0.000      0.000
  Name = 
  12 active torsions:
  status: ('A' for Active; 'I' for Inactive)
    1  A    between atoms: C_3  and  C_7
    2  A    between atoms: C_3  and  C_42
    3  A    between atoms: C_4  and  C_24
    4  A    between atoms: C_4  and  O_33
    5  A    between atoms: C_7  and  C_49
    6  A    between atoms: N_8  and  C_24
    7  A    between atoms: C_14  and  N_15
    8  A    between atoms: C_14  and  C_32
    9  A    between atoms: C_26  and  C_47
   10  A    between atoms: C_29  and  C_38
   11  A    between atoms: C_32  and  O_33
   12  A    between atoms: C_43  and  N_51
                            x       y       z     vdW  Elec       q    Type
                         _______ _______ _______ _____ _____    ______ ____

>  <TORSDO>
F 12

$$$$
=
 OpenBabel11042415253D

 51 57  0  0  1  0  0  0  0  0999 V2000
  196.3400  171.4990  144.5730 C   0  0  2  0  0  3  0  0  0  0  0  0
  191.2980  171.1550  140.9800 O   0  0  0  0  0  0  0  0  0  0  0  0
  197.8680  172.4440  143.2470 C   0  0  0  0  0  2  0  0  0  0  0  0
  197.7380  171.5480  144.3290 O   0  0  0  0  0  0  0  0  0  0  0  0
  196.4470  174.2630  142.5520 O   0  0  0  0  0  0  0  0  0  0  0  0
  192.9730  172.1720  141.9340 C   0  0  0  0  0  0  0  0  0  0  0  0
  192.2430  171.0100  141.8740 C   0  0  0  0  0  0  0  0  0  0  0  0
  192.4310  169.8220  142.7510 C   0  0  0  0  0  0  0  0  0  0  0  0
  194.6370  170.4340  145.9460 C   0  0  0  0  0  2  0  0  0  0  0  0
  191.3590  172.3820  140.4970 C   0  0  0  0  0  0  0  0  0  0  0  0
  196.7040  173.3540  143.3360 C   0  0  0  0  0  0  0  0  0  0  0  0
  193.7630  168.4460  144.2840 O   0  0  0  0  0  1  0  0  0  0  0  0
  193.3920  172.2130  144.5890 C   0  0  2  0  0  3  0  0  0  0  0  0
  192.3900  173.0890  141.0820 C   0  0  0  0  0  3  0  0  0  0  0  0
  191.8280  168.7560  142.4120 O   0  0  0  0  0  0  0  0  0  0  0  0
  194.3160  173.1950  144.2660 C   0  0  1  0  0  0  0  0  0  0  0  0
  195.8460  172.9200  144.4370 C   0  0  1  0  0  3  0  0  0  0  0  0
  193.7720  170.7610  144.7550 C   0  0  0  0  0  0  0  0  0  0  0  0
  193.5800  172.5190  143.1510 N   0  0  0  0  0  0  0  0  0  0  0  0
  193.3370  169.7320  143.9530 C   0  0  0  0  0  0  0  0  0  0  0  0
  196.0120  170.9960  145.9190 N   0  0  0  0  0  0  0  0  0  0  0  0
  188.0940  173.4660  139.0150 N   0  0  0  0  0  0  0  0  0  0  0  0
  188.5530  172.7490  141.2650 N   0  0  0  0  0  1  0  0  0  0  0  0
  188.4590  173.6750  137.7220 C   0  0  0  0  0  3  0  0  0  0  0  0
  190.7160  173.1920  138.2980 N   0  0  0  0  0  0  0  0  0  0  0  0
  189.0030  173.0800  139.9520 C   0  0  0  0  0  0  0  0  0  0  0  0
  190.3620  172.9760  139.5950 C   0  0  0  0  0  0  0  0  0  0  0  0
  189.8020  173.5480  137.3600 C   0  0  0  0  0  3  0  0  0  0  0  0
  196.1120  168.5820  146.4340 C   0  0  0  0  0  1  0  0  0  0  0  0
  196.9010  169.8770  146.2630 C   0  0  0  0  0  2  0  0  0  0  0  0
  193.8200  174.6250  144.4880 C   0  0  0  0  0  2  0  0  0  0  0  0
  194.5200  175.2600  145.6740 C   0  0  0  0  0  2  0  0  0  0  0  0
  192.4050  174.9790  146.7720 N   0  0  0  0  0  0  0  0  0  0  0  0
  193.5090  175.6380  146.7060 C   0  0  0  0  0  3  0  0  0  0  0  0
  191.3750  175.3820  147.7050 C   0  0  0  0  0  2  0  0  0  0  0  0
  190.1000  175.6800  146.9740 C   0  0  0  0  0  0  0  0  0  0  0  0
  189.2870  174.7380  146.7590 O   0  0  0  0  0  0  0  0  0  0  0  0
  189.7640  176.9840  146.5810 O   0  0  0  0  0  0  0  0  0  0  0  0
  188.4170  177.4160  146.4410 C   0  0  0  0  0  2  0  0  0  0  0  0
  188.0830  177.5650  144.9680 C   0  0  0  0  0  2  0  0  0  0  0  0
  187.4580  176.0550  141.0340 O   0  0  0  0  0  1  0  0  0  0  0  0
  186.0470  177.7050  142.0440 C   0  0  0  0  0  0  0  0  0  0  0  0
  186.9020  176.7760  144.6370 N   0  0  0  0  0  0  0  0  0  0  0  0
  185.0280  177.6360  143.1390 C   0  0  0  0  0  2  0  0  0  0  0  0
  187.1910  175.9830  143.4280 C   0  0  0  0  0  2  0  0  0  0  0  0
  185.7790  177.7260  144.4770 C   0  0  1  0  0  3  0  0  0  0  0  0
  185.9380  178.5390  141.1520 O   0  0  0  0  0  0  0  0  0  0  0  0
  187.2830  176.8620  142.1630 C   0  0  1  0  0  3  0  0  0  0  0  0
  183.9450  178.8040  145.8240 N   0  0  0  0  0  1  0  0  0  0  0  0
  184.8560  176.7520  146.4680 O   0  0  0  0  0  0  0  0  0  0  0  0
  184.8690  177.7270  145.6640 C   0  0  0  0  0  0  0  0  0  0  0  0
  1  4  1  1  0  0  0
  1 21  1  0  0  0  0
  2  7  1  0  0  0  0
  3 11  1  0  0  0  0
  3  4  1  0  0  0  0
  5 11  2  0  0  0  0
  6 19  1  0  0  0  0
  7  6  2  0  0  0  0
  7  8  1  0  0  0  0
  8 20  1  0  0  0  0
 10  2  1  0  0  0  0
 10 14  2  0  0  0  0
 13 18  1  6  0  0  0
 14  6  1  0  0  0  0
 15  8  2  0  0  0  0
 16 17  1  0  0  0  0
 16 31  1  1  0  0  0
 16 13  1  0  0  0  0
 17 11  1  6  0  0  0
 17  1  1  0  0  0  0
 18  9  1  0  0  0  0
 19 16  1  0  0  0  0
 19 13  1  0  0  0  0
 20 12  1  0  0  0  0
 20 18  2  0  0  0  0
 21  9  1  0  0  0  0
 21 30  1  0  0  0  0
 22 26  1  0  0  0  0
 24 22  2  0  0  0  0
 25 27  1  0  0  0  0
 26 23  1  0  0  0  0
 27 26  2  0  0  0  0
 27 10  1  0  0  0  0
 28 24  1  0  0  0  0
 28 25  2  0  0  0  0
 30 29  1  0  0  0  0
 31 32  1  0  0  0  0
 32 34  1  0  0  0  0
 33 35  1  0  0  0  0
 34 33  2  0  0  0  0
 36 35  1  0  0  0  0
 37 36  2  0  0  0  0
 38 36  1  0  0  0  0
 39 38  1  0  0  0  0
 40 39  1  0  0  0  0
 42 48  1  0  0  0  0
 42 44  1  0  0  0  0
 43 40  1  0  0  0  0
 44 46  1  0  0  0  0
 45 43  1  0  0  0  0
 46 43  1  0  0  0  0
 46 51  1  1  0  0  0
 47 42  2  0  0  0  0
 48 41  1  6  0  0  0
 48 45  1  0  0  0  0
 51 49  1  0  0  0  0
 51 50  2  0  0  0  0
M  END
>  <MODEL>
2

>  <REMARK>
 VINA RESULT:      -6.8      1.202      2.036
  Name = 
  12 active torsions:
  status: ('A' for Active; 'I' for Inactive)
    1  A    between atoms: C_3  and  C_7
    2  A    between atoms: C_3  and  C_42
    3  A    between atoms: C_4  and  C_24
    4  A    between atoms: C_4  and  O_33
    5  A    between atoms: C_7  and  C_49
    6  A    between atoms: N_8  and  C_24
    7  A    between atoms: C_14  and  N_15
    8  A    between atoms: C_14  and  C_32
    9  A    between atoms: C_26  and  C_47
   10  A    between atoms: C_29  and  C_38
   11  A    between atoms: C_32  and  O_33
   12  A    between atoms: C_43  and  N_51
                            x       y       z     vdW  Elec       q    Type
                         _______ _______ _______ _____ _____    ______ ____

>  <TORSDO>
F 12

$$$$
=
 OpenBabel11042415253D

 51 57  0  0  1  0  0  0  0  0999 V2000
  186.5800  177.4700  144.1740 C   0  0  2  0  0  3  0  0  0  0  0  0
  190.0410  172.8260  141.9590 O   0  0  0  0  0  0  0  0  0  0  0  0
  185.7040  176.6270  146.0460 C   0  0  0  0  0  2  0  0  0  0  0  0
  185.4390  177.5510  145.0140 O   0  0  0  0  0  0  0  0  0  0  0  0
  187.8030  175.8290  146.9210 O   0  0  0  0  0  0  0  0  0  0  0  0
  189.3720  174.2330  143.4830 C   0  0  0  0  0  0  0  0  0  0  0  0
  189.3020  173.8880  142.1560 C   0  0  0  0  0  0  0  0  0  0  0  0
  188.5860  174.6530  141.0990 C   0  0  0  0  0  0  0  0  0  0  0  0
  187.5370  178.3070  142.0990 C   0  0  0  0  0  2  0  0  0  0  0  0
  190.6250  172.5010  143.0980 C   0  0  0  0  0  0  0  0  0  0  0  0
  187.1780  176.5500  146.1490 C   0  0  0  0  0  0  0  0  0  0  0  0
  186.9150  176.2900  140.3610 O   0  0  0  0  0  1  0  0  0  0  0  0
  189.3880  176.9030  143.1760 C   0  0  2  0  0  3  0  0  0  0  0  0
  190.2590  173.3730  144.1030 C   0  0  0  0  0  3  0  0  0  0  0  0
  188.4310  174.0770  139.9770 O   0  0  0  0  0  0  0  0  0  0  0  0
  189.1510  176.9010  144.5430 C   0  0  1  0  0  0  0  0  0  0  0  0
  187.7700  177.3790  145.1000 C   0  0  1  0  0  3  0  0  0  0  0  0
  188.2770  176.9940  142.1570 C   0  0  0  0  0  0  0  0  0  0  0  0
  189.2270  175.5840  143.8330 N   0  0  0  0  0  0  0  0  0  0  0  0
  187.9480  176.0110  141.2540 C   0  0  0  0  0  0  0  0  0  0  0  0
  186.7320  178.6480  143.3000 N   0  0  0  0  0  0  0  0  0  0  0  0
  192.4890  169.2640  142.8230 N   0  0  0  0  0  0  0  0  0  0  0  0
  190.6350  170.0410  141.5010 N   0  0  0  0  0  1  0  0  0  0  0  0
  193.3560  169.3800  143.8630 C   0  0  0  0  0  3  0  0  0  0  0  0
  192.5360  171.5750  144.2790 N   0  0  0  0  0  0  0  0  0  0  0  0
  191.6110  170.2590  142.5180 C   0  0  0  0  0  0  0  0  0  0  0  0
  191.6600  171.4680  143.2420 C   0  0  0  0  0  0  0  0  0  0  0  0
  193.3890  170.5680  144.5970 C   0  0  0  0  0  3  0  0  0  0  0  0
  185.0710  178.3150  141.5020 C   0  0  0  0  0  1  0  0  0  0  0  0
  185.4170  179.0600  142.7880 C   0  0  0  0  0  2  0  0  0  0  0  0
  190.3920  177.1570  145.3980 C   0  0  0  0  0  2  0  0  0  0  0  0
  191.6110  177.3800  144.5250 C   0  0  0  0  0  2  0  0  0  0  0  0
  193.9130  176.7990  144.8720 N   0  0  0  0  0  0  0  0  0  0  0  0
  192.6850  176.4160  144.9120 C   0  0  0  0  0  3  0  0  0  0  0  0
  194.9750  175.8590  145.1580 C   0  0  0  0  0  2  0  0  0  0  0  0
  195.9920  175.8730  144.0560 C   0  0  0  0  0  0  0  0  0  0  0  0
  197.0690  175.2340  144.2130 O   0  0  0  0  0  0  0  0  0  0  0  0
  195.7490  176.5250  142.8370 O   0  0  0  0  0  0  0  0  0  0  0  0
  196.0980  175.9540  141.5830 C   0  0  0  0  0  2  0  0  0  0  0  0
  194.8410  175.4880  140.8710 C   0  0  0  0  0  2  0  0  0  0  0  0
  193.1580  174.7350  137.0310 O   0  0  0  0  0  1  0  0  0  0  0  0
  192.5740  173.4820  138.9870 C   0  0  0  0  0  0  0  0  0  0  0  0
  195.0960  174.2400  140.1630 N   0  0  0  0  0  0  0  0  0  0  0  0
  193.3120  172.4580  139.7930 C   0  0  0  0  0  2  0  0  0  0  0  0
  194.8490  174.4560  138.7260 C   0  0  0  0  0  2  0  0  0  0  0  0
  194.2260  173.2100  140.7730 C   0  0  1  0  0  3  0  0  0  0  0  0
  191.3500  173.4540  138.9250 O   0  0  0  0  0  0  0  0  0  0  0  0
  193.3470  174.6340  138.4140 C   0  0  1  0  0  3  0  0  0  0  0  0
  195.2750  170.9720  141.2540 N   0  0  0  0  0  1  0  0  0  0  0  0
  195.4350  172.7260  142.7900 O   0  0  0  0  0  0  0  0  0  0  0  0
  194.9840  172.3020  141.6880 C   0  0  0  0  0  0  0  0  0  0  0  0
  1  4  1  1  0  0  0
  1 17  1  0  0  0  0
  2  7  1  0  0  0  0
  2 10  1  0  0  0  0
  3 11  1  0  0  0  0
  4  3  1  0  0  0  0
  6 19  1  0  0  0  0
  6 14  1  0  0  0  0
  7  6  2  0  0  0  0
  8 20  1  0  0  0  0
  8  7  1  0  0  0  0
  9 18  1  0  0  0  0
  9 21  1  0  0  0  0
 10 27  1  0  0  0  0
 10 14  2  0  0  0  0
 11  5  2  0  0  0  0
 12 20  1  0  0  0  0
 13 18  1  6  0  0  0
 13 19  1  0  0  0  0
 13 16  1  0  0  0  0
 15  8  2  0  0  0  0
 16 17  1  0  0  0  0
 16 31  1  1  0  0  0
 17 11  1  1  0  0  0
 19 16  1  0  0  0  0
 20 18  2  0  0  0  0
 21  1  1  0  0  0  0
 22 24  1  0  0  0  0
 23 26  1  0  0  0  0
 24 28  2  0  0  0  0
 25 28  1  0  0  0  0
 26 22  2  0  0  0  0
 26 27  1  0  0  0  0
 27 25  2  0  0  0  0
 29 30  1  0  0  0  0
 30 21  1  0  0  0  0
 32 34  1  0  0  0  0
 32 31  1  0  0  0  0
 33 34  2  0  0  0  0
 33 35  1  0  0  0  0
 36 37  2  0  0  0  0
 36 35  1  0  0  0  0
 38 36  1  0  0  0  0
 39 38  1  0  0  0  0
 40 39  1  0  0  0  0
 42 44  1  0  0  0  0
 43 46  1  0  0  0  0
 43 40  1  0  0  0  0
 44 46  1  0  0  0  0
 45 43  1  0  0  0  0
 46 51  1  6  0  0  0
 47 42  2  0  0  0  0
 48 41  1  6  0  0  0
 48 45  1  0  0  0  0
 48 42  1  0  0  0  0
 49 51  1  0  0  0  0
 51 50  2  0  0  0  0
M  END
>  <MODEL>
3

>  <REMARK>
 VINA RESULT:      -6.8      2.535      8.295
  Name = 
  12 active torsions:
  status: ('A' for Active; 'I' for Inactive)
    1  A    between atoms: C_3  and  C_7
    2  A    between atoms: C_3  and  C_42
    3  A    between atoms: C_4  and  C_24
    4  A    between atoms: C_4  and  O_33
    5  A    between atoms: C_7  and  C_49
    6  A    between atoms: N_8  and  C_24
    7  A    between atoms: C_14  and  N_15
    8  A    between atoms: C_14  and  C_32
    9  A    between atoms: C_26  and  C_47
   10  A    between atoms: C_29  and  C_38
   11  A    between atoms: C_32  and  O_33
   12  A    between atoms: C_43  and  N_51
                            x       y       z     vdW  Elec       q    Type
                         _______ _______ _______ _____ _____    ______ ____

>  <TORSDO>
F 12

$$$$
=
 OpenBabel11042415253D

 51 57  0  0  1  0  0  0  0  0999 V2000
  188.0220  176.9670  144.3250 C   0  0  2  0  0  3  0  0  0  0  0  0
  193.7830  176.0480  146.4280 O   0  0  0  0  0  0  0  0  0  0  0  0
  188.3330  177.7120  142.2430 C   0  0  0  0  0  2  0  0  0  0  0  0
  187.4430  177.8020  143.3330 O   0  0  0  0  0  0  0  0  0  0  0  0
  189.8510  175.9490  141.6130 O   0  0  0  0  0  0  0  0  0  0  0  0
  192.1390  175.8170  145.0150 C   0  0  0  0  0  0  0  0  0  0  0  0
  192.5040  176.2720  146.2580 C   0  0  0  0  0  0  0  0  0  0  0  0
  191.5800  176.8350  147.2800 C   0  0  0  0  0  0  0  0  0  0  0  0
  187.7600  176.1900  146.6160 C   0  0  0  0  0  2  0  0  0  0  0  0
  194.2460  175.4210  145.3620 C   0  0  0  0  0  0  0  0  0  0  0  0
  188.9870  176.3900  142.3650 C   0  0  0  0  0  0  0  0  0  0  0  0
  189.4580  177.8640  147.9550 O   0  0  0  0  0  1  0  0  0  0  0  0
  189.7210  174.8430  145.6690 C   0  0  2  0  0  3  0  0  0  0  0  0
  193.2430  175.2220  144.4350 C   0  0  0  0  0  3  0  0  0  0  0  0
  192.1110  177.4150  148.2780 O   0  0  0  0  0  0  0  0  0  0  0  0
  189.5480  174.7900  144.2930 C   0  0  1  0  0  0  0  0  0  0  0  0
  188.5270  175.7450  143.5940 C   0  0  1  0  0  3  0  0  0  0  0  0
  189.2530  176.0120  146.5030 C   0  0  0  0  0  0  0  0  0  0  0  0
  190.8250  175.3630  144.8270 N   0  0  0  0  0  0  0  0  0  0  0  0
  190.0740  176.8620  147.2060 C   0  0  0  0  0  0  0  0  0  0  0  0
  187.0560  176.5520  145.3580 N   0  0  0  0  0  0  0  0  0  0  0  0
  197.6630  174.5860  144.0740 N   0  0  0  0  0  0  0  0  0  0  0  0
  196.2000  176.3700  143.3910 N   0  0  0  0  0  1  0  0  0  0  0  0
  197.9360  173.4610  144.7860 C   0  0  0  0  0  3  0  0  0  0  0  0
  195.8820  173.7270  145.9590 N   0  0  0  0  0  0  0  0  0  0  0  0
  196.4990  175.2700  144.2500 C   0  0  0  0  0  0  0  0  0  0  0  0
  195.5970  174.8530  145.2480 C   0  0  0  0  0  0  0  0  0  0  0  0
  197.0310  173.0310  145.7600 C   0  0  0  0  0  3  0  0  0  0  0  0
  184.9460  177.2070  146.4620 C   0  0  0  0  0  1  0  0  0  0  0  0
  186.1840  177.6830  145.7070 C   0  0  0  0  0  2  0  0  0  0  0  0
  189.7590  173.4030  143.6850 C   0  0  0  0  0  2  0  0  0  0  0  0
  188.5890  173.0180  142.8010 C   0  0  0  0  0  2  0  0  0  0  0  0
  189.0120  172.7000  140.4610 N   0  0  0  0  0  0  0  0  0  0  0  0
  189.0810  172.2070  141.6480 C   0  0  0  0  0  3  0  0  0  0  0  0
  189.4010  171.9010  139.3200 C   0  0  0  0  0  2  0  0  0  0  0  0
  190.2540  172.7080  138.3870 C   0  0  0  0  0  0  0  0  0  0  0  0
  190.2480  172.4240  137.1570 O   0  0  0  0  0  0  0  0  0  0  0  0
  191.0060  173.8030  138.8380 O   0  0  0  0  0  0  0  0  0  0  0  0
  192.3870  173.7000  139.1600 C   0  0  0  0  0  2  0  0  0  0  0  0
  192.5390  173.3130  140.6200 C   0  0  0  0  0  2  0  0  0  0  0  0
  192.0390  169.8670  143.0730 O   0  0  0  0  0  1  0  0  0  0  0  0
  193.6060  171.6090  143.5640 C   0  0  0  0  0  0  0  0  0  0  0  0
  193.6040  172.3290  140.7710 N   0  0  0  0  0  0  0  0  0  0  0  0
  194.9070  172.0100  142.9390 C   0  0  0  0  0  2  0  0  0  0  0  0
  193.0080  171.0560  141.2130 C   0  0  0  0  0  2  0  0  0  0  0  0
  194.5840  172.8960  141.7250 C   0  0  1  0  0  3  0  0  0  0  0  0
  193.4060  171.8140  144.7560 O   0  0  0  0  0  0  0  0  0  0  0  0
  192.5030  171.1240  142.6710 C   0  0  1  0  0  3  0  0  0  0  0  0
  196.8810  172.5210  140.7640 N   0  0  0  0  0  1  0  0  0  0  0  0
  195.8490  174.6130  140.6230 O   0  0  0  0  0  0  0  0  0  0  0  0
  195.8040  173.4190  141.0360 C   0  0  0  0  0  0  0  0  0  0  0  0
  1  4  1  6  0  0  0
  1 21  1  0  0  0  0
  3 11  1  0  0  0  0
  3  4  1  0  0  0  0
  5 11  2  0  0  0  0
  6  7  2  0  0  0  0
  7  2  1  0  0  0  0
  7  8  1  0  0  0  0
  8 15  2  0  0  0  0
 10  2  1  0  0  0  0
 13 18  1  1  0  0  0
 14  6  1  0  0  0  0
 14 10  2  0  0  0  0
 16 31  1  6  0  0  0
 16 19  1  0  0  0  0
 16 13  1  0  0  0  0
 17 11  1  6  0  0  0
 17 16  1  0  0  0  0
 17  1  1  0  0  0  0
 18  9  1  0  0  0  0
 18 20  2  0  0  0  0
 19  6  1  0  0  0  0
 19 13  1  0  0  0  0
 20  8  1  0  0  0  0
 20 12  1  0  0  0  0
 21 30  1  0  0  0  0
 21  9  1  0  0  0  0
 22 26  2  0  0  0  0
 22 24  1  0  0  0  0
 23 26  1  0  0  0  0
 24 28  2  0  0  0  0
 26 27  1  0  0  0  0
 27 10  1  0  0  0  0
 27 25  2  0  0  0  0
 28 25  1  0  0  0  0
 30 29  1  0  0  0  0
 32 31  1  0  0  0  0
 33 34  2  0  0  0  0
 34 32  1  0  0  0  0
 35 33  1  0  0  0  0
 36 38  1  0  0  0  0
 36 35  1  0  0  0  0
 37 36  2  0  0  0  0
 38 39  1  0  0  0  0
 39 40  1  0  0  0  0
 40 43  1  0  0  0  0
 42 47  2  0  0  0  0
 43 45  1  0  0  0  0
 43 46  1  0  0  0  0
 44 42  1  0  0  0  0
 45 48  1  0  0  0  0
 46 51  1  6  0  0  0
 46 44  1  0  0  0  0
 48 41  1  1  0  0  0
 48 42  1  0  0  0  0
 49 51  1  0  0  0  0
 50 51  2  0  0  0  0
M  END
>  <MODEL>
4

>  <REMARK>
 VINA RESULT:      -6.7      2.348      8.715
  Name = 
  12 active torsions:
  status: ('A' for Active; 'I' for Inactive)
    1  A    between atoms: C_3  and  C_7
    2  A    between atoms: C_3  and  C_42
    3  A    between atoms: C_4  and  C_24
    4  A    between atoms: C_4  and  O_33
    5  A    between atoms: C_7  and  C_49
    6  A    between atoms: N_8  and  C_24
    7  A    between atoms: C_14  and  N_15
    8  A    between atoms: C_14  and  C_32
    9  A    between atoms: C_26  and  C_47
   10  A    between atoms: C_29  and  C_38
   11  A    between atoms: C_32  and  O_33
   12  A    between atoms: C_43  and  N_51
                            x       y       z     vdW  Elec       q    Type
                         _______ _______ _______ _____ _____    ______ ____

>  <TORSDO>
F 12

$$$$
=
 OpenBabel11042415253D

 51 57  0  0  1  0  0  0  0  0999 V2000
  186.0880  177.7370  144.7530 C   0  0  2  0  0  3  0  0  0  0  0  0
  189.4250  173.9360  141.1660 O   0  0  0  0  0  0  0  0  0  0  0  0
  185.5720  176.4740  146.5210 C   0  0  0  0  0  2  0  0  0  0  0  0
  185.0910  177.5510  145.7480 O   0  0  0  0  0  0  0  0  0  0  0  0
  187.8280  175.7160  146.9040 O   0  0  0  0  0  0  0  0  0  0  0  0
  188.9240  174.9580  143.0250 C   0  0  0  0  0  0  0  0  0  0  0  0
  188.6640  174.8690  141.6790 C   0  0  0  0  0  0  0  0  0  0  0  0
  187.7450  175.7560  140.9140 C   0  0  0  0  0  0  0  0  0  0  0  0
  186.6520  179.0390  142.7770 C   0  0  0  0  0  2  0  0  0  0  0  0
  190.2010  173.4530  142.1190 C   0  0  0  0  0  0  0  0  0  0  0  0
  187.0460  176.5120  146.3930 C   0  0  0  0  0  0  0  0  0  0  0  0
  185.8830  177.3460  140.7720 O   0  0  0  0  0  1  0  0  0  0  0  0
  188.7310  177.6280  143.2690 C   0  0  2  0  0  3  0  0  0  0  0  0
  189.9470  174.0790  143.3220 C   0  0  0  0  0  3  0  0  0  0  0  0
  187.4490  175.3940  139.7320 O   0  0  0  0  0  0  0  0  0  0  0  0
  188.7140  177.3420  144.6260 C   0  0  1  0  0  0  0  0  0  0  0  0
  187.4140  177.5770  145.4610 C   0  0  1  0  0  3  0  0  0  0  0  0
  187.4690  177.8120  142.4600 C   0  0  0  0  0  0  0  0  0  0  0  0
  188.7560  176.1980  143.6600 N   0  0  0  0  0  0  0  0  0  0  0  0
  187.0600  176.9950  141.4320 C   0  0  0  0  0  0  0  0  0  0  0  0
  186.0280  179.0690  144.1260 N   0  0  0  0  0  0  0  0  0  0  0  0
  193.1500  171.7120  140.6020 N   0  0  0  0  0  0  0  0  0  0  0  0
  192.2880  173.9030  140.1090 N   0  0  0  0  0  1  0  0  0  0  0  0
  193.0840  170.5070  141.2290 C   0  0  0  0  0  3  0  0  0  0  0  0
  191.2520  171.3000  142.5240 N   0  0  0  0  0  0  0  0  0  0  0  0
  192.2610  172.7030  140.8810 C   0  0  0  0  0  0  0  0  0  0  0  0
  191.3060  172.5090  141.8990 C   0  0  0  0  0  0  0  0  0  0  0  0
  192.1220  170.3030  142.2210 C   0  0  0  0  0  3  0  0  0  0  0  0
  183.9360  178.4760  142.9540 C   0  0  0  0  0  1  0  0  0  0  0  0
  184.6270  179.4520  143.9020 C   0  0  0  0  0  2  0  0  0  0  0  0
  190.0580  177.5390  145.3280 C   0  0  0  0  0  2  0  0  0  0  0  0
  191.0870  178.1080  144.3710 C   0  0  0  0  0  2  0  0  0  0  0  0
  192.2650  176.1000  144.9550 N   0  0  0  0  0  0  0  0  0  0  0  0
  192.1770  177.1080  144.1600 C   0  0  0  0  0  3  0  0  0  0  0  0
  193.3620  175.1670  144.8240 C   0  0  0  0  0  2  0  0  0  0  0  0
  194.5700  175.6790  145.5510 C   0  0  0  0  0  0  0  0  0  0  0  0
  194.4340  176.1110  146.7300 O   0  0  0  0  0  0  0  0  0  0  0  0
  195.8500  175.6340  144.9770 O   0  0  0  0  0  0  0  0  0  0  0  0
  196.7110  174.5130  145.1200 C   0  0  0  0  0  2  0  0  0  0  0  0
  197.3120  174.1590  143.7720 C   0  0  0  0  0  2  0  0  0  0  0  0
  195.9210  170.1850  143.1270 O   0  0  0  0  0  1  0  0  0  0  0  0
  197.0700  171.4590  141.4560 C   0  0  0  0  0  0  0  0  0  0  0  0
  196.2550  173.8720  142.8090 N   0  0  0  0  0  0  0  0  0  0  0  0
  196.6650  172.6340  140.6190 C   0  0  0  0  0  2  0  0  0  0  0  0
  195.6410  172.5790  143.1580 C   0  0  0  0  0  2  0  0  0  0  0  0
  196.8750  173.9000  141.4660 C   0  0  1  0  0  3  0  0  0  0  0  0
  197.8940  170.6560  141.0340 O   0  0  0  0  0  0  0  0  0  0  0  0
  196.5850  171.3900  142.8750 C   0  0  1  0  0  3  0  0  0  0  0  0
  195.2670  175.7430  140.8720 N   0  0  0  0  0  1  0  0  0  0  0  0
  197.4540  175.7510  140.0520 O   0  0  0  0  0  0  0  0  0  0  0  0
  196.5630  175.1610  140.7260 C   0  0  0  0  0  0  0  0  0  0  0  0
  1 17  1  0  0  0  0
  1  4  1  1  0  0  0
  2  7  1  0  0  0  0
  2 10  1  0  0  0  0
  4  3  1  0  0  0  0
  6 14  1  0  0  0  0
  6 19  1  0  0  0  0
  7  6  2  0  0  0  0
  8 20  1  0  0  0  0
  8  7  1  0  0  0  0
  9 21  1  0  0  0  0
 10 14  2  0  0  0  0
 11  3  1  0  0  0  0
 11  5  2  0  0  0  0
 12 20  1  0  0  0  0
 13 18  1  6  0  0  0
 13 19  1  0  0  0  0
 13 16  1  0  0  0  0
 15  8  2  0  0  0  0
 16 31  1  1  0  0  0
 16 17  1  0  0  0  0
 17 11  1  1  0  0  0
 18  9  1  0  0  0  0
 19 16  1  0  0  0  0
 20 18  2  0  0  0  0
 21  1  1  0  0  0  0
 22 26  2  0  0  0  0
 22 24  1  0  0  0  0
 23 26  1  0  0  0  0
 24 28  2  0  0  0  0
 26 27  1  0  0  0  0
 27 10  1  0  0  0  0
 27 25  2  0  0  0  0
 28 25  1  0  0  0  0
 29 30  1  0  0  0  0
 30 21  1  0  0  0  0
 32 31  1  0  0  0  0
 34 32  1  0  0  0  0
 34 33  2  0  0  0  0
 35 33  1  0  0  0  0
 35 36  1  0  0  0  0
 36 37  2  0  0  0  0
 38 39  1  0  0  0  0
 38 36  1  0  0  0  0
 40 39  1  0  0  0  0
 42 48  1  0  0  0  0
 43 45  1  0  0  0  0
 43 40  1  0  0  0  0
 44 42  1  0  0  0  0
 44 46  1  0  0  0  0
 46 51  1  6  0  0  0
 46 43  1  0  0  0  0
 47 42  2  0  0  0  0
 48 41  1  6  0  0  0
 48 45  1  0  0  0  0
 50 51  2  0  0  0  0
 51 49  1  0  0  0  0
M  END
>  <MODEL>
5

>  <REMARK>
 VINA RESULT:      -6.7      2.458      8.871
  Name = 
  12 active torsions:
  status: ('A' for Active; 'I' for Inactive)
    1  A    between atoms: C_3  and  C_7
    2  A    between atoms: C_3  and  C_42
    3  A    between atoms: C_4  and  C_24
    4  A    between atoms: C_4  and  O_33
    5  A    between atoms: C_7  and  C_49
    6  A    between atoms: N_8  and  C_24
    7  A    between atoms: C_14  and  N_15
    8  A    between atoms: C_14  and  C_32
    9  A    between atoms: C_26  and  C_47
   10  A    between atoms: C_29  and  C_38
   11  A    between atoms: C_32  and  O_33
   12  A    between atoms: C_43  and  N_51
                            x       y       z     vdW  Elec       q    Type
                         _______ _______ _______ _____ _____    ______ ____

>  <TORSDO>
F 12

$$$$
=
 OpenBabel11042415253D

 51 57  0  0  1  0  0  0  0  0999 V2000
  188.0320  176.9560  144.4230 C   0  0  2  0  0  3  0  0  0  0  0  0
  193.8580  175.8870  146.2580 O   0  0  0  0  0  0  0  0  0  0  0  0
  188.2730  177.7970  142.3680 C   0  0  0  0  0  2  0  0  0  0  0  0
  187.4250  177.8430  143.4940 O   0  0  0  0  0  0  0  0  0  0  0  0
  189.7460  176.0520  141.5980 O   0  0  0  0  0  0  0  0  0  0  0  0
  192.1600  175.7380  144.8990 C   0  0  0  0  0  0  0  0  0  0  0  0
  192.5770  176.1310  146.1470 C   0  0  0  0  0  0  0  0  0  0  0  0
  191.6980  176.6520  147.2300 C   0  0  0  0  0  0  0  0  0  0  0  0
  187.8490  176.0750  146.6820 C   0  0  0  0  0  2  0  0  0  0  0  0
  194.2750  175.3070  145.1470 C   0  0  0  0  0  0  0  0  0  0  0  0
  188.9170  176.4650  142.4020 C   0  0  0  0  0  0  0  0  0  0  0  0
  189.6140  177.6670  148.0330 O   0  0  0  0  0  1  0  0  0  0  0  0
  189.7580  174.7560  145.5980 C   0  0  2  0  0  3  0  0  0  0  0  0
  193.2350  175.1610  144.2500 C   0  0  0  0  0  3  0  0  0  0  0  0
  192.2730  177.1790  148.2330 O   0  0  0  0  0  0  0  0  0  0  0  0
  189.5320  174.7700  144.2300 C   0  0  1  0  0  0  0  0  0  0  0  0
  188.4960  175.7660  143.6150 C   0  0  1  0  0  3  0  0  0  0  0  0
  189.3350  175.8880  146.5040 C   0  0  0  0  0  0  0  0  0  0  0  0
  190.8350  175.3060  144.7410 N   0  0  0  0  0  0  0  0  0  0  0  0
  190.1910  176.6960  147.2150 C   0  0  0  0  0  0  0  0  0  0  0  0
  187.1020  176.5020  145.4710 N   0  0  0  0  0  0  0  0  0  0  0  0
  197.7500  174.7190  143.8810 N   0  0  0  0  0  0  0  0  0  0  0  0
  196.3890  176.6900  143.6580 N   0  0  0  0  0  1  0  0  0  0  0  0
  197.9400  173.4250  144.2510 C   0  0  0  0  0  3  0  0  0  0  0  0
  195.8160  173.4380  145.3240 N   0  0  0  0  0  0  0  0  0  0  0  0
  196.5960  175.3770  144.1770 C   0  0  0  0  0  0  0  0  0  0  0  0
  195.6130  174.7330  144.9550 C   0  0  0  0  0  0  0  0  0  0  0  0
  196.9560  172.7750  145.0010 C   0  0  0  0  0  3  0  0  0  0  0  0
  184.9400  177.1200  146.4950 C   0  0  0  0  0  1  0  0  0  0  0  0
  186.2560  177.6230  145.9060 C   0  0  0  0  0  2  0  0  0  0  0  0
  189.7060  173.4120  143.5490 C   0  0  0  0  0  2  0  0  0  0  0  0
  188.3590  172.7770  143.2620 C   0  0  0  0  0  2  0  0  0  0  0  0
  188.9030  172.7690  140.9250 N   0  0  0  0  0  0  0  0  0  0  0  0
  188.0070  172.9810  141.8250 C   0  0  0  0  0  3  0  0  0  0  0  0
  188.6130  173.0420  139.5350 C   0  0  0  0  0  2  0  0  0  0  0  0
  189.4820  172.2010  138.6480 C   0  0  0  0  0  0  0  0  0  0  0  0
  189.3170  170.9490  138.6450 O   0  0  0  0  0  0  0  0  0  0  0  0
  190.4250  172.7740  137.7820 O   0  0  0  0  0  0  0  0  0  0  0  0
  191.5050  173.5710  138.2490 C   0  0  0  0  0  2  0  0  0  0  0  0
  192.5230  172.6870  138.9470 C   0  0  0  0  0  2  0  0  0  0  0  0
  194.5180  175.8980  140.9090 O   0  0  0  0  0  1  0  0  0  0  0  0
  195.0930  173.5980  141.2450 C   0  0  0  0  0  0  0  0  0  0  0  0
  192.4370  172.8640  140.3920 N   0  0  0  0  0  0  0  0  0  0  0  0
  194.4070  172.4750  141.9620 C   0  0  0  0  0  2  0  0  0  0  0  0
  192.7560  174.2660  140.7130 C   0  0  0  0  0  2  0  0  0  0  0  0
  193.3620  171.8830  141.0030 C   0  0  1  0  0  3  0  0  0  0  0  0
  196.3150  173.6160  141.1530 O   0  0  0  0  0  0  0  0  0  0  0  0
  194.2500  174.5890  140.4970 C   0  0  1  0  0  3  0  0  0  0  0  0
  193.3980  169.6100  142.0860 N   0  0  0  0  0  1  0  0  0  0  0  0
  191.3790  170.7140  141.6850 O   0  0  0  0  0  0  0  0  0  0  0  0
  192.6380  170.7060  141.5750 C   0  0  0  0  0  0  0  0  0  0  0  0
  1  4  1  6  0  0  0
  1 21  1  0  0  0  0
  3 11  1  0  0  0  0
  3  4  1  0  0  0  0
  5 11  2  0  0  0  0
  6  7  2  0  0  0  0
  7  2  1  0  0  0  0
  7  8  1  0  0  0  0
  8 15  2  0  0  0  0
 10  2  1  0  0  0  0
 13 18  1  1  0  0  0
 14  6  1  0  0  0  0
 14 10  2  0  0  0  0
 16 31  1  6  0  0  0
 16 19  1  0  0  0  0
 16 13  1  0  0  0  0
 17 11  1  6  0  0  0
 17 16  1  0  0  0  0
 17  1  1  0  0  0  0
 18  9  1  0  0  0  0
 18 20  2  0  0  0  0
 19  6  1  0  0  0  0
 19 13  1  0  0  0  0
 20  8  1  0  0  0  0
 20 12  1  0  0  0  0
 21 30  1  0  0  0  0
 21  9  1  0  0  0  0
 22 26  2  0  0  0  0
 22 24  1  0  0  0  0
 23 26  1  0  0  0  0
 24 28  2  0  0  0  0
 26 27  1  0  0  0  0
 27 10  1  0  0  0  0
 27 25  2  0  0  0  0
 28 25  1  0  0  0  0
 30 29  1  0  0  0  0
 32 31  1  0  0  0  0
 33 34  2  0  0  0  0
 34 32  1  0  0  0  0
 35 33  1  0  0  0  0
 36 35  1  0  0  0  0
 37 36  2  0  0  0  0
 38 39  1  0  0  0  0
 38 36  1  0  0  0  0
 39 40  1  0  0  0  0
 40 43  1  0  0  0  0
 42 44  1  0  0  0  0
 43 45  1  0  0  0  0
 43 46  1  0  0  0  0
 46 51  1  1  0  0  0
 46 44  1  0  0  0  0
 47 42  2  0  0  0  0
 48 45  1  0  0  0  0
 48 41  1  1  0  0  0
 48 42  1  0  0  0  0
 51 50  2  0  0  0  0
 51 49  1  0  0  0  0
M  END
>  <MODEL>
6

>  <REMARK>
 VINA RESULT:      -6.6      2.330      8.599
  Name = 
  12 active torsions:
  status: ('A' for Active; 'I' for Inactive)
    1  A    between atoms: C_3  and  C_7
    2  A    between atoms: C_3  and  C_42
    3  A    between atoms: C_4  and  C_24
    4  A    between atoms: C_4  and  O_33
    5  A    between atoms: C_7  and  C_49
    6  A    between atoms: N_8  and  C_24
    7  A    between atoms: C_14  and  N_15
    8  A    between atoms: C_14  and  C_32
    9  A    between atoms: C_26  and  C_47
   10  A    between atoms: C_29  and  C_38
   11  A    between atoms: C_32  and  O_33
   12  A    between atoms: C_43  and  N_51
                            x       y       z     vdW  Elec       q    Type
                         _______ _______ _______ _____ _____    ______ ____

>  <TORSDO>
F 12

$$$$
=
 OpenBabel11042415253D

 51 57  0  0  1  0  0  0  0  0999 V2000
  187.6660  177.2060  144.5710 C   0  0  2  0  0  3  0  0  0  0  0  0
  193.6770  175.7000  144.3520 O   0  0  0  0  0  0  0  0  0  0  0  0
  187.3250  178.2930  142.6500 C   0  0  0  0  0  2  0  0  0  0  0  0
  186.8710  178.2260  143.9840 O   0  0  0  0  0  0  0  0  0  0  0  0
  188.3550  176.6070  141.2690 O   0  0  0  0  0  0  0  0  0  0  0  0
  191.6380  175.7870  143.5890 C   0  0  0  0  0  0  0  0  0  0  0  0
  192.4460  176.0020  144.6780 C   0  0  0  0  0  0  0  0  0  0  0  0
  191.9850  176.4130  146.0320 C   0  0  0  0  0  0  0  0  0  0  0  0
  188.1220  176.0510  146.6620 C   0  0  0  0  0  2  0  0  0  0  0  0
  193.6870  175.2510  143.1100 C   0  0  0  0  0  0  0  0  0  0  0  0
  187.8460  176.9440  142.3340 C   0  0  0  0  0  0  0  0  0  0  0  0
  190.3310  177.3930  147.5550 O   0  0  0  0  0  1  0  0  0  0  0  0
  189.5000  174.8120  144.8960 C   0  0  2  0  0  3  0  0  0  0  0  0
  192.4150  175.2590  142.5760 C   0  0  0  0  0  3  0  0  0  0  0  0
  192.8770  176.7860  146.8550 O   0  0  0  0  0  0  0  0  0  0  0  0
  188.8670  175.0090  143.6780 C   0  0  1  0  0  0  0  0  0  0  0  0
  187.7690  176.1120  143.5340 C   0  0  1  0  0  3  0  0  0  0  0  0
  189.4620  175.8350  146.0070 C   0  0  0  0  0  0  0  0  0  0  0  0
  190.2990  175.4270  143.8080 N   0  0  0  0  0  0  0  0  0  0  0  0
  190.5530  176.5140  146.4970 C   0  0  0  0  0  0  0  0  0  0  0  0
  187.0720  176.6560  145.8020 N   0  0  0  0  0  0  0  0  0  0  0  0
  196.5790  174.7240  140.7880 N   0  0  0  0  0  0  0  0  0  0  0  0
  195.3950  176.7630  141.2670 N   0  0  0  0  0  1  0  0  0  0  0  0
  196.7500  173.3800  140.8960 C   0  0  0  0  0  3  0  0  0  0  0  0
  195.0390  173.3120  142.5480 N   0  0  0  0  0  0  0  0  0  0  0  0
  195.6240  175.3760  141.5070 C   0  0  0  0  0  0  0  0  0  0  0  0
  194.8550  174.6570  142.4450 C   0  0  0  0  0  0  0  0  0  0  0  0
  195.9720  172.6610  141.8070 C   0  0  0  0  0  3  0  0  0  0  0  0
  184.9750  177.5760  146.7280 C   0  0  0  0  0  1  0  0  0  0  0  0
  186.4870  177.7420  146.6010 C   0  0  0  0  0  2  0  0  0  0  0  0
  188.7200  173.7430  142.8320 C   0  0  0  0  0  2  0  0  0  0  0  0
  189.2860  172.5400  143.5610 C   0  0  0  0  0  2  0  0  0  0  0  0
  191.3930  171.7100  142.7650 N   0  0  0  0  0  0  0  0  0  0  0  0
  190.1140  171.7300  142.6180 C   0  0  0  0  0  3  0  0  0  0  0  0
  192.2210  171.0030  141.8140 C   0  0  0  0  0  2  0  0  0  0  0  0
  191.5980  169.6860  141.4600 C   0  0  0  0  0  0  0  0  0  0  0  0
  191.6160  168.7550  142.3130 O   0  0  0  0  0  0  0  0  0  0  0  0
  190.9440  169.4860  140.2350 O   0  0  0  0  0  0  0  0  0  0  0  0
  191.2320  170.2630  139.0800 C   0  0  0  0  0  2  0  0  0  0  0  0
  190.1500  171.3110  138.8920 C   0  0  0  0  0  2  0  0  0  0  0  0
  187.7930  174.7850  138.1700 O   0  0  0  0  0  1  0  0  0  0  0  0
  189.6190  174.1250  136.7680 C   0  0  0  0  0  0  0  0  0  0  0  0
  190.7220  172.6480  138.9870 N   0  0  0  0  0  0  0  0  0  0  0  0
  191.1050  174.1460  136.9600 C   0  0  0  0  0  2  0  0  0  0  0  0
  189.6280  173.6120  139.2030 C   0  0  0  0  0  2  0  0  0  0  0  0
  191.4890  172.8800  137.7430 C   0  0  1  0  0  3  0  0  0  0  0  0
  189.1410  174.2340  135.6450 O   0  0  0  0  0  0  0  0  0  0  0  0
  188.7500  173.7900  137.9450 C   0  0  1  0  0  3  0  0  0  0  0  0
  193.5280  173.2020  139.1840 N   0  0  0  0  0  1  0  0  0  0  0  0
  193.6860  172.1550  137.1010 O   0  0  0  0  0  0  0  0  0  0  0  0
  192.9630  172.7430  137.9550 C   0  0  0  0  0  0  0  0  0  0  0  0
  1  4  1  6  0  0  0
  1 21  1  0  0  0  0
  2  7  1  0  0  0  0
  3  4  1  0  0  0  0
  5 11  2  0  0  0  0
  6 19  1  0  0  0  0
  6  7  2  0  0  0  0
  7  8  1  0  0  0  0
  8 20  1  0  0  0  0
  8 15  2  0  0  0  0
 10  2  1  0  0  0  0
 11  3  1  0  0  0  0
 13 18  1  1  0  0  0
 14 10  2  0  0  0  0
 14  6  1  0  0  0  0
 16 31  1  6  0  0  0
 16 19  1  0  0  0  0
 16 13  1  0  0  0  0
 17 11  1  6  0  0  0
 17 16  1  0  0  0  0
 17  1  1  0  0  0  0
 18 20  2  0  0  0  0
 18  9  1  0  0  0  0
 19 13  1  0  0  0  0
 20 12  1  0  0  0  0
 21 30  1  0  0  0  0
 21  9  1  0  0  0  0
 22 24  2  0  0  0  0
 22 26  1  0  0  0  0
 23 26  1  0  0  0  0
 24 28  1  0  0  0  0
 26 27  2  0  0  0  0
 27 25  1  0  0  0  0
 27 10  1  0  0  0  0
 28 25  2  0  0  0  0
 30 29  1  0  0  0  0
 31 32  1  0  0  0  0
 34 33  2  0  0  0  0
 34 32  1  0  0  0  0
 35 33  1  0  0  0  0
 36 35  1  0  0  0  0
 36 37  2  0  0  0  0
 38 36  1  0  0  0  0
 39 38  1  0  0  0  0
 40 43  1  0  0  0  0
 40 39  1  0  0  0  0
 42 44  1  0  0  0  0
 42 48  1  0  0  0  0
 43 45  1  0  0  0  0
 44 46  1  0  0  0  0
 46 51  1  1  0  0  0
 46 43  1  0  0  0  0
 47 42  2  0  0  0  0
 48 41  1  1  0  0  0
 48 45  1  0  0  0  0
 50 51  2  0  0  0  0
 51 49  1  0  0  0  0
M  END
>  <MODEL>
7

>  <REMARK>
 VINA RESULT:      -6.6      2.616      7.965
  Name = 
  12 active torsions:
  status: ('A' for Active; 'I' for Inactive)
    1  A    between atoms: C_3  and  C_7
    2  A    between atoms: C_3  and  C_42
    3  A    between atoms: C_4  and  C_24
    4  A    between atoms: C_4  and  O_33
    5  A    between atoms: C_7  and  C_49
    6  A    between atoms: N_8  and  C_24
    7  A    between atoms: C_14  and  N_15
    8  A    between atoms: C_14  and  C_32
    9  A    between atoms: C_26  and  C_47
   10  A    between atoms: C_29  and  C_38
   11  A    between atoms: C_32  and  O_33
   12  A    between atoms: C_43  and  N_51
                            x       y       z     vdW  Elec       q    Type
                         _______ _______ _______ _____ _____    ______ ____

>  <TORSDO>
F 12

$$$$
=
 OpenBabel11042415253D

 51 57  0  0  1  0  0  0  0  0999 V2000
  188.3520  176.6960  144.9120 C   0  0  2  0  0  3  0  0  0  0  0  0
  194.5070  175.9580  144.7530 O   0  0  0  0  0  0  0  0  0  0  0  0
  187.9100  177.8380  143.0450 C   0  0  0  0  0  2  0  0  0  0  0  0
  187.4460  177.6400  144.3620 O   0  0  0  0  0  0  0  0  0  0  0  0
  189.1650  176.3730  141.6000 O   0  0  0  0  0  0  0  0  0  0  0  0
  192.4850  175.8350  143.9480 C   0  0  0  0  0  0  0  0  0  0  0  0
  193.2430  176.0870  145.0650 C   0  0  0  0  0  0  0  0  0  0  0  0
  192.7110  176.3610  146.4290 C   0  0  0  0  0  0  0  0  0  0  0  0
  188.9140  175.4900  146.9490 C   0  0  0  0  0  2  0  0  0  0  0  0
  194.5930  175.5850  143.4890 C   0  0  0  0  0  0  0  0  0  0  0  0
  188.6010  176.5840  142.6690 C   0  0  0  0  0  0  0  0  0  0  0  0
  190.9230  177.0420  147.9640 O   0  0  0  0  0  1  0  0  0  0  0  0
  190.4650  174.5320  145.1510 C   0  0  2  0  0  3  0  0  0  0  0  0
  193.3390  175.4650  142.9260 C   0  0  0  0  0  3  0  0  0  0  0  0
  193.5370  176.7960  147.2910 O   0  0  0  0  0  0  0  0  0  0  0  0
  189.8320  174.7170  143.9300 C   0  0  1  0  0  0  0  0  0  0  0  0
  188.6080  175.6830  143.8200 C   0  0  1  0  0  3  0  0  0  0  0  0
  190.2820  175.4780  146.3140 C   0  0  0  0  0  0  0  0  0  0  0  0
  191.1990  175.3010  144.1170 N   0  0  0  0  0  0  0  0  0  0  0  0
  191.2710  176.2580  146.8650 C   0  0  0  0  0  0  0  0  0  0  0  0
  187.8110  176.0080  146.0980 N   0  0  0  0  0  0  0  0  0  0  0  0
  197.3960  175.3520  141.0150 N   0  0  0  0  0  0  0  0  0  0  0  0
  195.7600  177.0980  141.2640 N   0  0  0  0  0  1  0  0  0  0  0  0
  197.9100  174.1330  141.3270 C   0  0  0  0  0  3  0  0  0  0  0  0
  196.3620  173.9590  143.1260 N   0  0  0  0  0  0  0  0  0  0  0  0
  196.3470  175.8750  141.7070 C   0  0  0  0  0  0  0  0  0  0  0  0
  195.8370  175.1780  142.8210 C   0  0  0  0  0  0  0  0  0  0  0  0
  197.3890  173.4280  142.4150 C   0  0  0  0  0  3  0  0  0  0  0  0
  185.5810  176.9020  146.6700 C   0  0  0  0  0  1  0  0  0  0  0  0
  187.0820  176.9670  146.9400 C   0  0  0  0  0  2  0  0  0  0  0  0
  189.8590  173.4930  143.0150 C   0  0  0  0  0  2  0  0  0  0  0  0
  188.4540  172.9840  142.7550 C   0  0  0  0  0  2  0  0  0  0  0  0
  188.6290  173.2820  140.3810 N   0  0  0  0  0  0  0  0  0  0  0  0
  188.3570  172.4820  141.3520 C   0  0  0  0  0  3  0  0  0  0  0  0
  188.4590  172.8450  139.0120 C   0  0  0  0  0  2  0  0  0  0  0  0
  188.5960  174.0080  138.0750 C   0  0  0  0  0  0  0  0  0  0  0  0
  187.7380  174.9330  138.1230 O   0  0  0  0  0  0  0  0  0  0  0  0
  189.6820  174.1200  137.1940 O   0  0  0  0  0  0  0  0  0  0  0  0
  190.7900  173.2310  137.2310 C   0  0  0  0  0  2  0  0  0  0  0  0
  191.8300  173.7570  138.2030 C   0  0  0  0  0  2  0  0  0  0  0  0
  191.3770  170.2610  140.5930 O   0  0  0  0  0  1  0  0  0  0  0  0
  192.9000  172.0280  141.1320 C   0  0  0  0  0  0  0  0  0  0  0  0
  192.9150  172.7940  138.3510 N   0  0  0  0  0  0  0  0  0  0  0  0
  194.1990  172.4670  140.5280 C   0  0  0  0  0  2  0  0  0  0  0  0
  192.3410  171.5010  138.7650 C   0  0  0  0  0  2  0  0  0  0  0  0
  193.8710  173.3660  139.3250 C   0  0  1  0  0  3  0  0  0  0  0  0
  192.6820  172.2090  142.3240 O   0  0  0  0  0  0  0  0  0  0  0  0
  191.8180  171.5340  140.2180 C   0  0  1  0  0  3  0  0  0  0  0  0
  196.1610  173.0450  138.3300 N   0  0  0  0  0  1  0  0  0  0  0  0
  195.1310  175.1410  138.3140 O   0  0  0  0  0  0  0  0  0  0  0  0
  195.0870  173.9260  138.6590 C   0  0  0  0  0  0  0  0  0  0  0  0
  1  4  1  6  0  0  0
  1 21  1  0  0  0  0
  2  7  1  0  0  0  0
  3  4  1  0  0  0  0
  5 11  2  0  0  0  0
  6 19  1  0  0  0  0
  6  7  2  0  0  0  0
  7  8  1  0  0  0  0
  8 20  1  0  0  0  0
  8 15  2  0  0  0  0
 10  2  1  0  0  0  0
 11  3  1  0  0  0  0
 13 18  1  1  0  0  0
 14 10  2  0  0  0  0
 14  6  1  0  0  0  0
 16 31  1  6  0  0  0
 16 19  1  0  0  0  0
 16 13  1  0  0  0  0
 17 11  1  6  0  0  0
 17 16  1  0  0  0  0
 17  1  1  0  0  0  0
 18 20  2  0  0  0  0
 18  9  1  0  0  0  0
 19 13  1  0  0  0  0
 20 12  1  0  0  0  0
 21 30  1  0  0  0  0
 21  9  1  0  0  0  0
 22 24  2  0  0  0  0
 22 26  1  0  0  0  0
 23 26  1  0  0  0  0
 24 28  1  0  0  0  0
 26 27  2  0  0  0  0
 27 25  1  0  0  0  0
 27 10  1  0  0  0  0
 28 25  2  0  0  0  0
 29 30  1  0  0  0  0
 32 31  1  0  0  0  0
 33 34  2  0  0  0  0
 34 32  1  0  0  0  0
 35 33  1  0  0  0  0
 36 37  2  0  0  0  0
 36 35  1  0  0  0  0
 38 39  1  0  0  0  0
 38 36  1  0  0  0  0
 39 40  1  0  0  0  0
 40 43  1  0  0  0  0
 42 47  2  0  0  0  0
 43 45  1  0  0  0  0
 43 46  1  0  0  0  0
 44 42  1  0  0  0  0
 45 48  1  0  0  0  0
 46 51  1  6  0  0  0
 46 44  1  0  0  0  0
 48 41  1  1  0  0  0
 48 42  1  0  0  0  0
 49 51  1  0  0  0  0
 50 51  2  0  0  0  0
M  END
>  <MODEL>
8

>  <REMARK>
 VINA RESULT:      -6.6      2.675      8.317
  Name = 
  12 active torsions:
  status: ('A' for Active; 'I' for Inactive)
    1  A    between atoms: C_3  and  C_7
    2  A    between atoms: C_3  and  C_42
    3  A    between atoms: C_4  and  C_24
    4  A    between atoms: C_4  and  O_33
    5  A    between atoms: C_7  and  C_49
    6  A    between atoms: N_8  and  C_24
    7  A    between atoms: C_14  and  N_15
    8  A    between atoms: C_14  and  C_32
    9  A    between atoms: C_26  and  C_47
   10  A    between atoms: C_29  and  C_38
   11  A    between atoms: C_32  and  O_33
   12  A    between atoms: C_43  and  N_51
                            x       y       z     vdW  Elec       q    Type
                         _______ _______ _______ _____ _____    ______ ____

>  <TORSDO>
F 12

$$$$
=
 OpenBabel11042415253D

 51 57  0  0  1  0  0  0  0  0999 V2000
  187.7370  177.0350  144.6690 C   0  0  2  0  0  3  0  0  0  0  0  0
  193.8420  176.0540  144.1970 O   0  0  0  0  0  0  0  0  0  0  0  0
  187.2670  178.2960  142.8880 C   0  0  0  0  0  2  0  0  0  0  0  0
  186.8510  178.0460  144.2120 O   0  0  0  0  0  0  0  0  0  0  0  0
  188.3950  176.8630  141.3120 O   0  0  0  0  0  0  0  0  0  0  0  0
  191.7850  176.0590  143.4770 C   0  0  0  0  0  0  0  0  0  0  0  0
  192.5990  176.2170  144.5720 C   0  0  0  0  0  0  0  0  0  0  0  0
  192.1380  176.4370  145.9700 C   0  0  0  0  0  0  0  0  0  0  0  0
  188.3310  175.6960  146.6110 C   0  0  0  0  0  2  0  0  0  0  0  0
  193.8580  175.7480  142.9120 C   0  0  0  0  0  0  0  0  0  0  0  0
  187.8860  177.0380  142.4150 C   0  0  0  0  0  0  0  0  0  0  0  0
  190.4480  177.1060  147.6180 O   0  0  0  0  0  1  0  0  0  0  0  0
  189.7620  174.7770  144.6970 C   0  0  2  0  0  3  0  0  0  0  0  0
  192.5770  175.7120  142.4010 C   0  0  0  0  0  3  0  0  0  0  0  0
  193.0170  176.7890  146.8170 O   0  0  0  0  0  0  0  0  0  0  0  0
  189.0860  175.0550  143.5180 C   0  0  1  0  0  0  0  0  0  0  0  0
  187.9020  176.0750  143.5150 C   0  0  1  0  0  3  0  0  0  0  0  0
  189.6690  175.6630  145.9170 C   0  0  0  0  0  0  0  0  0  0  0  0
  190.4840  175.5700  143.6750 N   0  0  0  0  0  0  0  0  0  0  0  0
  190.7140  176.3700  146.4640 C   0  0  0  0  0  0  0  0  0  0  0  0
  187.2180  176.3060  145.8400 N   0  0  0  0  0  0  0  0  0  0  0  0
  197.0960  174.0920  142.0140 N   0  0  0  0  0  0  0  0  0  0  0  0
  195.5780  173.5450  143.7990 N   0  0  0  0  0  1  0  0  0  0  0  0
  197.5080  174.8800  140.9860 C   0  0  0  0  0  3  0  0  0  0  0  0
  195.4750  176.1080  141.1340 N   0  0  0  0  0  0  0  0  0  0  0  0
  195.9100  174.3150  142.6440 C   0  0  0  0  0  0  0  0  0  0  0  0
  195.0540  175.3280  142.1680 C   0  0  0  0  0  0  0  0  0  0  0  0
  196.6720  175.9010  140.5280 C   0  0  0  0  0  3  0  0  0  0  0  0
  185.0560  177.0340  146.7870 C   0  0  0  0  0  1  0  0  0  0  0  0
  186.5670  177.2460  146.7640 C   0  0  0  0  0  2  0  0  0  0  0  0
  189.0210  173.8830  142.5390 C   0  0  0  0  0  2  0  0  0  0  0  0
  189.1200  172.5600  143.2730 C   0  0  0  0  0  2  0  0  0  0  0  0
  190.8310  172.0780  141.6620 N   0  0  0  0  0  0  0  0  0  0  0  0
  189.9540  171.6090  142.4790 C   0  0  0  0  0  3  0  0  0  0  0  0
  191.5900  171.1800  140.8200 C   0  0  0  0  0  2  0  0  0  0  0  0
  193.0590  171.4410  140.9730 C   0  0  0  0  0  0  0  0  0  0  0  0
  193.5290  171.6180  142.1320 O   0  0  0  0  0  0  0  0  0  0  0  0
  193.9280  171.4320  139.8720 O   0  0  0  0  0  0  0  0  0  0  0  0
  194.7200  172.5560  139.5150 C   0  0  0  0  0  2  0  0  0  0  0  0
  193.8190  173.6790  139.0330 C   0  0  0  0  0  2  0  0  0  0  0  0
  195.3150  175.2030  135.3480 O   0  0  0  0  0  1  0  0  0  0  0  0
  193.1510  175.7550  136.2130 C   0  0  0  0  0  0  0  0  0  0  0  0
  193.2050  173.3220  137.7600 N   0  0  0  0  0  0  0  0  0  0  0  0
  191.8800  174.9730  136.3420 C   0  0  0  0  0  2  0  0  0  0  0  0
  194.1890  173.5440  136.6860 C   0  0  0  0  0  2  0  0  0  0  0  0
  191.9780  174.1380  137.6280 C   0  0  1  0  0  3  0  0  0  0  0  0
  193.1150  176.9720  136.0730 O   0  0  0  0  0  0  0  0  0  0  0  0
  194.4540  175.0450  136.4390 C   0  0  1  0  0  3  0  0  0  0  0  0
  190.5670  172.0840  137.2680 N   0  0  0  0  0  1  0  0  0  0  0  0
  189.9040  173.7440  138.7710 O   0  0  0  0  0  0  0  0  0  0  0  0
  190.7410  173.3460  137.9120 C   0  0  0  0  0  0  0  0  0  0  0  0
  1  4  1  6  0  0  0
  1 21  1  0  0  0  0
  2  7  1  0  0  0  0
  3  4  1  0  0  0  0
  5 11  2  0  0  0  0
  6 19  1  0  0  0  0
  6  7  2  0  0  0  0
  7  8  1  0  0  0  0
  8 20  1  0  0  0  0
  8 15  2  0  0  0  0
 10  2  1  0  0  0  0
 11  3  1  0  0  0  0
 13 18  1  1  0  0  0
 14 10  2  0  0  0  0
 14  6  1  0  0  0  0
 16 31  1  6  0  0  0
 16 19  1  0  0  0  0
 16 13  1  0  0  0  0
 17 11  1  6  0  0  0
 17 16  1  0  0  0  0
 17  1  1  0  0  0  0
 18 20  2  0  0  0  0
 18  9  1  0  0  0  0
 19 13  1  0  0  0  0
 20 12  1  0  0  0  0
 21  9  1  0  0  0  0
 21 30  1  0  0  0  0
 22 26  1  0  0  0  0
 24 22  2  0  0  0  0
 25 27  1  0  0  0  0
 26 23  1  0  0  0  0
 27 26  2  0  0  0  0
 27 10  1  0  0  0  0
 28 24  1  0  0  0  0
 28 25  2  0  0  0  0
 30 29  1  0  0  0  0
 31 32  1  0  0  0  0
 33 34  2  0  0  0  0
 34 32  1  0  0  0  0
 35 36  1  0  0  0  0
 35 33  1  0  0  0  0
 36 37  2  0  0  0  0
 38 36  1  0  0  0  0
 39 38  1  0  0  0  0
 40 39  1  0  0  0  0
 42 44  1  0  0  0  0
 42 48  1  0  0  0  0
 43 40  1  0  0  0  0
 44 46  1  0  0  0  0
 45 43  1  0  0  0  0
 46 43  1  0  0  0  0
 46 51  1  6  0  0  0
 47 42  2  0  0  0  0
 48 41  1  6  0  0  0
 48 45  1  0  0  0  0
 49 51  1  0  0  0  0
 51 50  2  0  0  0  0
M  END
>  <MODEL>
9

>  <REMARK>
 VINA RESULT:      -6.5      2.951      8.402
  Name = 
  12 active torsions:
  status: ('A' for Active; 'I' for Inactive)
    1  A    between atoms: C_3  and  C_7
    2  A    between atoms: C_3  and  C_42
    3  A    between atoms: C_4  and  C_24
    4  A    between atoms: C_4  and  O_33
    5  A    between atoms: C_7  and  C_49
    6  A    between atoms: N_8  and  C_24
    7  A    between atoms: C_14  and  N_15
    8  A    between atoms: C_14  and  C_32
    9  A    between atoms: C_26  and  C_47
   10  A    between atoms: C_29  and  C_38
   11  A    between atoms: C_32  and  O_33
   12  A    between atoms: C_43  and  N_51
                            x       y       z     vdW  Elec       q    Type
                         _______ _______ _______ _____ _____    ______ ____

>  <TORSDO>
F 12

$$$$
