=
 OpenBabel11042413503D

 25 28  0  0  1  0  0  0  0  0999 V2000
  186.6090  177.8100  142.8010 N   0  0  0  0  0  0  0  0  0  0  0  0
  187.7950  177.5720  146.7690 C   0  0  0  0  0  3  0  0  0  0  0  0
  186.9790  177.7370  144.1050 C   0  0  0  0  0  0  0  0  0  0  0  0
  184.7580  178.4560  144.7280 C   0  0  0  0  0  0  0  0  0  0  0  0
  183.7480  178.8060  145.6700 N   0  0  0  0  0  1  0  0  0  0  0  0
  184.9790  178.2620  141.0140 C   0  0  0  0  0  1  0  0  0  0  0  0
  188.6960  177.2510  145.7500 C   0  0  0  0  0  0  0  0  0  0  0  0
  186.4880  177.9730  146.4820 C   0  0  0  0  0  0  0  0  0  0  0  0
  185.3570  178.1910  142.4500 C   0  0  0  0  0  0  0  0  0  0  0  0
  184.4500  178.5090  143.4060 N   0  0  0  0  0  0  0  0  0  0  0  0
  188.2790  177.3390  144.4190 C   0  0  0  0  0  3  0  0  0  0  0  0
  185.6140  178.2870  147.6500 C   0  0  0  0  0  1  0  0  0  0  0  0
  186.0570  178.0620  145.1310 C   0  0  0  0  0  0  0  0  0  0  0  0
  191.8970  175.0070  147.2060 N   0  0  0  0  0  2  0  0  0  0  0  0
  190.0740  176.8300  146.0750 C   0  0  0  0  0  0  0  0  0  0  0  0
  190.9620  176.0490  145.1750 C   0  0  2  0  0  3  0  0  0  0  0  0
  192.2160  175.8300  146.0260 C   0  0  1  0  0  3  0  0  0  0  0  0
  190.6030  177.0310  147.2300 N   0  0  0  0  0  0  0  0  0  0  0  0
  191.9450  176.4760  147.3210 C   0  0  1  0  0  3  0  0  0  0  0  0
  191.3060  176.8230  143.9330 C   0  0  0  0  0  0  0  0  0  0  0  0
  191.7520  177.9990  144.0230 O   0  0  0  0  0  0  0  0  0  0  0  0
  191.1180  176.2480  142.6390 N   0  0  0  0  0  2  0  0  0  0  0  0
  190.6040  174.9010  142.4500 C   0  0  0  0  0  2  0  0  0  0  0  0
  188.2690  175.0140  141.2670 N   0  0  0  0  0  0  0  0  0  0  0  0
  189.3000  174.9640  141.7900 C   0  0  0  0  0  0  0  0  0  0  0  0
  1  3  1  0  0  0  0
  3 11  2  0  0  0  0
  3 13  1  0  0  0  0
  4 13  1  0  0  0  0
  4  5  1  0  0  0  0
  6  9  1  0  0  0  0
  7 15  1  0  0  0  0
  7  2  2  0  0  0  0
  8  2  1  0  0  0  0
  8 12  1  0  0  0  0
  9  1  2  0  0  0  0
  9 10  1  0  0  0  0
 10  4  2  0  0  0  0
 11  7  1  0  0  0  0
 13  8  2  0  0  0  0
 15 18  2  0  0  0  0
 16 20  1  6  0  0  0
 16 17  1  0  0  0  0
 16 15  1  0  0  0  0
 17 14  1  1  0  0  0
 17 19  1  0  0  0  0
 18 19  1  0  0  0  0
 19 14  1  1  0  0  0
 20 21  2  0  0  0  0
 22 20  1  0  0  0  0
 23 22  1  0  0  0  0
 24 25  3  0  0  0  0
 25 23  1  0  0  0  0
M  END
>  <MODEL>
1

>  <REMARK>
 VINA RESULT:      -7.2      0.000      0.000
  Name = 
  4 active torsions:
  status: ('A' for Active; 'I' for Inactive)
    1  A    between atoms: C_4  and  C_11
    2  A    between atoms: C_5  and  C_10
    3  A    between atoms: C_12  and  C_22
    4  A    between atoms: C_12  and  N_23
                            x       y       z     vdW  Elec       q    Type
                         _______ _______ _______ _____ _____    ______ ____

>  <TORSDO>
F 4

$$$$
=
 OpenBabel11042413503D

 25 28  0  0  1  0  0  0  0  0999 V2000
  185.5470  177.8190  141.8560 N   0  0  0  0  0  0  0  0  0  0  0  0
  187.9920  177.6730  145.2040 C   0  0  0  0  0  3  0  0  0  0  0  0
  186.3320  177.7770  142.9630 C   0  0  0  0  0  0  0  0  0  0  0  0
  184.4360  178.4930  144.2790 C   0  0  0  0  0  0  0  0  0  0  0  0
  183.7930  178.8540  145.4980 N   0  0  0  0  0  1  0  0  0  0  0  0
  183.4080  178.2220  140.7090 C   0  0  0  0  0  1  0  0  0  0  0  0
  188.5060  177.3380  143.9490 C   0  0  0  0  0  0  0  0  0  0  0  0
  186.6590  178.0590  145.3630 C   0  0  0  0  0  0  0  0  0  0  0  0
  184.2450  178.1840  141.9360 C   0  0  0  0  0  0  0  0  0  0  0  0
  183.7040  178.5150  143.1340 N   0  0  0  0  0  0  0  0  0  0  0  0
  187.6680  177.3940  142.8320 C   0  0  0  0  0  3  0  0  0  0  0  0
  186.2200  178.3910  146.7510 C   0  0  0  0  0  1  0  0  0  0  0  0
  185.8010  178.1160  144.2320 C   0  0  0  0  0  0  0  0  0  0  0  0
  192.6670  177.3600  144.2410 N   0  0  0  0  0  2  0  0  0  0  0  0
  189.9190  176.9340  143.8020 C   0  0  0  0  0  0  0  0  0  0  0  0
  190.6490  176.0290  144.7280 C   0  0  2  0  0  3  0  0  0  0  0  0
  192.0690  176.0170  144.1570 C   0  0  1  0  0  3  0  0  0  0  0  0
  190.6840  177.4170  142.8870 N   0  0  0  0  0  0  0  0  0  0  0  0
  192.0430  176.9060  142.9850 C   0  0  1  0  0  3  0  0  0  0  0  0
  190.0690  174.6420  144.7120 C   0  0  0  0  0  0  0  0  0  0  0  0
  190.1940  173.9150  143.6890 O   0  0  0  0  0  0  0  0  0  0  0  0
  189.3600  174.1340  145.8430 N   0  0  0  0  0  2  0  0  0  0  0  0
  189.1680  174.9100  147.0570 C   0  0  0  0  0  2  0  0  0  0  0  0
  191.4900  175.3530  148.1890 N   0  0  0  0  0  0  0  0  0  0  0  0
  190.4640  175.1570  147.6890 C   0  0  0  0  0  0  0  0  0  0  0  0
  1  9  2  0  0  0  0
  1  3  1  0  0  0  0
  2  8  1  0  0  0  0
  3 13  1  0  0  0  0
  4  5  1  0  0  0  0
  6  9  1  0  0  0  0
  7  2  2  0  0  0  0
  8 12  1  0  0  0  0
  9 10  1  0  0  0  0
 10  4  2  0  0  0  0
 11  3  2  0  0  0  0
 11  7  1  0  0  0  0
 13  4  1  0  0  0  0
 13  8  2  0  0  0  0
 15  7  1  0  0  0  0
 15 16  1  0  0  0  0
 16 20  1  6  0  0  0
 17 14  1  1  0  0  0
 17 16  1  0  0  0  0
 18 15  2  0  0  0  0
 19 18  1  1  0  0  0
 19 17  1  0  0  0  0
 19 14  1  0  0  0  0
 20 22  1  0  0  0  0
 21 20  2  0  0  0  0
 22 23  1  0  0  0  0
 23 25  1  0  0  0  0
 25 24  3  0  0  0  0
M  END
>  <MODEL>
2

>  <REMARK>
 VINA RESULT:      -7.1      1.784      3.128
  Name = 
  4 active torsions:
  status: ('A' for Active; 'I' for Inactive)
    1  A    between atoms: C_4  and  C_11
    2  A    between atoms: C_5  and  C_10
    3  A    between atoms: C_12  and  C_22
    4  A    between atoms: C_12  and  N_23
                            x       y       z     vdW  Elec       q    Type
                         _______ _______ _______ _____ _____    ______ ____

>  <TORSDO>
F 4

$$$$
=
 OpenBabel11042413503D

 25 28  0  0  1  0  0  0  0  0999 V2000
  185.9720  178.1520  144.8980 N   0  0  0  0  0  0  0  0  0  0  0  0
  188.5200  177.0870  141.8030 C   0  0  0  0  0  3  0  0  0  0  0  0
  186.7910  177.8070  143.8730 C   0  0  0  0  0  0  0  0  0  0  0  0
  184.9730  178.2270  142.3380 C   0  0  0  0  0  0  0  0  0  0  0  0
  184.3870  178.2900  141.0410 N   0  0  0  0  0  1  0  0  0  0  0  0
  183.8140  178.8990  145.8140 C   0  0  0  0  0  1  0  0  0  0  0  0
  188.9790  177.0680  143.1230 C   0  0  0  0  0  0  0  0  0  0  0  0
  187.2100  177.4620  141.4950 C   0  0  0  0  0  0  0  0  0  0  0  0
  184.6900  178.5260  144.6730 C   0  0  0  0  0  0  0  0  0  0  0  0
  184.2040  178.5610  143.4080 N   0  0  0  0  0  0  0  0  0  0  0  0
  188.1050  177.4280  144.1530 C   0  0  0  0  0  3  0  0  0  0  0  0
  186.8330  177.4460  140.0510 C   0  0  0  0  0  1  0  0  0  0  0  0
  186.3180  177.8310  142.5370 C   0  0  0  0  0  0  0  0  0  0  0  0
  192.8990  177.1880  144.5420 N   0  0  0  0  0  2  0  0  0  0  0  0
  190.3660  176.6670  143.4280 C   0  0  0  0  0  0  0  0  0  0  0  0
  190.7920  175.9100  144.6340 C   0  0  2  0  0  3  0  0  0  0  0  0
  192.3130  175.8380  144.4830 C   0  0  1  0  0  3  0  0  0  0  0  0
  191.3650  177.0290  142.7010 N   0  0  0  0  0  0  0  0  0  0  0  0
  192.6320  176.5560  143.2380 C   0  0  1  0  0  3  0  0  0  0  0  0
  190.2040  174.5260  144.6500 C   0  0  0  0  0  0  0  0  0  0  0  0
  190.1950  173.8300  143.5990 O   0  0  0  0  0  0  0  0  0  0  0  0
  189.6370  173.9880  145.8460 N   0  0  0  0  0  2  0  0  0  0  0  0
  189.6050  174.7280  147.0960 C   0  0  0  0  0  2  0  0  0  0  0  0
  187.3720  176.0910  147.2490 N   0  0  0  0  0  0  0  0  0  0  0  0
  188.3580  175.4890  147.1810 C   0  0  0  0  0  0  0  0  0  0  0  0
  2  7  1  0  0  0  0
  3 11  1  0  0  0  0
  3  1  1  0  0  0  0
  4 13  1  0  0  0  0
  4 10  2  0  0  0  0
  5  4  1  0  0  0  0
  7 15  1  0  0  0  0
  7 11  2  0  0  0  0
  8  2  2  0  0  0  0
  8 13  1  0  0  0  0
  9  1  2  0  0  0  0
  9  6  1  0  0  0  0
 10  9  1  0  0  0  0
 12  8  1  0  0  0  0
 13  3  2  0  0  0  0
 15 16  1  0  0  0  0
 16 20  1  6  0  0  0
 17 14  1  1  0  0  0
 17 16  1  0  0  0  0
 18 15  2  0  0  0  0
 19 18  1  6  0  0  0
 19 17  1  0  0  0  0
 19 14  1  0  0  0  0
 20 22  1  0  0  0  0
 21 20  2  0  0  0  0
 22 23  1  0  0  0  0
 23 25  1  0  0  0  0
 25 24  3  0  0  0  0
M  END
>  <MODEL>
3

>  <REMARK>
 VINA RESULT:      -6.8      2.164      3.921
  Name = 
  4 active torsions:
  status: ('A' for Active; 'I' for Inactive)
    1  A    between atoms: C_4  and  C_11
    2  A    between atoms: C_5  and  C_10
    3  A    between atoms: C_12  and  C_22
    4  A    between atoms: C_12  and  N_23
                            x       y       z     vdW  Elec       q    Type
                         _______ _______ _______ _____ _____    ______ ____

>  <TORSDO>
F 4

$$$$
=
 OpenBabel11042413503D

 25 28  0  0  1  0  0  0  0  0999 V2000
  188.7380  173.6730  142.5500 N   0  0  0  0  0  0  0  0  0  0  0  0
  188.4810  177.8060  142.7980 C   0  0  0  0  0  3  0  0  0  0  0  0
  188.6730  175.0260  142.6360 C   0  0  0  0  0  0  0  0  0  0  0  0
  190.9930  175.0500  143.3080 C   0  0  0  0  0  0  0  0  0  0  0  0
  192.1990  175.6950  143.7070 N   0  0  0  0  0  1  0  0  0  0  0  0
  189.9290  171.5280  142.7270 C   0  0  0  0  0  1  0  0  0  0  0  0
  187.3640  177.0590  142.4140 C   0  0  0  0  0  0  0  0  0  0  0  0
  189.6970  177.1900  143.1010 C   0  0  0  0  0  0  0  0  0  0  0  0
  189.8850  173.0100  142.8290 C   0  0  0  0  0  0  0  0  0  0  0  0
  190.9930  173.6950  143.2030 N   0  0  0  0  0  0  0  0  0  0  0  0
  187.4690  175.6680  142.3380 C   0  0  0  0  0  3  0  0  0  0  0  0
  190.8210  178.0890  143.4960 C   0  0  0  0  0  1  0  0  0  0  0  0
  189.8110  175.7760  143.0230 C   0  0  0  0  0  0  0  0  0  0  0  0
  183.4180  177.6630  141.2030 N   0  0  0  0  0  2  0  0  0  0  0  0
  186.0870  177.7290  142.0990 C   0  0  0  0  0  0  0  0  0  0  0  0
  184.9940  177.9870  143.0730 C   0  0  2  0  0  3  0  0  0  0  0  0
  183.9010  178.6230  142.2110 C   0  0  1  0  0  3  0  0  0  0  0  0
  185.7650  178.0740  140.9020 N   0  0  0  0  0  0  0  0  0  0  0  0
  184.4370  178.6650  140.8410 C   0  0  1  0  0  3  0  0  0  0  0  0
  185.4300  178.9420  144.1490 C   0  0  0  0  0  0  0  0  0  0  0  0
  185.5270  180.1740  143.9010 O   0  0  0  0  0  0  0  0  0  0  0  0
  185.7540  178.4690  145.4570 N   0  0  0  0  0  2  0  0  0  0  0  0
  185.6730  177.0640  145.8220 C   0  0  0  0  0  2  0  0  0  0  0  0
  188.0810  176.1410  146.2890 N   0  0  0  0  0  0  0  0  0  0  0  0
  187.0180  176.5490  146.0830 C   0  0  0  0  0  0  0  0  0  0  0  0
  1  3  1  0  0  0  0
  1  9  2  0  0  0  0
  2  8  1  0  0  0  0
  3 13  1  0  0  0  0
  4  5  1  0  0  0  0
  6  9  1  0  0  0  0
  7  2  2  0  0  0  0
  8 12  1  0  0  0  0
  9 10  1  0  0  0  0
 10  4  2  0  0  0  0
 11  7  1  0  0  0  0
 11  3  2  0  0  0  0
 13  8  2  0  0  0  0
 13  4  1  0  0  0  0
 15  7  1  0  0  0  0
 15 16  1  0  0  0  0
 16 20  1  1  0  0  0
 17 14  1  6  0  0  0
 17 16  1  0  0  0  0
 18 15  2  0  0  0  0
 19 18  1  1  0  0  0
 19 14  1  0  0  0  0
 19 17  1  0  0  0  0
 20 22  1  0  0  0  0
 21 20  2  0  0  0  0
 22 23  1  0  0  0  0
 23 25  1  0  0  0  0
 25 24  3  0  0  0  0
M  END
>  <MODEL>
4

>  <REMARK>
 VINA RESULT:      -6.7      2.472      6.791
  Name = 
  4 active torsions:
  status: ('A' for Active; 'I' for Inactive)
    1  A    between atoms: C_4  and  C_11
    2  A    between atoms: C_5  and  C_10
    3  A    between atoms: C_12  and  C_22
    4  A    between atoms: C_12  and  N_23
                            x       y       z     vdW  Elec       q    Type
                         _______ _______ _______ _____ _____    ______ ____

>  <TORSDO>
F 4

$$$$
=
 OpenBabel11042413503D

 25 28  0  0  1  0  0  0  0  0999 V2000
  187.7130  177.4940  146.4840 N   0  0  0  0  0  0  0  0  0  0  0  0
  190.1990  177.3840  143.1640 C   0  0  0  0  0  3  0  0  0  0  0  0
  188.5120  177.4650  145.3870 C   0  0  0  0  0  0  0  0  0  0  0  0
  186.6840  178.3650  144.0890 C   0  0  0  0  0  0  0  0  0  0  0  0
  186.0830  178.8310  142.8840 N   0  0  0  0  0  1  0  0  0  0  0  0
  185.5840  177.9590  147.6250 C   0  0  0  0  0  1  0  0  0  0  0  0
  190.6740  176.9550  144.4070 C   0  0  0  0  0  0  0  0  0  0  0  0
  188.8940  177.8570  143.0100 C   0  0  0  0  0  0  0  0  0  0  0  0
  186.4370  177.9400  146.4080 C   0  0  0  0  0  0  0  0  0  0  0  0
  185.9360  178.3680  145.2230 N   0  0  0  0  0  0  0  0  0  0  0  0
  189.8220  176.9980  145.5140 C   0  0  0  0  0  3  0  0  0  0  0  0
  188.4980  178.2910  141.6380 C   0  0  0  0  0  1  0  0  0  0  0  0
  188.0230  177.9050  144.1320 C   0  0  0  0  0  0  0  0  0  0  0  0
  194.1180  175.2930  146.0720 N   0  0  0  0  0  2  0  0  0  0  0  0
  192.0570  176.4580  144.5490 C   0  0  0  0  0  0  0  0  0  0  0  0
  192.5080  175.0820  144.2160 C   0  0  2  0  0  3  0  0  0  0  0  0
  193.9840  175.0900  144.6190 C   0  0  1  0  0  3  0  0  0  0  0  0
  192.9950  177.1660  145.0730 N   0  0  0  0  0  0  0  0  0  0  0  0
  194.2510  176.4360  145.1510 C   0  0  1  0  0  3  0  0  0  0  0  0
  192.3710  174.7980  142.7450 C   0  0  0  0  0  0  0  0  0  0  0  0
  193.2290  175.2390  141.9340 O   0  0  0  0  0  0  0  0  0  0  0  0
  191.2660  174.0430  142.2470 N   0  0  0  0  0  2  0  0  0  0  0  0
  190.2330  173.5040  143.1170 C   0  0  0  0  0  2  0  0  0  0  0  0
  187.8990  174.4460  142.3880 N   0  0  0  0  0  0  0  0  0  0  0  0
  188.9290  174.0300  142.7100 C   0  0  0  0  0  0  0  0  0  0  0  0
  2  7  1  0  0  0  0
  3 11  1  0  0  0  0
  3  1  1  0  0  0  0
  4 13  1  0  0  0  0
  4 10  2  0  0  0  0
  5  4  1  0  0  0  0
  7 15  1  0  0  0  0
  7 11  2  0  0  0  0
  8  2  2  0  0  0  0
  8 13  1  0  0  0  0
  9  1  2  0  0  0  0
  9  6  1  0  0  0  0
 10  9  1  0  0  0  0
 12  8  1  0  0  0  0
 13  3  2  0  0  0  0
 15 18  2  0  0  0  0
 16 20  1  6  0  0  0
 16 15  1  0  0  0  0
 16 17  1  0  0  0  0
 17 19  1  0  0  0  0
 17 14  1  1  0  0  0
 19 18  1  1  0  0  0
 19 14  1  0  0  0  0
 21 20  2  0  0  0  0
 22 20  1  0  0  0  0
 22 23  1  0  0  0  0
 24 25  3  0  0  0  0
 25 23  1  0  0  0  0
M  END
>  <MODEL>
5

>  <REMARK>
 VINA RESULT:      -6.6      1.923      3.307
  Name = 
  4 active torsions:
  status: ('A' for Active; 'I' for Inactive)
    1  A    between atoms: C_4  and  C_11
    2  A    between atoms: C_5  and  C_10
    3  A    between atoms: C_12  and  C_22
    4  A    between atoms: C_12  and  N_23
                            x       y       z     vdW  Elec       q    Type
                         _______ _______ _______ _____ _____    ______ ____

>  <TORSDO>
F 4

$$$$
=
 OpenBabel11042413503D

 25 28  0  0  1  0  0  0  0  0999 V2000
  185.8070  177.9140  141.7890 N   0  0  0  0  0  0  0  0  0  0  0  0
  188.3530  177.3960  145.0230 C   0  0  0  0  0  3  0  0  0  0  0  0
  186.6260  177.7490  142.8590 C   0  0  0  0  0  0  0  0  0  0  0  0
  184.7880  178.3670  144.3010 C   0  0  0  0  0  0  0  0  0  0  0  0
  184.1920  178.6200  145.5700 N   0  0  0  0  0  1  0  0  0  0  0  0
  183.6430  178.4660  140.7580 C   0  0  0  0  0  1  0  0  0  0  0  0
  188.8200  177.1760  143.7240 C   0  0  0  0  0  0  0  0  0  0  0  0
  187.0340  177.7890  145.2630 C   0  0  0  0  0  0  0  0  0  0  0  0
  184.5170  178.2930  141.9470 C   0  0  0  0  0  0  0  0  0  0  0  0
  184.0210  178.5150  143.1900 N   0  0  0  0  0  0  0  0  0  0  0  0
  187.9490  177.3570  142.6470 C   0  0  0  0  0  3  0  0  0  0  0  0
  186.6470  177.9920  146.6900 C   0  0  0  0  0  1  0  0  0  0  0  0
  186.1430  177.9720  144.1720 C   0  0  0  0  0  0  0  0  0  0  0  0
  192.8800  176.4570  144.3590 N   0  0  0  0  0  2  0  0  0  0  0  0
  190.2180  176.7630  143.4920 C   0  0  0  0  0  0  0  0  0  0  0  0
  190.7520  175.3930  143.7090 C   0  0  2  0  0  3  0  0  0  0  0  0
  192.2420  175.5440  143.3950 C   0  0  1  0  0  3  0  0  0  0  0  0
  191.1390  177.5980  143.1600 N   0  0  0  0  0  0  0  0  0  0  0  0
  192.4420  176.9590  143.0440 C   0  0  1  0  0  3  0  0  0  0  0  0
  190.1200  174.4020  142.7720 C   0  0  0  0  0  0  0  0  0  0  0  0
  189.7140  174.7730  141.6380 O   0  0  0  0  0  0  0  0  0  0  0  0
  189.9570  173.0350  143.1560 N   0  0  0  0  0  2  0  0  0  0  0  0
  190.3940  172.5300  144.4470 C   0  0  0  0  0  2  0  0  0  0  0  0
  192.5110  171.0200  144.1250 N   0  0  0  0  0  0  0  0  0  0  0  0
  191.5760  171.6870  144.2670 C   0  0  0  0  0  0  0  0  0  0  0  0
  1  9  2  0  0  0  0
  1  3  1  0  0  0  0
  2  8  1  0  0  0  0
  3 13  1  0  0  0  0
  4  5  1  0  0  0  0
  6  9  1  0  0  0  0
  7  2  2  0  0  0  0
  8 12  1  0  0  0  0
  9 10  1  0  0  0  0
 10  4  2  0  0  0  0
 11  3  2  0  0  0  0
 11  7  1  0  0  0  0
 13  4  1  0  0  0  0
 13  8  2  0  0  0  0
 15 16  1  0  0  0  0
 15  7  1  0  0  0  0
 16 20  1  6  0  0  0
 17 16  1  0  0  0  0
 17 14  1  1  0  0  0
 18 15  2  0  0  0  0
 19 18  1  1  0  0  0
 19 17  1  0  0  0  0
 19 14  1  0  0  0  0
 20 22  1  0  0  0  0
 21 20  2  0  0  0  0
 22 23  1  0  0  0  0
 24 25  3  0  0  0  0
 25 23  1  0  0  0  0
M  END
>  <MODEL>
6

>  <REMARK>
 VINA RESULT:      -6.5      2.104      2.832
  Name = 
  4 active torsions:
  status: ('A' for Active; 'I' for Inactive)
    1  A    between atoms: C_4  and  C_11
    2  A    between atoms: C_5  and  C_10
    3  A    between atoms: C_12  and  C_22
    4  A    between atoms: C_12  and  N_23
                            x       y       z     vdW  Elec       q    Type
                         _______ _______ _______ _____ _____    ______ ____

>  <TORSDO>
F 4

$$$$
=
 OpenBabel11042413503D

 25 28  0  0  1  0  0  0  0  0999 V2000
  186.8480  176.8840  142.0010 N   0  0  0  0  0  0  0  0  0  0  0  0
  188.8060  175.8040  145.4940 C   0  0  0  0  0  3  0  0  0  0  0  0
  187.4790  176.5450  143.1530 C   0  0  0  0  0  0  0  0  0  0  0  0
  186.2710  178.3080  144.2800 C   0  0  0  0  0  0  0  0  0  0  0  0
  185.9230  179.0890  145.4200 N   0  0  0  0  0  1  0  0  0  0  0  0
  185.2770  178.2510  140.6910 C   0  0  0  0  0  1  0  0  0  0  0  0
  189.0610  175.1110  144.3080 C   0  0  0  0  0  0  0  0  0  0  0  0
  187.8960  176.8630  145.5350 C   0  0  0  0  0  0  0  0  0  0  0  0
  185.9530  177.9000  141.9670 C   0  0  0  0  0  0  0  0  0  0  0  0
  185.6740  178.5980  143.0950 N   0  0  0  0  0  0  0  0  0  0  0  0
  188.3930  175.4900  143.1400 C   0  0  0  0  0  3  0  0  0  0  0  0
  187.7030  177.5270  146.8580 C   0  0  0  0  0  1  0  0  0  0  0  0
  187.2120  177.2520  144.3520 C   0  0  0  0  0  0  0  0  0  0  0  0
  191.3340  171.8850  142.9560 N   0  0  0  0  0  2  0  0  0  0  0  0
  190.0280  173.9950  144.2860 C   0  0  0  0  0  0  0  0  0  0  0  0
  191.4760  174.1260  143.9760 C   0  0  2  0  0  3  0  0  0  0  0  0
  191.9740  172.6790  144.0180 C   0  0  1  0  0  3  0  0  0  0  0  0
  189.6720  172.7690  144.4480 N   0  0  0  0  0  0  0  0  0  0  0  0
  190.7960  171.8530  144.3280 C   0  0  1  0  0  3  0  0  0  0  0  0
  192.1880  174.9520  145.0100 C   0  0  0  0  0  0  0  0  0  0  0  0
  192.3620  174.4980  146.1730 O   0  0  0  0  0  0  0  0  0  0  0  0
  192.6630  176.2630  144.6980 N   0  0  0  0  0  2  0  0  0  0  0  0
  192.4970  176.8600  143.3830 C   0  0  0  0  0  2  0  0  0  0  0  0
  190.4860  178.5380  143.4310 N   0  0  0  0  0  0  0  0  0  0  0  0
  191.3740  177.7970  143.4090 C   0  0  0  0  0  0  0  0  0  0  0  0
  1  3  1  0  0  0  0
  2  8  1  0  0  0  0
  3 13  1  0  0  0  0
  4 13  1  0  0  0  0
  4  5  1  0  0  0  0
  6  9  1  0  0  0  0
  7  2  2  0  0  0  0
  8 12  1  0  0  0  0
  9  1  2  0  0  0  0
  9 10  1  0  0  0  0
 10  4  2  0  0  0  0
 11  3  2  0  0  0  0
 11  7  1  0  0  0  0
 13  8  2  0  0  0  0
 15  7  1  0  0  0  0
 15 18  2  0  0  0  0
 16 17  1  0  0  0  0
 16 15  1  0  0  0  0
 16 20  1  1  0  0  0
 17 14  1  6  0  0  0
 17 19  1  0  0  0  0
 19 14  1  6  0  0  0
 19 18  1  0  0  0  0
 20 21  2  0  0  0  0
 22 20  1  0  0  0  0
 23 25  1  0  0  0  0
 23 22  1  0  0  0  0
 25 24  3  0  0  0  0
M  END
>  <MODEL>
7

>  <REMARK>
 VINA RESULT:      -6.5      2.239      3.070
  Name = 
  4 active torsions:
  status: ('A' for Active; 'I' for Inactive)
    1  A    between atoms: C_4  and  C_11
    2  A    between atoms: C_5  and  C_10
    3  A    between atoms: C_12  and  C_22
    4  A    between atoms: C_12  and  N_23
                            x       y       z     vdW  Elec       q    Type
                         _______ _______ _______ _____ _____    ______ ____

>  <TORSDO>
F 4

$$$$
=
 OpenBabel11042413503D

 25 28  0  0  1  0  0  0  0  0999 V2000
  186.7140  177.2880  146.4850 N   0  0  0  0  0  0  0  0  0  0  0  0
  188.9530  176.1730  143.1760 C   0  0  0  0  0  3  0  0  0  0  0  0
  187.4380  176.9370  145.3920 C   0  0  0  0  0  0  0  0  0  0  0  0
  186.2980  178.6610  144.1410 C   0  0  0  0  0  0  0  0  0  0  0  0
  186.0290  179.4150  142.9620 N   0  0  0  0  0  1  0  0  0  0  0  0
  185.0270  178.6540  147.6420 C   0  0  0  0  0  1  0  0  0  0  0  0
  189.1280  175.5090  144.3930 C   0  0  0  0  0  0  0  0  0  0  0  0
  188.0340  177.2170  143.0440 C   0  0  0  0  0  0  0  0  0  0  0  0
  185.8060  178.2910  146.4300 C   0  0  0  0  0  0  0  0  0  0  0  0
  185.6060  178.9640  145.2700 N   0  0  0  0  0  0  0  0  0  0  0  0
  188.3640  175.8980  145.4970 C   0  0  0  0  0  3  0  0  0  0  0  0
  187.9360  177.8540  141.6970 C   0  0  0  0  0  1  0  0  0  0  0  0
  187.2560  177.6180  144.1630 C   0  0  0  0  0  0  0  0  0  0  0  0
  191.7880  172.4660  143.3610 N   0  0  0  0  0  2  0  0  0  0  0  0
  190.1040  174.4080  144.5120 C   0  0  0  0  0  0  0  0  0  0  0  0
  191.5770  174.5790  144.6170 C   0  0  2  0  0  3  0  0  0  0  0  0
  192.0960  173.1390  144.6350 C   0  0  1  0  0  3  0  0  0  0  0  0
  189.7600  173.1700  144.4390 N   0  0  0  0  0  0  0  0  0  0  0  0
  190.9070  172.2780  144.5280 C   0  0  1  0  0  3  0  0  0  0  0  0
  191.9590  175.2860  145.8870 C   0  0  0  0  0  0  0  0  0  0  0  0
  191.4270  174.9560  146.9800 O   0  0  0  0  0  0  0  0  0  0  0  0
  192.9150  176.3480  145.8720 N   0  0  0  0  0  2  0  0  0  0  0  0
  193.5700  176.7920  144.6520 C   0  0  0  0  0  2  0  0  0  0  0  0
  195.9340  175.6760  144.4730 N   0  0  0  0  0  0  0  0  0  0  0  0
  194.8900  176.1690  144.5520 C   0  0  0  0  0  0  0  0  0  0  0  0
  2  7  1  0  0  0  0
  3 11  1  0  0  0  0
  3  1  1  0  0  0  0
  4 13  1  0  0  0  0
  4 10  2  0  0  0  0
  5  4  1  0  0  0  0
  7 15  1  0  0  0  0
  7 11  2  0  0  0  0
  8  2  2  0  0  0  0
  8 13  1  0  0  0  0
  9  1  2  0  0  0  0
  9  6  1  0  0  0  0
 10  9  1  0  0  0  0
 12  8  1  0  0  0  0
 13  3  2  0  0  0  0
 15 16  1  0  0  0  0
 16 17  1  0  0  0  0
 16 20  1  1  0  0  0
 17 14  1  6  0  0  0
 18 15  2  0  0  0  0
 18 19  1  0  0  0  0
 19 14  1  6  0  0  0
 19 17  1  0  0  0  0
 20 21  2  0  0  0  0
 22 20  1  0  0  0  0
 23 22  1  0  0  0  0
 24 25  3  0  0  0  0
 25 23  1  0  0  0  0
M  END
>  <MODEL>
8

>  <REMARK>
 VINA RESULT:      -6.4      2.523      4.181
  Name = 
  4 active torsions:
  status: ('A' for Active; 'I' for Inactive)
    1  A    between atoms: C_4  and  C_11
    2  A    between atoms: C_5  and  C_10
    3  A    between atoms: C_12  and  C_22
    4  A    between atoms: C_12  and  N_23
                            x       y       z     vdW  Elec       q    Type
                         _______ _______ _______ _____ _____    ______ ____

>  <TORSDO>
F 4

$$$$
=
 OpenBabel11042413503D

 25 28  0  0  1  0  0  0  0  0999 V2000
  187.1300  177.2700  146.3750 N   0  0  0  0  0  0  0  0  0  0  0  0
  188.7830  175.7230  142.8990 C   0  0  0  0  0  3  0  0  0  0  0  0
  187.6600  176.7770  145.2280 C   0  0  0  0  0  0  0  0  0  0  0  0
  186.3740  178.4040  143.9880 C   0  0  0  0  0  0  0  0  0  0  0  0
  185.9370  179.0400  142.7900 N   0  0  0  0  0  1  0  0  0  0  0  0
  185.6810  178.8180  147.6240 C   0  0  0  0  0  1  0  0  0  0  0  0
  189.1350  175.1850  144.1400 C   0  0  0  0  0  0  0  0  0  0  0  0
  187.8790  176.7840  142.7980 C   0  0  0  0  0  0  0  0  0  0  0  0
  186.2470  178.2980  146.3520 C   0  0  0  0  0  0  0  0  0  0  0  0
  185.8790  178.8520  145.1710 N   0  0  0  0  0  0  0  0  0  0  0  0
  188.5670  175.7180  145.3000 C   0  0  0  0  0  3  0  0  0  0  0  0
  187.5800  177.2780  141.4220 C   0  0  0  0  0  1  0  0  0  0  0  0
  187.2990  177.3310  143.9740 C   0  0  0  0  0  0  0  0  0  0  0  0
  191.6320  172.0350  143.0230 N   0  0  0  0  0  2  0  0  0  0  0  0
  190.0910  174.0640  144.2240 C   0  0  0  0  0  0  0  0  0  0  0  0
  191.5710  174.2000  144.2040 C   0  0  2  0  0  3  0  0  0  0  0  0
  192.0570  172.7480  144.2400 C   0  0  1  0  0  3  0  0  0  0  0  0
  189.7140  172.8330  144.2300 N   0  0  0  0  0  0  0  0  0  0  0  0
  190.8430  171.9160  144.2630 C   0  0  1  0  0  3  0  0  0  0  0  0
  192.0720  174.9460  145.4100 C   0  0  0  0  0  0  0  0  0  0  0  0
  192.0180  174.4130  146.5510 O   0  0  0  0  0  0  0  0  0  0  0  0
  192.5980  176.2680  145.2840 N   0  0  0  0  0  2  0  0  0  0  0  0
  192.6880  176.9530  144.0050 C   0  0  0  0  0  2  0  0  0  0  0  0
  190.7170  178.6660  143.7900 N   0  0  0  0  0  0  0  0  0  0  0  0
  191.5880  177.9100  143.8850 C   0  0  0  0  0  0  0  0  0  0  0  0
  2  7  1  0  0  0  0
  3 11  1  0  0  0  0
  3  1  1  0  0  0  0
  4 10  2  0  0  0  0
  5  4  1  0  0  0  0
  7 15  1  0  0  0  0
  7 11  2  0  0  0  0
  8  2  2  0  0  0  0
  8 13  1  0  0  0  0
  9  1  2  0  0  0  0
  9  6  1  0  0  0  0
 10  9  1  0  0  0  0
 12  8  1  0  0  0  0
 13  4  1  0  0  0  0
 13  3  2  0  0  0  0
 15 18  2  0  0  0  0
 16 15  1  0  0  0  0
 16 17  1  0  0  0  0
 16 20  1  1  0  0  0
 17 14  1  6  0  0  0
 17 19  1  0  0  0  0
 18 19  1  0  0  0  0
 19 14  1  6  0  0  0
 20 21  2  0  0  0  0
 22 20  1  0  0  0  0
 23 22  1  0  0  0  0
 24 25  3  0  0  0  0
 25 23  1  0  0  0  0
M  END
>  <MODEL>
9

>  <REMARK>
 VINA RESULT:      -6.4      2.397      3.977
  Name = 
  4 active torsions:
  status: ('A' for Active; 'I' for Inactive)
    1  A    between atoms: C_4  and  C_11
    2  A    between atoms: C_5  and  C_10
    3  A    between atoms: C_12  and  C_22
    4  A    between atoms: C_12  and  N_23
                            x       y       z     vdW  Elec       q    Type
                         _______ _______ _______ _____ _____    ______ ____

>  <TORSDO>
F 4

$$$$
