=
 OpenBabel11042418243D

 28 32  0  0  1  0  0  0  0  0999 V2000
  189.3810  176.9260  145.1010 C   0  0  0  0  0  0  0  0  0  0  0  0
  191.3210  177.5350  143.1640 C   0  0  0  0  0  3  0  0  0  0  0  0
  184.2740  178.5660  140.1910 N   0  0  0  0  0  0  0  0  0  0  0  0
  183.5550  177.9270  142.3810 C   0  0  0  0  0  3  0  0  0  0  0  0
  189.9680  177.5810  142.8350 C   0  0  0  0  0  3  0  0  0  0  0  0
  191.7220  177.2090  144.4640 C   0  0  0  0  0  0  0  0  0  0  0  0
  186.5610  177.1700  144.4020 C   0  0  0  0  0  0  0  0  0  0  0  0
  185.5810  178.3990  140.5340 C   0  0  0  0  0  3  0  0  0  0  0  0
  188.9910  177.2880  143.7940 C   0  0  0  0  0  0  0  0  0  0  0  0
  184.8870  177.7510  142.7550 C   0  0  0  0  0  0  0  0  0  0  0  0
  187.2120  177.8200  142.1870 N   0  0  0  0  0  0  0  0  0  0  0  0
  185.9130  177.9880  141.8250 C   0  0  0  0  0  0  0  0  0  0  0  0
  188.3370  176.5900  146.1440 C   0  0  2  0  0  0  0  0  0  0  0  0
  183.2660  178.3400  141.0760 C   0  0  0  0  0  0  0  0  0  0  0  0
  188.6220  175.5410  147.2040 C   0  0  0  0  0  1  0  0  0  0  0  0
  185.2200  177.3390  144.0430 C   0  0  0  0  0  3  0  0  0  0  0  0
  186.8570  176.6770  145.7900 C   0  0  1  0  0  3  0  0  0  0  0  0
  181.9140  178.5250  140.6750 N   0  0  0  0  0  1  0  0  0  0  0  0
  187.5640  177.4170  143.4420 C   0  0  0  0  0  0  0  0  0  0  0  0
  187.5200  177.7690  146.6270 C   0  0  0  0  0  2  0  0  0  0  0  0
  191.1560  176.6310  146.6970 F   0  0  0  0  0  0  0  0  0  0  0  0
  190.7530  176.9170  145.4320 C   0  0  0  0  0  0  0  0  0  0  0  0
  193.1120  177.1730  144.8270 N   0  0  0  0  0  2  0  0  0  0  0  0
  193.1750  174.7520  144.4900 C   0  0  0  0  0  1  0  0  0  0  0  0
  193.9580  175.9840  144.9160 C   0  0  0  0  0  0  0  0  0  0  0  0
  195.1840  176.1480  144.0320 C   0  0  0  0  0  1  0  0  0  0  0  0
  194.4020  175.8190  146.3620 C   0  0  0  0  0  2  0  0  0  0  0  0
  194.1630  176.9710  147.0950 F   0  0  0  0  0  0  0  0  0  0  0  0
  1 22  1  0  0  0  0
  1 13  1  0  0  0  0
  2  6  1  0  0  0  0
  3  8  2  0  0  0  0
  3 14  1  0  0  0  0
  4 10  1  0  0  0  0
  5  2  2  0  0  0  0
  5  9  1  0  0  0  0
  6 23  1  0  0  0  0
  6 22  2  0  0  0  0
  7 17  1  0  0  0  0
  8 12  1  0  0  0  0
  9  1  2  0  0  0  0
 10 16  2  0  0  0  0
 11 19  1  0  0  0  0
 12 11  2  0  0  0  0
 12 10  1  0  0  0  0
 13 20  1  0  0  0  0
 13 15  1  1  0  0  0
 14  4  2  0  0  0  0
 16  7  1  0  0  0  0
 17 13  1  0  0  0  0
 17 20  1  1  0  0  0
 18 14  1  0  0  0  0
 19  9  1  0  0  0  0
 19  7  2  0  0  0  0
 22 21  1  0  0  0  0
 23 25  1  0  0  0  0
 24 25  1  0  0  0  0
 25 27  1  0  0  0  0
 26 25  1  0  0  0  0
 27 28  1  0  0  0  0
M  END
>  <MODEL>
1

>  <REMARK>
 VINA RESULT:      -8.6      0.000      0.000
  Name = 
  3 active torsions:
  status: ('A' for Active; 'I' for Inactive)
    1  A    between atoms: N_3  and  C_7
    2  A    between atoms: N_3  and  C_11
    3  A    between atoms: C_11  and  C_21
                            x       y       z     vdW  Elec       q    Type
                         _______ _______ _______ _____ _____    ______ ____

>  <TORSDO>
F 3

$$$$
=
 OpenBabel11042418243D

 28 32  0  0  1  0  0  0  0  0999 V2000
  189.5590  176.8040  145.1330 C   0  0  0  0  0  0  0  0  0  0  0  0
  191.5000  177.3870  143.1880 C   0  0  0  0  0  3  0  0  0  0  0  0
  184.4570  178.5130  140.2410 N   0  0  0  0  0  0  0  0  0  0  0  0
  183.7370  177.8830  142.4350 C   0  0  0  0  0  3  0  0  0  0  0  0
  190.1470  177.4520  142.8650 C   0  0  0  0  0  3  0  0  0  0  0  0
  191.9020  177.0560  144.4870 C   0  0  0  0  0  0  0  0  0  0  0  0
  186.7400  177.0860  144.4440 C   0  0  0  0  0  0  0  0  0  0  0  0
  185.7620  178.3290  140.5800 C   0  0  0  0  0  3  0  0  0  0  0  0
  189.1700  177.1720  143.8270 C   0  0  0  0  0  0  0  0  0  0  0  0
  185.0680  177.6900  142.8040 C   0  0  0  0  0  0  0  0  0  0  0  0
  187.3910  177.7280  142.2260 N   0  0  0  0  0  0  0  0  0  0  0  0
  186.0940  177.9130  141.8700 C   0  0  0  0  0  0  0  0  0  0  0  0
  188.5150  176.4820  146.1790 C   0  0  2  0  0  0  0  0  0  0  0  0
  183.4490  178.3010  141.1310 C   0  0  0  0  0  0  0  0  0  0  0  0
  188.7900  175.4290  147.2380 C   0  0  0  0  0  1  0  0  0  0  0  0
  185.4000  177.2730  144.0900 C   0  0  0  0  0  3  0  0  0  0  0  0
  187.0350  176.5890  145.8310 C   0  0  1  0  0  3  0  0  0  0  0  0
  182.0980  178.5040  140.7350 N   0  0  0  0  0  1  0  0  0  0  0  0
  187.7430  177.3200  143.4800 C   0  0  0  0  0  0  0  0  0  0  0  0
  187.7160  177.6710  146.6660 C   0  0  0  0  0  2  0  0  0  0  0  0
  191.3360  176.4850  146.7220 F   0  0  0  0  0  0  0  0  0  0  0  0
  190.9320  176.7770  145.4590 C   0  0  0  0  0  0  0  0  0  0  0  0
  193.2920  177.0020  144.8450 N   0  0  0  0  0  2  0  0  0  0  0  0
  194.7710  175.5800  146.1760 C   0  0  0  0  0  1  0  0  0  0  0  0
  194.1550  175.8210  144.8070 C   0  0  0  0  0  0  0  0  0  0  0  0
  193.3540  174.6020  144.3780 C   0  0  0  0  0  1  0  0  0  0  0  0
  195.2640  176.0720  143.7960 C   0  0  0  0  0  2  0  0  0  0  0  0
  196.0420  177.1590  144.1620 F   0  0  0  0  0  0  0  0  0  0  0  0
  1 22  1  0  0  0  0
  1 13  1  0  0  0  0
  2  6  1  0  0  0  0
  3  8  2  0  0  0  0
  3 14  1  0  0  0  0
  4 10  1  0  0  0  0
  5  2  2  0  0  0  0
  5  9  1  0  0  0  0
  6 23  1  0  0  0  0
  6 22  2  0  0  0  0
  7 17  1  0  0  0  0
  8 12  1  0  0  0  0
  9  1  2  0  0  0  0
 10 16  2  0  0  0  0
 11 19  1  0  0  0  0
 12 11  2  0  0  0  0
 12 10  1  0  0  0  0
 13 20  1  0  0  0  0
 13 15  1  1  0  0  0
 14  4  2  0  0  0  0
 16  7  1  0  0  0  0
 17 13  1  0  0  0  0
 17 20  1  1  0  0  0
 18 14  1  0  0  0  0
 19  9  1  0  0  0  0
 19  7  2  0  0  0  0
 22 21  1  0  0  0  0
 25 23  1  0  0  0  0
 25 24  1  0  0  0  0
 26 25  1  0  0  0  0
 27 28  1  0  0  0  0
 27 25  1  0  0  0  0
M  END
>  <MODEL>
2

>  <REMARK>
 VINA RESULT:      -8.5      0.698      1.079
  Name = 
  3 active torsions:
  status: ('A' for Active; 'I' for Inactive)
    1  A    between atoms: N_3  and  C_7
    2  A    between atoms: N_3  and  C_11
    3  A    between atoms: C_11  and  C_21
                            x       y       z     vdW  Elec       q    Type
                         _______ _______ _______ _____ _____    ______ ____

>  <TORSDO>
F 3

$$$$
=
 OpenBabel11042418243D

 28 32  0  0  1  0  0  0  0  0999 V2000
  189.7270  177.3240  145.2230 C   0  0  0  0  0  0  0  0  0  0  0  0
  189.2900  177.8090  142.4910 C   0  0  0  0  0  3  0  0  0  0  0  0
  196.3560  174.8780  143.5060 N   0  0  0  0  0  0  0  0  0  0  0  0
  195.7010  174.8130  145.8070 C   0  0  0  0  0  3  0  0  0  0  0  0
  190.5270  177.3410  142.9280 C   0  0  0  0  0  3  0  0  0  0  0  0
  188.2500  178.0170  143.4040 C   0  0  0  0  0  0  0  0  0  0  0  0
  192.2880  176.2180  146.0690 C   0  0  0  0  0  0  0  0  0  0  0  0
  195.1680  175.4360  143.1480 C   0  0  0  0  0  3  0  0  0  0  0  0
  190.7550  177.0880  144.2850 C   0  0  0  0  0  0  0  0  0  0  0  0
  194.4760  175.3830  145.4620 C   0  0  0  0  0  0  0  0  0  0  0  0
  193.0090  176.2530  143.7820 N   0  0  0  0  0  0  0  0  0  0  0  0
  194.2020  175.7000  144.1210 C   0  0  0  0  0  0  0  0  0  0  0  0
  189.9640  177.0720  146.6960 C   0  0  2  0  0  0  0  0  0  0  0  0
  196.6400  174.5650  144.8000 C   0  0  0  0  0  0  0  0  0  0  0  0
  189.2920  177.9440  147.7410 C   0  0  0  0  0  1  0  0  0  0  0  0
  193.5130  175.6480  146.4320 C   0  0  0  0  0  3  0  0  0  0  0  0
  191.3070  176.5260  147.1650 C   0  0  1  0  0  3  0  0  0  0  0  0
  197.8960  173.9840  145.1300 N   0  0  0  0  0  1  0  0  0  0  0  0
  192.0490  176.5230  144.7130 C   0  0  0  0  0  0  0  0  0  0  0  0
  190.0870  175.6130  147.0780 C   0  0  0  0  0  2  0  0  0  0  0  0
  187.4400  177.9420  145.6360 F   0  0  0  0  0  0  0  0  0  0  0  0
  188.4660  177.7640  144.7650 C   0  0  0  0  0  0  0  0  0  0  0  0
  186.9610  178.4810  142.9720 N   0  0  0  0  0  2  0  0  0  0  0  0
  185.6670  177.7420  141.0330 C   0  0  0  0  0  1  0  0  0  0  0  0
  185.8370  177.6510  142.5410 C   0  0  0  0  0  0  0  0  0  0  0  0
  186.0690  176.2040  142.9480 C   0  0  0  0  0  1  0  0  0  0  0  0
  184.5750  178.1650  143.2190 C   0  0  0  0  0  2  0  0  0  0  0  0
  184.5460  177.8120  144.5590 F   0  0  0  0  0  0  0  0  0  0  0  0
  1 13  1  0  0  0  0
  2  5  2  0  0  0  0
  2  6  1  0  0  0  0
  3 14  1  0  0  0  0
  5  9  1  0  0  0  0
  6 22  2  0  0  0  0
  7 16  1  0  0  0  0
  7 17  1  0  0  0  0
  8  3  2  0  0  0  0
  8 12  1  0  0  0  0
  9 19  1  0  0  0  0
  9  1  2  0  0  0  0
 10  4  1  0  0  0  0
 10 16  2  0  0  0  0
 11 12  2  0  0  0  0
 11 19  1  0  0  0  0
 12 10  1  0  0  0  0
 13 20  1  0  0  0  0
 13 17  1  0  0  0  0
 13 15  1  1  0  0  0
 14 18  1  0  0  0  0
 14  4  2  0  0  0  0
 17 20  1  6  0  0  0
 19  7  2  0  0  0  0
 22  1  1  0  0  0  0
 22 21  1  0  0  0  0
 23  6  1  0  0  0  0
 24 25  1  0  0  0  0
 25 26  1  0  0  0  0
 25 23  1  0  0  0  0
 25 27  1  0  0  0  0
 27 28  1  0  0  0  0
M  END
>  <MODEL>
3

>  <REMARK>
 VINA RESULT:      -8.1      2.374      8.211
  Name = 
  3 active torsions:
  status: ('A' for Active; 'I' for Inactive)
    1  A    between atoms: N_3  and  C_7
    2  A    between atoms: N_3  and  C_11
    3  A    between atoms: C_11  and  C_21
                            x       y       z     vdW  Elec       q    Type
                         _______ _______ _______ _____ _____    ______ ____

>  <TORSDO>
F 3

$$$$
=
 OpenBabel11042418243D

 28 32  0  0  1  0  0  0  0  0999 V2000
  190.6840  176.4110  145.2350 C   0  0  0  0  0  0  0  0  0  0  0  0
  192.4590  176.8620  143.1050 C   0  0  0  0  0  3  0  0  0  0  0  0
  185.2240  178.2030  140.7790 N   0  0  0  0  0  0  0  0  0  0  0  0
  184.6850  177.6610  143.0470 C   0  0  0  0  0  3  0  0  0  0  0  0
  191.0850  176.9750  142.9050 C   0  0  0  0  0  3  0  0  0  0  0  0
  192.9650  176.5480  144.3710 C   0  0  0  0  0  0  0  0  0  0  0  0
  187.8270  176.7920  144.7980 C   0  0  0  0  0  0  0  0  0  0  0  0
  186.5470  177.9740  141.0030 C   0  0  0  0  0  3  0  0  0  0  0  0
  190.1910  176.7600  143.9600 C   0  0  0  0  0  0  0  0  0  0  0  0
  186.0360  177.4220  143.2990 C   0  0  0  0  0  0  0  0  0  0  0  0
  188.2960  177.3480  142.5120 N   0  0  0  0  0  0  0  0  0  0  0  0
  186.9790  177.5770  142.2690 C   0  0  0  0  0  0  0  0  0  0  0  0
  189.7290  176.1600  146.3810 C   0  0  2  0  0  0  0  0  0  0  0  0
  184.2950  178.0560  141.7630 C   0  0  0  0  0  0  0  0  0  0  0  0
  190.0590  175.1250  147.4420 C   0  0  0  0  0  1  0  0  0  0  0  0
  186.4690  177.0250  144.5620 C   0  0  0  0  0  3  0  0  0  0  0  0
  188.2290  176.3190  146.1660 C   0  0  1  0  0  3  0  0  0  0  0  0
  182.9220  178.3050  141.4850 N   0  0  0  0  0  1  0  0  0  0  0  0
  188.7450  176.9580  143.7400 C   0  0  0  0  0  0  0  0  0  0  0  0
  189.0250  177.3940  146.9030 C   0  0  0  0  0  2  0  0  0  0  0  0
  192.5860  176.0610  146.6650 F   0  0  0  0  0  0  0  0  0  0  0  0
  192.0790  176.3350  145.4350 C   0  0  0  0  0  0  0  0  0  0  0  0
  194.3800  176.4460  144.6030 N   0  0  0  0  0  2  0  0  0  0  0  0
  195.5070  174.7990  146.0170 C   0  0  0  0  0  1  0  0  0  0  0  0
  195.1760  175.2190  144.5930 C   0  0  0  0  0  0  0  0  0  0  0  0
  194.4150  174.1070  143.8890 C   0  0  0  0  0  1  0  0  0  0  0  0
  196.4690  175.4950  143.8400 C   0  0  0  0  0  2  0  0  0  0  0  0
  197.5430  174.8490  144.4310 F   0  0  0  0  0  0  0  0  0  0  0  0
  1 22  1  0  0  0  0
  1 13  1  0  0  0  0
  2  6  1  0  0  0  0
  3  8  2  0  0  0  0
  3 14  1  0  0  0  0
  4 10  1  0  0  0  0
  5  2  2  0  0  0  0
  5  9  1  0  0  0  0
  6 23  1  0  0  0  0
  6 22  2  0  0  0  0
  7 17  1  0  0  0  0
  8 12  1  0  0  0  0
  9  1  2  0  0  0  0
 10 16  2  0  0  0  0
 11 19  1  0  0  0  0
 12 11  2  0  0  0  0
 12 10  1  0  0  0  0
 13 20  1  0  0  0  0
 13 15  1  1  0  0  0
 14  4  2  0  0  0  0
 16  7  1  0  0  0  0
 17 13  1  0  0  0  0
 17 20  1  1  0  0  0
 18 14  1  0  0  0  0
 19  9  1  0  0  0  0
 19  7  2  0  0  0  0
 22 21  1  0  0  0  0
 25 23  1  0  0  0  0
 25 24  1  0  0  0  0
 26 25  1  0  0  0  0
 27 28  1  0  0  0  0
 27 25  1  0  0  0  0
M  END
>  <MODEL>
4

>  <REMARK>
 VINA RESULT:      -8.0      1.477      1.807
  Name = 
  3 active torsions:
  status: ('A' for Active; 'I' for Inactive)
    1  A    between atoms: N_3  and  C_7
    2  A    between atoms: N_3  and  C_11
    3  A    between atoms: C_11  and  C_21
                            x       y       z     vdW  Elec       q    Type
                         _______ _______ _______ _____ _____    ______ ____

>  <TORSDO>
F 3

$$$$
=
 OpenBabel11042418243D

 28 32  0  0  1  0  0  0  0  0999 V2000
  189.4090  176.9310  145.6730 C   0  0  0  0  0  0  0  0  0  0  0  0
  188.0320  176.7960  143.2290 C   0  0  0  0  0  3  0  0  0  0  0  0
  195.5570  175.5640  142.0380 N   0  0  0  0  0  0  0  0  0  0  0  0
  195.6930  175.8050  144.4150 C   0  0  0  0  0  3  0  0  0  0  0  0
  189.4200  176.6730  143.2560 C   0  0  0  0  0  3  0  0  0  0  0  0
  187.3140  176.9630  144.4170 C   0  0  0  0  0  0  0  0  0  0  0  0
  192.2970  176.5320  145.6920 C   0  0  0  0  0  0  0  0  0  0  0  0
  194.2170  175.7990  142.0570 C   0  0  0  0  0  3  0  0  0  0  0  0
  190.1170  176.7300  144.4690 C   0  0  0  0  0  0  0  0  0  0  0  0
  194.3200  176.0460  144.4580 C   0  0  0  0  0  0  0  0  0  0  0  0
  192.2330  176.2780  143.3070 N   0  0  0  0  0  0  0  0  0  0  0  0
  193.5710  176.0450  143.2690 C   0  0  0  0  0  0  0  0  0  0  0  0
  190.1510  177.0120  146.9900 C   0  0  2  0  0  0  0  0  0  0  0  0
  196.3010  175.5630  143.1780 C   0  0  0  0  0  0  0  0  0  0  0  0
  189.6440  177.9150  148.1010 C   0  0  0  0  0  1  0  0  0  0  0  0
  193.6750  176.2940  145.6670 C   0  0  0  0  0  3  0  0  0  0  0  0
  191.6640  176.8410  147.0190 C   0  0  1  0  0  3  0  0  0  0  0  0
  197.6990  175.3140  143.1120 N   0  0  0  0  0  1  0  0  0  0  0  0
  191.5770  176.5230  144.4790 C   0  0  0  0  0  0  0  0  0  0  0  0
  190.7470  175.7050  147.4640 C   0  0  0  0  0  2  0  0  0  0  0  0
  187.2880  177.1510  146.7860 F   0  0  0  0  0  0  0  0  0  0  0  0
  188.0010  177.0190  145.6370 C   0  0  0  0  0  0  0  0  0  0  0  0
  185.8810  177.0740  144.4120 N   0  0  0  0  0  2  0  0  0  0  0  0
  186.0250  179.5090  144.2510 C   0  0  0  0  0  1  0  0  0  0  0  0
  185.1040  178.3130  144.4270 C   0  0  0  0  0  0  0  0  0  0  0  0
  184.0660  178.2910  143.3150 C   0  0  0  0  0  1  0  0  0  0  0  0
  184.3960  178.4180  145.7700 C   0  0  0  0  0  2  0  0  0  0  0  0
  184.3780  177.1970  146.4250 F   0  0  0  0  0  0  0  0  0  0  0  0
  1 13  1  0  0  0  0
  2  5  2  0  0  0  0
  2  6  1  0  0  0  0
  3  8  2  0  0  0  0
  3 14  1  0  0  0  0
  4 10  1  0  0  0  0
  5  9  1  0  0  0  0
  6 22  2  0  0  0  0
  7 17  1  0  0  0  0
  8 12  1  0  0  0  0
  9 19  1  0  0  0  0
  9  1  2  0  0  0  0
 10 16  2  0  0  0  0
 11 19  1  0  0  0  0
 12 11  2  0  0  0  0
 12 10  1  0  0  0  0
 13 17  1  0  0  0  0
 13 20  1  0  0  0  0
 13 15  1  1  0  0  0
 14  4  2  0  0  0  0
 16  7  1  0  0  0  0
 17 20  1  1  0  0  0
 18 14  1  0  0  0  0
 19  7  2  0  0  0  0
 22  1  1  0  0  0  0
 22 21  1  0  0  0  0
 23  6  1  0  0  0  0
 23 25  1  0  0  0  0
 24 25  1  0  0  0  0
 25 27  1  0  0  0  0
 26 25  1  0  0  0  0
 27 28  1  0  0  0  0
M  END
>  <MODEL>
5

>  <REMARK>
 VINA RESULT:      -7.6      2.501      8.006
  Name = 
  3 active torsions:
  status: ('A' for Active; 'I' for Inactive)
    1  A    between atoms: N_3  and  C_7
    2  A    between atoms: N_3  and  C_11
    3  A    between atoms: C_11  and  C_21
                            x       y       z     vdW  Elec       q    Type
                         _______ _______ _______ _____ _____    ______ ____

>  <TORSDO>
F 3

$$$$
=
 OpenBabel11042418243D

 28 32  0  0  1  0  0  0  0  0999 V2000
  187.2450  177.6380  145.6360 C   0  0  0  0  0  0  0  0  0  0  0  0
  189.1600  176.7010  143.8080 C   0  0  0  0  0  3  0  0  0  0  0  0
  182.5800  178.2720  140.0950 N   0  0  0  0  0  0  0  0  0  0  0  0
  181.8330  178.9420  142.2670 C   0  0  0  0  0  3  0  0  0  0  0  0
  187.8660  176.9860  143.3780 C   0  0  0  0  0  3  0  0  0  0  0  0
  189.5220  176.9020  145.1440 C   0  0  0  0  0  0  0  0  0  0  0  0
  184.5900  178.3480  144.6630 C   0  0  0  0  0  0  0  0  0  0  0  0
  183.7950  177.9070  140.5870 C   0  0  0  0  0  3  0  0  0  0  0  0
  186.9050  177.4610  144.2780 C   0  0  0  0  0  0  0  0  0  0  0  0
  183.0720  178.5760  142.7930 C   0  0  0  0  0  0  0  0  0  0  0  0
  185.2730  177.6960  142.4570 N   0  0  0  0  0  0  0  0  0  0  0  0
  184.0650  178.0520  141.9490 C   0  0  0  0  0  0  0  0  0  0  0  0
  186.2120  178.1350  146.6240 C   0  0  2  0  0  0  0  0  0  0  0  0
  181.6040  178.7800  140.8970 C   0  0  0  0  0  0  0  0  0  0  0  0
  186.2340  177.6520  148.0640 C   0  0  0  0  0  1  0  0  0  0  0  0
  183.3420  178.7180  144.1520 C   0  0  0  0  0  3  0  0  0  0  0  0
  184.8080  178.4790  146.1430 C   0  0  1  0  0  3  0  0  0  0  0  0
  180.3480  179.1480  140.3410 N   0  0  0  0  0  1  0  0  0  0  0  0
  185.5630  177.8260  143.7850 C   0  0  0  0  0  0  0  0  0  0  0  0
  185.8150  179.5840  146.4520 C   0  0  0  0  0  2  0  0  0  0  0  0
  188.9430  177.5990  147.3400 F   0  0  0  0  0  0  0  0  0  0  0  0
  188.5690  177.3800  146.0520 C   0  0  0  0  0  0  0  0  0  0  0  0
  190.8570  176.6320  145.6020 N   0  0  0  0  0  2  0  0  0  0  0  0
  190.3960  174.2400  145.8120 C   0  0  0  0  0  1  0  0  0  0  0  0
  191.3460  175.3730  146.1640 C   0  0  0  0  0  0  0  0  0  0  0  0
  192.7360  175.0680  145.6300 C   0  0  0  0  0  1  0  0  0  0  0  0
  191.4120  175.5190  147.6780 C   0  0  0  0  0  2  0  0  0  0  0  0
  191.7650  176.8090  148.0430 F   0  0  0  0  0  0  0  0  0  0  0  0
  1 22  1  0  0  0  0
  1 13  1  0  0  0  0
  2  6  1  0  0  0  0
  3  8  2  0  0  0  0
  3 14  1  0  0  0  0
  4 10  1  0  0  0  0
  5  2  2  0  0  0  0
  5  9  1  0  0  0  0
  6 23  1  0  0  0  0
  6 22  2  0  0  0  0
  7 17  1  0  0  0  0
  8 12  1  0  0  0  0
  9  1  2  0  0  0  0
 10 16  2  0  0  0  0
 11 19  1  0  0  0  0
 12 11  2  0  0  0  0
 12 10  1  0  0  0  0
 13 15  1  1  0  0  0
 14  4  2  0  0  0  0
 16  7  1  0  0  0  0
 17 20  1  6  0  0  0
 17 13  1  0  0  0  0
 18 14  1  0  0  0  0
 19  9  1  0  0  0  0
 19  7  2  0  0  0  0
 20 13  1  0  0  0  0
 22 21  1  0  0  0  0
 23 25  1  0  0  0  0
 24 25  1  0  0  0  0
 25 27  1  0  0  0  0
 26 25  1  0  0  0  0
 27 28  1  0  0  0  0
M  END
>  <MODEL>
6

>  <REMARK>
 VINA RESULT:      -7.5      1.651      2.420
  Name = 
  3 active torsions:
  status: ('A' for Active; 'I' for Inactive)
    1  A    between atoms: N_3  and  C_7
    2  A    between atoms: N_3  and  C_11
    3  A    between atoms: C_11  and  C_21
                            x       y       z     vdW  Elec       q    Type
                         _______ _______ _______ _____ _____    ______ ____

>  <TORSDO>
F 3

$$$$
=
 OpenBabel11042418243D

 28 32  0  0  1  0  0  0  0  0999 V2000
  188.8810  175.9140  144.2860 C   0  0  0  0  0  0  0  0  0  0  0  0
  186.6350  177.1310  143.1180 C   0  0  0  0  0  3  0  0  0  0  0  0
  189.1740  171.4480  138.5550 N   0  0  0  0  0  0  0  0  0  0  0  0
  190.7870  171.1410  140.2960 C   0  0  0  0  0  3  0  0  0  0  0  0
  187.3120  176.1180  142.4420 C   0  0  0  0  0  3  0  0  0  0  0  0
  187.0530  177.5310  144.3920 C   0  0  0  0  0  0  0  0  0  0  0  0
  190.1790  173.7080  142.8900 C   0  0  0  0  0  0  0  0  0  0  0  0
  188.6180  172.5030  139.2100 C   0  0  0  0  0  3  0  0  0  0  0  0
  188.4270  175.4980  143.0170 C   0  0  0  0  0  0  0  0  0  0  0  0
  190.2310  172.2190  140.9850 C   0  0  0  0  0  0  0  0  0  0  0  0
  188.5920  173.9590  141.1090 N   0  0  0  0  0  0  0  0  0  0  0  0
  189.1370  172.9100  140.4400 C   0  0  0  0  0  0  0  0  0  0  0  0
  190.0960  175.2650  144.9140 C   0  0  2  0  0  0  0  0  0  0  0  0
  190.2360  170.7670  139.0660 C   0  0  0  0  0  0  0  0  0  0  0  0
  191.0310  176.0770  145.7920 C   0  0  0  0  0  1  0  0  0  0  0  0
  190.7500  172.6270  142.2120 C   0  0  0  0  0  3  0  0  0  0  0  0
  190.8110  174.1330  144.1860 C   0  0  1  0  0  3  0  0  0  0  0  0
  190.7870  169.6700  138.3470 N   0  0  0  0  0  1  0  0  0  0  0  0
  189.0810  174.3790  142.3130 C   0  0  0  0  0  0  0  0  0  0  0  0
  189.8890  173.8360  145.3660 C   0  0  0  0  0  2  0  0  0  0  0  0
  188.5430  177.2940  146.2270 F   0  0  0  0  0  0  0  0  0  0  0  0
  188.1660  176.9150  144.9780 C   0  0  0  0  0  0  0  0  0  0  0  0
  186.3580  178.5610  145.1140 N   0  0  0  0  0  2  0  0  0  0  0  0
  185.1360  176.8820  146.4060 C   0  0  0  0  0  1  0  0  0  0  0  0
  185.3160  178.3640  146.1220 C   0  0  0  0  0  0  0  0  0  0  0  0
  185.6840  179.0960  147.4030 C   0  0  0  0  0  1  0  0  0  0  0  0
  184.0120  178.9320  145.5780 C   0  0  0  0  0  2  0  0  0  0  0  0
  183.8370  178.5990  144.2450 F   0  0  0  0  0  0  0  0  0  0  0  0
  1 13  1  0  0  0  0
  1 22  1  0  0  0  0
  2  6  1  0  0  0  0
  3 14  2  0  0  0  0
  3  8  1  0  0  0  0
  4 10  2  0  0  0  0
  5  9  1  0  0  0  0
  5  2  2  0  0  0  0
  6 22  2  0  0  0  0
  6 23  1  0  0  0  0
  7 17  1  0  0  0  0
  8 12  2  0  0  0  0
  9  1  2  0  0  0  0
 10 16  1  0  0  0  0
 11 19  2  0  0  0  0
 12 10  1  0  0  0  0
 12 11  1  0  0  0  0
 13 20  1  0  0  0  0
 13 15  1  1  0  0  0
 14  4  1  0  0  0  0
 16  7  2  0  0  0  0
 17 13  1  0  0  0  0
 17 20  1  1  0  0  0
 18 14  1  0  0  0  0
 19  7  1  0  0  0  0
 19  9  1  0  0  0  0
 22 21  1  0  0  0  0
 23 25  1  0  0  0  0
 25 24  1  0  0  0  0
 25 26  1  0  0  0  0
 27 25  1  0  0  0  0
 28 27  1  0  0  0  0
M  END
>  <MODEL>
7

>  <REMARK>
 VINA RESULT:      -7.5      4.337      7.063
  Name = 
  3 active torsions:
  status: ('A' for Active; 'I' for Inactive)
    1  A    between atoms: N_3  and  C_7
    2  A    between atoms: N_3  and  C_11
    3  A    between atoms: C_11  and  C_21
                            x       y       z     vdW  Elec       q    Type
                         _______ _______ _______ _____ _____    ______ ____

>  <TORSDO>
F 3

$$$$
=
 OpenBabel11042418243D

 28 32  0  0  1  0  0  0  0  0999 V2000
  188.7210  176.0580  145.0200 C   0  0  0  0  0  0  0  0  0  0  0  0
  187.8290  175.7330  142.3760 C   0  0  0  0  0  3  0  0  0  0  0  0
  194.9020  172.7350  143.1150 N   0  0  0  0  0  0  0  0  0  0  0  0
  194.6520  173.4090  145.3980 C   0  0  0  0  0  3  0  0  0  0  0  0
  189.1130  175.3290  142.7350 C   0  0  0  0  0  3  0  0  0  0  0  0
  186.9670  176.2800  143.3330 C   0  0  0  0  0  0  0  0  0  0  0  0
  191.3650  175.0730  145.7510 C   0  0  0  0  0  0  0  0  0  0  0  0
  193.6810  173.2450  142.7950 C   0  0  0  0  0  3  0  0  0  0  0  0
  189.5660  175.4780  144.0510 C   0  0  0  0  0  0  0  0  0  0  0  0
  193.3970  173.9370  145.0930 C   0  0  0  0  0  0  0  0  0  0  0  0
  191.6820  174.3690  143.4790 N   0  0  0  0  0  0  0  0  0  0  0  0
  192.9040  173.8580  143.7790 C   0  0  0  0  0  0  0  0  0  0  0  0
  189.2020  176.2410  146.4430 C   0  0  2  0  0  0  0  0  0  0  0  0
  195.3980  172.8040  144.3810 C   0  0  0  0  0  0  0  0  0  0  0  0
  188.7390  177.4330  147.2620 C   0  0  0  0  0  1  0  0  0  0  0  0
  192.6220  174.5500  146.0730 C   0  0  0  0  0  3  0  0  0  0  0  0
  190.5940  175.7650  146.8390 C   0  0  1  0  0  3  0  0  0  0  0  0
  196.6790  172.2590  144.6710 N   0  0  0  0  0  1  0  0  0  0  0  0
  190.9030  174.9750  144.4220 C   0  0  0  0  0  0  0  0  0  0  0  0
  189.3590  174.9590  147.2300 C   0  0  0  0  0  2  0  0  0  0  0  0
  186.5520  176.9360  145.5780 F   0  0  0  0  0  0  0  0  0  0  0  0
  187.4090  176.4310  144.6540 C   0  0  0  0  0  0  0  0  0  0  0  0
  185.6330  176.6860  142.9880 N   0  0  0  0  0  2  0  0  0  0  0  0
  183.7880  178.2800  142.7980 C   0  0  0  0  0  1  0  0  0  0  0  0
  185.2330  177.9790  142.4330 C   0  0  0  0  0  0  0  0  0  0  0  0
  186.1400  179.0780  142.9640 C   0  0  0  0  0  1  0  0  0  0  0  0
  185.3630  177.9100  140.9190 C   0  0  0  0  0  2  0  0  0  0  0  0
  186.6330  178.2820  140.5060 F   0  0  0  0  0  0  0  0  0  0  0  0
  1 13  1  0  0  0  0
  2  5  2  0  0  0  0
  2  6  1  0  0  0  0
  3 14  1  0  0  0  0
  5  9  1  0  0  0  0
  6 22  2  0  0  0  0
  7 16  1  0  0  0  0
  7 17  1  0  0  0  0
  8  3  2  0  0  0  0
  8 12  1  0  0  0  0
  9 19  1  0  0  0  0
  9  1  2  0  0  0  0
 10  4  1  0  0  0  0
 10 16  2  0  0  0  0
 11 12  2  0  0  0  0
 11 19  1  0  0  0  0
 12 10  1  0  0  0  0
 13 17  1  0  0  0  0
 13 20  1  0  0  0  0
 13 15  1  1  0  0  0
 14 18  1  0  0  0  0
 14  4  2  0  0  0  0
 17 20  1  1  0  0  0
 19  7  2  0  0  0  0
 22  1  1  0  0  0  0
 22 21  1  0  0  0  0
 23  6  1  0  0  0  0
 25 24  1  0  0  0  0
 25 26  1  0  0  0  0
 25 23  1  0  0  0  0
 27 25  1  0  0  0  0
 28 27  1  0  0  0  0
M  END
>  <MODEL>
8

>  <REMARK>
 VINA RESULT:      -7.3      2.823      8.136
  Name = 
  3 active torsions:
  status: ('A' for Active; 'I' for Inactive)
    1  A    between atoms: N_3  and  C_7
    2  A    between atoms: N_3  and  C_11
    3  A    between atoms: C_11  and  C_21
                            x       y       z     vdW  Elec       q    Type
                         _______ _______ _______ _____ _____    ______ ____

>  <TORSDO>
F 3

$$$$
=
 OpenBabel11042418243D

 28 32  0  0  1  0  0  0  0  0999 V2000
  188.6530  175.2480  143.4060 C   0  0  0  0  0  0  0  0  0  0  0  0
  188.0040  177.2930  145.2190 C   0  0  0  0  0  3  0  0  0  0  0  0
  195.3940  175.2650  146.1330 N   0  0  0  0  0  0  0  0  0  0  0  0
  194.9200  173.7630  144.3310 C   0  0  0  0  0  3  0  0  0  0  0  0
  189.2710  176.7140  145.2440 C   0  0  0  0  0  3  0  0  0  0  0  0
  187.0560  176.8790  144.2770 C   0  0  0  0  0  0  0  0  0  0  0  0
  191.3590  174.1640  143.4080 C   0  0  0  0  0  0  0  0  0  0  0  0
  194.1110  175.7180  146.1380 C   0  0  0  0  0  3  0  0  0  0  0  0
  189.6090  175.7000  144.3400 C   0  0  0  0  0  0  0  0  0  0  0  0
  193.6000  174.2150  144.3170 C   0  0  0  0  0  0  0  0  0  0  0  0
  191.9040  175.6450  145.2150 N   0  0  0  0  0  0  0  0  0  0  0  0
  193.1870  175.2010  145.2280 C   0  0  0  0  0  0  0  0  0  0  0  0
  188.9980  174.1410  142.4340 C   0  0  2  0  0  0  0  0  0  0  0  0
  195.8130  174.3080  145.2600 C   0  0  0  0  0  0  0  0  0  0  0  0
  187.9360  173.1500  141.9920 C   0  0  0  0  0  1  0  0  0  0  0  0
  192.6780  173.6980  143.4110 C   0  0  0  0  0  3  0  0  0  0  0  0
  190.3960  173.5350  142.4410 C   0  0  1  0  0  3  0  0  0  0  0  0
  197.1630  173.8620  145.2910 N   0  0  0  0  0  1  0  0  0  0  0  0
  190.9800  175.1550  144.3380 C   0  0  0  0  0  0  0  0  0  0  0  0
  189.9870  174.5280  141.3560 C   0  0  0  0  0  2  0  0  0  0  0  0
  186.4640  175.4950  142.4390 F   0  0  0  0  0  0  0  0  0  0  0  0
  187.3850  175.8660  143.3660 C   0  0  0  0  0  0  0  0  0  0  0  0
  185.7500  177.4760  144.2230 N   0  0  0  0  0  2  0  0  0  0  0  0
  186.4370  178.9250  142.3770 C   0  0  0  0  0  1  0  0  0  0  0  0
  185.3410  178.5980  143.3780 C   0  0  0  0  0  0  0  0  0  0  0  0
  184.0540  178.2560  142.6440 C   0  0  0  0  0  1  0  0  0  0  0  0
  185.1010  179.8060  144.2710 C   0  0  0  0  0  2  0  0  0  0  0  0
  185.9070  179.7660  145.3980 F   0  0  0  0  0  0  0  0  0  0  0  0
  1  9  1  0  0  0  0
  2  5  1  0  0  0  0
  3  8  1  0  0  0  0
  4 14  1  0  0  0  0
  6  2  2  0  0  0  0
  7 16  2  0  0  0  0
  7 19  1  0  0  0  0
  9  5  2  0  0  0  0
 10  4  2  0  0  0  0
 10 12  1  0  0  0  0
 11 12  1  0  0  0  0
 12  8  2  0  0  0  0
 13 15  1  6  0  0  0
 13 17  1  0  0  0  0
 13  1  1  0  0  0  0
 14 18  1  0  0  0  0
 14  3  2  0  0  0  0
 16 10  1  0  0  0  0
 17 20  1  6  0  0  0
 17  7  1  0  0  0  0
 19  9  1  0  0  0  0
 19 11  2  0  0  0  0
 20 13  1  0  0  0  0
 21 22  1  0  0  0  0
 22  1  2  0  0  0  0
 22  6  1  0  0  0  0
 23  6  1  0  0  0  0
 24 25  1  0  0  0  0
 25 23  1  0  0  0  0
 25 27  1  0  0  0  0
 26 25  1  0  0  0  0
 27 28  1  0  0  0  0
M  END
>  <MODEL>
9

>  <REMARK>
 VINA RESULT:      -7.3      2.877      8.413
  Name = 
  3 active torsions:
  status: ('A' for Active; 'I' for Inactive)
    1  A    between atoms: N_3  and  C_7
    2  A    between atoms: N_3  and  C_11
    3  A    between atoms: C_11  and  C_21
                            x       y       z     vdW  Elec       q    Type
                         _______ _______ _______ _____ _____    ______ ____

>  <TORSDO>
F 3

$$$$
