=
 OpenBabel11042417013D

 38 40  0  0  1  0  0  0  0  0999 V2000
  190.5480  174.5490  144.4190 C   0  0  2  0  0  3  0  0  0  0  0  0
  192.3180  173.7450  138.6040 C   0  0  0  0  0  3  0  0  0  0  0  0
  188.7820  172.7610  140.6290 N   0  0  0  0  0  0  0  0  0  0  0  0
  190.1170  172.9070  138.6170 C   0  0  0  0  0  0  0  0  0  0  0  0
  191.2590  173.2120  137.9530 N   0  0  0  0  0  0  0  0  0  0  0  0
  188.3250  172.8930  141.8340 C   0  0  0  0  0  3  0  0  0  0  0  0
  192.2410  173.9810  139.9360 N   0  0  0  0  0  0  0  0  0  0  0  0
  190.0070  173.1430  139.9980 C   0  0  0  0  0  0  0  0  0  0  0  0
  191.1210  173.7000  140.6560 C   0  0  0  0  0  0  0  0  0  0  0  0
  190.1760  173.9980  143.0740 C   0  0  0  0  0  0  0  0  0  0  0  0
  189.0300  172.3320  137.8970 N   0  0  0  0  0  1  0  0  0  0  0  0
  188.9860  173.5120  142.9380 N   0  0  0  0  0  0  0  0  0  0  0  0
  191.1680  173.9960  142.0480 N   0  0  0  0  0  2  0  0  0  0  0  0
  188.3600  176.7410  146.6310 C   0  0  1  0  0  3  0  0  0  0  0  0
  188.7900  175.3730  146.1370 C   0  0  2  0  0  3  0  0  0  0  0  0
  189.3110  177.7570  146.0010 C   0  0  0  0  0  2  0  0  0  0  0  0
  189.6450  174.7190  147.2160 C   0  0  0  0  0  1  0  0  0  0  0  0
  190.2540  176.9870  145.0970 C   0  0  0  0  0  2  0  0  0  0  0  0
  189.5740  175.6560  144.8560 C   0  0  1  0  0  3  0  0  0  0  0  0
  187.0280  176.9980  146.2030 O   0  0  0  0  0  0  0  0  0  0  0  0
  185.8710  177.5360  148.1270 O   0  0  0  0  0  0  0  0  0  0  0  0
  186.1530  177.8090  146.9270 C   0  0  0  0  0  0  0  0  0  0  0  0
  185.5930  178.9260  146.3030 O   0  0  0  0  0  0  0  0  0  0  0  0
  184.3770  178.8590  145.5640 C   0  0  0  0  0  2  0  0  0  0  0  0
  184.5260  179.5440  144.2130 C   0  0  0  0  0  2  0  0  0  0  0  0
  184.7010  178.5340  143.1250 C   0  0  0  0  0  0  0  0  0  0  0  0
  186.0120  178.1240  142.7170 N   0  0  0  0  0  0  0  0  0  0  0  0
  183.6800  178.0610  142.5590 O   0  0  0  0  0  0  0  0  0  0  0  0
  187.1050  178.6570  143.3170 O   0  0  0  0  0  1  0  0  0  0  0  0
  187.5450  176.5120  141.7050 C   0  0  0  0  0  1  0  0  0  0  0  0
  186.1800  177.1710  141.6250 C   0  0  0  0  0  3  0  0  0  0  0  0
  186.0200  177.8690  140.2880 C   0  0  0  0  0  1  0  0  0  0  0  0
  191.9840  175.0710  144.3920 C   0  0  0  0  0  2  0  0  0  0  0  0
  194.0180  173.8830  144.7150 O   0  0  0  0  0  1  0  0  0  0  0  0
  192.8660  174.3140  145.3730 C   0  0  1  0  0  3  0  0  0  0  0  0
  193.2450  175.2130  146.5370 C   0  0  0  0  0  2  0  0  0  0  0  0
  194.6340  175.7840  146.3280 C   0  0  0  0  0  2  0  0  0  0  0  0
  194.5340  177.1980  146.0210 N   0  0  0  0  0  1  0  0  0  0  0  0
  1 33  1  6  0  0  0
  2  7  1  0  0  0  0
  3  6  2  0  0  0  0
  4  8  2  0  0  0  0
  5  2  2  0  0  0  0
  5  4  1  0  0  0  0
  6 12  1  0  0  0  0
  7  9  2  0  0  0  0
  8  3  1  0  0  0  0
  8  9  1  0  0  0  0
  9 13  1  0  0  0  0
 10  1  1  0  0  0  0
 11  4  1  0  0  0  0
 12 10  2  0  0  0  0
 13 10  1  0  0  0  0
 14 20  1  6  0  0  0
 15 14  1  0  0  0  0
 15 17  1  1  0  0  0
 16 14  1  0  0  0  0
 18 16  1  0  0  0  0
 19  1  1  1  0  0  0
 19 18  1  0  0  0  0
 19 15  1  0  0  0  0
 20 22  1  0  0  0  0
 22 21  2  0  0  0  0
 23 22  1  0  0  0  0
 24 23  1  0  0  0  0
 25 24  1  0  0  0  0
 26 25  1  0  0  0  0
 27 26  1  0  0  0  0
 27 29  1  0  0  0  0
 28 26  2  0  0  0  0
 31 30  1  0  0  0  0
 31 27  1  0  0  0  0
 32 31  1  0  0  0  0
 33 35  1  0  0  0  0
 35 34  1  6  0  0  0
 35 36  1  0  0  0  0
 37 36  1  0  0  0  0
 38 37  1  0  0  0  0
M  END
>  <MODEL>
1

>  <REMARK>
 VINA RESULT:      -6.7      0.000      0.000
  Name = 
  13 active torsions:
  status: ('A' for Active; 'I' for Inactive)
    1  A    between atoms: C_1  and  C_7
    2  A    between atoms: C_3  and  C_18
    3  A    between atoms: C_4  and  O_29
    4  A    between atoms: C_7  and  C_31
    5  A    between atoms: C_10  and  C_19
    6  A    between atoms: C_10  and  C_31
    7  A    between atoms: C_17  and  C_18
    8  A    between atoms: C_17  and  O_26
    9  A    between atoms: C_19  and  C_30
   10  A    between atoms: C_19  and  C_38
   11  A    between atoms: N_21  and  C_24
   12  A    between atoms: O_26  and  C_33
   13  A    between atoms: O_29  and  C_33
                            x       y       z     vdW  Elec       q    Type
                         _______ _______ _______ _____ _____    ______ ____

>  <TORSDO>
F 13

$$$$
=
 OpenBabel11042417013D

 38 40  0  0  1  0  0  0  0  0999 V2000
  191.4310  175.2690  144.4430 C   0  0  2  0  0  3  0  0  0  0  0  0
  188.0630  174.3480  139.4040 C   0  0  0  0  0  3  0  0  0  0  0  0
  191.0840  172.0790  141.2210 N   0  0  0  0  0  0  0  0  0  0  0  0
  189.3780  172.3980  139.5360 C   0  0  0  0  0  0  0  0  0  0  0  0
  188.4060  173.1270  138.9330 N   0  0  0  0  0  0  0  0  0  0  0  0
  191.8350  172.1900  142.2710 C   0  0  0  0  0  3  0  0  0  0  0  0
  188.6950  174.8520  140.4900 N   0  0  0  0  0  0  0  0  0  0  0  0
  190.0480  172.8950  140.6670 C   0  0  0  0  0  0  0  0  0  0  0  0
  189.6740  174.1680  141.1390 C   0  0  0  0  0  0  0  0  0  0  0  0
  191.1660  174.3640  143.2760 C   0  0  0  0  0  0  0  0  0  0  0  0
  189.7200  171.1220  139.0000 N   0  0  0  0  0  1  0  0  0  0  0  0
  191.8180  173.2480  143.2280 N   0  0  0  0  0  0  0  0  0  0  0  0
  190.2570  174.8090  142.2700 N   0  0  0  0  0  2  0  0  0  0  0  0
  188.5150  176.4360  146.5920 C   0  0  1  0  0  3  0  0  0  0  0  0
  189.3500  175.3240  145.9870 C   0  0  2  0  0  3  0  0  0  0  0  0
  189.2110  177.7510  146.2430 C   0  0  0  0  0  2  0  0  0  0  0  0
  190.2360  174.7400  147.0810 C   0  0  0  0  0  1  0  0  0  0  0  0
  190.4160  177.4060  145.3890 C   0  0  0  0  0  2  0  0  0  0  0  0
  190.1530  176.0040  144.8790 C   0  0  1  0  0  3  0  0  0  0  0  0
  187.2140  176.4130  146.0160 O   0  0  0  0  0  0  0  0  0  0  0  0
  186.0680  176.7560  147.9910 O   0  0  0  0  0  0  0  0  0  0  0  0
  186.0740  176.7880  146.7290 C   0  0  0  0  0  0  0  0  0  0  0  0
  184.9390  177.1950  146.0240 O   0  0  0  0  0  0  0  0  0  0  0  0
  184.4440  178.5300  146.0760 C   0  0  0  0  0  2  0  0  0  0  0  0
  183.9800  178.9890  144.7010 C   0  0  0  0  0  2  0  0  0  0  0  0
  185.1490  179.2520  143.8090 C   0  0  0  0  0  0  0  0  0  0  0  0
  185.5800  178.2640  142.8640 N   0  0  0  0  0  0  0  0  0  0  0  0
  185.7630  180.3470  143.9110 O   0  0  0  0  0  0  0  0  0  0  0  0
  184.9260  177.0790  142.7780 O   0  0  0  0  0  1  0  0  0  0  0  0
  186.5720  177.8460  140.6710 C   0  0  0  0  0  1  0  0  0  0  0  0
  186.7490  178.5070  142.0260 C   0  0  0  0  0  3  0  0  0  0  0  0
  187.9990  177.9760  142.7000 C   0  0  0  0  0  1  0  0  0  0  0  0
  192.5360  176.2650  144.0920 C   0  0  0  0  0  2  0  0  0  0  0  0
  194.0980  177.1260  145.6640 O   0  0  0  0  0  1  0  0  0  0  0  0
  193.7980  175.9990  144.8980 C   0  0  1  0  0  3  0  0  0  0  0  0
  193.5940  174.7990  145.8080 C   0  0  0  0  0  2  0  0  0  0  0  0
  194.6400  173.7400  145.5210 C   0  0  0  0  0  2  0  0  0  0  0  0
  195.9620  174.2970  145.7360 N   0  0  0  0  0  1  0  0  0  0  0  0
  1 33  1  6  0  0  0
  2  7  1  0  0  0  0
  3  6  2  0  0  0  0
  4  8  2  0  0  0  0
  5  2  2  0  0  0  0
  5  4  1  0  0  0  0
  6 12  1  0  0  0  0
  7  9  2  0  0  0  0
  8  9  1  0  0  0  0
  8  3  1  0  0  0  0
  9 13  1  0  0  0  0
 10  1  1  0  0  0  0
 11  4  1  0  0  0  0
 12 10  2  0  0  0  0
 13 10  1  0  0  0  0
 14 20  1  6  0  0  0
 15 14  1  0  0  0  0
 15 17  1  1  0  0  0
 16 14  1  0  0  0  0
 18 16  1  0  0  0  0
 19  1  1  1  0  0  0
 19 18  1  0  0  0  0
 19 15  1  0  0  0  0
 20 22  1  0  0  0  0
 22 21  2  0  0  0  0
 23 24  1  0  0  0  0
 23 22  1  0  0  0  0
 25 24  1  0  0  0  0
 26 28  2  0  0  0  0
 26 25  1  0  0  0  0
 27 26  1  0  0  0  0
 29 27  1  0  0  0  0
 30 31  1  0  0  0  0
 31 32  1  0  0  0  0
 31 27  1  0  0  0  0
 33 35  1  0  0  0  0
 35 34  1  1  0  0  0
 35 36  1  0  0  0  0
 37 38  1  0  0  0  0
 37 36  1  0  0  0  0
M  END
>  <MODEL>
2

>  <REMARK>
 VINA RESULT:      -6.6      1.577      2.046
  Name = 
  13 active torsions:
  status: ('A' for Active; 'I' for Inactive)
    1  A    between atoms: C_1  and  C_7
    2  A    between atoms: C_3  and  C_18
    3  A    between atoms: C_4  and  O_29
    4  A    between atoms: C_7  and  C_31
    5  A    between atoms: C_10  and  C_19
    6  A    between atoms: C_10  and  C_31
    7  A    between atoms: C_17  and  C_18
    8  A    between atoms: C_17  and  O_26
    9  A    between atoms: C_19  and  C_30
   10  A    between atoms: C_19  and  C_38
   11  A    between atoms: N_21  and  C_24
   12  A    between atoms: O_26  and  C_33
   13  A    between atoms: O_29  and  C_33
                            x       y       z     vdW  Elec       q    Type
                         _______ _______ _______ _____ _____    ______ ____

>  <TORSDO>
F 13

$$$$
=
 OpenBabel11042417013D

 38 40  0  0  1  0  0  0  0  0999 V2000
  190.5960  174.4080  144.4640 C   0  0  2  0  0  3  0  0  0  0  0  0
  191.0690  169.2140  141.2410 C   0  0  0  0  0  3  0  0  0  0  0  0
  189.6160  173.0180  140.2460 N   0  0  0  0  0  0  0  0  0  0  0  0
  190.2070  170.7440  139.6710 C   0  0  0  0  0  0  0  0  0  0  0  0
  190.6660  169.5070  139.9840 N   0  0  0  0  0  0  0  0  0  0  0  0
  189.4830  174.1570  140.8500 C   0  0  0  0  0  3  0  0  0  0  0  0
  191.0160  170.1650  142.2040 N   0  0  0  0  0  0  0  0  0  0  0  0
  190.1450  171.7520  140.6490 C   0  0  0  0  0  0  0  0  0  0  0  0
  190.5700  171.4250  141.9510 C   0  0  0  0  0  0  0  0  0  0  0  0
  190.3350  173.7360  143.1480 C   0  0  0  0  0  0  0  0  0  0  0  0
  189.7770  171.0070  138.3380 N   0  0  0  0  0  1  0  0  0  0  0  0
  189.8660  174.4660  142.1890 N   0  0  0  0  0  0  0  0  0  0  0  0
  190.5670  172.3310  143.0500 N   0  0  0  0  0  2  0  0  0  0  0  0
  188.1510  176.5510  146.4410 C   0  0  1  0  0  3  0  0  0  0  0  0
  188.7260  175.1960  146.0770 C   0  0  2  0  0  3  0  0  0  0  0  0
  189.0090  177.6000  145.7350 C   0  0  0  0  0  2  0  0  0  0  0  0
  189.6170  174.7300  147.2220 C   0  0  0  0  0  1  0  0  0  0  0  0
  190.0450  176.8540  144.9170 C   0  0  0  0  0  2  0  0  0  0  0  0
  189.5070  175.4440  144.7860 C   0  0  1  0  0  3  0  0  0  0  0  0
  186.8100  176.6340  145.9720 O   0  0  0  0  0  0  0  0  0  0  0  0
  185.8810  177.0710  148.0410 O   0  0  0  0  0  0  0  0  0  0  0  0
  185.7590  177.0650  146.7840 C   0  0  0  0  0  0  0  0  0  0  0  0
  184.5700  177.4860  146.1850 O   0  0  0  0  0  0  0  0  0  0  0  0
  184.2830  178.8580  145.9360 C   0  0  0  0  0  2  0  0  0  0  0  0
  183.9580  179.0860  144.4660 C   0  0  0  0  0  2  0  0  0  0  0  0
  185.1710  178.8770  143.6190 C   0  0  0  0  0  0  0  0  0  0  0  0
  185.0640  178.2360  142.3410 N   0  0  0  0  0  0  0  0  0  0  0  0
  186.2920  179.2560  144.0500 O   0  0  0  0  0  0  0  0  0  0  0  0
  183.8560  177.8120  141.8960 O   0  0  0  0  0  1  0  0  0  0  0  0
  185.8830  177.8410  140.0730 C   0  0  0  0  0  1  0  0  0  0  0  0
  186.2560  177.9950  141.5360 C   0  0  0  0  0  3  0  0  0  0  0  0
  186.9740  176.7490  142.0200 C   0  0  0  0  0  1  0  0  0  0  0  0
  191.9780  175.0590  144.4530 C   0  0  0  0  0  2  0  0  0  0  0  0
  193.0770  173.1210  145.2830 O   0  0  0  0  0  1  0  0  0  0  0  0
  192.8730  174.4770  145.5360 C   0  0  1  0  0  3  0  0  0  0  0  0
  194.2090  175.2010  145.5570 C   0  0  0  0  0  2  0  0  0  0  0  0
  194.1820  176.3210  146.5790 C   0  0  0  0  0  2  0  0  0  0  0  0
  194.6830  177.5400  145.9720 N   0  0  0  0  0  1  0  0  0  0  0  0
  1 33  1  6  0  0  0
  2  7  1  0  0  0  0
  3  8  1  0  0  0  0
  3  6  2  0  0  0  0
  4  5  1  0  0  0  0
  4  8  2  0  0  0  0
  5  2  2  0  0  0  0
  6 12  1  0  0  0  0
  8  9  1  0  0  0  0
  9  7  2  0  0  0  0
  9 13  1  0  0  0  0
 10  1  1  0  0  0  0
 11  4  1  0  0  0  0
 12 10  2  0  0  0  0
 13 10  1  0  0  0  0
 14 20  1  6  0  0  0
 15 14  1  0  0  0  0
 15 17  1  1  0  0  0
 16 14  1  0  0  0  0
 18 16  1  0  0  0  0
 19  1  1  1  0  0  0
 19 18  1  0  0  0  0
 19 15  1  0  0  0  0
 20 22  1  0  0  0  0
 22 21  2  0  0  0  0
 23 22  1  0  0  0  0
 24 23  1  0  0  0  0
 25 24  1  0  0  0  0
 26 28  2  0  0  0  0
 26 25  1  0  0  0  0
 27 26  1  0  0  0  0
 29 27  1  0  0  0  0
 30 31  1  0  0  0  0
 31 32  1  0  0  0  0
 31 27  1  0  0  0  0
 33 35  1  0  0  0  0
 35 34  1  6  0  0  0
 35 36  1  0  0  0  0
 36 37  1  0  0  0  0
 38 37  1  0  0  0  0
M  END
>  <MODEL>
3

>  <REMARK>
 VINA RESULT:      -6.6      1.519      1.960
  Name = 
  13 active torsions:
  status: ('A' for Active; 'I' for Inactive)
    1  A    between atoms: C_1  and  C_7
    2  A    between atoms: C_3  and  C_18
    3  A    between atoms: C_4  and  O_29
    4  A    between atoms: C_7  and  C_31
    5  A    between atoms: C_10  and  C_19
    6  A    between atoms: C_10  and  C_31
    7  A    between atoms: C_17  and  C_18
    8  A    between atoms: C_17  and  O_26
    9  A    between atoms: C_19  and  C_30
   10  A    between atoms: C_19  and  C_38
   11  A    between atoms: N_21  and  C_24
   12  A    between atoms: O_26  and  C_33
   13  A    between atoms: O_29  and  C_33
                            x       y       z     vdW  Elec       q    Type
                         _______ _______ _______ _____ _____    ______ ____

>  <TORSDO>
F 13

$$$$
=
 OpenBabel11042417013D

 38 40  0  0  1  0  0  0  0  0999 V2000
  188.9220  175.5410  141.9180 C   0  0  2  0  0  3  0  0  0  0  0  0
  194.2770  172.8800  143.2740 C   0  0  0  0  0  3  0  0  0  0  0  0
  192.9420  176.8410  143.5990 N   0  0  0  0  0  0  0  0  0  0  0  0
  194.6020  175.1150  143.9450 C   0  0  0  0  0  0  0  0  0  0  0  0
  195.0480  173.8390  143.8360 N   0  0  0  0  0  0  0  0  0  0  0  0
  191.8460  177.4840  143.3460 C   0  0  0  0  0  3  0  0  0  0  0  0
  193.0420  173.1940  142.8130 N   0  0  0  0  0  0  0  0  0  0  0  0
  193.3230  175.4680  143.4790 C   0  0  0  0  0  0  0  0  0  0  0  0
  192.5380  174.4540  142.8980 C   0  0  0  0  0  0  0  0  0  0  0  0
  190.3180  175.7500  142.4270 C   0  0  0  0  0  0  0  0  0  0  0  0
  195.4520  176.0990  144.5300 N   0  0  0  0  0  1  0  0  0  0  0  0
  190.6300  176.9360  142.8390 N   0  0  0  0  0  0  0  0  0  0  0  0
  191.2260  174.6510  142.3780 N   0  0  0  0  0  2  0  0  0  0  0  0
  186.1460  178.0620  142.5640 C   0  0  1  0  0  3  0  0  0  0  0  0
  187.4610  177.6820  141.9130 C   0  0  2  0  0  3  0  0  0  0  0  0
  185.6090  176.8030  143.2440 C   0  0  0  0  0  2  0  0  0  0  0  0
  187.2050  177.4160  140.4340 C   0  0  0  0  0  1  0  0  0  0  0  0
  186.6390  175.7090  143.0360 C   0  0  0  0  0  2  0  0  0  0  0  0
  187.9170  176.4330  142.6660 C   0  0  1  0  0  3  0  0  0  0  0  0
  186.3790  179.0720  143.5390 O   0  0  0  0  0  0  0  0  0  0  0  0
  184.3300  179.7690  144.3440 O   0  0  0  0  0  0  0  0  0  0  0  0
  185.4870  179.3230  144.5830 C   0  0  0  0  0  0  0  0  0  0  0  0
  185.8960  179.0780  145.8960 O   0  0  0  0  0  0  0  0  0  0  0  0
  185.9910  177.7630  146.4340 C   0  0  0  0  0  2  0  0  0  0  0  0
  187.2650  177.6020  147.2500 C   0  0  0  0  0  2  0  0  0  0  0  0
  188.3660  177.0470  146.4060 C   0  0  0  0  0  0  0  0  0  0  0  0
  188.8720  175.7270  146.6450 N   0  0  0  0  0  0  0  0  0  0  0  0
  188.8570  177.7630  145.4930 O   0  0  0  0  0  0  0  0  0  0  0  0
  188.3520  174.9740  147.6450 O   0  0  0  0  0  1  0  0  0  0  0  0
  189.7690  173.7300  145.5590 C   0  0  0  0  0  1  0  0  0  0  0  0
  189.9770  175.2060  145.8470 C   0  0  0  0  0  3  0  0  0  0  0  0
  191.2920  175.4110  146.5740 C   0  0  0  0  0  1  0  0  0  0  0  0
  188.5370  174.0670  142.0420 C   0  0  0  0  0  2  0  0  0  0  0  0
  188.6000  174.3750  139.6850 O   0  0  0  0  0  1  0  0  0  0  0  0
  188.4230  173.4080  140.6760 C   0  0  1  0  0  3  0  0  0  0  0  0
  189.4780  172.3240  140.5280 C   0  0  0  0  0  2  0  0  0  0  0  0
  189.7230  171.6460  141.8620 C   0  0  0  0  0  2  0  0  0  0  0  0
  190.6360  170.5350  141.6780 N   0  0  0  0  0  1  0  0  0  0  0  0
  1 33  1  1  0  0  0
  1 10  1  0  0  0  0
  2  5  2  0  0  0  0
  4 11  1  0  0  0  0
  5  4  1  0  0  0  0
  6  3  2  0  0  0  0
  7  9  2  0  0  0  0
  7  2  1  0  0  0  0
  8  3  1  0  0  0  0
  8  4  2  0  0  0  0
  9  8  1  0  0  0  0
 10 12  2  0  0  0  0
 12  6  1  0  0  0  0
 13 10  1  0  0  0  0
 13  9  1  0  0  0  0
 14 16  1  0  0  0  0
 14 20  1  1  0  0  0
 15 17  1  6  0  0  0
 15 14  1  0  0  0  0
 15 19  1  0  0  0  0
 18 16  1  0  0  0  0
 19  1  1  6  0  0  0
 19 18  1  0  0  0  0
 20 22  1  0  0  0  0
 21 22  2  0  0  0  0
 22 23  1  0  0  0  0
 23 24  1  0  0  0  0
 24 25  1  0  0  0  0
 26 27  1  0  0  0  0
 26 25  1  0  0  0  0
 27 29  1  0  0  0  0
 28 26  2  0  0  0  0
 30 31  1  0  0  0  0
 31 32  1  0  0  0  0
 31 27  1  0  0  0  0
 35 34  1  6  0  0  0
 35 33  1  0  0  0  0
 36 35  1  0  0  0  0
 36 37  1  0  0  0  0
 38 37  1  0  0  0  0
M  END
>  <MODEL>
4

>  <REMARK>
 VINA RESULT:      -6.5      2.432      5.575
  Name = 
  13 active torsions:
  status: ('A' for Active; 'I' for Inactive)
    1  A    between atoms: C_1  and  C_7
    2  A    between atoms: C_3  and  C_18
    3  A    between atoms: C_4  and  O_29
    4  A    between atoms: C_7  and  C_31
    5  A    between atoms: C_10  and  C_19
    6  A    between atoms: C_10  and  C_31
    7  A    between atoms: C_17  and  C_18
    8  A    between atoms: C_17  and  O_26
    9  A    between atoms: C_19  and  C_30
   10  A    between atoms: C_19  and  C_38
   11  A    between atoms: N_21  and  C_24
   12  A    between atoms: O_26  and  C_33
   13  A    between atoms: O_29  and  C_33
                            x       y       z     vdW  Elec       q    Type
                         _______ _______ _______ _____ _____    ______ ____

>  <TORSDO>
F 13

$$$$
=
 OpenBabel11042417013D

 38 40  0  0  1  0  0  0  0  0999 V2000
  187.9370  176.1360  143.0350 C   0  0  2  0  0  3  0  0  0  0  0  0
  188.7060  173.2890  137.6600 C   0  0  0  0  0  3  0  0  0  0  0  0
  189.8310  172.2710  141.5680 N   0  0  0  0  0  0  0  0  0  0  0  0
  189.6410  171.7790  139.2070 C   0  0  0  0  0  0  0  0  0  0  0  0
  189.2910  172.1020  137.9370 N   0  0  0  0  0  0  0  0  0  0  0  0
  189.7100  172.7990  142.7450 C   0  0  0  0  0  3  0  0  0  0  0  0
  188.4640  174.1710  138.6600 N   0  0  0  0  0  0  0  0  0  0  0  0
  189.3990  172.6730  140.2650 C   0  0  0  0  0  0  0  0  0  0  0  0
  188.7890  173.9030  139.9530 C   0  0  0  0  0  0  0  0  0  0  0  0
  188.5140  174.9410  142.3360 C   0  0  0  0  0  0  0  0  0  0  0  0
  190.2700  170.5240  139.4550 N   0  0  0  0  0  1  0  0  0  0  0  0
  189.0550  174.0240  143.0710 N   0  0  0  0  0  0  0  0  0  0  0  0
  188.4800  174.9130  140.9100 N   0  0  0  0  0  2  0  0  0  0  0  0
  189.3180  177.0420  146.4640 C   0  0  1  0  0  3  0  0  0  0  0  0
  189.5270  176.7350  144.9940 C   0  0  2  0  0  3  0  0  0  0  0  0
  187.8080  177.0930  146.6950 C   0  0  0  0  0  2  0  0  0  0  0  0
  189.8120  178.0440  144.2660 C   0  0  0  0  0  1  0  0  0  0  0  0
  187.1420  176.7600  145.3740 C   0  0  0  0  0  2  0  0  0  0  0  0
  188.2170  176.0860  144.5470 C   0  0  1  0  0  3  0  0  0  0  0  0
  189.8890  176.0000  147.2470 O   0  0  0  0  0  0  0  0  0  0  0  0
  191.4660  177.0230  148.5880 O   0  0  0  0  0  0  0  0  0  0  0  0
  191.1710  176.0900  147.7900 C   0  0  0  0  0  0  0  0  0  0  0  0
  192.1250  175.1330  147.4350 O   0  0  0  0  0  0  0  0  0  0  0  0
  192.6030  174.9870  146.1010 C   0  0  0  0  0  2  0  0  0  0  0  0
  193.3880  176.2180  145.6700 C   0  0  0  0  0  2  0  0  0  0  0  0
  194.4970  175.8390  144.7430 C   0  0  0  0  0  0  0  0  0  0  0  0
  194.3190  175.9210  143.3230 N   0  0  0  0  0  0  0  0  0  0  0  0
  195.5860  175.4290  145.2270 O   0  0  0  0  0  0  0  0  0  0  0  0
  193.1360  176.3430  142.8130 O   0  0  0  0  0  1  0  0  0  0  0  0
  196.1170  176.7240  141.8760 C   0  0  0  0  0  1  0  0  0  0  0  0
  195.3900  175.5090  142.4220 C   0  0  0  0  0  3  0  0  0  0  0  0
  194.8270  174.6870  141.2780 C   0  0  0  0  0  1  0  0  0  0  0  0
  186.4360  176.2260  142.7650 C   0  0  0  0  0  2  0  0  0  0  0  0
  186.3380  177.5390  140.7850 O   0  0  0  0  0  1  0  0  0  0  0  0
  186.0630  177.5680  142.1520 C   0  0  1  0  0  3  0  0  0  0  0  0
  184.5870  177.8520  142.3730 C   0  0  0  0  0  2  0  0  0  0  0  0
  184.3870  178.5970  143.6780 C   0  0  0  0  0  2  0  0  0  0  0  0
  185.4310  179.5920  143.8310 N   0  0  0  0  0  1  0  0  0  0  0  0
  1 33  1  1  0  0  0
  2  5  2  0  0  0  0
  2  7  1  0  0  0  0
  3  6  2  0  0  0  0
  4 11  1  0  0  0  0
  4  8  2  0  0  0  0
  5  4  1  0  0  0  0
  6 12  1  0  0  0  0
  7  9  2  0  0  0  0
  8  3  1  0  0  0  0
  9  8  1  0  0  0  0
  9 13  1  0  0  0  0
 10  1  1  0  0  0  0
 10 12  2  0  0  0  0
 13 10  1  0  0  0  0
 14 16  1  0  0  0  0
 14 20  1  1  0  0  0
 15 17  1  6  0  0  0
 15 14  1  0  0  0  0
 18 16  1  0  0  0  0
 19  1  1  6  0  0  0
 19 15  1  0  0  0  0
 19 18  1  0  0  0  0
 20 22  1  0  0  0  0
 22 21  2  0  0  0  0
 23 22  1  0  0  0  0
 24 23  1  0  0  0  0
 25 24  1  0  0  0  0
 26 28  2  0  0  0  0
 26 25  1  0  0  0  0
 27 26  1  0  0  0  0
 29 27  1  0  0  0  0
 30 31  1  0  0  0  0
 31 27  1  0  0  0  0
 32 31  1  0  0  0  0
 35 34  1  6  0  0  0
 35 36  1  0  0  0  0
 35 33  1  0  0  0  0
 36 37  1  0  0  0  0
 37 38  1  0  0  0  0
M  END
>  <MODEL>
5

>  <REMARK>
 VINA RESULT:      -6.5      2.262      6.397
  Name = 
  13 active torsions:
  status: ('A' for Active; 'I' for Inactive)
    1  A    between atoms: C_1  and  C_7
    2  A    between atoms: C_3  and  C_18
    3  A    between atoms: C_4  and  O_29
    4  A    between atoms: C_7  and  C_31
    5  A    between atoms: C_10  and  C_19
    6  A    between atoms: C_10  and  C_31
    7  A    between atoms: C_17  and  C_18
    8  A    between atoms: C_17  and  O_26
    9  A    between atoms: C_19  and  C_30
   10  A    between atoms: C_19  and  C_38
   11  A    between atoms: N_21  and  C_24
   12  A    between atoms: O_26  and  C_33
   13  A    between atoms: O_29  and  C_33
                            x       y       z     vdW  Elec       q    Type
                         _______ _______ _______ _____ _____    ______ ____

>  <TORSDO>
F 13

$$$$
=
 OpenBabel11042417013D

 38 40  0  0  1  0  0  0  0  0999 V2000
  189.8280  175.7120  144.5760 C   0  0  2  0  0  3  0  0  0  0  0  0
  184.7290  179.0560  145.2110 C   0  0  0  0  0  3  0  0  0  0  0  0
  186.2700  176.8610  141.9880 N   0  0  0  0  0  0  0  0  0  0  0  0
  184.5390  178.1950  143.0270 C   0  0  0  0  0  0  0  0  0  0  0  0
  184.0350  178.9160  144.0590 N   0  0  0  0  0  0  0  0  0  0  0  0
  187.3180  176.1330  141.7670 C   0  0  0  0  0  3  0  0  0  0  0  0
  185.9430  178.4690  145.3410 N   0  0  0  0  0  0  0  0  0  0  0  0
  185.7950  177.5730  143.1350 C   0  0  0  0  0  0  0  0  0  0  0  0
  186.5000  177.7320  144.3430 C   0  0  0  0  0  0  0  0  0  0  0  0
  188.5920  176.2290  143.9020 C   0  0  0  0  0  0  0  0  0  0  0  0
  183.7820  178.0850  141.8240 N   0  0  0  0  0  1  0  0  0  0  0  0
  188.3590  175.8260  142.6950 N   0  0  0  0  0  0  0  0  0  0  0  0
  187.7800  177.1670  144.6080 N   0  0  0  0  0  2  0  0  0  0  0  0
  193.0990  175.0350  142.7520 C   0  0  1  0  0  3  0  0  0  0  0  0
  192.0830  176.0010  143.3290 C   0  0  2  0  0  3  0  0  0  0  0  0
  192.6500  173.6300  143.1510 C   0  0  0  0  0  2  0  0  0  0  0  0
  192.6450  176.5700  144.6270 C   0  0  0  0  0  1  0  0  0  0  0  0
  191.3450  173.7760  143.9100 C   0  0  0  0  0  2  0  0  0  0  0  0
  190.8300  175.1540  143.5510 C   0  0  1  0  0  3  0  0  0  0  0  0
  193.1060  175.1520  141.3340 O   0  0  0  0  0  0  0  0  0  0  0  0
  194.6880  174.7550  139.7000 O   0  0  0  0  0  0  0  0  0  0  0  0
  194.2510  175.5040  140.6180 C   0  0  0  0  0  0  0  0  0  0  0  0
  194.9080  176.6940  140.9350 O   0  0  0  0  0  0  0  0  0  0  0  0
  196.2780  176.7320  141.3230 C   0  0  0  0  0  2  0  0  0  0  0  0
  196.4180  176.6040  142.8330 C   0  0  0  0  0  2  0  0  0  0  0  0
  196.7850  175.2060  143.2120 C   0  0  0  0  0  0  0  0  0  0  0  0
  196.4050  174.6740  144.4880 N   0  0  0  0  0  0  0  0  0  0  0  0
  197.4500  174.5060  142.4020 O   0  0  0  0  0  0  0  0  0  0  0  0
  195.7090  175.4430  145.3610 O   0  0  0  0  0  1  0  0  0  0  0  0
  195.7190  172.3290  144.5010 C   0  0  0  0  0  1  0  0  0  0  0  0
  196.8030  173.3240  144.8710 C   0  0  0  0  0  3  0  0  0  0  0  0
  197.0750  173.2600  146.3620 C   0  0  0  0  0  1  0  0  0  0  0  0
  189.4560  174.6460  145.6050 C   0  0  0  0  0  2  0  0  0  0  0  0
  188.7150  174.3740  147.8480 O   0  0  0  0  0  1  0  0  0  0  0  0
  189.4520  175.2160  147.0150 C   0  0  1  0  0  3  0  0  0  0  0  0
  190.8750  175.3340  147.5360 C   0  0  0  0  0  2  0  0  0  0  0  0
  191.1580  176.7590  147.9690 C   0  0  0  0  0  2  0  0  0  0  0  0
  190.0620  177.6160  147.5570 N   0  0  0  0  0  1  0  0  0  0  0  0
  1 33  1  1  0  0  0
  2  7  1  0  0  0  0
  3  8  1  0  0  0  0
  4  8  2  0  0  0  0
  4  5  1  0  0  0  0
  5  2  2  0  0  0  0
  6  3  2  0  0  0  0
  6 12  1  0  0  0  0
  8  9  1  0  0  0  0
  9 13  1  0  0  0  0
  9  7  2  0  0  0  0
 10  1  1  0  0  0  0
 10 13  1  0  0  0  0
 11  4  1  0  0  0  0
 12 10  2  0  0  0  0
 14 20  1  6  0  0  0
 14 16  1  0  0  0  0
 14 15  1  0  0  0  0
 15 19  1  0  0  0  0
 15 17  1  1  0  0  0
 16 18  1  0  0  0  0
 19 18  1  0  0  0  0
 19  1  1  1  0  0  0
 21 22  2  0  0  0  0
 22 23  1  0  0  0  0
 22 20  1  0  0  0  0
 23 24  1  0  0  0  0
 24 25  1  0  0  0  0
 25 26  1  0  0  0  0
 26 27  1  0  0  0  0
 27 31  1  0  0  0  0
 27 29  1  0  0  0  0
 28 26  2  0  0  0  0
 30 31  1  0  0  0  0
 31 32  1  0  0  0  0
 33 35  1  0  0  0  0
 35 36  1  0  0  0  0
 35 34  1  1  0  0  0
 36 37  1  0  0  0  0
 38 37  1  0  0  0  0
M  END
>  <MODEL>
6

>  <REMARK>
 VINA RESULT:      -6.4      3.454      8.368
  Name = 
  13 active torsions:
  status: ('A' for Active; 'I' for Inactive)
    1  A    between atoms: C_1  and  C_7
    2  A    between atoms: C_3  and  C_18
    3  A    between atoms: C_4  and  O_29
    4  A    between atoms: C_7  and  C_31
    5  A    between atoms: C_10  and  C_19
    6  A    between atoms: C_10  and  C_31
    7  A    between atoms: C_17  and  C_18
    8  A    between atoms: C_17  and  O_26
    9  A    between atoms: C_19  and  C_30
   10  A    between atoms: C_19  and  C_38
   11  A    between atoms: N_21  and  C_24
   12  A    between atoms: O_26  and  C_33
   13  A    between atoms: O_29  and  C_33
                            x       y       z     vdW  Elec       q    Type
                         _______ _______ _______ _____ _____    ______ ____

>  <TORSDO>
F 13

$$$$
=
 OpenBabel11042417013D

 38 40  0  0  1  0  0  0  0  0999 V2000
  192.4890  175.2730  145.3250 C   0  0  2  0  0  3  0  0  0  0  0  0
  195.4460  169.9040  145.4580 C   0  0  0  0  0  3  0  0  0  0  0  0
  191.7780  171.0540  143.7870 N   0  0  0  0  0  0  0  0  0  0  0  0
  193.5290  169.4300  144.1750 C   0  0  0  0  0  0  0  0  0  0  0  0
  194.7100  169.0440  144.7190 N   0  0  0  0  0  0  0  0  0  0  0  0
  191.0870  172.1460  143.7060 C   0  0  0  0  0  3  0  0  0  0  0  0
  195.0040  171.1690  145.6600 N   0  0  0  0  0  0  0  0  0  0  0  0
  193.0470  170.7370  144.3640 C   0  0  0  0  0  0  0  0  0  0  0  0
  193.8310  171.6160  145.1370 C   0  0  0  0  0  0  0  0  0  0  0  0
  192.4490  173.8250  144.9360 C   0  0  0  0  0  0  0  0  0  0  0  0
  192.7750  168.4880  143.4150 N   0  0  0  0  0  1  0  0  0  0  0  0
  191.4500  173.4290  144.2180 N   0  0  0  0  0  0  0  0  0  0  0  0
  193.4810  172.9670  145.4210 N   0  0  0  0  0  2  0  0  0  0  0  0
  189.4400  177.1660  146.5900 C   0  0  1  0  0  3  0  0  0  0  0  0
  190.5250  176.1250  146.7860 C   0  0  2  0  0  3  0  0  0  0  0  0
  189.7410  177.8750  145.2700 C   0  0  0  0  0  2  0  0  0  0  0  0
  191.5730  176.6960  147.7350 C   0  0  0  0  0  1  0  0  0  0  0  0
  190.9650  177.2070  144.6730 C   0  0  0  0  0  2  0  0  0  0  0  0
  191.0750  175.8730  145.3830 C   0  0  1  0  0  3  0  0  0  0  0  0
  188.1760  176.5190  146.5110 O   0  0  0  0  0  0  0  0  0  0  0  0
  186.2790  176.4110  147.8230 O   0  0  0  0  0  0  0  0  0  0  0  0
  187.0140  177.0800  147.0430 C   0  0  0  0  0  0  0  0  0  0  0  0
  186.6750  178.3890  146.6980 O   0  0  0  0  0  0  0  0  0  0  0  0
  185.3240  178.8290  146.5960 C   0  0  0  0  0  2  0  0  0  0  0  0
  184.6660  178.2730  145.3420 C   0  0  0  0  0  2  0  0  0  0  0  0
  185.3750  178.7520  144.1170 C   0  0  0  0  0  0  0  0  0  0  0  0
  185.9950  177.8190  143.2220 N   0  0  0  0  0  0  0  0  0  0  0  0
  185.4350  179.9900  143.8890 O   0  0  0  0  0  0  0  0  0  0  0  0
  185.9430  176.4910  143.4880 O   0  0  0  0  0  1  0  0  0  0  0  0
  185.9760  177.9270  140.7810 C   0  0  0  0  0  1  0  0  0  0  0  0
  186.7220  178.2940  142.0510 C   0  0  0  0  0  3  0  0  0  0  0  0
  188.1170  177.6980  142.0210 C   0  0  0  0  0  1  0  0  0  0  0  0
  193.3700  176.0530  144.3500 C   0  0  0  0  0  2  0  0  0  0  0  0
  194.7470  175.9470  146.2860 O   0  0  0  0  0  1  0  0  0  0  0  0
  194.6560  176.5180  145.0160 C   0  0  1  0  0  3  0  0  0  0  0  0
  195.8570  176.1070  144.1820 C   0  0  0  0  0  2  0  0  0  0  0  0
  196.4920  174.8570  144.7580 C   0  0  0  0  0  2  0  0  0  0  0  0
  196.5020  173.8130  143.7500 N   0  0  0  0  0  1  0  0  0  0  0  0
  1 33  1  6  0  0  0
  2  7  1  0  0  0  0
  3  8  1  0  0  0  0
  4  8  2  0  0  0  0
  4  5  1  0  0  0  0
  5  2  2  0  0  0  0
  6  3  2  0  0  0  0
  6 12  1  0  0  0  0
  8  9  1  0  0  0  0
  9 13  1  0  0  0  0
  9  7  2  0  0  0  0
 10  1  1  0  0  0  0
 10 13  1  0  0  0  0
 11  4  1  0  0  0  0
 12 10  2  0  0  0  0
 14 20  1  6  0  0  0
 14 15  1  0  0  0  0
 15 17  1  1  0  0  0
 16 14  1  0  0  0  0
 18 16  1  0  0  0  0
 18 19  1  0  0  0  0
 19  1  1  1  0  0  0
 19 15  1  0  0  0  0
 20 22  1  0  0  0  0
 22 21  2  0  0  0  0
 23 22  1  0  0  0  0
 24 23  1  0  0  0  0
 25 24  1  0  0  0  0
 26 25  1  0  0  0  0
 27 29  1  0  0  0  0
 27 26  1  0  0  0  0
 28 26  2  0  0  0  0
 30 31  1  0  0  0  0
 31 27  1  0  0  0  0
 32 31  1  0  0  0  0
 33 35  1  0  0  0  0
 35 34  1  1  0  0  0
 36 37  1  0  0  0  0
 36 35  1  0  0  0  0
 38 37  1  0  0  0  0
M  END
>  <MODEL>
7

>  <REMARK>
 VINA RESULT:      -6.4      2.876      3.857
  Name = 
  13 active torsions:
  status: ('A' for Active; 'I' for Inactive)
    1  A    between atoms: C_1  and  C_7
    2  A    between atoms: C_3  and  C_18
    3  A    between atoms: C_4  and  O_29
    4  A    between atoms: C_7  and  C_31
    5  A    between atoms: C_10  and  C_19
    6  A    between atoms: C_10  and  C_31
    7  A    between atoms: C_17  and  C_18
    8  A    between atoms: C_17  and  O_26
    9  A    between atoms: C_19  and  C_30
   10  A    between atoms: C_19  and  C_38
   11  A    between atoms: N_21  and  C_24
   12  A    between atoms: O_26  and  C_33
   13  A    between atoms: O_29  and  C_33
                            x       y       z     vdW  Elec       q    Type
                         _______ _______ _______ _____ _____    ______ ____

>  <TORSDO>
F 13

$$$$
=
 OpenBabel11042417013D

 38 40  0  0  1  0  0  0  0  0999 V2000
  188.9800  175.3350  142.1070 C   0  0  2  0  0  3  0  0  0  0  0  0
  195.0440  176.0390  142.6720 C   0  0  0  0  0  3  0  0  0  0  0  0
  192.2310  173.9390  144.9640 N   0  0  0  0  0  0  0  0  0  0  0  0
  194.5030  174.5870  144.4470 C   0  0  0  0  0  0  0  0  0  0  0  0
  195.4220  175.2700  143.7190 N   0  0  0  0  0  0  0  0  0  0  0  0
  190.9520  173.7340  144.9200 C   0  0  0  0  0  3  0  0  0  0  0  0
  193.7330  176.1310  142.3430 N   0  0  0  0  0  0  0  0  0  0  0  0
  193.1370  174.6610  144.1250 C   0  0  0  0  0  0  0  0  0  0  0  0
  192.7670  175.4670  143.0320 C   0  0  0  0  0  0  0  0  0  0  0  0
  190.1950  175.0150  142.9270 C   0  0  0  0  0  0  0  0  0  0  0  0
  194.9420  173.8000  145.5520 N   0  0  0  0  0  1  0  0  0  0  0  0
  190.0410  174.2170  143.9330 N   0  0  0  0  0  0  0  0  0  0  0  0
  191.4270  175.6470  142.5820 N   0  0  0  0  0  2  0  0  0  0  0  0
  186.5180  178.0740  143.0690 C   0  0  1  0  0  3  0  0  0  0  0  0
  187.8860  177.6370  142.5810 C   0  0  2  0  0  3  0  0  0  0  0  0
  185.6570  176.8150  143.1530 C   0  0  0  0  0  2  0  0  0  0  0  0
  187.9690  177.9030  141.0820 C   0  0  0  0  0  1  0  0  0  0  0  0
  186.5390  175.6420  142.7700 C   0  0  0  0  0  2  0  0  0  0  0  0
  187.9590  176.1490  142.9190 C   0  0  1  0  0  3  0  0  0  0  0  0
  186.6440  178.6570  144.3600 O   0  0  0  0  0  0  0  0  0  0  0  0
  185.1780  180.4390  144.2650 O   0  0  0  0  0  0  0  0  0  0  0  0
  185.6510  179.4650  144.9160 C   0  0  0  0  0  0  0  0  0  0  0  0
  185.1900  179.1820  146.2030 O   0  0  0  0  0  0  0  0  0  0  0  0
  185.2920  177.8860  146.7850 C   0  0  0  0  0  2  0  0  0  0  0  0
  186.4970  177.8010  147.7110 C   0  0  0  0  0  2  0  0  0  0  0  0
  187.6160  177.0570  147.0570 C   0  0  0  0  0  0  0  0  0  0  0  0
  188.9750  177.4650  147.2550 N   0  0  0  0  0  0  0  0  0  0  0  0
  187.3460  176.0770  146.3130 O   0  0  0  0  0  0  0  0  0  0  0  0
  189.2530  178.5350  148.0400 O   0  0  0  0  0  1  0  0  0  0  0  0
  191.2180  176.5370  147.5360 C   0  0  0  0  0  1  0  0  0  0  0  0
  190.0610  176.7630  146.5800 C   0  0  0  0  0  3  0  0  0  0  0  0
  190.5320  177.5560  145.3770 C   0  0  0  0  0  1  0  0  0  0  0  0
  188.3510  174.0470  141.5800 C   0  0  0  0  0  2  0  0  0  0  0  0
  189.8040  172.3320  140.8060 O   0  0  0  0  0  1  0  0  0  0  0  0
  189.1360  173.4880  140.4030 C   0  0  1  0  0  3  0  0  0  0  0  0
  188.1970  173.1640  139.2530 C   0  0  0  0  0  2  0  0  0  0  0  0
  188.3690  174.1740  138.1360 C   0  0  0  0  0  2  0  0  0  0  0  0
  189.0330  173.5410  137.0120 N   0  0  0  0  0  1  0  0  0  0  0  0
  1 33  1  1  0  0  0
  1 10  1  0  0  0  0
  2  5  2  0  0  0  0
  4 11  1  0  0  0  0
  5  4  1  0  0  0  0
  6  3  2  0  0  0  0
  7  2  1  0  0  0  0
  7  9  2  0  0  0  0
  8  4  2  0  0  0  0
  8  3  1  0  0  0  0
  9  8  1  0  0  0  0
 10 12  2  0  0  0  0
 12  6  1  0  0  0  0
 13 10  1  0  0  0  0
 13  9  1  0  0  0  0
 14 16  1  0  0  0  0
 14 20  1  1  0  0  0
 15 17  1  6  0  0  0
 15 19  1  0  0  0  0
 15 14  1  0  0  0  0
 18 19  1  0  0  0  0
 18 16  1  0  0  0  0
 19  1  1  6  0  0  0
 20 22  1  0  0  0  0
 21 22  2  0  0  0  0
 22 23  1  0  0  0  0
 23 24  1  0  0  0  0
 24 25  1  0  0  0  0
 26 27  1  0  0  0  0
 26 25  1  0  0  0  0
 27 29  1  0  0  0  0
 28 26  2  0  0  0  0
 31 27  1  0  0  0  0
 31 30  1  0  0  0  0
 32 31  1  0  0  0  0
 35 34  1  1  0  0  0
 35 33  1  0  0  0  0
 36 35  1  0  0  0  0
 37 36  1  0  0  0  0
 38 37  1  0  0  0  0
M  END
>  <MODEL>
8

>  <REMARK>
 VINA RESULT:      -6.4      2.337      5.647
  Name = 
  13 active torsions:
  status: ('A' for Active; 'I' for Inactive)
    1  A    between atoms: C_1  and  C_7
    2  A    between atoms: C_3  and  C_18
    3  A    between atoms: C_4  and  O_29
    4  A    between atoms: C_7  and  C_31
    5  A    between atoms: C_10  and  C_19
    6  A    between atoms: C_10  and  C_31
    7  A    between atoms: C_17  and  C_18
    8  A    between atoms: C_17  and  O_26
    9  A    between atoms: C_19  and  C_30
   10  A    between atoms: C_19  and  C_38
   11  A    between atoms: N_21  and  C_24
   12  A    between atoms: O_26  and  C_33
   13  A    between atoms: O_29  and  C_33
                            x       y       z     vdW  Elec       q    Type
                         _______ _______ _______ _____ _____    ______ ____

>  <TORSDO>
F 13

$$$$
=
 OpenBabel11042417013D

 38 40  0  0  1  0  0  0  0  0999 V2000
  187.8370  176.3260  142.7060 C   0  0  2  0  0  3  0  0  0  0  0  0
  190.6810  170.8950  142.7200 C   0  0  0  0  0  3  0  0  0  0  0  0
  189.0940  173.2310  139.6210 N   0  0  0  0  0  0  0  0  0  0  0  0
  190.3110  171.3020  140.4300 C   0  0  0  0  0  0  0  0  0  0  0  0
  190.8200  170.5330  141.4240 N   0  0  0  0  0  0  0  0  0  0  0  0
  188.4900  174.3730  139.5250 C   0  0  0  0  0  3  0  0  0  0  0  0
  190.0270  172.0390  143.0330 N   0  0  0  0  0  0  0  0  0  0  0  0
  189.6310  172.4970  140.7250 C   0  0  0  0  0  0  0  0  0  0  0  0
  189.4980  172.8530  142.0810 C   0  0  0  0  0  0  0  0  0  0  0  0
  188.3150  175.1740  141.8730 C   0  0  0  0  0  0  0  0  0  0  0  0
  190.4650  170.8780  139.0780 N   0  0  0  0  0  1  0  0  0  0  0  0
  188.1800  175.2700  140.5900 N   0  0  0  0  0  0  0  0  0  0  0  0
  188.8370  174.0270  142.5430 N   0  0  0  0  0  2  0  0  0  0  0  0
  189.7360  177.0570  145.9220 C   0  0  1  0  0  3  0  0  0  0  0  0
  189.7160  176.8030  144.4270 C   0  0  2  0  0  3  0  0  0  0  0  0
  188.2790  177.1390  146.3760 C   0  0  0  0  0  2  0  0  0  0  0  0
  189.9340  178.1320  143.7120 C   0  0  0  0  0  1  0  0  0  0  0  0
  187.4150  176.8770  145.1580 C   0  0  0  0  0  2  0  0  0  0  0  0
  188.3350  176.2090  144.1560 C   0  0  1  0  0  3  0  0  0  0  0  0
  190.3810  175.9700  146.5740 O   0  0  0  0  0  0  0  0  0  0  0  0
  191.3650  177.0020  148.3910 O   0  0  0  0  0  0  0  0  0  0  0  0
  191.4460  176.1530  147.4590 C   0  0  0  0  0  0  0  0  0  0  0  0
  192.6020  175.3880  147.2950 O   0  0  0  0  0  0  0  0  0  0  0  0
  193.0650  174.9650  146.0160 C   0  0  0  0  0  2  0  0  0  0  0  0
  193.4580  176.1610  145.1600 C   0  0  0  0  0  2  0  0  0  0  0  0
  194.4170  175.7530  144.0900 C   0  0  0  0  0  0  0  0  0  0  0  0
  194.1620  176.0860  142.7190 N   0  0  0  0  0  0  0  0  0  0  0  0
  195.4440  175.0960  144.4060 O   0  0  0  0  0  0  0  0  0  0  0  0
  193.0420  176.7740  142.3870 O   0  0  0  0  0  1  0  0  0  0  0  0
  196.0320  176.7690  141.3020 C   0  0  0  0  0  1  0  0  0  0  0  0
  195.0790  175.6480  141.6720 C   0  0  0  0  0  3  0  0  0  0  0  0
  194.3030  175.2040  140.4460 C   0  0  0  0  0  1  0  0  0  0  0  0
  186.3120  176.4070  142.6610 C   0  0  0  0  0  2  0  0  0  0  0  0
  185.9300  177.8880  140.8400 O   0  0  0  0  0  1  0  0  0  0  0  0
  185.8440  177.7890  142.2290 C   0  0  1  0  0  3  0  0  0  0  0  0
  184.4080  178.0170  142.6720 C   0  0  0  0  0  2  0  0  0  0  0  0
  184.3690  178.9580  143.8590 C   0  0  0  0  0  2  0  0  0  0  0  0
  185.5640  179.7800  143.8630 N   0  0  0  0  0  1  0  0  0  0  0  0
  1 33  1  1  0  0  0
  2  7  1  0  0  0  0
  3  8  1  0  0  0  0
  4  8  2  0  0  0  0
  4  5  1  0  0  0  0
  5  2  2  0  0  0  0
  6  3  2  0  0  0  0
  6 12  1  0  0  0  0
  8  9  1  0  0  0  0
  9 13  1  0  0  0  0
  9  7  2  0  0  0  0
 10 13  1  0  0  0  0
 10  1  1  0  0  0  0
 11  4  1  0  0  0  0
 12 10  2  0  0  0  0
 14 16  1  0  0  0  0
 14 20  1  1  0  0  0
 15 17  1  6  0  0  0
 15 14  1  0  0  0  0
 18 16  1  0  0  0  0
 19  1  1  6  0  0  0
 19 15  1  0  0  0  0
 19 18  1  0  0  0  0
 20 22  1  0  0  0  0
 22 21  2  0  0  0  0
 23 22  1  0  0  0  0
 24 23  1  0  0  0  0
 25 24  1  0  0  0  0
 26 28  2  0  0  0  0
 26 25  1  0  0  0  0
 27 26  1  0  0  0  0
 29 27  1  0  0  0  0
 30 31  1  0  0  0  0
 31 27  1  0  0  0  0
 32 31  1  0  0  0  0
 35 34  1  6  0  0  0
 35 33  1  0  0  0  0
 35 36  1  0  0  0  0
 36 37  1  0  0  0  0
 37 38  1  0  0  0  0
M  END
>  <MODEL>
9

>  <REMARK>
 VINA RESULT:      -6.2      2.422      6.495
  Name = 
  13 active torsions:
  status: ('A' for Active; 'I' for Inactive)
    1  A    between atoms: C_1  and  C_7
    2  A    between atoms: C_3  and  C_18
    3  A    between atoms: C_4  and  O_29
    4  A    between atoms: C_7  and  C_31
    5  A    between atoms: C_10  and  C_19
    6  A    between atoms: C_10  and  C_31
    7  A    between atoms: C_17  and  C_18
    8  A    between atoms: C_17  and  O_26
    9  A    between atoms: C_19  and  C_30
   10  A    between atoms: C_19  and  C_38
   11  A    between atoms: N_21  and  C_24
   12  A    between atoms: O_26  and  C_33
   13  A    between atoms: O_29  and  C_33
                            x       y       z     vdW  Elec       q    Type
                         _______ _______ _______ _____ _____    ______ ____

>  <TORSDO>
F 13

$$$$
