=
 OpenBabel11042417083D

 38 42  0  0  1  0  0  0  0  0999 V2000
  195.1860  175.4490  144.8310 O   0  0  0  0  0  0  0  0  0  0  0  0
  195.0180  175.9310  142.6580 C   0  0  0  0  0  0  0  0  0  0  0  0
  196.8650  176.0240  141.1500 C   0  0  0  0  0  3  0  0  0  0  0  0
  192.8200  175.6240  145.3810 C   0  0  0  0  0  3  0  0  0  0  0  0
  197.2330  175.4780  143.5140 C   0  0  0  0  0  3  0  0  0  0  0  0
  195.8600  175.6060  143.7040 C   0  0  0  0  0  0  0  0  0  0  0  0
  197.7340  175.6920  142.2150 C   0  0  0  0  0  3  0  0  0  0  0  0
  192.5660  176.2300  142.6500 N   0  0  0  0  0  0  0  0  0  0  0  0
  193.7680  175.9650  143.2110 C   0  0  0  0  0  0  0  0  0  0  0  0
  193.9180  175.6660  144.5370 C   0  0  0  0  0  0  0  0  0  0  0  0
  191.4350  176.1930  143.4250 C   0  0  0  0  0  0  0  0  0  0  0  0
  191.5520  175.8900  144.8260 C   0  0  0  0  0  0  0  0  0  0  0  0
  195.4800  176.1470  141.3640 C   0  0  0  0  0  3  0  0  0  0  0  0
  189.7210  177.8130  142.5180 C   0  0  0  0  0  3  0  0  0  0  0  0
  190.1390  176.4960  142.7630 C   0  0  0  0  0  0  0  0  0  0  0  0
  189.2780  175.4410  142.4230 C   0  0  0  0  0  3  0  0  0  0  0  0
  188.0390  175.6950  141.8280 C   0  0  0  0  0  3  0  0  0  0  0  0
  187.6360  177.0080  141.5730 C   0  0  0  0  0  0  0  0  0  0  0  0
  188.4830  178.0690  141.9250 C   0  0  0  0  0  3  0  0  0  0  0  0
  186.3660  177.2450  140.9630 N   0  0  0  0  0  2  0  0  0  0  0  0
  185.2870  177.9520  141.6360 C   0  0  0  0  0  2  0  0  0  0  0  0
  185.4270  177.7930  143.0740 N   0  0  0  0  0  2  0  0  0  0  0  0
  185.8100  180.0640  143.4580 O   0  0  0  0  0  0  0  0  0  0  0  0
  185.6690  178.9040  143.9350 C   0  0  0  0  0  0  0  0  0  0  0  0
  186.6910  177.4700  145.7180 C   0  0  2  0  0  3  0  0  0  0  0  0
  185.8260  177.8550  147.9890 N   0  0  0  0  0  2  0  0  0  0  0  0
  184.4780  178.2260  147.5420 C   0  0  0  0  0  2  0  0  0  0  0  0
  186.3720  176.8480  147.0820 C   0  0  0  0  0  2  0  0  0  0  0  0
  188.1470  177.8970  145.6820 C   0  0  0  0  0  1  0  0  0  0  0  0
  185.7870  178.6750  145.4070 C   0  0  2  0  0  3  0  0  0  0  0  0
  184.4000  178.5190  146.0330 C   0  0  0  0  0  2  0  0  0  0  0  0
  190.3770  175.8810  145.7540 C   0  0  0  0  0  2  0  0  0  0  0  0
  189.1370  174.2510  146.9630 O   0  0  0  0  0  1  0  0  0  0  0  0
  189.6480  174.5460  145.6990 C   0  0  2  0  0  3  0  0  0  0  0  0
  190.5650  173.4950  145.2900 N   0  0  0  0  0  2  0  0  0  0  0  0
  189.7870  172.3940  144.9130 N   0  0  0  0  0  2  0  0  0  0  0  0
  189.6930  171.6690  142.4610 N   0  0  0  0  0  0  0  0  0  0  0  0
  189.7350  171.9970  143.5710 C   0  0  0  0  0  0  0  0  0  0  0  0
  2  9  1  0  0  0  0
  2  6  2  0  0  0  0
  3 13  2  0  0  0  0
  3  7  1  0  0  0  0
  5  6  1  0  0  0  0
  6  1  1  0  0  0  0
  7  5  2  0  0  0  0
  8  9  2  0  0  0  0
  8 11  1  0  0  0  0
  9 10  1  0  0  0  0
 10  1  1  0  0  0  0
 10  4  2  0  0  0  0
 11 12  2  0  0  0  0
 12  4  1  0  0  0  0
 12 32  1  0  0  0  0
 13  2  1  0  0  0  0
 14 15  1  0  0  0  0
 15 11  1  0  0  0  0
 16 15  2  0  0  0  0
 17 16  1  0  0  0  0
 18 17  2  0  0  0  0
 18 19  1  0  0  0  0
 19 14  2  0  0  0  0
 20 18  1  0  0  0  0
 20 21  1  0  0  0  0
 21 22  1  0  0  0  0
 22 24  1  0  0  0  0
 23 24  2  0  0  0  0
 25 29  1  1  0  0  0
 25 28  1  0  0  0  0
 27 26  1  0  0  0  0
 28 26  1  0  0  0  0
 30 24  1  6  0  0  0
 30 25  1  0  0  0  0
 30 31  1  0  0  0  0
 31 27  1  0  0  0  0
 34 32  1  0  0  0  0
 34 33  1  1  0  0  0
 35 34  1  0  0  0  0
 36 35  1  0  0  0  0
 37 38  3  0  0  0  0
 38 36  1  0  0  0  0
M  END
>  <MODEL>
1

>  <REMARK>
 VINA RESULT:      -7.7      0.000      0.000
  Name = 
  10 active torsions:
  status: ('A' for Active; 'I' for Inactive)
    1  A    between atoms: C_8  and  C_32
    2  A    between atoms: C_18  and  N_25
    3  A    between atoms: C_18  and  C_28
    4  A    between atoms: C_20  and  N_23
    5  A    between atoms: N_21  and  C_22
    6  A    between atoms: N_21  and  N_25
    7  A    between atoms: N_23  and  C_24
    8  A    between atoms: C_24  and  N_27
    9  A    between atoms: C_28  and  C_33
   10  A    between atoms: C_31  and  C_38
                            x       y       z     vdW  Elec       q    Type
                         _______ _______ _______ _____ _____    ______ ____

>  <TORSDO>
F 10

$$$$
=
 OpenBabel11042417083D

 38 42  0  0  1  0  0  0  0  0999 V2000
  194.4720  172.0670  143.3130 O   0  0  0  0  0  0  0  0  0  0  0  0
  194.9010  173.4610  145.0020 C   0  0  0  0  0  0  0  0  0  0  0  0
  197.0480  173.7480  146.0020 C   0  0  0  0  0  3  0  0  0  0  0  0
  192.0940  172.5470  143.0970 C   0  0  0  0  0  3  0  0  0  0  0  0
  196.7560  172.1670  144.1490 C   0  0  0  0  0  3  0  0  0  0  0  0
  195.4100  172.5260  144.1230 C   0  0  0  0  0  0  0  0  0  0  0  0
  197.5780  172.7930  145.1060 C   0  0  0  0  0  3  0  0  0  0  0  0
  192.5940  174.3170  145.2200 N   0  0  0  0  0  0  0  0  0  0  0  0
  193.5730  173.5550  144.6840 C   0  0  0  0  0  0  0  0  0  0  0  0
  193.3570  172.6870  143.6490 C   0  0  0  0  0  0  0  0  0  0  0  0
  191.3220  174.2390  144.7140 C   0  0  0  0  0  0  0  0  0  0  0  0
  191.0510  173.3330  143.6300 C   0  0  0  0  0  0  0  0  0  0  0  0
  195.6860  174.0980  145.9580 C   0  0  0  0  0  3  0  0  0  0  0  0
  190.0760  176.4240  144.9480 C   0  0  0  0  0  3  0  0  0  0  0  0
  190.2790  175.0920  145.3400 C   0  0  0  0  0  0  0  0  0  0  0  0
  189.5100  174.5760  146.3940 C   0  0  0  0  0  3  0  0  0  0  0  0
  188.5420  175.3640  147.0240 C   0  0  0  0  0  3  0  0  0  0  0  0
  188.3360  176.6850  146.6180 C   0  0  0  0  0  0  0  0  0  0  0  0
  189.1110  177.2140  145.5760 C   0  0  0  0  0  3  0  0  0  0  0  0
  187.3410  177.4720  147.2760 N   0  0  0  0  0  2  0  0  0  0  0  0
  185.9170  177.2010  147.1600 C   0  0  0  0  0  2  0  0  0  0  0  0
  185.5790  176.9760  145.7640 N   0  0  0  0  0  2  0  0  0  0  0  0
  185.4000  179.2510  145.2650 O   0  0  0  0  0  0  0  0  0  0  0  0
  185.3520  178.0560  144.8600 C   0  0  0  0  0  0  0  0  0  0  0  0
  186.2150  178.0550  142.5080 C   0  0  2  0  0  3  0  0  0  0  0  0
  184.5170  177.6490  140.7740 N   0  0  0  0  0  2  0  0  0  0  0  0
  183.4270  178.2830  141.5240 C   0  0  0  0  0  2  0  0  0  0  0  0
  185.7690  178.3420  141.0690 C   0  0  0  0  0  2  0  0  0  0  0  0
  187.1790  176.8830  142.5170 C   0  0  0  0  0  1  0  0  0  0  0  0
  185.0240  177.7570  143.4340 C   0  0  2  0  0  3  0  0  0  0  0  0
  183.7690  178.5200  143.0060 C   0  0  0  0  0  2  0  0  0  0  0  0
  189.6830  173.1450  143.0530 C   0  0  0  0  0  2  0  0  0  0  0  0
  190.0620  175.0090  141.6250 O   0  0  0  0  0  1  0  0  0  0  0  0
  189.6090  173.6900  141.6330 C   0  0  2  0  0  3  0  0  0  0  0  0
  188.2370  173.6460  141.1550 N   0  0  0  0  0  2  0  0  0  0  0  0
  188.2090  174.3080  139.9220 N   0  0  0  0  0  2  0  0  0  0  0  0
  188.6920  173.0210  137.7640 N   0  0  0  0  0  0  0  0  0  0  0  0
  188.4740  173.6040  138.7410 C   0  0  0  0  0  0  0  0  0  0  0  0
  1 10  1  0  0  0  0
  1  6  1  0  0  0  0
  2 13  2  0  0  0  0
  4 12  2  0  0  0  0
  4 10  1  0  0  0  0
  5  7  1  0  0  0  0
  6  5  2  0  0  0  0
  6  2  1  0  0  0  0
  7  3  2  0  0  0  0
  9  2  1  0  0  0  0
  9  8  1  0  0  0  0
 10  9  2  0  0  0  0
 11  8  2  0  0  0  0
 11 15  1  0  0  0  0
 12 11  1  0  0  0  0
 13  3  1  0  0  0  0
 14 15  2  0  0  0  0
 14 19  1  0  0  0  0
 15 16  1  0  0  0  0
 16 17  2  0  0  0  0
 18 17  1  0  0  0  0
 18 20  1  0  0  0  0
 19 18  2  0  0  0  0
 21 20  1  0  0  0  0
 22 21  1  0  0  0  0
 24 23  2  0  0  0  0
 24 22  1  0  0  0  0
 25 29  1  6  0  0  0
 25 30  1  0  0  0  0
 26 28  1  0  0  0  0
 26 27  1  0  0  0  0
 27 31  1  0  0  0  0
 28 25  1  0  0  0  0
 30 24  1  1  0  0  0
 31 30  1  0  0  0  0
 32 12  1  0  0  0  0
 34 33  1  1  0  0  0
 34 32  1  0  0  0  0
 35 34  1  0  0  0  0
 36 35  1  0  0  0  0
 37 38  3  0  0  0  0
 38 36  1  0  0  0  0
M  END
>  <MODEL>
2

>  <REMARK>
 VINA RESULT:      -7.5      2.553      4.288
  Name = 
  10 active torsions:
  status: ('A' for Active; 'I' for Inactive)
    1  A    between atoms: C_8  and  C_32
    2  A    between atoms: C_18  and  N_25
    3  A    between atoms: C_18  and  C_28
    4  A    between atoms: C_20  and  N_23
    5  A    between atoms: N_21  and  C_22
    6  A    between atoms: N_21  and  N_25
    7  A    between atoms: N_23  and  C_24
    8  A    between atoms: C_24  and  N_27
    9  A    between atoms: C_28  and  C_33
   10  A    between atoms: C_31  and  C_38
                            x       y       z     vdW  Elec       q    Type
                         _______ _______ _______ _____ _____    ______ ____

>  <TORSDO>
F 10

$$$$
=
 OpenBabel11042417083D

 38 42  0  0  1  0  0  0  0  0999 V2000
  186.2000  176.9050  147.2080 O   0  0  0  0  0  0  0  0  0  0  0  0
  186.2650  177.7620  145.1480 C   0  0  0  0  0  0  0  0  0  0  0  0
  184.5650  179.1500  144.2100 C   0  0  0  0  0  3  0  0  0  0  0  0
  188.3230  175.7140  147.1260 C   0  0  0  0  0  3  0  0  0  0  0  0
  184.3300  178.2920  146.4970 C   0  0  0  0  0  3  0  0  0  0  0  0
  185.5580  177.6560  146.3300 C   0  0  0  0  0  0  0  0  0  0  0  0
  183.8350  179.0470  145.4160 C   0  0  0  0  0  3  0  0  0  0  0  0
  188.4440  176.7780  144.5290 N   0  0  0  0  0  0  0  0  0  0  0  0
  187.3980  177.0230  145.3500 C   0  0  0  0  0  0  0  0  0  0  0  0
  187.3160  176.5190  146.6190 C   0  0  0  0  0  0  0  0  0  0  0  0
  189.4830  175.9990  144.9710 C   0  0  0  0  0  0  0  0  0  0  0  0
  189.4310  175.4440  146.2970 C   0  0  0  0  0  0  0  0  0  0  0  0
  185.8040  178.5000  144.0630 C   0  0  0  0  0  3  0  0  0  0  0  0
  190.7970  174.5130  143.4080 C   0  0  0  0  0  3  0  0  0  0  0  0
  190.6070  175.7550  144.0310 C   0  0  0  0  0  0  0  0  0  0  0  0
  191.5430  176.7760  143.7980 C   0  0  0  0  0  3  0  0  0  0  0  0
  192.6290  176.5660  142.9430 C   0  0  0  0  0  3  0  0  0  0  0  0
  192.8030  175.3310  142.3150 C   0  0  0  0  0  0  0  0  0  0  0  0
  191.8810  174.3010  142.5540 C   0  0  0  0  0  3  0  0  0  0  0  0
  193.9190  175.1400  141.4440 N   0  0  0  0  0  2  0  0  0  0  0  0
  195.2760  174.9460  141.9320 C   0  0  0  0  0  2  0  0  0  0  0  0
  195.4080  173.6040  142.4740 N   0  0  0  0  0  2  0  0  0  0  0  0
  195.3430  174.3140  144.6980 O   0  0  0  0  0  0  0  0  0  0  0  0
  195.4140  173.3560  143.8790 C   0  0  0  0  0  0  0  0  0  0  0  0
  194.2800  171.5140  145.1440 C   0  0  2  0  0  3  0  0  0  0  0  0
  195.7080  169.5810  145.6750 N   0  0  0  0  0  2  0  0  0  0  0  0
  196.9400  170.3710  145.7890 C   0  0  0  0  0  2  0  0  0  0  0  0
  194.5780  170.3850  146.1380 C   0  0  0  0  0  2  0  0  0  0  0  0
  193.2090  171.0630  144.1690 C   0  0  0  0  0  1  0  0  0  0  0  0
  195.5370  171.9510  144.3720 C   0  0  2  0  0  3  0  0  0  0  0  0
  196.8030  171.7930  145.2150 C   0  0  0  0  0  2  0  0  0  0  0  0
  190.4950  174.5420  146.8410 C   0  0  0  0  0  2  0  0  0  0  0  0
  191.0340  176.6140  147.8790 O   0  0  0  0  0  1  0  0  0  0  0  0
  191.5240  175.3300  147.6380 C   0  0  2  0  0  3  0  0  0  0  0  0
  192.7690  175.4190  146.8910 N   0  0  0  0  0  2  0  0  0  0  0  0
  193.2970  176.6950  147.1220 N   0  0  0  0  0  2  0  0  0  0  0  0
  195.0180  177.6820  145.5050 N   0  0  0  0  0  0  0  0  0  0  0  0
  194.2390  177.2350  146.2370 C   0  0  0  0  0  0  0  0  0  0  0  0
  2  9  1  0  0  0  0
  2  6  2  0  0  0  0
  3  7  1  0  0  0  0
  6  5  1  0  0  0  0
  6  1  1  0  0  0  0
  7  5  2  0  0  0  0
  8 11  2  0  0  0  0
  8  9  1  0  0  0  0
  9 10  2  0  0  0  0
 10  4  1  0  0  0  0
 10  1  1  0  0  0  0
 11 12  1  0  0  0  0
 12 32  1  0  0  0  0
 12  4  2  0  0  0  0
 13  3  2  0  0  0  0
 13  2  1  0  0  0  0
 14 15  1  0  0  0  0
 15 11  1  0  0  0  0
 16 15  2  0  0  0  0
 17 16  1  0  0  0  0
 18 19  1  0  0  0  0
 18 17  2  0  0  0  0
 19 14  2  0  0  0  0
 20 21  1  0  0  0  0
 20 18  1  0  0  0  0
 21 22  1  0  0  0  0
 22 24  1  0  0  0  0
 24 23  2  0  0  0  0
 25 29  1  6  0  0  0
 25 28  1  0  0  0  0
 26 27  1  0  0  0  0
 26 28  1  0  0  0  0
 30 24  1  1  0  0  0
 30 25  1  0  0  0  0
 30 31  1  0  0  0  0
 31 27  1  0  0  0  0
 32 34  1  0  0  0  0
 34 33  1  6  0  0  0
 35 36  1  0  0  0  0
 35 34  1  0  0  0  0
 37 38  3  0  0  0  0
 38 36  1  0  0  0  0
M  END
>  <MODEL>
3

>  <REMARK>
 VINA RESULT:      -7.5      2.903      8.839
  Name = 
  10 active torsions:
  status: ('A' for Active; 'I' for Inactive)
    1  A    between atoms: C_8  and  C_32
    2  A    between atoms: C_18  and  N_25
    3  A    between atoms: C_18  and  C_28
    4  A    between atoms: C_20  and  N_23
    5  A    between atoms: N_21  and  C_22
    6  A    between atoms: N_21  and  N_25
    7  A    between atoms: N_23  and  C_24
    8  A    between atoms: C_24  and  N_27
    9  A    between atoms: C_28  and  C_33
   10  A    between atoms: C_31  and  C_38
                            x       y       z     vdW  Elec       q    Type
                         _______ _______ _______ _____ _____    ______ ____

>  <TORSDO>
F 10

$$$$
=
 OpenBabel11042417083D

 38 42  0  0  1  0  0  0  0  0999 V2000
  185.9340  176.7680  144.0170 O   0  0  0  0  0  0  0  0  0  0  0  0
  186.8130  177.4260  145.9610 C   0  0  0  0  0  0  0  0  0  0  0  0
  185.5990  178.5560  147.6760 C   0  0  0  0  0  3  0  0  0  0  0  0
  187.9490  175.7770  143.0740 C   0  0  0  0  0  3  0  0  0  0  0  0
  184.4710  177.9040  145.5970 C   0  0  0  0  0  3  0  0  0  0  0  0
  185.6840  177.3700  145.1670 C   0  0  0  0  0  0  0  0  0  0  0  0
  184.4380  178.5030  146.8710 C   0  0  0  0  0  3  0  0  0  0  0  0
  189.0910  176.5850  145.5100 N   0  0  0  0  0  0  0  0  0  0  0  0
  187.7890  176.8130  145.2240 C   0  0  0  0  0  0  0  0  0  0  0  0
  187.2090  176.4290  144.0470 C   0  0  0  0  0  0  0  0  0  0  0  0
  189.8800  175.9320  144.5970 C   0  0  0  0  0  0  0  0  0  0  0  0
  189.3090  175.5180  143.3430 C   0  0  0  0  0  0  0  0  0  0  0  0
  186.8140  178.0090  147.2230 C   0  0  0  0  0  3  0  0  0  0  0  0
  191.7670  174.4690  145.4210 C   0  0  0  0  0  3  0  0  0  0  0  0
  191.3040  175.7090  144.9550 C   0  0  0  0  0  0  0  0  0  0  0  0
  192.2080  176.7810  144.8800 C   0  0  0  0  0  3  0  0  0  0  0  0
  193.5480  176.6100  145.2400 C   0  0  0  0  0  3  0  0  0  0  0  0
  194.0040  175.3690  145.6900 C   0  0  0  0  0  0  0  0  0  0  0  0
  193.1050  174.2970  145.7820 C   0  0  0  0  0  3  0  0  0  0  0  0
  195.3780  175.2170  146.0510 N   0  0  0  0  0  2  0  0  0  0  0  0
  196.3090  174.4000  145.2890 C   0  0  0  0  0  2  0  0  0  0  0  0
  195.9770  174.4780  143.8760 N   0  0  0  0  0  2  0  0  0  0  0  0
  196.9730  176.5700  143.5850 O   0  0  0  0  0  0  0  0  0  0  0  0
  196.3610  175.5930  143.0720 C   0  0  0  0  0  0  0  0  0  0  0  0
  194.7410  174.7690  141.3480 C   0  0  2  0  0  3  0  0  0  0  0  0
  195.4020  175.1820  139.0140 N   0  0  0  0  0  2  0  0  0  0  0  0
  196.8420  175.0810  139.2790 C   0  0  0  0  0  2  0  0  0  0  0  0
  194.6870  174.2670  139.9000 C   0  0  0  0  0  2  0  0  0  0  0  0
  193.5020  175.5930  141.6470 C   0  0  0  0  0  1  0  0  0  0  0  0
  196.0020  175.6050  141.6220 C   0  0  2  0  0  3  0  0  0  0  0  0
  197.1870  175.1350  140.7780 C   0  0  0  0  0  2  0  0  0  0  0  0
  190.1080  174.8480  142.2700 C   0  0  0  0  0  2  0  0  0  0  0  0
  191.1760  172.7280  142.4200 O   0  0  0  0  0  1  0  0  0  0  0  0
  189.9260  173.3380  142.3140 C   0  0  2  0  0  3  0  0  0  0  0  0
  189.2650  172.8810  141.1020 N   0  0  0  0  0  2  0  0  0  0  0  0
  189.5480  173.8180  140.1010 N   0  0  0  0  0  2  0  0  0  0  0  0
  188.1980  173.8180  137.9270 N   0  0  0  0  0  0  0  0  0  0  0  0
  188.8100  173.8180  138.9110 C   0  0  0  0  0  0  0  0  0  0  0  0
  1 10  1  0  0  0  0
  1  6  1  0  0  0  0
  2 13  2  0  0  0  0
  4 12  2  0  0  0  0
  4 10  1  0  0  0  0
  5  7  1  0  0  0  0
  6  5  2  0  0  0  0
  6  2  1  0  0  0  0
  7  3  2  0  0  0  0
  9  8  1  0  0  0  0
  9  2  1  0  0  0  0
 10  9  2  0  0  0  0
 11 15  1  0  0  0  0
 11  8  2  0  0  0  0
 12 11  1  0  0  0  0
 13  3  1  0  0  0  0
 14 19  1  0  0  0  0
 15 14  2  0  0  0  0
 16 15  1  0  0  0  0
 16 17  2  0  0  0  0
 17 18  1  0  0  0  0
 18 19  2  0  0  0  0
 18 20  1  0  0  0  0
 21 20  1  0  0  0  0
 22 21  1  0  0  0  0
 24 23  2  0  0  0  0
 24 22  1  0  0  0  0
 25 30  1  0  0  0  0
 25 29  1  6  0  0  0
 26 27  1  0  0  0  0
 26 28  1  0  0  0  0
 27 31  1  0  0  0  0
 28 25  1  0  0  0  0
 30 24  1  1  0  0  0
 31 30  1  0  0  0  0
 32 34  1  0  0  0  0
 32 12  1  0  0  0  0
 34 33  1  6  0  0  0
 35 34  1  0  0  0  0
 36 35  1  0  0  0  0
 37 38  3  0  0  0  0
 38 36  1  0  0  0  0
M  END
>  <MODEL>
4

>  <REMARK>
 VINA RESULT:      -7.5      2.397      9.031
  Name = 
  10 active torsions:
  status: ('A' for Active; 'I' for Inactive)
    1  A    between atoms: C_8  and  C_32
    2  A    between atoms: C_18  and  N_25
    3  A    between atoms: C_18  and  C_28
    4  A    between atoms: C_20  and  N_23
    5  A    between atoms: N_21  and  C_22
    6  A    between atoms: N_21  and  N_25
    7  A    between atoms: N_23  and  C_24
    8  A    between atoms: C_24  and  N_27
    9  A    between atoms: C_28  and  C_33
   10  A    between atoms: C_31  and  C_38
                            x       y       z     vdW  Elec       q    Type
                         _______ _______ _______ _____ _____    ______ ____

>  <TORSDO>
F 10

$$$$
=
 OpenBabel11042417083D

 38 42  0  0  1  0  0  0  0  0999 V2000
  195.2290  174.9860  144.5260 O   0  0  0  0  0  0  0  0  0  0  0  0
  195.0430  175.4360  142.3480 C   0  0  0  0  0  0  0  0  0  0  0  0
  196.8370  175.2850  140.7810 C   0  0  0  0  0  3  0  0  0  0  0  0
  192.9180  175.4420  145.1450 C   0  0  0  0  0  3  0  0  0  0  0  0
  197.2200  174.7520  143.1450 C   0  0  0  0  0  3  0  0  0  0  0  0
  195.8770  175.0400  143.3750 C   0  0  0  0  0  0  0  0  0  0  0  0
  197.6970  174.8790  141.8260 C   0  0  0  0  0  3  0  0  0  0  0  0
  192.6420  176.0140  142.4090 N   0  0  0  0  0  0  0  0  0  0  0  0
  193.8240  175.6260  142.9390 C   0  0  0  0  0  0  0  0  0  0  0  0
  193.9840  175.3400  144.2670 C   0  0  0  0  0  0  0  0  0  0  0  0
  191.5410  176.1240  143.2190 C   0  0  0  0  0  0  0  0  0  0  0  0
  191.6700  175.8390  144.6230 C   0  0  0  0  0  0  0  0  0  0  0  0
  195.4820  175.5710  141.0350 C   0  0  0  0  0  3  0  0  0  0  0  0
  189.9070  177.9120  142.5010 C   0  0  0  0  0  3  0  0  0  0  0  0
  190.2670  176.5590  142.5910 C   0  0  0  0  0  0  0  0  0  0  0  0
  189.3650  175.5890  142.1230 C   0  0  0  0  0  3  0  0  0  0  0  0
  188.1450  175.9650  141.5550 C   0  0  0  0  0  3  0  0  0  0  0  0
  187.8000  177.3150  141.4560 C   0  0  0  0  0  0  0  0  0  0  0  0
  188.6870  178.2900  141.9360 C   0  0  0  0  0  3  0  0  0  0  0  0
  186.5470  177.6770  140.8720 N   0  0  0  0  0  2  0  0  0  0  0  0
  185.3970  178.0870  141.6620 C   0  0  0  0  0  2  0  0  0  0  0  0
  185.6780  177.8730  143.0720 N   0  0  0  0  0  2  0  0  0  0  0  0
  185.5630  180.1420  143.6120 O   0  0  0  0  0  0  0  0  0  0  0  0
  185.7260  178.9530  144.0030 C   0  0  0  0  0  0  0  0  0  0  0  0
  186.4590  177.2090  145.6460 C   0  0  2  0  0  3  0  0  0  0  0  0
  186.1890  177.8270  148.0130 N   0  0  0  0  0  2  0  0  0  0  0  0
  185.0070  178.6660  147.7820 C   0  0  0  0  0  2  0  0  0  0  0  0
  186.1770  176.7120  147.0690 C   0  0  0  0  0  2  0  0  0  0  0  0
  187.9420  177.0880  145.3500 C   0  0  0  0  0  1  0  0  0  0  0  0
  186.0040  178.6640  145.4420 C   0  0  2  0  0  3  0  0  0  0  0  0
  184.7820  179.0000  146.2970 C   0  0  0  0  0  2  0  0  0  0  0  0
  190.5350  175.9850  145.5880 C   0  0  0  0  0  2  0  0  0  0  0  0
  189.4960  174.0760  146.5550 O   0  0  0  0  0  1  0  0  0  0  0  0
  190.6000  174.9200  146.6730 C   0  0  2  0  0  3  0  0  0  0  0  0
  190.5920  175.5470  147.9850 N   0  0  0  0  0  2  0  0  0  0  0  0
  191.3990  176.6890  147.9010 N   0  0  0  0  0  2  0  0  0  0  0  0
  191.5670  178.2900  149.8890 N   0  0  0  0  0  0  0  0  0  0  0  0
  191.4910  177.5650  148.9890 C   0  0  0  0  0  0  0  0  0  0  0  0
  2  9  1  0  0  0  0
  2  6  2  0  0  0  0
  3 13  2  0  0  0  0
  3  7  1  0  0  0  0
  5  6  1  0  0  0  0
  6  1  1  0  0  0  0
  7  5  2  0  0  0  0
  8  9  2  0  0  0  0
  8 11  1  0  0  0  0
  9 10  1  0  0  0  0
 10  1  1  0  0  0  0
 10  4  2  0  0  0  0
 11 12  2  0  0  0  0
 12  4  1  0  0  0  0
 12 32  1  0  0  0  0
 13  2  1  0  0  0  0
 14 15  1  0  0  0  0
 15 11  1  0  0  0  0
 16 15  2  0  0  0  0
 17 16  1  0  0  0  0
 18 17  2  0  0  0  0
 18 19  1  0  0  0  0
 19 14  2  0  0  0  0
 20 18  1  0  0  0  0
 20 21  1  0  0  0  0
 21 22  1  0  0  0  0
 22 24  1  0  0  0  0
 23 24  2  0  0  0  0
 25 29  1  1  0  0  0
 25 28  1  0  0  0  0
 27 26  1  0  0  0  0
 28 26  1  0  0  0  0
 30 24  1  6  0  0  0
 30 25  1  0  0  0  0
 30 31  1  0  0  0  0
 31 27  1  0  0  0  0
 32 34  1  0  0  0  0
 34 33  1  1  0  0  0
 34 35  1  0  0  0  0
 36 35  1  0  0  0  0
 36 38  1  0  0  0  0
 38 37  3  0  0  0  0
M  END
>  <MODEL>
5

>  <REMARK>
 VINA RESULT:      -7.4      1.541      2.392
  Name = 
  10 active torsions:
  status: ('A' for Active; 'I' for Inactive)
    1  A    between atoms: C_8  and  C_32
    2  A    between atoms: C_18  and  N_25
    3  A    between atoms: C_18  and  C_28
    4  A    between atoms: C_20  and  N_23
    5  A    between atoms: N_21  and  C_22
    6  A    between atoms: N_21  and  N_25
    7  A    between atoms: N_23  and  C_24
    8  A    between atoms: C_24  and  N_27
    9  A    between atoms: C_28  and  C_33
   10  A    between atoms: C_31  and  C_38
                            x       y       z     vdW  Elec       q    Type
                         _______ _______ _______ _____ _____    ______ ____

>  <TORSDO>
F 10

$$$$
=
 OpenBabel11042417083D

 38 42  0  0  1  0  0  0  0  0999 V2000
  185.8950  176.8040  144.0400 O   0  0  0  0  0  0  0  0  0  0  0  0
  186.7780  177.5180  145.9610 C   0  0  0  0  0  0  0  0  0  0  0  0
  185.5710  178.7060  147.6420 C   0  0  0  0  0  3  0  0  0  0  0  0
  187.9040  175.7760  143.1260 C   0  0  0  0  0  3  0  0  0  0  0  0
  184.4390  177.9940  145.5860 C   0  0  0  0  0  3  0  0  0  0  0  0
  185.6480  177.4430  145.1710 C   0  0  0  0  0  0  0  0  0  0  0  0
  184.4090  178.6330  146.8400 C   0  0  0  0  0  3  0  0  0  0  0  0
  189.0530  176.6540  145.5350 N   0  0  0  0  0  0  0  0  0  0  0  0
  187.7520  176.8790  145.2430 C   0  0  0  0  0  0  0  0  0  0  0  0
  187.1680  176.4610  144.0790 C   0  0  0  0  0  0  0  0  0  0  0  0
  189.8380  175.9710  144.6410 C   0  0  0  0  0  0  0  0  0  0  0  0
  189.2640  175.5200  143.4020 C   0  0  0  0  0  0  0  0  0  0  0  0
  186.7830  178.1410  147.2050 C   0  0  0  0  0  3  0  0  0  0  0  0
  191.6690  174.6650  145.7930 C   0  0  0  0  0  3  0  0  0  0  0  0
  191.2620  175.7530  145.0050 C   0  0  0  0  0  0  0  0  0  0  0  0
  192.2260  176.6890  144.5990 C   0  0  0  0  0  3  0  0  0  0  0  0
  193.5690  176.5290  144.9520 C   0  0  0  0  0  3  0  0  0  0  0  0
  193.9690  175.4350  145.7240 C   0  0  0  0  0  0  0  0  0  0  0  0
  193.0100  174.5030  146.1460 C   0  0  0  0  0  3  0  0  0  0  0  0
  195.3470  175.2910  146.0720 N   0  0  0  0  0  2  0  0  0  0  0  0
  196.2960  174.5590  145.2480 C   0  0  0  0  0  2  0  0  0  0  0  0
  196.2330  173.1450  145.5770 N   0  0  0  0  0  2  0  0  0  0  0  0
  195.7920  172.4800  143.3820 O   0  0  0  0  0  0  0  0  0  0  0  0
  195.9960  172.1490  144.5830 C   0  0  0  0  0  0  0  0  0  0  0  0
  194.6460  170.3620  145.7070 C   0  0  2  0  0  3  0  0  0  0  0  0
  195.8490  168.2580  146.1320 N   0  0  0  0  0  2  0  0  0  0  0  0
  197.1550  168.9030  146.3170 C   0  0  0  0  0  2  0  0  0  0  0  0
  194.8010  169.1470  146.6290 C   0  0  0  0  0  2  0  0  0  0  0  0
  193.5550  170.0910  144.6880 C   0  0  0  0  0  1  0  0  0  0  0  0
  195.9590  170.7100  144.9850 C   0  0  2  0  0  3  0  0  0  0  0  0
  197.1810  170.3650  145.8360 C   0  0  0  0  0  2  0  0  0  0  0  0
  190.0590  174.8140  142.3490 C   0  0  0  0  0  2  0  0  0  0  0  0
  190.6210  172.5760  142.9280 O   0  0  0  0  0  1  0  0  0  0  0  0
  189.6680  173.3460  142.2600 C   0  0  2  0  0  3  0  0  0  0  0  0
  189.6000  172.9330  140.8670 N   0  0  0  0  0  2  0  0  0  0  0  0
  188.6080  173.7090  140.2560 N   0  0  0  0  0  2  0  0  0  0  0  0
  188.4090  173.7580  137.7050 N   0  0  0  0  0  0  0  0  0  0  0  0
  188.4990  173.7350  138.8600 C   0  0  0  0  0  0  0  0  0  0  0  0
  1 10  1  0  0  0  0
  1  6  1  0  0  0  0
  2 13  2  0  0  0  0
  4 12  2  0  0  0  0
  4 10  1  0  0  0  0
  5  7  1  0  0  0  0
  6  5  2  0  0  0  0
  6  2  1  0  0  0  0
  7  3  2  0  0  0  0
  9  8  1  0  0  0  0
  9  2  1  0  0  0  0
 10  9  2  0  0  0  0
 11 15  1  0  0  0  0
 11  8  2  0  0  0  0
 12 11  1  0  0  0  0
 13  3  1  0  0  0  0
 14 19  1  0  0  0  0
 15 14  2  0  0  0  0
 16 17  2  0  0  0  0
 16 15  1  0  0  0  0
 17 18  1  0  0  0  0
 18 20  1  0  0  0  0
 18 19  2  0  0  0  0
 21 22  1  0  0  0  0
 21 20  1  0  0  0  0
 23 24  2  0  0  0  0
 24 22  1  0  0  0  0
 25 29  1  6  0  0  0
 25 28  1  0  0  0  0
 26 27  1  0  0  0  0
 26 28  1  0  0  0  0
 30 24  1  1  0  0  0
 30 25  1  0  0  0  0
 30 31  1  0  0  0  0
 31 27  1  0  0  0  0
 32 12  1  0  0  0  0
 34 32  1  0  0  0  0
 34 33  1  1  0  0  0
 35 34  1  0  0  0  0
 36 35  1  0  0  0  0
 37 38  3  0  0  0  0
 38 36  1  0  0  0  0
M  END
>  <MODEL>
6

>  <REMARK>
 VINA RESULT:      -7.4      3.489      9.370
  Name = 
  10 active torsions:
  status: ('A' for Active; 'I' for Inactive)
    1  A    between atoms: C_8  and  C_32
    2  A    between atoms: C_18  and  N_25
    3  A    between atoms: C_18  and  C_28
    4  A    between atoms: C_20  and  N_23
    5  A    between atoms: N_21  and  C_22
    6  A    between atoms: N_21  and  N_25
    7  A    between atoms: N_23  and  C_24
    8  A    between atoms: C_24  and  N_27
    9  A    between atoms: C_28  and  C_33
   10  A    between atoms: C_31  and  C_38
                            x       y       z     vdW  Elec       q    Type
                         _______ _______ _______ _____ _____    ______ ____

>  <TORSDO>
F 10

$$$$
=
 OpenBabel11042417083D

 38 42  0  0  1  0  0  0  0  0999 V2000
  188.4980  177.9410  147.6370 O   0  0  0  0  0  0  0  0  0  0  0  0
  187.0760  177.0400  146.1720 C   0  0  0  0  0  0  0  0  0  0  0  0
  184.7540  177.5740  146.0430 C   0  0  0  0  0  3  0  0  0  0  0  0
  190.4960  176.7460  146.9200 C   0  0  0  0  0  3  0  0  0  0  0  0
  186.1750  178.6630  147.7210 C   0  0  0  0  0  3  0  0  0  0  0  0
  187.2440  177.9220  147.2210 C   0  0  0  0  0  0  0  0  0  0  0  0
  184.9170  178.4800  147.1160 C   0  0  0  0  0  3  0  0  0  0  0  0
  188.7380  175.5930  145.0570 N   0  0  0  0  0  0  0  0  0  0  0  0
  188.3180  176.5070  145.9600 C   0  0  0  0  0  0  0  0  0  0  0  0
  189.1530  177.0850  146.8760 C   0  0  0  0  0  0  0  0  0  0  0  0
  190.0580  175.2200  145.0360 C   0  0  0  0  0  0  0  0  0  0  0  0
  190.9670  175.7980  145.9880 C   0  0  0  0  0  0  0  0  0  0  0  0
  185.8470  176.8370  145.5520 C   0  0  0  0  0  3  0  0  0  0  0  0
  191.0530  174.5730  142.8050 C   0  0  0  0  0  3  0  0  0  0  0  0
  190.4700  174.2080  144.0290 C   0  0  0  0  0  0  0  0  0  0  0  0
  190.2200  172.8490  144.2770 C   0  0  0  0  0  3  0  0  0  0  0  0
  190.5680  171.8760  143.3360 C   0  0  0  0  0  3  0  0  0  0  0  0
  191.1610  172.2460  142.1270 C   0  0  0  0  0  0  0  0  0  0  0  0
  191.4000  173.6030  141.8630 C   0  0  0  0  0  3  0  0  0  0  0  0
  191.5090  171.2350  141.1790 N   0  0  0  0  0  2  0  0  0  0  0  0
  192.8820  170.9600  140.7870 C   0  0  0  0  0  2  0  0  0  0  0  0
  193.7060  170.8190  141.9760 N   0  0  0  0  0  2  0  0  0  0  0  0
  194.9280  172.7660  141.5640 O   0  0  0  0  0  0  0  0  0  0  0  0
  194.7050  171.7790  142.3180 C   0  0  0  0  0  0  0  0  0  0  0  0
  195.0760  172.5630  144.6690 C   0  0  2  0  0  3  0  0  0  0  0  0
  197.0870  171.6600  145.7640 N   0  0  0  0  0  2  0  0  0  0  0  0
  197.8640  171.5610  144.5230 C   0  0  0  0  0  2  0  0  0  0  0  0
  196.1980  172.8180  145.6820 C   0  0  0  0  0  2  0  0  0  0  0  0
  193.8560  172.0190  145.3880 C   0  0  0  0  0  1  0  0  0  0  0  0
  195.5080  171.5840  143.5630 C   0  0  2  0  0  3  0  0  0  0  0  0
  197.0020  171.7010  143.2560 C   0  0  0  0  0  2  0  0  0  0  0  0
  192.4110  175.4100  146.0710 C   0  0  0  0  0  2  0  0  0  0  0  0
  192.9780  177.1870  144.5940 O   0  0  0  0  0  1  0  0  0  0  0  0
  193.3140  176.6090  145.8180 C   0  0  2  0  0  3  0  0  0  0  0  0
  194.7050  176.1850  145.7890 N   0  0  0  0  0  2  0  0  0  0  0  0
  195.2960  176.7890  144.6720 N   0  0  0  0  0  2  0  0  0  0  0  0
  196.6290  175.3770  143.0060 N   0  0  0  0  0  0  0  0  0  0  0  0
  196.0250  176.0170  143.7600 C   0  0  0  0  0  0  0  0  0  0  0  0
  2  6  2  0  0  0  0
  3  7  1  0  0  0  0
  6  1  1  0  0  0  0
  6  5  1  0  0  0  0
  7  5  2  0  0  0  0
  8  9  1  0  0  0  0
  9  2  1  0  0  0  0
  9 10  2  0  0  0  0
 10  4  1  0  0  0  0
 10  1  1  0  0  0  0
 11  8  2  0  0  0  0
 11 12  1  0  0  0  0
 12 32  1  0  0  0  0
 12  4  2  0  0  0  0
 13  3  2  0  0  0  0
 13  2  1  0  0  0  0
 14 15  1  0  0  0  0
 15 16  2  0  0  0  0
 15 11  1  0  0  0  0
 17 16  1  0  0  0  0
 18 17  2  0  0  0  0
 19 18  1  0  0  0  0
 19 14  2  0  0  0  0
 20 18  1  0  0  0  0
 21 20  1  0  0  0  0
 21 22  1  0  0  0  0
 22 24  1  0  0  0  0
 23 24  2  0  0  0  0
 25 29  1  1  0  0  0
 25 28  1  0  0  0  0
 27 26  1  0  0  0  0
 28 26  1  0  0  0  0
 30 24  1  6  0  0  0
 30 25  1  0  0  0  0
 31 30  1  0  0  0  0
 31 27  1  0  0  0  0
 34 33  1  6  0  0  0
 34 32  1  0  0  0  0
 35 34  1  0  0  0  0
 36 35  1  0  0  0  0
 37 38  3  0  0  0  0
 38 36  1  0  0  0  0
M  END
>  <MODEL>
7

>  <REMARK>
 VINA RESULT:      -7.3      2.906      8.778
  Name = 
  10 active torsions:
  status: ('A' for Active; 'I' for Inactive)
    1  A    between atoms: C_8  and  C_32
    2  A    between atoms: C_18  and  N_25
    3  A    between atoms: C_18  and  C_28
    4  A    between atoms: C_20  and  N_23
    5  A    between atoms: N_21  and  C_22
    6  A    between atoms: N_21  and  N_25
    7  A    between atoms: N_23  and  C_24
    8  A    between atoms: C_24  and  N_27
    9  A    between atoms: C_28  and  C_33
   10  A    between atoms: C_31  and  C_38
                            x       y       z     vdW  Elec       q    Type
                         _______ _______ _______ _____ _____    ______ ____

>  <TORSDO>
F 10

$$$$
=
 OpenBabel11042417083D

 38 42  0  0  1  0  0  0  0  0999 V2000
  193.5270  171.6310  143.8780 O   0  0  0  0  0  0  0  0  0  0  0  0
  191.3980  171.6180  143.2070 C   0  0  0  0  0  0  0  0  0  0  0  0
  190.4760  170.0330  141.6800 C   0  0  0  0  0  3  0  0  0  0  0  0
  193.3860  173.5680  145.3490 C   0  0  0  0  0  3  0  0  0  0  0  0
  192.8430  169.9000  142.3100 C   0  0  0  0  0  3  0  0  0  0  0  0
  192.6380  171.0150  143.1190 C   0  0  0  0  0  0  0  0  0  0  0  0
  191.7410  169.4090  141.5840 C   0  0  0  0  0  3  0  0  0  0  0  0
  190.6990  173.5820  144.5310 N   0  0  0  0  0  0  0  0  0  0  0  0
  191.5750  172.6570  144.0780 C   0  0  0  0  0  0  0  0  0  0  0  0
  192.8880  172.6280  144.4620 C   0  0  0  0  0  0  0  0  0  0  0  0
  191.1210  174.5350  145.4230 C   0  0  0  0  0  0  0  0  0  0  0  0
  192.4960  174.5420  145.8450 C   0  0  0  0  0  0  0  0  0  0  0  0
  190.2890  171.1580  142.5040 C   0  0  0  0  0  3  0  0  0  0  0  0
  190.2490  176.8990  145.6040 C   0  0  0  0  0  3  0  0  0  0  0  0
  190.1210  175.5310  145.8880 C   0  0  0  0  0  0  0  0  0  0  0  0
  189.0460  175.1060  146.6840 C   0  0  0  0  0  3  0  0  0  0  0  0
  188.1070  176.0230  147.1640 C   0  0  0  0  0  3  0  0  0  0  0  0
  188.2330  177.3820  146.8640 C   0  0  0  0  0  0  0  0  0  0  0  0
  189.3120  177.8170  146.0820 C   0  0  0  0  0  3  0  0  0  0  0  0
  187.2600  178.3020  147.3630 N   0  0  0  0  0  2  0  0  0  0  0  0
  186.0190  178.5960  146.6640 C   0  0  0  0  0  2  0  0  0  0  0  0
  186.2200  178.4310  145.2340 N   0  0  0  0  0  2  0  0  0  0  0  0
  185.1970  176.3330  145.1610 O   0  0  0  0  0  0  0  0  0  0  0  0
  185.7610  177.2740  144.5360 C   0  0  0  0  0  0  0  0  0  0  0  0
  187.4840  177.1180  142.7240 C   0  0  2  0  0  3  0  0  0  0  0  0
  186.6160  177.3740  140.4350 N   0  0  0  0  0  2  0  0  0  0  0  0
  185.5310  178.2850  140.8210 C   0  0  0  0  0  2  0  0  0  0  0  0
  187.7700  177.6100  141.3000 C   0  0  0  0  0  2  0  0  0  0  0  0
  187.9970  175.7000  142.8850 C   0  0  0  0  0  1  0  0  0  0  0  0
  185.9840  177.1720  143.0630 C   0  0  2  0  0  3  0  0  0  0  0  0
  185.2810  178.3210  142.3390 C   0  0  0  0  0  2  0  0  0  0  0  0
  193.0530  175.5770  146.7720 C   0  0  0  0  0  2  0  0  0  0  0  0
  194.5410  177.4290  146.8920 O   0  0  0  0  0  1  0  0  0  0  0  0
  194.2430  176.2890  146.1440 C   0  0  2  0  0  3  0  0  0  0  0  0
  193.9270  176.6740  144.7780 N   0  0  0  0  0  2  0  0  0  0  0  0
  195.1360  176.7230  144.0740 N   0  0  0  0  0  2  0  0  0  0  0  0
  196.8550  174.8480  144.3510 N   0  0  0  0  0  0  0  0  0  0  0  0
  196.0770  175.6970  144.2260 C   0  0  0  0  0  0  0  0  0  0  0  0
  1 10  1  0  0  0  0
  2  9  1  0  0  0  0
  3 13  1  0  0  0  0
  4 12  1  0  0  0  0
  5  6  2  0  0  0  0
  6  2  1  0  0  0  0
  6  1  1  0  0  0  0
  7  3  2  0  0  0  0
  7  5  1  0  0  0  0
  8 11  1  0  0  0  0
  9 10  1  0  0  0  0
  9  8  2  0  0  0  0
 10  4  2  0  0  0  0
 11 12  2  0  0  0  0
 11 15  1  0  0  0  0
 12 32  1  0  0  0  0
 13  2  2  0  0  0  0
 14 15  2  0  0  0  0
 14 19  1  0  0  0  0
 15 16  1  0  0  0  0
 16 17  2  0  0  0  0
 18 17  1  0  0  0  0
 18 20  1  0  0  0  0
 19 18  2  0  0  0  0
 21 20  1  0  0  0  0
 22 21  1  0  0  0  0
 24 23  2  0  0  0  0
 24 22  1  0  0  0  0
 25 29  1  6  0  0  0
 25 30  1  0  0  0  0
 26 27  1  0  0  0  0
 26 28  1  0  0  0  0
 27 31  1  0  0  0  0
 28 25  1  0  0  0  0
 30 24  1  1  0  0  0
 31 30  1  0  0  0  0
 34 32  1  0  0  0  0
 34 33  1  1  0  0  0
 35 34  1  0  0  0  0
 36 38  1  0  0  0  0
 36 35  1  0  0  0  0
 38 37  3  0  0  0  0
M  END
>  <MODEL>
8

>  <REMARK>
 VINA RESULT:      -7.3      2.259      5.260
  Name = 
  10 active torsions:
  status: ('A' for Active; 'I' for Inactive)
    1  A    between atoms: C_8  and  C_32
    2  A    between atoms: C_18  and  N_25
    3  A    between atoms: C_18  and  C_28
    4  A    between atoms: C_20  and  N_23
    5  A    between atoms: N_21  and  C_22
    6  A    between atoms: N_21  and  N_25
    7  A    between atoms: N_23  and  C_24
    8  A    between atoms: C_24  and  N_27
    9  A    between atoms: C_28  and  C_33
   10  A    between atoms: C_31  and  C_38
                            x       y       z     vdW  Elec       q    Type
                         _______ _______ _______ _____ _____    ______ ____

>  <TORSDO>
F 10

$$$$
=
 OpenBabel11042417083D

 38 42  0  0  1  0  0  0  0  0999 V2000
  188.5880  173.2110  137.1730 O   0  0  0  0  0  0  0  0  0  0  0  0
  190.2980  172.1020  138.0830 C   0  0  0  0  0  0  0  0  0  0  0  0
  191.6390  170.5050  136.9250 C   0  0  0  0  0  3  0  0  0  0  0  0
  187.9630  174.5050  139.1400 C   0  0  0  0  0  3  0  0  0  0  0  0
  189.7940  171.6330  135.7660 C   0  0  0  0  0  3  0  0  0  0  0  0
  189.5340  172.3150  136.9520 C   0  0  0  0  0  0  0  0  0  0  0  0
  190.8640  170.7170  135.7620 C   0  0  0  0  0  3  0  0  0  0  0  0
  190.1110  173.1330  140.3200 N   0  0  0  0  0  0  0  0  0  0  0  0
  189.7600  172.9310  139.0300 C   0  0  0  0  0  0  0  0  0  0  0  0
  188.7200  173.5870  138.4320 C   0  0  0  0  0  0  0  0  0  0  0  0
  189.4120  174.0390  141.0770 C   0  0  0  0  0  0  0  0  0  0  0  0
  188.3070  174.7440  140.4870 C   0  0  0  0  0  0  0  0  0  0  0  0
  191.3610  171.2060  138.1130 C   0  0  0  0  0  3  0  0  0  0  0  0
  189.3080  173.4390  143.5290 C   0  0  0  0  0  3  0  0  0  0  0  0
  189.8330  174.2230  142.4900 C   0  0  0  0  0  0  0  0  0  0  0  0
  190.7380  175.2470  142.8100 C   0  0  0  0  0  3  0  0  0  0  0  0
  191.1290  175.4650  144.1340 C   0  0  0  0  0  3  0  0  0  0  0  0
  190.6140  174.6710  145.1610 C   0  0  0  0  0  0  0  0  0  0  0  0
  189.6960  173.6560  144.8530 C   0  0  0  0  0  3  0  0  0  0  0  0
  191.0280  174.9110  146.5080 N   0  0  0  0  0  2  0  0  0  0  0  0
  190.6960  176.1290  147.2290 C   0  0  0  0  0  2  0  0  0  0  0  0
  189.2520  176.2870  147.2740 N   0  0  0  0  0  2  0  0  0  0  0  0
  189.2050  177.8980  145.5840 O   0  0  0  0  0  0  0  0  0  0  0  0
  188.5630  177.1820  146.4020 C   0  0  0  0  0  0  0  0  0  0  0  0
  186.4560  177.6290  145.1230 C   0  0  2  0  0  3  0  0  0  0  0  0
  184.4350  177.8950  146.5020 N   0  0  0  0  0  2  0  0  0  0  0  0
  185.1490  178.4750  147.6470 C   0  0  0  0  0  2  0  0  0  0  0  0
  185.0920  178.3150  145.2660 C   0  0  0  0  0  2  0  0  0  0  0  0
  186.3060  176.3670  144.2940 C   0  0  0  0  0  1  0  0  0  0  0  0
  187.0760  177.2850  146.4880 C   0  0  2  0  0  3  0  0  0  0  0  0
  186.6750  178.2970  147.5620 C   0  0  0  0  0  2  0  0  0  0  0  0
  187.4570  175.7090  141.2540 C   0  0  0  0  0  2  0  0  0  0  0  0
  188.0010  177.9900  141.6550 O   0  0  0  0  0  1  0  0  0  0  0  0
  187.5570  177.1100  140.6680 C   0  0  2  0  0  3  0  0  0  0  0  0
  186.2540  177.5410  140.1850 N   0  0  0  0  0  2  0  0  0  0  0  0
  185.7440  178.4410  141.1280 N   0  0  0  0  0  2  0  0  0  0  0  0
  183.3640  178.1490  142.0210 N   0  0  0  0  0  0  0  0  0  0  0  0
  184.4410  178.2810  141.6170 C   0  0  0  0  0  0  0  0  0  0  0  0
  1 10  1  0  0  0  0
  2 13  2  0  0  0  0
  2  9  1  0  0  0  0
  3 13  1  0  0  0  0
  4 12  1  0  0  0  0
  5  6  2  0  0  0  0
  6  1  1  0  0  0  0
  6  2  1  0  0  0  0
  7  5  1  0  0  0  0
  7  3  2  0  0  0  0
  8 11  1  0  0  0  0
  9  8  2  0  0  0  0
 10  9  1  0  0  0  0
 10  4  2  0  0  0  0
 11 15  1  0  0  0  0
 12 11  2  0  0  0  0
 12 32  1  0  0  0  0
 14 19  1  0  0  0  0
 15 16  1  0  0  0  0
 15 14  2  0  0  0  0
 16 17  2  0  0  0  0
 17 18  1  0  0  0  0
 18 20  1  0  0  0  0
 19 18  2  0  0  0  0
 20 21  1  0  0  0  0
 21 22  1  0  0  0  0
 23 24  2  0  0  0  0
 24 22  1  0  0  0  0
 25 29  1  6  0  0  0
 25 28  1  0  0  0  0
 25 30  1  0  0  0  0
 26 27  1  0  0  0  0
 28 26  1  0  0  0  0
 30 24  1  6  0  0  0
 30 31  1  0  0  0  0
 31 27  1  0  0  0  0
 34 32  1  0  0  0  0
 34 33  1  1  0  0  0
 35 34  1  0  0  0  0
 35 36  1  0  0  0  0
 36 38  1  0  0  0  0
 38 37  3  0  0  0  0
M  END
>  <MODEL>
9

>  <REMARK>
 VINA RESULT:      -7.2      3.636      6.470
  Name = 
  10 active torsions:
  status: ('A' for Active; 'I' for Inactive)
    1  A    between atoms: C_8  and  C_32
    2  A    between atoms: C_18  and  N_25
    3  A    between atoms: C_18  and  C_28
    4  A    between atoms: C_20  and  N_23
    5  A    between atoms: N_21  and  C_22
    6  A    between atoms: N_21  and  N_25
    7  A    between atoms: N_23  and  C_24
    8  A    between atoms: C_24  and  N_27
    9  A    between atoms: C_28  and  C_33
   10  A    between atoms: C_31  and  C_38
                            x       y       z     vdW  Elec       q    Type
                         _______ _______ _______ _____ _____    ______ ____

>  <TORSDO>
F 10

$$$$
