=
 OpenBabel11042418543D

 31 34  0  0  1  0  0  0  0  0999 V2000
  187.7890  176.3970  142.4400 C   0  0  0  0  0  0  0  0  0  0  0  0
  184.6390  179.0810  145.8960 O   0  0  0  0  0  0  0  0  0  0  0  0
  186.8020  177.0720  143.2420 C   0  0  0  0  0  0  0  0  0  0  0  0
  188.9790  176.5500  142.9340 N   0  0  0  0  0  0  0  0  0  0  0  0
  188.9110  177.3670  144.1610 C   0  0  1  0  0  3  0  0  0  0  0  0
  186.7340  178.3830  145.2320 C   0  0  0  0  0  3  0  0  0  0  0  0
  184.7480  177.8320  143.9980 N   0  0  0  0  0  2  0  0  0  0  0  0
  185.4610  177.1480  143.0940 N   0  0  0  0  0  0  0  0  0  0  0  0
  187.4480  177.6630  144.2800 C   0  0  0  0  0  0  0  0  0  0  0  0
  187.5040  175.6170  141.2780 N   0  0  0  0  0  2  0  0  0  0  0  0
  185.3420  178.4530  145.0640 C   0  0  0  0  0  0  0  0  0  0  0  0
  189.4000  176.5820  145.3440 C   0  0  0  0  0  0  0  0  0  0  0  0
  191.3890  177.1860  148.4390 N   0  0  0  0  0  1  0  0  0  0  0  0
  189.4970  174.5310  146.6410 C   0  0  0  0  0  3  0  0  0  0  0  0
  190.1710  177.2270  146.3200 C   0  0  0  0  0  3  0  0  0  0  0  0
  190.2700  175.1780  147.6090 C   0  0  0  0  0  3  0  0  0  0  0  0
  190.6060  176.5260  147.4500 C   0  0  0  0  0  0  0  0  0  0  0  0
  189.0590  175.2310  145.5140 C   0  0  0  0  0  3  0  0  0  0  0  0
  188.5330  174.9000  140.5350 C   0  0  0  0  0  2  0  0  0  0  0  0
  188.3610  173.3930  140.6840 C   0  0  0  0  0  2  0  0  0  0  0  0
  189.1460  172.8550  141.8740 C   0  0  0  0  0  2  0  0  0  0  0  0
  190.3780  173.5030  141.9740 O   0  0  0  0  0  0  0  0  0  0  0  0
  191.1340  172.6990  142.8280 C   0  0  0  0  0  2  0  0  0  0  0  0
  191.9460  173.5480  143.7440 C   0  0  0  0  0  0  0  0  0  0  0  0
  193.2860  173.7700  145.7500 C   0  0  0  0  0  3  0  0  0  0  0  0
  192.9740  177.0740  144.1120 O   0  0  0  0  0  1  0  0  0  0  0  0
  193.4380  175.1380  145.5050 C   0  0  0  0  0  0  0  0  0  0  0  0
  192.8350  175.7160  144.3740 C   0  0  0  0  0  0  0  0  0  0  0  0
  192.0870  174.9200  143.5010 C   0  0  0  0  0  3  0  0  0  0  0  0
  194.2400  175.9620  146.4500 C   0  0  0  0  0  1  0  0  0  0  0  0
  192.5420  172.9760  144.8740 C   0  0  0  0  0  3  0  0  0  0  0  0
  1  4  2  0  0  0  0
  1  3  1  0  0  0  0
  3  9  1  0  0  0  0
  4  5  1  0  0  0  0
  5  9  1  0  0  0  0
  5 12  1  1  0  0  0
  7 11  1  0  0  0  0
  8  3  2  0  0  0  0
  8  7  1  0  0  0  0
  9  6  2  0  0  0  0
 10  1  1  0  0  0  0
 11  6  1  0  0  0  0
 11  2  2  0  0  0  0
 12 18  2  0  0  0  0
 12 15  1  0  0  0  0
 14 16  2  0  0  0  0
 15 17  2  0  0  0  0
 17 16  1  0  0  0  0
 17 13  1  0  0  0  0
 18 14  1  0  0  0  0
 19 20  1  0  0  0  0
 19 10  1  0  0  0  0
 20 21  1  0  0  0  0
 21 22  1  0  0  0  0
 22 23  1  0  0  0  0
 23 24  1  0  0  0  0
 24 31  1  0  0  0  0
 26 28  1  0  0  0  0
 27 25  1  0  0  0  0
 27 30  1  0  0  0  0
 28 27  2  0  0  0  0
 29 24  2  0  0  0  0
 29 28  1  0  0  0  0
 31 25  2  0  0  0  0
M  END
>  <MODEL>
1

>  <REMARK>
 VINA RESULT:      -7.0      0.000      0.000
  Name = 
  7 active torsions:
  status: ('A' for Active; 'I' for Inactive)
    1  A    between atoms: C_1  and  C_24
    2  A    between atoms: C_3  and  C_17
    3  A    between atoms: C_13  and  C_15
    4  A    between atoms: C_13  and  N_29
    5  A    between atoms: C_15  and  C_20
    6  A    between atoms: C_20  and  O_23
    7  A    between atoms: O_23  and  C_24
                            x       y       z     vdW  Elec       q    Type
                         _______ _______ _______ _____ _____    ______ ____

>  <TORSDO>
F 7

$$$$
=
 OpenBabel11042418543D

 31 34  0  0  1  0  0  0  0  0999 V2000
  188.7250  175.7870  145.4130 C   0  0  0  0  0  0  0  0  0  0  0  0
  190.5800  173.4270  140.9340 O   0  0  0  0  0  0  0  0  0  0  0  0
  189.0750  175.2450  144.1260 C   0  0  0  0  0  0  0  0  0  0  0  0
  189.4920  175.3090  146.3450 N   0  0  0  0  0  0  0  0  0  0  0  0
  190.4680  174.3710  145.7600 C   0  0  1  0  0  3  0  0  0  0  0  0
  190.6730  173.7270  143.2180 C   0  0  0  0  0  3  0  0  0  0  0  0
  189.0670  174.8640  141.8400 N   0  0  0  0  0  2  0  0  0  0  0  0
  188.5470  175.4880  142.9050 N   0  0  0  0  0  0  0  0  0  0  0  0
  190.1160  174.3920  144.3040 C   0  0  0  0  0  0  0  0  0  0  0  0
  187.7040  176.7590  145.6420 N   0  0  0  0  0  2  0  0  0  0  0  0
  190.1140  173.9900  141.9570 C   0  0  0  0  0  0  0  0  0  0  0  0
  191.8690  174.8620  145.9830 C   0  0  0  0  0  0  0  0  0  0  0  0
  195.3510  173.6250  145.4880 N   0  0  0  0  0  1  0  0  0  0  0  0
  193.4330  176.6040  146.6310 C   0  0  0  0  0  3  0  0  0  0  0  0
  192.9450  174.0270  145.6570 C   0  0  0  0  0  3  0  0  0  0  0  0
  194.5030  175.7650  146.3090 C   0  0  0  0  0  3  0  0  0  0  0  0
  194.2600  174.4770  145.8210 C   0  0  0  0  0  0  0  0  0  0  0  0
  192.1200  176.1570  146.4650 C   0  0  0  0  0  3  0  0  0  0  0  0
  187.4310  177.3240  146.9580 C   0  0  0  0  0  2  0  0  0  0  0  0
  186.0070  177.0110  147.3990 C   0  0  0  0  0  2  0  0  0  0  0  0
  185.1010  178.2290  147.2700 C   0  0  0  0  0  2  0  0  0  0  0  0
  184.2830  178.1070  146.1450 O   0  0  0  0  0  0  0  0  0  0  0  0
  184.5460  179.2510  145.3910 C   0  0  0  0  0  2  0  0  0  0  0  0
  184.9040  178.8720  143.9950 C   0  0  0  0  0  0  0  0  0  0  0  0
  184.2340  178.0750  141.8070 C   0  0  0  0  0  3  0  0  0  0  0  0
  187.9030  178.5640  141.8640 O   0  0  0  0  0  1  0  0  0  0  0  0
  185.5650  178.1100  141.3810 C   0  0  0  0  0  0  0  0  0  0  0  0
  186.5740  178.5220  142.2690 C   0  0  0  0  0  0  0  0  0  0  0  0
  186.2400  178.8970  143.5740 C   0  0  0  0  0  3  0  0  0  0  0  0
  185.8930  177.7060  139.9850 C   0  0  0  0  0  1  0  0  0  0  0  0
  183.9040  178.4540  143.1110 C   0  0  0  0  0  3  0  0  0  0  0  0
  1 10  1  0  0  0  0
  1  4  2  0  0  0  0
  2 11  2  0  0  0  0
  3  9  1  0  0  0  0
  3  1  1  0  0  0  0
  5 12  1  6  0  0  0
  5  4  1  0  0  0  0
  6  9  2  0  0  0  0
  7 11  1  0  0  0  0
  7  8  1  0  0  0  0
  8  3  2  0  0  0  0
  9  5  1  0  0  0  0
 10 19  1  0  0  0  0
 11  6  1  0  0  0  0
 12 18  1  0  0  0  0
 13 17  1  0  0  0  0
 15 17  1  0  0  0  0
 15 12  2  0  0  0  0
 16 14  1  0  0  0  0
 17 16  2  0  0  0  0
 18 14  2  0  0  0  0
 19 20  1  0  0  0  0
 21 20  1  0  0  0  0
 22 21  1  0  0  0  0
 23 22  1  0  0  0  0
 24 23  1  0  0  0  0
 25 31  1  0  0  0  0
 26 28  1  0  0  0  0
 27 25  2  0  0  0  0
 27 28  1  0  0  0  0
 28 29  2  0  0  0  0
 29 24  1  0  0  0  0
 30 27  1  0  0  0  0
 31 24  2  0  0  0  0
M  END
>  <MODEL>
2

>  <REMARK>
 VINA RESULT:      -6.4      2.344      6.826
  Name = 
  7 active torsions:
  status: ('A' for Active; 'I' for Inactive)
    1  A    between atoms: C_1  and  C_24
    2  A    between atoms: C_3  and  C_17
    3  A    between atoms: C_13  and  C_15
    4  A    between atoms: C_13  and  N_29
    5  A    between atoms: C_15  and  C_20
    6  A    between atoms: C_20  and  O_23
    7  A    between atoms: O_23  and  C_24
                            x       y       z     vdW  Elec       q    Type
                         _______ _______ _______ _____ _____    ______ ____

>  <TORSDO>
F 7

$$$$
=
 OpenBabel11042418543D

 31 34  0  0  1  0  0  0  0  0999 V2000
  191.6870  173.0530  142.8640 C   0  0  0  0  0  0  0  0  0  0  0  0
  195.5200  174.8070  146.2270 O   0  0  0  0  0  0  0  0  0  0  0  0
  192.8360  173.4710  143.6240 C   0  0  0  0  0  0  0  0  0  0  0  0
  190.5970  173.1780  143.5570 N   0  0  0  0  0  0  0  0  0  0  0  0
  190.9130  173.7140  144.8950 C   0  0  1  0  0  3  0  0  0  0  0  0
  193.3030  174.3410  145.7940 C   0  0  0  0  0  3  0  0  0  0  0  0
  195.0320  173.9700  144.1680 N   0  0  0  0  0  2  0  0  0  0  0  0
  194.1420  173.5180  143.2770 N   0  0  0  0  0  0  0  0  0  0  0  0
  192.4010  173.8700  144.8470 C   0  0  0  0  0  0  0  0  0  0  0  0
  191.7210  172.6050  141.5080 N   0  0  0  0  0  2  0  0  0  0  0  0
  194.6560  174.3830  145.4180 C   0  0  0  0  0  0  0  0  0  0  0  0
  190.2370  175.0380  145.1050 C   0  0  0  0  0  0  0  0  0  0  0  0
  187.4730  176.4420  147.1750 N   0  0  0  0  0  1  0  0  0  0  0  0
  190.0610  177.4240  144.6860 C   0  0  0  0  0  3  0  0  0  0  0  0
  189.1740  175.1260  146.0120 C   0  0  0  0  0  3  0  0  0  0  0  0
  188.9970  177.5050  145.5890 C   0  0  0  0  0  3  0  0  0  0  0  0
  188.5530  176.3570  146.2520 C   0  0  0  0  0  0  0  0  0  0  0  0
  190.6830  176.1960  144.4480 C   0  0  0  0  0  3  0  0  0  0  0  0
  190.5200  172.2520  140.7610 C   0  0  0  0  0  2  0  0  0  0  0  0
  190.0200  173.4380  139.9450 C   0  0  0  0  0  2  0  0  0  0  0  0
  188.5450  173.7160  140.2100 C   0  0  0  0  0  2  0  0  0  0  0  0
  188.3790  175.0090  140.7090 O   0  0  0  0  0  0  0  0  0  0  0  0
  187.8260  174.8300  141.9780 C   0  0  0  0  0  2  0  0  0  0  0  0
  187.2310  176.1080  142.4610 C   0  0  0  0  0  0  0  0  0  0  0  0
  187.0840  178.5230  142.3400 C   0  0  0  0  0  3  0  0  0  0  0  0
  184.8530  177.2910  145.0240 O   0  0  0  0  0  1  0  0  0  0  0  0
  186.1600  178.5250  143.3880 C   0  0  0  0  0  0  0  0  0  0  0  0
  185.7720  177.3110  143.9810 C   0  0  0  0  0  0  0  0  0  0  0  0
  186.3130  176.1080  143.5190 C   0  0  0  0  0  3  0  0  0  0  0  0
  185.5980  179.8210  143.8610 C   0  0  0  0  0  1  0  0  0  0  0  0
  187.6200  177.3190  141.8770 C   0  0  0  0  0  3  0  0  0  0  0  0
  1  4  2  0  0  0  0
  1  3  1  0  0  0  0
  3  9  1  0  0  0  0
  4  5  1  0  0  0  0
  5 12  1  6  0  0  0
  7 11  1  0  0  0  0
  8  3  2  0  0  0  0
  8  7  1  0  0  0  0
  9  5  1  0  0  0  0
  9  6  2  0  0  0  0
 10  1  1  0  0  0  0
 11  6  1  0  0  0  0
 11  2  2  0  0  0  0
 12 15  1  0  0  0  0
 14 16  2  0  0  0  0
 15 17  2  0  0  0  0
 16 17  1  0  0  0  0
 17 13  1  0  0  0  0
 18 14  1  0  0  0  0
 18 12  2  0  0  0  0
 19 10  1  0  0  0  0
 20 21  1  0  0  0  0
 20 19  1  0  0  0  0
 21 22  1  0  0  0  0
 22 23  1  0  0  0  0
 23 24  1  0  0  0  0
 24 29  1  0  0  0  0
 25 27  2  0  0  0  0
 27 30  1  0  0  0  0
 27 28  1  0  0  0  0
 28 26  1  0  0  0  0
 29 28  2  0  0  0  0
 31 25  1  0  0  0  0
 31 24  2  0  0  0  0
M  END
>  <MODEL>
3

>  <REMARK>
 VINA RESULT:      -6.2      2.550      6.377
  Name = 
  7 active torsions:
  status: ('A' for Active; 'I' for Inactive)
    1  A    between atoms: C_1  and  C_24
    2  A    between atoms: C_3  and  C_17
    3  A    between atoms: C_13  and  C_15
    4  A    between atoms: C_13  and  N_29
    5  A    between atoms: C_15  and  C_20
    6  A    between atoms: C_20  and  O_23
    7  A    between atoms: O_23  and  C_24
                            x       y       z     vdW  Elec       q    Type
                         _______ _______ _______ _____ _____    ______ ____

>  <TORSDO>
F 7

$$$$
=
 OpenBabel11042418543D

 31 34  0  0  1  0  0  0  0  0999 V2000
  189.1900  175.5820  145.0360 C   0  0  0  0  0  0  0  0  0  0  0  0
  188.0280  175.0170  139.8010 O   0  0  0  0  0  0  0  0  0  0  0  0
  188.9480  175.2500  143.6560 C   0  0  0  0  0  0  0  0  0  0  0  0
  188.9130  176.8270  145.2740 N   0  0  0  0  0  0  0  0  0  0  0  0
  188.4370  177.4790  144.0400 C   0  0  1  0  0  3  0  0  0  0  0  0
  188.1670  176.3400  141.6850 C   0  0  0  0  0  3  0  0  0  0  0  0
  188.7750  174.0160  141.7040 N   0  0  0  0  0  2  0  0  0  0  0  0
  189.0880  174.0750  143.0040 N   0  0  0  0  0  0  0  0  0  0  0  0
  188.4970  176.3700  143.0350 C   0  0  0  0  0  0  0  0  0  0  0  0
  189.6320  174.6600  146.0340 N   0  0  0  0  0  2  0  0  0  0  0  0
  188.3180  175.1120  141.0210 C   0  0  0  0  0  0  0  0  0  0  0  0
  187.0300  177.9740  144.2140 C   0  0  0  0  0  0  0  0  0  0  0  0
  184.4790  178.1750  146.9250 N   0  0  0  0  0  1  0  0  0  0  0  0
  185.0530  179.1010  143.3650 C   0  0  0  0  0  3  0  0  0  0  0  0
  186.4060  177.8330  145.4600 C   0  0  0  0  0  3  0  0  0  0  0  0
  184.4330  178.9530  144.6100 C   0  0  0  0  0  3  0  0  0  0  0  0
  185.1090  178.3200  145.6570 C   0  0  0  0  0  0  0  0  0  0  0  0
  186.3490  178.6170  143.1680 C   0  0  0  0  0  3  0  0  0  0  0  0
  189.8020  175.0300  147.4330 C   0  0  0  0  0  2  0  0  0  0  0  0
  191.2790  175.1370  147.7910 C   0  0  0  0  0  2  0  0  0  0  0  0
  191.8150  176.5410  147.5410 C   0  0  0  0  0  2  0  0  0  0  0  0
  192.5730  176.5680  146.3690 O   0  0  0  0  0  0  0  0  0  0  0  0
  193.8920  176.7080  146.8030 C   0  0  0  0  0  2  0  0  0  0  0  0
  194.8220  176.0730  145.8280 C   0  0  0  0  0  0  0  0  0  0  0  0
  196.3380  174.2730  145.2520 C   0  0  0  0  0  3  0  0  0  0  0  0
  196.2460  176.7320  142.4870 O   0  0  0  0  0  1  0  0  0  0  0  0
  196.6110  174.8870  144.0260 C   0  0  0  0  0  0  0  0  0  0  0  0
  195.9890  176.1050  143.7010 C   0  0  0  0  0  0  0  0  0  0  0  0
  195.1020  176.6960  144.6050 C   0  0  0  0  0  3  0  0  0  0  0  0
  197.5600  174.2360  143.0810 C   0  0  0  0  0  1  0  0  0  0  0  0
  195.4470  174.8640  146.1520 C   0  0  0  0  0  3  0  0  0  0  0  0
  1  4  2  0  0  0  0
  1 10  1  0  0  0  0
  2 11  2  0  0  0  0
  3  1  1  0  0  0  0
  5 12  1  1  0  0  0
  5  4  1  0  0  0  0
  6  9  2  0  0  0  0
  7  8  1  0  0  0  0
  8  3  2  0  0  0  0
  9  3  1  0  0  0  0
  9  5  1  0  0  0  0
 10 19  1  0  0  0  0
 11  6  1  0  0  0  0
 11  7  1  0  0  0  0
 12 15  1  0  0  0  0
 14 16  2  0  0  0  0
 15 17  2  0  0  0  0
 16 17  1  0  0  0  0
 17 13  1  0  0  0  0
 18 14  1  0  0  0  0
 18 12  2  0  0  0  0
 19 20  1  0  0  0  0
 21 20  1  0  0  0  0
 22 23  1  0  0  0  0
 22 21  1  0  0  0  0
 24 31  1  0  0  0  0
 24 23  1  0  0  0  0
 25 31  2  0  0  0  0
 26 28  1  0  0  0  0
 27 25  1  0  0  0  0
 28 27  2  0  0  0  0
 28 29  1  0  0  0  0
 29 24  2  0  0  0  0
 30 27  1  0  0  0  0
M  END
>  <MODEL>
4

>  <REMARK>
 VINA RESULT:      -6.2      2.663      5.187
  Name = 
  7 active torsions:
  status: ('A' for Active; 'I' for Inactive)
    1  A    between atoms: C_1  and  C_24
    2  A    between atoms: C_3  and  C_17
    3  A    between atoms: C_13  and  C_15
    4  A    between atoms: C_13  and  N_29
    5  A    between atoms: C_15  and  C_20
    6  A    between atoms: C_20  and  O_23
    7  A    between atoms: O_23  and  C_24
                            x       y       z     vdW  Elec       q    Type
                         _______ _______ _______ _____ _____    ______ ____

>  <TORSDO>
F 7

$$$$
=
 OpenBabel11042418543D

 31 34  0  0  1  0  0  0  0  0999 V2000
  191.2840  172.8720  142.6940 C   0  0  0  0  0  0  0  0  0  0  0  0
  195.4700  173.9830  145.9050 O   0  0  0  0  0  0  0  0  0  0  0  0
  192.5130  173.1250  143.3990 C   0  0  0  0  0  0  0  0  0  0  0  0
  190.2590  172.9950  143.4800 N   0  0  0  0  0  0  0  0  0  0  0  0
  190.7100  173.3580  144.8370 C   0  0  1  0  0  3  0  0  0  0  0  0
  193.2000  173.7190  145.6030 C   0  0  0  0  0  3  0  0  0  0  0  0
  194.7740  173.4110  143.8150 N   0  0  0  0  0  2  0  0  0  0  0  0
  193.7900  173.1200  142.9550 N   0  0  0  0  0  0  0  0  0  0  0  0
  192.1980  173.4170  144.6870 C   0  0  0  0  0  0  0  0  0  0  0  0
  191.1860  172.5720  141.3000 N   0  0  0  0  0  2  0  0  0  0  0  0
  194.5210  173.7100  145.1280 C   0  0  0  0  0  0  0  0  0  0  0  0
  190.1540  174.6950  145.2360 C   0  0  0  0  0  0  0  0  0  0  0  0
  190.2890  178.2220  144.0390 N   0  0  0  0  0  1  0  0  0  0  0  0
  188.7390  176.0710  146.6530 C   0  0  0  0  0  3  0  0  0  0  0  0
  190.4850  175.8260  144.4800 C   0  0  0  0  0  3  0  0  0  0  0  0
  189.0780  177.1970  145.8970 C   0  0  0  0  0  3  0  0  0  0  0  0
  189.9490  177.0750  144.8110 C   0  0  0  0  0  0  0  0  0  0  0  0
  189.2710  174.8220  146.3210 C   0  0  0  0  0  3  0  0  0  0  0  0
  189.9120  172.3870  140.6190 C   0  0  0  0  0  2  0  0  0  0  0  0
  189.6010  173.5720  139.7140 C   0  0  0  0  0  2  0  0  0  0  0  0
  188.3450  174.3080  140.1670 C   0  0  0  0  0  2  0  0  0  0  0  0
  188.6370  175.1410  141.2480 O   0  0  0  0  0  0  0  0  0  0  0  0
  187.6130  174.9020  142.1660 C   0  0  0  0  0  2  0  0  0  0  0  0
  187.0590  176.1930  142.6610 C   0  0  0  0  0  0  0  0  0  0  0  0
  186.8890  178.6030  142.4780 C   0  0  0  0  0  3  0  0  0  0  0  0
  184.9220  177.4530  145.3950 O   0  0  0  0  0  1  0  0  0  0  0  0
  186.0650  178.6370  143.6070 C   0  0  0  0  0  0  0  0  0  0  0  0
  185.7400  177.4420  144.2710 C   0  0  0  0  0  0  0  0  0  0  0  0
  186.2430  176.2250  143.7990 C   0  0  0  0  0  3  0  0  0  0  0  0
  185.5430  179.9460  144.0880 C   0  0  0  0  0  1  0  0  0  0  0  0
  187.3860  177.3860  142.0060 C   0  0  0  0  0  3  0  0  0  0  0  0
  1  3  1  0  0  0  0
  1  4  2  0  0  0  0
  3  9  1  0  0  0  0
  4  5  1  0  0  0  0
  5 12  1  6  0  0  0
  7 11  1  0  0  0  0
  8  3  2  0  0  0  0
  8  7  1  0  0  0  0
  9  5  1  0  0  0  0
  9  6  2  0  0  0  0
 10  1  1  0  0  0  0
 11  6  1  0  0  0  0
 11  2  2  0  0  0  0
 12 18  1  0  0  0  0
 13 17  1  0  0  0  0
 15 17  1  0  0  0  0
 15 12  2  0  0  0  0
 16 14  1  0  0  0  0
 17 16  2  0  0  0  0
 18 14  2  0  0  0  0
 19 10  1  0  0  0  0
 20 21  1  0  0  0  0
 20 19  1  0  0  0  0
 21 22  1  0  0  0  0
 22 23  1  0  0  0  0
 23 24  1  0  0  0  0
 24 29  1  0  0  0  0
 25 27  2  0  0  0  0
 27 30  1  0  0  0  0
 27 28  1  0  0  0  0
 28 26  1  0  0  0  0
 29 28  2  0  0  0  0
 31 25  1  0  0  0  0
 31 24  2  0  0  0  0
M  END
>  <MODEL>
5

>  <REMARK>
 VINA RESULT:      -6.2      2.449      6.391
  Name = 
  7 active torsions:
  status: ('A' for Active; 'I' for Inactive)
    1  A    between atoms: C_1  and  C_24
    2  A    between atoms: C_3  and  C_17
    3  A    between atoms: C_13  and  C_15
    4  A    between atoms: C_13  and  N_29
    5  A    between atoms: C_15  and  C_20
    6  A    between atoms: C_20  and  O_23
    7  A    between atoms: O_23  and  C_24
                            x       y       z     vdW  Elec       q    Type
                         _______ _______ _______ _____ _____    ______ ____

>  <TORSDO>
F 7

$$$$
=
 OpenBabel11042418543D

 31 34  0  0  1  0  0  0  0  0999 V2000
  191.2020  173.8700  143.0830 C   0  0  0  0  0  0  0  0  0  0  0  0
  195.8460  176.4490  144.0080 O   0  0  0  0  0  0  0  0  0  0  0  0
  192.4740  174.5410  143.1400 C   0  0  0  0  0  0  0  0  0  0  0  0
  190.6980  173.7210  144.2700 N   0  0  0  0  0  0  0  0  0  0  0  0
  191.6080  174.2990  145.2770 C   0  0  1  0  0  3  0  0  0  0  0  0
  193.9140  175.4700  144.7980 C   0  0  0  0  0  3  0  0  0  0  0  0
  194.4470  175.5460  142.4570 N   0  0  0  0  0  2  0  0  0  0  0  0
  193.3140  174.9040  142.1450 N   0  0  0  0  0  0  0  0  0  0  0  0
  192.7430  174.8090  144.4440 C   0  0  0  0  0  0  0  0  0  0  0  0
  190.5460  173.4600  141.8820 N   0  0  0  0  0  2  0  0  0  0  0  0
  194.7760  175.8410  143.7540 C   0  0  0  0  0  0  0  0  0  0  0  0
  190.9340  175.4200  146.0140 C   0  0  0  0  0  0  0  0  0  0  0  0
  191.5650  177.5400  149.0140 N   0  0  0  0  0  1  0  0  0  0  0  0
  189.1460  177.0510  146.2270 C   0  0  0  0  0  3  0  0  0  0  0  0
  191.5380  175.9420  147.1640 C   0  0  0  0  0  3  0  0  0  0  0  0
  189.7510  177.5650  147.3780 C   0  0  0  0  0  3  0  0  0  0  0  0
  190.9470  177.0120  147.8460 C   0  0  0  0  0  0  0  0  0  0  0  0
  189.7360  175.9850  145.5440 C   0  0  0  0  0  3  0  0  0  0  0  0
  189.2280  172.8390  141.8740 C   0  0  0  0  0  2  0  0  0  0  0  0
  188.1300  173.8950  141.8390 C   0  0  0  0  0  2  0  0  0  0  0  0
  188.5200  175.0790  140.9630 C   0  0  0  0  0  2  0  0  0  0  0  0
  188.4150  176.2700  141.6830 O   0  0  0  0  0  0  0  0  0  0  0  0
  187.0840  176.6600  141.5290 C   0  0  0  0  0  2  0  0  0  0  0  0
  186.5610  177.2080  142.8120 C   0  0  0  0  0  0  0  0  0  0  0  0
  185.7740  176.8450  145.0750 C   0  0  0  0  0  3  0  0  0  0  0  0
  185.5650  180.4510  144.2680 O   0  0  0  0  0  1  0  0  0  0  0  0
  185.5310  178.2140  145.2160 C   0  0  0  0  0  0  0  0  0  0  0  0
  185.7990  179.0860  144.1470 C   0  0  0  0  0  0  0  0  0  0  0  0
  186.3080  178.5790  142.9470 C   0  0  0  0  0  3  0  0  0  0  0  0
  184.9900  178.7280  146.5050 C   0  0  0  0  0  1  0  0  0  0  0  0
  186.2860  176.3420  143.8760 C   0  0  0  0  0  3  0  0  0  0  0  0
  1  3  1  0  0  0  0
  1  4  2  0  0  0  0
  3  9  1  0  0  0  0
  4  5  1  0  0  0  0
  5 12  1  6  0  0  0
  7 11  1  0  0  0  0
  8  7  1  0  0  0  0
  8  3  2  0  0  0  0
  9  6  2  0  0  0  0
  9  5  1  0  0  0  0
 10  1  1  0  0  0  0
 11  2  2  0  0  0  0
 11  6  1  0  0  0  0
 12 15  1  0  0  0  0
 14 16  2  0  0  0  0
 15 17  2  0  0  0  0
 16 17  1  0  0  0  0
 17 13  1  0  0  0  0
 18 12  2  0  0  0  0
 18 14  1  0  0  0  0
 19 10  1  0  0  0  0
 20 19  1  0  0  0  0
 21 22  1  0  0  0  0
 21 20  1  0  0  0  0
 23 22  1  0  0  0  0
 23 24  1  0  0  0  0
 24 29  2  0  0  0  0
 24 31  1  0  0  0  0
 25 27  1  0  0  0  0
 27 30  1  0  0  0  0
 28 26  1  0  0  0  0
 28 27  2  0  0  0  0
 29 28  1  0  0  0  0
 31 25  2  0  0  0  0
M  END
>  <MODEL>
6

>  <REMARK>
 VINA RESULT:      -6.0      2.417      6.182
  Name = 
  7 active torsions:
  status: ('A' for Active; 'I' for Inactive)
    1  A    between atoms: C_1  and  C_24
    2  A    between atoms: C_3  and  C_17
    3  A    between atoms: C_13  and  C_15
    4  A    between atoms: C_13  and  N_29
    5  A    between atoms: C_15  and  C_20
    6  A    between atoms: C_20  and  O_23
    7  A    between atoms: O_23  and  C_24
                            x       y       z     vdW  Elec       q    Type
                         _______ _______ _______ _____ _____    ______ ____

>  <TORSDO>
F 7

$$$$
=
 OpenBabel11042418543D

 31 34  0  0  1  0  0  0  0  0999 V2000
  190.5190  174.3440  144.0190 C   0  0  0  0  0  0  0  0  0  0  0  0
  191.4500  176.7210  148.7690 O   0  0  0  0  0  0  0  0  0  0  0  0
  190.6090  174.8880  145.3490 C   0  0  0  0  0  0  0  0  0  0  0  0
  191.4400  174.8370  143.2490 N   0  0  0  0  0  0  0  0  0  0  0  0
  192.2720  175.7890  144.0100 C   0  0  1  0  0  3  0  0  0  0  0  0
  191.9810  176.4290  146.5440 C   0  0  0  0  0  3  0  0  0  0  0  0
  190.1610  175.2620  147.5910 N   0  0  0  0  0  2  0  0  0  0  0  0
  189.8630  174.6330  146.4480 N   0  0  0  0  0  0  0  0  0  0  0  0
  191.6500  175.7580  145.3710 C   0  0  0  0  0  0  0  0  0  0  0  0
  189.5760  173.3560  143.6010 N   0  0  0  0  0  2  0  0  0  0  0  0
  191.1970  176.1540  147.6760 C   0  0  0  0  0  0  0  0  0  0  0  0
  193.6980  175.3220  144.0560 C   0  0  0  0  0  0  0  0  0  0  0  0
  197.0830  176.6650  143.2570 N   0  0  0  0  0  1  0  0  0  0  0  0
  195.3720  173.6590  144.6350 C   0  0  0  0  0  3  0  0  0  0  0  0
  194.7140  176.1840  143.6260 C   0  0  0  0  0  3  0  0  0  0  0  0
  196.3810  174.5220  144.1990 C   0  0  0  0  0  3  0  0  0  0  0  0
  196.0530  175.7840  143.6960 C   0  0  0  0  0  0  0  0  0  0  0  0
  194.0350  174.0580  144.5690 C   0  0  0  0  0  3  0  0  0  0  0  0
  189.5670  172.7910  142.2570 C   0  0  0  0  0  2  0  0  0  0  0  0
  188.3340  173.2430  141.4850 C   0  0  0  0  0  2  0  0  0  0  0  0
  188.4510  174.6980  141.0480 C   0  0  0  0  0  2  0  0  0  0  0  0
  187.5000  175.4790  141.7070 O   0  0  0  0  0  0  0  0  0  0  0  0
  188.2010  176.6100  142.1290 C   0  0  0  0  0  2  0  0  0  0  0  0
  187.5120  177.2330  143.2950 C   0  0  0  0  0  0  0  0  0  0  0  0
  186.9100  177.1790  145.6410 C   0  0  0  0  0  3  0  0  0  0  0  0
  185.4020  180.1640  144.0550 O   0  0  0  0  0  1  0  0  0  0  0  0
  186.1840  178.3640  145.4870 C   0  0  0  0  0  0  0  0  0  0  0  0
  186.1180  178.9850  144.2280 C   0  0  0  0  0  0  0  0  0  0  0  0
  186.7770  178.4140  143.1350 C   0  0  0  0  0  3  0  0  0  0  0  0
  185.4920  178.9510  146.6680 C   0  0  0  0  0  1  0  0  0  0  0  0
  187.5710  176.6130  144.5480 C   0  0  0  0  0  3  0  0  0  0  0  0
  1  3  1  0  0  0  0
  3  9  1  0  0  0  0
  3  8  2  0  0  0  0
  4  5  1  0  0  0  0
  4  1  2  0  0  0  0
  5 12  1  1  0  0  0
  5  9  1  0  0  0  0
  6 11  1  0  0  0  0
  7 11  1  0  0  0  0
  8  7  1  0  0  0  0
  9  6  2  0  0  0  0
 10  1  1  0  0  0  0
 11  2  2  0  0  0  0
 12 18  1  0  0  0  0
 13 17  1  0  0  0  0
 15 17  1  0  0  0  0
 15 12  2  0  0  0  0
 16 14  1  0  0  0  0
 17 16  2  0  0  0  0
 18 14  2  0  0  0  0
 19 10  1  0  0  0  0
 20 19  1  0  0  0  0
 21 20  1  0  0  0  0
 21 22  1  0  0  0  0
 22 23  1  0  0  0  0
 23 24  1  0  0  0  0
 24 31  1  0  0  0  0
 26 28  1  0  0  0  0
 27 25  1  0  0  0  0
 27 30  1  0  0  0  0
 28 27  2  0  0  0  0
 29 24  2  0  0  0  0
 29 28  1  0  0  0  0
 31 25  2  0  0  0  0
M  END
>  <MODEL>
7

>  <REMARK>
 VINA RESULT:      -6.0      2.522      5.902
  Name = 
  7 active torsions:
  status: ('A' for Active; 'I' for Inactive)
    1  A    between atoms: C_1  and  C_24
    2  A    between atoms: C_3  and  C_17
    3  A    between atoms: C_13  and  C_15
    4  A    between atoms: C_13  and  N_29
    5  A    between atoms: C_15  and  C_20
    6  A    between atoms: C_20  and  O_23
    7  A    between atoms: O_23  and  C_24
                            x       y       z     vdW  Elec       q    Type
                         _______ _______ _______ _____ _____    ______ ____

>  <TORSDO>
F 7

$$$$
=
 OpenBabel11042418543D

 31 34  0  0  1  0  0  0  0  0999 V2000
  190.4300  176.0300  143.7160 C   0  0  0  0  0  0  0  0  0  0  0  0
  186.7930  177.6870  140.0970 O   0  0  0  0  0  0  0  0  0  0  0  0
  189.5250  176.6510  142.7850 C   0  0  0  0  0  0  0  0  0  0  0  0
  190.2020  174.7560  143.8110 N   0  0  0  0  0  0  0  0  0  0  0  0
  189.0880  174.3780  142.9210 C   0  0  1  0  0  3  0  0  0  0  0  0
  187.7320  175.9980  141.3550 C   0  0  0  0  0  3  0  0  0  0  0  0
  188.5040  178.2690  141.4780 N   0  0  0  0  0  2  0  0  0  0  0  0
  189.4320  177.9380  142.3850 N   0  0  0  0  0  0  0  0  0  0  0  0
  188.7080  175.6830  142.2950 C   0  0  0  0  0  0  0  0  0  0  0  0
  191.4770  176.7060  144.4140 N   0  0  0  0  0  2  0  0  0  0  0  0
  187.6480  177.3400  140.9500 C   0  0  0  0  0  0  0  0  0  0  0  0
  189.5510  173.3960  141.8850 C   0  0  0  0  0  0  0  0  0  0  0  0
  190.7430  169.8670  141.7460 N   0  0  0  0  0  1  0  0  0  0  0  0
  189.9520  172.7810  139.5690 C   0  0  0  0  0  3  0  0  0  0  0  0
  189.9450  172.1140  142.2860 C   0  0  0  0  0  3  0  0  0  0  0  0
  190.3480  171.5040  139.9760 C   0  0  0  0  0  3  0  0  0  0  0  0
  190.3440  171.1690  141.3340 C   0  0  0  0  0  0  0  0  0  0  0  0
  189.5500  173.7230  140.5190 C   0  0  0  0  0  3  0  0  0  0  0  0
  192.4090  176.0190  145.3000 C   0  0  0  0  0  2  0  0  0  0  0  0
  192.1560  176.3980  146.7540 C   0  0  0  0  0  2  0  0  0  0  0  0
  190.8970  175.7310  147.2940 C   0  0  0  0  0  2  0  0  0  0  0  0
  189.8150  176.6090  147.2180 O   0  0  0  0  0  0  0  0  0  0  0  0
  188.7020  175.7850  147.0450 C   0  0  0  0  0  2  0  0  0  0  0  0
  187.5150  176.6010  146.6630 C   0  0  0  0  0  0  0  0  0  0  0  0
  185.2630  177.3630  147.1300 C   0  0  0  0  0  3  0  0  0  0  0  0
  186.3980  178.7920  143.9100 O   0  0  0  0  0  1  0  0  0  0  0  0
  185.2570  178.0920  145.9380 C   0  0  0  0  0  0  0  0  0  0  0  0
  186.3840  178.0720  145.1000 C   0  0  0  0  0  0  0  0  0  0  0  0
  187.5070  177.3220  145.4630 C   0  0  0  0  0  3  0  0  0  0  0  0
  184.0480  178.8830  145.5760 C   0  0  0  0  0  1  0  0  0  0  0  0
  186.3890  176.6180  147.4920 C   0  0  0  0  0  3  0  0  0  0  0  0
  1  4  2  0  0  0  0
  1 10  1  0  0  0  0
  2 11  2  0  0  0  0
  3  1  1  0  0  0  0
  5 12  1  6  0  0  0
  5  4  1  0  0  0  0
  6  9  2  0  0  0  0
  7  8  1  0  0  0  0
  8  3  2  0  0  0  0
  9  3  1  0  0  0  0
  9  5  1  0  0  0  0
 10 19  1  0  0  0  0
 11  6  1  0  0  0  0
 11  7  1  0  0  0  0
 12 15  1  0  0  0  0
 14 16  2  0  0  0  0
 14 18  1  0  0  0  0
 16 17  1  0  0  0  0
 17 13  1  0  0  0  0
 17 15  2  0  0  0  0
 18 12  2  0  0  0  0
 19 20  1  0  0  0  0
 20 21  1  0  0  0  0
 22 21  1  0  0  0  0
 23 22  1  0  0  0  0
 24 23  1  0  0  0  0
 24 31  1  0  0  0  0
 25 31  2  0  0  0  0
 26 28  1  0  0  0  0
 27 25  1  0  0  0  0
 28 29  1  0  0  0  0
 28 27  2  0  0  0  0
 29 24  2  0  0  0  0
 30 27  1  0  0  0  0
M  END
>  <MODEL>
8

>  <REMARK>
 VINA RESULT:      -6.0      2.491      6.407
  Name = 
  7 active torsions:
  status: ('A' for Active; 'I' for Inactive)
    1  A    between atoms: C_1  and  C_24
    2  A    between atoms: C_3  and  C_17
    3  A    between atoms: C_13  and  C_15
    4  A    between atoms: C_13  and  N_29
    5  A    between atoms: C_15  and  C_20
    6  A    between atoms: C_20  and  O_23
    7  A    between atoms: O_23  and  C_24
                            x       y       z     vdW  Elec       q    Type
                         _______ _______ _______ _____ _____    ______ ____

>  <TORSDO>
F 7

$$$$
=
 OpenBabel11042418543D

 31 34  0  0  1  0  0  0  0  0999 V2000
  191.4970  175.1980  142.2040 C   0  0  0  0  0  0  0  0  0  0  0  0
  187.0160  172.2150  141.8890 O   0  0  0  0  0  0  0  0  0  0  0  0
  190.4180  174.2530  142.0820 C   0  0  0  0  0  0  0  0  0  0  0  0
  191.0460  176.4020  142.3860 N   0  0  0  0  0  0  0  0  0  0  0  0
  189.5710  176.3860  142.4120 C   0  0  1  0  0  3  0  0  0  0  0  0
  188.0340  174.2690  142.1350 C   0  0  0  0  0  3  0  0  0  0  0  0
  189.2910  172.2430  141.8400 N   0  0  0  0  0  2  0  0  0  0  0  0
  190.4480  172.9130  141.9040 N   0  0  0  0  0  0  0  0  0  0  0  0
  189.2520  174.9380  142.2010 C   0  0  0  0  0  0  0  0  0  0  0  0
  192.8850  174.8640  142.1770 N   0  0  0  0  0  2  0  0  0  0  0  0
  188.0820  172.8780  141.9490 C   0  0  0  0  0  0  0  0  0  0  0  0
  189.0610  176.8630  143.7400 C   0  0  0  0  0  0  0  0  0  0  0  0
  185.9640  176.5610  145.7930 N   0  0  0  0  0  1  0  0  0  0  0  0
  189.3920  178.0130  145.8550 C   0  0  0  0  0  3  0  0  0  0  0  0
  187.7650  176.5160  144.1400 C   0  0  0  0  0  3  0  0  0  0  0  0
  188.0950  177.6660  146.2460 C   0  0  0  0  0  3  0  0  0  0  0  0
  187.2820  176.9180  145.3900 C   0  0  0  0  0  0  0  0  0  0  0  0
  189.8760  177.6090  144.6080 C   0  0  0  0  0  3  0  0  0  0  0  0
  193.9400  175.8510  142.3680 C   0  0  0  0  0  2  0  0  0  0  0  0
  195.0350  175.3080  143.2780 C   0  0  0  0  0  2  0  0  0  0  0  0
  195.4540  176.3350  144.3230 C   0  0  0  0  0  2  0  0  0  0  0  0
  194.3290  176.9180  144.9070 O   0  0  0  0  0  0  0  0  0  0  0  0
  194.2990  176.4070  146.2060 C   0  0  0  0  0  2  0  0  0  0  0  0
  192.9300  175.9180  146.5310 C   0  0  0  0  0  0  0  0  0  0  0  0
  190.9900  175.9460  147.9830 C   0  0  0  0  0  3  0  0  0  0  0  0
  190.4460  173.5050  145.2540 O   0  0  0  0  0  1  0  0  0  0  0  0
  190.3740  174.9760  147.1870 C   0  0  0  0  0  0  0  0  0  0  0  0
  191.0410  174.4690  146.0590 C   0  0  0  0  0  0  0  0  0  0  0  0
  192.3190  174.9380  145.7380 C   0  0  0  0  0  3  0  0  0  0  0  0
  189.0120  174.4940  147.5510 C   0  0  0  0  0  1  0  0  0  0  0  0
  192.2650  176.4160  147.6570 C   0  0  0  0  0  3  0  0  0  0  0  0
  1  4  2  0  0  0  0
  2 11  2  0  0  0  0
  3  9  1  0  0  0  0
  3  1  1  0  0  0  0
  4  5  1  0  0  0  0
  5 12  1  1  0  0  0
  6  9  2  0  0  0  0
  7  8  1  0  0  0  0
  7 11  1  0  0  0  0
  8  3  2  0  0  0  0
  9  5  1  0  0  0  0
 10  1  1  0  0  0  0
 10 19  1  0  0  0  0
 11  6  1  0  0  0  0
 12 15  2  0  0  0  0
 12 18  1  0  0  0  0
 14 16  1  0  0  0  0
 15 17  1  0  0  0  0
 17 13  1  0  0  0  0
 17 16  2  0  0  0  0
 18 14  2  0  0  0  0
 19 20  1  0  0  0  0
 20 21  1  0  0  0  0
 21 22  1  0  0  0  0
 22 23  1  0  0  0  0
 23 24  1  0  0  0  0
 24 31  1  0  0  0  0
 26 28  1  0  0  0  0
 27 30  1  0  0  0  0
 27 25  1  0  0  0  0
 28 27  2  0  0  0  0
 29 28  1  0  0  0  0
 29 24  2  0  0  0  0
 31 25  2  0  0  0  0
M  END
>  <MODEL>
9

>  <REMARK>
 VINA RESULT:      -5.9      2.555      5.014
  Name = 
  7 active torsions:
  status: ('A' for Active; 'I' for Inactive)
    1  A    between atoms: C_1  and  C_24
    2  A    between atoms: C_3  and  C_17
    3  A    between atoms: C_13  and  C_15
    4  A    between atoms: C_13  and  N_29
    5  A    between atoms: C_15  and  C_20
    6  A    between atoms: C_20  and  O_23
    7  A    between atoms: O_23  and  C_24
                            x       y       z     vdW  Elec       q    Type
                         _______ _______ _______ _____ _____    ______ ____

>  <TORSDO>
F 7

$$$$
