=
 OpenBabel11042414033D

 31 34  0  0  1  0  0  0  0  0999 V2000
  191.5350  176.7730  143.7560 C   0  0  0  0  0  0  0  0  0  0  0  0
  195.1830  175.0370  145.8900 C   0  0  0  0  0  3  0  0  0  0  0  0
  193.0200  175.6710  146.2670 C   0  0  0  0  0  3  0  0  0  0  0  0
  191.7110  176.1350  146.1510 O   0  0  0  0  0  0  0  0  0  0  0  0
  193.9430  175.9010  143.9850 C   0  0  0  0  0  0  0  0  0  0  0  0
  195.1040  176.0130  141.8360 O   0  0  0  0  0  1  0  0  0  0  0  0
  196.2650  175.1730  143.7500 C   0  0  0  0  0  3  0  0  0  0  0  0
  189.4630  177.6770  142.9820 C   0  0  0  0  0  0  0  0  0  0  0  0
  191.0090  176.6360  145.0550 C   0  0  0  0  0  0  0  0  0  0  0  0
  192.8880  176.4100  143.3440 C   0  0  0  0  0  3  0  0  0  0  0  0
  190.7450  177.2830  142.7710 N   0  0  0  0  0  0  0  0  0  0  0  0
  195.0990  175.6970  143.1930 C   0  0  0  0  0  0  0  0  0  0  0  0
  193.9940  175.5590  145.3640 C   0  0  0  0  0  0  0  0  0  0  0  0
  188.9040  177.5520  144.2470 C   0  0  0  0  0  3  0  0  0  0  0  0
  196.3100  174.8430  145.0970 C   0  0  0  0  0  3  0  0  0  0  0  0
  189.6750  177.0280  145.2820 C   0  0  0  0  0  0  0  0  0  0  0  0
  188.6510  178.2090  141.8560 C   0  0  0  0  0  2  0  0  0  0  0  0
  187.1840  178.2400  142.2430 C   0  0  0  0  0  2  0  0  0  0  0  0
  186.3440  177.8900  141.0660 C   0  0  0  0  0  0  0  0  0  0  0  0
  186.8950  177.6470  139.9590 O   0  0  0  0  0  0  0  0  0  0  0  0
  184.3140  178.1350  142.4340 C   0  0  0  0  0  1  0  0  0  0  0  0
  184.9560  177.8680  141.1960 O   0  0  0  0  0  0  0  0  0  0  0  0
  189.0670  176.9250  146.6410 C   0  0  0  0  0  2  0  0  0  0  0  0
  187.9460  176.0010  146.6080 N   0  0  0  0  0  2  0  0  0  0  0  0
  185.9630  179.0440  147.6390 C   0  0  0  0  0  0  0  0  0  0  0  0
  186.7750  176.7320  147.0610 C   0  0  2  0  0  3  0  0  0  0  0  0
  184.7180  177.6250  146.0430 C   0  0  0  0  0  3  0  0  0  0  0  0
  184.5990  178.5720  147.2070 C   0  0  0  0  0  2  0  0  0  0  0  0
  185.7390  176.7600  145.9710 C   0  0  0  0  0  3  0  0  0  0  0  0
  187.1710  178.1540  147.4830 C   0  0  0  0  0  2  0  0  0  0  0  0
  186.0880  180.1490  148.1390 O   0  0  0  0  0  0  0  0  0  0  0  0
  1  9  1  0  0  0  0
  4  3  1  0  0  0  0
  5 13  1  0  0  0  0
  6 12  1  0  0  0  0
  7 15  1  0  0  0  0
  8 14  2  0  0  0  0
  9 16  2  0  0  0  0
  9  4  1  0  0  0  0
 10  1  1  0  0  0  0
 10  5  2  0  0  0  0
 11  8  1  0  0  0  0
 11  1  2  0  0  0  0
 12  7  2  0  0  0  0
 12  5  1  0  0  0  0
 13  2  1  0  0  0  0
 13  3  2  0  0  0  0
 14 16  1  0  0  0  0
 15  2  2  0  0  0  0
 16 23  1  0  0  0  0
 17 18  1  0  0  0  0
 17  8  1  0  0  0  0
 19 22  1  0  0  0  0
 19 18  1  0  0  0  0
 20 19  2  0  0  0  0
 22 21  1  0  0  0  0
 24 23  1  0  0  0  0
 25 31  2  0  0  0  0
 26 24  1  6  0  0  0
 26 30  1  0  0  0  0
 27 28  1  0  0  0  0
 28 25  1  0  0  0  0
 29 27  2  0  0  0  0
 29 26  1  0  0  0  0
 30 25  1  0  0  0  0
M  END
>  <MODEL>
1

>  <REMARK>
 VINA RESULT:      -8.1      0.000      0.000
  Name = 
  7 active torsions:
  status: ('A' for Active; 'I' for Inactive)
    1  A    between atoms: C_2  and  C_14
    2  A    between atoms: C_2  and  C_20
    3  A    between atoms: C_11  and  C_20
    4  A    between atoms: C_13  and  N_27
    5  A    between atoms: C_14  and  O_19
    6  A    between atoms: C_26  and  N_27
    7  A    between atoms: C_26  and  C_31
                            x       y       z     vdW  Elec       q    Type
                         _______ _______ _______ _____ _____    ______ ____

>  <TORSDO>
F 7

$$$$
=
 OpenBabel11042414033D

 31 34  0  0  1  0  0  0  0  0999 V2000
  187.7900  175.7420  143.0080 C   0  0  0  0  0  0  0  0  0  0  0  0
  185.4100  178.1320  146.0900 C   0  0  0  0  0  3  0  0  0  0  0  0
  187.2430  176.7800  145.8970 C   0  0  0  0  0  3  0  0  0  0  0  0
  188.2640  175.9510  145.4380 O   0  0  0  0  0  0  0  0  0  0  0  0
  185.9200  177.2820  143.8700 C   0  0  0  0  0  0  0  0  0  0  0  0
  184.4420  177.9450  142.0380 O   0  0  0  0  0  1  0  0  0  0  0  0
  183.9980  178.7450  144.2470 C   0  0  0  0  0  3  0  0  0  0  0  0
  189.2460  174.3810  141.6900 C   0  0  0  0  0  0  0  0  0  0  0  0
  188.5460  175.4610  144.1620 C   0  0  0  0  0  0  0  0  0  0  0  0
  186.6020  176.5880  142.9540 C   0  0  0  0  0  3  0  0  0  0  0  0
  188.1680  175.1960  141.8190 N   0  0  0  0  0  0  0  0  0  0  0  0
  184.7920  177.9870  143.3860 C   0  0  0  0  0  0  0  0  0  0  0  0
  186.2300  177.3620  145.2550 C   0  0  0  0  0  0  0  0  0  0  0  0
  190.0220  174.0850  142.8030 C   0  0  0  0  0  3  0  0  0  0  0  0
  184.3050  178.8180  145.5980 C   0  0  0  0  0  3  0  0  0  0  0  0
  189.6740  174.6290  144.0380 C   0  0  0  0  0  0  0  0  0  0  0  0
  189.6120  173.8330  140.3570 C   0  0  0  0  0  2  0  0  0  0  0  0
  188.3680  173.3470  139.6360 C   0  0  0  0  0  2  0  0  0  0  0  0
  188.2360  174.0480  138.3310 C   0  0  0  0  0  0  0  0  0  0  0  0
  188.8530  173.6100  137.3240 O   0  0  0  0  0  0  0  0  0  0  0  0
  187.0190  175.7210  137.0000 C   0  0  0  0  0  1  0  0  0  0  0  0
  187.4550  175.2010  138.2470 O   0  0  0  0  0  0  0  0  0  0  0  0
  190.5040  174.2790  145.2280 C   0  0  0  0  0  2  0  0  0  0  0  0
  191.7360  173.6400  144.7970 N   0  0  0  0  0  2  0  0  0  0  0  0
  194.6140  176.0830  144.9040 C   0  0  0  0  0  0  0  0  0  0  0  0
  192.8340  174.3730  145.4040 C   0  0  2  0  0  3  0  0  0  0  0  0
  193.0840  176.3680  146.8260 C   0  0  0  0  0  3  0  0  0  0  0  0
  194.5090  176.4780  146.3550 C   0  0  0  0  0  2  0  0  0  0  0  0
  192.2940  175.3810  146.3810 C   0  0  0  0  0  3  0  0  0  0  0  0
  193.6800  175.0530  144.3180 C   0  0  0  0  0  2  0  0  0  0  0  0
  195.4750  176.5840  144.2030 O   0  0  0  0  0  0  0  0  0  0  0  0
  1  9  1  0  0  0  0
  4  3  1  0  0  0  0
  5 13  1  0  0  0  0
  6 12  1  0  0  0  0
  7 15  1  0  0  0  0
  8 11  1  0  0  0  0
  8 14  2  0  0  0  0
  9  4  1  0  0  0  0
 10  1  1  0  0  0  0
 10  5  2  0  0  0  0
 11  1  2  0  0  0  0
 12  5  1  0  0  0  0
 12  7  2  0  0  0  0
 13  3  2  0  0  0  0
 13  2  1  0  0  0  0
 14 16  1  0  0  0  0
 15  2  2  0  0  0  0
 16  9  2  0  0  0  0
 16 23  1  0  0  0  0
 17  8  1  0  0  0  0
 18 17  1  0  0  0  0
 19 18  1  0  0  0  0
 20 19  2  0  0  0  0
 21 22  1  0  0  0  0
 22 19  1  0  0  0  0
 24 23  1  0  0  0  0
 25 28  1  0  0  0  0
 26 24  1  6  0  0  0
 26 29  1  0  0  0  0
 28 27  1  0  0  0  0
 29 27  2  0  0  0  0
 30 25  1  0  0  0  0
 30 26  1  0  0  0  0
 31 25  2  0  0  0  0
M  END
>  <MODEL>
2

>  <REMARK>
 VINA RESULT:      -7.4      2.865      7.376
  Name = 
  7 active torsions:
  status: ('A' for Active; 'I' for Inactive)
    1  A    between atoms: C_2  and  C_14
    2  A    between atoms: C_2  and  C_20
    3  A    between atoms: C_11  and  C_20
    4  A    between atoms: C_13  and  N_27
    5  A    between atoms: C_14  and  O_19
    6  A    between atoms: C_26  and  N_27
    7  A    between atoms: C_26  and  C_31
                            x       y       z     vdW  Elec       q    Type
                         _______ _______ _______ _____ _____    ______ ____

>  <TORSDO>
F 7

$$$$
=
 OpenBabel11042414033D

 31 34  0  0  1  0  0  0  0  0999 V2000
  187.6780  175.8370  143.7120 C   0  0  0  0  0  0  0  0  0  0  0  0
  185.7590  177.8220  147.3520 C   0  0  0  0  0  3  0  0  0  0  0  0
  187.5300  176.5070  146.7540 C   0  0  0  0  0  3  0  0  0  0  0  0
  188.4700  175.7430  146.0650 O   0  0  0  0  0  0  0  0  0  0  0  0
  185.9600  177.2540  144.9970 C   0  0  0  0  0  0  0  0  0  0  0  0
  184.2650  178.1380  143.4720 O   0  0  0  0  0  1  0  0  0  0  0  0
  184.1260  178.6570  145.8020 C   0  0  0  0  0  3  0  0  0  0  0  0
  188.9270  174.6520  142.0560 C   0  0  0  0  0  0  0  0  0  0  0  0
  188.5740  175.4160  144.7120 C   0  0  0  0  0  0  0  0  0  0  0  0
  186.5050  176.6820  143.9200 C   0  0  0  0  0  3  0  0  0  0  0  0
  187.8880  175.4430  142.4250 N   0  0  0  0  0  0  0  0  0  0  0  0
  184.7890  178.0130  144.7570 C   0  0  0  0  0  0  0  0  0  0  0  0
  186.4510  177.1630  146.3280 C   0  0  0  0  0  0  0  0  0  0  0  0
  189.8390  174.2210  143.0120 C   0  0  0  0  0  3  0  0  0  0  0  0
  184.6090  178.5620  147.0990 C   0  0  0  0  0  3  0  0  0  0  0  0
  189.6640  174.6070  144.3390 C   0  0  0  0  0  0  0  0  0  0  0  0
  189.1070  174.2740  140.6290 C   0  0  0  0  0  2  0  0  0  0  0  0
  188.3210  173.0130  140.3220 C   0  0  0  0  0  2  0  0  0  0  0  0
  188.5610  172.5980  138.9150 C   0  0  0  0  0  0  0  0  0  0  0  0
  188.1760  173.3410  137.9730 O   0  0  0  0  0  0  0  0  0  0  0  0
  190.5280  171.1250  139.0270 C   0  0  0  0  0  1  0  0  0  0  0  0
  189.1810  171.3750  138.6550 O   0  0  0  0  0  0  0  0  0  0  0  0
  190.6370  174.1140  145.3570 C   0  0  0  0  0  2  0  0  0  0  0  0
  191.8440  173.6460  144.6950 N   0  0  0  0  0  2  0  0  0  0  0  0
  194.7040  176.1100  144.7940 C   0  0  0  0  0  0  0  0  0  0  0  0
  192.9620  174.3600  145.2880 C   0  0  2  0  0  3  0  0  0  0  0  0
  193.2580  176.2880  146.7910 C   0  0  0  0  0  3  0  0  0  0  0  0
  194.6600  176.4340  146.2640 C   0  0  0  0  0  2  0  0  0  0  0  0
  192.4570  175.3160  146.3340 C   0  0  0  0  0  3  0  0  0  0  0  0
  193.7530  175.1000  144.2000 C   0  0  0  0  0  2  0  0  0  0  0  0
  195.5300  176.6520  144.0810 O   0  0  0  0  0  0  0  0  0  0  0  0
  1 10  1  0  0  0  0
  1  9  1  0  0  0  0
  4  3  1  0  0  0  0
  5 13  1  0  0  0  0
  6 12  1  0  0  0  0
  7 15  1  0  0  0  0
  8 11  1  0  0  0  0
  8 14  2  0  0  0  0
  9  4  1  0  0  0  0
 10  5  2  0  0  0  0
 11  1  2  0  0  0  0
 12  5  1  0  0  0  0
 12  7  2  0  0  0  0
 13  3  2  0  0  0  0
 13  2  1  0  0  0  0
 14 16  1  0  0  0  0
 15  2  2  0  0  0  0
 16  9  2  0  0  0  0
 16 23  1  0  0  0  0
 17  8  1  0  0  0  0
 18 17  1  0  0  0  0
 19 18  1  0  0  0  0
 20 19  2  0  0  0  0
 22 19  1  0  0  0  0
 22 21  1  0  0  0  0
 24 23  1  0  0  0  0
 25 28  1  0  0  0  0
 26 24  1  6  0  0  0
 26 29  1  0  0  0  0
 28 27  1  0  0  0  0
 29 27  2  0  0  0  0
 30 25  1  0  0  0  0
 30 26  1  0  0  0  0
 31 25  2  0  0  0  0
M  END
>  <MODEL>
3

>  <REMARK>
 VINA RESULT:      -7.4      3.210      7.610
  Name = 
  7 active torsions:
  status: ('A' for Active; 'I' for Inactive)
    1  A    between atoms: C_2  and  C_14
    2  A    between atoms: C_2  and  C_20
    3  A    between atoms: C_11  and  C_20
    4  A    between atoms: C_13  and  N_27
    5  A    between atoms: C_14  and  O_19
    6  A    between atoms: C_26  and  N_27
    7  A    between atoms: C_26  and  C_31
                            x       y       z     vdW  Elec       q    Type
                         _______ _______ _______ _____ _____    ______ ____

>  <TORSDO>
F 7

$$$$
=
 OpenBabel11042414033D

 31 34  0  0  1  0  0  0  0  0999 V2000
  188.9620  176.3270  145.7620 C   0  0  0  0  0  0  0  0  0  0  0  0
  184.8450  177.8760  144.5260 C   0  0  0  0  0  3  0  0  0  0  0  0
  186.5970  176.6290  143.7520 C   0  0  0  0  0  3  0  0  0  0  0  0
  187.7990  175.9410  143.6000 O   0  0  0  0  0  0  0  0  0  0  0  0
  186.7320  177.5800  146.0300 C   0  0  0  0  0  0  0  0  0  0  0  0
  186.5980  178.6300  148.2340 O   0  0  0  0  0  1  0  0  0  0  0  0
  184.7760  178.8820  146.7060 C   0  0  0  0  0  3  0  0  0  0  0  0
  191.1330  175.3750  146.0580 C   0  0  0  0  0  0  0  0  0  0  0  0
  188.8810  175.7820  144.4670 C   0  0  0  0  0  0  0  0  0  0  0  0
  187.9340  177.1380  146.4100 C   0  0  0  0  0  3  0  0  0  0  0  0
  190.0790  176.1020  146.5080 N   0  0  0  0  0  0  0  0  0  0  0  0
  186.0390  178.3610  146.9860 C   0  0  0  0  0  0  0  0  0  0  0  0
  186.1130  177.3360  144.7730 C   0  0  0  0  0  0  0  0  0  0  0  0
  191.0900  174.8130  144.7880 C   0  0  0  0  0  3  0  0  0  0  0  0
  184.1780  178.6420  145.4770 C   0  0  0  0  0  3  0  0  0  0  0  0
  189.9620  175.0130  143.9950 C   0  0  0  0  0  0  0  0  0  0  0  0
  192.3150  175.1540  146.9330 C   0  0  0  0  0  2  0  0  0  0  0  0
  193.5740  175.0590  146.0910 C   0  0  0  0  0  2  0  0  0  0  0  0
  194.2150  176.3970  145.9900 C   0  0  0  0  0  0  0  0  0  0  0  0
  194.1900  177.1750  146.9810 O   0  0  0  0  0  0  0  0  0  0  0  0
  194.7550  175.9690  143.6290 C   0  0  0  0  0  1  0  0  0  0  0  0
  194.8080  176.7860  144.7890 O   0  0  0  0  0  0  0  0  0  0  0  0
  189.9440  174.4240  142.6240 C   0  0  0  0  0  2  0  0  0  0  0  0
  189.3800  173.0850  142.6730 N   0  0  0  0  0  2  0  0  0  0  0  0
  188.4170  173.7810  139.0890 C   0  0  0  0  0  0  0  0  0  0  0  0
  188.9440  172.7550  141.3270 C   0  0  2  0  0  3  0  0  0  0  0  0
  189.9850  171.8780  139.2740 C   0  0  0  0  0  3  0  0  0  0  0  0
  188.8420  172.4650  138.4900 C   0  0  0  0  0  2  0  0  0  0  0  0
  190.0370  172.0130  140.6060 C   0  0  0  0  0  3  0  0  0  0  0  0
  188.5520  174.0320  140.5700 C   0  0  0  0  0  2  0  0  0  0  0  0
  187.9410  174.6440  138.3720 O   0  0  0  0  0  0  0  0  0  0  0  0
  1 10  1  0  0  0  0
  1 11  1  0  0  0  0
  2 13  1  0  0  0  0
  2 15  2  0  0  0  0
  3 13  2  0  0  0  0
  4  3  1  0  0  0  0
  4  9  1  0  0  0  0
  5 10  2  0  0  0  0
  5 12  1  0  0  0  0
  7 12  2  0  0  0  0
  8 11  2  0  0  0  0
  8 17  1  0  0  0  0
  9  1  2  0  0  0  0
 12  6  1  0  0  0  0
 13  5  1  0  0  0  0
 14  8  1  0  0  0  0
 15  7  1  0  0  0  0
 16  9  1  0  0  0  0
 16 14  2  0  0  0  0
 18 17  1  0  0  0  0
 19 18  1  0  0  0  0
 19 20  2  0  0  0  0
 21 22  1  0  0  0  0
 22 19  1  0  0  0  0
 23 24  1  0  0  0  0
 23 16  1  0  0  0  0
 25 30  1  0  0  0  0
 26 24  1  1  0  0  0
 27 29  2  0  0  0  0
 28 25  1  0  0  0  0
 28 27  1  0  0  0  0
 29 26  1  0  0  0  0
 30 26  1  0  0  0  0
 31 25  2  0  0  0  0
M  END
>  <MODEL>
4

>  <REMARK>
 VINA RESULT:      -7.4      3.166      8.422
  Name = 
  7 active torsions:
  status: ('A' for Active; 'I' for Inactive)
    1  A    between atoms: C_2  and  C_14
    2  A    between atoms: C_2  and  C_20
    3  A    between atoms: C_11  and  C_20
    4  A    between atoms: C_13  and  N_27
    5  A    between atoms: C_14  and  O_19
    6  A    between atoms: C_26  and  N_27
    7  A    between atoms: C_26  and  C_31
                            x       y       z     vdW  Elec       q    Type
                         _______ _______ _______ _____ _____    ______ ____

>  <TORSDO>
F 7

$$$$
=
 OpenBabel11042414033D

 31 34  0  0  1  0  0  0  0  0999 V2000
  188.0300  175.9620  142.1360 C   0  0  0  0  0  0  0  0  0  0  0  0
  190.1560  172.1150  140.8920 C   0  0  0  0  0  3  0  0  0  0  0  0
  189.8290  173.4790  142.6960 C   0  0  0  0  0  3  0  0  0  0  0  0
  189.4350  174.4940  143.5650 O   0  0  0  0  0  0  0  0  0  0  0  0
  188.7570  174.0740  140.5500 C   0  0  0  0  0  0  0  0  0  0  0  0
  187.8160  174.4160  138.3190 O   0  0  0  0  0  1  0  0  0  0  0  0
  189.2010  172.5090  138.7240 C   0  0  0  0  0  3  0  0  0  0  0  0
  187.0840  177.9220  143.1220 C   0  0  0  0  0  0  0  0  0  0  0  0
  188.6360  175.6200  143.3580 C   0  0  0  0  0  0  0  0  0  0  0  0
  188.1280  175.2010  140.8930 C   0  0  0  0  0  3  0  0  0  0  0  0
  187.2760  177.0950  142.0630 N   0  0  0  0  0  0  0  0  0  0  0  0
  188.5910  173.6690  139.2030 C   0  0  0  0  0  0  0  0  0  0  0  0
  189.5580  173.2720  141.4080 C   0  0  0  0  0  0  0  0  0  0  0  0
  187.6590  177.6160  144.3490 C   0  0  0  0  0  3  0  0  0  0  0  0
  189.9830  171.7320  139.5660 C   0  0  0  0  0  3  0  0  0  0  0  0
  188.4320  176.4630  144.4680 C   0  0  0  0  0  0  0  0  0  0  0  0
  186.2340  179.1340  142.9770 C   0  0  0  0  0  2  0  0  0  0  0  0
  185.6400  179.5160  144.3210 C   0  0  0  0  0  2  0  0  0  0  0  0
  184.2670  178.9600  144.4430 C   0  0  0  0  0  0  0  0  0  0  0  0
  183.6160  178.6770  143.4010 O   0  0  0  0  0  0  0  0  0  0  0  0
  184.4550  178.2760  146.7980 C   0  0  0  0  0  1  0  0  0  0  0  0
  183.7040  178.7890  145.7080 O   0  0  0  0  0  0  0  0  0  0  0  0
  189.0640  176.1630  145.7850 C   0  0  0  0  0  2  0  0  0  0  0  0
  190.2040  177.0410  145.9930 N   0  0  0  0  0  2  0  0  0  0  0  0
  193.4630  176.1600  144.3020 C   0  0  0  0  0  0  0  0  0  0  0  0
  191.4010  176.2550  145.7430 C   0  0  2  0  0  3  0  0  0  0  0  0
  193.6290  176.0160  146.7640 C   0  0  0  0  0  3  0  0  0  0  0  0
  194.1250  175.4560  145.4580 C   0  0  0  0  0  2  0  0  0  0  0  0
  192.3500  176.3930  146.9020 C   0  0  0  0  0  3  0  0  0  0  0  0
  192.0610  176.7020  144.4310 C   0  0  0  0  0  2  0  0  0  0  0  0
  194.0580  176.2730  143.2440 O   0  0  0  0  0  0  0  0  0  0  0  0
  1  9  1  0  0  0  0
  2 13  1  0  0  0  0
  3  4  1  0  0  0  0
  5 10  2  0  0  0  0
  5 13  1  0  0  0  0
  6 12  1  0  0  0  0
  7 12  2  0  0  0  0
  7 15  1  0  0  0  0
  8 14  2  0  0  0  0
  9  4  1  0  0  0  0
  9 16  2  0  0  0  0
 10  1  1  0  0  0  0
 11  1  2  0  0  0  0
 11  8  1  0  0  0  0
 12  5  1  0  0  0  0
 13  3  2  0  0  0  0
 14 16  1  0  0  0  0
 15  2  2  0  0  0  0
 16 23  1  0  0  0  0
 17  8  1  0  0  0  0
 17 18  1  0  0  0  0
 18 19  1  0  0  0  0
 19 22  1  0  0  0  0
 20 19  2  0  0  0  0
 22 21  1  0  0  0  0
 23 24  1  0  0  0  0
 25 30  1  0  0  0  0
 25 28  1  0  0  0  0
 26 24  1  1  0  0  0
 26 29  1  0  0  0  0
 27 29  2  0  0  0  0
 28 27  1  0  0  0  0
 30 26  1  0  0  0  0
 31 25  2  0  0  0  0
M  END
>  <MODEL>
5

>  <REMARK>
 VINA RESULT:      -7.3      3.194      6.033
  Name = 
  7 active torsions:
  status: ('A' for Active; 'I' for Inactive)
    1  A    between atoms: C_2  and  C_14
    2  A    between atoms: C_2  and  C_20
    3  A    between atoms: C_11  and  C_20
    4  A    between atoms: C_13  and  N_27
    5  A    between atoms: C_14  and  O_19
    6  A    between atoms: C_26  and  N_27
    7  A    between atoms: C_26  and  C_31
                            x       y       z     vdW  Elec       q    Type
                         _______ _______ _______ _____ _____    ______ ____

>  <TORSDO>
F 7

$$$$
=
 OpenBabel11042414033D

 31 34  0  0  1  0  0  0  0  0999 V2000
  188.5610  176.1580  144.3490 C   0  0  0  0  0  0  0  0  0  0  0  0
  184.4610  178.1700  144.4860 C   0  0  0  0  0  3  0  0  0  0  0  0
  185.8030  176.9270  143.1150 C   0  0  0  0  0  3  0  0  0  0  0  0
  186.8410  176.1850  142.5560 O   0  0  0  0  0  0  0  0  0  0  0  0
  186.6300  177.5150  145.3690 C   0  0  0  0  0  0  0  0  0  0  0  0
  187.1900  178.2300  147.6390 O   0  0  0  0  0  1  0  0  0  0  0  0
  185.0730  178.8400  146.7100 C   0  0  0  0  0  3  0  0  0  0  0  0
  190.6160  175.0160  143.9200 C   0  0  0  0  0  0  0  0  0  0  0  0
  188.0870  175.8190  143.0680 C   0  0  0  0  0  0  0  0  0  0  0  0
  187.8330  176.9340  145.3480 C   0  0  0  0  0  3  0  0  0  0  0  0
  189.8020  175.7430  144.7280 N   0  0  0  0  0  0  0  0  0  0  0  0
  186.3000  178.1920  146.5680 C   0  0  0  0  0  0  0  0  0  0  0  0
  185.6830  177.5080  144.3090 C   0  0  0  0  0  0  0  0  0  0  0  0
  190.1830  174.6550  142.6510 C   0  0  0  0  0  3  0  0  0  0  0  0
  184.1530  178.8300  145.6710 C   0  0  0  0  0  3  0  0  0  0  0  0
  188.9170  175.0530  142.2270 C   0  0  0  0  0  0  0  0  0  0  0  0
  191.9530  174.5810  144.4050 C   0  0  0  0  0  2  0  0  0  0  0  0
  192.7870  175.7910  144.7820 C   0  0  0  0  0  2  0  0  0  0  0  0
  193.0760  175.7700  146.2410 C   0  0  0  0  0  0  0  0  0  0  0  0
  194.0280  176.4590  146.6960 O   0  0  0  0  0  0  0  0  0  0  0  0
  191.3130  175.5080  147.9360 C   0  0  0  0  0  1  0  0  0  0  0  0
  192.3080  174.9640  147.0820 O   0  0  0  0  0  0  0  0  0  0  0  0
  188.4780  174.6790  140.8500 C   0  0  0  0  0  2  0  0  0  0  0  0
  188.0930  173.2780  140.8220 N   0  0  0  0  0  2  0  0  0  0  0  0
  189.0310  173.5370  137.1740 C   0  0  0  0  0  0  0  0  0  0  0  0
  188.3700  172.7840  139.4840 C   0  0  2  0  0  3  0  0  0  0  0  0
  190.2720  171.7340  138.3230 C   0  0  0  0  0  3  0  0  0  0  0  0
  189.6720  172.1830  137.0170 C   0  0  0  0  0  2  0  0  0  0  0  0
  189.6630  172.0150  139.4830 C   0  0  0  0  0  3  0  0  0  0  0  0
  188.4230  173.9540  138.4900 C   0  0  0  0  0  2  0  0  0  0  0  0
  188.9830  174.2960  136.2210 O   0  0  0  0  0  0  0  0  0  0  0  0
  1 11  1  0  0  0  0
  1 10  1  0  0  0  0
  2 15  2  0  0  0  0
  3 13  2  0  0  0  0
  4  9  1  0  0  0  0
  4  3  1  0  0  0  0
  5 12  1  0  0  0  0
  8 17  1  0  0  0  0
  8 11  2  0  0  0  0
  9  1  2  0  0  0  0
 10  5  2  0  0  0  0
 12  7  2  0  0  0  0
 12  6  1  0  0  0  0
 13  2  1  0  0  0  0
 13  5  1  0  0  0  0
 14  8  1  0  0  0  0
 15  7  1  0  0  0  0
 16 14  2  0  0  0  0
 16  9  1  0  0  0  0
 17 18  1  0  0  0  0
 18 19  1  0  0  0  0
 19 20  2  0  0  0  0
 19 22  1  0  0  0  0
 22 21  1  0  0  0  0
 23 16  1  0  0  0  0
 24 23  1  0  0  0  0
 25 30  1  0  0  0  0
 26 24  1  1  0  0  0
 27 29  2  0  0  0  0
 28 25  1  0  0  0  0
 28 27  1  0  0  0  0
 29 26  1  0  0  0  0
 30 26  1  0  0  0  0
 31 25  2  0  0  0  0
M  END
>  <MODEL>
6

>  <REMARK>
 VINA RESULT:      -7.2      3.661      8.723
  Name = 
  7 active torsions:
  status: ('A' for Active; 'I' for Inactive)
    1  A    between atoms: C_2  and  C_14
    2  A    between atoms: C_2  and  C_20
    3  A    between atoms: C_11  and  C_20
    4  A    between atoms: C_13  and  N_27
    5  A    between atoms: C_14  and  O_19
    6  A    between atoms: C_26  and  N_27
    7  A    between atoms: C_26  and  C_31
                            x       y       z     vdW  Elec       q    Type
                         _______ _______ _______ _____ _____    ______ ____

>  <TORSDO>
F 7

$$$$
=
 OpenBabel11042414033D

 31 34  0  0  1  0  0  0  0  0999 V2000
  190.5170  174.6290  143.4600 C   0  0  0  0  0  0  0  0  0  0  0  0
  188.3850  174.1100  139.4520 C   0  0  0  0  0  3  0  0  0  0  0  0
  188.0480  174.8910  141.5740 C   0  0  0  0  0  3  0  0  0  0  0  0
  188.1800  175.2660  142.9090 O   0  0  0  0  0  0  0  0  0  0  0  0
  190.2600  173.9550  140.9920 C   0  0  0  0  0  0  0  0  0  0  0  0
  192.3410  172.9870  140.1460 O   0  0  0  0  0  1  0  0  0  0  0  0
  190.4580  173.1700  138.6850 C   0  0  0  0  0  3  0  0  0  0  0  0
  191.2990  175.0310  145.6810 C   0  0  0  0  0  0  0  0  0  0  0  0
  189.2590  175.1670  143.7880 C   0  0  0  0  0  0  0  0  0  0  0  0
  190.9010  174.0960  142.1560 C   0  0  0  0  0  3  0  0  0  0  0  0
  191.4880  174.5830  144.4140 N   0  0  0  0  0  0  0  0  0  0  0  0
  191.0170  173.3730  139.9460 C   0  0  0  0  0  0  0  0  0  0  0  0
  188.9150  174.3300  140.7300 C   0  0  0  0  0  0  0  0  0  0  0  0
  190.0740  175.5760  146.0440 C   0  0  0  0  0  3  0  0  0  0  0  0
  189.1430  173.5370  138.4360 C   0  0  0  0  0  3  0  0  0  0  0  0
  189.0560  175.6470  145.0960 C   0  0  0  0  0  0  0  0  0  0  0  0
  192.4100  174.9670  146.6690 C   0  0  0  0  0  2  0  0  0  0  0  0
  192.9370  176.3630  146.9480 C   0  0  0  0  0  2  0  0  0  0  0  0
  194.3190  176.4960  146.4180 C   0  0  0  0  0  0  0  0  0  0  0  0
  194.7600  177.6360  146.1090 O   0  0  0  0  0  0  0  0  0  0  0  0
  195.7710  175.0910  145.0150 C   0  0  0  0  0  1  0  0  0  0  0  0
  195.0990  175.3530  146.2380 O   0  0  0  0  0  0  0  0  0  0  0  0
  187.7370  176.2110  145.5100 C   0  0  0  0  0  2  0  0  0  0  0  0
  187.9120  177.5780  145.9740 N   0  0  0  0  0  2  0  0  0  0  0  0
  184.6210  178.2920  144.2680 C   0  0  0  0  0  0  0  0  0  0  0  0
  186.6540  178.2700  145.7520 C   0  0  2  0  0  3  0  0  0  0  0  0
  184.3940  178.2280  146.7290 C   0  0  0  0  0  3  0  0  0  0  0  0
  183.8750  178.8410  145.4560 C   0  0  0  0  0  2  0  0  0  0  0  0
  185.6990  177.9570  146.8710 C   0  0  0  0  0  3  0  0  0  0  0  0
  186.0640  177.8690  144.3930 C   0  0  0  0  0  2  0  0  0  0  0  0
  184.0590  178.2090  143.1890 O   0  0  0  0  0  0  0  0  0  0  0  0
  1  9  2  0  0  0  0
  1 11  1  0  0  0  0
  2 13  1  0  0  0  0
  3  4  1  0  0  0  0
  4  9  1  0  0  0  0
  5 10  2  0  0  0  0
  7 12  2  0  0  0  0
  8 14  1  0  0  0  0
  8 17  1  0  0  0  0
  9 16  1  0  0  0  0
 10  1  1  0  0  0  0
 11  8  2  0  0  0  0
 12  6  1  0  0  0  0
 12  5  1  0  0  0  0
 13  5  1  0  0  0  0
 13  3  2  0  0  0  0
 15  7  1  0  0  0  0
 15  2  2  0  0  0  0
 16 23  1  0  0  0  0
 16 14  2  0  0  0  0
 17 18  1  0  0  0  0
 19 18  1  0  0  0  0
 20 19  2  0  0  0  0
 21 22  1  0  0  0  0
 22 19  1  0  0  0  0
 23 24  1  0  0  0  0
 25 30  1  0  0  0  0
 25 28  1  0  0  0  0
 26 24  1  1  0  0  0
 26 29  1  0  0  0  0
 27 29  2  0  0  0  0
 28 27  1  0  0  0  0
 30 26  1  0  0  0  0
 31 25  2  0  0  0  0
M  END
>  <MODEL>
7

>  <REMARK>
 VINA RESULT:      -7.2      3.074      6.135
  Name = 
  7 active torsions:
  status: ('A' for Active; 'I' for Inactive)
    1  A    between atoms: C_2  and  C_14
    2  A    between atoms: C_2  and  C_20
    3  A    between atoms: C_11  and  C_20
    4  A    between atoms: C_13  and  N_27
    5  A    between atoms: C_14  and  O_19
    6  A    between atoms: C_26  and  N_27
    7  A    between atoms: C_26  and  C_31
                            x       y       z     vdW  Elec       q    Type
                         _______ _______ _______ _____ _____    ______ ____

>  <TORSDO>
F 7

$$$$
=
 OpenBabel11042414033D

 31 34  0  0  1  0  0  0  0  0999 V2000
  187.8250  175.8980  143.7940 C   0  0  0  0  0  0  0  0  0  0  0  0
  186.0250  177.8930  147.4890 C   0  0  0  0  0  3  0  0  0  0  0  0
  187.8250  176.6530  146.8190 C   0  0  0  0  0  3  0  0  0  0  0  0
  188.7610  175.9170  146.0950 O   0  0  0  0  0  0  0  0  0  0  0  0
  186.1150  177.2640  145.1420 C   0  0  0  0  0  0  0  0  0  0  0  0
  184.2860  178.0120  143.7010 O   0  0  0  0  0  1  0  0  0  0  0  0
  184.2600  178.5950  146.0200 C   0  0  0  0  0  3  0  0  0  0  0  0
  189.0340  174.7280  142.0970 C   0  0  0  0  0  0  0  0  0  0  0  0
  188.8010  175.5550  144.7480 C   0  0  0  0  0  0  0  0  0  0  0  0
  186.6240  176.6870  144.0500 C   0  0  0  0  0  3  0  0  0  0  0  0
  187.9780  175.4760  142.5080 N   0  0  0  0  0  0  0  0  0  0  0  0
  184.8920  177.9540  144.9540 C   0  0  0  0  0  0  0  0  0  0  0  0
  186.6880  177.2390  146.4430 C   0  0  0  0  0  0  0  0  0  0  0  0
  190.0230  174.3740  143.0070 C   0  0  0  0  0  3  0  0  0  0  0  0
  184.8240  178.5650  147.2870 C   0  0  0  0  0  3  0  0  0  0  0  0
  189.9080  174.7910  144.3310 C   0  0  0  0  0  0  0  0  0  0  0  0
  189.1480  174.3160  140.6730 C   0  0  0  0  0  2  0  0  0  0  0  0
  190.3710  173.4390  140.4820 C   0  0  0  0  0  2  0  0  0  0  0  0
  189.9530  172.0730  140.0700 C   0  0  0  0  0  0  0  0  0  0  0  0
  189.1140  171.9330  139.1390 O   0  0  0  0  0  0  0  0  0  0  0  0
  190.4390  170.8650  142.1570 C   0  0  0  0  0  1  0  0  0  0  0  0
  190.4700  170.9640  140.7410 O   0  0  0  0  0  0  0  0  0  0  0  0
  190.9650  174.3800  145.3000 C   0  0  0  0  0  2  0  0  0  0  0  0
  191.8440  173.4020  144.6820 N   0  0  0  0  0  2  0  0  0  0  0  0
  195.5900  173.8750  144.6380 C   0  0  0  0  0  0  0  0  0  0  0  0
  193.1660  173.5890  145.2560 C   0  0  2  0  0  3  0  0  0  0  0  0
  194.4730  175.4700  146.1600 C   0  0  0  0  0  3  0  0  0  0  0  0
  195.7230  174.6710  145.9100 C   0  0  0  0  0  2  0  0  0  0  0  0
  193.2700  174.9660  145.8530 C   0  0  0  0  0  3  0  0  0  0  0  0
  194.2430  173.3700  144.1830 C   0  0  0  0  0  2  0  0  0  0  0  0
  196.5830  173.6170  143.9810 O   0  0  0  0  0  0  0  0  0  0  0  0
  1 10  1  0  0  0  0
  1  9  1  0  0  0  0
  4  3  1  0  0  0  0
  5 13  1  0  0  0  0
  6 12  1  0  0  0  0
  7 15  1  0  0  0  0
  8 11  1  0  0  0  0
  8 14  2  0  0  0  0
  9  4  1  0  0  0  0
 10  5  2  0  0  0  0
 11  1  2  0  0  0  0
 12  5  1  0  0  0  0
 12  7  2  0  0  0  0
 13  3  2  0  0  0  0
 13  2  1  0  0  0  0
 14 16  1  0  0  0  0
 15  2  2  0  0  0  0
 16  9  2  0  0  0  0
 16 23  1  0  0  0  0
 17  8  1  0  0  0  0
 18 17  1  0  0  0  0
 19 18  1  0  0  0  0
 19 22  1  0  0  0  0
 20 19  2  0  0  0  0
 22 21  1  0  0  0  0
 24 23  1  0  0  0  0
 25 28  1  0  0  0  0
 26 24  1  6  0  0  0
 26 29  1  0  0  0  0
 28 27  1  0  0  0  0
 29 27  2  0  0  0  0
 30 25  1  0  0  0  0
 30 26  1  0  0  0  0
 31 25  2  0  0  0  0
M  END
>  <MODEL>
8

>  <REMARK>
 VINA RESULT:      -7.1      3.229      8.000
  Name = 
  7 active torsions:
  status: ('A' for Active; 'I' for Inactive)
    1  A    between atoms: C_2  and  C_14
    2  A    between atoms: C_2  and  C_20
    3  A    between atoms: C_11  and  C_20
    4  A    between atoms: C_13  and  N_27
    5  A    between atoms: C_14  and  O_19
    6  A    between atoms: C_26  and  N_27
    7  A    between atoms: C_26  and  C_31
                            x       y       z     vdW  Elec       q    Type
                         _______ _______ _______ _____ _____    ______ ____

>  <TORSDO>
F 7

$$$$
=
 OpenBabel11042414033D

 31 34  0  0  1  0  0  0  0  0999 V2000
  189.3620  175.4830  142.8700 C   0  0  0  0  0  0  0  0  0  0  0  0
  190.4790  177.1410  146.9780 C   0  0  0  0  0  3  0  0  0  0  0  0
  189.1030  177.5410  145.1980 C   0  0  0  0  0  3  0  0  0  0  0  0
  188.4190  177.4930  143.9850 O   0  0  0  0  0  0  0  0  0  0  0  0
  190.6060  175.5800  145.1180 C   0  0  0  0  0  0  0  0  0  0  0  0
  192.1810  173.7190  145.3080 O   0  0  0  0  0  1  0  0  0  0  0  0
  192.0060  175.2910  147.1010 C   0  0  0  0  0  3  0  0  0  0  0  0
  188.5500  174.9190  140.6950 C   0  0  0  0  0  0  0  0  0  0  0  0
  188.5030  176.5970  142.9190 C   0  0  0  0  0  0  0  0  0  0  0  0
  190.2940  175.0800  143.9190 C   0  0  0  0  0  3  0  0  0  0  0  0
  189.3520  174.6870  141.7650 N   0  0  0  0  0  0  0  0  0  0  0  0
  191.5930  174.8660  145.8390 C   0  0  0  0  0  0  0  0  0  0  0  0
  190.0400  176.7430  145.7090 C   0  0  0  0  0  0  0  0  0  0  0  0
  187.6830  176.0030  140.7060 C   0  0  0  0  0  3  0  0  0  0  0  0
  191.4510  176.4270  147.6720 C   0  0  0  0  0  3  0  0  0  0  0  0
  187.6560  176.8400  141.8200 C   0  0  0  0  0  0  0  0  0  0  0  0
  188.5790  173.9970  139.5280 C   0  0  0  0  0  2  0  0  0  0  0  0
  189.1020  172.6370  139.9520 C   0  0  0  0  0  2  0  0  0  0  0  0
  189.6970  171.9380  138.7830 C   0  0  0  0  0  0  0  0  0  0  0  0
  189.7640  170.6790  138.7790 O   0  0  0  0  0  0  0  0  0  0  0  0
  189.7030  172.5410  136.3980 C   0  0  0  0  0  1  0  0  0  0  0  0
  190.2030  172.6860  137.7190 O   0  0  0  0  0  0  0  0  0  0  0  0
  186.7370  178.0150  141.8050 C   0  0  0  0  0  2  0  0  0  0  0  0
  185.3640  177.5660  141.9700 N   0  0  0  0  0  2  0  0  0  0  0  0
  185.0510  177.5590  145.7330 C   0  0  0  0  0  0  0  0  0  0  0  0
  184.9110  178.0430  143.2660 C   0  0  2  0  0  3  0  0  0  0  0  0
  185.5640  179.8110  144.8510 C   0  0  0  0  0  3  0  0  0  0  0  0
  184.8660  179.0400  145.9380 C   0  0  0  0  0  2  0  0  0  0  0  0
  185.5880  179.3450  143.5940 C   0  0  0  0  0  3  0  0  0  0  0  0
  185.1920  176.9860  144.3440 C   0  0  0  0  0  2  0  0  0  0  0  0
  185.0660  176.8130  146.6970 O   0  0  0  0  0  0  0  0  0  0  0  0
  1  9  1  0  0  0  0
  1 10  1  0  0  0  0
  2 15  2  0  0  0  0
  3 13  2  0  0  0  0
  4  3  1  0  0  0  0
  5 13  1  0  0  0  0
  5 12  1  0  0  0  0
  6 12  1  0  0  0  0
  7 15  1  0  0  0  0
  8 14  2  0  0  0  0
  8 11  1  0  0  0  0
  9  4  1  0  0  0  0
 10  5  2  0  0  0  0
 11  1  2  0  0  0  0
 12  7  2  0  0  0  0
 13  2  1  0  0  0  0
 14 16  1  0  0  0  0
 16  9  2  0  0  0  0
 17 18  1  0  0  0  0
 17  8  1  0  0  0  0
 19 18  1  0  0  0  0
 20 19  2  0  0  0  0
 21 22  1  0  0  0  0
 22 19  1  0  0  0  0
 23 16  1  0  0  0  0
 23 24  1  0  0  0  0
 25 28  1  0  0  0  0
 25 31  2  0  0  0  0
 26 24  1  6  0  0  0
 26 29  1  0  0  0  0
 26 30  1  0  0  0  0
 27 28  1  0  0  0  0
 29 27  2  0  0  0  0
 30 25  1  0  0  0  0
M  END
>  <MODEL>
9

>  <REMARK>
 VINA RESULT:      -7.1      3.630      4.950
  Name = 
  7 active torsions:
  status: ('A' for Active; 'I' for Inactive)
    1  A    between atoms: C_2  and  C_14
    2  A    between atoms: C_2  and  C_20
    3  A    between atoms: C_11  and  C_20
    4  A    between atoms: C_13  and  N_27
    5  A    between atoms: C_14  and  O_19
    6  A    between atoms: C_26  and  N_27
    7  A    between atoms: C_26  and  C_31
                            x       y       z     vdW  Elec       q    Type
                         _______ _______ _______ _____ _____    ______ ____

>  <TORSDO>
F 7

$$$$
