=
 OpenBabel11042419333D

 32 36  0  0  1  0  0  0  0  0999 V2000
  191.1780  176.3000  147.0930 C   0  0  0  0  0  2  0  0  0  0  0  0
  188.3990  174.5240  140.4040 N   0  0  0  0  0  0  0  0  0  0  0  0
  190.8200  174.1820  143.1450 C   0  0  0  0  0  0  0  0  0  0  0  0
  187.8350  176.1860  146.1330 C   0  0  0  0  0  0  0  0  0  0  0  0
  189.6180  174.5280  142.5560 C   0  0  0  0  0  0  0  0  0  0  0  0
  190.4350  173.7020  140.4690 C   0  0  0  0  0  0  0  0  0  0  0  0
  186.6550  176.7350  146.2320 C   0  0  0  0  0  3  0  0  0  0  0  0
  190.8130  174.5390  144.5840 C   0  0  1  0  0  3  0  0  0  0  0  0
  191.8620  173.5790  142.4030 C   0  0  0  0  0  3  0  0  0  0  0  0
  189.0170  175.6380  146.0300 C   0  0  0  0  0  0  0  0  0  0  0  0
  189.4460  174.2770  141.2030 C   0  0  0  0  0  0  0  0  0  0  0  0
  188.7740  174.0930  139.2000 N   0  0  0  0  0  0  0  0  0  0  0  0
  191.8210  175.5600  144.8390 N   0  0  0  0  0  2  0  0  0  0  0  0
  191.6670  173.3310  141.0240 C   0  0  0  0  0  2  0  0  0  0  0  0
  192.1740  175.5030  146.2550 C   0  0  1  0  0  3  0  0  0  0  0  0
  188.6910  175.1370  143.5340 C   0  0  0  0  0  2  0  0  0  0  0  0
  189.8680  175.5390  147.2590 C   0  0  0  0  0  2  0  0  0  0  0  0
  189.4770  175.1140  144.7730 N   0  0  0  0  0  0  0  0  0  0  0  0
  190.0070  173.5880  139.2050 N   0  0  0  0  0  0  0  0  0  0  0  0
  187.3170  178.3900  147.8030 O   0  0  0  0  0  0  0  0  0  0  0  0
  186.4280  177.9460  147.0290 C   0  0  0  0  0  0  0  0  0  0  0  0
  185.1290  178.6580  146.9190 C   0  0  0  0  0  1  0  0  0  0  0  0
  193.5720  177.1570  147.3000 O   0  0  0  0  0  1  0  0  0  0  0  0
  193.5870  176.0340  146.4660 C   0  0  2  0  0  3  0  0  0  0  0  0
  195.4130  175.8450  144.7160 C   0  0  0  0  0  0  0  0  0  0  0  0
  194.1730  176.3860  145.1790 N   0  0  0  0  0  2  0  0  0  0  0  0
  196.0230  174.9730  145.3910 O   0  0  0  0  0  0  0  0  0  0  0  0
  196.0220  175.7430  141.1500 C   0  0  0  0  0  2  0  0  0  0  0  0
  197.3910  175.6950  141.8030 C   0  0  0  0  0  2  0  0  0  0  0  0
  195.0830  176.0150  142.2850 C   0  0  0  0  0  2  0  0  0  0  0  0
  196.0050  176.3290  143.4360 C   0  0  2  0  0  3  0  0  0  0  0  0
  197.2350  175.7000  143.1990 O   0  0  0  0  0  0  0  0  0  0  0  0
  1 17  1  0  0  0  0
  2 11  1  0  0  0  0
  4  7  2  0  0  0  0
  5  3  1  0  0  0  0
  5 16  1  0  0  0  0
  6 14  1  0  0  0  0
  6 11  1  0  0  0  0
  7 21  1  0  0  0  0
  8  3  1  6  0  0  0
  8 18  1  0  0  0  0
  8 13  1  0  0  0  0
  9  3  2  0  0  0  0
 10  4  2  0  0  0  0
 10 17  1  0  0  0  0
 11  5  2  0  0  0  0
 12 19  1  0  0  0  0
 12  2  2  0  0  0  0
 13 15  1  0  0  0  0
 14  9  1  0  0  0  0
 15 24  1  6  0  0  0
 15  1  1  0  0  0  0
 16 18  1  0  0  0  0
 18 10  1  0  0  0  0
 19  6  2  0  0  0  0
 21 20  2  0  0  0  0
 22 21  1  0  0  0  0
 24 23  1  1  0  0  0
 25 26  1  0  0  0  0
 25 27  2  0  0  0  0
 26 24  1  0  0  0  0
 28 29  1  0  0  0  0
 28 30  1  0  0  0  0
 29 32  1  0  0  0  0
 30 31  1  0  0  0  0
 31 25  1  1  0  0  0
 32 31  1  0  0  0  0
M  END
>  <MODEL>
1

>  <REMARK>
 VINA RESULT:      -7.6      0.000      0.000
  Name = 
  4 active torsions:
  status: ('A' for Active; 'I' for Inactive)
    1  A    between atoms: C_3  and  C_13
    2  A    between atoms: N_7  and  C_23
    3  A    between atoms: C_15  and  C_22
    4  A    between atoms: C_23  and  C_27
                            x       y       z     vdW  Elec       q    Type
                         _______ _______ _______ _____ _____    ______ ____

>  <TORSDO>
F 4

$$$$
=
 OpenBabel11042419333D

 32 36  0  0  1  0  0  0  0  0999 V2000
  191.5340  175.3180  146.5990 C   0  0  0  0  0  2  0  0  0  0  0  0
  190.7680  172.9410  139.5720 N   0  0  0  0  0  0  0  0  0  0  0  0
  189.9070  175.1010  142.4160 C   0  0  0  0  0  0  0  0  0  0  0  0
  194.0260  174.2080  144.4370 C   0  0  0  0  0  0  0  0  0  0  0  0
  190.7040  174.2570  141.6660 C   0  0  0  0  0  0  0  0  0  0  0  0
  188.9690  174.1160  140.0300 C   0  0  0  0  0  0  0  0  0  0  0  0
  195.1350  173.5320  144.3110 C   0  0  0  0  0  3  0  0  0  0  0  0
  190.6040  175.5010  143.6620 C   0  0  1  0  0  3  0  0  0  0  0  0
  188.6150  175.4780  141.9820 C   0  0  0  0  0  3  0  0  0  0  0  0
  192.9130  174.8810  144.5620 C   0  0  0  0  0  0  0  0  0  0  0  0
  190.2090  173.7700  140.4650 C   0  0  2  0  0  3  0  0  0  0  0  0
  189.8530  172.7990  138.6130 N   0  0  0  0  0  0  0  0  0  0  0  0
  189.8770  174.9850  144.8140 N   0  0  0  0  0  2  0  0  0  0  0  0
  188.1280  174.9720  140.7540 C   0  0  0  0  0  3  0  0  0  0  0  0
  190.2300  175.8020  145.9720 C   0  0  1  0  0  3  0  0  0  0  0  0
  192.0060  174.0150  142.3230 C   0  0  0  0  0  2  0  0  0  0  0  0
  192.7360  175.7520  145.7680 C   0  0  0  0  0  2  0  0  0  0  0  0
  191.8940  174.8120  143.5500 N   0  0  0  0  0  0  0  0  0  0  0  0
  188.7470  173.5010  138.8610 N   0  0  0  0  0  0  0  0  0  0  0  0
  195.3600  171.7140  145.8260 O   0  0  0  0  0  0  0  0  0  0  0  0
  195.7600  172.8490  145.4500 C   0  0  0  0  0  0  0  0  0  0  0  0
  196.8820  173.5060  146.1680 C   0  0  0  0  0  1  0  0  0  0  0  0
  189.0760  174.5350  147.6590 O   0  0  0  0  0  1  0  0  0  0  0  0
  189.1050  175.7680  147.0010 C   0  0  2  0  0  3  0  0  0  0  0  0
  186.9850  177.1130  146.6410 C   0  0  0  0  0  0  0  0  0  0  0  0
  187.8290  176.0000  146.3360 N   0  0  0  0  0  2  0  0  0  0  0  0
  187.3540  177.9890  147.4680 O   0  0  0  0  0  0  0  0  0  0  0  0
  184.6810  178.1590  144.0540 C   0  0  0  0  0  2  0  0  0  0  0  0
  184.1490  178.7550  145.3430 C   0  0  0  0  0  2  0  0  0  0  0  0
  185.7900  177.2540  144.4960 C   0  0  0  0  0  2  0  0  0  0  0  0
  185.6450  177.2300  145.9980 C   0  0  2  0  0  3  0  0  0  0  0  0
  185.0140  178.4160  146.3970 O   0  0  0  0  0  0  0  0  0  0  0  0
  4 10  2  0  0  0  0
  5 16  1  0  0  0  0
  5  3  2  0  0  0  0
  6 11  1  0  0  0  0
  6 14  1  0  0  0  0
  7  4  2  0  0  0  0
  7 21  1  0  0  0  0
  8  3  1  6  0  0  0
  8 13  1  0  0  0  0
  9  3  1  0  0  0  0
 10 17  1  0  0  0  0
 11  2  1  1  0  0  0
 11  5  1  0  0  0  0
 12 19  1  0  0  0  0
 12  2  2  0  0  0  0
 13 15  1  0  0  0  0
 14  9  2  0  0  0  0
 15  1  1  0  0  0  0
 15 24  1  1  0  0  0
 16 18  1  0  0  0  0
 17  1  1  0  0  0  0
 18  8  1  0  0  0  0
 18 10  1  0  0  0  0
 19  6  2  0  0  0  0
 21 20  2  0  0  0  0
 21 22  1  0  0  0  0
 24 23  1  6  0  0  0
 25 27  2  0  0  0  0
 26 25  1  0  0  0  0
 26 24  1  0  0  0  0
 28 30  1  0  0  0  0
 28 29  1  0  0  0  0
 29 32  1  0  0  0  0
 30 31  1  0  0  0  0
 31 32  1  0  0  0  0
 31 25  1  1  0  0  0
M  END
>  <MODEL>
2

>  <REMARK>
 VINA RESULT:      -7.6      2.234      7.084
  Name = 
  4 active torsions:
  status: ('A' for Active; 'I' for Inactive)
    1  A    between atoms: C_3  and  C_13
    2  A    between atoms: N_7  and  C_23
    3  A    between atoms: C_15  and  C_22
    4  A    between atoms: C_23  and  C_27
                            x       y       z     vdW  Elec       q    Type
                         _______ _______ _______ _____ _____    ______ ____

>  <TORSDO>
F 4

$$$$
=
 OpenBabel11042419333D

 32 36  0  0  1  0  0  0  0  0999 V2000
  189.7550  176.5590  146.3540 C   0  0  0  0  0  2  0  0  0  0  0  0
  188.2740  174.5290  139.3330 N   0  0  0  0  0  0  0  0  0  0  0  0
  189.8550  174.0670  142.6160 C   0  0  0  0  0  0  0  0  0  0  0  0
  186.7880  176.9900  144.5890 C   0  0  0  0  0  0  0  0  0  0  0  0
  188.9310  174.5660  141.7170 C   0  0  0  0  0  0  0  0  0  0  0  0
  190.0020  173.3340  139.9740 C   0  0  0  0  0  0  0  0  0  0  0  0
  185.7710  177.7720  144.3440 C   0  0  0  0  0  3  0  0  0  0  0  0
  189.5960  174.5990  143.9750 C   0  0  1  0  0  3  0  0  0  0  0  0
  190.8770  173.1780  142.2100 C   0  0  0  0  0  3  0  0  0  0  0  0
  187.8070  176.2100  144.8300 C   0  0  0  0  0  0  0  0  0  0  0  0
  189.0250  174.1830  140.3870 C   0  0  2  0  0  3  0  0  0  0  0  0
  188.8110  173.8820  138.2990 N   0  0  0  0  0  0  0  0  0  0  0  0
  190.7200  175.4230  144.3990 N   0  0  0  0  0  2  0  0  0  0  0  0
  190.9570  172.7990  140.8490 C   0  0  0  0  0  3  0  0  0  0  0  0
  190.7130  175.4790  145.8590 C   0  0  1  0  0  3  0  0  0  0  0  0
  187.9640  175.4680  142.3790 C   0  0  0  0  0  2  0  0  0  0  0  0
  188.3060  176.1020  146.2390 C   0  0  0  0  0  2  0  0  0  0  0  0
  188.4170  175.4480  143.7750 N   0  0  0  0  0  0  0  0  0  0  0  0
  189.8640  173.1460  138.6540 N   0  0  0  0  0  0  0  0  0  0  0  0
  185.5710  180.1390  144.2600 O   0  0  0  0  0  0  0  0  0  0  0  0
  185.6430  179.0960  144.9640 C   0  0  0  0  0  0  0  0  0  0  0  0
  185.5990  179.2050  146.4440 C   0  0  0  0  0  1  0  0  0  0  0  0
  192.1130  176.7740  147.3230 O   0  0  0  0  0  1  0  0  0  0  0  0
  192.1210  175.7410  146.3810 C   0  0  2  0  0  3  0  0  0  0  0  0
  194.4070  175.8720  145.2900 C   0  0  0  0  0  0  0  0  0  0  0  0
  192.9940  176.0970  145.2700 N   0  0  0  0  0  2  0  0  0  0  0  0
  194.9490  175.2840  146.2640 O   0  0  0  0  0  0  0  0  0  0  0  0
  195.7860  175.7430  141.9460 C   0  0  0  0  0  2  0  0  0  0  0  0
  196.9790  175.7400  142.8830 C   0  0  0  0  0  2  0  0  0  0  0  0
  194.6140  176.0040  142.8420 C   0  0  0  0  0  2  0  0  0  0  0  0
  195.2540  176.3560  144.1620 C   0  0  2  0  0  3  0  0  0  0  0  0
  196.5200  175.7580  144.2110 O   0  0  0  0  0  0  0  0  0  0  0  0
  4 10  2  0  0  0  0
  5 16  1  0  0  0  0
  5  3  2  0  0  0  0
  6 11  1  0  0  0  0
  6 14  1  0  0  0  0
  7  4  2  0  0  0  0
  7 21  1  0  0  0  0
  8  3  1  6  0  0  0
  8 13  1  0  0  0  0
  9  3  1  0  0  0  0
 10 17  1  0  0  0  0
 11  2  1  6  0  0  0
 11  5  1  0  0  0  0
 12 19  1  0  0  0  0
 12  2  2  0  0  0  0
 13 15  1  0  0  0  0
 14  9  2  0  0  0  0
 15  1  1  0  0  0  0
 15 24  1  6  0  0  0
 16 18  1  0  0  0  0
 17  1  1  0  0  0  0
 18  8  1  0  0  0  0
 18 10  1  0  0  0  0
 19  6  2  0  0  0  0
 20 21  2  0  0  0  0
 21 22  1  0  0  0  0
 24 23  1  1  0  0  0
 25 27  2  0  0  0  0
 26 25  1  0  0  0  0
 26 24  1  0  0  0  0
 28 30  1  0  0  0  0
 28 29  1  0  0  0  0
 29 32  1  0  0  0  0
 30 31  1  0  0  0  0
 31 32  1  0  0  0  0
 31 25  1  1  0  0  0
M  END
>  <MODEL>
3

>  <REMARK>
 VINA RESULT:      -7.5      1.398      1.556
  Name = 
  4 active torsions:
  status: ('A' for Active; 'I' for Inactive)
    1  A    between atoms: C_3  and  C_13
    2  A    between atoms: N_7  and  C_23
    3  A    between atoms: C_15  and  C_22
    4  A    between atoms: C_23  and  C_27
                            x       y       z     vdW  Elec       q    Type
                         _______ _______ _______ _____ _____    ______ ____

>  <TORSDO>
F 4

$$$$
=
 OpenBabel11042419333D

 32 36  0  0  1  0  0  0  0  0999 V2000
  188.2210  175.1300  141.1860 C   0  0  0  0  0  2  0  0  0  0  0  0
  194.7470  173.7900  144.5360 N   0  0  0  0  0  0  0  0  0  0  0  0
  191.3540  175.1910  144.4070 C   0  0  0  0  0  0  0  0  0  0  0  0
  190.2040  172.2810  140.9340 C   0  0  0  0  0  0  0  0  0  0  0  0
  192.3880  174.3470  144.0450 C   0  0  0  0  0  0  0  0  0  0  0  0
  193.7770  175.3910  145.6850 C   0  0  0  0  0  0  0  0  0  0  0  0
  190.6620  171.3400  140.1550 C   0  0  0  0  0  3  0  0  0  0  0  0
  190.1510  174.9180  143.5850 C   0  0  1  0  0  3  0  0  0  0  0  0
  191.5100  176.1570  145.4270 C   0  0  0  0  0  3  0  0  0  0  0  0
  189.7490  173.2260  141.7140 C   0  0  0  0  0  0  0  0  0  0  0  0
  193.6030  174.4670  144.7040 C   0  0  0  0  0  0  0  0  0  0  0  0
  195.5930  174.3170  145.4210 N   0  0  0  0  0  2  0  0  0  0  0  0
  189.8420  176.0840  142.7680 N   0  0  0  0  0  2  0  0  0  0  0  0
  192.7570  176.2640  146.0880 C   0  0  0  0  0  3  0  0  0  0  0  0
  188.4280  176.0210  142.4080 C   0  0  1  0  0  3  0  0  0  0  0  0
  191.9830  173.4270  142.9620 C   0  0  0  0  0  2  0  0  0  0  0  0
  188.3220  173.6560  141.5580 C   0  0  0  0  0  2  0  0  0  0  0  0
  190.5890  173.8180  142.7190 N   0  0  0  0  0  0  0  0  0  0  0  0
  195.0350  175.2940  146.1350 N   0  0  0  0  0  0  0  0  0  0  0  0
  190.5260  172.2890  137.9800 O   0  0  0  0  0  0  0  0  0  0  0  0
  190.3360  171.2900  138.7250 C   0  0  0  0  0  0  0  0  0  0  0  0
  189.7730  170.0420  138.1490 C   0  0  0  0  0  1  0  0  0  0  0  0
  188.9320  178.2890  141.7900 O   0  0  0  0  0  1  0  0  0  0  0  0
  187.8920  177.4220  142.1380 C   0  0  2  0  0  3  0  0  0  0  0  0
  185.9330  178.5580  143.2810 C   0  0  0  0  0  0  0  0  0  0  0  0
  187.2130  177.9210  143.3270 N   0  0  0  0  0  2  0  0  0  0  0  0
  185.3030  178.6510  142.1930 O   0  0  0  0  0  0  0  0  0  0  0  0
  185.2150  178.6490  146.8260 C   0  0  0  0  0  2  0  0  0  0  0  0
  183.8660  178.6830  146.1330 C   0  0  0  0  0  2  0  0  0  0  0  0
  186.2060  178.8000  145.7130 C   0  0  0  0  0  2  0  0  0  0  0  0
  185.3450  179.1390  144.5210 C   0  0  2  0  0  3  0  0  0  0  0  0
  184.0620  178.6190  144.7430 O   0  0  0  0  0  0  0  0  0  0  0  0
  1 17  1  0  0  0  0
  1 15  1  0  0  0  0
  2 11  2  0  0  0  0
  2 12  1  0  0  0  0
  3  9  1  0  0  0  0
  4 10  2  0  0  0  0
  5  3  2  0  0  0  0
  5 11  1  0  0  0  0
  6 14  1  0  0  0  0
  6 19  2  0  0  0  0
  7  4  2  0  0  0  0
  8 13  1  6  0  0  0
  8  3  1  0  0  0  0
  9 14  2  0  0  0  0
 10 18  1  0  0  0  0
 11  6  1  0  0  0  0
 12 19  1  0  0  0  0
 15 24  1  6  0  0  0
 15 13  1  0  0  0  0
 16  5  1  0  0  0  0
 17 10  1  0  0  0  0
 18 16  1  0  0  0  0
 18  8  1  0  0  0  0
 20 21  2  0  0  0  0
 21  7  1  0  0  0  0
 22 21  1  0  0  0  0
 24 23  1  1  0  0  0
 24 26  1  0  0  0  0
 25 26  1  0  0  0  0
 27 25  2  0  0  0  0
 29 28  1  0  0  0  0
 30 28  1  0  0  0  0
 31 25  1  6  0  0  0
 31 32  1  0  0  0  0
 31 30  1  0  0  0  0
 32 29  1  0  0  0  0
M  END
>  <MODEL>
4

>  <REMARK>
 VINA RESULT:      -7.5      3.521      8.423
  Name = 
  4 active torsions:
  status: ('A' for Active; 'I' for Inactive)
    1  A    between atoms: C_3  and  C_13
    2  A    between atoms: N_7  and  C_23
    3  A    between atoms: C_15  and  C_22
    4  A    between atoms: C_23  and  C_27
                            x       y       z     vdW  Elec       q    Type
                         _______ _______ _______ _____ _____    ______ ____

>  <TORSDO>
F 4

$$$$
=
 OpenBabel11042419333D

 32 36  0  0  1  0  0  0  0  0999 V2000
  191.4230  174.8460  143.9740 C   0  0  0  0  0  2  0  0  0  0  0  0
  184.6900  177.7100  145.4150 N   0  0  0  0  0  0  0  0  0  0  0  0
  188.3180  177.4410  145.9280 C   0  0  0  0  0  0  0  0  0  0  0  0
  188.8410  175.4640  141.7250 C   0  0  0  0  0  0  0  0  0  0  0  0
  187.1250  177.3100  145.2410 C   0  0  0  0  0  0  0  0  0  0  0  0
  185.9790  178.2740  147.1020 C   0  0  0  0  0  0  0  0  0  0  0  0
  188.1950  175.0490  140.6690 C   0  0  0  0  0  3  0  0  0  0  0  0
  189.4430  176.9210  145.1160 C   0  0  1  0  0  3  0  0  0  0  0  0
  188.3670  178.0000  147.2260 C   0  0  0  0  0  3  0  0  0  0  0  0
  189.4850  175.8770  142.7840 C   0  0  0  0  0  0  0  0  0  0  0  0
  185.9560  177.7370  145.8550 C   0  0  0  0  0  0  0  0  0  0  0  0
  183.9700  178.2320  146.4070 N   0  0  0  0  0  2  0  0  0  0  0  0
  190.0320  175.7650  145.7800 N   0  0  0  0  0  2  0  0  0  0  0  0
  187.1640  178.4300  147.8340 C   0  0  0  0  0  3  0  0  0  0  0  0
  191.4010  175.6140  145.2930 C   0  0  1  0  0  3  0  0  0  0  0  0
  187.3310  176.7040  143.9090 C   0  0  0  0  0  2  0  0  0  0  0  0
  190.9750  175.7310  142.8170 C   0  0  0  0  0  2  0  0  0  0  0  0
  188.7820  176.4880  143.8800 N   0  0  0  0  0  0  0  0  0  0  0  0
  184.7230  178.5850  147.4490 N   0  0  0  0  0  0  0  0  0  0  0  0
  188.2220  173.5880  138.7950 O   0  0  0  0  0  0  0  0  0  0  0  0
  188.5330  173.7880  140.0000 C   0  0  0  0  0  0  0  0  0  0  0  0
  189.2530  172.7320  140.7560 C   0  0  0  0  0  1  0  0  0  0  0  0
  191.9090  175.3190  147.6250 O   0  0  0  0  0  1  0  0  0  0  0  0
  192.2530  174.8990  146.3360 C   0  0  2  0  0  3  0  0  0  0  0  0
  194.5900  174.1730  145.6700 C   0  0  0  0  0  0  0  0  0  0  0  0
  193.6610  175.1780  146.0880 N   0  0  0  0  0  2  0  0  0  0  0  0
  194.1990  172.9990  145.4320 O   0  0  0  0  0  0  0  0  0  0  0  0
  197.6170  174.9210  143.8330 C   0  0  0  0  0  2  0  0  0  0  0  0
  197.9410  173.7070  144.6830 C   0  0  0  0  0  2  0  0  0  0  0  0
  196.2650  175.3540  144.3110 C   0  0  0  0  0  2  0  0  0  0  0  0
  196.0370  174.5050  145.5370 C   0  0  2  0  0  3  0  0  0  0  0  0
  196.7970  173.3350  145.4080 O   0  0  0  0  0  0  0  0  0  0  0  0
  1 15  1  0  0  0  0
  2 11  2  0  0  0  0
  2 12  1  0  0  0  0
  3  9  1  0  0  0  0
  4 10  2  0  0  0  0
  5 11  1  0  0  0  0
  5  3  2  0  0  0  0
  6 19  2  0  0  0  0
  6 14  1  0  0  0  0
  7  4  2  0  0  0  0
  8 13  1  1  0  0  0
  8  3  1  0  0  0  0
  9 14  2  0  0  0  0
 10 17  1  0  0  0  0
 10 18  1  0  0  0  0
 11  6  1  0  0  0  0
 12 19  1  0  0  0  0
 15 13  1  0  0  0  0
 15 24  1  1  0  0  0
 16  5  1  0  0  0  0
 17  1  1  0  0  0  0
 18 16  1  0  0  0  0
 18  8  1  0  0  0  0
 20 21  2  0  0  0  0
 21  7  1  0  0  0  0
 21 22  1  0  0  0  0
 24 23  1  1  0  0  0
 25 26  1  0  0  0  0
 26 24  1  0  0  0  0
 27 25  2  0  0  0  0
 28 30  1  0  0  0  0
 28 29  1  0  0  0  0
 29 32  1  0  0  0  0
 30 31  1  0  0  0  0
 31 25  1  6  0  0  0
 32 31  1  0  0  0  0
M  END
>  <MODEL>
5

>  <REMARK>
 VINA RESULT:      -7.4      3.072      5.715
  Name = 
  4 active torsions:
  status: ('A' for Active; 'I' for Inactive)
    1  A    between atoms: C_3  and  C_13
    2  A    between atoms: N_7  and  C_23
    3  A    between atoms: C_15  and  C_22
    4  A    between atoms: C_23  and  C_27
                            x       y       z     vdW  Elec       q    Type
                         _______ _______ _______ _____ _____    ______ ____

>  <TORSDO>
F 4

$$$$
=
 OpenBabel11042419333D

 32 36  0  0  1  0  0  0  0  0999 V2000
  190.5230  174.2680  144.6680 C   0  0  0  0  0  2  0  0  0  0  0  0
  185.7530  177.1430  139.7100 N   0  0  0  0  0  0  0  0  0  0  0  0
  187.7080  177.2420  142.8180 C   0  0  0  0  0  0  0  0  0  0  0  0
  190.5790  173.9240  141.2060 C   0  0  0  0  0  0  0  0  0  0  0  0
  187.3830  176.8200  141.5420 C   0  0  0  0  0  0  0  0  0  0  0  0
  185.5310  178.3300  141.5450 C   0  0  0  0  0  0  0  0  0  0  0  0
  190.8080  173.1310  140.1950 C   0  0  0  0  0  3  0  0  0  0  0  0
  188.9030  176.5190  143.3140 C   0  0  1  0  0  3  0  0  0  0  0  0
  186.9480  178.2280  143.4880 C   0  0  0  0  0  3  0  0  0  0  0  0
  190.3450  174.7170  142.2180 C   0  0  0  0  0  0  0  0  0  0  0  0
  186.2780  177.3830  140.9190 C   0  0  2  0  0  3  0  0  0  0  0  0
  184.6960  177.9500  139.6260 N   0  0  0  0  0  0  0  0  0  0  0  0
  188.5390  175.7050  144.4650 N   0  0  0  0  0  2  0  0  0  0  0  0
  185.8250  178.7910  142.8350 C   0  0  0  0  0  3  0  0  0  0  0  0
  189.7510  175.4530  145.2410 C   0  0  1  0  0  3  0  0  0  0  0  0
  188.3230  175.7890  141.0560 C   0  0  0  0  0  2  0  0  0  0  0  0
  191.2670  174.6610  143.3980 C   0  0  0  0  0  2  0  0  0  0  0  0
  189.2470  175.6440  142.1870 N   0  0  0  0  0  0  0  0  0  0  0  0
  184.5320  178.6850  140.7260 N   0  0  0  0  0  0  0  0  0  0  0  0
  192.0740  171.1980  139.6410 O   0  0  0  0  0  0  0  0  0  0  0  0
  191.2060  171.7320  140.3820 C   0  0  0  0  0  0  0  0  0  0  0  0
  190.5740  170.9330  141.4640 C   0  0  0  0  0  1  0  0  0  0  0  0
  189.4950  173.8340  147.0010 O   0  0  0  0  0  1  0  0  0  0  0  0
  189.3950  175.1970  146.7020 C   0  0  2  0  0  3  0  0  0  0  0  0
  187.7190  177.0300  147.2100 C   0  0  0  0  0  0  0  0  0  0  0  0
  188.0380  175.6580  146.9610 N   0  0  0  0  0  2  0  0  0  0  0  0
  188.6110  177.9170  147.1460 O   0  0  0  0  0  0  0  0  0  0  0  0
  184.2850  177.9250  146.5010 C   0  0  0  0  0  2  0  0  0  0  0  0
  184.8480  179.0730  147.3150 C   0  0  0  0  0  2  0  0  0  0  0  0
  185.3540  176.8770  146.5520 C   0  0  0  0  0  2  0  0  0  0  0  0
  186.3250  177.4160  147.5720 C   0  0  2  0  0  3  0  0  0  0  0  0
  186.1980  178.8120  147.6060 O   0  0  0  0  0  0  0  0  0  0  0  0
  1 15  1  0  0  0  0
  3  9  1  0  0  0  0
  4 10  2  0  0  0  0
  5  3  2  0  0  0  0
  6 14  1  0  0  0  0
  7 21  1  0  0  0  0
  7  4  2  0  0  0  0
  8  3  1  6  0  0  0
  8 13  1  0  0  0  0
 10 17  1  0  0  0  0
 11  2  1  1  0  0  0
 11  5  1  0  0  0  0
 11  6  1  0  0  0  0
 12  2  2  0  0  0  0
 12 19  1  0  0  0  0
 13 15  1  0  0  0  0
 14  9  2  0  0  0  0
 15 24  1  1  0  0  0
 16  5  1  0  0  0  0
 16 18  1  0  0  0  0
 17  1  1  0  0  0  0
 18 10  1  0  0  0  0
 18  8  1  0  0  0  0
 19  6  2  0  0  0  0
 20 21  2  0  0  0  0
 21 22  1  0  0  0  0
 24 26  1  0  0  0  0
 24 23  1  6  0  0  0
 26 25  1  0  0  0  0
 27 25  2  0  0  0  0
 28 30  1  0  0  0  0
 28 29  1  0  0  0  0
 29 32  1  0  0  0  0
 30 31  1  0  0  0  0
 31 25  1  6  0  0  0
 31 32  1  0  0  0  0
M  END
>  <MODEL>
6

>  <REMARK>
 VINA RESULT:      -7.2      3.463      7.579
  Name = 
  4 active torsions:
  status: ('A' for Active; 'I' for Inactive)
    1  A    between atoms: C_3  and  C_13
    2  A    between atoms: N_7  and  C_23
    3  A    between atoms: C_15  and  C_22
    4  A    between atoms: C_23  and  C_27
                            x       y       z     vdW  Elec       q    Type
                         _______ _______ _______ _____ _____    ______ ____

>  <TORSDO>
F 4

$$$$
=
 OpenBabel11042419333D

 32 36  0  0  1  0  0  0  0  0999 V2000
  191.7450  176.0000  145.6920 C   0  0  0  0  0  2  0  0  0  0  0  0
  191.2410  172.1460  139.3280 N   0  0  0  0  0  0  0  0  0  0  0  0
  189.9560  174.4740  141.8630 C   0  0  0  0  0  0  0  0  0  0  0  0
  194.2860  175.2780  143.4270 C   0  0  0  0  0  0  0  0  0  0  0  0
  190.9210  173.7740  141.1620 C   0  0  0  0  0  0  0  0  0  0  0  0
  189.2020  172.7960  139.8240 C   0  0  0  0  0  0  0  0  0  0  0  0
  195.5410  174.9550  143.2660 C   0  0  0  0  0  3  0  0  0  0  0  0
  190.5820  175.3040  142.9190 C   0  0  1  0  0  3  0  0  0  0  0  0
  188.5820  174.3520  141.5520 C   0  0  0  0  0  3  0  0  0  0  0  0
  193.0300  175.5980  143.5880 C   0  0  0  0  0  0  0  0  0  0  0  0
  190.5170  172.9320  140.1370 C   0  0  2  0  0  3  0  0  0  0  0  0
  190.3490  171.5490  138.5380 N   0  0  0  0  0  0  0  0  0  0  0  0
  190.1490  174.8360  144.2290 N   0  0  0  0  0  2  0  0  0  0  0  0
  188.1890  173.4870  140.5030 C   0  0  0  0  0  3  0  0  0  0  0  0
  190.3100  175.9360  145.1760 C   0  0  1  0  0  3  0  0  0  0  0  0
  192.2780  174.0700  141.6680 C   0  0  0  0  0  2  0  0  0  0  0  0
  192.6770  176.5990  144.6450 C   0  0  0  0  0  2  0  0  0  0  0  0
  192.0120  175.0260  142.7500 N   0  0  0  0  0  0  0  0  0  0  0  0
  189.0990  171.9210  138.8140 N   0  0  0  0  0  0  0  0  0  0  0  0
  197.6870  174.7010  144.2540 O   0  0  0  0  0  0  0  0  0  0  0  0
  196.4370  174.7320  144.4060 C   0  0  0  0  0  0  0  0  0  0  0  0
  195.8580  174.5410  145.7610 C   0  0  0  0  0  1  0  0  0  0  0  0
  189.4060  174.4780  146.8620 O   0  0  0  0  0  1  0  0  0  0  0  0
  189.3370  175.7730  146.3390 C   0  0  2  0  0  3  0  0  0  0  0  0
  187.1860  177.1140  146.4070 C   0  0  0  0  0  0  0  0  0  0  0  0
  187.9810  176.0470  145.8830 N   0  0  0  0  0  2  0  0  0  0  0  0
  187.6650  177.9140  147.2540 O   0  0  0  0  0  0  0  0  0  0  0  0
  184.4590  178.7560  144.6850 C   0  0  0  0  0  2  0  0  0  0  0  0
  184.0330  178.6680  146.1380 C   0  0  0  0  0  2  0  0  0  0  0  0
  185.7140  177.9410  144.6180 C   0  0  0  0  0  2  0  0  0  0  0  0
  185.7700  177.2720  145.9690 C   0  0  2  0  0  3  0  0  0  0  0  0
  185.0610  178.0650  146.8820 O   0  0  0  0  0  0  0  0  0  0  0  0
  4 10  2  0  0  0  0
  5 16  1  0  0  0  0
  5  3  2  0  0  0  0
  6 11  1  0  0  0  0
  6 14  1  0  0  0  0
  7  4  2  0  0  0  0
  7 21  1  0  0  0  0
  8  3  1  6  0  0  0
  8 13  1  0  0  0  0
  9  3  1  0  0  0  0
 10 17  1  0  0  0  0
 11  2  1  1  0  0  0
 11  5  1  0  0  0  0
 12 19  1  0  0  0  0
 12  2  2  0  0  0  0
 13 15  1  0  0  0  0
 14  9  2  0  0  0  0
 15  1  1  0  0  0  0
 15 24  1  1  0  0  0
 16 18  1  0  0  0  0
 17  1  1  0  0  0  0
 18  8  1  0  0  0  0
 18 10  1  0  0  0  0
 19  6  2  0  0  0  0
 20 21  2  0  0  0  0
 21 22  1  0  0  0  0
 24 23  1  6  0  0  0
 25 27  2  0  0  0  0
 26 24  1  0  0  0  0
 26 25  1  0  0  0  0
 28 29  1  0  0  0  0
 29 32  1  0  0  0  0
 30 28  1  0  0  0  0
 30 31  1  0  0  0  0
 31 25  1  1  0  0  0
 31 32  1  0  0  0  0
M  END
>  <MODEL>
7

>  <REMARK>
 VINA RESULT:      -7.2      1.861      7.170
  Name = 
  4 active torsions:
  status: ('A' for Active; 'I' for Inactive)
    1  A    between atoms: C_3  and  C_13
    2  A    between atoms: N_7  and  C_23
    3  A    between atoms: C_15  and  C_22
    4  A    between atoms: C_23  and  C_27
                            x       y       z     vdW  Elec       q    Type
                         _______ _______ _______ _____ _____    ______ ____

>  <TORSDO>
F 4

$$$$
=
 OpenBabel11042419333D

 32 36  0  0  1  0  0  0  0  0999 V2000
  187.1950  175.5180  142.1270 C   0  0  0  0  0  2  0  0  0  0  0  0
  192.9180  176.8240  146.7270 N   0  0  0  0  0  0  0  0  0  0  0  0
  191.4510  176.1380  143.4290 C   0  0  0  0  0  0  0  0  0  0  0  0
  187.2690  177.6220  144.8970 C   0  0  0  0  0  0  0  0  0  0  0  0
  191.4620  176.5670  144.7440 C   0  0  0  0  0  0  0  0  0  0  0  0
  193.7800  176.0080  144.8790 C   0  0  0  0  0  0  0  0  0  0  0  0
  186.6190  178.0830  145.9320 C   0  0  0  0  0  3  0  0  0  0  0  0
  190.0960  176.2870  142.8470 C   0  0  1  0  0  3  0  0  0  0  0  0
  192.6160  175.6360  142.8050 C   0  0  0  0  0  3  0  0  0  0  0  0
  187.9210  177.1580  143.8650 C   0  0  0  0  0  0  0  0  0  0  0  0
  192.6500  176.4910  145.4570 C   0  0  0  0  0  0  0  0  0  0  0  0
  194.2090  176.5370  146.8940 N   0  0  0  0  0  2  0  0  0  0  0  0
  189.5610  174.9740  142.5120 N   0  0  0  0  0  2  0  0  0  0  0  0
  193.8180  175.5660  143.5490 C   0  0  0  0  0  3  0  0  0  0  0  0
  188.5340  175.1530  141.4900 C   0  0  1  0  0  3  0  0  0  0  0  0
  190.1310  177.0500  145.1670 C   0  0  0  0  0  2  0  0  0  0  0  0
  187.1810  176.9740  142.5760 C   0  0  0  0  0  2  0  0  0  0  0  0
  189.3250  176.8610  143.9550 N   0  0  0  0  0  0  0  0  0  0  0  0
  194.7630  176.0370  145.7890 N   0  0  0  0  0  0  0  0  0  0  0  0
  185.0240  176.4190  146.5110 O   0  0  0  0  0  0  0  0  0  0  0  0
  185.2620  177.6310  146.2590 C   0  0  0  0  0  0  0  0  0  0  0  0
  184.1540  178.6190  146.2930 C   0  0  0  0  0  1  0  0  0  0  0  0
  188.3670  172.7540  141.4830 O   0  0  0  0  0  1  0  0  0  0  0  0
  188.3940  173.8830  140.6580 C   0  0  2  0  0  3  0  0  0  0  0  0
  189.3420  173.7830  138.3080 C   0  0  0  0  0  0  0  0  0  0  0  0
  189.5110  173.7840  139.7280 N   0  0  0  0  0  2  0  0  0  0  0  0
  188.1990  173.9380  137.7990 O   0  0  0  0  0  0  0  0  0  0  0  0
  192.7420  174.3350  137.1990 C   0  0  0  0  0  2  0  0  0  0  0  0
  191.8620  174.6730  136.0100 C   0  0  0  0  0  2  0  0  0  0  0  0
  191.7980  173.7400  138.1980 C   0  0  0  0  0  2  0  0  0  0  0  0
  190.5190  173.5740  137.4170 C   0  0  2  0  0  3  0  0  0  0  0  0
  190.5150  174.5110  136.3750 O   0  0  0  0  0  0  0  0  0  0  0  0
  1 17  1  0  0  0  0
  2 12  1  0  0  0  0
  3  5  2  0  0  0  0
  4  7  2  0  0  0  0
  5 16  1  0  0  0  0
  5 11  1  0  0  0  0
  6 11  1  0  0  0  0
  6 19  2  0  0  0  0
  7 21  1  0  0  0  0
  8 13  1  1  0  0  0
  8  3  1  0  0  0  0
  8 18  1  0  0  0  0
  9  3  1  0  0  0  0
  9 14  2  0  0  0  0
 10 18  1  0  0  0  0
 10  4  2  0  0  0  0
 11  2  2  0  0  0  0
 14  6  1  0  0  0  0
 15 24  1  1  0  0  0
 15  1  1  0  0  0  0
 15 13  1  0  0  0  0
 17 10  1  0  0  0  0
 18 16  1  0  0  0  0
 19 12  1  0  0  0  0
 21 22  1  0  0  0  0
 21 20  2  0  0  0  0
 24 23  1  1  0  0  0
 25 26  1  0  0  0  0
 26 24  1  0  0  0  0
 27 25  2  0  0  0  0
 28 30  1  0  0  0  0
 29 32  1  0  0  0  0
 29 28  1  0  0  0  0
 31 30  1  0  0  0  0
 31 25  1  1  0  0  0
 32 31  1  0  0  0  0
M  END
>  <MODEL>
8

>  <REMARK>
 VINA RESULT:      -7.2      3.640      6.135
  Name = 
  4 active torsions:
  status: ('A' for Active; 'I' for Inactive)
    1  A    between atoms: C_3  and  C_13
    2  A    between atoms: N_7  and  C_23
    3  A    between atoms: C_15  and  C_22
    4  A    between atoms: C_23  and  C_27
                            x       y       z     vdW  Elec       q    Type
                         _______ _______ _______ _____ _____    ______ ____

>  <TORSDO>
F 4

$$$$
=
 OpenBabel11042419333D

 32 36  0  0  1  0  0  0  0  0999 V2000
  187.2870  175.7870  142.5370 C   0  0  0  0  0  2  0  0  0  0  0  0
  193.6530  176.4040  146.3710 N   0  0  0  0  0  0  0  0  0  0  0  0
  191.7070  176.1500  143.2660 C   0  0  0  0  0  0  0  0  0  0  0  0
  187.8390  177.5440  145.4890 C   0  0  0  0  0  0  0  0  0  0  0  0
  191.9210  176.4180  144.6050 C   0  0  0  0  0  0  0  0  0  0  0  0
  194.2110  175.7940  144.3350 C   0  0  0  0  0  0  0  0  0  0  0  0
  187.3610  177.8930  146.6530 C   0  0  0  0  0  3  0  0  0  0  0  0
  190.2900  176.3990  142.9080 C   0  0  1  0  0  3  0  0  0  0  0  0
  192.7500  175.6990  142.4250 C   0  0  0  0  0  3  0  0  0  0  0  0
  188.3180  177.1920  144.3260 C   0  0  0  0  0  0  0  0  0  0  0  0
  193.1940  176.2300  145.1240 C   0  0  0  0  0  0  0  0  0  0  0  0
  194.9420  176.0680  146.3140 N   0  0  0  0  0  2  0  0  0  0  0  0
  189.6600  175.1470  142.5080 N   0  0  0  0  0  2  0  0  0  0  0  0
  194.0420  175.5130  142.9730 C   0  0  0  0  0  3  0  0  0  0  0  0
  188.5060  175.4700  141.6730 C   0  0  1  0  0  3  0  0  0  0  0  0
  190.6840  176.8780  145.2710 C   0  0  0  0  0  2  0  0  0  0  0  0
  187.3950  177.1800  143.1470 C   0  0  0  0  0  2  0  0  0  0  0  0
  189.7070  176.8530  144.1760 N   0  0  0  0  0  0  0  0  0  0  0  0
  195.3130  175.6920  145.0900 N   0  0  0  0  0  0  0  0  0  0  0  0
  185.6980  177.5830  148.3230 O   0  0  0  0  0  0  0  0  0  0  0  0
  186.0480  177.4360  147.1210 C   0  0  0  0  0  0  0  0  0  0  0  0
  185.1160  176.7910  146.1600 C   0  0  0  0  0  1  0  0  0  0  0  0
  187.8180  173.1770  141.4530 O   0  0  0  0  0  1  0  0  0  0  0  0
  188.1990  174.3120  140.7310 C   0  0  2  0  0  3  0  0  0  0  0  0
  189.3000  173.5900  138.5640 C   0  0  0  0  0  0  0  0  0  0  0  0
  189.3770  174.0110  139.9280 N   0  0  0  0  0  2  0  0  0  0  0  0
  188.1880  173.5270  137.9740 O   0  0  0  0  0  0  0  0  0  0  0  0
  191.1810  171.8290  136.0220 C   0  0  0  0  0  2  0  0  0  0  0  0
  191.7890  171.4110  137.3470 C   0  0  0  0  0  2  0  0  0  0  0  0
  190.2270  172.9260  136.3840 C   0  0  0  0  0  2  0  0  0  0  0  0
  190.5400  173.1980  137.8350 C   0  0  2  0  0  3  0  0  0  0  0  0
  191.0870  172.0340  138.3920 O   0  0  0  0  0  0  0  0  0  0  0  0
  1 17  1  0  0  0  0
  3  5  2  0  0  0  0
  4  7  2  0  0  0  0
  5 11  1  0  0  0  0
  5 16  1  0  0  0  0
  6 19  2  0  0  0  0
  6 11  1  0  0  0  0
  7 21  1  0  0  0  0
  8 13  1  1  0  0  0
  8  3  1  0  0  0  0
  8 18  1  0  0  0  0
  9 14  2  0  0  0  0
  9  3  1  0  0  0  0
 10  4  2  0  0  0  0
 11  2  2  0  0  0  0
 12  2  1  0  0  0  0
 14  6  1  0  0  0  0
 15 24  1  6  0  0  0
 15 13  1  0  0  0  0
 15  1  1  0  0  0  0
 17 10  1  0  0  0  0
 18 10  1  0  0  0  0
 18 16  1  0  0  0  0
 19 12  1  0  0  0  0
 21 20  2  0  0  0  0
 22 21  1  0  0  0  0
 24 23  1  1  0  0  0
 25 26  1  0  0  0  0
 26 24  1  0  0  0  0
 27 25  2  0  0  0  0
 28 30  1  0  0  0  0
 28 29  1  0  0  0  0
 29 32  1  0  0  0  0
 30 31  1  0  0  0  0
 31 32  1  0  0  0  0
 31 25  1  1  0  0  0
M  END
>  <MODEL>
9

>  <REMARK>
 VINA RESULT:      -7.0      3.517      6.190
  Name = 
  4 active torsions:
  status: ('A' for Active; 'I' for Inactive)
    1  A    between atoms: C_3  and  C_13
    2  A    between atoms: N_7  and  C_23
    3  A    between atoms: C_15  and  C_22
    4  A    between atoms: C_23  and  C_27
                            x       y       z     vdW  Elec       q    Type
                         _______ _______ _______ _____ _____    ______ ____

>  <TORSDO>
F 4

$$$$
