=
 OpenBabel11042415083D

 69 73  0  0  1  0  0  0  0  0999 V2000
  189.8700  171.8800  140.3280 C   0  0  0  0  0  0  0  0  0  0  0  0
  189.4390  172.8730  139.4250 C   0  0  0  0  0  3  0  0  0  0  0  0
  190.7510  170.6050  138.4460 C   0  0  0  0  0  3  0  0  0  0  0  0
  190.5350  170.7440  139.8280 C   0  0  0  0  0  3  0  0  0  0  0  0
  190.3120  171.5770  137.5580 C   0  0  0  0  0  0  0  0  0  0  0  0
  189.6500  172.7180  138.0520 C   0  0  0  0  0  0  0  0  0  0  0  0
  189.2080  173.8370  137.1400 C   0  0  0  0  0  1  0  0  0  0  0  0
  189.2940  173.3610  142.1270 O   0  0  0  0  0  1  0  0  0  0  0  0
  189.8580  172.1140  141.8280 C   0  0  2  0  0  3  0  0  0  0  0  0
  191.2340  171.5700  143.7690 C   0  0  0  0  0  2  0  0  0  0  0  0
  191.1940  171.9680  142.5080 C   0  0  0  0  0  0  0  0  0  0  0  0
  192.3080  172.7360  142.0340 N   0  0  0  0  0  2  0  0  0  0  0  0
  191.7820  175.6200  144.1790 N   0  0  0  0  0  0  0  0  0  0  0  0
  192.6600  174.0030  142.7030 C   0  0  1  0  0  3  0  0  0  0  0  0
  191.9810  176.2690  142.8700 C   0  0  0  0  0  2  0  0  0  0  0  0
  192.2090  175.1760  141.8570 C   0  0  0  0  0  2  0  0  0  0  0  0
  191.9020  174.1810  143.9910 C   0  0  0  0  0  2  0  0  0  0  0  0
  190.4450  175.8840  144.7310 C   0  0  2  0  0  3  0  0  0  0  0  0
  189.7150  176.8040  143.9340 O   0  0  0  0  0  0  0  0  0  0  0  0
  188.7160  176.0990  143.2230 C   0  0  0  0  0  2  0  0  0  0  0  0
  186.3280  176.3230  142.5680 C   0  0  0  0  0  1  0  0  0  0  0  0
  187.6330  177.0660  142.7420 C   0  0  2  0  0  3  0  0  0  0  0  0
  186.8840  177.6690  140.4370 C   0  0  0  0  0  1  0  0  0  0  0  0
  188.0380  177.7460  141.4280 C   0  0  0  0  0  2  0  0  0  0  0  0
  190.5760  176.2750  146.2140 C   0  0  0  0  0  2  0  0  0  0  0  0
  189.3010  177.7580  147.6430 C   0  0  0  0  0  0  0  0  0  0  0  0
  190.5240  178.1440  148.4100 C   0  0  0  0  0  1  0  0  0  0  0  0
  189.3460  176.9130  146.6570 N   0  0  0  0  0  0  0  0  0  0  0  0
  187.9910  178.3790  148.0040 C   0  0  0  0  0  2  0  0  0  0  0  0
  187.0130  178.1050  146.9640 N   0  0  0  0  0  0  0  0  0  0  0  0
  184.9690  179.0180  145.9010 C   0  0  0  0  0  2  0  0  0  0  0  0
  185.1170  176.5590  146.4400 C   0  0  0  0  0  2  0  0  0  0  0  0
  186.3360  176.8700  147.3430 C   0  0  0  0  0  2  0  0  0  0  0  0
  186.0530  179.2180  146.9750 C   0  0  0  0  0  2  0  0  0  0  0  0
  184.9660  177.5990  145.3190 C   0  0  0  0  0  2  0  0  0  0  0  0
  189.5400  171.2010  135.3070 O   0  0  0  0  0  1  0  0  0  0  0  0
  190.6570  171.4770  136.0900 C   0  0  2  0  0  3  0  0  0  0  0  0
  191.9330  169.5030  136.3750 O   0  0  0  0  0  0  0  0  0  0  0  0
  191.8140  170.5680  135.7840 C   0  0  0  0  0  0  0  0  0  0  0  0
  192.9840  171.1170  135.0410 C   0  0  0  0  0  2  0  0  0  0  0  0
  193.5010  172.3510  135.7740 C   0  0  0  0  0  3  0  0  0  0  0  0
  194.1980  172.0870  137.1110 C   0  0  0  0  0  3  0  0  0  0  0  0
  195.0020  173.2130  137.7730 C   0  0  2  0  0  0  0  0  0  0  0  0
  194.4150  173.6010  139.1210 C   0  0  0  0  0  1  0  0  0  0  0  0
  194.9850  174.3230  136.9050 O   0  0  0  0  0  1  0  0  0  0  0  0
  196.3780  172.7080  137.9970 N   0  0  0  0  0  2  0  0  0  0  0  0
  196.5320  171.9630  139.2550 C   0  0  1  0  0  3  0  0  0  0  0  0
  196.7840  170.6000  138.9680 O   0  0  0  0  0  0  0  0  0  0  0  0
  195.9940  169.7840  139.8180 C   0  0  1  0  0  3  0  0  0  0  0  0
  196.8030  169.2010  141.0050 C   0  0  0  0  0  2  0  0  0  0  0  0
  194.6680  170.4780  140.2170 C   0  0  0  0  0  2  0  0  0  0  0  0
  196.8850  168.8250  143.3240 C   0  0  0  0  0  1  0  0  0  0  0  0
  196.1330  169.4830  142.2750 N   0  0  0  0  0  0  0  0  0  0  0  0
  194.8170  168.8730  142.1940 C   0  0  0  0  0  2  0  0  0  0  0  0
  193.8930  169.6820  141.2800 C   0  0  0  0  0  2  0  0  0  0  0  0
  197.7210  172.5440  140.0230 C   0  0  0  0  0  2  0  0  0  0  0  0
  195.9540  172.7850  141.6640 O   0  0  0  0  0  1  0  0  0  0  0  0
  197.3590  172.8390  141.5010 C   0  0  2  0  0  3  0  0  0  0  0  0
  197.8930  174.0890  141.9050 O   0  0  0  0  0  0  0  0  0  0  0  0
  196.9260  174.7680  142.6690 C   0  0  2  0  0  3  0  0  0  0  0  0
  195.6030  176.4170  141.5710 C   0  0  0  0  0  2  0  0  0  0  0  0
  196.9030  176.1880  142.2480 N   0  0  0  0  0  0  0  0  0  0  0  0
  196.8080  176.1950  140.7780 C   0  0  0  0  0  2  0  0  0  0  0  0
  197.1860  174.6440  144.1810 C   0  0  0  0  0  2  0  0  0  0  0  0
  195.1060  175.4550  145.0290 O   0  0  0  0  0  0  0  0  0  0  0  0
  195.9180  174.5450  144.9860 C   0  0  0  0  0  0  0  0  0  0  0  0
  196.8750  172.8700  146.3450 O   0  0  0  0  0  1  0  0  0  0  0  0
  195.6790  173.2740  145.7380 C   0  0  2  0  0  3  0  0  0  0  0  0
  195.1920  172.2320  144.8410 N   0  0  0  0  0  1  0  0  0  0  0  0
  1  9  1  0  0  0  0
  2  1  2  0  0  0  0
  3  4  2  0  0  0  0
  4  1  1  0  0  0  0
  5  6  2  0  0  0  0
  5  3  1  0  0  0  0
  6  2  1  0  0  0  0
  7  6  1  0  0  0  0
  9  8  1  6  0  0  0
  9 11  1  0  0  0  0
 11 10  2  0  0  0  0
 12 11  1  0  0  0  0
 13 18  1  0  0  0  0
 14 12  1  6  0  0  0
 14 17  1  0  0  0  0
 15 13  1  0  0  0  0
 16 14  1  0  0  0  0
 16 15  1  0  0  0  0
 17 13  1  0  0  0  0
 18 25  1  1  0  0  0
 19 18  1  0  0  0  0
 20 19  1  0  0  0  0
 22 21  1  6  0  0  0
 22 20  1  0  0  0  0
 23 24  1  0  0  0  0
 24 22  1  0  0  0  0
 25 28  1  0  0  0  0
 26 29  1  0  0  0  0
 26 27  1  0  0  0  0
 28 26  2  0  0  0  0
 30 34  1  0  0  0  0
 30 33  1  0  0  0  0
 30 29  1  0  0  0  0
 31 34  1  0  0  0  0
 32 33  1  0  0  0  0
 35 31  1  0  0  0  0
 35 32  1  0  0  0  0
 37 36  1  6  0  0  0
 37  5  1  0  0  0  0
 39 37  1  0  0  0  0
 39 38  2  0  0  0  0
 40 41  1  0  0  0  0
 40 39  1  0  0  0  0
 41 42  2  0  0  0  0
 42 43  1  0  0  0  0
 43 46  1  0  0  0  0
 43 44  1  1  0  0  0
 45 43  1  0  0  0  0
 46 47  1  0  0  0  0
 47 56  1  6  0  0  0
 48 47  1  0  0  0  0
 49 48  1  1  0  0  0
 49 51  1  0  0  0  0
 49 50  1  0  0  0  0
 50 53  1  0  0  0  0
 51 55  1  0  0  0  0
 53 52  1  0  0  0  0
 54 53  1  0  0  0  0
 55 54  1  0  0  0  0
 56 58  1  0  0  0  0
 58 57  1  6  0  0  0
 58 59  1  0  0  0  0
 59 60  1  0  0  0  0
 60 64  1  1  0  0  0
 61 62  1  0  0  0  0
 62 60  1  0  0  0  0
 63 61  1  0  0  0  0
 63 62  1  0  0  0  0
 64 66  1  0  0  0  0
 66 65  2  0  0  0  0
 66 68  1  0  0  0  0
 68 69  1  6  0  0  0
 68 67  1  0  0  0  0
M  END
>  <MODEL>
1

>  <REMARK>
 VINA RESULT:      -4.5      0.000      0.000
  Name = 
  31 active torsions:
  status: ('A' for Active; 'I' for Inactive)
    1  A    between atoms: C_2  and  C_11
    2  A    between atoms: C_2  and  C_42
    3  A    between atoms: N_3  and  C_30
    4  A    between atoms: C_5  and  C_39
    5  A    between atoms: C_5  and  C_48
    6  A    between atoms: C_6  and  C_29
    7  A    between atoms: C_6  and  N_60
    8  A    between atoms: C_7  and  O_19
    9  A    between atoms: N_9  and  C_29
   10  A    between atoms: C_11  and  C_55
   11  A    between atoms: O_12  and  C_48
   12  A    between atoms: O_12  and  C_54
   13  A    between atoms: C_14  and  N_15
   14  A    between atoms: N_15  and  C_31
   15  A    between atoms: N_17  and  C_20
   16  A    between atoms: N_17  and  C_39
   17  A    between atoms: C_18  and  C_40
   18  A    between atoms: O_19  and  C_39
   19  A    between atoms: C_20  and  C_55
   20  A    between atoms: C_21  and  C_37
   21  A    between atoms: C_21  and  C_42
   22  A    between atoms: C_27  and  C_54
   23  A    between atoms: C_27  and  C_68
   24  A    between atoms: C_29  and  O_57
   25  A    between atoms: C_30  and  C_41
   26  A    between atoms: C_31  and  C_40
   27  A    between atoms: C_34  and  C_68
   28  A    between atoms: N_38  and  C_54
   29  A    between atoms: C_43  and  C_56
   30  A    between atoms: C_56  and  C_69
   31  A    between atoms: O_57  and  C_69
                            x       y       z     vdW  Elec       q    Type
                         _______ _______ _______ _____ _____    ______ ____

>  <TORSDO>
F 31

$$$$
=
 OpenBabel11042415083D

 69 73  0  0  1  0  0  0  0  0999 V2000
  189.8690  173.5580  139.8690 C   0  0  0  0  0  0  0  0  0  0  0  0
  189.3600  173.6590  138.5590 C   0  0  0  0  0  3  0  0  0  0  0  0
  191.9390  172.6520  138.9530 C   0  0  0  0  0  3  0  0  0  0  0  0
  191.1700  173.0550  140.0590 C   0  0  0  0  0  3  0  0  0  0  0  0
  191.4290  172.7390  137.6650 C   0  0  0  0  0  0  0  0  0  0  0  0
  190.1300  173.2440  137.4680 C   0  0  0  0  0  0  0  0  0  0  0  0
  189.5470  173.4220  136.0870 C   0  0  0  0  0  1  0  0  0  0  0  0
  188.6290  175.4430  140.6870 O   0  0  0  0  0  1  0  0  0  0  0  0
  189.1570  174.1980  141.0470 C   0  0  2  0  0  3  0  0  0  0  0  0
  191.1390  174.9640  142.2480 C   0  0  0  0  0  2  0  0  0  0  0  0
  189.9830  174.3230  142.3010 C   0  0  0  0  0  0  0  0  0  0  0  0
  189.8270  173.3500  143.3420 N   0  0  0  0  0  2  0  0  0  0  0  0
  188.6640  175.4550  146.0650 N   0  0  0  0  0  0  0  0  0  0  0  0
  189.0480  173.6890  144.5490 C   0  0  1  0  0  3  0  0  0  0  0  0
  189.3170  174.3620  146.8070 C   0  0  0  0  0  2  0  0  0  0  0  0
  189.8660  173.3930  145.7900 C   0  0  0  0  0  2  0  0  0  0  0  0
  188.7830  175.1680  144.6420 C   0  0  0  0  0  2  0  0  0  0  0  0
  189.3100  176.7530  146.3090 C   0  0  2  0  0  3  0  0  0  0  0  0
  190.6660  176.6060  146.6980 O   0  0  0  0  0  0  0  0  0  0  0  0
  191.4950  176.9800  145.6140 C   0  0  0  0  0  2  0  0  0  0  0  0
  192.8250  175.2270  146.7700 C   0  0  0  0  0  1  0  0  0  0  0  0
  192.6580  175.9960  145.4790 C   0  0  2  0  0  3  0  0  0  0  0  0
  194.7030  177.1010  146.3940 C   0  0  0  0  0  1  0  0  0  0  0  0
  193.9610  176.7210  145.1200 C   0  0  0  0  0  2  0  0  0  0  0  0
  188.4440  177.5760  147.2810 C   0  0  0  0  0  2  0  0  0  0  0  0
  186.3750  178.1550  146.1640 C   0  0  0  0  0  0  0  0  0  0  0  0
  185.7690  176.8320  146.5010 C   0  0  0  0  0  1  0  0  0  0  0  0
  187.5820  178.4710  146.5240 N   0  0  0  0  0  0  0  0  0  0  0  0
  185.5600  179.1560  145.4110 C   0  0  0  0  0  2  0  0  0  0  0  0
  185.0970  178.5750  144.1620 N   0  0  0  0  0  0  0  0  0  0  0  0
  185.4370  178.6650  141.7090 C   0  0  0  0  0  2  0  0  0  0  0  0
  183.1020  178.5550  142.6520 C   0  0  0  0  0  2  0  0  0  0  0  0
  183.6860  178.9240  144.0380 C   0  0  0  0  0  2  0  0  0  0  0  0
  185.8600  179.2180  143.0820 C   0  0  0  0  0  2  0  0  0  0  0  0
  184.1430  177.8460  141.7730 C   0  0  0  0  0  2  0  0  0  0  0  0
  191.9140  173.1080  135.3350 O   0  0  0  0  0  1  0  0  0  0  0  0
  192.3070  172.4180  136.4780 C   0  0  2  0  0  3  0  0  0  0  0  0
  191.8290  170.3760  135.3800 O   0  0  0  0  0  0  0  0  0  0  0  0
  192.5010  170.9490  136.2270 C   0  0  0  0  0  0  0  0  0  0  0  0
  193.2380  170.1370  137.2350 C   0  0  0  0  0  2  0  0  0  0  0  0
  194.7000  170.0300  136.8120 C   0  0  0  0  0  2  0  0  0  0  0  0
  195.7320  170.3750  137.8880 C   0  0  0  0  0  2  0  0  0  0  0  0
  196.3740  171.7680  137.8940 C   0  0  2  0  0  0  0  0  0  0  0  0
  196.3770  172.3880  136.5060 C   0  0  0  0  0  1  0  0  0  0  0  0
  197.6970  171.6300  138.3600 O   0  0  0  0  0  1  0  0  0  0  0  0
  195.5610  172.6310  138.7840 N   0  0  0  0  0  2  0  0  0  0  0  0
  196.0430  174.0190  138.8550 C   0  0  1  0  0  3  0  0  0  0  0  0
  195.0410  174.8900  138.3650 O   0  0  0  0  0  0  0  0  0  0  0  0
  195.2130  175.0710  136.9690 C   0  0  1  0  0  3  0  0  0  0  0  0
  193.9970  175.7650  136.3030 C   0  0  0  0  0  2  0  0  0  0  0  0
  196.5860  175.7070  136.6330 C   0  0  0  0  0  2  0  0  0  0  0  0
  193.2630  177.4580  134.8460 C   0  0  0  0  0  1  0  0  0  0  0  0
  194.4300  176.9230  135.5190 N   0  0  0  0  0  0  0  0  0  0  0  0
  195.3550  176.4240  134.5170 C   0  0  0  0  0  2  0  0  0  0  0  0
  196.7070  176.0740  135.1450 C   0  0  0  0  0  2  0  0  0  0  0  0
  196.3360  174.3590  140.3170 C   0  0  0  0  0  2  0  0  0  0  0  0
  194.7520  173.6860  142.0240 O   0  0  0  0  0  1  0  0  0  0  0  0
  195.8620  173.2330  141.2720 C   0  0  2  0  0  3  0  0  0  0  0  0
  196.9280  172.8040  142.1040 O   0  0  0  0  0  0  0  0  0  0  0  0
  196.3880  172.2370  143.2730 C   0  0  2  0  0  3  0  0  0  0  0  0
  196.4580  173.5250  145.2750 C   0  0  0  0  0  2  0  0  0  0  0  0
  197.2510  172.6080  144.4190 N   0  0  0  0  0  0  0  0  0  0  0  0
  197.4480  174.0670  144.3490 C   0  0  0  0  0  2  0  0  0  0  0  0
  196.2420  170.7090  143.1650 C   0  0  0  0  0  2  0  0  0  0  0  0
  193.8560  170.6010  143.1390 O   0  0  0  0  0  0  0  0  0  0  0  0
  194.9080  170.2880  142.6070 C   0  0  0  0  0  0  0  0  0  0  0  0
  193.7200  168.7380  141.2820 O   0  0  0  0  0  1  0  0  0  0  0  0
  194.9150  169.4650  141.3570 C   0  0  2  0  0  3  0  0  0  0  0  0
  196.0580  168.5590  141.3460 N   0  0  0  0  0  1  0  0  0  0  0  0
  1  4  1  0  0  0  0
  1  9  1  0  0  0  0
  2  1  2  0  0  0  0
  3  4  2  0  0  0  0
  5  3  1  0  0  0  0
  6  5  2  0  0  0  0
  6  2  1  0  0  0  0
  7  6  1  0  0  0  0
  9  8  1  6  0  0  0
  9 11  1  0  0  0  0
 10 11  2  0  0  0  0
 11 12  1  0  0  0  0
 13 18  1  0  0  0  0
 13 15  1  0  0  0  0
 14 12  1  6  0  0  0
 14 17  1  0  0  0  0
 14 16  1  0  0  0  0
 16 15  1  0  0  0  0
 17 13  1  0  0  0  0
 18 19  1  0  0  0  0
 18 25  1  1  0  0  0
 20 19  1  0  0  0  0
 22 20  1  0  0  0  0
 22 21  1  1  0  0  0
 24 22  1  0  0  0  0
 24 23  1  0  0  0  0
 26 27  1  0  0  0  0
 26 28  2  0  0  0  0
 28 25  1  0  0  0  0
 29 26  1  0  0  0  0
 30 29  1  0  0  0  0
 31 35  1  0  0  0  0
 31 34  1  0  0  0  0
 32 33  1  0  0  0  0
 33 30  1  0  0  0  0
 34 30  1  0  0  0  0
 35 32  1  0  0  0  0
 37 36  1  6  0  0  0
 37  5  1  0  0  0  0
 38 39  2  0  0  0  0
 39 37  1  0  0  0  0
 39 40  1  0  0  0  0
 41 40  1  0  0  0  0
 41 42  1  0  0  0  0
 42 43  1  0  0  0  0
 43 44  1  6  0  0  0
 43 45  1  0  0  0  0
 43 46  1  0  0  0  0
 46 47  1  0  0  0  0
 47 56  1  1  0  0  0
 48 47  1  0  0  0  0
 49 48  1  1  0  0  0
 50 49  1  0  0  0  0
 51 49  1  0  0  0  0
 52 53  1  0  0  0  0
 53 50  1  0  0  0  0
 54 55  1  0  0  0  0
 54 53  1  0  0  0  0
 55 51  1  0  0  0  0
 56 58  1  0  0  0  0
 58 57  1  1  0  0  0
 58 59  1  0  0  0  0
 59 60  1  0  0  0  0
 60 64  1  6  0  0  0
 60 62  1  0  0  0  0
 62 61  1  0  0  0  0
 63 62  1  0  0  0  0
 63 61  1  0  0  0  0
 66 65  2  0  0  0  0
 66 64  1  0  0  0  0
 68 67  1  1  0  0  0
 68 66  1  0  0  0  0
 69 68  1  0  0  0  0
M  END
>  <MODEL>
2

>  <REMARK>
 VINA RESULT:      -4.0      2.350      4.767
  Name = 
  31 active torsions:
  status: ('A' for Active; 'I' for Inactive)
    1  A    between atoms: C_2  and  C_11
    2  A    between atoms: C_2  and  C_42
    3  A    between atoms: N_3  and  C_30
    4  A    between atoms: C_5  and  C_39
    5  A    between atoms: C_5  and  C_48
    6  A    between atoms: C_6  and  C_29
    7  A    between atoms: C_6  and  N_60
    8  A    between atoms: C_7  and  O_19
    9  A    between atoms: N_9  and  C_29
   10  A    between atoms: C_11  and  C_55
   11  A    between atoms: O_12  and  C_48
   12  A    between atoms: O_12  and  C_54
   13  A    between atoms: C_14  and  N_15
   14  A    between atoms: N_15  and  C_31
   15  A    between atoms: N_17  and  C_20
   16  A    between atoms: N_17  and  C_39
   17  A    between atoms: C_18  and  C_40
   18  A    between atoms: O_19  and  C_39
   19  A    between atoms: C_20  and  C_55
   20  A    between atoms: C_21  and  C_37
   21  A    between atoms: C_21  and  C_42
   22  A    between atoms: C_27  and  C_54
   23  A    between atoms: C_27  and  C_68
   24  A    between atoms: C_29  and  O_57
   25  A    between atoms: C_30  and  C_41
   26  A    between atoms: C_31  and  C_40
   27  A    between atoms: C_34  and  C_68
   28  A    between atoms: N_38  and  C_54
   29  A    between atoms: C_43  and  C_56
   30  A    between atoms: C_56  and  C_69
   31  A    between atoms: O_57  and  C_69
                            x       y       z     vdW  Elec       q    Type
                         _______ _______ _______ _____ _____    ______ ____

>  <TORSDO>
F 31

$$$$
=
 OpenBabel11042415083D

 69 73  0  0  1  0  0  0  0  0999 V2000
  190.3920  171.4600  139.4130 C   0  0  0  0  0  0  0  0  0  0  0  0
  189.8190  171.6710  138.1440 C   0  0  0  0  0  3  0  0  0  0  0  0
  192.3390  170.4750  138.3260 C   0  0  0  0  0  3  0  0  0  0  0  0
  191.6640  170.8620  139.4970 C   0  0  0  0  0  3  0  0  0  0  0  0
  191.7650  170.6710  137.0780 C   0  0  0  0  0  0  0  0  0  0  0  0
  190.4950  171.2710  136.9880 C   0  0  0  0  0  0  0  0  0  0  0  0
  189.8490  171.5680  135.6550 C   0  0  0  0  0  1  0  0  0  0  0  0
  189.4690  173.4190  140.4470 O   0  0  0  0  0  1  0  0  0  0  0  0
  189.7940  172.0750  140.6660 C   0  0  2  0  0  3  0  0  0  0  0  0
  190.0490  171.5830  143.0430 C   0  0  0  0  0  2  0  0  0  0  0  0
  190.6330  171.9350  141.9090 C   0  0  0  0  0  0  0  0  0  0  0  0
  191.8600  172.6710  142.0110 N   0  0  0  0  0  2  0  0  0  0  0  0
  190.5300  175.6660  143.5770 N   0  0  0  0  0  0  0  0  0  0  0  0
  191.9050  173.9100  142.8110 C   0  0  1  0  0  3  0  0  0  0  0  0
  191.5190  176.2440  142.6490 C   0  0  0  0  0  2  0  0  0  0  0  0
  192.1620  175.0980  141.9080 C   0  0  0  0  0  2  0  0  0  0  0  0
  190.5700  174.2180  143.4350 C   0  0  0  0  0  2  0  0  0  0  0  0
  189.1610  176.1040  143.2690 C   0  0  2  0  0  3  0  0  0  0  0  0
  189.0820  177.5080  143.0840 O   0  0  0  0  0  0  0  0  0  0  0  0
  188.5950  177.7700  141.7810 C   0  0  0  0  0  2  0  0  0  0  0  0
  187.3710  176.4740  140.0480 C   0  0  0  0  0  1  0  0  0  0  0  0
  187.3650  176.9070  141.4970 C   0  0  2  0  0  3  0  0  0  0  0  0
  186.4050  179.0030  142.4610 C   0  0  0  0  0  1  0  0  0  0  0  0
  186.0690  177.6610  141.8220 C   0  0  0  0  0  2  0  0  0  0  0  0
  188.1960  175.5360  144.3260 C   0  0  0  0  0  2  0  0  0  0  0  0
  188.2710  176.4720  146.5590 C   0  0  0  0  0  0  0  0  0  0  0  0
  189.0320  175.2950  147.0750 C   0  0  0  0  0  1  0  0  0  0  0  0
  187.9030  176.5610  145.3160 N   0  0  0  0  0  0  0  0  0  0  0  0
  187.9440  177.5920  147.4910 C   0  0  0  0  0  2  0  0  0  0  0  0
  186.5920  178.0630  147.2400 N   0  0  0  0  0  0  0  0  0  0  0  0
  184.3020  177.2710  146.7180 C   0  0  0  0  0  2  0  0  0  0  0  0
  185.2470  179.2750  145.5130 C   0  0  0  0  0  2  0  0  0  0  0  0
  186.6510  178.8750  146.0290 C   0  0  0  0  0  2  0  0  0  0  0  0
  185.7620  176.8740  146.9960 C   0  0  0  0  0  2  0  0  0  0  0  0
  184.1380  178.7720  146.4490 C   0  0  0  0  0  2  0  0  0  0  0  0
  191.7300  169.9360  134.7840 O   0  0  0  0  0  1  0  0  0  0  0  0
  192.5500  170.3630  135.8240 C   0  0  2  0  0  3  0  0  0  0  0  0
  193.6620  168.5330  136.8330 O   0  0  0  0  0  0  0  0  0  0  0  0
  193.7310  169.4590  136.0360 C   0  0  0  0  0  0  0  0  0  0  0  0
  195.0710  169.8980  135.5540 C   0  0  0  0  0  2  0  0  0  0  0  0
  195.5410  171.0740  136.4050 C   0  0  0  0  0  3  0  0  0  0  0  0
  195.7820  170.7690  137.8850 C   0  0  0  0  0  3  0  0  0  0  0  0
  196.2250  171.9000  138.8220 C   0  0  2  0  0  0  0  0  0  0  0  0
  195.0570  172.4510  139.6250 C   0  0  0  0  0  1  0  0  0  0  0  0
  196.7870  172.9210  138.0300 O   0  0  0  0  0  1  0  0  0  0  0  0
  197.2120  171.3320  139.7720 N   0  0  0  0  0  2  0  0  0  0  0  0
  196.8150  171.4710  141.1820 C   0  0  1  0  0  3  0  0  0  0  0  0
  197.1910  170.3070  141.8940 O   0  0  0  0  0  0  0  0  0  0  0  0
  196.0440  169.7300  142.4960 C   0  0  1  0  0  3  0  0  0  0  0  0
  195.9300  170.0660  144.0050 C   0  0  0  0  0  2  0  0  0  0  0  0
  194.7600  170.0020  141.6720 C   0  0  0  0  0  2  0  0  0  0  0  0
  194.5380  170.8130  145.7460 C   0  0  0  0  0  1  0  0  0  0  0  0
  194.6100  170.6200  144.3110 N   0  0  0  0  0  0  0  0  0  0  0  0
  193.6370  169.6120  143.9290 C   0  0  0  0  0  2  0  0  0  0  0  0
  193.4910  169.5410  142.4060 C   0  0  0  0  0  2  0  0  0  0  0  0
  197.5410  172.6800  141.7750 C   0  0  0  0  0  2  0  0  0  0  0  0
  195.3600  173.2370  142.6730 O   0  0  0  0  0  1  0  0  0  0  0  0
  196.7470  173.3050  142.9500 C   0  0  2  0  0  3  0  0  0  0  0  0
  197.1760  174.6350  143.1910 O   0  0  0  0  0  0  0  0  0  0  0  0
  196.0600  175.4890  143.1220 C   0  0  2  0  0  3  0  0  0  0  0  0
  195.1920  176.5040  141.1500 C   0  0  0  0  0  2  0  0  0  0  0  0
  196.3270  176.5330  142.1060 N   0  0  0  0  0  0  0  0  0  0  0  0
  196.4490  175.8450  140.8090 C   0  0  0  0  0  2  0  0  0  0  0  0
  195.7240  176.1190  144.4850 C   0  0  0  0  0  2  0  0  0  0  0  0
  194.2740  174.2610  144.8720 O   0  0  0  0  0  0  0  0  0  0  0  0
  194.6610  175.3600  145.2340 C   0  0  0  0  0  0  0  0  0  0  0  0
  192.6910  175.9720  146.3810 O   0  0  0  0  0  1  0  0  0  0  0  0
  194.0890  176.0030  146.4580 C   0  0  2  0  0  3  0  0  0  0  0  0
  194.5570  177.3800  146.5780 N   0  0  0  0  0  1  0  0  0  0  0  0
  1  4  1  0  0  0  0
  1  9  1  0  0  0  0
  2  1  2  0  0  0  0
  3  4  2  0  0  0  0
  5  3  1  0  0  0  0
  6  5  2  0  0  0  0
  6  2  1  0  0  0  0
  7  6  1  0  0  0  0
  9  8  1  6  0  0  0
  9 11  1  0  0  0  0
 11 12  1  0  0  0  0
 11 10  2  0  0  0  0
 14 12  1  6  0  0  0
 14 17  1  0  0  0  0
 15 13  1  0  0  0  0
 16 15  1  0  0  0  0
 16 14  1  0  0  0  0
 17 13  1  0  0  0  0
 18 13  1  0  0  0  0
 18 25  1  1  0  0  0
 19 18  1  0  0  0  0
 20 19  1  0  0  0  0
 22 21  1  6  0  0  0
 22 20  1  0  0  0  0
 22 24  1  0  0  0  0
 24 23  1  0  0  0  0
 25 28  1  0  0  0  0
 26 27  1  0  0  0  0
 26 29  1  0  0  0  0
 28 26  2  0  0  0  0
 30 29  1  0  0  0  0
 31 34  1  0  0  0  0
 32 33  1  0  0  0  0
 32 35  1  0  0  0  0
 33 30  1  0  0  0  0
 34 30  1  0  0  0  0
 35 31  1  0  0  0  0
 37 36  1  6  0  0  0
 37 39  1  0  0  0  0
 37  5  1  0  0  0  0
 39 38  2  0  0  0  0
 40 39  1  0  0  0  0
 40 41  1  0  0  0  0
 41 42  2  0  0  0  0
 42 43  1  0  0  0  0
 43 44  1  1  0  0  0
 43 46  1  0  0  0  0
 45 43  1  0  0  0  0
 46 47  1  0  0  0  0
 47 56  1  1  0  0  0
 47 48  1  0  0  0  0
 49 48  1  6  0  0  0
 49 50  1  0  0  0  0
 50 53  1  0  0  0  0
 51 55  1  0  0  0  0
 51 49  1  0  0  0  0
 53 52  1  0  0  0  0
 54 53  1  0  0  0  0
 55 54  1  0  0  0  0
 56 58  1  0  0  0  0
 58 57  1  6  0  0  0
 58 59  1  0  0  0  0
 60 59  1  0  0  0  0
 60 64  1  1  0  0  0
 61 62  1  0  0  0  0
 62 60  1  0  0  0  0
 63 61  1  0  0  0  0
 63 62  1  0  0  0  0
 64 66  1  0  0  0  0
 65 66  2  0  0  0  0
 66 68  1  0  0  0  0
 68 67  1  6  0  0  0
 68 69  1  0  0  0  0
M  END
>  <MODEL>
3

>  <REMARK>
 VINA RESULT:      -3.6      1.578      2.188
  Name = 
  31 active torsions:
  status: ('A' for Active; 'I' for Inactive)
    1  A    between atoms: C_2  and  C_11
    2  A    between atoms: C_2  and  C_42
    3  A    between atoms: N_3  and  C_30
    4  A    between atoms: C_5  and  C_39
    5  A    between atoms: C_5  and  C_48
    6  A    between atoms: C_6  and  C_29
    7  A    between atoms: C_6  and  N_60
    8  A    between atoms: C_7  and  O_19
    9  A    between atoms: N_9  and  C_29
   10  A    between atoms: C_11  and  C_55
   11  A    between atoms: O_12  and  C_48
   12  A    between atoms: O_12  and  C_54
   13  A    between atoms: C_14  and  N_15
   14  A    between atoms: N_15  and  C_31
   15  A    between atoms: N_17  and  C_20
   16  A    between atoms: N_17  and  C_39
   17  A    between atoms: C_18  and  C_40
   18  A    between atoms: O_19  and  C_39
   19  A    between atoms: C_20  and  C_55
   20  A    between atoms: C_21  and  C_37
   21  A    between atoms: C_21  and  C_42
   22  A    between atoms: C_27  and  C_54
   23  A    between atoms: C_27  and  C_68
   24  A    between atoms: C_29  and  O_57
   25  A    between atoms: C_30  and  C_41
   26  A    between atoms: C_31  and  C_40
   27  A    between atoms: C_34  and  C_68
   28  A    between atoms: N_38  and  C_54
   29  A    between atoms: C_43  and  C_56
   30  A    between atoms: C_56  and  C_69
   31  A    between atoms: O_57  and  C_69
                            x       y       z     vdW  Elec       q    Type
                         _______ _______ _______ _____ _____    ______ ____

>  <TORSDO>
F 31

$$$$
=
 OpenBabel11042415083D

 69 73  0  0  1  0  0  0  0  0999 V2000
  187.5620  175.4540  139.8400 C   0  0  0  0  0  0  0  0  0  0  0  0
  187.1440  176.1340  138.6790 C   0  0  0  0  0  3  0  0  0  0  0  0
  188.9030  173.9740  138.4420 C   0  0  0  0  0  3  0  0  0  0  0  0
  188.4520  174.3710  139.7130 C   0  0  0  0  0  3  0  0  0  0  0  0
  188.4770  174.6370  137.2990 C   0  0  0  0  0  0  0  0  0  0  0  0
  187.5900  175.7230  137.4200 C   0  0  0  0  0  0  0  0  0  0  0  0
  187.1440  176.5220  136.2190 C   0  0  0  0  0  1  0  0  0  0  0  0
  186.9780  174.9650  142.1160 O   0  0  0  0  0  1  0  0  0  0  0  0
  187.2780  176.0040  141.2260 C   0  0  2  0  0  3  0  0  0  0  0  0
  186.1790  177.9980  140.3460 C   0  0  0  0  0  2  0  0  0  0  0  0
  186.2130  177.0680  141.2860 C   0  0  0  0  0  0  0  0  0  0  0  0
  185.6290  177.4020  142.5520 N   0  0  0  0  0  2  0  0  0  0  0  0
  188.7230  177.8560  144.4010 N   0  0  0  0  0  0  0  0  0  0  0  0
  186.4880  177.8940  143.6470 C   0  0  1  0  0  3  0  0  0  0  0  0
  187.9050  177.1270  145.3870 C   0  0  0  0  0  2  0  0  0  0  0  0
  186.5660  176.8560  144.7470 C   0  0  0  0  0  2  0  0  0  0  0  0
  187.9180  178.0500  143.2030 C   0  0  0  0  0  2  0  0  0  0  0  0
  189.9230  177.1020  144.0110 C   0  0  2  0  0  3  0  0  0  0  0  0
  189.7070  175.7000  144.0590 O   0  0  0  0  0  0  0  0  0  0  0  0
  190.3240  175.1050  142.9340 C   0  0  0  0  0  2  0  0  0  0  0  0
  189.6520  172.7500  142.5070 C   0  0  0  0  0  1  0  0  0  0  0  0
  190.6430  173.6380  143.2250 C   0  0  2  0  0  3  0  0  0  0  0  0
  189.6810  172.1850  145.0150 C   0  0  0  0  0  1  0  0  0  0  0  0
  190.6190  173.3520  144.7310 C   0  0  0  0  0  2  0  0  0  0  0  0
  191.1250  177.5980  144.8340 C   0  0  0  0  0  2  0  0  0  0  0  0
  193.0060  176.1680  145.3660 C   0  0  0  0  0  0  0  0  0  0  0  0
  192.6530  176.1670  146.8180 C   0  0  0  0  0  1  0  0  0  0  0  0
  192.3050  176.8200  144.4880 N   0  0  0  0  0  0  0  0  0  0  0  0
  194.1860  175.3760  144.9040 C   0  0  0  0  0  2  0  0  0  0  0  0
  194.6870  175.9220  143.6530 N   0  0  0  0  0  0  0  0  0  0  0  0
  195.1930  175.3090  141.3050 C   0  0  0  0  0  2  0  0  0  0  0  0
  196.8010  176.7520  142.6050 C   0  0  0  0  0  2  0  0  0  0  0  0
  196.0610  176.3420  143.9020 C   0  0  0  0  0  2  0  0  0  0  0  0
  194.6750  174.8260  142.6730 C   0  0  0  0  0  2  0  0  0  0  0  0
  195.8750  176.6800  141.3810 C   0  0  0  0  0  2  0  0  0  0  0  0
  188.1230  174.3810  134.9310 O   0  0  0  0  0  1  0  0  0  0  0  0
  189.0620  174.2800  135.9520 C   0  0  2  0  0  3  0  0  0  0  0  0
  189.2540  171.9590  135.5280 O   0  0  0  0  0  0  0  0  0  0  0  0
  189.8080  172.9760  135.9240 C   0  0  0  0  0  0  0  0  0  0  0  0
  191.0750  172.8540  136.6980 C   0  0  0  0  0  2  0  0  0  0  0  0
  191.2390  171.4070  137.1530 C   0  0  0  0  0  3  0  0  0  0  0  0
  191.7710  171.2120  138.5750 C   0  0  0  0  0  3  0  0  0  0  0  0
  192.0080  169.7910  139.1000 C   0  0  2  0  0  0  0  0  0  0  0  0
  192.1980  168.7990  137.9640 C   0  0  0  0  0  1  0  0  0  0  0  0
  190.8880  169.4250  139.8730 O   0  0  0  0  0  1  0  0  0  0  0  0
  193.2520  169.8140  139.9070 N   0  0  0  0  0  2  0  0  0  0  0  0
  194.0720  171.0140  139.6840 C   0  0  1  0  0  3  0  0  0  0  0  0
  194.1910  171.7350  140.8960 O   0  0  0  0  0  0  0  0  0  0  0  0
  194.1600  170.8320  141.9890 C   0  0  1  0  0  3  0  0  0  0  0  0
  195.4530  170.8810  142.8410 C   0  0  0  0  0  2  0  0  0  0  0  0
  192.8450  170.9510  142.7990 C   0  0  0  0  0  2  0  0  0  0  0  0
  196.3740  171.0100  145.0000 C   0  0  0  0  0  1  0  0  0  0  0  0
  195.1320  171.0770  144.2560 N   0  0  0  0  0  0  0  0  0  0  0  0
  194.2940  169.9590  144.6500 C   0  0  0  0  0  2  0  0  0  0  0  0
  192.8780  170.1100  144.0860 C   0  0  0  0  0  2  0  0  0  0  0  0
  195.4630  170.5740  139.2210 C   0  0  0  0  0  2  0  0  0  0  0  0
  196.7920  172.5080  138.6160 O   0  0  0  0  0  1  0  0  0  0  0  0
  195.9950  171.4710  138.0740 C   0  0  2  0  0  3  0  0  0  0  0  0
  194.9210  171.9770  137.2970 O   0  0  0  0  0  0  0  0  0  0  0  0
  195.3980  173.0370  136.5040 C   0  0  2  0  0  3  0  0  0  0  0  0
  195.0750  175.3170  135.8960 C   0  0  0  0  0  2  0  0  0  0  0  0
  194.4810  174.1900  136.6580 N   0  0  0  0  0  0  0  0  0  0  0  0
  195.2420  175.2490  137.3450 C   0  0  0  0  0  2  0  0  0  0  0  0
  195.5390  172.6380  135.0240 C   0  0  0  0  0  2  0  0  0  0  0  0
  193.5420  171.4300  134.5160 O   0  0  0  0  0  0  0  0  0  0  0  0
  194.7510  171.4030  134.6740 C   0  0  0  0  0  0  0  0  0  0  0  0
  195.0440  169.1960  135.4560 O   0  0  0  0  0  1  0  0  0  0  0  0
  195.5120  170.1240  134.5170 C   0  0  2  0  0  3  0  0  0  0  0  0
  196.9410  170.3520  134.7020 N   0  0  0  0  0  1  0  0  0  0  0  0
  1  9  1  0  0  0  0
  2  1  2  0  0  0  0
  3  4  2  0  0  0  0
  4  1  1  0  0  0  0
  5  6  2  0  0  0  0
  5  3  1  0  0  0  0
  6  2  1  0  0  0  0
  7  6  1  0  0  0  0
  9 11  1  0  0  0  0
  9  8  1  1  0  0  0
 10 11  2  0  0  0  0
 11 12  1  0  0  0  0
 13 15  1  0  0  0  0
 14 12  1  6  0  0  0
 14 16  1  0  0  0  0
 16 15  1  0  0  0  0
 17 14  1  0  0  0  0
 17 13  1  0  0  0  0
 18 19  1  0  0  0  0
 18 13  1  0  0  0  0
 18 25  1  1  0  0  0
 20 22  1  0  0  0  0
 20 19  1  0  0  0  0
 22 21  1  6  0  0  0
 22 24  1  0  0  0  0
 24 23  1  0  0  0  0
 26 27  1  0  0  0  0
 28 25  1  0  0  0  0
 28 26  2  0  0  0  0
 29 26  1  0  0  0  0
 30 33  1  0  0  0  0
 30 29  1  0  0  0  0
 31 35  1  0  0  0  0
 31 34  1  0  0  0  0
 32 33  1  0  0  0  0
 34 30  1  0  0  0  0
 35 32  1  0  0  0  0
 37 36  1  6  0  0  0
 37  5  1  0  0  0  0
 38 39  2  0  0  0  0
 39 37  1  0  0  0  0
 39 40  1  0  0  0  0
 40 41  1  0  0  0  0
 41 42  2  0  0  0  0
 42 43  1  0  0  0  0
 43 44  1  6  0  0  0
 43 45  1  0  0  0  0
 43 46  1  0  0  0  0
 47 56  1  1  0  0  0
 47 46  1  0  0  0  0
 47 48  1  0  0  0  0
 49 48  1  6  0  0  0
 49 51  1  0  0  0  0
 49 50  1  0  0  0  0
 50 53  1  0  0  0  0
 51 55  1  0  0  0  0
 53 54  1  0  0  0  0
 53 52  1  0  0  0  0
 55 54  1  0  0  0  0
 58 57  1  1  0  0  0
 58 56  1  0  0  0  0
 59 58  1  0  0  0  0
 60 64  1  6  0  0  0
 60 62  1  0  0  0  0
 60 59  1  0  0  0  0
 61 62  1  0  0  0  0
 61 63  1  0  0  0  0
 62 63  1  0  0  0  0
 65 66  2  0  0  0  0
 66 64  1  0  0  0  0
 68 66  1  0  0  0  0
 68 69  1  1  0  0  0
 68 67  1  0  0  0  0
M  END
>  <MODEL>
4

>  <REMARK>
 VINA RESULT:      -3.6      2.326      6.220
  Name = 
  31 active torsions:
  status: ('A' for Active; 'I' for Inactive)
    1  A    between atoms: C_2  and  C_11
    2  A    between atoms: C_2  and  C_42
    3  A    between atoms: N_3  and  C_30
    4  A    between atoms: C_5  and  C_39
    5  A    between atoms: C_5  and  C_48
    6  A    between atoms: C_6  and  C_29
    7  A    between atoms: C_6  and  N_60
    8  A    between atoms: C_7  and  O_19
    9  A    between atoms: N_9  and  C_29
   10  A    between atoms: C_11  and  C_55
   11  A    between atoms: O_12  and  C_48
   12  A    between atoms: O_12  and  C_54
   13  A    between atoms: C_14  and  N_15
   14  A    between atoms: N_15  and  C_31
   15  A    between atoms: N_17  and  C_20
   16  A    between atoms: N_17  and  C_39
   17  A    between atoms: C_18  and  C_40
   18  A    between atoms: O_19  and  C_39
   19  A    between atoms: C_20  and  C_55
   20  A    between atoms: C_21  and  C_37
   21  A    between atoms: C_21  and  C_42
   22  A    between atoms: C_27  and  C_54
   23  A    between atoms: C_27  and  C_68
   24  A    between atoms: C_29  and  O_57
   25  A    between atoms: C_30  and  C_41
   26  A    between atoms: C_31  and  C_40
   27  A    between atoms: C_34  and  C_68
   28  A    between atoms: N_38  and  C_54
   29  A    between atoms: C_43  and  C_56
   30  A    between atoms: C_56  and  C_69
   31  A    between atoms: O_57  and  C_69
                            x       y       z     vdW  Elec       q    Type
                         _______ _______ _______ _____ _____    ______ ____

>  <TORSDO>
F 31

$$$$
=
 OpenBabel11042415083D

 69 73  0  0  1  0  0  0  0  0999 V2000
  189.7130  173.3430  139.1950 C   0  0  0  0  0  0  0  0  0  0  0  0
  189.1950  173.5630  137.9030 C   0  0  0  0  0  3  0  0  0  0  0  0
  191.6670  172.2880  138.1910 C   0  0  0  0  0  3  0  0  0  0  0  0
  190.9610  172.7060  139.3310 C   0  0  0  0  0  3  0  0  0  0  0  0
  191.1480  172.4920  136.9200 C   0  0  0  0  0  0  0  0  0  0  0  0
  189.9020  173.1330  136.7770 C   0  0  0  0  0  0  0  0  0  0  0  0
  189.3180  173.4400  135.4180 C   0  0  0  0  0  1  0  0  0  0  0  0
  188.4250  175.1700  140.0700 O   0  0  0  0  0  1  0  0  0  0  0  0
  189.0870  173.9870  140.4190 C   0  0  2  0  0  3  0  0  0  0  0  0
  191.1400  174.9300  141.3440 C   0  0  0  0  0  2  0  0  0  0  0  0
  190.0340  174.2370  141.5640 C   0  0  0  0  0  0  0  0  0  0  0  0
  190.0450  173.3290  142.6730 N   0  0  0  0  0  2  0  0  0  0  0  0
  188.8900  175.2750  145.5150 N   0  0  0  0  0  0  0  0  0  0  0  0
  189.2280  173.6220  143.8660 C   0  0  1  0  0  3  0  0  0  0  0  0
  189.4190  174.0740  146.1870 C   0  0  0  0  0  2  0  0  0  0  0  0
  189.9510  173.1570  145.1140 C   0  0  0  0  0  2  0  0  0  0  0  0
  189.0670  175.1040  144.0800 C   0  0  0  0  0  2  0  0  0  0  0  0
  189.6140  176.4930  145.9070 C   0  0  2  0  0  3  0  0  0  0  0  0
  190.9570  176.2170  146.2730 O   0  0  0  0  0  0  0  0  0  0  0  0
  191.7390  176.1170  145.0980 C   0  0  0  0  0  2  0  0  0  0  0  0
  193.8060  176.8980  143.9590 C   0  0  0  0  0  1  0  0  0  0  0  0
  193.0270  176.9260  145.2550 C   0  0  2  0  0  3  0  0  0  0  0  0
  194.1060  174.8910  146.2200 C   0  0  0  0  0  1  0  0  0  0  0  0
  193.8870  176.3870  146.4040 C   0  0  0  0  0  2  0  0  0  0  0  0
  188.7970  177.2500  146.9700 C   0  0  0  0  0  2  0  0  0  0  0  0
  186.6470  178.0260  146.1710 C   0  0  0  0  0  0  0  0  0  0  0  0
  185.9660  176.7930  146.6690 C   0  0  0  0  0  1  0  0  0  0  0  0
  187.9240  178.2130  146.3170 N   0  0  0  0  0  0  0  0  0  0  0  0
  185.8330  179.0900  145.5080 C   0  0  0  0  0  2  0  0  0  0  0  0
  185.8150  178.8720  144.0710 N   0  0  0  0  0  0  0  0  0  0  0  0
  184.3410  178.1530  142.2120 C   0  0  0  0  0  2  0  0  0  0  0  0
  186.7180  177.3190  142.3300 C   0  0  0  0  0  2  0  0  0  0  0  0
  186.7770  177.8100  143.7980 C   0  0  0  0  0  2  0  0  0  0  0  0
  184.4620  178.4130  143.7250 C   0  0  0  0  0  2  0  0  0  0  0  0
  185.7020  178.1240  141.5060 C   0  0  0  0  0  2  0  0  0  0  0  0
  191.7960  173.0750  134.6750 O   0  0  0  0  0  1  0  0  0  0  0  0
  191.9700  172.1500  135.6990 C   0  0  2  0  0  3  0  0  0  0  0  0
  190.8770  170.4160  134.5150 O   0  0  0  0  0  0  0  0  0  0  0  0
  191.8210  170.7310  135.2270 C   0  0  0  0  0  0  0  0  0  0  0  0
  192.6030  169.6600  135.9060 C   0  0  0  0  0  2  0  0  0  0  0  0
  193.9110  169.4480  135.1500 C   0  0  0  0  0  2  0  0  0  0  0  0
  195.1910  169.6520  135.9630 C   0  0  0  0  0  2  0  0  0  0  0  0
  195.9060  171.0080  135.9120 C   0  0  2  0  0  0  0  0  0  0  0  0
  195.6570  171.7220  134.5940 C   0  0  0  0  0  1  0  0  0  0  0  0
  197.2860  170.7740  136.0780 O   0  0  0  0  0  1  0  0  0  0  0  0
  195.3530  171.8450  137.0030 N   0  0  0  0  0  2  0  0  0  0  0  0
  195.9820  173.1710  137.1010 C   0  0  1  0  0  3  0  0  0  0  0  0
  194.9790  174.1690  137.1140 O   0  0  0  0  0  0  0  0  0  0  0  0
  195.1510  175.0280  135.9990 C   0  0  1  0  0  3  0  0  0  0  0  0
  193.8890  175.8760  135.6980 C   0  0  0  0  0  2  0  0  0  0  0  0
  196.4690  175.8380  136.0920 C   0  0  0  0  0  2  0  0  0  0  0  0
  193.0300  178.0130  135.2260 C   0  0  0  0  0  1  0  0  0  0  0  0
  194.2300  177.2960  135.6090 N   0  0  0  0  0  0  0  0  0  0  0  0
  195.2060  177.4220  134.5410 C   0  0  0  0  0  2  0  0  0  0  0  0
  196.5760  176.9010  134.9860 C   0  0  0  0  0  2  0  0  0  0  0  0
  196.7760  173.2370  138.4070 C   0  0  0  0  0  2  0  0  0  0  0  0
  197.1920  170.9580  139.1170 O   0  0  0  0  0  1  0  0  0  0  0  0
  196.3840  172.0910  139.3740 C   0  0  2  0  0  3  0  0  0  0  0  0
  195.0010  171.7950  139.2610 O   0  0  0  0  0  0  0  0  0  0  0  0
  194.5520  171.2630  140.4830 C   0  0  2  0  0  3  0  0  0  0  0  0
  193.9850  168.9620  140.7220 C   0  0  0  0  0  2  0  0  0  0  0  0
  193.4950  170.2630  140.2030 N   0  0  0  0  0  0  0  0  0  0  0  0
  194.0860  169.2630  139.2970 C   0  0  0  0  0  2  0  0  0  0  0  0
  194.0390  172.3540  141.4400 C   0  0  0  0  0  2  0  0  0  0  0  0
  193.5820  172.1000  143.7700 O   0  0  0  0  0  0  0  0  0  0  0  0
  194.4120  172.0970  142.8760 C   0  0  0  0  0  0  0  0  0  0  0  0
  195.9720  171.3890  144.4990 O   0  0  0  0  0  1  0  0  0  0  0  0
  195.8530  171.8270  143.1740 C   0  0  2  0  0  3  0  0  0  0  0  0
  196.6530  173.0290  142.9670 N   0  0  0  0  0  1  0  0  0  0  0  0
  1  4  1  0  0  0  0
  1  9  1  0  0  0  0
  2  1  2  0  0  0  0
  3  4  2  0  0  0  0
  5  3  1  0  0  0  0
  6  5  2  0  0  0  0
  6  2  1  0  0  0  0
  7  6  1  0  0  0  0
  9  8  1  6  0  0  0
  9 11  1  0  0  0  0
 10 11  2  0  0  0  0
 11 12  1  0  0  0  0
 13 18  1  0  0  0  0
 13 15  1  0  0  0  0
 14 12  1  6  0  0  0
 14 17  1  0  0  0  0
 14 16  1  0  0  0  0
 16 15  1  0  0  0  0
 17 13  1  0  0  0  0
 18 19  1  0  0  0  0
 18 25  1  1  0  0  0
 20 22  1  0  0  0  0
 20 19  1  0  0  0  0
 22 21  1  6  0  0  0
 22 24  1  0  0  0  0
 23 24  1  0  0  0  0
 26 28  2  0  0  0  0
 26 27  1  0  0  0  0
 28 25  1  0  0  0  0
 29 26  1  0  0  0  0
 30 29  1  0  0  0  0
 31 34  1  0  0  0  0
 32 33  1  0  0  0  0
 33 30  1  0  0  0  0
 34 30  1  0  0  0  0
 35 31  1  0  0  0  0
 35 32  1  0  0  0  0
 37 36  1  6  0  0  0
 37  5  1  0  0  0  0
 38 39  2  0  0  0  0
 39 37  1  0  0  0  0
 39 40  1  0  0  0  0
 41 40  1  0  0  0  0
 41 42  1  0  0  0  0
 43 44  1  6  0  0  0
 43 42  1  0  0  0  0
 43 45  1  0  0  0  0
 43 46  1  0  0  0  0
 46 47  1  0  0  0  0
 47 48  1  0  0  0  0
 47 56  1  1  0  0  0
 49 51  1  0  0  0  0
 49 48  1  1  0  0  0
 50 49  1  0  0  0  0
 52 53  1  0  0  0  0
 53 50  1  0  0  0  0
 54 55  1  0  0  0  0
 54 53  1  0  0  0  0
 55 51  1  0  0  0  0
 56 58  1  0  0  0  0
 58 57  1  6  0  0  0
 59 58  1  0  0  0  0
 59 60  1  0  0  0  0
 60 64  1  1  0  0  0
 62 60  1  0  0  0  0
 62 61  1  0  0  0  0
 63 62  1  0  0  0  0
 63 61  1  0  0  0  0
 64 66  1  0  0  0  0
 66 68  1  0  0  0  0
 66 65  2  0  0  0  0
 68 69  1  1  0  0  0
 68 67  1  0  0  0  0
M  END
>  <MODEL>
5

>  <REMARK>
 VINA RESULT:      -3.4      2.389      4.897
  Name = 
  31 active torsions:
  status: ('A' for Active; 'I' for Inactive)
    1  A    between atoms: C_2  and  C_11
    2  A    between atoms: C_2  and  C_42
    3  A    between atoms: N_3  and  C_30
    4  A    between atoms: C_5  and  C_39
    5  A    between atoms: C_5  and  C_48
    6  A    between atoms: C_6  and  C_29
    7  A    between atoms: C_6  and  N_60
    8  A    between atoms: C_7  and  O_19
    9  A    between atoms: N_9  and  C_29
   10  A    between atoms: C_11  and  C_55
   11  A    between atoms: O_12  and  C_48
   12  A    between atoms: O_12  and  C_54
   13  A    between atoms: C_14  and  N_15
   14  A    between atoms: N_15  and  C_31
   15  A    between atoms: N_17  and  C_20
   16  A    between atoms: N_17  and  C_39
   17  A    between atoms: C_18  and  C_40
   18  A    between atoms: O_19  and  C_39
   19  A    between atoms: C_20  and  C_55
   20  A    between atoms: C_21  and  C_37
   21  A    between atoms: C_21  and  C_42
   22  A    between atoms: C_27  and  C_54
   23  A    between atoms: C_27  and  C_68
   24  A    between atoms: C_29  and  O_57
   25  A    between atoms: C_30  and  C_41
   26  A    between atoms: C_31  and  C_40
   27  A    between atoms: C_34  and  C_68
   28  A    between atoms: N_38  and  C_54
   29  A    between atoms: C_43  and  C_56
   30  A    between atoms: C_56  and  C_69
   31  A    between atoms: O_57  and  C_69
                            x       y       z     vdW  Elec       q    Type
                         _______ _______ _______ _____ _____    ______ ____

>  <TORSDO>
F 31

$$$$
=
 OpenBabel11042415083D

 69 73  0  0  1  0  0  0  0  0999 V2000
  188.5290  174.4250  140.6310 C   0  0  0  0  0  0  0  0  0  0  0  0
  187.9510  175.6700  140.3130 C   0  0  0  0  0  3  0  0  0  0  0  0
  187.5980  174.6080  142.8760 C   0  0  0  0  0  3  0  0  0  0  0  0
  188.3430  173.8950  141.9210 C   0  0  0  0  0  3  0  0  0  0  0  0
  187.0420  175.8420  142.5650 C   0  0  0  0  0  0  0  0  0  0  0  0
  187.2220  176.3760  141.2750 C   0  0  0  0  0  0  0  0  0  0  0  0
  186.5870  177.6810  140.8590 C   0  0  0  0  0  1  0  0  0  0  0  0
  188.1480  172.7290  138.9760 O   0  0  0  0  0  1  0  0  0  0  0  0
  189.1330  173.5350  139.5590 C   0  0  2  0  0  3  0  0  0  0  0  0
  191.5280  173.1110  139.7570 C   0  0  0  0  0  2  0  0  0  0  0  0
  190.2980  172.6930  140.0090 C   0  0  0  0  0  0  0  0  0  0  0  0
  190.1140  171.2830  140.1890 N   0  0  0  0  0  2  0  0  0  0  0  0
  192.1450  170.2520  137.3580 N   0  0  0  0  0  0  0  0  0  0  0  0
  190.6730  170.3410  139.2000 C   0  0  1  0  0  3  0  0  0  0  0  0
  190.7890  169.9490  136.8630 C   0  0  0  0  0  2  0  0  0  0  0  0
  189.8170  170.3380  137.9500 C   0  0  0  0  0  2  0  0  0  0  0  0
  192.0230  170.7890  138.7060 C   0  0  0  0  0  2  0  0  0  0  0  0
  192.8190  171.2680  136.5360 C   0  0  2  0  0  3  0  0  0  0  0  0
  193.3020  172.3480  137.3190 O   0  0  0  0  0  0  0  0  0  0  0  0
  194.6930  172.4860  137.0970 C   0  0  0  0  0  2  0  0  0  0  0  0
  195.1100  174.9180  137.3970 C   0  0  0  0  0  1  0  0  0  0  0  0
  195.2700  173.5530  138.0280 C   0  0  2  0  0  3  0  0  0  0  0  0
  197.2030  174.1820  139.4800 C   0  0  0  0  0  1  0  0  0  0  0  0
  196.7460  173.2810  138.3400 C   0  0  0  0  0  2  0  0  0  0  0  0
  191.8960  171.6760  135.3730 C   0  0  0  0  0  2  0  0  0  0  0  0
  190.4180  173.5950  135.3550 C   0  0  0  0  0  0  0  0  0  0  0  0
  189.2200  172.7270  135.1480 C   0  0  0  0  0  1  0  0  0  0  0  0
  191.6150  173.1010  135.4530 N   0  0  0  0  0  0  0  0  0  0  0  0
  190.2330  175.0720  135.4770 C   0  0  0  0  0  2  0  0  0  0  0  0
  188.8310  175.4100  135.3020 N   0  0  0  0  0  0  0  0  0  0  0  0
  187.3290  177.2180  134.5130 C   0  0  0  0  0  2  0  0  0  0  0  0
  186.7860  175.9630  136.6320 C   0  0  0  0  0  2  0  0  0  0  0  0
  188.2330  175.4130  136.6320 C   0  0  0  0  0  2  0  0  0  0  0  0
  188.7840  176.7670  134.7370 C   0  0  0  0  0  2  0  0  0  0  0  0
  186.3130  176.3060  135.2110 C   0  0  0  0  0  2  0  0  0  0  0  0
  185.0140  177.0830  142.9510 O   0  0  0  0  0  1  0  0  0  0  0  0
  186.1430  176.5420  143.5580 C   0  0  2  0  0  3  0  0  0  0  0  0
  186.5200  178.7050  144.4420 O   0  0  0  0  0  0  0  0  0  0  0  0
  186.8480  177.5270  144.4480 C   0  0  0  0  0  0  0  0  0  0  0  0
  188.1540  177.1430  145.0540 C   0  0  0  0  0  2  0  0  0  0  0  0
  189.1420  178.2890  144.8640 C   0  0  0  0  0  2  0  0  0  0  0  0
  190.5850  177.8800  144.5570 C   0  0  0  0  0  2  0  0  0  0  0  0
  190.9090  177.2290  143.2070 C   0  0  2  0  0  0  0  0  0  0  0  0
  192.3100  177.5860  142.7360 C   0  0  0  0  0  1  0  0  0  0  0  0
  189.9590  177.6830  142.2700 O   0  0  0  0  0  1  0  0  0  0  0  0
  190.8440  175.7590  143.3920 N   0  0  0  0  0  2  0  0  0  0  0  0
  192.1650  175.1140  143.4280 C   0  0  1  0  0  3  0  0  0  0  0  0
  192.8940  175.5940  144.5420 O   0  0  0  0  0  0  0  0  0  0  0  0
  192.2750  175.1490  145.7390 C   0  0  1  0  0  3  0  0  0  0  0  0
  192.5320  176.1030  146.9330 C   0  0  0  0  0  2  0  0  0  0  0  0
  190.7870  174.7760  145.5150 C   0  0  0  0  0  2  0  0  0  0  0  0
  191.5920  177.2830  148.7360 C   0  0  0  0  0  1  0  0  0  0  0  0
  191.2700  176.4800  147.5730 N   0  0  0  0  0  0  0  0  0  0  0  0
  190.6460  175.2470  148.0190 C   0  0  0  0  0  2  0  0  0  0  0  0
  190.0610  174.4700  146.8350 C   0  0  0  0  0  2  0  0  0  0  0  0
  191.9650  173.6030  143.5680 C   0  0  0  0  0  2  0  0  0  0  0  0
  192.7890  171.6520  142.3910 O   0  0  0  0  0  1  0  0  0  0  0  0
  193.2080  172.8140  143.0820 C   0  0  2  0  0  3  0  0  0  0  0  0
  194.0600  172.5050  144.1730 O   0  0  0  0  0  0  0  0  0  0  0  0
  195.3810  172.8360  143.8210 C   0  0  2  0  0  3  0  0  0  0  0  0
  195.5730  170.5640  144.5080 C   0  0  0  0  0  2  0  0  0  0  0  0
  196.2970  171.8580  144.4520 N   0  0  0  0  0  0  0  0  0  0  0  0
  195.6490  171.4090  145.6960 C   0  0  0  0  0  2  0  0  0  0  0  0
  195.7480  174.2760  144.2260 C   0  0  0  0  0  2  0  0  0  0  0  0
  197.7700  174.2840  142.9550 O   0  0  0  0  0  0  0  0  0  0  0  0
  196.7770  174.8940  143.3170 C   0  0  0  0  0  0  0  0  0  0  0  0
  196.1610  177.0790  143.9640 O   0  0  0  0  0  1  0  0  0  0  0  0
  196.5370  176.2990  142.8620 C   0  0  2  0  0  3  0  0  0  0  0  0
  195.4960  176.3360  141.8410 N   0  0  0  0  0  1  0  0  0  0  0  0
  1  4  1  0  0  0  0
  2  1  2  0  0  0  0
  2  6  1  0  0  0  0
  4  3  2  0  0  0  0
  5  3  1  0  0  0  0
  5 37  1  0  0  0  0
  6  5  2  0  0  0  0
  7  6  1  0  0  0  0
  9  8  1  1  0  0  0
  9 11  1  0  0  0  0
  9  1  1  0  0  0  0
 10 11  2  0  0  0  0
 11 12  1  0  0  0  0
 13 17  1  0  0  0  0
 14 12  1  1  0  0  0
 15 13  1  0  0  0  0
 15 16  1  0  0  0  0
 16 14  1  0  0  0  0
 17 14  1  0  0  0  0
 18 25  1  6  0  0  0
 18 19  1  0  0  0  0
 18 13  1  0  0  0  0
 20 19  1  0  0  0  0
 20 22  1  0  0  0  0
 22 21  1  6  0  0  0
 22 24  1  0  0  0  0
 24 23  1  0  0  0  0
 25 28  1  0  0  0  0
 26 28  2  0  0  0  0
 26 29  1  0  0  0  0
 27 26  1  0  0  0  0
 30 29  1  0  0  0  0
 30 33  1  0  0  0  0
 31 34  1  0  0  0  0
 31 35  1  0  0  0  0
 32 33  1  0  0  0  0
 34 30  1  0  0  0  0
 35 32  1  0  0  0  0
 37 36  1  6  0  0  0
 37 39  1  0  0  0  0
 38 39  2  0  0  0  0
 39 40  1  0  0  0  0
 41 40  1  0  0  0  0
 42 41  1  0  0  0  0
 43 44  1  6  0  0  0
 43 46  1  0  0  0  0
 43 42  1  0  0  0  0
 45 43  1  0  0  0  0
 46 47  1  0  0  0  0
 47 56  1  1  0  0  0
 47 48  1  0  0  0  0
 49 48  1  6  0  0  0
 49 50  1  0  0  0  0
 50 53  1  0  0  0  0
 51 49  1  0  0  0  0
 51 55  1  0  0  0  0
 53 54  1  0  0  0  0
 53 52  1  0  0  0  0
 55 54  1  0  0  0  0
 58 57  1  1  0  0  0
 58 56  1  0  0  0  0
 58 59  1  0  0  0  0
 60 59  1  0  0  0  0
 60 64  1  1  0  0  0
 60 62  1  0  0  0  0
 61 63  1  0  0  0  0
 62 61  1  0  0  0  0
 62 63  1  0  0  0  0
 65 66  2  0  0  0  0
 66 64  1  0  0  0  0
 68 69  1  6  0  0  0
 68 66  1  0  0  0  0
 68 67  1  0  0  0  0
M  END
>  <MODEL>
6

>  <REMARK>
 VINA RESULT:      -3.3      2.492      8.550
  Name = 
  31 active torsions:
  status: ('A' for Active; 'I' for Inactive)
    1  A    between atoms: C_2  and  C_11
    2  A    between atoms: C_2  and  C_42
    3  A    between atoms: N_3  and  C_30
    4  A    between atoms: C_5  and  C_39
    5  A    between atoms: C_5  and  C_48
    6  A    between atoms: C_6  and  C_29
    7  A    between atoms: C_6  and  N_60
    8  A    between atoms: C_7  and  O_19
    9  A    between atoms: N_9  and  C_29
   10  A    between atoms: C_11  and  C_55
   11  A    between atoms: O_12  and  C_48
   12  A    between atoms: O_12  and  C_54
   13  A    between atoms: C_14  and  N_15
   14  A    between atoms: N_15  and  C_31
   15  A    between atoms: N_17  and  C_20
   16  A    between atoms: N_17  and  C_39
   17  A    between atoms: C_18  and  C_40
   18  A    between atoms: O_19  and  C_39
   19  A    between atoms: C_20  and  C_55
   20  A    between atoms: C_21  and  C_37
   21  A    between atoms: C_21  and  C_42
   22  A    between atoms: C_27  and  C_54
   23  A    between atoms: C_27  and  C_68
   24  A    between atoms: C_29  and  O_57
   25  A    between atoms: C_30  and  C_41
   26  A    between atoms: C_31  and  C_40
   27  A    between atoms: C_34  and  C_68
   28  A    between atoms: N_38  and  C_54
   29  A    between atoms: C_43  and  C_56
   30  A    between atoms: C_56  and  C_69
   31  A    between atoms: O_57  and  C_69
                            x       y       z     vdW  Elec       q    Type
                         _______ _______ _______ _____ _____    ______ ____

>  <TORSDO>
F 31

$$$$
=
 OpenBabel11042415083D

 69 73  0  0  1  0  0  0  0  0999 V2000
  187.5540  177.8570  146.4740 C   0  0  0  0  0  0  0  0  0  0  0  0
  187.5510  176.4600  146.6570 C   0  0  0  0  0  3  0  0  0  0  0  0
  189.9640  177.8620  146.8420 C   0  0  0  0  0  3  0  0  0  0  0  0
  188.7730  178.5550  146.5630 C   0  0  0  0  0  3  0  0  0  0  0  0
  189.9560  176.4880  147.0370 C   0  0  0  0  0  0  0  0  0  0  0  0
  188.7400  175.7830  146.9450 C   0  0  0  0  0  0  0  0  0  0  0  0
  188.6800  174.2810  147.0830 C   0  0  0  0  0  1  0  0  0  0  0  0
  185.7630  179.3830  146.9480 O   0  0  0  0  0  1  0  0  0  0  0  0
  186.3330  178.5890  145.9460 C   0  0  2  0  0  3  0  0  0  0  0  0
  184.4790  177.0090  146.0960 C   0  0  0  0  0  2  0  0  0  0  0  0
  185.2840  177.7110  145.3150 C   0  0  0  0  0  0  0  0  0  0  0  0
  185.4930  177.2180  143.9850 N   0  0  0  0  0  2  0  0  0  0  0  0
  184.4020  178.8320  140.9190 N   0  0  0  0  0  0  0  0  0  0  0  0
  185.5700  178.1660  142.8570 C   0  0  1  0  0  3  0  0  0  0  0  0
  185.6800  178.2350  140.4890 C   0  0  0  0  0  2  0  0  0  0  0  0
  186.2590  177.5100  141.6780 C   0  0  0  0  0  2  0  0  0  0  0  0
  184.2040  178.5100  142.3250 C   0  0  0  0  0  2  0  0  0  0  0  0
  183.2580  178.2860  140.1750 C   0  0  2  0  0  3  0  0  0  0  0  0
  182.1030  178.1690  140.9900 O   0  0  0  0  0  0  0  0  0  0  0  0
  181.1080  179.0490  140.5030 C   0  0  0  0  0  2  0  0  0  0  0  0
  179.3460  178.0430  141.9390 C   0  0  0  0  0  1  0  0  0  0  0  0
  180.0710  179.3230  141.5920 C   0  0  2  0  0  3  0  0  0  0  0  0
  177.7120  179.7560  140.8940 C   0  0  0  0  0  1  0  0  0  0  0  0
  179.0700  180.3970  141.1490 C   0  0  0  0  0  2  0  0  0  0  0  0
  183.6850  176.9870  139.4680 C   0  0  0  0  0  2  0  0  0  0  0  0
  182.6470  175.7750  137.6450 C   0  0  0  0  0  0  0  0  0  0  0  0
  183.9650  175.5700  136.9710 C   0  0  0  0  0  1  0  0  0  0  0  0
  182.5430  176.4170  138.7700 N   0  0  0  0  0  0  0  0  0  0  0  0
  181.4150  175.2040  137.0220 C   0  0  0  0  0  2  0  0  0  0  0  0
  180.2920  176.1010  137.2410 N   0  0  0  0  0  0  0  0  0  0  0  0
  178.0220  176.1980  138.2310 C   0  0  0  0  0  2  0  0  0  0  0  0
  178.4650  177.2660  135.9900 C   0  0  0  0  0  2  0  0  0  0  0  0
  179.7970  176.4790  135.9220 C   0  0  0  0  0  2  0  0  0  0  0  0
  179.2610  175.3290  137.9520 C   0  0  0  0  0  2  0  0  0  0  0  0
  178.0310  177.5130  137.4430 C   0  0  0  0  0  2  0  0  0  0  0  0
  192.2500  176.5390  147.7670 O   0  0  0  0  0  1  0  0  0  0  0  0
  191.2560  175.7380  147.2150 C   0  0  2  0  0  3  0  0  0  0  0  0
  192.3960  175.5760  145.1470 O   0  0  0  0  0  0  0  0  0  0  0  0
  191.7220  175.0010  145.9900 C   0  0  0  0  0  0  0  0  0  0  0  0
  191.0730  173.7070  145.6380 C   0  0  0  0  0  2  0  0  0  0  0  0
  190.2690  173.8910  144.3540 C   0  0  0  0  0  3  0  0  0  0  0  0
  191.0340  173.6580  143.0500 C   0  0  0  0  0  3  0  0  0  0  0  0
  190.3330  173.9170  141.7110 C   0  0  2  0  0  0  0  0  0  0  0  0
  189.5630  175.2270  141.7270 C   0  0  0  0  0  1  0  0  0  0  0  0
  189.4500  172.8450  141.4720 O   0  0  0  0  0  1  0  0  0  0  0  0
  191.3830  174.0100  140.6680 N   0  0  0  0  0  2  0  0  0  0  0  0
  192.0180  172.7200  140.3580 C   0  0  1  0  0  3  0  0  0  0  0  0
  191.4310  172.1740  139.1910 O   0  0  0  0  0  0  0  0  0  0  0  0
  190.8290  173.2130  138.4350 C   0  0  1  0  0  3  0  0  0  0  0  0
  191.8190  173.8810  137.4470 C   0  0  0  0  0  2  0  0  0  0  0  0
  189.4870  172.7640  137.8040 C   0  0  0  0  0  2  0  0  0  0  0  0
  192.1900  174.6260  135.2480 C   0  0  0  0  0  1  0  0  0  0  0  0
  191.2630  173.9000  136.0930 N   0  0  0  0  0  0  0  0  0  0  0  0
  190.0190  174.6460  136.1650 C   0  0  0  0  0  2  0  0  0  0  0  0
  188.9210  173.8170  136.8360 C   0  0  0  0  0  2  0  0  0  0  0  0
  193.5080  172.9590  140.1070 C   0  0  0  0  0  2  0  0  0  0  0  0
  194.1640  170.8230  141.0460 O   0  0  0  0  0  1  0  0  0  0  0  0
  194.3890  172.2170  141.1450 C   0  0  2  0  0  3  0  0  0  0  0  0
  194.1370  172.7050  142.4530 O   0  0  0  0  0  0  0  0  0  0  0  0
  195.2110  172.3420  143.2850 C   0  0  2  0  0  3  0  0  0  0  0  0
  197.0640  173.7220  143.8610 C   0  0  0  0  0  2  0  0  0  0  0  0
  196.4500  172.9520  142.7510 N   0  0  0  0  0  0  0  0  0  0  0  0
  196.2790  174.4130  142.8430 C   0  0  0  0  0  2  0  0  0  0  0  0
  195.3590  170.8150  143.4120 C   0  0  0  0  0  2  0  0  0  0  0  0
  194.4760  170.9160  145.6280 O   0  0  0  0  0  0  0  0  0  0  0  0
  195.1770  170.3250  144.8240 C   0  0  0  0  0  0  0  0  0  0  0  0
  196.0180  169.0280  146.6070 O   0  0  0  0  0  1  0  0  0  0  0  0
  195.8890  169.0680  145.2120 C   0  0  2  0  0  3  0  0  0  0  0  0
  197.2040  169.0080  144.5820 N   0  0  0  0  0  1  0  0  0  0  0  0
  1  4  2  0  0  0  0
  1  2  1  0  0  0  0
  2  6  2  0  0  0  0
  3  5  2  0  0  0  0
  4  3  1  0  0  0  0
  5 37  1  0  0  0  0
  6  5  1  0  0  0  0
  6  7  1  0  0  0  0
  9  1  1  0  0  0  0
  9  8  1  1  0  0  0
 11  9  1  0  0  0  0
 11 10  2  0  0  0  0
 12 11  1  0  0  0  0
 13 17  1  0  0  0  0
 14 12  1  1  0  0  0
 15 13  1  0  0  0  0
 15 16  1  0  0  0  0
 16 14  1  0  0  0  0
 17 14  1  0  0  0  0
 18 25  1  1  0  0  0
 18 13  1  0  0  0  0
 18 19  1  0  0  0  0
 20 19  1  0  0  0  0
 20 22  1  0  0  0  0
 22 21  1  6  0  0  0
 23 24  1  0  0  0  0
 24 22  1  0  0  0  0
 26 28  2  0  0  0  0
 27 26  1  0  0  0  0
 28 25  1  0  0  0  0
 29 30  1  0  0  0  0
 29 26  1  0  0  0  0
 30 34  1  0  0  0  0
 32 35  1  0  0  0  0
 33 32  1  0  0  0  0
 33 30  1  0  0  0  0
 34 31  1  0  0  0  0
 35 31  1  0  0  0  0
 37 36  1  6  0  0  0
 38 39  2  0  0  0  0
 39 37  1  0  0  0  0
 40 39  1  0  0  0  0
 41 40  1  0  0  0  0
 42 41  2  0  0  0  0
 43 44  1  1  0  0  0
 43 42  1  0  0  0  0
 45 43  1  0  0  0  0
 46 43  1  0  0  0  0
 47 56  1  6  0  0  0
 47 46  1  0  0  0  0
 48 47  1  0  0  0  0
 49 48  1  6  0  0  0
 50 49  1  0  0  0  0
 51 49  1  0  0  0  0
 52 53  1  0  0  0  0
 53 54  1  0  0  0  0
 53 50  1  0  0  0  0
 54 55  1  0  0  0  0
 55 51  1  0  0  0  0
 56 58  1  0  0  0  0
 58 57  1  1  0  0  0
 58 59  1  0  0  0  0
 59 60  1  0  0  0  0
 60 64  1  6  0  0  0
 62 63  1  0  0  0  0
 62 60  1  0  0  0  0
 62 61  1  0  0  0  0
 63 61  1  0  0  0  0
 64 66  1  0  0  0  0
 66 68  1  0  0  0  0
 66 65  2  0  0  0  0
 68 69  1  6  0  0  0
 68 67  1  0  0  0  0
M  END
>  <MODEL>
7

>  <REMARK>
 VINA RESULT:      -2.4      4.536      8.646
  Name = 
  31 active torsions:
  status: ('A' for Active; 'I' for Inactive)
    1  A    between atoms: C_2  and  C_11
    2  A    between atoms: C_2  and  C_42
    3  A    between atoms: N_3  and  C_30
    4  A    between atoms: C_5  and  C_39
    5  A    between atoms: C_5  and  C_48
    6  A    between atoms: C_6  and  C_29
    7  A    between atoms: C_6  and  N_60
    8  A    between atoms: C_7  and  O_19
    9  A    between atoms: N_9  and  C_29
   10  A    between atoms: C_11  and  C_55
   11  A    between atoms: O_12  and  C_48
   12  A    between atoms: O_12  and  C_54
   13  A    between atoms: C_14  and  N_15
   14  A    between atoms: N_15  and  C_31
   15  A    between atoms: N_17  and  C_20
   16  A    between atoms: N_17  and  C_39
   17  A    between atoms: C_18  and  C_40
   18  A    between atoms: O_19  and  C_39
   19  A    between atoms: C_20  and  C_55
   20  A    between atoms: C_21  and  C_37
   21  A    between atoms: C_21  and  C_42
   22  A    between atoms: C_27  and  C_54
   23  A    between atoms: C_27  and  C_68
   24  A    between atoms: C_29  and  O_57
   25  A    between atoms: C_30  and  C_41
   26  A    between atoms: C_31  and  C_40
   27  A    between atoms: C_34  and  C_68
   28  A    between atoms: N_38  and  C_54
   29  A    between atoms: C_43  and  C_56
   30  A    between atoms: C_56  and  C_69
   31  A    between atoms: O_57  and  C_69
                            x       y       z     vdW  Elec       q    Type
                         _______ _______ _______ _____ _____    ______ ____

>  <TORSDO>
F 31

$$$$
=
 OpenBabel11042415083D

 69 73  0  0  1  0  0  0  0  0999 V2000
  188.0240  177.4540  145.8420 C   0  0  0  0  0  0  0  0  0  0  0  0
  188.1090  176.0620  146.0450 C   0  0  0  0  0  3  0  0  0  0  0  0
  190.4590  177.5560  145.7910 C   0  0  0  0  0  3  0  0  0  0  0  0
  189.2110  178.1980  145.7090 C   0  0  0  0  0  3  0  0  0  0  0  0
  190.5400  176.1870  146.0060 C   0  0  0  0  0  0  0  0  0  0  0  0
  189.3550  175.4360  146.1360 C   0  0  0  0  0  0  0  0  0  0  0  0
  189.3800  173.9360  146.3060 C   0  0  0  0  0  1  0  0  0  0  0  0
  186.2700  178.9050  146.6000 O   0  0  0  0  0  1  0  0  0  0  0  0
  186.7030  178.1290  145.5190 C   0  0  2  0  0  3  0  0  0  0  0  0
  185.0230  176.4130  145.9590 C   0  0  0  0  0  2  0  0  0  0  0  0
  185.6040  177.2010  145.0690 C   0  0  0  0  0  0  0  0  0  0  0  0
  185.5650  176.7750  143.7010 N   0  0  0  0  0  2  0  0  0  0  0  0
  183.9760  178.5740  140.9740 N   0  0  0  0  0  0  0  0  0  0  0  0
  185.4620  177.7800  142.6250 C   0  0  1  0  0  3  0  0  0  0  0  0
  185.1320  177.9720  140.2850 C   0  0  0  0  0  2  0  0  0  0  0  0
  185.9000  177.1730  141.3080 C   0  0  0  0  0  2  0  0  0  0  0  0
  184.0330  178.1820  142.3750 C   0  0  0  0  0  2  0  0  0  0  0  0
  182.6970  178.0930  140.4310 C   0  0  2  0  0  3  0  0  0  0  0  0
  181.7620  177.8010  141.4570 O   0  0  0  0  0  0  0  0  0  0  0  0
  180.4550  177.9900  140.9510 C   0  0  0  0  0  2  0  0  0  0  0  0
  180.0260  180.0910  142.2100 C   0  0  0  0  0  1  0  0  0  0  0  0
  180.1500  179.4840  140.8310 C   0  0  2  0  0  3  0  0  0  0  0  0
  177.8870  180.5420  140.8600 C   0  0  0  0  0  1  0  0  0  0  0  0
  178.8670  179.7270  140.0260 C   0  0  0  0  0  2  0  0  0  0  0  0
  182.9640  176.9370  139.4510 C   0  0  0  0  0  2  0  0  0  0  0  0
  181.6350  175.9170  137.7020 C   0  0  0  0  0  0  0  0  0  0  0  0
  182.8500  175.6360  136.8800 C   0  0  0  0  0  1  0  0  0  0  0  0
  181.7070  176.5040  138.8580 N   0  0  0  0  0  0  0  0  0  0  0  0
  180.2970  175.4880  137.1920 C   0  0  0  0  0  2  0  0  0  0  0  0
  180.4120  174.1980  136.5310 N   0  0  0  0  0  0  0  0  0  0  0  0
  179.0700  172.4330  135.4230 C   0  0  0  0  0  2  0  0  0  0  0  0
  180.9060  171.7970  137.0300 C   0  0  0  0  0  2  0  0  0  0  0  0
  180.9280  173.2640  137.5250 C   0  0  0  0  0  2  0  0  0  0  0  0
  179.0540  173.7970  136.1360 C   0  0  0  0  0  2  0  0  0  0  0  0
  180.4070  171.6990  135.5800 C   0  0  0  0  0  2  0  0  0  0  0  0
  192.9160  176.3270  146.3690 O   0  0  0  0  0  1  0  0  0  0  0  0
  191.8800  175.4900  145.9700 C   0  0  2  0  0  3  0  0  0  0  0  0
  191.9430  175.3240  143.6090 O   0  0  0  0  0  0  0  0  0  0  0  0
  192.1770  174.7790  144.6790 C   0  0  0  0  0  0  0  0  0  0  0  0
  192.4110  173.3080  144.7040 C   0  0  0  0  0  2  0  0  0  0  0  0
  191.5160  172.6470  143.6610 C   0  0  0  0  0  3  0  0  0  0  0  0
  192.0780  172.5930  142.2390 C   0  0  0  0  0  3  0  0  0  0  0  0
  191.1900  172.0780  141.0990 C   0  0  2  0  0  0  0  0  0  0  0  0
  189.7640  171.8360  141.5660 C   0  0  0  0  0  1  0  0  0  0  0  0
  191.7510  170.8750  140.6270 O   0  0  0  0  0  1  0  0  0  0  0  0
  191.1610  173.1240  140.0480 N   0  0  0  0  0  2  0  0  0  0  0  0
  192.3700  173.1460  139.2100 C   0  0  1  0  0  3  0  0  0  0  0  0
  192.1520  173.9860  138.0920 O   0  0  0  0  0  0  0  0  0  0  0  0
  191.8030  173.1960  136.9670 C   0  0  1  0  0  3  0  0  0  0  0  0
  192.9090  172.1790  136.5860 C   0  0  0  0  0  2  0  0  0  0  0  0
  190.3840  172.5880  137.1070 C   0  0  0  0  0  2  0  0  0  0  0  0
  193.4160  169.9530  136.0240 C   0  0  0  0  0  1  0  0  0  0  0  0
  192.3550  170.8280  136.4820 N   0  0  0  0  0  0  0  0  0  0  0  0
  191.3230  170.8800  135.4610 C   0  0  0  0  0  2  0  0  0  0  0  0
  190.0690  171.5860  135.9840 C   0  0  0  0  0  2  0  0  0  0  0  0
  193.5280  173.7030  140.0410 C   0  0  0  0  0  2  0  0  0  0  0  0
  194.6980  172.0800  138.6730 O   0  0  0  0  0  1  0  0  0  0  0  0
  194.8980  173.1890  139.5300 C   0  0  2  0  0  3  0  0  0  0  0  0
  195.7500  172.8710  140.6190 O   0  0  0  0  0  0  0  0  0  0  0  0
  195.6170  173.8680  141.6020 C   0  0  2  0  0  3  0  0  0  0  0  0
  197.2330  174.8810  140.1750 C   0  0  0  0  0  2  0  0  0  0  0  0
  196.0480  175.1620  141.0230 N   0  0  0  0  0  0  0  0  0  0  0  0
  197.4110  175.4180  141.5210 C   0  0  0  0  0  2  0  0  0  0  0  0
  196.4160  173.5400  142.8750 C   0  0  0  0  0  2  0  0  0  0  0  0
  194.9860  171.7000  143.3970 O   0  0  0  0  0  0  0  0  0  0  0  0
  195.6770  172.6180  143.8080 C   0  0  0  0  0  0  0  0  0  0  0  0
  194.6660  172.4260  145.9320 O   0  0  0  0  0  1  0  0  0  0  0  0
  195.8250  172.8620  145.2770 C   0  0  2  0  0  3  0  0  0  0  0  0
  196.0500  174.2790  145.5400 N   0  0  0  0  0  1  0  0  0  0  0  0
  1  2  1  0  0  0  0
  2  6  2  0  0  0  0
  3  5  2  0  0  0  0
  4  3  1  0  0  0  0
  4  1  2  0  0  0  0
  5  6  1  0  0  0  0
  6  7  1  0  0  0  0
  9  1  1  0  0  0  0
  9  8  1  1  0  0  0
 11  9  1  0  0  0  0
 11 10  2  0  0  0  0
 12 11  1  0  0  0  0
 13 17  1  0  0  0  0
 14 12  1  1  0  0  0
 15 13  1  0  0  0  0
 15 16  1  0  0  0  0
 16 14  1  0  0  0  0
 17 14  1  0  0  0  0
 18 25  1  1  0  0  0
 18 13  1  0  0  0  0
 18 19  1  0  0  0  0
 20 19  1  0  0  0  0
 22 20  1  0  0  0  0
 22 21  1  1  0  0  0
 24 22  1  0  0  0  0
 24 23  1  0  0  0  0
 26 28  2  0  0  0  0
 27 26  1  0  0  0  0
 28 25  1  0  0  0  0
 29 26  1  0  0  0  0
 30 29  1  0  0  0  0
 30 33  1  0  0  0  0
 31 35  1  0  0  0  0
 31 34  1  0  0  0  0
 32 33  1  0  0  0  0
 34 30  1  0  0  0  0
 35 32  1  0  0  0  0
 37  5  1  0  0  0  0
 37 36  1  6  0  0  0
 38 39  2  0  0  0  0
 39 40  1  0  0  0  0
 39 37  1  0  0  0  0
 41 40  1  0  0  0  0
 42 41  2  0  0  0  0
 43 44  1  1  0  0  0
 43 42  1  0  0  0  0
 45 43  1  0  0  0  0
 46 43  1  0  0  0  0
 47 56  1  1  0  0  0
 47 46  1  0  0  0  0
 48 47  1  0  0  0  0
 49 51  1  0  0  0  0
 49 48  1  1  0  0  0
 50 49  1  0  0  0  0
 52 53  1  0  0  0  0
 53 50  1  0  0  0  0
 54 55  1  0  0  0  0
 54 53  1  0  0  0  0
 55 51  1  0  0  0  0
 58 57  1  1  0  0  0
 58 56  1  0  0  0  0
 58 59  1  0  0  0  0
 59 60  1  0  0  0  0
 60 64  1  1  0  0  0
 61 62  1  0  0  0  0
 61 63  1  0  0  0  0
 62 63  1  0  0  0  0
 62 60  1  0  0  0  0
 64 66  1  0  0  0  0
 65 66  2  0  0  0  0
 66 68  1  0  0  0  0
 68 69  1  6  0  0  0
 68 67  1  0  0  0  0
M  END
>  <MODEL>
8

>  <REMARK>
 VINA RESULT:      -2.3      4.596      8.291
  Name = 
  31 active torsions:
  status: ('A' for Active; 'I' for Inactive)
    1  A    between atoms: C_2  and  C_11
    2  A    between atoms: C_2  and  C_42
    3  A    between atoms: N_3  and  C_30
    4  A    between atoms: C_5  and  C_39
    5  A    between atoms: C_5  and  C_48
    6  A    between atoms: C_6  and  C_29
    7  A    between atoms: C_6  and  N_60
    8  A    between atoms: C_7  and  O_19
    9  A    between atoms: N_9  and  C_29
   10  A    between atoms: C_11  and  C_55
   11  A    between atoms: O_12  and  C_48
   12  A    between atoms: O_12  and  C_54
   13  A    between atoms: C_14  and  N_15
   14  A    between atoms: N_15  and  C_31
   15  A    between atoms: N_17  and  C_20
   16  A    between atoms: N_17  and  C_39
   17  A    between atoms: C_18  and  C_40
   18  A    between atoms: O_19  and  C_39
   19  A    between atoms: C_20  and  C_55
   20  A    between atoms: C_21  and  C_37
   21  A    between atoms: C_21  and  C_42
   22  A    between atoms: C_27  and  C_54
   23  A    between atoms: C_27  and  C_68
   24  A    between atoms: C_29  and  O_57
   25  A    between atoms: C_30  and  C_41
   26  A    between atoms: C_31  and  C_40
   27  A    between atoms: C_34  and  C_68
   28  A    between atoms: N_38  and  C_54
   29  A    between atoms: C_43  and  C_56
   30  A    between atoms: C_56  and  C_69
   31  A    between atoms: O_57  and  C_69
                            x       y       z     vdW  Elec       q    Type
                         _______ _______ _______ _____ _____    ______ ____

>  <TORSDO>
F 31

$$$$
=
 OpenBabel11042415083D

 69 73  0  0  1  0  0  0  0  0999 V2000
  189.9250  177.7240  143.0020 C   0  0  0  0  0  0  0  0  0  0  0  0
  189.2930  177.9310  144.2440 C   0  0  0  0  0  3  0  0  0  0  0  0
  191.8120  176.7200  144.1740 C   0  0  0  0  0  3  0  0  0  0  0  0
  191.1900  177.1090  142.9740 C   0  0  0  0  0  3  0  0  0  0  0  0
  191.1930  176.9390  145.3970 C   0  0  0  0  0  0  0  0  0  0  0  0
  189.9260  177.5510  145.4310 C   0  0  0  0  0  0  0  0  0  0  0  0
  189.1760  177.7560  146.7260 C   0  0  0  0  0  1  0  0  0  0  0  0
  189.2760  179.2500  141.2660 O   0  0  0  0  0  1  0  0  0  0  0  0
  189.1820  177.9200  141.6930 C   0  0  2  0  0  3  0  0  0  0  0  0
  187.4450  176.2500  141.2980 C   0  0  0  0  0  2  0  0  0  0  0  0
  187.7430  177.4750  141.7020 C   0  0  0  0  0  0  0  0  0  0  0  0
  186.7060  178.4600  141.6080 N   0  0  0  0  0  2  0  0  0  0  0  0
  183.4490  178.4950  139.9990 N   0  0  0  0  0  0  0  0  0  0  0  0
  185.7570  178.4170  140.4780 C   0  0  1  0  0  3  0  0  0  0  0  0
  183.9390  177.1570  139.6220 C   0  0  0  0  0  2  0  0  0  0  0  0
  185.3070  176.9910  140.2360 C   0  0  0  0  0  2  0  0  0  0  0  0
  184.4780  179.1440  140.7980 C   0  0  0  0  0  2  0  0  0  0  0  0
  182.2300  178.4270  140.8190 C   0  0  2  0  0  3  0  0  0  0  0  0
  181.6000  179.6920  140.9400 O   0  0  0  0  0  0  0  0  0  0  0  0
  180.2680  179.4990  141.3740 C   0  0  0  0  0  2  0  0  0  0  0  0
  178.9020  180.4250  139.5140 C   0  0  0  0  0  1  0  0  0  0  0  0
  179.3730  179.1540  140.1830 C   0  0  2  0  0  3  0  0  0  0  0  0
  178.6440  177.1790  141.5270 C   0  0  0  0  0  1  0  0  0  0  0  0
  178.1710  178.3050  140.6170 C   0  0  0  0  0  2  0  0  0  0  0  0
  182.5550  177.7370  142.1570 C   0  0  0  0  0  2  0  0  0  0  0  0
  184.1710  178.4430  143.8170 C   0  0  0  0  0  0  0  0  0  0  0  0
  184.8470  177.1110  143.7910 C   0  0  0  0  0  1  0  0  0  0  0  0
  183.1400  178.7050  143.0720 N   0  0  0  0  0  0  0  0  0  0  0  0
  184.7120  179.5160  144.7050 C   0  0  0  0  0  2  0  0  0  0  0  0
  184.9250  178.9870  146.0420 N   0  0  0  0  0  0  0  0  0  0  0  0
  186.2820  179.3160  148.0900 C   0  0  0  0  0  2  0  0  0  0  0  0
  185.8720  176.9880  147.2120 C   0  0  0  0  0  2  0  0  0  0  0  0
  185.3980  177.6170  145.8780 C   0  0  0  0  0  2  0  0  0  0  0  0
  185.9810  179.8020  146.6610 C   0  0  0  0  0  2  0  0  0  0  0  0
  185.6620  177.9470  148.3930 C   0  0  0  0  0  2  0  0  0  0  0  0
  193.1500  176.0630  146.4940 O   0  0  0  0  0  1  0  0  0  0  0  0
  191.8140  176.4070  146.6680 C   0  0  2  0  0  3  0  0  0  0  0  0
  191.3890  174.8680  148.4160 O   0  0  0  0  0  0  0  0  0  0  0  0
  191.0210  175.3210  147.3410 C   0  0  0  0  0  0  0  0  0  0  0  0
  190.0150  174.5650  146.5430 C   0  0  0  0  0  2  0  0  0  0  0  0
  190.7440  173.7070  145.5140 C   0  0  0  0  0  2  0  0  0  0  0  0
  189.8980  172.6380  144.8190 C   0  0  0  0  0  2  0  0  0  0  0  0
  190.0860  172.3890  143.3180 C   0  0  2  0  0  0  0  0  0  0  0  0
  190.5780  173.6360  142.6010 C   0  0  0  0  0  1  0  0  0  0  0  0
  188.8430  171.9890  142.7880 O   0  0  0  0  0  1  0  0  0  0  0  0
  191.1160  171.3320  143.1660 N   0  0  0  0  0  2  0  0  0  0  0  0
  191.8790  171.4330  141.9130 C   0  0  1  0  0  3  0  0  0  0  0  0
  193.0610  170.6610  142.0180 O   0  0  0  0  0  0  0  0  0  0  0  0
  194.1730  171.5220  142.1980 C   0  0  1  0  0  3  0  0  0  0  0  0
  193.9810  172.5060  143.3800 C   0  0  0  0  0  2  0  0  0  0  0  0
  195.5110  170.7410  142.2170 C   0  0  0  0  0  2  0  0  0  0  0  0
  194.9230  173.4540  145.3140 C   0  0  0  0  0  1  0  0  0  0  0  0
  195.1210  172.4420  144.2960 N   0  0  0  0  0  0  0  0  0  0  0  0
  196.2970  172.7890  143.5190 C   0  0  0  0  0  2  0  0  0  0  0  0
  196.7020  171.6380  142.5940 C   0  0  0  0  0  2  0  0  0  0  0  0
  191.0180  170.8840  140.7730 C   0  0  0  0  0  2  0  0  0  0  0  0
  191.7910  172.8490  139.5840 O   0  0  0  0  0  1  0  0  0  0  0  0
  191.4200  171.4940  139.4070 C   0  0  2  0  0  3  0  0  0  0  0  0
  190.3680  171.3500  138.4670 O   0  0  0  0  0  0  0  0  0  0  0  0
  190.0880  172.6090  137.9060 C   0  0  2  0  0  3  0  0  0  0  0  0
  188.3710  174.0370  138.7350 C   0  0  0  0  0  2  0  0  0  0  0  0
  188.6210  172.8190  137.9250 N   0  0  0  0  0  0  0  0  0  0  0  0
  188.1950  172.7160  139.3320 C   0  0  0  0  0  2  0  0  0  0  0  0
  190.6460  172.7470  136.4780 C   0  0  0  0  0  2  0  0  0  0  0  0
  190.3630  174.8700  135.4210 O   0  0  0  0  0  0  0  0  0  0  0  0
  191.0460  174.1600  136.1410 C   0  0  0  0  0  0  0  0  0  0  0  0
  192.5280  175.9890  136.2980 O   0  0  0  0  0  1  0  0  0  0  0  0
  192.3220  174.6720  136.7290 C   0  0  2  0  0  3  0  0  0  0  0  0
  193.4450  173.8300  136.3290 N   0  0  0  0  0  1  0  0  0  0  0  0
  1  2  1  0  0  0  0
  2  6  2  0  0  0  0
  3  5  2  0  0  0  0
  4  1  2  0  0  0  0
  4  3  1  0  0  0  0
  5  6  1  0  0  0  0
  5 37  1  0  0  0  0
  6  7  1  0  0  0  0
  9  8  1  1  0  0  0
  9 11  1  0  0  0  0
  9  1  1  0  0  0  0
 10 11  2  0  0  0  0
 12 11  1  0  0  0  0
 13 17  1  0  0  0  0
 13 18  1  0  0  0  0
 14 17  1  0  0  0  0
 14 12  1  1  0  0  0
 15 13  1  0  0  0  0
 15 16  1  0  0  0  0
 16 14  1  0  0  0  0
 18 19  1  0  0  0  0
 18 25  1  1  0  0  0
 19 20  1  0  0  0  0
 22 21  1  1  0  0  0
 22 24  1  0  0  0  0
 22 20  1  0  0  0  0
 24 23  1  0  0  0  0
 25 28  1  0  0  0  0
 26 29  1  0  0  0  0
 27 26  1  0  0  0  0
 28 26  2  0  0  0  0
 29 30  1  0  0  0  0
 30 34  1  0  0  0  0
 31 35  1  0  0  0  0
 32 35  1  0  0  0  0
 33 30  1  0  0  0  0
 33 32  1  0  0  0  0
 34 31  1  0  0  0  0
 37 36  1  6  0  0  0
 37 39  1  0  0  0  0
 39 38  2  0  0  0  0
 40 39  1  0  0  0  0
 41 40  1  0  0  0  0
 42 41  1  0  0  0  0
 43 44  1  6  0  0  0
 43 42  1  0  0  0  0
 45 43  1  0  0  0  0
 46 43  1  0  0  0  0
 47 56  1  6  0  0  0
 47 48  1  0  0  0  0
 47 46  1  0  0  0  0
 49 48  1  1  0  0  0
 49 51  1  0  0  0  0
 49 50  1  0  0  0  0
 50 53  1  0  0  0  0
 51 55  1  0  0  0  0
 53 52  1  0  0  0  0
 54 53  1  0  0  0  0
 55 54  1  0  0  0  0
 58 57  1  1  0  0  0
 58 56  1  0  0  0  0
 59 58  1  0  0  0  0
 60 64  1  6  0  0  0
 60 62  1  0  0  0  0
 60 59  1  0  0  0  0
 61 63  1  0  0  0  0
 62 61  1  0  0  0  0
 62 63  1  0  0  0  0
 65 66  2  0  0  0  0
 66 64  1  0  0  0  0
 66 68  1  0  0  0  0
 68 67  1  6  0  0  0
 69 68  1  0  0  0  0
M  END
>  <MODEL>
9

>  <REMARK>
 VINA RESULT:      -2.0      3.448      8.037
  Name = 
  31 active torsions:
  status: ('A' for Active; 'I' for Inactive)
    1  A    between atoms: C_2  and  C_11
    2  A    between atoms: C_2  and  C_42
    3  A    between atoms: N_3  and  C_30
    4  A    between atoms: C_5  and  C_39
    5  A    between atoms: C_5  and  C_48
    6  A    between atoms: C_6  and  C_29
    7  A    between atoms: C_6  and  N_60
    8  A    between atoms: C_7  and  O_19
    9  A    between atoms: N_9  and  C_29
   10  A    between atoms: C_11  and  C_55
   11  A    between atoms: O_12  and  C_48
   12  A    between atoms: O_12  and  C_54
   13  A    between atoms: C_14  and  N_15
   14  A    between atoms: N_15  and  C_31
   15  A    between atoms: N_17  and  C_20
   16  A    between atoms: N_17  and  C_39
   17  A    between atoms: C_18  and  C_40
   18  A    between atoms: O_19  and  C_39
   19  A    between atoms: C_20  and  C_55
   20  A    between atoms: C_21  and  C_37
   21  A    between atoms: C_21  and  C_42
   22  A    between atoms: C_27  and  C_54
   23  A    between atoms: C_27  and  C_68
   24  A    between atoms: C_29  and  O_57
   25  A    between atoms: C_30  and  C_41
   26  A    between atoms: C_31  and  C_40
   27  A    between atoms: C_34  and  C_68
   28  A    between atoms: N_38  and  C_54
   29  A    between atoms: C_43  and  C_56
   30  A    between atoms: C_56  and  C_69
   31  A    between atoms: O_57  and  C_69
                            x       y       z     vdW  Elec       q    Type
                         _______ _______ _______ _____ _____    ______ ____

>  <TORSDO>
F 31

$$$$
