=
 OpenBabel11042414153D

 45 49  0  0  1  0  0  0  0  0999 V2000
  189.3060  175.0850  145.1420 C   0  0  0  0  0  0  0  0  0  0  0  0
  189.7750  175.1420  142.7570 C   0  0  0  0  0  0  0  0  0  0  0  0
  189.0390  176.3610  142.6310 N   0  0  0  0  0  0  0  0  0  0  0  0
  190.3060  174.6170  141.6910 N   0  0  0  0  0  0  0  0  0  0  0  0
  189.8790  174.5140  144.0830 C   0  0  0  0  0  3  0  0  0  0  0  0
  188.4580  176.9460  143.6380 C   0  0  0  0  0  0  0  0  0  0  0  0
  188.5240  176.3690  145.0310 C   0  0  0  0  0  2  0  0  0  0  0  0
  192.3360  173.4290  141.7700 O   0  0  0  0  0  0  0  0  0  0  0  0
  191.0870  173.4130  141.6030 C   0  0  0  0  0  0  0  0  0  0  0  0
  190.3110  171.8160  139.8000 C   0  0  1  0  0  3  0  0  0  0  0  0
  191.3820  171.2050  140.6030 N   0  0  0  0  0  2  0  0  0  0  0  0
  190.4180  172.1140  141.2490 C   0  0  1  0  0  3  0  0  0  0  0  0
  190.9010  172.8650  138.8510 C   0  0  2  0  0  3  0  0  0  0  0  0
  189.8620  173.4370  138.1140 O   0  0  0  0  0  1  0  0  0  0  0  0
  191.9290  172.2350  137.9040 C   0  0  1  0  0  3  0  0  0  0  0  0
  191.4590  172.2950  136.5250 N   0  0  0  0  0  2  0  0  0  0  0  0
  191.2960  171.0160  136.1100 O   0  0  0  0  0  1  0  0  0  0  0  0
  193.2900  172.9240  138.0280 C   0  0  2  0  0  3  0  0  0  0  0  0
  194.1150  172.2350  138.9220 O   0  0  0  0  0  1  0  0  0  0  0  0
  194.4070  174.9100  138.7120 O   0  0  0  0  0  0  0  0  0  0  0  0
  193.7790  175.2780  137.5060 C   0  0  0  0  0  2  0  0  0  0  0  0
  193.1310  174.3680  138.4750 C   0  0  1  0  0  3  0  0  0  0  0  0
  189.3990  174.4220  146.4730 C   0  0  0  0  0  2  0  0  0  0  0  0
  189.6290  175.4140  147.5080 N   0  0  0  0  0  2  0  0  0  0  0  0
  190.9670  175.2820  147.8980 N   0  0  0  0  0  2  0  0  0  0  0  0
  191.6090  176.5550  147.6200 C   0  0  0  0  0  2  0  0  0  0  0  0
  192.6570  176.3720  146.6310 N   0  0  0  0  0  2  0  0  0  0  0  0
  192.8420  175.0360  146.4900 O   0  0  0  0  0  0  0  0  0  0  0  0
  196.7420  175.3020  144.0200 C   0  0  0  0  0  2  0  0  0  0  0  0
  195.7970  176.3980  143.5220 C   0  0  0  0  0  2  0  0  0  0  0  0
  195.1750  174.9770  146.0130 C   0  0  0  0  0  2  0  0  0  0  0  0
  193.7610  174.9130  145.4480 C   0  0  2  0  0  3  0  0  0  0  0  0
  194.4050  175.8790  143.1970 C   0  0  0  0  0  2  0  0  0  0  0  0
  196.1460  174.3240  145.0370 C   0  0  2  0  0  3  0  0  0  0  0  0
  197.2720  173.6660  145.8110 C   0  0  0  0  0  1  0  0  0  0  0  0
  193.5100  176.0170  144.4240 C   0  0  0  0  0  2  0  0  0  0  0  0
  187.7510  178.1460  143.4690 O   0  0  0  0  0  0  0  0  0  0  0  0
  185.2330  177.2830  142.1360 O   0  0  0  0  0  0  0  0  0  0  0  0
  186.0540  179.0600  144.9790 C   0  0  0  0  0  3  0  0  0  0  0  0
  184.5450  179.0900  145.0440 C   0  0  1  0  0  3  0  0  0  0  0  0
  185.2570  177.9530  143.1990 C   0  0  0  0  0  0  0  0  0  0  0  0
  184.1340  178.3630  143.8870 O   0  0  0  0  0  0  0  0  0  0  0  0
  186.4380  178.3950  143.8950 C   0  0  0  0  0  0  0  0  0  0  0  0
  185.1340  178.4760  147.3820 C   0  0  0  0  0  1  0  0  0  0  0  0
  184.0760  178.3790  146.3020 C   0  0  0  0  0  2  0  0  0  0  0  0
  1 23  1  0  0  0  0
  2  5  1  0  0  0  0
  3  2  1  0  0  0  0
  3  6  2  0  0  0  0
  4  2  2  0  0  0  0
  5  1  2  0  0  0  0
  6  7  1  0  0  0  0
  7  1  1  0  0  0  0
  9  4  1  0  0  0  0
  9  8  2  0  0  0  0
 10 13  1  6  0  0  0
 10 11  1  0  0  0  0
 10 12  1  0  0  0  0
 11 12  1  0  0  0  0
 12  9  1  6  0  0  0
 13 14  1  6  0  0  0
 15 16  1  6  0  0  0
 15 18  1  0  0  0  0
 15 13  1  0  0  0  0
 17 16  1  0  0  0  0
 18 19  1  1  0  0  0
 21 22  1  0  0  0  0
 21 20  1  0  0  0  0
 22 18  1  6  0  0  0
 22 20  1  0  0  0  0
 23 24  1  0  0  0  0
 24 25  1  0  0  0  0
 26 25  1  0  0  0  0
 27 26  1  0  0  0  0
 28 27  1  0  0  0  0
 29 34  1  0  0  0  0
 30 29  1  0  0  0  0
 32 31  1  0  0  0  0
 32 28  1  1  0  0  0
 33 30  1  0  0  0  0
 33 36  1  0  0  0  0
 34 35  1  1  0  0  0
 34 31  1  0  0  0  0
 36 32  1  0  0  0  0
 37  6  1  0  0  0  0
 37 43  1  0  0  0  0
 38 41  2  0  0  0  0
 39 40  1  0  0  0  0
 40 45  1  1  0  0  0
 41 42  1  0  0  0  0
 41 43  1  0  0  0  0
 42 40  1  0  0  0  0
 43 39  2  0  0  0  0
 45 44  1  0  0  0  0
M  END
>  <MODEL>
1

>  <REMARK>
 VINA RESULT:      -6.5      0.000      0.000
  Name = 
  17 active torsions:
  status: ('A' for Active; 'I' for Inactive)
    1  A    between atoms: C_2  and  C_17
    2  A    between atoms: N_4  and  C_9
    3  A    between atoms: N_4  and  N_29
    4  A    between atoms: C_6  and  N_18
    5  A    between atoms: C_6  and  N_29
    6  A    between atoms: C_7  and  C_14
    7  A    between atoms: C_7  and  C_43
    8  A    between atoms: C_9  and  C_12
    9  A    between atoms: N_13  and  C_14
   10  A    between atoms: C_14  and  C_17
   11  A    between atoms: N_18  and  O_30
   12  A    between atoms: C_20  and  O_30
   13  A    between atoms: C_22  and  C_27
   14  A    between atoms: N_33  and  C_35
   15  A    between atoms: C_35  and  C_41
   16  A    between atoms: C_38  and  O_44
   17  A    between atoms: C_40  and  O_44
                            x       y       z     vdW  Elec       q    Type
                         _______ _______ _______ _____ _____    ______ ____

>  <TORSDO>
F 17

$$$$
=
 OpenBabel11042414153D

 45 49  0  0  1  0  0  0  0  0999 V2000
  188.9930  177.2630  142.2860 C   0  0  0  0  0  0  0  0  0  0  0  0
  190.2040  175.1560  142.2550 C   0  0  0  0  0  0  0  0  0  0  0  0
  191.2710  175.7460  143.0010 N   0  0  0  0  0  0  0  0  0  0  0  0
  190.3080  173.9100  141.8920 N   0  0  0  0  0  0  0  0  0  0  0  0
  189.0450  175.9880  141.9010 C   0  0  0  0  0  3  0  0  0  0  0  0
  191.2630  176.9890  143.3880 C   0  0  0  0  0  0  0  0  0  0  0  0
  190.1070  177.9060  143.0710 C   0  0  0  0  0  2  0  0  0  0  0  0
  189.0840  171.9430  141.4770 O   0  0  0  0  0  0  0  0  0  0  0  0
  189.3520  173.1310  141.1520 C   0  0  0  0  0  0  0  0  0  0  0  0
  189.4740  173.6260  138.6740 C   0  0  1  0  0  3  0  0  0  0  0  0
  188.4050  172.6540  138.9530 N   0  0  0  0  0  2  0  0  0  0  0  0
  188.6960  173.7150  139.9330 C   0  0  1  0  0  3  0  0  0  0  0  0
  190.8430  172.9430  138.7760 C   0  0  2  0  0  3  0  0  0  0  0  0
  191.8320  173.8690  138.4400 O   0  0  0  0  0  1  0  0  0  0  0  0
  190.9230  171.7300  137.8420 C   0  0  1  0  0  3  0  0  0  0  0  0
  191.8760  171.9750  136.7650 N   0  0  0  0  0  2  0  0  0  0  0  0
  191.3530  171.4220  135.6450 O   0  0  0  0  0  1  0  0  0  0  0  0
  191.3110  170.4650  138.6100 C   0  0  2  0  0  3  0  0  0  0  0  0
  190.1840  169.6800  138.8740 O   0  0  0  0  0  1  0  0  0  0  0  0
  191.8390  169.7520  140.8170 O   0  0  0  0  0  0  0  0  0  0  0  0
  193.0940  169.8370  140.1840 C   0  0  0  0  0  2  0  0  0  0  0  0
  192.0160  170.8110  139.9110 C   0  0  1  0  0  3  0  0  0  0  0  0
  187.8230  178.1000  141.8960 C   0  0  0  0  0  2  0  0  0  0  0  0
  186.9250  177.3350  141.0500 N   0  0  0  0  0  2  0  0  0  0  0  0
  185.7310  178.0640  140.9710 N   0  0  0  0  0  2  0  0  0  0  0  0
  185.6580  178.8740  142.1740 C   0  0  0  0  0  2  0  0  0  0  0  0
  184.3850  178.6530  142.8390 N   0  0  0  0  0  2  0  0  0  0  0  0
  184.5160  177.5280  143.5840 O   0  0  0  0  0  0  0  0  0  0  0  0
  187.1660  177.3150  147.3680 C   0  0  0  0  0  2  0  0  0  0  0  0
  185.8310  177.9450  147.7670 C   0  0  0  0  0  2  0  0  0  0  0  0
  186.0920  176.6570  145.1440 C   0  0  0  0  0  2  0  0  0  0  0  0
  185.3640  177.8930  144.6310 C   0  0  2  0  0  3  0  0  0  0  0  0
  185.4210  179.0950  146.8590 C   0  0  0  0  0  2  0  0  0  0  0  0
  187.3660  177.0770  145.8680 C   0  0  2  0  0  3  0  0  0  0  0  0
  188.4300  176.0150  145.6710 C   0  0  0  0  0  1  0  0  0  0  0  0
  184.5440  178.5650  145.7300 C   0  0  0  0  0  2  0  0  0  0  0  0
  192.3300  177.5240  144.1250 O   0  0  0  0  0  0  0  0  0  0  0  0
  191.7550  176.5760  146.8880 O   0  0  0  0  0  0  0  0  0  0  0  0
  194.4260  176.4000  144.7080 C   0  0  0  0  0  3  0  0  0  0  0  0
  194.9800  175.6650  145.9060 C   0  0  1  0  0  3  0  0  0  0  0  0
  192.8510  176.3790  146.3040 C   0  0  0  0  0  0  0  0  0  0  0  0
  193.9150  175.6980  146.8550 O   0  0  0  0  0  0  0  0  0  0  0  0
  193.1880  176.8060  144.9710 C   0  0  0  0  0  0  0  0  0  0  0  0
  196.6870  173.8570  145.9870 C   0  0  0  0  0  1  0  0  0  0  0  0
  195.2940  174.2290  145.5210 C   0  0  0  0  0  2  0  0  0  0  0  0
  1  7  1  0  0  0  0
  2  3  1  0  0  0  0
  3  6  2  0  0  0  0
  4  2  2  0  0  0  0
  5  2  1  0  0  0  0
  5  1  2  0  0  0  0
  6 37  1  0  0  0  0
  7  6  1  0  0  0  0
  9  8  2  0  0  0  0
  9  4  1  0  0  0  0
 10 13  1  1  0  0  0
 10 11  1  0  0  0  0
 10 12  1  0  0  0  0
 11 12  1  0  0  0  0
 12  9  1  1  0  0  0
 13 14  1  6  0  0  0
 15 16  1  6  0  0  0
 15 18  1  0  0  0  0
 15 13  1  0  0  0  0
 17 16  1  0  0  0  0
 18 19  1  1  0  0  0
 21 20  1  0  0  0  0
 22 18  1  6  0  0  0
 22 21  1  0  0  0  0
 22 20  1  0  0  0  0
 23  1  1  0  0  0  0
 24 23  1  0  0  0  0
 25 24  1  0  0  0  0
 25 26  1  0  0  0  0
 26 27  1  0  0  0  0
 27 28  1  0  0  0  0
 29 30  1  0  0  0  0
 31 34  1  0  0  0  0
 32 28  1  6  0  0  0
 32 31  1  0  0  0  0
 32 36  1  0  0  0  0
 33 30  1  0  0  0  0
 34 35  1  1  0  0  0
 34 29  1  0  0  0  0
 36 33  1  0  0  0  0
 37 43  1  0  0  0  0
 39 43  2  0  0  0  0
 39 40  1  0  0  0  0
 40 45  1  6  0  0  0
 40 42  1  0  0  0  0
 41 42  1  0  0  0  0
 41 38  2  0  0  0  0
 43 41  1  0  0  0  0
 45 44  1  0  0  0  0
M  END
>  <MODEL>
2

>  <REMARK>
 VINA RESULT:      -6.4      2.157      6.996
  Name = 
  17 active torsions:
  status: ('A' for Active; 'I' for Inactive)
    1  A    between atoms: C_2  and  C_17
    2  A    between atoms: N_4  and  C_9
    3  A    between atoms: N_4  and  N_29
    4  A    between atoms: C_6  and  N_18
    5  A    between atoms: C_6  and  N_29
    6  A    between atoms: C_7  and  C_14
    7  A    between atoms: C_7  and  C_43
    8  A    between atoms: C_9  and  C_12
    9  A    between atoms: N_13  and  C_14
   10  A    between atoms: C_14  and  C_17
   11  A    between atoms: N_18  and  O_30
   12  A    between atoms: C_20  and  O_30
   13  A    between atoms: C_22  and  C_27
   14  A    between atoms: N_33  and  C_35
   15  A    between atoms: C_35  and  C_41
   16  A    between atoms: C_38  and  O_44
   17  A    between atoms: C_40  and  O_44
                            x       y       z     vdW  Elec       q    Type
                         _______ _______ _______ _____ _____    ______ ____

>  <TORSDO>
F 17

$$$$
=
 OpenBabel11042414153D

 45 49  0  0  1  0  0  0  0  0999 V2000
  191.1880  176.9020  142.9280 C   0  0  0  0  0  0  0  0  0  0  0  0
  189.7400  175.3110  141.7960 C   0  0  0  0  0  0  0  0  0  0  0  0
  188.6400  176.2180  141.9050 N   0  0  0  0  0  0  0  0  0  0  0  0
  189.5430  174.1520  141.2350 N   0  0  0  0  0  0  0  0  0  0  0  0
  191.0420  175.7090  142.3510 C   0  0  0  0  0  3  0  0  0  0  0  0
  188.7390  177.3880  142.4680 C   0  0  0  0  0  0  0  0  0  0  0  0
  190.0420  177.8730  143.0540 C   0  0  0  0  0  2  0  0  0  0  0  0
  191.7370  173.3660  140.9030 O   0  0  0  0  0  0  0  0  0  0  0  0
  190.5080  173.1090  141.0190 C   0  0  0  0  0  0  0  0  0  0  0  0
  189.6630  171.2710  139.5000 C   0  0  1  0  0  3  0  0  0  0  0  0
  190.9930  170.9300  140.0290 N   0  0  0  0  0  2  0  0  0  0  0  0
  190.0480  171.6860  140.8700 C   0  0  1  0  0  3  0  0  0  0  0  0
  189.7910  172.3420  138.4110 C   0  0  2  0  0  3  0  0  0  0  0  0
  188.5110  172.7430  138.0240 O   0  0  0  0  0  1  0  0  0  0  0  0
  190.5600  171.8060  137.1980 C   0  0  1  0  0  3  0  0  0  0  0  0
  189.7000  171.7710  136.0210 N   0  0  0  0  0  2  0  0  0  0  0  0
  190.3820  171.1080  135.0560 O   0  0  0  0  0  1  0  0  0  0  0  0
  191.8050  172.6480  136.9150 C   0  0  2  0  0  3  0  0  0  0  0  0
  192.9290  172.0980  137.5390 O   0  0  0  0  0  1  0  0  0  0  0  0
  192.7900  174.8030  137.1270 O   0  0  0  0  0  0  0  0  0  0  0  0
  191.7260  175.0090  136.2270 C   0  0  0  0  0  2  0  0  0  0  0  0
  191.6080  174.0830  137.3740 C   0  0  1  0  0  3  0  0  0  0  0  0
  192.5080  177.2800  143.5090 C   0  0  0  0  0  2  0  0  0  0  0  0
  193.5280  176.3420  143.0750 N   0  0  0  0  0  2  0  0  0  0  0  0
  194.5310  176.3610  144.0520 N   0  0  0  0  0  2  0  0  0  0  0  0
  194.8880  174.9770  144.3100 C   0  0  0  0  0  2  0  0  0  0  0  0
  193.7950  174.3060  144.9920 N   0  0  0  0  0  2  0  0  0  0  0  0
  193.7790  174.7670  146.2670 O   0  0  0  0  0  0  0  0  0  0  0  0
  189.1830  175.1240  145.9090 C   0  0  0  0  0  2  0  0  0  0  0  0
  189.7250  176.4860  146.3460 C   0  0  0  0  0  2  0  0  0  0  0  0
  191.5870  174.4270  145.3960 C   0  0  0  0  0  2  0  0  0  0  0  0
  192.4260  174.8440  146.5990 C   0  0  2  0  0  3  0  0  0  0  0  0
  190.6620  176.3970  147.5410 C   0  0  0  0  0  2  0  0  0  0  0  0
  190.2060  173.9850  145.8640 C   0  0  2  0  0  3  0  0  0  0  0  0
  189.6910  172.8900  144.9500 C   0  0  0  0  0  1  0  0  0  0  0  0
  192.1000  176.2650  147.0520 C   0  0  0  0  0  2  0  0  0  0  0  0
  187.6350  178.2490  142.5460 O   0  0  0  0  0  0  0  0  0  0  0  0
  184.7430  177.8400  141.9670 O   0  0  0  0  0  0  0  0  0  0  0  0
  186.6750  178.2400  144.7990 C   0  0  0  0  0  3  0  0  0  0  0  0
  185.2990  178.1010  145.4040 C   0  0  1  0  0  3  0  0  0  0  0  0
  185.2030  177.9690  143.1300 C   0  0  0  0  0  0  0  0  0  0  0  0
  184.4410  177.9280  144.2770 O   0  0  0  0  0  0  0  0  0  0  0  0
  186.5870  178.1620  143.4750 C   0  0  0  0  0  0  0  0  0  0  0  0
  186.2580  176.9980  147.4170 C   0  0  0  0  0  1  0  0  0  0  0  0
  185.2550  176.8670  146.2890 C   0  0  0  0  0  2  0  0  0  0  0  0
  1  7  1  0  0  0  0
  1 23  1  0  0  0  0
  2  3  1  0  0  0  0
  2  5  1  0  0  0  0
  3  6  2  0  0  0  0
  4  2  2  0  0  0  0
  5  1  2  0  0  0  0
  6 37  1  0  0  0  0
  6  7  1  0  0  0  0
  8  9  2  0  0  0  0
  9  4  1  0  0  0  0
 10 13  1  6  0  0  0
 10 11  1  0  0  0  0
 10 12  1  0  0  0  0
 11 12  1  0  0  0  0
 12  9  1  6  0  0  0
 13 14  1  6  0  0  0
 15 16  1  6  0  0  0
 15 13  1  0  0  0  0
 17 16  1  0  0  0  0
 18 15  1  0  0  0  0
 18 19  1  1  0  0  0
 20 22  1  0  0  0  0
 21 20  1  0  0  0  0
 21 22  1  0  0  0  0
 22 18  1  6  0  0  0
 24 23  1  0  0  0  0
 24 25  1  0  0  0  0
 25 26  1  0  0  0  0
 26 27  1  0  0  0  0
 27 28  1  0  0  0  0
 29 30  1  0  0  0  0
 30 33  1  0  0  0  0
 31 34  1  0  0  0  0
 31 32  1  0  0  0  0
 32 28  1  6  0  0  0
 32 36  1  0  0  0  0
 34 35  1  6  0  0  0
 34 29  1  0  0  0  0
 36 33  1  0  0  0  0
 37 43  1  0  0  0  0
 38 41  2  0  0  0  0
 39 40  1  0  0  0  0
 40 45  1  1  0  0  0
 41 43  1  0  0  0  0
 41 42  1  0  0  0  0
 42 40  1  0  0  0  0
 43 39  2  0  0  0  0
 45 44  1  0  0  0  0
M  END
>  <MODEL>
3

>  <REMARK>
 VINA RESULT:      -6.2      1.770      3.209
  Name = 
  17 active torsions:
  status: ('A' for Active; 'I' for Inactive)
    1  A    between atoms: C_2  and  C_17
    2  A    between atoms: N_4  and  C_9
    3  A    between atoms: N_4  and  N_29
    4  A    between atoms: C_6  and  N_18
    5  A    between atoms: C_6  and  N_29
    6  A    between atoms: C_7  and  C_14
    7  A    between atoms: C_7  and  C_43
    8  A    between atoms: C_9  and  C_12
    9  A    between atoms: N_13  and  C_14
   10  A    between atoms: C_14  and  C_17
   11  A    between atoms: N_18  and  O_30
   12  A    between atoms: C_20  and  O_30
   13  A    between atoms: C_22  and  C_27
   14  A    between atoms: N_33  and  C_35
   15  A    between atoms: C_35  and  C_41
   16  A    between atoms: C_38  and  O_44
   17  A    between atoms: C_40  and  O_44
                            x       y       z     vdW  Elec       q    Type
                         _______ _______ _______ _____ _____    ______ ____

>  <TORSDO>
F 17

$$$$
=
 OpenBabel11042414153D

 45 49  0  0  1  0  0  0  0  0999 V2000
  188.7330  175.0740  142.9020 C   0  0  0  0  0  0  0  0  0  0  0  0
  188.1980  175.1590  140.5320 C   0  0  0  0  0  0  0  0  0  0  0  0
  187.5090  176.3980  140.7220 N   0  0  0  0  0  0  0  0  0  0  0  0
  188.2340  174.6380  139.3390 N   0  0  0  0  0  0  0  0  0  0  0  0
  188.8100  174.5060  141.6980 C   0  0  0  0  0  3  0  0  0  0  0  0
  187.4040  176.9800  141.8810 C   0  0  0  0  0  0  0  0  0  0  0  0
  188.0120  176.3780  143.1240 C   0  0  0  0  0  2  0  0  0  0  0  0
  188.4890  172.2990  139.3700 O   0  0  0  0  0  0  0  0  0  0  0  0
  188.8770  173.4170  138.9360 C   0  0  0  0  0  0  0  0  0  0  0  0
  191.3920  173.3100  138.6810 C   0  0  1  0  0  3  0  0  0  0  0  0
  190.7570  172.1630  138.0120 N   0  0  0  0  0  2  0  0  0  0  0  0
  190.0710  173.4680  138.0260 C   0  0  1  0  0  3  0  0  0  0  0  0
  191.3690  173.1080  140.2010 C   0  0  2  0  0  3  0  0  0  0  0  0
  191.9700  174.2130  140.8080 O   0  0  0  0  0  1  0  0  0  0  0  0
  192.1110  171.8270  140.5970 C   0  0  1  0  0  3  0  0  0  0  0  0
  193.5260  172.1000  140.8150 N   0  0  0  0  0  2  0  0  0  0  0  0
  194.1750  171.7380  139.6820 O   0  0  0  0  0  1  0  0  0  0  0  0
  191.4970  171.1980  141.8500 C   0  0  2  0  0  3  0  0  0  0  0  0
  190.1130  171.3950  141.8770 O   0  0  0  0  0  1  0  0  0  0  0  0
  191.3280  171.4160  144.2120 O   0  0  0  0  0  0  0  0  0  0  0  0
  192.5120  170.6760  144.0290 C   0  0  0  0  0  2  0  0  0  0  0  0
  192.1260  171.7680  143.1100 C   0  0  1  0  0  3  0  0  0  0  0  0
  189.3380  174.3860  144.0780 C   0  0  0  0  0  2  0  0  0  0  0  0
  190.0340  175.3480  144.9130 N   0  0  0  0  0  2  0  0  0  0  0  0
  189.6400  175.0920  146.2320 N   0  0  0  0  0  2  0  0  0  0  0  0
  190.6550  175.6760  147.0910 C   0  0  0  0  0  2  0  0  0  0  0  0
  191.9310  175.0200  146.8600 N   0  0  0  0  0  2  0  0  0  0  0  0
  192.8540  175.9970  146.6830 O   0  0  0  0  0  0  0  0  0  0  0  0
  196.5890  175.0850  144.1160 C   0  0  0  0  0  2  0  0  0  0  0  0
  195.8460  176.2510  143.4620 C   0  0  0  0  0  2  0  0  0  0  0  0
  195.1030  175.4010  146.1700 C   0  0  0  0  0  2  0  0  0  0  0  0
  193.6740  175.5290  145.6560 C   0  0  2  0  0  3  0  0  0  0  0  0
  194.3640  175.9730  143.2610 C   0  0  0  0  0  2  0  0  0  0  0  0
  195.8750  174.4200  145.2960 C   0  0  2  0  0  3  0  0  0  0  0  0
  196.8940  173.6840  146.1440 C   0  0  0  0  0  1  0  0  0  0  0  0
  193.5830  176.4820  144.4670 C   0  0  0  0  0  2  0  0  0  0  0  0
  186.7250  178.2000  142.0190 O   0  0  0  0  0  0  0  0  0  0  0  0
  183.7610  178.0390  141.8010 O   0  0  0  0  0  0  0  0  0  0  0  0
  186.0250  178.9320  144.2480 C   0  0  0  0  0  3  0  0  0  0  0  0
  184.7170  179.1480  144.9710 C   0  0  1  0  0  3  0  0  0  0  0  0
  184.3570  178.4170  142.8420 C   0  0  0  0  0  0  0  0  0  0  0  0
  183.7260  178.7910  144.0080 O   0  0  0  0  0  0  0  0  0  0  0  0
  185.7840  178.5100  143.0120 C   0  0  0  0  0  0  0  0  0  0  0  0
  185.2960  178.8630  147.3740 C   0  0  0  0  0  1  0  0  0  0  0  0
  184.6390  178.2190  146.1700 C   0  0  0  0  0  2  0  0  0  0  0  0
  1  7  1  0  0  0  0
  1 23  1  0  0  0  0
  2  3  1  0  0  0  0
  2  5  1  0  0  0  0
  3  6  2  0  0  0  0
  4  2  2  0  0  0  0
  5  1  2  0  0  0  0
  6 37  1  0  0  0  0
  6  7  1  0  0  0  0
  9  4  1  0  0  0  0
  9  8  2  0  0  0  0
 10 13  1  1  0  0  0
 11 12  1  0  0  0  0
 11 10  1  0  0  0  0
 12 10  1  0  0  0  0
 12  9  1  1  0  0  0
 13 15  1  0  0  0  0
 13 14  1  1  0  0  0
 15 16  1  1  0  0  0
 15 18  1  0  0  0  0
 17 16  1  0  0  0  0
 18 19  1  1  0  0  0
 21 20  1  0  0  0  0
 22 18  1  6  0  0  0
 22 21  1  0  0  0  0
 22 20  1  0  0  0  0
 23 24  1  0  0  0  0
 24 25  1  0  0  0  0
 25 26  1  0  0  0  0
 27 26  1  0  0  0  0
 28 27  1  0  0  0  0
 29 34  1  0  0  0  0
 30 29  1  0  0  0  0
 32 31  1  0  0  0  0
 32 28  1  1  0  0  0
 33 30  1  0  0  0  0
 33 36  1  0  0  0  0
 34 35  1  1  0  0  0
 34 31  1  0  0  0  0
 36 32  1  0  0  0  0
 37 43  1  0  0  0  0
 38 41  2  0  0  0  0
 39 40  1  0  0  0  0
 40 45  1  1  0  0  0
 41 43  1  0  0  0  0
 41 42  1  0  0  0  0
 42 40  1  0  0  0  0
 43 39  2  0  0  0  0
 45 44  1  0  0  0  0
M  END
>  <MODEL>
4

>  <REMARK>
 VINA RESULT:      -6.1      1.677      2.963
  Name = 
  17 active torsions:
  status: ('A' for Active; 'I' for Inactive)
    1  A    between atoms: C_2  and  C_17
    2  A    between atoms: N_4  and  C_9
    3  A    between atoms: N_4  and  N_29
    4  A    between atoms: C_6  and  N_18
    5  A    between atoms: C_6  and  N_29
    6  A    between atoms: C_7  and  C_14
    7  A    between atoms: C_7  and  C_43
    8  A    between atoms: C_9  and  C_12
    9  A    between atoms: N_13  and  C_14
   10  A    between atoms: C_14  and  C_17
   11  A    between atoms: N_18  and  O_30
   12  A    between atoms: C_20  and  O_30
   13  A    between atoms: C_22  and  C_27
   14  A    between atoms: N_33  and  C_35
   15  A    between atoms: C_35  and  C_41
   16  A    between atoms: C_38  and  O_44
   17  A    between atoms: C_40  and  O_44
                            x       y       z     vdW  Elec       q    Type
                         _______ _______ _______ _____ _____    ______ ____

>  <TORSDO>
F 17

$$$$
=
 OpenBabel11042414153D

 45 49  0  0  1  0  0  0  0  0999 V2000
  189.8710  174.8590  146.4110 C   0  0  0  0  0  0  0  0  0  0  0  0
  190.8050  174.0810  144.3060 C   0  0  0  0  0  0  0  0  0  0  0  0
  192.1150  174.4600  144.7360 N   0  0  0  0  0  0  0  0  0  0  0  0
  190.6590  173.5670  143.1190 N   0  0  0  0  0  0  0  0  0  0  0  0
  189.6700  174.3170  145.2110 C   0  0  0  0  0  3  0  0  0  0  0  0
  192.3520  174.9990  145.8970 C   0  0  0  0  0  0  0  0  0  0  0  0
  191.2430  175.2670  146.8840 C   0  0  0  0  0  2  0  0  0  0  0  0
  188.9420  171.9910  142.7880 O   0  0  0  0  0  0  0  0  0  0  0  0
  189.4410  173.1140  142.5050 C   0  0  0  0  0  0  0  0  0  0  0  0
  189.3040  173.8370  140.0840 C   0  0  1  0  0  3  0  0  0  0  0  0
  188.0840  173.1110  140.4740 N   0  0  0  0  0  2  0  0  0  0  0  0
  188.7700  173.9630  141.4620 C   0  0  1  0  0  3  0  0  0  0  0  0
  190.4630  172.8510  139.8990 C   0  0  2  0  0  3  0  0  0  0  0  0
  191.5930  173.5620  139.4890 O   0  0  0  0  0  1  0  0  0  0  0  0
  190.1140  171.7790  138.8610 C   0  0  1  0  0  3  0  0  0  0  0  0
  190.4430  172.2410  137.5170 N   0  0  0  0  0  2  0  0  0  0  0  0
  189.2690  172.4840  136.8870 O   0  0  0  0  0  1  0  0  0  0  0  0
  190.8390  170.4650  139.1570 C   0  0  2  0  0  3  0  0  0  0  0  0
  190.1230  169.3770  138.6480 O   0  0  0  0  0  1  0  0  0  0  0  0
  191.4390  168.9580  140.8970 O   0  0  0  0  0  0  0  0  0  0  0  0
  192.4640  169.9230  140.9230 C   0  0  0  0  0  2  0  0  0  0  0  0
  191.0570  170.2880  140.6510 C   0  0  1  0  0  3  0  0  0  0  0  0
  188.7060  175.1150  147.3050 C   0  0  0  0  0  2  0  0  0  0  0  0
  187.8690  176.1610  146.7440 N   0  0  0  0  0  2  0  0  0  0  0  0
  186.7950  176.3310  147.6260 N   0  0  0  0  0  2  0  0  0  0  0  0
  186.1540  177.5830  147.2660 C   0  0  0  0  0  2  0  0  0  0  0  0
  185.0080  177.3220  146.4120 N   0  0  0  0  0  2  0  0  0  0  0  0
  184.8980  178.3720  145.5620 O   0  0  0  0  0  0  0  0  0  0  0  0
  187.0980  177.8340  141.5300 C   0  0  0  0  0  2  0  0  0  0  0  0
  185.7320  178.4590  141.2380 C   0  0  0  0  0  2  0  0  0  0  0  0
  186.7010  178.3340  144.0050 C   0  0  0  0  0  2  0  0  0  0  0  0
  185.2860  177.8650  144.3210 C   0  0  2  0  0  3  0  0  0  0  0  0
  184.5830  177.7090  141.8930 C   0  0  0  0  0  2  0  0  0  0  0  0
  187.3330  177.3990  142.9800 C   0  0  2  0  0  3  0  0  0  0  0  0
  188.8240  177.3060  143.2350 C   0  0  0  0  0  1  0  0  0  0  0  0
  184.2880  178.3200  143.2590 C   0  0  0  0  0  2  0  0  0  0  0  0
  193.6560  175.3480  146.2790 O   0  0  0  0  0  0  0  0  0  0  0  0
  195.9680  173.5300  145.8220 O   0  0  0  0  0  0  0  0  0  0  0  0
  194.9500  176.6010  144.6200 C   0  0  0  0  0  3  0  0  0  0  0  0
  196.2450  176.4090  143.8660 C   0  0  1  0  0  3  0  0  0  0  0  0
  195.8340  174.6360  145.2400 C   0  0  0  0  0  0  0  0  0  0  0  0
  196.7240  175.1430  144.3170 O   0  0  0  0  0  0  0  0  0  0  0  0
  194.7400  175.5560  145.4130 C   0  0  0  0  0  0  0  0  0  0  0  0
  196.6950  175.1940  141.7430 C   0  0  0  0  0  1  0  0  0  0  0  0
  195.9620  176.3600  142.3740 C   0  0  0  0  0  2  0  0  0  0  0  0
  1  7  1  0  0  0  0
  1 23  1  0  0  0  0
  2  3  1  0  0  0  0
  2  5  1  0  0  0  0
  3  6  2  0  0  0  0
  4  2  2  0  0  0  0
  5  1  2  0  0  0  0
  6 37  1  0  0  0  0
  6  7  1  0  0  0  0
  9  8  2  0  0  0  0
  9  4  1  0  0  0  0
 10 13  1  1  0  0  0
 10 11  1  0  0  0  0
 10 12  1  0  0  0  0
 11 12  1  0  0  0  0
 12  9  1  1  0  0  0
 13 14  1  6  0  0  0
 15 16  1  6  0  0  0
 15 18  1  0  0  0  0
 15 13  1  0  0  0  0
 17 16  1  0  0  0  0
 18 19  1  1  0  0  0
 20 21  1  0  0  0  0
 22 18  1  6  0  0  0
 22 20  1  0  0  0  0
 22 21  1  0  0  0  0
 24 23  1  0  0  0  0
 24 25  1  0  0  0  0
 26 25  1  0  0  0  0
 27 26  1  0  0  0  0
 28 27  1  0  0  0  0
 29 34  1  0  0  0  0
 30 29  1  0  0  0  0
 30 33  1  0  0  0  0
 31 32  1  0  0  0  0
 32 28  1  1  0  0  0
 33 36  1  0  0  0  0
 34 35  1  1  0  0  0
 34 31  1  0  0  0  0
 36 32  1  0  0  0  0
 39 43  2  0  0  0  0
 40 45  1  6  0  0  0
 40 42  1  0  0  0  0
 40 39  1  0  0  0  0
 41 43  1  0  0  0  0
 41 38  2  0  0  0  0
 42 41  1  0  0  0  0
 43 37  1  0  0  0  0
 44 45  1  0  0  0  0
M  END
>  <MODEL>
5

>  <REMARK>
 VINA RESULT:      -6.1      2.207      7.258
  Name = 
  17 active torsions:
  status: ('A' for Active; 'I' for Inactive)
    1  A    between atoms: C_2  and  C_17
    2  A    between atoms: N_4  and  C_9
    3  A    between atoms: N_4  and  N_29
    4  A    between atoms: C_6  and  N_18
    5  A    between atoms: C_6  and  N_29
    6  A    between atoms: C_7  and  C_14
    7  A    between atoms: C_7  and  C_43
    8  A    between atoms: C_9  and  C_12
    9  A    between atoms: N_13  and  C_14
   10  A    between atoms: C_14  and  C_17
   11  A    between atoms: N_18  and  O_30
   12  A    between atoms: C_20  and  O_30
   13  A    between atoms: C_22  and  C_27
   14  A    between atoms: N_33  and  C_35
   15  A    between atoms: C_35  and  C_41
   16  A    between atoms: C_38  and  O_44
   17  A    between atoms: C_40  and  O_44
                            x       y       z     vdW  Elec       q    Type
                         _______ _______ _______ _____ _____    ______ ____

>  <TORSDO>
F 17

$$$$
=
 OpenBabel11042414153D

 45 49  0  0  1  0  0  0  0  0999 V2000
  188.7650  175.6310  142.0510 C   0  0  0  0  0  0  0  0  0  0  0  0
  190.8160  174.3270  142.0410 C   0  0  0  0  0  0  0  0  0  0  0  0
  191.3900  175.2010  143.0150 N   0  0  0  0  0  0  0  0  0  0  0  0
  191.5320  173.3380  141.5880 N   0  0  0  0  0  0  0  0  0  0  0  0
  189.4510  174.5970  141.5660 C   0  0  0  0  0  3  0  0  0  0  0  0
  190.7560  176.2260  143.5080 C   0  0  0  0  0  0  0  0  0  0  0  0
  189.3500  176.5660  143.0780 C   0  0  0  0  0  2  0  0  0  0  0  0
  191.5430  172.4020  139.4280 O   0  0  0  0  0  0  0  0  0  0  0  0
  191.1430  172.3460  140.6220 C   0  0  0  0  0  0  0  0  0  0  0  0
  190.8230  170.0130  141.5470 C   0  0  1  0  0  3  0  0  0  0  0  0
  190.2690  171.0140  142.4720 N   0  0  0  0  0  2  0  0  0  0  0  0
  190.1960  171.2490  141.0190 C   0  0  1  0  0  3  0  0  0  0  0  0
  192.3530  170.0150  141.6270 C   0  0  2  0  0  3  0  0  0  0  0  0
  192.8360  168.8610  141.0060 O   0  0  0  0  0  1  0  0  0  0  0  0
  192.8290  170.0640  143.0830 C   0  0  1  0  0  3  0  0  0  0  0  0
  193.1890  168.7300  143.5490 N   0  0  0  0  0  2  0  0  0  0  0  0
  193.0080  168.7200  144.8910 O   0  0  0  0  0  1  0  0  0  0  0  0
  194.0140  171.0170  143.2470 C   0  0  2  0  0  3  0  0  0  0  0  0
  193.6440  172.1460  143.9850 O   0  0  0  0  0  1  0  0  0  0  0  0
  195.6100  172.3570  142.1000 O   0  0  0  0  0  0  0  0  0  0  0  0
  195.9830  171.0380  141.7720 C   0  0  0  0  0  2  0  0  0  0  0  0
  194.5650  171.4390  141.8950 C   0  0  1  0  0  3  0  0  0  0  0  0
  187.3920  175.9060  141.5400 C   0  0  0  0  0  2  0  0  0  0  0  0
  187.4360  176.9570  140.5390 N   0  0  0  0  0  2  0  0  0  0  0  0
  186.8890  178.1010  141.1350 N   0  0  0  0  0  2  0  0  0  0  0  0
  185.4470  177.9800  141.0210 C   0  0  0  0  0  2  0  0  0  0  0  0
  184.8210  178.3500  142.2790 N   0  0  0  0  0  2  0  0  0  0  0  0
  184.9280  177.2800  143.1060 O   0  0  0  0  0  0  0  0  0  0  0  0
  186.3710  177.6430  147.4840 C   0  0  0  0  0  2  0  0  0  0  0  0
  185.0180  178.3490  147.3780 C   0  0  0  0  0  2  0  0  0  0  0  0
  185.9380  176.6490  145.1700 C   0  0  0  0  0  2  0  0  0  0  0  0
  185.4630  177.7970  144.2870 C   0  0  2  0  0  3  0  0  0  0  0  0
  184.9560  179.3430  146.2270 C   0  0  0  0  0  2  0  0  0  0  0  0
  186.9750  177.1620  146.1610 C   0  0  2  0  0  3  0  0  0  0  0  0
  187.9850  176.0670  146.4460 C   0  0  0  0  0  1  0  0  0  0  0  0
  184.4070  178.6500  144.9850 C   0  0  0  0  0  2  0  0  0  0  0  0
  191.3560  177.0540  144.4690 O   0  0  0  0  0  0  0  0  0  0  0  0
  191.4200  176.0870  147.2840 O   0  0  0  0  0  0  0  0  0  0  0  0
  193.7620  176.8050  144.8530 C   0  0  0  0  0  3  0  0  0  0  0  0
  194.6520  176.3800  145.9960 C   0  0  1  0  0  3  0  0  0  0  0  0
  192.4550  176.2800  146.5970 C   0  0  0  0  0  0  0  0  0  0  0  0
  193.7400  176.0620  147.0460 O   0  0  0  0  0  0  0  0  0  0  0  0
  192.4910  176.7390  145.2330 C   0  0  0  0  0  0  0  0  0  0  0  0
  195.8750  175.2480  144.1490 C   0  0  0  0  0  1  0  0  0  0  0  0
  195.4390  175.1440  145.5960 C   0  0  0  0  0  2  0  0  0  0  0  0
  1  7  1  0  0  0  0
  2  3  1  0  0  0  0
  3  6  2  0  0  0  0
  4  2  2  0  0  0  0
  5  2  1  0  0  0  0
  5  1  2  0  0  0  0
  6 37  1  0  0  0  0
  7  6  1  0  0  0  0
  8  9  2  0  0  0  0
  9  4  1  0  0  0  0
 10 13  1  1  0  0  0
 10 11  1  0  0  0  0
 12  9  1  1  0  0  0
 12 10  1  0  0  0  0
 12 11  1  0  0  0  0
 13 14  1  1  0  0  0
 13 15  1  0  0  0  0
 15 18  1  0  0  0  0
 15 16  1  6  0  0  0
 16 17  1  0  0  0  0
 18 19  1  6  0  0  0
 21 22  1  0  0  0  0
 21 20  1  0  0  0  0
 22 20  1  0  0  0  0
 22 18  1  1  0  0  0
 23  1  1  0  0  0  0
 24 25  1  0  0  0  0
 24 23  1  0  0  0  0
 26 25  1  0  0  0  0
 26 27  1  0  0  0  0
 27 28  1  0  0  0  0
 30 29  1  0  0  0  0
 31 34  1  0  0  0  0
 32 28  1  6  0  0  0
 32 36  1  0  0  0  0
 32 31  1  0  0  0  0
 33 30  1  0  0  0  0
 34 35  1  1  0  0  0
 34 29  1  0  0  0  0
 36 33  1  0  0  0  0
 37 43  1  0  0  0  0
 39 43  2  0  0  0  0
 39 40  1  0  0  0  0
 40 45  1  6  0  0  0
 40 42  1  0  0  0  0
 41 42  1  0  0  0  0
 41 38  2  0  0  0  0
 43 41  1  0  0  0  0
 44 45  1  0  0  0  0
M  END
>  <MODEL>
6

>  <REMARK>
 VINA RESULT:      -6.0      2.535      7.310
  Name = 
  17 active torsions:
  status: ('A' for Active; 'I' for Inactive)
    1  A    between atoms: C_2  and  C_17
    2  A    between atoms: N_4  and  C_9
    3  A    between atoms: N_4  and  N_29
    4  A    between atoms: C_6  and  N_18
    5  A    between atoms: C_6  and  N_29
    6  A    between atoms: C_7  and  C_14
    7  A    between atoms: C_7  and  C_43
    8  A    between atoms: C_9  and  C_12
    9  A    between atoms: N_13  and  C_14
   10  A    between atoms: C_14  and  C_17
   11  A    between atoms: N_18  and  O_30
   12  A    between atoms: C_20  and  O_30
   13  A    between atoms: C_22  and  C_27
   14  A    between atoms: N_33  and  C_35
   15  A    between atoms: C_35  and  C_41
   16  A    between atoms: C_38  and  O_44
   17  A    between atoms: C_40  and  O_44
                            x       y       z     vdW  Elec       q    Type
                         _______ _______ _______ _____ _____    ______ ____

>  <TORSDO>
F 17

$$$$
=
 OpenBabel11042414153D

 45 49  0  0  1  0  0  0  0  0999 V2000
  191.6940  173.4310  144.0210 C   0  0  0  0  0  0  0  0  0  0  0  0
  193.5970  173.9000  145.4580 C   0  0  0  0  0  0  0  0  0  0  0  0
  192.8970  175.0000  146.0440 N   0  0  0  0  0  0  0  0  0  0  0  0
  194.8100  173.6440  145.8580 N   0  0  0  0  0  0  0  0  0  0  0  0
  192.9320  173.1200  144.4050 C   0  0  0  0  0  3  0  0  0  0  0  0
  191.6910  175.3420  145.6920 C   0  0  0  0  0  0  0  0  0  0  0  0
  190.9380  174.5870  144.6250 C   0  0  0  0  0  2  0  0  0  0  0  0
  195.2100  171.4940  144.9880 O   0  0  0  0  0  0  0  0  0  0  0  0
  195.6750  172.5880  145.4090 C   0  0  0  0  0  0  0  0  0  0  0  0
  197.8260  173.2950  144.2800 C   0  0  1  0  0  3  0  0  0  0  0  0
  197.5210  174.1860  145.4110 N   0  0  0  0  0  2  0  0  0  0  0  0
  197.1660  172.7580  145.4940 C   0  0  1  0  0  3  0  0  0  0  0  0
  196.9030  173.6150  143.0980 C   0  0  2  0  0  3  0  0  0  0  0  0
  196.9190  172.5360  142.2120 O   0  0  0  0  0  1  0  0  0  0  0  0
  197.3540  174.8910  142.3770 C   0  0  1  0  0  3  0  0  0  0  0  0
  197.6450  174.6110  140.9760 N   0  0  0  0  0  2  0  0  0  0  0  0
  197.5490  175.7880  140.3130 O   0  0  0  0  0  1  0  0  0  0  0  0
  196.2960  175.9910  142.4860 C   0  0  2  0  0  3  0  0  0  0  0  0
  196.6050  176.8760  143.5240 O   0  0  0  0  0  1  0  0  0  0  0  0
  194.0130  176.4420  142.9800 O   0  0  0  0  0  0  0  0  0  0  0  0
  193.9730  175.9010  141.6800 C   0  0  0  0  0  2  0  0  0  0  0  0
  194.9140  175.3990  142.7040 C   0  0  1  0  0  3  0  0  0  0  0  0
  191.0430  172.6470  142.9330 C   0  0  0  0  0  2  0  0  0  0  0  0
  190.7440  173.5130  141.8070 N   0  0  0  0  0  2  0  0  0  0  0  0
  189.5810  173.0070  141.2120 N   0  0  0  0  0  2  0  0  0  0  0  0
  188.5370  173.0700  142.2190 C   0  0  0  0  0  2  0  0  0  0  0  0
  187.6710  174.2070  141.9580 N   0  0  0  0  0  2  0  0  0  0  0  0
  187.8920  175.1100  142.9460 O   0  0  0  0  0  0  0  0  0  0  0  0
  185.0930  178.5290  141.5840 C   0  0  0  0  0  2  0  0  0  0  0  0
  185.5340  177.7610  140.3370 C   0  0  0  0  0  2  0  0  0  0  0  0
  186.0530  176.6240  142.9910 C   0  0  0  0  0  2  0  0  0  0  0  0
  187.4360  176.3220  142.4260 C   0  0  2  0  0  3  0  0  0  0  0  0
  187.0420  177.5710  140.2590 C   0  0  0  0  0  2  0  0  0  0  0  0
  185.7760  178.1190  142.8920 C   0  0  2  0  0  3  0  0  0  0  0  0
  184.9090  178.5490  144.0600 C   0  0  0  0  0  1  0  0  0  0  0  0
  187.4200  176.2410  140.9020 C   0  0  0  0  0  2  0  0  0  0  0  0
  191.0400  176.4250  146.3000 O   0  0  0  0  0  0  0  0  0  0  0  0
  189.2760  174.4800  147.7030 O   0  0  0  0  0  0  0  0  0  0  0  0
  188.8620  177.5350  146.1490 C   0  0  0  0  0  3  0  0  0  0  0  0
  187.4470  177.2380  146.5860 C   0  0  1  0  0  3  0  0  0  0  0  0
  188.8580  175.5550  147.2030 C   0  0  0  0  0  0  0  0  0  0  0  0
  187.5460  175.9760  147.2460 O   0  0  0  0  0  0  0  0  0  0  0  0
  189.6590  176.5370  146.5190 C   0  0  0  0  0  0  0  0  0  0  0  0
  185.5340  178.6590  147.2980 C   0  0  0  0  0  1  0  0  0  0  0  0
  186.9820  178.3030  147.5640 C   0  0  0  0  0  2  0  0  0  0  0  0
  1  5  2  0  0  0  0
  1  7  1  0  0  0  0
  2  4  2  0  0  0  0
  2  3  1  0  0  0  0
  5  2  1  0  0  0  0
  6  3  2  0  0  0  0
  6 37  1  0  0  0  0
  7  6  1  0  0  0  0
  8  9  2  0  0  0  0
  9  4  1  0  0  0  0
 10 13  1  6  0  0  0
 10 11  1  0  0  0  0
 10 12  1  0  0  0  0
 11 12  1  0  0  0  0
 12  9  1  6  0  0  0
 13 14  1  6  0  0  0
 15 16  1  6  0  0  0
 15 18  1  0  0  0  0
 15 13  1  0  0  0  0
 17 16  1  0  0  0  0
 18 19  1  1  0  0  0
 21 22  1  0  0  0  0
 21 20  1  0  0  0  0
 22 18  1  6  0  0  0
 22 20  1  0  0  0  0
 23  1  1  0  0  0  0
 24 23  1  0  0  0  0
 25 24  1  0  0  0  0
 25 26  1  0  0  0  0
 27 26  1  0  0  0  0
 27 28  1  0  0  0  0
 29 34  1  0  0  0  0
 30 29  1  0  0  0  0
 32 28  1  1  0  0  0
 32 31  1  0  0  0  0
 33 30  1  0  0  0  0
 33 36  1  0  0  0  0
 34 31  1  0  0  0  0
 34 35  1  1  0  0  0
 36 32  1  0  0  0  0
 37 43  1  0  0  0  0
 39 43  2  0  0  0  0
 39 40  1  0  0  0  0
 40 42  1  0  0  0  0
 40 45  1  1  0  0  0
 41 42  1  0  0  0  0
 41 38  2  0  0  0  0
 43 41  1  0  0  0  0
 44 45  1  0  0  0  0
M  END
>  <MODEL>
7

>  <REMARK>
 VINA RESULT:      -6.0      3.083      6.927
  Name = 
  17 active torsions:
  status: ('A' for Active; 'I' for Inactive)
    1  A    between atoms: C_2  and  C_17
    2  A    between atoms: N_4  and  C_9
    3  A    between atoms: N_4  and  N_29
    4  A    between atoms: C_6  and  N_18
    5  A    between atoms: C_6  and  N_29
    6  A    between atoms: C_7  and  C_14
    7  A    between atoms: C_7  and  C_43
    8  A    between atoms: C_9  and  C_12
    9  A    between atoms: N_13  and  C_14
   10  A    between atoms: C_14  and  C_17
   11  A    between atoms: N_18  and  O_30
   12  A    between atoms: C_20  and  O_30
   13  A    between atoms: C_22  and  C_27
   14  A    between atoms: N_33  and  C_35
   15  A    between atoms: C_35  and  C_41
   16  A    between atoms: C_38  and  O_44
   17  A    between atoms: C_40  and  O_44
                            x       y       z     vdW  Elec       q    Type
                         _______ _______ _______ _____ _____    ______ ____

>  <TORSDO>
F 17

$$$$
=
 OpenBabel11042414153D

 45 49  0  0  1  0  0  0  0  0999 V2000
  190.0250  175.1870  142.7530 C   0  0  0  0  0  0  0  0  0  0  0  0
  190.9620  172.9860  142.3210 C   0  0  0  0  0  0  0  0  0  0  0  0
  190.0460  172.7970  141.2390 N   0  0  0  0  0  0  0  0  0  0  0  0
  191.7950  172.0280  142.6120 N   0  0  0  0  0  0  0  0  0  0  0  0
  190.9050  174.2420  143.0820 C   0  0  0  0  0  3  0  0  0  0  0  0
  189.1660  173.6900  140.8910 C   0  0  0  0  0  0  0  0  0  0  0  0
  189.0500  175.0080  141.6170 C   0  0  0  0  0  2  0  0  0  0  0  0
  192.5580  172.4960  144.7890 O   0  0  0  0  0  0  0  0  0  0  0  0
  192.7940  172.0210  143.6450 C   0  0  0  0  0  0  0  0  0  0  0  0
  195.1970  172.5070  143.0170 C   0  0  1  0  0  3  0  0  0  0  0  0
  195.1230  171.9470  144.3760 N   0  0  0  0  0  2  0  0  0  0  0  0
  194.1690  171.4910  143.3490 C   0  0  1  0  0  3  0  0  0  0  0  0
  194.7280  173.9660  143.0260 C   0  0  2  0  0  3  0  0  0  0  0  0
  194.6920  174.4330  141.7100 O   0  0  0  0  0  1  0  0  0  0  0  0
  195.6660  174.8410  143.8660 C   0  0  1  0  0  3  0  0  0  0  0  0
  196.6770  175.4650  143.0210 N   0  0  0  0  0  2  0  0  0  0  0  0
  197.8830  175.1000  143.5170 O   0  0  0  0  0  1  0  0  0  0  0  0
  194.8860  175.9120  144.6320 C   0  0  2  0  0  3  0  0  0  0  0  0
  195.4890  177.1650  144.4860 O   0  0  0  0  0  1  0  0  0  0  0  0
  194.1840  176.6350  146.7870 O   0  0  0  0  0  0  0  0  0  0  0  0
  193.3580  175.5250  146.5210 C   0  0  0  0  0  2  0  0  0  0  0  0
  194.7760  175.5570  146.1050 C   0  0  1  0  0  3  0  0  0  0  0  0
  189.9630  176.4440  143.5510 C   0  0  0  0  0  2  0  0  0  0  0  0
  190.4140  176.1930  144.9080 N   0  0  0  0  0  2  0  0  0  0  0  0
  190.3290  177.4130  145.5900 N   0  0  0  0  0  2  0  0  0  0  0  0
  189.7250  177.1280  146.8800 C   0  0  0  0  0  2  0  0  0  0  0  0
  188.3320  177.5400  146.8720 N   0  0  0  0  0  2  0  0  0  0  0  0
  187.5830  176.4100  146.9220 O   0  0  0  0  0  0  0  0  0  0  0  0
  184.5830  178.3890  144.0110 C   0  0  0  0  0  2  0  0  0  0  0  0
  184.4100  179.0480  145.3810 C   0  0  0  0  0  2  0  0  0  0  0  0
  186.7330  177.3240  144.8920 C   0  0  0  0  0  2  0  0  0  0  0  0
  186.4000  176.7400  146.2600 C   0  0  2  0  0  3  0  0  0  0  0  0
  184.2410  178.0400  146.5080 C   0  0  0  0  0  2  0  0  0  0  0  0
  185.5290  177.1840  143.9690 C   0  0  2  0  0  3  0  0  0  0  0  0
  186.0060  176.9770  142.5450 C   0  0  0  0  0  1  0  0  0  0  0  0
  185.6030  177.7220  147.1150 C   0  0  0  0  0  2  0  0  0  0  0  0
  188.2920  173.4640  139.8170 O   0  0  0  0  0  0  0  0  0  0  0  0
  187.0670  175.6750  138.2450 O   0  0  0  0  0  0  0  0  0  0  0  0
  189.3680  173.1750  137.6370 C   0  0  0  0  0  3  0  0  0  0  0  0
  189.3130  173.8520  136.2880 C   0  0  1  0  0  3  0  0  0  0  0  0
  187.9060  174.8700  137.7660 C   0  0  0  0  0  0  0  0  0  0  0  0
  188.3720  174.9090  136.4700 O   0  0  0  0  0  0  0  0  0  0  0  0
  188.5380  173.7870  138.4740 C   0  0  0  0  0  0  0  0  0  0  0  0
  191.7170  173.3170  135.9370 C   0  0  0  0  0  1  0  0  0  0  0  0
  190.6800  174.4210  135.9480 C   0  0  0  0  0  2  0  0  0  0  0  0
  1  5  2  0  0  0  0
  1 23  1  0  0  0  0
  2  4  2  0  0  0  0
  2  5  1  0  0  0  0
  3  2  1  0  0  0  0
  4  9  1  0  0  0  0
  6  3  2  0  0  0  0
  6  7  1  0  0  0  0
  7  1  1  0  0  0  0
  9  8  2  0  0  0  0
 10 13  1  1  0  0  0
 10 12  1  0  0  0  0
 10 11  1  0  0  0  0
 12  9  1  1  0  0  0
 12 11  1  0  0  0  0
 13 14  1  6  0  0  0
 13 15  1  0  0  0  0
 15 16  1  6  0  0  0
 15 18  1  0  0  0  0
 16 17  1  0  0  0  0
 18 19  1  1  0  0  0
 21 20  1  0  0  0  0
 22 18  1  6  0  0  0
 22 21  1  0  0  0  0
 22 20  1  0  0  0  0
 23 24  1  0  0  0  0
 24 25  1  0  0  0  0
 25 26  1  0  0  0  0
 27 26  1  0  0  0  0
 27 28  1  0  0  0  0
 29 30  1  0  0  0  0
 30 33  1  0  0  0  0
 31 32  1  0  0  0  0
 32 28  1  1  0  0  0
 32 36  1  0  0  0  0
 33 36  1  0  0  0  0
 34 35  1  6  0  0  0
 34 29  1  0  0  0  0
 34 31  1  0  0  0  0
 37  6  1  0  0  0  0
 39 43  2  0  0  0  0
 40 45  1  1  0  0  0
 40 42  1  0  0  0  0
 40 39  1  0  0  0  0
 41 38  2  0  0  0  0
 41 43  1  0  0  0  0
 42 41  1  0  0  0  0
 43 37  1  0  0  0  0
 44 45  1  0  0  0  0
M  END
>  <MODEL>
8

>  <REMARK>
 VINA RESULT:      -6.0      2.667      7.655
  Name = 
  17 active torsions:
  status: ('A' for Active; 'I' for Inactive)
    1  A    between atoms: C_2  and  C_17
    2  A    between atoms: N_4  and  C_9
    3  A    between atoms: N_4  and  N_29
    4  A    between atoms: C_6  and  N_18
    5  A    between atoms: C_6  and  N_29
    6  A    between atoms: C_7  and  C_14
    7  A    between atoms: C_7  and  C_43
    8  A    between atoms: C_9  and  C_12
    9  A    between atoms: N_13  and  C_14
   10  A    between atoms: C_14  and  C_17
   11  A    between atoms: N_18  and  O_30
   12  A    between atoms: C_20  and  O_30
   13  A    between atoms: C_22  and  C_27
   14  A    between atoms: N_33  and  C_35
   15  A    between atoms: C_35  and  C_41
   16  A    between atoms: C_38  and  O_44
   17  A    between atoms: C_40  and  O_44
                            x       y       z     vdW  Elec       q    Type
                         _______ _______ _______ _____ _____    ______ ____

>  <TORSDO>
F 17

$$$$
=
 OpenBabel11042414153D

 45 49  0  0  1  0  0  0  0  0999 V2000
  189.2540  174.3450  141.5340 C   0  0  0  0  0  0  0  0  0  0  0  0
  190.6170  172.3710  141.9240 C   0  0  0  0  0  0  0  0  0  0  0  0
  190.2440  171.8470  140.6470 N   0  0  0  0  0  0  0  0  0  0  0  0
  191.4070  171.6660  142.6830 N   0  0  0  0  0  0  0  0  0  0  0  0
  190.0700  173.6690  142.3420 C   0  0  0  0  0  3  0  0  0  0  0  0
  189.4440  172.4720  139.8320 C   0  0  0  0  0  0  0  0  0  0  0  0
  188.8470  173.8120  140.1840 C   0  0  0  0  0  2  0  0  0  0  0  0
  191.1710  172.5750  144.8420 O   0  0  0  0  0  0  0  0  0  0  0  0
  191.9070  172.0120  143.9860 C   0  0  0  0  0  0  0  0  0  0  0  0
  194.2780  172.8870  144.0990 C   0  0  1  0  0  3  0  0  0  0  0  0
  193.7670  172.6080  145.4510 N   0  0  0  0  0  2  0  0  0  0  0  0
  193.3480  171.7550  144.3250 C   0  0  1  0  0  3  0  0  0  0  0  0
  193.6500  174.1760  143.5580 C   0  0  2  0  0  3  0  0  0  0  0  0
  194.1530  174.4160  142.2770 O   0  0  0  0  0  1  0  0  0  0  0  0
  193.9600  175.3660  144.4730 C   0  0  1  0  0  3  0  0  0  0  0  0
  194.6860  176.3990  143.7430 N   0  0  0  0  0  2  0  0  0  0  0  0
  195.9660  176.3640  144.1820 O   0  0  0  0  0  1  0  0  0  0  0  0
  192.6790  175.9490  145.0750 C   0  0  2  0  0  3  0  0  0  0  0  0
  192.4300  177.2290  144.5680 O   0  0  0  0  0  1  0  0  0  0  0  0
  191.6970  176.7760  147.0780 O   0  0  0  0  0  0  0  0  0  0  0  0
  191.5650  175.3780  147.1930 C   0  0  0  0  0  2  0  0  0  0  0  0
  192.7640  176.0000  146.5910 C   0  0  1  0  0  3  0  0  0  0  0  0
  188.6880  175.6480  141.9840 C   0  0  0  0  0  2  0  0  0  0  0  0
  189.7310  176.4640  142.5810 N   0  0  0  0  0  2  0  0  0  0  0  0
  189.3550  177.7990  142.3880 N   0  0  0  0  0  2  0  0  0  0  0  0
  188.1330  177.7780  141.6040 C   0  0  0  0  0  2  0  0  0  0  0  0
  187.1380  178.6380  142.2210 N   0  0  0  0  0  2  0  0  0  0  0  0
  186.1540  177.8320  142.6920 O   0  0  0  0  0  0  0  0  0  0  0  0
  185.8000  177.2620  147.2670 C   0  0  0  0  0  2  0  0  0  0  0  0
  184.4620  177.8010  146.7580 C   0  0  0  0  0  2  0  0  0  0  0  0
  186.4550  176.8340  144.8340 C   0  0  0  0  0  2  0  0  0  0  0  0
  186.1020  178.0990  144.0610 C   0  0  2  0  0  3  0  0  0  0  0  0
  184.6130  179.0350  145.8820 C   0  0  0  0  0  2  0  0  0  0  0  0
  186.9300  177.2060  146.2340 C   0  0  2  0  0  3  0  0  0  0  0  0
  187.9740  176.2070  146.6940 C   0  0  0  0  0  1  0  0  0  0  0  0
  184.7100  178.6130  144.4200 C   0  0  0  0  0  2  0  0  0  0  0  0
  189.1100  171.9230  138.5840 O   0  0  0  0  0  0  0  0  0  0  0  0
  191.4680  173.4720  137.6350 O   0  0  0  0  0  0  0  0  0  0  0  0
  190.0070  170.4450  136.8500 C   0  0  0  0  0  3  0  0  0  0  0  0
  191.1640  170.4680  135.8800 C   0  0  1  0  0  3  0  0  0  0  0  0
  191.1380  172.3560  137.1590 C   0  0  0  0  0  0  0  0  0  0  0  0
  191.8210  171.7050  136.1540 O   0  0  0  0  0  0  0  0  0  0  0  0
  190.0160  171.5570  137.5770 C   0  0  0  0  0  0  0  0  0  0  0  0
  191.3310  168.1750  136.8300 C   0  0  0  0  0  1  0  0  0  0  0  0
  192.0970  169.3050  136.1730 C   0  0  0  0  0  2  0  0  0  0  0  0
  1 23  1  0  0  0  0
  1  5  2  0  0  0  0
  2  5  1  0  0  0  0
  2  4  2  0  0  0  0
  3  2  1  0  0  0  0
  4  9  1  0  0  0  0
  6  7  1  0  0  0  0
  6  3  2  0  0  0  0
  7  1  1  0  0  0  0
  9  8  2  0  0  0  0
 10 13  1  6  0  0  0
 10 12  1  0  0  0  0
 10 11  1  0  0  0  0
 12  9  1  6  0  0  0
 12 11  1  0  0  0  0
 13 14  1  6  0  0  0
 13 15  1  0  0  0  0
 15 16  1  6  0  0  0
 15 18  1  0  0  0  0
 16 17  1  0  0  0  0
 18 19  1  6  0  0  0
 20 21  1  0  0  0  0
 22 18  1  6  0  0  0
 22 20  1  0  0  0  0
 22 21  1  0  0  0  0
 23 24  1  0  0  0  0
 25 24  1  0  0  0  0
 26 27  1  0  0  0  0
 26 25  1  0  0  0  0
 27 28  1  0  0  0  0
 30 29  1  0  0  0  0
 31 34  1  0  0  0  0
 32 28  1  6  0  0  0
 32 36  1  0  0  0  0
 32 31  1  0  0  0  0
 33 30  1  0  0  0  0
 34 35  1  1  0  0  0
 34 29  1  0  0  0  0
 36 33  1  0  0  0  0
 37  6  1  0  0  0  0
 39 43  2  0  0  0  0
 40 42  1  0  0  0  0
 40 45  1  1  0  0  0
 40 39  1  0  0  0  0
 41 43  1  0  0  0  0
 41 38  2  0  0  0  0
 42 41  1  0  0  0  0
 43 37  1  0  0  0  0
 45 44  1  0  0  0  0
M  END
>  <MODEL>
9

>  <REMARK>
 VINA RESULT:      -5.9      2.309      8.638
  Name = 
  17 active torsions:
  status: ('A' for Active; 'I' for Inactive)
    1  A    between atoms: C_2  and  C_17
    2  A    between atoms: N_4  and  C_9
    3  A    between atoms: N_4  and  N_29
    4  A    between atoms: C_6  and  N_18
    5  A    between atoms: C_6  and  N_29
    6  A    between atoms: C_7  and  C_14
    7  A    between atoms: C_7  and  C_43
    8  A    between atoms: C_9  and  C_12
    9  A    between atoms: N_13  and  C_14
   10  A    between atoms: C_14  and  C_17
   11  A    between atoms: N_18  and  O_30
   12  A    between atoms: C_20  and  O_30
   13  A    between atoms: C_22  and  C_27
   14  A    between atoms: N_33  and  C_35
   15  A    between atoms: C_35  and  C_41
   16  A    between atoms: C_38  and  O_44
   17  A    between atoms: C_40  and  O_44
                            x       y       z     vdW  Elec       q    Type
                         _______ _______ _______ _____ _____    ______ ____

>  <TORSDO>
F 17

$$$$
