=
 OpenBabel11042415043D

 33 36  0  0  1  0  0  0  0  0999 V2000
  184.9660  178.4610  146.9640 C   0  0  0  0  0  3  0  0  0  0  0  0
  186.2750  176.7690  145.1720 C   0  0  0  0  0  3  0  0  0  0  0  0
  184.5660  178.4230  145.6250 C   0  0  0  0  0  0  0  0  0  0  0  0
  186.0160  177.6540  147.4080 C   0  0  0  0  0  3  0  0  0  0  0  0
  186.6760  176.8030  146.5160 C   0  0  0  0  0  0  0  0  0  0  0  0
  183.5180  179.2300  145.1990 O   0  0  0  0  0  1  0  0  0  0  0  0
  185.2190  177.5750  144.7180 C   0  0  0  0  0  0  0  0  0  0  0  0
  188.7690  175.5550  146.2330 C   0  0  0  0  0  3  0  0  0  0  0  0
  187.7700  175.9580  147.0120 C   0  0  0  0  0  3  0  0  0  0  0  0
  190.7630  175.4910  147.6630 C   0  0  0  0  0  3  0  0  0  0  0  0
  191.9920  175.5390  147.1670 C   0  0  0  0  0  3  0  0  0  0  0  0
  189.8630  174.6930  146.7690 C   0  0  2  0  0  3  0  0  0  0  0  0
  190.8020  174.3120  145.6730 C   0  0  0  0  0  0  0  0  0  0  0  0
  192.0190  174.7900  145.9210 C   0  0  0  0  0  0  0  0  0  0  0  0
  193.4260  175.2640  143.9140 O   0  0  0  0  0  0  0  0  0  0  0  0
  194.1230  173.7860  145.5100 O   0  0  0  0  0  1  0  0  0  0  0  0
  193.2380  174.5890  145.1140 C   0  0  0  0  0  0  0  0  0  0  0  0
  189.6650  172.2170  145.0150 C   0  0  0  0  0  1  0  0  0  0  0  0
  190.4090  173.4430  144.5200 C   0  0  0  0  0  2  0  0  0  0  0  0
  184.8050  177.5470  143.3810 O   0  0  0  0  0  0  0  0  0  0  0  0
  185.1870  178.5350  142.4290 C   0  0  0  0  0  2  0  0  0  0  0  0
  186.1040  177.9580  141.4570 N   0  0  0  0  0  2  0  0  0  0  0  0
  188.2430  178.0810  142.6780 C   0  0  0  0  0  3  0  0  0  0  0  0
  189.4720  177.5110  143.0260 C   0  0  0  0  0  3  0  0  0  0  0  0
  187.7340  176.1500  141.3110 C   0  0  0  0  0  3  0  0  0  0  0  0
  187.3700  177.4010  141.8170 C   0  0  0  0  0  0  0  0  0  0  0  0
  188.9640  175.5720  141.6560 C   0  0  0  0  0  0  0  0  0  0  0  0
  189.8300  176.2610  142.5160 C   0  0  0  0  0  3  0  0  0  0  0  0
  190.4830  172.5350  140.4260 N   0  0  0  0  0  0  0  0  0  0  0  0
  189.3410  174.2500  141.1310 C   0  0  0  0  0  0  0  0  0  0  0  0
  189.1880  172.2660  140.3590 N   0  0  0  0  0  0  0  0  0  0  0  0
  190.6210  173.7840  140.9110 C   0  0  0  0  0  2  0  0  0  0  0  0
  188.4660  173.2910  140.7820 N   0  0  0  0  0  0  0  0  0  0  0  0
  1  4  1  0  0  0  0
  2  5  1  0  0  0  0
  3  1  2  0  0  0  0
  5  9  1  0  0  0  0
  5  4  2  0  0  0  0
  6  3  1  0  0  0  0
  7  2  2  0  0  0  0
  7  3  1  0  0  0  0
  8  9  2  0  0  0  0
 11 10  2  0  0  0  0
 12  8  1  6  0  0  0
 12 10  1  0  0  0  0
 13 14  2  0  0  0  0
 13 12  1  0  0  0  0
 14 11  1  0  0  0  0
 15 17  2  0  0  0  0
 17 16  1  0  0  0  0
 17 14  1  0  0  0  0
 19 18  1  0  0  0  0
 19 13  1  0  0  0  0
 20  7  1  0  0  0  0
 21 20  1  0  0  0  0
 22 26  1  0  0  0  0
 22 21  1  0  0  0  0
 23 24  1  0  0  0  0
 25 27  2  0  0  0  0
 25 26  1  0  0  0  0
 26 23  2  0  0  0  0
 27 28  1  0  0  0  0
 28 24  2  0  0  0  0
 29 32  1  0  0  0  0
 30 27  1  0  0  0  0
 31 29  2  0  0  0  0
 31 33  1  0  0  0  0
 32 30  1  0  0  0  0
 33 30  2  0  0  0  0
M  END
>  <MODEL>
1

>  <REMARK>
 VINA RESULT:      -7.7      0.000      0.000
  Name = 
  9 active torsions:
  status: ('A' for Active; 'I' for Inactive)
    1  A    between atoms: C_4  and  C_24
    2  A    between atoms: C_5  and  C_21
    3  A    between atoms: C_9  and  C_10
    4  A    between atoms: C_17  and  C_25
    5  A    between atoms: C_20  and  N_32
    6  A    between atoms: C_26  and  C_30
    7  A    between atoms: O_28  and  C_31
    8  A    between atoms: O_28  and  C_33
    9  A    between atoms: N_32  and  C_33
                            x       y       z     vdW  Elec       q    Type
                         _______ _______ _______ _____ _____    ______ ____

>  <TORSDO>
F 9

$$$$
=
 OpenBabel11042415043D

 33 36  0  0  1  0  0  0  0  0999 V2000
  188.3860  173.2460  138.9210 C   0  0  0  0  0  3  0  0  0  0  0  0
  189.6390  173.7900  141.3550 C   0  0  0  0  0  3  0  0  0  0  0  0
  189.2790  172.3180  139.4670 C   0  0  0  0  0  0  0  0  0  0  0  0
  188.1180  174.4420  139.5920 C   0  0  0  0  0  3  0  0  0  0  0  0
  188.7410  174.7210  140.8110 C   0  0  0  0  0  0  0  0  0  0  0  0
  189.5330  171.1310  138.7900 O   0  0  0  0  0  1  0  0  0  0  0  0
  189.9120  172.5840  140.6890 C   0  0  0  0  0  0  0  0  0  0  0  0
  188.5210  176.1140  142.8190 C   0  0  0  0  0  3  0  0  0  0  0  0
  188.4320  175.9820  141.4990 C   0  0  0  0  0  3  0  0  0  0  0  0
  189.0220  177.5770  144.7250 C   0  0  0  0  0  3  0  0  0  0  0  0
  188.2490  177.6300  145.8000 C   0  0  0  0  0  3  0  0  0  0  0  0
  188.1970  177.4090  143.4860 C   0  0  2  0  0  3  0  0  0  0  0  0
  186.8180  177.3610  144.0570 C   0  0  0  0  0  0  0  0  0  0  0  0
  186.8620  177.5040  145.3800 C   0  0  0  0  0  0  0  0  0  0  0  0
  184.9040  176.4630  146.5250 O   0  0  0  0  0  0  0  0  0  0  0  0
  185.4620  178.6430  146.9120 O   0  0  0  0  0  1  0  0  0  0  0  0
  185.7170  177.5680  146.3090 C   0  0  0  0  0  0  0  0  0  0  0  0
  185.5440  178.3730  142.1950 C   0  0  0  0  0  1  0  0  0  0  0  0
  185.5840  177.2530  143.2180 C   0  0  0  0  0  2  0  0  0  0  0  0
  190.8020  171.6440  141.2240 O   0  0  0  0  0  0  0  0  0  0  0  0
  190.5060  170.8650  142.3790 C   0  0  0  0  0  2  0  0  0  0  0  0
  191.3650  171.2690  143.4830 N   0  0  0  0  0  2  0  0  0  0  0  0
  189.8740  172.6540  144.8770 C   0  0  0  0  0  3  0  0  0  0  0  0
  189.6610  173.7960  145.6540 C   0  0  0  0  0  3  0  0  0  0  0  0
  192.1480  173.3650  144.4530 C   0  0  0  0  0  3  0  0  0  0  0  0
  191.1190  172.4350  144.2720 C   0  0  0  0  0  0  0  0  0  0  0  0
  191.9430  174.5130  145.2320 C   0  0  0  0  0  0  0  0  0  0  0  0
  190.6920  174.7220  145.8300 C   0  0  0  0  0  3  0  0  0  0  0  0
  194.4030  176.9220  146.3170 N   0  0  0  0  0  0  0  0  0  0  0  0
  193.0290  175.4840  145.4310 C   0  0  0  0  0  0  0  0  0  0  0  0
  194.6950  176.7580  145.0360 N   0  0  0  0  0  0  0  0  0  0  0  0
  193.3520  176.1310  146.6060 C   0  0  0  0  0  2  0  0  0  0  0  0
  193.8750  175.8880  144.4680 N   0  0  0  0  0  0  0  0  0  0  0  0
  1  3  2  0  0  0  0
  1  4  1  0  0  0  0
  3  7  1  0  0  0  0
  4  5  2  0  0  0  0
  5  2  1  0  0  0  0
  5  9  1  0  0  0  0
  6  3  1  0  0  0  0
  7 20  1  0  0  0  0
  7  2  2  0  0  0  0
  9  8  2  0  0  0  0
 10 11  2  0  0  0  0
 12  8  1  1  0  0  0
 12 13  1  0  0  0  0
 12 10  1  0  0  0  0
 13 14  2  0  0  0  0
 14 11  1  0  0  0  0
 14 17  1  0  0  0  0
 17 15  2  0  0  0  0
 17 16  1  0  0  0  0
 18 19  1  0  0  0  0
 19 13  1  0  0  0  0
 20 21  1  0  0  0  0
 21 22  1  0  0  0  0
 22 26  1  0  0  0  0
 23 24  1  0  0  0  0
 24 28  2  0  0  0  0
 25 27  2  0  0  0  0
 26 25  1  0  0  0  0
 26 23  2  0  0  0  0
 27 30  1  0  0  0  0
 27 28  1  0  0  0  0
 29 32  1  0  0  0  0
 30 32  1  0  0  0  0
 31 29  2  0  0  0  0
 33 31  1  0  0  0  0
 33 30  2  0  0  0  0
M  END
>  <MODEL>
2

>  <REMARK>
 VINA RESULT:      -6.8      3.199      7.297
  Name = 
  9 active torsions:
  status: ('A' for Active; 'I' for Inactive)
    1  A    between atoms: C_4  and  C_24
    2  A    between atoms: C_5  and  C_21
    3  A    between atoms: C_9  and  C_10
    4  A    between atoms: C_17  and  C_25
    5  A    between atoms: C_20  and  N_32
    6  A    between atoms: C_26  and  C_30
    7  A    between atoms: O_28  and  C_31
    8  A    between atoms: O_28  and  C_33
    9  A    between atoms: N_32  and  C_33
                            x       y       z     vdW  Elec       q    Type
                         _______ _______ _______ _____ _____    ______ ____

>  <TORSDO>
F 9

$$$$
=
 OpenBabel11042415043D

 33 36  0  0  1  0  0  0  0  0999 V2000
  195.9240  174.5180  145.8550 C   0  0  0  0  0  3  0  0  0  0  0  0
  193.2270  173.8660  145.5520 C   0  0  0  0  0  3  0  0  0  0  0  0
  195.5610  173.2300  145.4470 C   0  0  0  0  0  0  0  0  0  0  0  0
  194.9410  175.4780  146.1080 C   0  0  0  0  0  3  0  0  0  0  0  0
  193.5890  175.1590  145.9570 C   0  0  0  0  0  0  0  0  0  0  0  0
  196.5500  172.2860  145.1970 O   0  0  0  0  0  1  0  0  0  0  0  0
  194.2080  172.8950  145.2920 C   0  0  0  0  0  0  0  0  0  0  0  0
  191.2810  175.9900  146.0100 C   0  0  0  0  0  3  0  0  0  0  0  0
  192.5780  176.1920  146.2200 C   0  0  0  0  0  3  0  0  0  0  0  0
  189.0700  176.4860  146.9520 C   0  0  0  0  0  3  0  0  0  0  0  0
  187.9950  176.6450  146.1920 C   0  0  0  0  0  3  0  0  0  0  0  0
  190.2800  177.0630  146.2840 C   0  0  2  0  0  3  0  0  0  0  0  0
  189.6980  177.5620  145.0030 C   0  0  0  0  0  0  0  0  0  0  0  0
  188.3880  177.3300  144.9710 C   0  0  0  0  0  0  0  0  0  0  0  0
  187.4190  177.0590  142.6860 O   0  0  0  0  0  0  0  0  0  0  0  0
  186.6360  178.6670  144.1070 O   0  0  0  0  0  1  0  0  0  0  0  0
  187.4390  177.7170  143.9090 C   0  0  0  0  0  0  0  0  0  0  0  0
  190.9360  177.3340  142.8750 C   0  0  0  0  0  1  0  0  0  0  0  0
  190.4950  178.2910  143.9670 C   0  0  0  0  0  2  0  0  0  0  0  0
  193.8610  171.6030  144.8810 O   0  0  0  0  0  0  0  0  0  0  0  0
  193.3010  171.3190  143.6020 C   0  0  0  0  0  2  0  0  0  0  0  0
  191.8760  171.0530  143.7330 N   0  0  0  0  0  2  0  0  0  0  0  0
  190.3190  172.8360  144.4280 C   0  0  0  0  0  3  0  0  0  0  0  0
  189.3470  173.7870  144.1040 C   0  0  0  0  0  3  0  0  0  0  0  0
  190.4510  172.1760  142.1040 C   0  0  0  0  0  3  0  0  0  0  0  0
  190.8730  172.0250  143.4280 C   0  0  0  0  0  0  0  0  0  0  0  0
  189.4770  173.1290  141.7700 C   0  0  0  0  0  0  0  0  0  0  0  0
  188.9290  173.9330  142.7790 C   0  0  0  0  0  3  0  0  0  0  0  0
  188.6260  172.9470  138.2660 N   0  0  0  0  0  0  0  0  0  0  0  0
  189.0420  173.2950  140.3750 C   0  0  0  0  0  0  0  0  0  0  0  0
  188.2330  174.1660  138.6030 N   0  0  0  0  0  0  0  0  0  0  0  0
  189.1450  172.3620  139.3630 C   0  0  0  0  0  2  0  0  0  0  0  0
  188.4730  174.4080  139.8810 N   0  0  0  0  0  0  0  0  0  0  0  0
  1  4  1  0  0  0  0
  2  5  1  0  0  0  0
  3  1  2  0  0  0  0
  5  4  2  0  0  0  0
  5  9  1  0  0  0  0
  6  3  1  0  0  0  0
  7  3  1  0  0  0  0
  7  2  2  0  0  0  0
  8  9  2  0  0  0  0
 11 10  2  0  0  0  0
 12  8  1  6  0  0  0
 12 10  1  0  0  0  0
 13 12  1  0  0  0  0
 14 13  2  0  0  0  0
 14 11  1  0  0  0  0
 15 17  2  0  0  0  0
 17 16  1  0  0  0  0
 17 14  1  0  0  0  0
 18 19  1  0  0  0  0
 19 13  1  0  0  0  0
 20  7  1  0  0  0  0
 21 22  1  0  0  0  0
 21 20  1  0  0  0  0
 24 23  1  0  0  0  0
 25 26  1  0  0  0  0
 26 22  1  0  0  0  0
 26 23  2  0  0  0  0
 27 25  2  0  0  0  0
 27 28  1  0  0  0  0
 28 24  2  0  0  0  0
 29 31  2  0  0  0  0
 29 32  1  0  0  0  0
 30 27  1  0  0  0  0
 31 33  1  0  0  0  0
 32 30  1  0  0  0  0
 33 30  2  0  0  0  0
M  END
>  <MODEL>
3

>  <REMARK>
 VINA RESULT:      -6.7      2.264      6.955
  Name = 
  9 active torsions:
  status: ('A' for Active; 'I' for Inactive)
    1  A    between atoms: C_4  and  C_24
    2  A    between atoms: C_5  and  C_21
    3  A    between atoms: C_9  and  C_10
    4  A    between atoms: C_17  and  C_25
    5  A    between atoms: C_20  and  N_32
    6  A    between atoms: C_26  and  C_30
    7  A    between atoms: O_28  and  C_31
    8  A    between atoms: O_28  and  C_33
    9  A    between atoms: N_32  and  C_33
                            x       y       z     vdW  Elec       q    Type
                         _______ _______ _______ _____ _____    ______ ____

>  <TORSDO>
F 9

$$$$
=
 OpenBabel11042415043D

 33 36  0  0  1  0  0  0  0  0999 V2000
  185.0350  178.3910  146.1050 C   0  0  0  0  0  3  0  0  0  0  0  0
  187.1180  177.4770  144.4870 C   0  0  0  0  0  3  0  0  0  0  0  0
  185.0550  178.7190  144.7460 C   0  0  0  0  0  0  0  0  0  0  0  0
  186.0520  177.6060  146.6540 C   0  0  0  0  0  3  0  0  0  0  0  0
  187.0980  177.1440  145.8500 C   0  0  0  0  0  0  0  0  0  0  0  0
  184.0350  179.4990  144.2140 O   0  0  0  0  0  1  0  0  0  0  0  0
  186.0980  178.2630  143.9260 C   0  0  0  0  0  0  0  0  0  0  0  0
  188.7980  175.3760  145.7640 C   0  0  0  0  0  3  0  0  0  0  0  0
  188.1480  176.3110  146.4510 C   0  0  0  0  0  3  0  0  0  0  0  0
  190.3680  175.2220  147.6440 C   0  0  0  0  0  3  0  0  0  0  0  0
  191.6550  175.5180  147.5180 C   0  0  0  0  0  3  0  0  0  0  0  0
  189.8570  174.5460  146.4080 C   0  0  2  0  0  3  0  0  0  0  0  0
  191.0830  174.5260  145.5570 C   0  0  0  0  0  0  0  0  0  0  0  0
  192.1070  175.0710  146.2100 C   0  0  0  0  0  0  0  0  0  0  0  0
  193.9580  176.3600  145.1410 O   0  0  0  0  0  0  0  0  0  0  0  0
  194.2920  174.2240  145.8770 O   0  0  0  0  0  1  0  0  0  0  0  0
  193.5010  175.1940  145.7410 C   0  0  0  0  0  0  0  0  0  0  0  0
  191.2040  174.9660  143.1260 C   0  0  0  0  0  1  0  0  0  0  0  0
  191.1310  173.8960  144.2010 C   0  0  0  0  0  2  0  0  0  0  0  0
  186.1030  178.5980  142.5670 O   0  0  0  0  0  0  0  0  0  0  0  0
  186.0160  177.6270  141.5280 C   0  0  0  0  0  2  0  0  0  0  0  0
  187.3480  177.1590  141.1750 N   0  0  0  0  0  2  0  0  0  0  0  0
  187.6120  174.9670  142.2760 C   0  0  0  0  0  3  0  0  0  0  0  0
  187.9490  173.6130  142.2080 C   0  0  0  0  0  3  0  0  0  0  0  0
  188.1240  175.2140  139.9240 C   0  0  0  0  0  3  0  0  0  0  0  0
  187.6990  175.7740  141.1330 C   0  0  0  0  0  0  0  0  0  0  0  0
  188.4630  173.8560  139.8470 C   0  0  0  0  0  0  0  0  0  0  0  0
  188.3730  173.0590  140.9970 C   0  0  0  0  0  3  0  0  0  0  0  0
  189.4410  172.9890  136.4810 N   0  0  0  0  0  0  0  0  0  0  0  0
  188.8990  173.2660  138.5720 C   0  0  0  0  0  0  0  0  0  0  0  0
  189.5700  171.8420  137.1310 N   0  0  0  0  0  0  0  0  0  0  0  0
  189.0180  173.9170  137.3600 C   0  0  0  0  0  2  0  0  0  0  0  0
  189.2470  171.9790  138.4070 N   0  0  0  0  0  0  0  0  0  0  0  0
  1  4  1  0  0  0  0
  2  5  1  0  0  0  0
  3  1  2  0  0  0  0
  5  9  1  0  0  0  0
  5  4  2  0  0  0  0
  6  3  1  0  0  0  0
  7  2  2  0  0  0  0
  7  3  1  0  0  0  0
  8  9  2  0  0  0  0
 11 10  2  0  0  0  0
 12  8  1  6  0  0  0
 12 10  1  0  0  0  0
 13 14  2  0  0  0  0
 13 12  1  0  0  0  0
 14 11  1  0  0  0  0
 15 17  2  0  0  0  0
 17 16  1  0  0  0  0
 17 14  1  0  0  0  0
 18 19  1  0  0  0  0
 19 13  1  0  0  0  0
 20  7  1  0  0  0  0
 21 20  1  0  0  0  0
 22 21  1  0  0  0  0
 24 23  1  0  0  0  0
 25 26  1  0  0  0  0
 26 22  1  0  0  0  0
 26 23  2  0  0  0  0
 27 25  2  0  0  0  0
 27 28  1  0  0  0  0
 28 24  2  0  0  0  0
 29 31  2  0  0  0  0
 29 32  1  0  0  0  0
 30 27  1  0  0  0  0
 31 33  1  0  0  0  0
 32 30  1  0  0  0  0
 33 30  2  0  0  0  0
M  END
>  <MODEL>
4

>  <REMARK>
 VINA RESULT:      -6.7      1.674      2.136
  Name = 
  9 active torsions:
  status: ('A' for Active; 'I' for Inactive)
    1  A    between atoms: C_4  and  C_24
    2  A    between atoms: C_5  and  C_21
    3  A    between atoms: C_9  and  C_10
    4  A    between atoms: C_17  and  C_25
    5  A    between atoms: C_20  and  N_32
    6  A    between atoms: C_26  and  C_30
    7  A    between atoms: O_28  and  C_31
    8  A    between atoms: O_28  and  C_33
    9  A    between atoms: N_32  and  C_33
                            x       y       z     vdW  Elec       q    Type
                         _______ _______ _______ _____ _____    ______ ____

>  <TORSDO>
F 9

$$$$
=
 OpenBabel11042415043D

 33 36  0  0  1  0  0  0  0  0999 V2000
  192.4250  176.4140  147.2770 C   0  0  0  0  0  3  0  0  0  0  0  0
  191.1530  174.8020  145.3870 C   0  0  0  0  0  3  0  0  0  0  0  0
  193.1880  175.6500  146.3890 C   0  0  0  0  0  0  0  0  0  0  0  0
  191.0290  176.3750  147.2190 C   0  0  0  0  0  3  0  0  0  0  0  0
  190.3860  175.5710  146.2750 C   0  0  0  0  0  0  0  0  0  0  0  0
  194.5750  175.7010  146.4570 O   0  0  0  0  0  1  0  0  0  0  0  0
  192.5560  174.8380  145.4360 C   0  0  0  0  0  0  0  0  0  0  0  0
  188.2120  176.5410  145.6790 C   0  0  0  0  0  3  0  0  0  0  0  0
  188.9180  175.5570  146.2300 C   0  0  0  0  0  3  0  0  0  0  0  0
  186.2360  176.0700  144.3010 C   0  0  0  0  0  3  0  0  0  0  0  0
  185.5220  177.0330  143.7340 C   0  0  0  0  0  3  0  0  0  0  0  0
  186.7200  176.4960  145.6530 C   0  0  2  0  0  3  0  0  0  0  0  0
  186.1640  177.8790  145.7420 C   0  0  0  0  0  0  0  0  0  0  0  0
  185.4680  178.1670  144.6440 C   0  0  0  0  0  0  0  0  0  0  0  0
  185.3630  180.6290  144.2500 O   0  0  0  0  0  1  0  0  0  0  0  0
  183.4650  179.3590  144.2340 O   0  0  0  0  0  0  0  0  0  0  0  0
  184.7160  179.4050  144.3640 C   0  0  0  0  0  0  0  0  0  0  0  0
  185.9350  177.9870  148.2010 C   0  0  0  0  0  1  0  0  0  0  0  0
  186.3180  178.7510  146.9480 C   0  0  0  0  0  2  0  0  0  0  0  0
  193.3340  174.0800  144.5520 O   0  0  0  0  0  0  0  0  0  0  0  0
  192.9230  172.8130  144.0470 C   0  0  0  0  0  2  0  0  0  0  0  0
  192.3320  172.9740  142.7270 N   0  0  0  0  0  2  0  0  0  0  0  0
  190.0070  172.1560  142.6180 C   0  0  0  0  0  3  0  0  0  0  0  0
  188.6450  172.4060  142.4260 C   0  0  0  0  0  3  0  0  0  0  0  0
  190.4900  174.4970  142.2390 C   0  0  0  0  0  3  0  0  0  0  0  0
  190.9360  173.2030  142.5230 C   0  0  0  0  0  0  0  0  0  0  0  0
  189.1260  174.7560  142.0460 C   0  0  0  0  0  0  0  0  0  0  0  0
  188.2070  173.7020  142.1410 C   0  0  0  0  0  3  0  0  0  0  0  0
  188.4190  178.2850  141.7540 N   0  0  0  0  0  0  0  0  0  0  0  0
  188.6580  176.1200  141.7570 C   0  0  0  0  0  0  0  0  0  0  0  0
  187.5430  177.7380  140.9240 N   0  0  0  0  0  0  0  0  0  0  0  0
  189.1450  177.2910  142.3020 C   0  0  0  0  0  2  0  0  0  0  0  0
  187.6640  176.4210  140.9040 N   0  0  0  0  0  0  0  0  0  0  0  0
  2  7  2  0  0  0  0
  2  5  1  0  0  0  0
  3  6  1  0  0  0  0
  3  1  2  0  0  0  0
  4  1  1  0  0  0  0
  5  4  2  0  0  0  0
  7  3  1  0  0  0  0
  8  9  2  0  0  0  0
  9  5  1  0  0  0  0
 10 12  1  0  0  0  0
 11 10  2  0  0  0  0
 11 14  1  0  0  0  0
 12  8  1  6  0  0  0
 12 13  1  0  0  0  0
 13 19  1  0  0  0  0
 14 13  2  0  0  0  0
 15 17  1  0  0  0  0
 16 17  2  0  0  0  0
 17 14  1  0  0  0  0
 19 18  1  0  0  0  0
 20  7  1  0  0  0  0
 21 20  1  0  0  0  0
 22 21  1  0  0  0  0
 24 23  2  0  0  0  0
 25 26  2  0  0  0  0
 26 23  1  0  0  0  0
 26 22  1  0  0  0  0
 27 28  2  0  0  0  0
 27 25  1  0  0  0  0
 28 24  1  0  0  0  0
 29 32  1  0  0  0  0
 30 27  1  0  0  0  0
 30 32  1  0  0  0  0
 31 29  2  0  0  0  0
 33 31  1  0  0  0  0
 33 30  2  0  0  0  0
M  END
>  <MODEL>
5

>  <REMARK>
 VINA RESULT:      -6.6      1.618      6.784
  Name = 
  9 active torsions:
  status: ('A' for Active; 'I' for Inactive)
    1  A    between atoms: C_4  and  C_24
    2  A    between atoms: C_5  and  C_21
    3  A    between atoms: C_9  and  C_10
    4  A    between atoms: C_17  and  C_25
    5  A    between atoms: C_20  and  N_32
    6  A    between atoms: C_26  and  C_30
    7  A    between atoms: O_28  and  C_31
    8  A    between atoms: O_28  and  C_33
    9  A    between atoms: N_32  and  C_33
                            x       y       z     vdW  Elec       q    Type
                         _______ _______ _______ _____ _____    ______ ____

>  <TORSDO>
F 9

$$$$
=
 OpenBabel11042415043D

 33 36  0  0  1  0  0  0  0  0999 V2000
  189.3290  172.2090  142.9600 C   0  0  0  0  0  3  0  0  0  0  0  0
  190.2290  174.8240  142.5880 C   0  0  0  0  0  3  0  0  0  0  0  0
  188.5660  173.1060  142.2070 C   0  0  0  0  0  0  0  0  0  0  0  0
  190.5410  172.6160  143.5240 C   0  0  0  0  0  3  0  0  0  0  0  0
  190.9980  173.9240  143.3410 C   0  0  0  0  0  0  0  0  0  0  0  0
  187.3640  172.6850  141.6500 O   0  0  0  0  0  1  0  0  0  0  0  0
  189.0110  174.4220  142.0150 C   0  0  0  0  0  0  0  0  0  0  0  0
  192.6240  173.9890  145.1770 C   0  0  0  0  0  3  0  0  0  0  0  0
  192.2810  174.3220  143.9360 C   0  0  0  0  0  3  0  0  0  0  0  0
  193.9360  175.8900  146.0080 C   0  0  0  0  0  3  0  0  0  0  0  0
  194.8570  176.4930  145.2680 C   0  0  0  0  0  3  0  0  0  0  0  0
  193.9350  174.4130  145.7520 C   0  0  2  0  0  3  0  0  0  0  0  0
  195.0100  174.2940  144.7230 C   0  0  0  0  0  0  0  0  0  0  0  0
  195.5390  175.4880  144.4670 C   0  0  0  0  0  0  0  0  0  0  0  0
  196.4860  176.6150  142.4510 O   0  0  0  0  0  0  0  0  0  0  0  0
  197.7930  175.2900  143.7740 O   0  0  0  0  0  1  0  0  0  0  0  0
  196.6600  175.7910  143.5560 C   0  0  0  0  0  0  0  0  0  0  0  0
  195.8410  172.0280  145.2620 C   0  0  0  0  0  1  0  0  0  0  0  0
  195.4570  172.9860  144.1500 C   0  0  0  0  0  2  0  0  0  0  0  0
  188.2370  175.3080  141.2560 O   0  0  0  0  0  0  0  0  0  0  0  0
  187.7780  176.5610  141.7550 C   0  0  0  0  0  2  0  0  0  0  0  0
  186.6140  176.3590  142.6050 N   0  0  0  0  0  2  0  0  0  0  0  0
  185.4870  176.9630  144.7150 C   0  0  0  0  0  3  0  0  0  0  0  0
  185.5320  177.1480  146.0990 C   0  0  0  0  0  3  0  0  0  0  0  0
  187.8290  176.3540  144.7190 C   0  0  0  0  0  3  0  0  0  0  0  0
  186.6380  176.5660  144.0190 C   0  0  0  0  0  0  0  0  0  0  0  0
  187.8820  176.5370  146.1090 C   0  0  0  0  0  0  0  0  0  0  0  0
  186.7260  176.9350  146.7930 C   0  0  0  0  0  3  0  0  0  0  0  0
  191.0400  176.5870  147.8580 N   0  0  0  0  0  0  0  0  0  0  0  0
  189.1340  176.3030  146.8450 C   0  0  0  0  0  0  0  0  0  0  0  0
  190.7100  175.3040  147.8800 N   0  0  0  0  0  2  0  0  0  0  0  0
  190.0650  177.2540  147.2110 C   0  0  0  0  0  3  0  0  0  0  0  0
  189.5540  175.0990  147.2710 N   0  0  0  0  0  0  0  0  0  0  0  0
  1  4  1  0  0  0  0
  2  5  1  0  0  0  0
  3  1  2  0  0  0  0
  5  4  2  0  0  0  0
  5  9  1  0  0  0  0
  6  3  1  0  0  0  0
  7  3  1  0  0  0  0
  7  2  2  0  0  0  0
  9  8  2  0  0  0  0
 11 10  2  0  0  0  0
 12  8  1  6  0  0  0
 12 10  1  0  0  0  0
 13 12  1  0  0  0  0
 14 13  2  0  0  0  0
 14 11  1  0  0  0  0
 15 17  2  0  0  0  0
 17 16  1  0  0  0  0
 17 14  1  0  0  0  0
 19 13  1  0  0  0  0
 19 18  1  0  0  0  0
 20 21  1  0  0  0  0
 20  7  1  0  0  0  0
 21 22  1  0  0  0  0
 22 26  1  0  0  0  0
 23 24  1  0  0  0  0
 24 28  2  0  0  0  0
 25 27  2  0  0  0  0
 26 23  2  0  0  0  0
 26 25  1  0  0  0  0
 27 28  1  0  0  0  0
 27 30  1  0  0  0  0
 29 31  1  0  0  0  0
 30 32  1  0  0  0  0
 30 33  2  0  0  0  0
 32 29  2  0  0  0  0
 33 31  1  0  0  0  0
M  END
>  <MODEL>
6

>  <REMARK>
 VINA RESULT:      -6.6      3.264      5.543
  Name = 
  9 active torsions:
  status: ('A' for Active; 'I' for Inactive)
    1  A    between atoms: C_4  and  C_24
    2  A    between atoms: C_5  and  C_21
    3  A    between atoms: C_9  and  C_10
    4  A    between atoms: C_17  and  C_25
    5  A    between atoms: C_20  and  N_32
    6  A    between atoms: C_26  and  C_30
    7  A    between atoms: O_28  and  C_31
    8  A    between atoms: O_28  and  C_33
    9  A    between atoms: N_32  and  C_33
                            x       y       z     vdW  Elec       q    Type
                         _______ _______ _______ _____ _____    ______ ____

>  <TORSDO>
F 9

$$$$
=
 OpenBabel11042415043D

 33 36  0  0  1  0  0  0  0  0999 V2000
  191.8670  176.5290  146.8070 C   0  0  0  0  0  3  0  0  0  0  0  0
  191.5220  176.4960  144.0380 C   0  0  0  0  0  3  0  0  0  0  0  0
  192.9630  176.2870  145.9730 C   0  0  0  0  0  0  0  0  0  0  0  0
  190.6020  176.7580  146.2590 C   0  0  0  0  0  3  0  0  0  0  0  0
  190.4220  176.7430  144.8730 C   0  0  0  0  0  0  0  0  0  0  0  0
  194.2150  176.0640  146.5330 O   0  0  0  0  0  1  0  0  0  0  0  0
  192.7980  176.2680  144.5800 C   0  0  0  0  0  0  0  0  0  0  0  0
  188.2560  176.0140  143.9800 C   0  0  0  0  0  3  0  0  0  0  0  0
  189.0840  176.9970  144.3240 C   0  0  0  0  0  3  0  0  0  0  0  0
  187.0180  177.2110  142.2320 C   0  0  0  0  0  3  0  0  0  0  0  0
  186.4070  178.3650  142.4600 C   0  0  0  0  0  3  0  0  0  0  0  0
  186.9030  176.3070  143.4220 C   0  0  2  0  0  3  0  0  0  0  0  0
  186.1320  177.1660  144.3690 C   0  0  0  0  0  0  0  0  0  0  0  0
  185.8420  178.3340  143.8000 C   0  0  0  0  0  0  0  0  0  0  0  0
  183.8520  179.1880  145.0410 O   0  0  0  0  0  1  0  0  0  0  0  0
  185.4520  180.6220  144.2650 O   0  0  0  0  0  0  0  0  0  0  0  0
  185.0480  179.4350  144.3790 C   0  0  0  0  0  0  0  0  0  0  0  0
  186.5400  177.3610  146.8000 C   0  0  0  0  0  1  0  0  0  0  0  0
  185.6940  176.7060  145.7240 C   0  0  0  0  0  2  0  0  0  0  0  0
  193.9050  176.0260  143.7580 O   0  0  0  0  0  0  0  0  0  0  0  0
  193.9910  174.9060  142.8820 C   0  0  0  0  0  2  0  0  0  0  0  0
  193.4970  173.7130  143.5530 N   0  0  0  0  0  2  0  0  0  0  0  0
  191.4920  172.7110  144.5830 C   0  0  0  0  0  3  0  0  0  0  0  0
  190.1560  172.3120  144.4890 C   0  0  0  0  0  3  0  0  0  0  0  0
  191.4310  173.4600  142.2830 C   0  0  0  0  0  3  0  0  0  0  0  0
  192.1350  173.2860  143.4780 C   0  0  0  0  0  0  0  0  0  0  0  0
  190.0900  173.0630  142.1810 C   0  0  0  0  0  0  0  0  0  0  0  0
  189.4570  172.4880  143.2920 C   0  0  0  0  0  3  0  0  0  0  0  0
  188.2030  174.1380  139.2960 N   0  0  0  0  0  0  0  0  0  0  0  0
  189.3470  173.2580  140.9260 C   0  0  0  0  0  0  0  0  0  0  0  0
  188.4190  172.8550  139.0470 N   0  0  0  0  0  0  0  0  0  0  0  0
  188.7760  174.4320  140.4790 C   0  0  0  0  0  2  0  0  0  0  0  0
  189.1140  172.2910  140.0220 N   0  0  0  0  0  0  0  0  0  0  0  0
  2  7  2  0  0  0  0
  2  5  1  0  0  0  0
  3  6  1  0  0  0  0
  3  1  2  0  0  0  0
  4  1  1  0  0  0  0
  5  4  2  0  0  0  0
  7  3  1  0  0  0  0
  8  9  2  0  0  0  0
  9  5  1  0  0  0  0
 10 11  2  0  0  0  0
 10 12  1  0  0  0  0
 11 14  1  0  0  0  0
 12  8  1  1  0  0  0
 12 13  1  0  0  0  0
 13 19  1  0  0  0  0
 14 13  2  0  0  0  0
 14 17  1  0  0  0  0
 16 17  2  0  0  0  0
 17 15  1  0  0  0  0
 19 18  1  0  0  0  0
 20  7  1  0  0  0  0
 21 22  1  0  0  0  0
 21 20  1  0  0  0  0
 24 23  1  0  0  0  0
 25 26  1  0  0  0  0
 26 22  1  0  0  0  0
 26 23  2  0  0  0  0
 27 25  2  0  0  0  0
 27 28  1  0  0  0  0
 28 24  2  0  0  0  0
 29 32  1  0  0  0  0
 30 27  1  0  0  0  0
 31 29  2  0  0  0  0
 31 33  1  0  0  0  0
 32 30  1  0  0  0  0
 33 30  2  0  0  0  0
M  END
>  <MODEL>
7

>  <REMARK>
 VINA RESULT:      -6.6      1.754      6.610
  Name = 
  9 active torsions:
  status: ('A' for Active; 'I' for Inactive)
    1  A    between atoms: C_4  and  C_24
    2  A    between atoms: C_5  and  C_21
    3  A    between atoms: C_9  and  C_10
    4  A    between atoms: C_17  and  C_25
    5  A    between atoms: C_20  and  N_32
    6  A    between atoms: C_26  and  C_30
    7  A    between atoms: O_28  and  C_31
    8  A    between atoms: O_28  and  C_33
    9  A    between atoms: N_32  and  C_33
                            x       y       z     vdW  Elec       q    Type
                         _______ _______ _______ _____ _____    ______ ____

>  <TORSDO>
F 9

$$$$
=
 OpenBabel11042415043D

 33 36  0  0  1  0  0  0  0  0999 V2000
  185.8000  178.1420  141.9120 C   0  0  0  0  0  3  0  0  0  0  0  0
  186.4950  176.3240  143.9120 C   0  0  0  0  0  3  0  0  0  0  0  0
  185.3490  178.3420  143.2200 C   0  0  0  0  0  0  0  0  0  0  0  0
  186.6000  177.0380  141.6040 C   0  0  0  0  0  3  0  0  0  0  0  0
  186.9520  176.1240  142.6010 C   0  0  0  0  0  0  0  0  0  0  0  0
  184.5570  179.4460  143.5110 O   0  0  0  0  0  1  0  0  0  0  0  0
  185.6940  177.4330  144.2310 C   0  0  0  0  0  0  0  0  0  0  0  0
  188.7610  174.5300  143.0560 C   0  0  0  0  0  3  0  0  0  0  0  0
  187.8020  174.9780  142.2510 C   0  0  0  0  0  3  0  0  0  0  0  0
  189.4030  172.2300  143.6250 C   0  0  0  0  0  3  0  0  0  0  0  0
  190.5290  171.9460  144.2640 C   0  0  0  0  0  3  0  0  0  0  0  0
  189.6090  173.3650  142.6680 C   0  0  2  0  0  3  0  0  0  0  0  0
  191.0510  173.6800  142.8930 C   0  0  0  0  0  0  0  0  0  0  0  0
  191.5680  172.8520  143.7970 C   0  0  0  0  0  0  0  0  0  0  0  0
  193.3470  173.3420  145.4780 O   0  0  0  0  0  1  0  0  0  0  0  0
  193.8420  172.2520  143.5330 O   0  0  0  0  0  0  0  0  0  0  0  0
  192.9690  172.7960  144.2580 C   0  0  0  0  0  0  0  0  0  0  0  0
  192.2840  174.1700  140.8070 C   0  0  0  0  0  1  0  0  0  0  0  0
  191.7910  174.7310  142.1280 C   0  0  0  0  0  2  0  0  0  0  0  0
  185.2360  177.6480  145.5370 O   0  0  0  0  0  0  0  0  0  0  0  0
  185.9720  178.3900  146.5050 C   0  0  0  0  0  2  0  0  0  0  0  0
  186.5950  177.4820  147.4560 N   0  0  0  0  0  2  0  0  0  0  0  0
  187.8340  175.3540  147.6050 C   0  0  0  0  0  3  0  0  0  0  0  0
  188.9410  174.5730  147.2630 C   0  0  0  0  0  3  0  0  0  0  0  0
  188.7280  177.1920  146.3100 C   0  0  0  0  0  3  0  0  0  0  0  0
  187.7240  176.6690  147.1300 C   0  0  0  0  0  0  0  0  0  0  0  0
  189.8420  176.4150  145.9610 C   0  0  0  0  0  0  0  0  0  0  0  0
  189.9420  175.1030  146.4430 C   0  0  0  0  0  3  0  0  0  0  0  0
  191.9420  178.0520  143.5220 N   0  0  0  0  0  0  0  0  0  0  0  0
  190.8920  176.9640  145.0890 C   0  0  0  0  0  0  0  0  0  0  0  0
  192.8120  177.3690  144.2510 N   0  0  0  0  0  2  0  0  0  0  0  0
  190.7130  177.8210  144.0220 C   0  0  0  0  0  3  0  0  0  0  0  0
  192.2030  176.6960  145.2140 N   0  0  0  0  0  0  0  0  0  0  0  0
  1  3  1  0  0  0  0
  2  7  1  0  0  0  0
  3  6  1  0  0  0  0
  3  7  2  0  0  0  0
  4  1  2  0  0  0  0
  4  5  1  0  0  0  0
  5  2  2  0  0  0  0
  7 20  1  0  0  0  0
  9  5  1  0  0  0  0
  9  8  2  0  0  0  0
 10 11  2  0  0  0  0
 12 13  1  0  0  0  0
 12  8  1  1  0  0  0
 12 10  1  0  0  0  0
 13 14  2  0  0  0  0
 14 17  1  0  0  0  0
 14 11  1  0  0  0  0
 16 17  2  0  0  0  0
 17 15  1  0  0  0  0
 18 19  1  0  0  0  0
 19 13  1  0  0  0  0
 20 21  1  0  0  0  0
 21 22  1  0  0  0  0
 24 23  1  0  0  0  0
 25 26  1  0  0  0  0
 26 22  1  0  0  0  0
 26 23  2  0  0  0  0
 27 25  2  0  0  0  0
 27 28  1  0  0  0  0
 28 24  2  0  0  0  0
 29 32  2  0  0  0  0
 29 31  1  0  0  0  0
 30 33  2  0  0  0  0
 30 27  1  0  0  0  0
 31 33  1  0  0  0  0
 32 30  1  0  0  0  0
M  END
>  <MODEL>
8

>  <REMARK>
 VINA RESULT:      -6.6      2.715      4.502
  Name = 
  9 active torsions:
  status: ('A' for Active; 'I' for Inactive)
    1  A    between atoms: C_4  and  C_24
    2  A    between atoms: C_5  and  C_21
    3  A    between atoms: C_9  and  C_10
    4  A    between atoms: C_17  and  C_25
    5  A    between atoms: C_20  and  N_32
    6  A    between atoms: C_26  and  C_30
    7  A    between atoms: O_28  and  C_31
    8  A    between atoms: O_28  and  C_33
    9  A    between atoms: N_32  and  C_33
                            x       y       z     vdW  Elec       q    Type
                         _______ _______ _______ _____ _____    ______ ____

>  <TORSDO>
F 9

$$$$
=
 OpenBabel11042415043D

 33 36  0  0  1  0  0  0  0  0999 V2000
  187.0050  176.8450  146.6080 C   0  0  0  0  0  3  0  0  0  0  0  0
  188.8910  177.5690  144.6820 C   0  0  0  0  0  3  0  0  0  0  0  0
  186.5850  177.4260  145.4070 C   0  0  0  0  0  0  0  0  0  0  0  0
  188.3640  176.6240  146.8440 C   0  0  0  0  0  3  0  0  0  0  0  0
  189.3140  176.9830  145.8840 C   0  0  0  0  0  0  0  0  0  0  0  0
  185.2300  177.6370  145.1850 O   0  0  0  0  0  1  0  0  0  0  0  0
  187.5260  177.7920  144.4350 C   0  0  0  0  0  0  0  0  0  0  0  0
  191.1890  175.5340  146.5200 C   0  0  0  0  0  3  0  0  0  0  0  0
  190.7350  176.7290  146.1560 C   0  0  0  0  0  3  0  0  0  0  0  0
  193.3180  176.6140  147.0870 C   0  0  0  0  0  3  0  0  0  0  0  0
  194.2440  176.8780  146.1750 C   0  0  0  0  0  3  0  0  0  0  0  0
  192.6400  175.3120  146.7920 C   0  0  2  0  0  3  0  0  0  0  0  0
  193.3390  174.8950  145.5400 C   0  0  0  0  0  0  0  0  0  0  0  0
  194.2630  175.7920  145.2080 C   0  0  0  0  0  0  0  0  0  0  0  0
  196.5220  175.3200  144.2560 O   0  0  0  0  0  1  0  0  0  0  0  0
  194.8180  176.0480  142.9200 O   0  0  0  0  0  0  0  0  0  0  0  0
  195.2060  175.7250  144.0740 C   0  0  0  0  0  0  0  0  0  0  0  0
  193.9580  172.5060  145.3900 C   0  0  0  0  0  1  0  0  0  0  0  0
  193.0660  173.6020  144.8390 C   0  0  0  0  0  2  0  0  0  0  0  0
  187.0900  178.3710  143.2360 O   0  0  0  0  0  0  0  0  0  0  0  0
  187.3240  177.7830  141.9600 C   0  0  0  0  0  2  0  0  0  0  0  0
  186.9590  176.3750  141.9890 N   0  0  0  0  0  2  0  0  0  0  0  0
  188.5150  174.6810  142.8790 C   0  0  0  0  0  3  0  0  0  0  0  0
  189.4290  173.6460  142.6620 C   0  0  0  0  0  3  0  0  0  0  0  0
  188.2140  174.9180  140.4900 C   0  0  0  0  0  3  0  0  0  0  0  0
  187.9050  175.3220  141.7920 C   0  0  0  0  0  0  0  0  0  0  0  0
  189.1300  173.8800  140.2630 C   0  0  0  0  0  0  0  0  0  0  0  0
  189.7350  173.2470  141.3580 C   0  0  0  0  0  3  0  0  0  0  0  0
  190.4100  172.5440  137.1620 N   0  0  0  0  0  0  0  0  0  0  0  0
  189.4460  173.4490  138.8930 C   0  0  0  0  0  0  0  0  0  0  0  0
  189.3170  173.1880  136.7790 N   0  0  0  0  0  0  0  0  0  0  0  0
  190.5250  172.6860  138.4970 C   0  0  0  0  0  2  0  0  0  0  0  0
  188.7080  173.7500  137.8100 N   0  0  0  0  0  0  0  0  0  0  0  0
  1  4  1  0  0  0  0
  2  5  1  0  0  0  0
  3  1  2  0  0  0  0
  5  9  1  0  0  0  0
  5  4  2  0  0  0  0
  6  3  1  0  0  0  0
  7  2  2  0  0  0  0
  7  3  1  0  0  0  0
  9  8  2  0  0  0  0
 11 10  2  0  0  0  0
 12  8  1  6  0  0  0
 12 10  1  0  0  0  0
 13 12  1  0  0  0  0
 14 13  2  0  0  0  0
 14 11  1  0  0  0  0
 16 17  2  0  0  0  0
 17 15  1  0  0  0  0
 17 14  1  0  0  0  0
 19 18  1  0  0  0  0
 19 13  1  0  0  0  0
 20  7  1  0  0  0  0
 21 22  1  0  0  0  0
 21 20  1  0  0  0  0
 24 23  1  0  0  0  0
 25 26  1  0  0  0  0
 26 22  1  0  0  0  0
 26 23  2  0  0  0  0
 27 25  2  0  0  0  0
 27 28  1  0  0  0  0
 28 24  2  0  0  0  0
 29 32  1  0  0  0  0
 30 27  1  0  0  0  0
 31 29  2  0  0  0  0
 31 33  1  0  0  0  0
 32 30  1  0  0  0  0
 33 30  2  0  0  0  0
M  END
>  <MODEL>
9

>  <REMARK>
 VINA RESULT:      -6.5      1.936      2.820
  Name = 
  9 active torsions:
  status: ('A' for Active; 'I' for Inactive)
    1  A    between atoms: C_4  and  C_24
    2  A    between atoms: C_5  and  C_21
    3  A    between atoms: C_9  and  C_10
    4  A    between atoms: C_17  and  C_25
    5  A    between atoms: C_20  and  N_32
    6  A    between atoms: C_26  and  C_30
    7  A    between atoms: O_28  and  C_31
    8  A    between atoms: O_28  and  C_33
    9  A    between atoms: N_32  and  C_33
                            x       y       z     vdW  Elec       q    Type
                         _______ _______ _______ _____ _____    ______ ____

>  <TORSDO>
F 9

$$$$
