=
 OpenBabel11042417213D

 26 31  0  0  1  0  0  0  0  0999 V2000
  187.8370  176.0270  146.0380 C   0  0  2  0  0  3  0  0  0  0  0  0
  185.0670  179.7980  144.6070 O   0  0  0  0  0  1  0  0  0  0  0  0
  185.4660  178.8340  140.4620 O   0  0  0  0  0  0  0  0  0  0  0  0
  187.1200  177.0860  146.8280 C   0  0  2  0  0  3  0  0  0  0  0  0
  183.2620  178.2600  142.5610 O   0  0  0  0  0  1  0  0  0  0  0  0
  185.6800  176.7070  146.6260 C   0  0  0  0  0  2  0  0  0  0  0  0
  185.4830  177.8780  141.4340 C   0  0  2  0  0  0  0  0  0  0  0  0
  189.2820  175.2010  146.9850 S   0  0  0  0  0  0  0  0  0  0  0  0
  186.1440  178.0840  146.1580 C   0  0  2  0  0  0  0  0  0  0  0  0
  188.3580  175.6300  142.4680 N   0  0  0  0  0  0  0  0  0  0  0  0
  189.3840  175.1080  144.4020 C   0  0  0  0  0  0  0  0  0  0  0  0
  185.1190  177.5400  139.9380 C   0  0  0  0  0  2  0  0  0  0  0  0
  185.4210  177.6900  143.6610 C   0  0  1  0  0  3  0  0  0  0  0  0
  184.6720  178.4470  142.5810 C   0  0  2  0  0  3  0  0  0  0  0  0
  186.8350  177.4190  143.2350 N   0  0  2  0  0  0  0  0  0  0  0  0
  189.9720  174.5110  145.3930 C   0  0  0  0  0  2  0  0  0  0  0  0
  186.9480  177.9530  141.9170 C   0  0  0  0  0  2  0  0  0  0  0  0
  185.2120  178.4290  145.0120 C   0  0  2  0  0  3  0  0  0  0  0  0
  188.3120  176.0400  144.6610 C   0  0  0  0  0  0  0  0  0  0  0  0
  187.6510  176.2640  143.5020 C   0  0  2  0  0  3  0  0  0  0  0  0
  189.3510  174.8940  142.9290 C   0  0  0  0  0  0  0  0  0  0  0  0
  191.3200  173.9150  142.0090 N   0  0  0  0  0  2  0  0  0  0  0  0
  190.0540  174.1610  141.8980 C   0  0  0  0  0  0  0  0  0  0  0  0
  189.3850  173.7700  140.6740 C   0  0  0  0  0  1  0  0  0  0  0  0
  186.0450  179.0670  147.2990 C   0  0  0  0  0  0  0  0  0  0  0  0
  186.0500  179.9300  148.0850 N   0  0  0  0  0  0  0  0  0  0  0  0
  1 19  1  6  0  0  0
  1  4  1  0  0  0  0
  1  8  1  0  0  0  0
  2 18  1  0  0  0  0
  3  7  1  0  0  0  0
  4  6  1  1  0  0  0
  5 14  1  0  0  0  0
  7 12  1  6  0  0  0
  7 17  1  0  0  0  0
  7 14  1  0  0  0  0
  9  6  1  0  0  0  0
  9  4  1  0  0  0  0
  9 25  1  1  0  0  0
 10 21  2  0  0  0  0
 10 20  1  0  0  0  0
 11 19  2  0  0  0  0
 11 16  1  0  0  0  0
 12  3  1  0  0  0  0
 13 18  1  0  0  0  0
 14 13  1  0  0  0  0
 15 20  1  0  0  0  0
 15 13  1  0  0  0  0
 16  8  1  0  0  0  0
 17 15  1  0  0  0  0
 18  9  1  0  0  0  0
 20 19  1  0  0  0  0
 21 11  1  0  0  0  0
 23 22  2  0  0  0  0
 23 21  1  0  0  0  0
 24 23  1  0  0  0  0
 25 26  3  0  0  0  0
M  END
>  <MODEL>
1

>  <REMARK>
 VINA RESULT:      -7.3      0.000      0.000
  Name = 
  2 active torsions:
  status: ('A' for Active; 'I' for Inactive)
    1  A    between atoms: C_7  and  C_10
    2  A    between atoms: C_21  and  C_26
                            x       y       z     vdW  Elec       q    Type
                         _______ _______ _______ _____ _____    ______ ____

>  <TORSDO>
F 2

$$$$
=
 OpenBabel11042417213D

 26 31  0  0  1  0  0  0  0  0999 V2000
  187.1940  177.8470  145.4080 C   0  0  2  0  0  3  0  0  0  0  0  0
  189.9630  173.9190  144.4870 O   0  0  0  0  0  1  0  0  0  0  0  0
  188.3950  173.4350  140.5410 O   0  0  0  0  0  0  0  0  0  0  0  0
  188.2190  177.1380  146.2490 C   0  0  2  0  0  3  0  0  0  0  0  0
  190.9720  174.7540  141.6420 O   0  0  0  0  0  1  0  0  0  0  0  0
  189.4990  177.4800  145.5390 C   0  0  0  0  0  2  0  0  0  0  0  0
  188.5070  174.6580  141.1320 C   0  0  2  0  0  0  0  0  0  0  0  0
  185.9470  178.8860  146.4220 S   0  0  0  0  0  0  0  0  0  0  0  0
  189.1110  176.0100  145.6710 C   0  0  2  0  0  0  0  0  0  0  0  0
  185.7300  177.0150  142.1930 N   0  0  0  0  0  0  0  0  0  0  0  0
  185.1760  178.1120  144.0790 C   0  0  0  0  0  0  0  0  0  0  0  0
  188.4280  174.4930  139.5670 C   0  0  0  0  0  2  0  0  0  0  0  0
  189.1120  175.5780  143.0780 C   0  0  1  0  0  3  0  0  0  0  0  0
  189.6500  174.5330  142.1190 C   0  0  2  0  0  3  0  0  0  0  0  0
  187.6140  175.6400  143.0100 N   0  0  2  0  0  0  0  0  0  0  0  0
  184.7900  178.9820  144.9600 C   0  0  0  0  0  2  0  0  0  0  0  0
  187.2360  174.6940  142.0100 C   0  0  0  0  0  2  0  0  0  0  0  0
  189.7540  175.3380  144.4730 C   0  0  2  0  0  3  0  0  0  0  0  0
  186.3890  177.3590  144.2960 C   0  0  0  0  0  0  0  0  0  0  0  0
  186.7530  176.7870  143.1260 C   0  0  2  0  0  3  0  0  0  0  0  0
  184.8020  177.8250  142.6660 C   0  0  0  0  0  0  0  0  0  0  0  0
  182.5450  178.3190  142.0820 N   0  0  0  0  0  2  0  0  0  0  0  0
  183.7710  178.1470  141.7030 C   0  0  0  0  0  0  0  0  0  0  0  0
  184.0630  178.1900  140.2850 C   0  0  0  0  0  1  0  0  0  0  0  0
  189.6240  175.4660  146.9830 C   0  0  0  0  0  0  0  0  0  0  0  0
  190.1430  174.9820  147.9090 N   0  0  0  0  0  0  0  0  0  0  0  0
  1 19  1  1  0  0  0
  1  4  1  0  0  0  0
  1  8  1  0  0  0  0
  3  7  1  0  0  0  0
  4  6  1  6  0  0  0
  5 14  1  0  0  0  0
  6  9  1  0  0  0  0
  7 12  1  6  0  0  0
  7 17  1  0  0  0  0
  7 14  1  0  0  0  0
  9  4  1  0  0  0  0
  9 25  1  1  0  0  0
 10 21  2  0  0  0  0
 10 20  1  0  0  0  0
 11 19  2  0  0  0  0
 11 16  1  0  0  0  0
 12  3  1  0  0  0  0
 13 18  1  0  0  0  0
 14 13  1  0  0  0  0
 15 13  1  0  0  0  0
 15 20  1  0  0  0  0
 16  8  1  0  0  0  0
 17 15  1  0  0  0  0
 18  2  1  0  0  0  0
 18  9  1  0  0  0  0
 20 19  1  0  0  0  0
 21 11  1  0  0  0  0
 23 22  2  0  0  0  0
 23 21  1  0  0  0  0
 24 23  1  0  0  0  0
 25 26  3  0  0  0  0
M  END
>  <MODEL>
2

>  <REMARK>
 VINA RESULT:      -7.3      3.214      5.402
  Name = 
  2 active torsions:
  status: ('A' for Active; 'I' for Inactive)
    1  A    between atoms: C_7  and  C_10
    2  A    between atoms: C_21  and  C_26
                            x       y       z     vdW  Elec       q    Type
                         _______ _______ _______ _____ _____    ______ ____

>  <TORSDO>
F 2

$$$$
=
 OpenBabel11042417213D

 26 31  0  0  1  0  0  0  0  0999 V2000
  190.0850  177.1170  143.0780 C   0  0  2  0  0  3  0  0  0  0  0  0
  185.2120  177.2620  142.6540 O   0  0  0  0  0  1  0  0  0  0  0  0
  184.6100  177.5850  146.8730 O   0  0  0  0  0  0  0  0  0  0  0  0
  189.1940  177.0790  141.8670 C   0  0  2  0  0  3  0  0  0  0  0  0
  184.6790  179.6700  144.5840 O   0  0  0  0  0  1  0  0  0  0  0  0
  188.6530  178.4810  141.8320 C   0  0  0  0  0  2  0  0  0  0  0  0
  185.7130  178.0960  146.2570 C   0  0  2  0  0  0  0  0  0  0  0  0
  191.8270  176.3830  142.7780 S   0  0  0  0  0  0  0  0  0  0  0  0
  187.6670  177.3240  141.9690 C   0  0  2  0  0  0  0  0  0  0  0  0
  189.3270  177.0020  146.6250 N   0  0  0  0  0  0  0  0  0  0  0  0
  190.9870  176.4140  145.2230 C   0  0  0  0  0  0  0  0  0  0  0  0
  185.2230  178.6230  147.6590 C   0  0  0  0  0  2  0  0  0  0  0  0
  186.6570  178.2010  144.2320 C   0  0  1  0  0  3  0  0  0  0  0  0
  185.2820  178.4070  144.8380 C   0  0  2  0  0  3  0  0  0  0  0  0
  187.4470  177.2070  145.0350 N   0  0  0  0  0  0  0  0  0  0  0  0
  192.1220  176.2510  144.6170 C   0  0  0  0  0  2  0  0  0  0  0  0
  186.6040  176.8410  146.1270 C   0  0  0  0  0  2  0  0  0  0  0  0
  186.4860  177.9170  142.7140 C   0  0  2  0  0  3  0  0  0  0  0  0
  189.8080  176.7530  144.4610 C   0  0  0  0  0  0  0  0  0  0  0  0
  188.8580  177.1940  145.3160 C   0  0  0  0  0  0  0  0  0  0  0  0
  190.5830  176.5990  146.6450 C   0  0  2  0  0  3  0  0  0  0  0  0
  191.3460  175.2980  148.4900 N   0  0  0  0  0  2  0  0  0  0  0  0
  191.1270  176.4670  147.9790 C   0  0  0  0  0  0  0  0  0  0  0  0
  191.3490  177.6320  148.8120 C   0  0  0  0  0  1  0  0  0  0  0  0
  187.2890  176.8150  140.5990 C   0  0  0  0  0  0  0  0  0  0  0  0
  186.9220  176.5660  139.5200 N   0  0  0  0  0  0  0  0  0  0  0  0
  1  8  1  6  0  0  0
  1 19  1  0  0  0  0
  3 12  1  0  0  0  0
  4  6  1  6  0  0  0
  4  9  1  0  0  0  0
  4  1  1  0  0  0  0
  6  9  1  0  0  0  0
  7 17  1  1  0  0  0
  7  3  1  0  0  0  0
  7 12  1  0  0  0  0
  8 16  1  0  0  0  0
  9 25  1  6  0  0  0
  9 18  1  0  0  0  0
 10 21  1  0  0  0  0
 11 21  1  0  0  0  0
 13 14  1  0  0  0  0
 13 15  1  1  0  0  0
 14  5  1  1  0  0  0
 14  7  1  0  0  0  0
 15 20  1  0  0  0  0
 15 17  1  0  0  0  0
 16 11  1  0  0  0  0
 18  2  1  1  0  0  0
 18 13  1  0  0  0  0
 19 11  2  0  0  0  0
 19 20  1  0  0  0  0
 20 10  2  0  0  0  0
 21 23  1  1  0  0  0
 23 22  2  0  0  0  0
 23 24  1  0  0  0  0
 26 25  3  0  0  0  0
M  END
>  <MODEL>
3

>  <REMARK>
 VINA RESULT:      -7.2      2.769      5.105
  Name = 
  2 active torsions:
  status: ('A' for Active; 'I' for Inactive)
    1  A    between atoms: C_7  and  C_10
    2  A    between atoms: C_21  and  C_26
                            x       y       z     vdW  Elec       q    Type
                         _______ _______ _______ _____ _____    ______ ____

>  <TORSDO>
F 2

$$$$
=
 OpenBabel11042417213D

 26 31  0  0  1  0  0  0  0  0999 V2000
  186.9790  177.0180  141.3540 C   0  0  2  0  0  3  0  0  0  0  0  0
  189.2220  178.0420  145.5810 O   0  0  0  0  0  1  0  0  0  0  0  0
  185.5660  179.0200  147.5660 O   0  0  0  0  0  0  0  0  0  0  0  0
  188.4300  176.9640  141.7450 C   0  0  2  0  0  3  0  0  0  0  0  0
  187.3060  176.4590  147.4850 O   0  0  0  0  0  1  0  0  0  0  0  0
  188.4580  175.7950  142.6880 C   0  0  0  0  0  2  0  0  0  0  0  0
  185.6240  178.0950  146.5670 C   0  0  2  0  0  0  0  0  0  0  0  0
  186.6910  177.1660  139.4670 S   0  0  0  0  0  0  0  0  0  0  0  0
  188.8890  177.1620  143.2110 C   0  0  2  0  0  0  0  0  0  0  0  0
  184.0610  178.2660  143.1150 N   0  0  0  0  0  0  0  0  0  0  0  0
  184.7860  178.0050  141.0000 C   0  0  0  0  0  0  0  0  0  0  0  0
  184.4570  178.1060  147.6270 C   0  0  0  0  0  2  0  0  0  0  0  0
  187.0860  177.2130  145.1230 C   0  0  1  0  0  3  0  0  0  0  0  0
  187.0340  177.5410  146.6040 C   0  0  2  0  0  3  0  0  0  0  0  0
  186.2020  178.1430  144.3430 N   0  0  2  0  0  0  0  0  0  0  0  0
  184.9250  177.7000  139.7470 C   0  0  0  0  0  2  0  0  0  0  0  0
  185.5890  178.9930  145.3110 C   0  0  0  0  0  2  0  0  0  0  0  0
  188.5760  177.1170  144.6950 C   0  0  2  0  0  3  0  0  0  0  0  0
  185.8830  177.7960  141.9160 C   0  0  0  0  0  0  0  0  0  0  0  0
  185.4040  177.8610  143.1790 C   0  0  2  0  0  3  0  0  0  0  0  0
  183.6200  178.3170  141.8730 C   0  0  0  0  0  0  0  0  0  0  0  0
  181.5960  179.2060  142.7630 N   0  0  0  0  0  2  0  0  0  0  0  0
  182.2160  178.6530  141.7710 C   0  0  0  0  0  0  0  0  0  0  0  0
  181.4460  178.2910  140.5980 C   0  0  0  0  0  1  0  0  0  0  0  0
  190.3590  177.3690  142.9370 C   0  0  0  0  0  0  0  0  0  0  0  0
  191.5120  177.5380  142.8870 N   0  0  0  0  0  0  0  0  0  0  0  0
  1  8  1  6  0  0  0
  1  4  1  0  0  0  0
  1 19  1  0  0  0  0
  3 12  1  0  0  0  0
  4  6  1  1  0  0  0
  4  9  1  0  0  0  0
  6  9  1  0  0  0  0
  7 17  1  6  0  0  0
  7 14  1  0  0  0  0
  7  3  1  0  0  0  0
  7 12  1  0  0  0  0
  8 16  1  0  0  0  0
  9 25  1  6  0  0  0
  9 18  1  0  0  0  0
 10 20  1  0  0  0  0
 11 21  1  0  0  0  0
 11 19  2  0  0  0  0
 13 14  1  0  0  0  0
 14  5  1  0  0  0  0
 15 13  1  0  0  0  0
 15 17  1  0  0  0  0
 16 11  1  0  0  0  0
 18 13  1  0  0  0  0
 18  2  1  0  0  0  0
 19 20  1  0  0  0  0
 20 15  1  0  0  0  0
 21 10  2  0  0  0  0
 23 21  1  0  0  0  0
 23 22  2  0  0  0  0
 24 23  1  0  0  0  0
 26 25  3  0  0  0  0
M  END
>  <MODEL>
4

>  <REMARK>
 VINA RESULT:      -6.8      3.033      6.247
  Name = 
  2 active torsions:
  status: ('A' for Active; 'I' for Inactive)
    1  A    between atoms: C_7  and  C_10
    2  A    between atoms: C_21  and  C_26
                            x       y       z     vdW  Elec       q    Type
                         _______ _______ _______ _____ _____    ______ ____

>  <TORSDO>
F 2

$$$$
=
 OpenBabel11042417213D

 26 31  0  0  1  0  0  0  0  0999 V2000
  190.1930  174.0930  144.6060 C   0  0  2  0  0  3  0  0  0  0  0  0
  188.4710  178.1540  146.7250 O   0  0  0  0  0  1  0  0  0  0  0  0
  185.6850  178.9100  143.5740 O   0  0  0  0  0  0  0  0  0  0  0  0
  190.5480  174.7600  145.9060 C   0  0  2  0  0  3  0  0  0  0  0  0
  185.4160  177.5750  146.3560 O   0  0  0  0  0  1  0  0  0  0  0  0
  189.3200  174.5090  146.7330 C   0  0  0  0  0  2  0  0  0  0  0  0
  186.0610  177.6470  143.9220 C   0  0  2  0  0  0  0  0  0  0  0  0
  191.5650  172.9430  143.9260 S   0  0  0  0  0  0  0  0  0  0  0  0
  189.7320  175.9530  146.4620 C   0  0  2  0  0  0  0  0  0  0  0  0
  188.0420  175.1410  141.8770 N   0  0  0  0  0  0  0  0  0  0  0  0
  189.8790  173.8820  142.2040 C   0  0  0  0  0  0  0  0  0  0  0  0
  184.7120  177.9350  143.1590 C   0  0  0  0  0  2  0  0  0  0  0  0
  187.4530  176.5910  145.3180 C   0  0  1  0  0  3  0  0  0  0  0  0
  186.4450  177.7230  145.3860 C   0  0  2  0  0  3  0  0  0  0  0  0
  188.0510  176.4950  143.9440 N   0  0  2  0  0  0  0  0  0  0  0  0
  190.7640  172.9340  142.2400 C   0  0  0  0  0  2  0  0  0  0  0  0
  187.4040  177.5080  143.1730 C   0  0  0  0  0  2  0  0  0  0  0  0
  188.4330  176.7360  146.5140 C   0  0  2  0  0  3  0  0  0  0  0  0
  189.5990  174.6470  143.3970 C   0  0  0  0  0  0  0  0  0  0  0  0
  188.4410  175.3200  143.2110 C   0  0  2  0  0  3  0  0  0  0  0  0
  188.8080  174.2700  141.2460 C   0  0  0  0  0  0  0  0  0  0  0  0
  187.8960  174.9440  139.1500 N   0  0  0  0  0  2  0  0  0  0  0  0
  188.3790  173.9990  139.8910 C   0  0  0  0  0  0  0  0  0  0  0  0
  188.3880  172.6500  139.3630 C   0  0  0  0  0  1  0  0  0  0  0  0
  190.7200  176.4040  147.5100 C   0  0  0  0  0  0  0  0  0  0  0  0
  191.3590  176.8330  148.3870 N   0  0  0  0  0  0  0  0  0  0  0  0
  1 19  1  6  0  0  0
  1  4  1  0  0  0  0
  3  7  1  0  0  0  0
  4  9  1  0  0  0  0
  4  6  1  1  0  0  0
  7 12  1  6  0  0  0
  7 14  1  0  0  0  0
  8  1  1  0  0  0  0
  9 18  1  0  0  0  0
  9  6  1  0  0  0  0
  9 25  1  1  0  0  0
 10 20  1  0  0  0  0
 11 16  1  0  0  0  0
 11 19  2  0  0  0  0
 12  3  1  0  0  0  0
 13 14  1  0  0  0  0
 13 18  1  0  0  0  0
 14  5  1  0  0  0  0
 15 13  1  0  0  0  0
 16  8  1  0  0  0  0
 17  7  1  0  0  0  0
 17 15  1  0  0  0  0
 18  2  1  0  0  0  0
 20 19  1  0  0  0  0
 20 15  1  0  0  0  0
 21 10  2  0  0  0  0
 21 11  1  0  0  0  0
 22 23  2  0  0  0  0
 23 21  1  0  0  0  0
 24 23  1  0  0  0  0
 25 26  3  0  0  0  0
M  END
>  <MODEL>
5

>  <REMARK>
 VINA RESULT:      -6.7      2.266      3.503
  Name = 
  2 active torsions:
  status: ('A' for Active; 'I' for Inactive)
    1  A    between atoms: C_7  and  C_10
    2  A    between atoms: C_21  and  C_26
                            x       y       z     vdW  Elec       q    Type
                         _______ _______ _______ _____ _____    ______ ____

>  <TORSDO>
F 2

$$$$
=
 OpenBabel11042417213D

 26 31  0  0  1  0  0  0  0  0999 V2000
  189.4390  174.7830  143.3170 C   0  0  2  0  0  3  0  0  0  0  0  0
  189.1010  177.1990  147.5590 O   0  0  0  0  0  1  0  0  0  0  0  0
  185.6640  179.4090  146.3070 O   0  0  0  0  0  0  0  0  0  0  0  0
  190.2670  174.7060  144.5700 C   0  0  2  0  0  3  0  0  0  0  0  0
  186.0220  176.8500  148.0150 O   0  0  0  0  0  1  0  0  0  0  0  0
  189.3160  174.0580  145.5360 C   0  0  0  0  0  2  0  0  0  0  0  0
  185.9180  178.1480  145.8580 C   0  0  2  0  0  0  0  0  0  0  0  0
  190.3430  174.1490  141.7530 S   0  0  0  0  0  0  0  0  0  0  0  0
  189.8560  175.4470  145.8670 C   0  0  2  0  0  0  0  0  0  0  0  0
  186.7720  177.0390  142.3320 N   0  0  0  0  0  0  0  0  0  0  0  0
  188.3960  175.8080  141.3750 C   0  0  0  0  0  0  0  0  0  0  0  0
  184.4680  178.7650  145.8320 C   0  0  0  0  0  2  0  0  0  0  0  0
  187.4730  176.5480  146.0140 C   0  0  1  0  0  3  0  0  0  0  0  0
  186.7270  177.4790  146.9510 C   0  0  2  0  0  3  0  0  0  0  0  0
  187.6120  177.1660  144.6530 N   0  0  2  0  0  0  0  0  0  0  0  0
  189.0870  174.9830  140.6520 C   0  0  0  0  0  2  0  0  0  0  0  0
  186.9370  178.4210  144.7300 C   0  0  0  0  0  2  0  0  0  0  0  0
  188.7740  176.0810  146.7220 C   0  0  2  0  0  3  0  0  0  0  0  0
  188.6100  175.8640  142.8020 C   0  0  0  0  0  0  0  0  0  0  0  0
  187.5720  176.5250  143.3650 C   0  0  2  0  0  3  0  0  0  0  0  0
  187.1650  176.6150  141.1460 C   0  0  0  0  0  0  0  0  0  0  0  0
  186.6080  176.7740  138.8340 N   0  0  0  0  0  2  0  0  0  0  0  0
  186.3160  177.0600  140.0620 C   0  0  0  0  0  0  0  0  0  0  0  0
  185.1730  177.9150  140.3140 C   0  0  0  0  0  1  0  0  0  0  0  0
  191.1690  175.3180  146.5990 C   0  0  0  0  0  0  0  0  0  0  0  0
  192.1250  175.3290  147.2680 N   0  0  0  0  0  0  0  0  0  0  0  0
  1  8  1  6  0  0  0
  1  4  1  0  0  0  0
  4  6  1  1  0  0  0
  4  9  1  0  0  0  0
  6  9  1  0  0  0  0
  7 17  1  6  0  0  0
  7  3  1  0  0  0  0
  7 14  1  0  0  0  0
  9 25  1  1  0  0  0
  9 18  1  0  0  0  0
 10 20  1  0  0  0  0
 11 19  2  0  0  0  0
 12  7  1  0  0  0  0
 12  3  1  0  0  0  0
 13 18  1  0  0  0  0
 13 14  1  0  0  0  0
 14  5  1  0  0  0  0
 15 17  1  0  0  0  0
 15 13  1  0  0  0  0
 16 11  1  0  0  0  0
 16  8  1  0  0  0  0
 18  2  1  0  0  0  0
 19  1  1  0  0  0  0
 19 20  1  0  0  0  0
 20 15  1  0  0  0  0
 21 11  1  0  0  0  0
 21 10  2  0  0  0  0
 22 23  2  0  0  0  0
 23 24  1  0  0  0  0
 23 21  1  0  0  0  0
 25 26  3  0  0  0  0
M  END
>  <MODEL>
6

>  <REMARK>
 VINA RESULT:      -6.5      2.599      4.753
  Name = 
  2 active torsions:
  status: ('A' for Active; 'I' for Inactive)
    1  A    between atoms: C_7  and  C_10
    2  A    between atoms: C_21  and  C_26
                            x       y       z     vdW  Elec       q    Type
                         _______ _______ _______ _____ _____    ______ ____

>  <TORSDO>
F 2

$$$$
=
 OpenBabel11042417213D

 26 31  0  0  1  0  0  0  0  0999 V2000
  187.7760  177.3090  142.7670 C   0  0  2  0  0  3  0  0  0  0  0  0
  189.3430  174.7850  146.6550 O   0  0  0  0  0  1  0  0  0  0  0  0
  190.9960  171.6530  144.2630 O   0  0  0  0  0  0  0  0  0  0  0  0
  187.6910  177.6020  144.2390 C   0  0  2  0  0  3  0  0  0  0  0  0
  192.2300  174.1450  145.6250 O   0  0  0  0  0  1  0  0  0  0  0  0
  189.1240  177.8940  144.5840 C   0  0  0  0  0  2  0  0  0  0  0  0
  190.9370  172.9430  143.8280 C   0  0  2  0  0  0  0  0  0  0  0  0
  186.4720  178.2370  141.7170 S   0  0  0  0  0  0  0  0  0  0  0  0
  188.4270  176.7330  145.2890 C   0  0  2  0  0  0  0  0  0  0  0  0
  188.8950  174.3640  140.9640 N   0  0  0  0  0  0  0  0  0  0  0  0
  187.4460  176.0660  140.7030 C   0  0  0  0  0  0  0  0  0  0  0  0
  191.9580  171.9060  143.2250 C   0  0  0  0  0  2  0  0  0  0  0  0
  190.1700  174.9410  144.4760 C   0  0  1  0  0  3  0  0  0  0  0  0
  190.9640  173.7980  145.0790 C   0  0  2  0  0  3  0  0  0  0  0  0
  189.2400  174.4380  143.4100 N   0  0  2  0  0  0  0  0  0  0  0  0
  186.7680  177.0870  140.2770 C   0  0  0  0  0  2  0  0  0  0  0  0
  189.4790  173.0330  143.3250 C   0  0  0  0  0  2  0  0  0  0  0  0
  189.5480  175.7700  145.6330 C   0  0  2  0  0  3  0  0  0  0  0  0
  187.9170  176.0380  142.0680 C   0  0  0  0  0  0  0  0  0  0  0  0
  188.8570  175.0710  142.1760 C   0  0  2  0  0  3  0  0  0  0  0  0
  188.1350  174.9240  140.0420 C   0  0  0  0  0  0  0  0  0  0  0  0
  187.8150  174.8740  137.6810 N   0  0  0  0  0  2  0  0  0  0  0  0
  188.2110  174.2690  138.7540 C   0  0  0  0  0  0  0  0  0  0  0  0
  188.6390  172.8890  138.6440 C   0  0  0  0  0  1  0  0  0  0  0  0
  187.7070  177.2430  146.5140 C   0  0  0  0  0  0  0  0  0  0  0  0
  187.0300  177.5360  147.4180 N   0  0  0  0  0  0  0  0  0  0  0  0
  1  8  1  6  0  0  0
  1  4  1  0  0  0  0
  4  6  1  6  0  0  0
  4  9  1  0  0  0  0
  6  9  1  0  0  0  0
  7 12  1  6  0  0  0
  7  3  1  0  0  0  0
  7 14  1  0  0  0  0
  9 18  1  0  0  0  0
  9 25  1  1  0  0  0
 10 20  1  0  0  0  0
 11 19  2  0  0  0  0
 12  3  1  0  0  0  0
 13 14  1  0  0  0  0
 13 18  1  0  0  0  0
 14  5  1  0  0  0  0
 15 13  1  0  0  0  0
 16 11  1  0  0  0  0
 16  8  1  0  0  0  0
 17 15  1  0  0  0  0
 17  7  1  0  0  0  0
 18  2  1  0  0  0  0
 19 20  1  0  0  0  0
 19  1  1  0  0  0  0
 20 15  1  0  0  0  0
 21 11  1  0  0  0  0
 21 10  2  0  0  0  0
 22 23  2  0  0  0  0
 23 21  1  0  0  0  0
 24 23  1  0  0  0  0
 25 26  3  0  0  0  0
M  END
>  <MODEL>
7

>  <REMARK>
 VINA RESULT:      -6.4      3.774      5.592
  Name = 
  2 active torsions:
  status: ('A' for Active; 'I' for Inactive)
    1  A    between atoms: C_7  and  C_10
    2  A    between atoms: C_21  and  C_26
                            x       y       z     vdW  Elec       q    Type
                         _______ _______ _______ _____ _____    ______ ____

>  <TORSDO>
F 2

$$$$
=
 OpenBabel11042417213D

 26 31  0  0  1  0  0  0  0  0999 V2000
  186.7930  177.4780  145.2650 C   0  0  2  0  0  3  0  0  0  0  0  0
  187.7660  176.5190  140.5660 O   0  0  0  0  0  1  0  0  0  0  0  0
  191.4540  174.5610  141.4750 O   0  0  0  0  0  0  0  0  0  0  0  0
  186.0180  177.7750  144.0120 C   0  0  2  0  0  3  0  0  0  0  0  0
  188.5960  173.5170  140.8970 O   0  0  0  0  0  1  0  0  0  0  0  0
  185.5650  176.4050  143.5910 C   0  0  0  0  0  2  0  0  0  0  0  0
  190.3940  174.5440  142.3320 C   0  0  2  0  0  0  0  0  0  0  0  0
  186.3360  178.6050  146.7430 S   0  0  0  0  0  0  0  0  0  0  0  0
  186.4430  177.2080  142.6340 C   0  0  2  0  0  0  0  0  0  0  0  0
  190.1260  176.1320  145.7670 N   0  0  0  0  0  0  0  0  0  0  0  0
  188.6790  177.5130  146.7990 C   0  0  0  0  0  0  0  0  0  0  0  0
  191.5310  173.4540  142.3910 C   0  0  0  0  0  2  0  0  0  0  0  0
  188.3290  175.3800  142.5270 C   0  0  1  0  0  3  0  0  0  0  0  0
  189.1630  174.6930  141.4610 C   0  0  2  0  0  3  0  0  0  0  0  0
  189.2060  176.1480  143.4730 N   0  0  0  0  0  0  0  0  0  0  0  0
  187.8960  178.1120  147.6420 C   0  0  0  0  0  2  0  0  0  0  0  0
  190.5430  175.9120  143.0340 C   0  0  0  0  0  2  0  0  0  0  0  0
  187.1820  176.1580  141.8260 C   0  0  2  0  0  3  0  0  0  0  0  0
  188.2190  177.2460  145.4560 C   0  0  0  0  0  0  0  0  0  0  0  0
  189.0490  176.3410  144.8910 C   0  0  0  0  0  0  0  0  0  0  0  0
  189.9490  176.7440  146.9220 C   0  0  2  0  0  3  0  0  0  0  0  0
  191.4770  175.2920  148.0330 N   0  0  0  0  0  2  0  0  0  0  0  0
  191.0010  176.4860  147.8810 C   0  0  0  0  0  0  0  0  0  0  0  0
  191.4800  177.5320  148.7620 C   0  0  0  0  0  1  0  0  0  0  0  0
  185.5760  178.0950  141.7740 C   0  0  0  0  0  0  0  0  0  0  0  0
  184.9200  178.6640  140.9950 N   0  0  0  0  0  0  0  0  0  0  0  0
  1 19  1  6  0  0  0
  1  8  1  0  0  0  0
  3  7  1  0  0  0  0
  3 12  1  0  0  0  0
  4  6  1  1  0  0  0
  4  1  1  0  0  0  0
  7 12  1  1  0  0  0
  7 17  1  0  0  0  0
  8 16  1  0  0  0  0
  9 25  1  6  0  0  0
  9  6  1  0  0  0  0
  9  4  1  0  0  0  0
 10 21  1  0  0  0  0
 11 21  1  0  0  0  0
 11 16  1  0  0  0  0
 13 15  1  6  0  0  0
 14  5  1  1  0  0  0
 14  7  1  0  0  0  0
 14 13  1  0  0  0  0
 15 20  1  0  0  0  0
 17 15  1  0  0  0  0
 18  2  1  6  0  0  0
 18 13  1  0  0  0  0
 18  9  1  0  0  0  0
 19 11  2  0  0  0  0
 20 19  1  0  0  0  0
 20 10  2  0  0  0  0
 21 23  1  6  0  0  0
 23 22  2  0  0  0  0
 23 24  1  0  0  0  0
 26 25  3  0  0  0  0
M  END
>  <MODEL>
8

>  <REMARK>
 VINA RESULT:      -6.4      3.120      5.256
  Name = 
  2 active torsions:
  status: ('A' for Active; 'I' for Inactive)
    1  A    between atoms: C_7  and  C_10
    2  A    between atoms: C_21  and  C_26
                            x       y       z     vdW  Elec       q    Type
                         _______ _______ _______ _____ _____    ______ ____

>  <TORSDO>
F 2

$$$$
=
 OpenBabel11042417213D

 26 31  0  0  1  0  0  0  0  0999 V2000
  189.4090  176.3900  146.5270 C   0  0  2  0  0  3  0  0  0  0  0  0
  185.8640  179.1890  144.6450 O   0  0  0  0  0  1  0  0  0  0  0  0
  186.9740  178.3090  140.6130 O   0  0  0  0  0  0  0  0  0  0  0  0
  188.3400  177.2140  147.1890 C   0  0  2  0  0  3  0  0  0  0  0  0
  184.8030  177.1660  142.5020 O   0  0  0  0  0  1  0  0  0  0  0  0
  187.0960  176.4370  146.8610 C   0  0  0  0  0  2  0  0  0  0  0  0
  187.1520  177.4140  141.6250 C   0  0  2  0  0  0  0  0  0  0  0  0
  190.9140  176.0270  147.6530 S   0  0  0  0  0  0  0  0  0  0  0  0
  187.2020  177.8800  146.3770 C   0  0  2  0  0  0  0  0  0  0  0  0
  190.4120  176.0990  143.0510 N   0  0  0  0  0  0  0  0  0  0  0  0
  191.3230  175.9230  145.1020 C   0  0  0  0  0  0  0  0  0  0  0  0
  187.0660  176.9620  140.1180 C   0  0  0  0  0  2  0  0  0  0  0  0
  186.9000  177.2550  143.8410 C   0  0  1  0  0  3  0  0  0  0  0  0
  186.0920  177.7480  142.6560 C   0  0  2  0  0  3  0  0  0  0  0  0
  188.3710  177.3910  143.5740 N   0  0  2  0  0  0  0  0  0  0  0  0
  191.9420  175.5360  146.1740 C   0  0  0  0  0  2  0  0  0  0  0  0
  188.4740  177.9130  142.2500 C   0  0  0  0  0  2  0  0  0  0  0  0
  186.3430  177.9260  145.1270 C   0  0  2  0  0  3  0  0  0  0  0  0
  190.0090  176.5150  145.2060 C   0  0  0  0  0  0  0  0  0  0  0  0
  189.4440  176.5210  143.9770 C   0  0  2  0  0  3  0  0  0  0  0  0
  191.5150  175.6840  143.6450 C   0  0  0  0  0  0  0  0  0  0  0  0
  193.7600  175.4360  142.8870 N   0  0  0  0  0  2  0  0  0  0  0  0
  192.5050  175.1650  142.7260 C   0  0  0  0  0  0  0  0  0  0  0  0
  192.1110  174.4120  141.5530 C   0  0  0  0  0  1  0  0  0  0  0  0
  186.7040  178.8140  147.4540 C   0  0  0  0  0  0  0  0  0  0  0  0
  186.3160  179.6490  148.1700 N   0  0  0  0  0  0  0  0  0  0  0  0
  1 19  1  6  0  0  0
  1  4  1  0  0  0  0
  1  8  1  0  0  0  0
  2 18  1  0  0  0  0
  3  7  1  0  0  0  0
  4  6  1  1  0  0  0
  5 14  1  0  0  0  0
  7 12  1  6  0  0  0
  7 17  1  0  0  0  0
  7 14  1  0  0  0  0
  9  6  1  0  0  0  0
  9  4  1  0  0  0  0
  9 25  1  1  0  0  0
 10 21  2  0  0  0  0
 10 20  1  0  0  0  0
 11 19  2  0  0  0  0
 11 16  1  0  0  0  0
 12  3  1  0  0  0  0
 13 18  1  0  0  0  0
 14 13  1  0  0  0  0
 15 13  1  0  0  0  0
 15 20  1  0  0  0  0
 16  8  1  0  0  0  0
 17 15  1  0  0  0  0
 18  9  1  0  0  0  0
 20 19  1  0  0  0  0
 21 11  1  0  0  0  0
 23 22  2  0  0  0  0
 23 21  1  0  0  0  0
 24 23  1  0  0  0  0
 25 26  3  0  0  0  0
M  END
>  <MODEL>
9

>  <REMARK>
 VINA RESULT:      -6.4      1.719      1.874
  Name = 
  2 active torsions:
  status: ('A' for Active; 'I' for Inactive)
    1  A    between atoms: C_7  and  C_10
    2  A    between atoms: C_21  and  C_26
                            x       y       z     vdW  Elec       q    Type
                         _______ _______ _______ _____ _____    ______ ____

>  <TORSDO>
F 2

$$$$
