=
 OpenBabel11042415263D

 63 64  0  0  1  0  0  0  0  0999 V2000
  193.7550  173.9620  143.0970 C   0  0  2  0  0  3  0  0  0  0  0  0
  194.0390  172.7000  143.7720 N   0  0  0  0  0  2  0  0  0  0  0  0
  193.2610  171.5240  143.5430 C   0  0  0  0  0  0  0  0  0  0  0  0
  192.0450  171.5990  142.7930 N   0  0  0  0  0  2  0  0  0  0  0  0
  193.6520  170.4260  144.0170 O   0  0  0  0  0  0  0  0  0  0  0  0
  191.1970  170.4430  142.5550 C   0  0  2  0  0  3  0  0  0  0  0  0
  191.9670  168.2770  141.4750 N   0  0  0  0  0  1  0  0  0  0  0  0
  191.7080  169.6760  141.3760 C   0  0  0  0  0  0  0  0  0  0  0  0
  191.9570  170.2940  140.2700 N   0  0  0  0  0  2  0  0  0  0  0  0
  189.8290  170.8920  142.3340 N   0  0  0  0  0  2  0  0  0  0  0  0
  188.9130  172.5580  140.9900 C   0  0  0  0  0  3  0  0  0  0  0  0
  189.5280  172.2340  142.0780 N   0  0  0  0  0  0  0  0  0  0  0  0
  188.3200  174.8480  141.8250 N   0  0  0  0  0  2  0  0  0  0  0  0
  188.5190  173.9430  140.7340 C   0  0  0  0  0  0  0  0  0  0  0  0
  188.2910  174.3100  139.5520 O   0  0  0  0  0  0  0  0  0  0  0  0
  185.9380  177.6980  142.0440 N   0  0  0  0  0  0  0  0  0  0  0  0
  188.7960  177.2080  142.2420 C   0  0  0  0  0  2  0  0  0  0  0  0
  187.8290  176.2010  141.6250 C   0  0  2  0  0  3  0  0  0  0  0  0
  188.2120  178.6190  142.1750 C   0  0  0  0  0  2  0  0  0  0  0  0
  186.4610  176.3490  142.2860 C   0  0  0  0  0  2  0  0  0  0  0  0
  186.8060  178.6260  142.7820 C   0  0  0  0  0  2  0  0  0  0  0  0
  184.5730  177.7850  142.5910 C   0  0  1  0  0  3  0  0  0  0  0  0
  184.5490  178.6370  143.8630 C   0  0  0  0  0  1  0  0  0  0  0  0
  184.1310  178.2110  140.1470 C   0  0  0  0  0  1  0  0  0  0  0  0
  183.5810  178.3520  141.5560 C   0  0  1  0  0  3  0  0  0  0  0  0
  182.3310  177.7280  141.6490 O   0  0  0  0  0  0  0  0  0  0  0  0
  181.5920  178.2290  140.5750 C   0  0  0  0  0  2  0  0  0  0  0  0
  180.9490  179.4080  140.9570 O   0  0  0  0  0  1  0  0  0  0  0  0
  193.2160  174.1560  140.6760 O   0  0  0  0  0  1  0  0  0  0  0  0
  195.4100  173.5110  141.3300 C   0  0  0  0  0  3  0  0  0  0  0  0
  194.1660  173.8780  141.6550 C   0  0  0  0  0  0  0  0  0  0  0  0
  196.9940  173.9790  139.5180 C   0  0  0  0  0  0  0  0  0  0  0  0
  195.9120  173.3010  139.9550 C   0  0  0  0  0  0  0  0  0  0  0  0
  196.3780  175.0460  136.1020 C   0  0  0  0  0  3  0  0  0  0  0  0
  196.9170  174.4260  137.1120 C   0  0  0  0  0  0  0  0  0  0  0  0
  196.8710  176.3940  135.7100 C   0  0  0  0  0  1  0  0  0  0  0  0
  197.4630  173.8060  138.1260 C   0  0  0  0  0  3  0  0  0  0  0  0
  195.2660  172.3300  139.1160 N   0  0  0  0  0  2  0  0  0  0  0  0
  195.6310  170.9460  139.1090 C   0  0  0  0  0  0  0  0  0  0  0  0
  196.4870  170.5060  139.9240 O   0  0  0  0  0  0  0  0  0  0  0  0
  194.9350  170.0130  138.1720 C   0  0  1  0  0  3  0  0  0  0  0  0
  194.2390  170.7960  137.0720 C   0  0  0  0  0  1  0  0  0  0  0  0
  195.9320  169.0180  137.5940 C   0  0  0  0  0  2  0  0  0  0  0  0
  195.2850  168.1880  136.4990 C   0  0  0  0  0  1  0  0  0  0  0  0
  197.6960  174.9680  140.4110 C   0  0  0  0  0  2  0  0  0  0  0  0
  196.7460  176.0840  140.8090 C   0  0  0  0  0  2  0  0  0  0  0  0
  197.0640  176.5300  142.1520 N   0  0  0  0  0  1  0  0  0  0  0  0
  194.4520  175.0470  143.7760 N   0  0  0  0  0  2  0  0  0  0  0  0
  191.7460  175.8720  145.6670 N   0  0  0  0  0  0  0  0  0  0  0  0
  194.5270  177.5450  147.1970 F   0  0  0  0  0  0  0  0  0  0  0  0
  192.7120  176.0560  146.7560 C   0  0  0  0  0  2  0  0  0  0  0  0
  194.0550  177.1960  144.8930 C   0  0  0  0  0  2  0  0  0  0  0  0
  194.0800  176.5940  146.2960 C   0  0  1  0  0  3  0  0  0  0  0  0
  192.1840  175.6920  144.3040 C   0  0  0  0  0  0  0  0  0  0  0  0
  193.5330  176.1770  143.8810 C   0  0  2  0  0  3  0  0  0  0  0  0
  191.4740  175.0510  143.4870 O   0  0  0  0  0  0  0  0  0  0  0  0
  189.4320  176.7840  145.8890 C   0  0  0  0  0  0  0  0  0  0  0  0
  189.8040  177.9630  145.6420 O   0  0  0  0  0  0  0  0  0  0  0  0
  190.3940  175.7310  146.0200 N   0  0  0  0  0  2  0  0  0  0  0  0
  187.9830  176.5190  146.1310 C   0  0  1  0  0  3  0  0  0  0  0  0
  187.7610  175.7060  147.3990 C   0  0  0  0  0  1  0  0  0  0  0  0
  187.1460  177.8000  146.1070 C   0  0  0  0  0  2  0  0  0  0  0  0
  186.4230  178.0610  147.4190 C   0  0  0  0  0  1  0  0  0  0  0  0
  1 31  1  6  0  0  0
  1  2  1  0  0  0  0
  1 48  1  0  0  0  0
  3  2  1  0  0  0  0
  3  5  2  0  0  0  0
  4  3  1  0  0  0  0
  6  8  1  6  0  0  0
  6  4  1  0  0  0  0
  8  7  1  0  0  0  0
  9  8  2  0  0  0  0
 10  6  1  0  0  0  0
 11 12  2  0  0  0  0
 12 10  1  0  0  0  0
 14 11  1  0  0  0  0
 14 13  1  0  0  0  0
 15 14  2  0  0  0  0
 16 20  1  0  0  0  0
 16 22  1  0  0  0  0
 16 21  1  0  0  0  0
 18 13  1  1  0  0  0
 18 17  1  0  0  0  0
 18 20  1  0  0  0  0
 19 17  1  0  0  0  0
 19 21  1  0  0  0  0
 22 23  1  1  0  0  0
 25 24  1  6  0  0  0
 25 26  1  0  0  0  0
 25 22  1  0  0  0  0
 27 28  1  0  0  0  0
 27 26  1  0  0  0  0
 29 31  1  0  0  0  0
 30 31  2  0  0  0  0
 32 33  2  0  0  0  0
 32 45  1  0  0  0  0
 33 30  1  0  0  0  0
 34 35  2  0  0  0  0
 35 37  2  0  0  0  0
 36 34  1  0  0  0  0
 37 32  1  0  0  0  0
 38 33  1  0  0  0  0
 39 38  1  0  0  0  0
 39 40  2  0  0  0  0
 41 42  1  6  0  0  0
 41 39  1  0  0  0  0
 43 41  1  0  0  0  0
 44 43  1  0  0  0  0
 45 46  1  0  0  0  0
 46 47  1  0  0  0  0
 49 59  1  0  0  0  0
 49 51  1  0  0  0  0
 52 53  1  0  0  0  0
 53 51  1  0  0  0  0
 53 50  1  1  0  0  0
 54 49  1  0  0  0  0
 55 48  1  1  0  0  0
 55 54  1  0  0  0  0
 55 52  1  0  0  0  0
 56 54  2  0  0  0  0
 57 59  1  0  0  0  0
 57 60  1  0  0  0  0
 58 57  2  0  0  0  0
 60 61  1  1  0  0  0
 62 60  1  0  0  0  0
 62 63  1  0  0  0  0
M  END
>  <MODEL>
1

>  <REMARK>
 VINA RESULT:      -5.7      0.000      0.000
  Name = 
  24 active torsions:
  status: ('A' for Active; 'I' for Inactive)
    1  A    between atoms: N_2  and  C_57
    2  A    between atoms: C_4  and  O_42
    3  A    between atoms: C_5  and  C_32
    4  A    between atoms: C_6  and  N_20
    5  A    between atoms: C_6  and  C_30
    6  A    between atoms: N_7  and  N_58
    7  A    between atoms: N_8  and  C_38
    8  A    between atoms: C_9  and  C_32
    9  A    between atoms: C_9  and  C_63
   10  A    between atoms: C_10  and  C_34
   11  A    between atoms: C_10  and  C_47
   12  A    between atoms: C_11  and  C_18
   13  A    between atoms: C_13  and  C_16
   14  A    between atoms: C_15  and  C_23
   15  A    between atoms: C_18  and  N_31
   16  A    between atoms: C_18  and  N_40
   17  A    between atoms: C_23  and  C_43
   18  A    between atoms: N_25  and  C_60
   19  A    between atoms: C_30  and  O_42
   20  A    between atoms: C_36  and  N_37
   21  A    between atoms: N_37  and  C_57
   22  A    between atoms: N_40  and  N_46
   23  A    between atoms: C_44  and  C_60
   24  A    between atoms: C_57  and  C_61
                            x       y       z     vdW  Elec       q    Type
                         _______ _______ _______ _____ _____    ______ ____

>  <TORSDO>
F 24

$$$$
=
 OpenBabel11042415263D

 63 64  0  0  1  0  0  0  0  0999 V2000
  190.0160  172.8680  141.1470 C   0  0  2  0  0  3  0  0  0  0  0  0
  188.6670  173.0890  141.6570 N   0  0  0  0  0  2  0  0  0  0  0  0
  188.2260  174.3720  142.1040 C   0  0  0  0  0  0  0  0  0  0  0  0
  189.1610  175.4440  142.2560 N   0  0  0  0  0  2  0  0  0  0  0  0
  187.0090  174.5440  142.3720 O   0  0  0  0  0  0  0  0  0  0  0  0
  188.7750  176.7600  142.7370 C   0  0  2  0  0  3  0  0  0  0  0  0
  186.9010  178.3850  142.1920 N   0  0  0  0  0  1  0  0  0  0  0  0
  187.8370  177.4000  141.7610 C   0  0  0  0  0  0  0  0  0  0  0  0
  187.8460  177.0240  140.5260 N   0  0  0  0  0  2  0  0  0  0  0  0
  189.9710  177.5710  142.9200 N   0  0  0  0  0  2  0  0  0  0  0  0
  192.0760  177.2430  143.8600 C   0  0  0  0  0  3  0  0  0  0  0  0
  191.2510  177.0080  142.8960 N   0  0  0  0  0  0  0  0  0  0  0  0
  194.1290  176.4070  142.6850 N   0  0  0  0  0  2  0  0  0  0  0  0
  193.3920  176.6060  143.8970 C   0  0  0  0  0  0  0  0  0  0  0  0
  193.8370  176.1740  144.9910 O   0  0  0  0  0  0  0  0  0  0  0  0
  196.8460  174.3000  141.2630 N   0  0  0  0  0  0  0  0  0  0  0  0
  196.5460  176.6390  142.9620 C   0  0  0  0  0  2  0  0  0  0  0  0
  195.3910  175.6870  142.6600 C   0  0  2  0  0  3  0  0  0  0  0  0
  197.8860  175.9260  142.7830 C   0  0  0  0  0  2  0  0  0  0  0  0
  195.5970  175.0700  141.2790 C   0  0  0  0  0  2  0  0  0  0  0  0
  197.9410  175.2700  141.4010 C   0  0  0  0  0  2  0  0  0  0  0  0
  196.9700  173.6220  139.9610 C   0  0  1  0  0  3  0  0  0  0  0  0
  197.9390  174.3750  139.0460 C   0  0  0  0  0  1  0  0  0  0  0  0
  197.6160  171.8120  141.5910 C   0  0  0  0  0  1  0  0  0  0  0  0
  197.4260  172.1580  140.1240 C   0  0  1  0  0  3  0  0  0  0  0  0
  196.5180  171.2710  139.5350 O   0  0  0  0  0  0  0  0  0  0  0  0
  196.7210  171.4030  138.1590 C   0  0  0  0  0  2  0  0  0  0  0  0
  196.0640  170.3710  137.4860 O   0  0  0  0  0  1  0  0  0  0  0  0
  192.0530  174.0870  141.8920 O   0  0  0  0  0  1  0  0  0  0  0  0
  190.9540  172.6230  143.4110 C   0  0  0  0  0  3  0  0  0  0  0  0
  191.0280  173.1990  142.2070 C   0  0  0  0  0  0  0  0  0  0  0  0
  193.0350  172.0130  144.5560 C   0  0  0  0  0  0  0  0  0  0  0  0
  191.9340  172.7930  144.5050 C   0  0  0  0  0  0  0  0  0  0  0  0
  196.5720  171.9580  145.3760 C   0  0  0  0  0  3  0  0  0  0  0  0
  195.2810  172.0510  145.5270 C   0  0  0  0  0  0  0  0  0  0  0  0
  197.3690  173.1670  145.0370 C   0  0  0  0  0  1  0  0  0  0  0  0
  193.9870  172.1500  145.6790 C   0  0  0  0  0  3  0  0  0  0  0  0
  191.7250  173.8300  145.4770 N   0  0  0  0  0  2  0  0  0  0  0  0
  190.4390  174.1250  146.0330 C   0  0  0  0  0  0  0  0  0  0  0  0
  189.4420  173.4070  145.7520 O   0  0  0  0  0  0  0  0  0  0  0  0
  190.3070  175.2490  147.0060 C   0  0  1  0  0  3  0  0  0  0  0  0
  191.6790  175.7140  147.4640 C   0  0  0  0  0  1  0  0  0  0  0  0
  189.5200  176.3910  146.3770 C   0  0  0  0  0  2  0  0  0  0  0  0
  189.6220  177.6450  147.2280 C   0  0  0  0  0  1  0  0  0  0  0  0
  193.2750  170.9520  143.5140 C   0  0  0  0  0  2  0  0  0  0  0  0
  192.9300  169.5810  144.0710 C   0  0  0  0  0  2  0  0  0  0  0  0
  193.3680  168.5600  143.1380 N   0  0  0  0  0  1  0  0  0  0  0  0
  190.2260  173.6780  139.9530 N   0  0  0  0  0  2  0  0  0  0  0  0
  192.4950  172.6410  137.6400 N   0  0  0  0  0  0  0  0  0  0  0  0
  192.3750  170.0300  140.0970 F   0  0  0  0  0  0  0  0  0  0  0  0
  193.0800  171.8620  138.7360 C   0  0  0  0  0  2  0  0  0  0  0  0
  190.6130  171.3660  139.2250 C   0  0  0  0  0  2  0  0  0  0  0  0
  192.0470  171.3270  139.7470 C   0  0  1  0  0  3  0  0  0  0  0  0
  191.2110  173.2820  137.7830 C   0  0  0  0  0  0  0  0  0  0  0  0
  190.2340  172.7850  138.7990 C   0  0  2  0  0  3  0  0  0  0  0  0
  190.9380  174.3140  137.1190 O   0  0  0  0  0  0  0  0  0  0  0  0
  194.3620  173.8150  136.4680 C   0  0  0  0  0  0  0  0  0  0  0  0
  194.5010  174.6560  137.3960 O   0  0  0  0  0  0  0  0  0  0  0  0
  193.2940  172.8610  136.5060 N   0  0  0  0  0  2  0  0  0  0  0  0
  195.2710  173.8860  135.2860 C   0  0  1  0  0  3  0  0  0  0  0  0
  196.4970  174.7440  135.5650 C   0  0  0  0  0  1  0  0  0  0  0  0
  195.6400  172.5000  134.7530 C   0  0  0  0  0  2  0  0  0  0  0  0
  197.1330  172.3330  134.5160 C   0  0  0  0  0  1  0  0  0  0  0  0
  1 48  1  6  0  0  0
  1  2  1  0  0  0  0
  1 31  1  0  0  0  0
  2  3  1  0  0  0  0
  3  4  1  0  0  0  0
  3  5  2  0  0  0  0
  4  6  1  0  0  0  0
  6  8  1  6  0  0  0
  6 10  1  0  0  0  0
  8  7  1  0  0  0  0
  9  8  2  0  0  0  0
 11 14  1  0  0  0  0
 12 10  1  0  0  0  0
 12 11  2  0  0  0  0
 13 14  1  0  0  0  0
 14 15  2  0  0  0  0
 16 20  1  0  0  0  0
 16 21  1  0  0  0  0
 18 13  1  6  0  0  0
 18 17  1  0  0  0  0
 19 17  1  0  0  0  0
 20 18  1  0  0  0  0
 21 19  1  0  0  0  0
 22 23  1  6  0  0  0
 22 25  1  0  0  0  0
 22 16  1  0  0  0  0
 25 24  1  1  0  0  0
 26 25  1  0  0  0  0
 27 26  1  0  0  0  0
 28 27  1  0  0  0  0
 29 31  1  0  0  0  0
 30 33  1  0  0  0  0
 31 30  2  0  0  0  0
 32 37  1  0  0  0  0
 33 32  2  0  0  0  0
 33 38  1  0  0  0  0
 34 35  2  0  0  0  0
 35 37  2  0  0  0  0
 36 34  1  0  0  0  0
 38 39  1  0  0  0  0
 39 41  1  0  0  0  0
 40 39  2  0  0  0  0
 41 42  1  6  0  0  0
 43 41  1  0  0  0  0
 43 44  1  0  0  0  0
 45 46  1  0  0  0  0
 45 32  1  0  0  0  0
 47 46  1  0  0  0  0
 49 54  1  0  0  0  0
 49 51  1  0  0  0  0
 51 53  1  0  0  0  0
 52 53  1  0  0  0  0
 53 50  1  6  0  0  0
 54 55  1  0  0  0  0
 55 52  1  0  0  0  0
 55 48  1  1  0  0  0
 56 54  2  0  0  0  0
 57 59  1  0  0  0  0
 57 58  2  0  0  0  0
 59 49  1  0  0  0  0
 60 61  1  1  0  0  0
 60 57  1  0  0  0  0
 62 60  1  0  0  0  0
 63 62  1  0  0  0  0
M  END
>  <MODEL>
2

>  <REMARK>
 VINA RESULT:      -5.2      3.005     10.116
  Name = 
  24 active torsions:
  status: ('A' for Active; 'I' for Inactive)
    1  A    between atoms: N_2  and  C_57
    2  A    between atoms: C_4  and  O_42
    3  A    between atoms: C_5  and  C_32
    4  A    between atoms: C_6  and  N_20
    5  A    between atoms: C_6  and  C_30
    6  A    between atoms: N_7  and  N_58
    7  A    between atoms: N_8  and  C_38
    8  A    between atoms: C_9  and  C_32
    9  A    between atoms: C_9  and  C_63
   10  A    between atoms: C_10  and  C_34
   11  A    between atoms: C_10  and  C_47
   12  A    between atoms: C_11  and  C_18
   13  A    between atoms: C_13  and  C_16
   14  A    between atoms: C_15  and  C_23
   15  A    between atoms: C_18  and  N_31
   16  A    between atoms: C_18  and  N_40
   17  A    between atoms: C_23  and  C_43
   18  A    between atoms: N_25  and  C_60
   19  A    between atoms: C_30  and  O_42
   20  A    between atoms: C_36  and  N_37
   21  A    between atoms: N_37  and  C_57
   22  A    between atoms: N_40  and  N_46
   23  A    between atoms: C_44  and  C_60
   24  A    between atoms: C_57  and  C_61
                            x       y       z     vdW  Elec       q    Type
                         _______ _______ _______ _____ _____    ______ ____

>  <TORSDO>
F 24

$$$$
=
 OpenBabel11042415263D

 63 64  0  0  1  0  0  0  0  0999 V2000
  194.2810  171.6870  144.4420 C   0  0  2  0  0  3  0  0  0  0  0  0
  195.3210  172.1820  145.3380 N   0  0  0  0  0  2  0  0  0  0  0  0
  196.2150  173.2300  144.9570 C   0  0  0  0  0  0  0  0  0  0  0  0
  196.2490  173.6920  143.6040 N   0  0  0  0  0  2  0  0  0  0  0  0
  196.9760  173.7330  145.8230 O   0  0  0  0  0  0  0  0  0  0  0  0
  197.1590  174.7320  143.1520 C   0  0  2  0  0  3  0  0  0  0  0  0
  197.2040  177.2710  143.1490 N   0  0  0  0  0  2  0  0  0  0  0  0
  196.4590  176.0550  143.1650 C   0  0  0  0  0  0  0  0  0  0  0  0
  195.1710  176.0970  143.2350 N   0  0  0  0  0  1  0  0  0  0  0  0
  197.6330  174.4040  141.8140 N   0  0  0  0  0  2  0  0  0  0  0  0
  197.0370  175.0060  139.6450 C   0  0  0  0  0  3  0  0  0  0  0  0
  196.7640  174.3460  140.7200 N   0  0  0  0  0  0  0  0  0  0  0  0
  194.7680  174.7550  138.6050 N   0  0  0  0  0  2  0  0  0  0  0  0
  196.1850  174.9010  138.4610 C   0  0  0  0  0  0  0  0  0  0  0  0
  196.7170  174.8720  137.3210 O   0  0  0  0  0  0  0  0  0  0  0  0
  191.7650  173.5650  136.7590 N   0  0  0  0  0  0  0  0  0  0  0  0
  193.5160  175.8840  136.8360 C   0  0  0  0  0  2  0  0  0  0  0  0
  193.8950  174.5440  137.4620 C   0  0  2  0  0  3  0  0  0  0  0  0
  192.4750  175.6820  135.7350 C   0  0  0  0  0  2  0  0  0  0  0  0
  192.6280  173.8250  137.9170 C   0  0  0  0  0  2  0  0  0  0  0  0
  191.2960  174.8730  136.2800 C   0  0  0  0  0  2  0  0  0  0  0  0
  190.6030  172.7740  137.2000 C   0  0  1  0  0  3  0  0  0  0  0  0
  189.3040  173.3550  136.6360 C   0  0  0  0  0  1  0  0  0  0  0  0
  191.5860  171.1490  135.5430 C   0  0  0  0  0  1  0  0  0  0  0  0
  190.7390  171.2920  136.7960 C   0  0  1  0  0  3  0  0  0  0  0  0
  191.2820  170.5260  137.8350 O   0  0  0  0  0  0  0  0  0  0  0  0
  190.2780  169.6200  138.1830 C   0  0  0  0  0  2  0  0  0  0  0  0
  190.4890  168.4080  137.5220 O   0  0  0  0  0  1  0  0  0  0  0  0
  193.3840  173.2490  142.7260 O   0  0  0  0  0  1  0  0  0  0  0  0
  192.5790  173.3910  144.9600 C   0  0  0  0  0  3  0  0  0  0  0  0
  193.3650  172.8110  144.0470 C   0  0  0  0  0  0  0  0  0  0  0  0
  191.6830  175.5810  145.6050 C   0  0  0  0  0  0  0  0  0  0  0  0
  191.7050  174.5600  144.7220 C   0  0  0  0  0  0  0  0  0  0  0  0
  188.1730  176.5120  145.5440 C   0  0  0  0  0  3  0  0  0  0  0  0
  189.4700  176.6170  145.4650 C   0  0  0  0  0  0  0  0  0  0  0  0
  187.4920  176.6890  146.8550 C   0  0  0  0  0  1  0  0  0  0  0  0
  190.7700  176.7240  145.3910 C   0  0  0  0  0  3  0  0  0  0  0  0
  190.9270  174.6170  143.5160 N   0  0  0  0  0  2  0  0  0  0  0  0
  189.8010  173.7660  143.2780 C   0  0  0  0  0  0  0  0  0  0  0  0
  189.3890  172.9840  144.1780 O   0  0  0  0  0  0  0  0  0  0  0  0
  189.0750  173.8640  141.9770 C   0  0  1  0  0  3  0  0  0  0  0  0
  188.4510  175.2420  141.8250 C   0  0  0  0  0  1  0  0  0  0  0  0
  190.0250  173.5600  140.8270 C   0  0  0  0  0  2  0  0  0  0  0  0
  190.4940  172.1160  140.8880 C   0  0  0  0  0  1  0  0  0  0  0  0
  192.5290  175.5390  146.8510 C   0  0  0  0  0  2  0  0  0  0  0  0
  193.9720  175.8730  146.5170 C   0  0  0  0  0  2  0  0  0  0  0  0
  194.1920  177.2950  146.7050 N   0  0  0  0  0  1  0  0  0  0  0  0
  193.5410  170.6170  145.0990 N   0  0  0  0  0  2  0  0  0  0  0  0
  195.4630  169.6490  142.4640 N   0  0  0  0  0  0  0  0  0  0  0  0
  197.3160  168.7180  145.3910 F   0  0  0  0  0  0  0  0  0  0  0  0
  196.5930  169.7960  143.3870 C   0  0  0  0  0  2  0  0  0  0  0  0
  194.9730  168.6280  144.9930 C   0  0  0  0  0  2  0  0  0  0  0  0
  196.2630  169.4310  144.8460 C   0  0  1  0  0  3  0  0  0  0  0  0
  194.1010  169.6900  142.9390 C   0  0  0  0  0  0  0  0  0  0  0  0
  193.7980  169.3790  144.3690 C   0  0  2  0  0  3  0  0  0  0  0  0
  193.1740  170.0710  142.1810 O   0  0  0  0  0  0  0  0  0  0  0  0
  195.8420  170.7890  140.2740 C   0  0  0  0  0  0  0  0  0  0  0  0
  195.4590  171.9050  140.7170 O   0  0  0  0  0  0  0  0  0  0  0  0
  195.7510  169.6140  141.0890 N   0  0  0  0  0  2  0  0  0  0  0  0
  196.3070  170.6920  138.8580 C   0  0  1  0  0  3  0  0  0  0  0  0
  196.8660  169.3130  138.5400 C   0  0  0  0  0  1  0  0  0  0  0  0
  195.2310  171.1290  137.8630 C   0  0  0  0  0  2  0  0  0  0  0  0
  195.7980  171.5080  136.5040 C   0  0  0  0  0  1  0  0  0  0  0  0
  1 31  1  1  0  0  0
  1 48  1  0  0  0  0
  1  2  1  0  0  0  0
  3  2  1  0  0  0  0
  3  5  2  0  0  0  0
  4  3  1  0  0  0  0
  6 10  1  6  0  0  0
  6  8  1  0  0  0  0
  6  4  1  0  0  0  0
  7  8  2  0  0  0  0
  8  9  1  0  0  0  0
 11 12  2  0  0  0  0
 12 10  1  0  0  0  0
 14 13  1  0  0  0  0
 14 11  1  0  0  0  0
 15 14  2  0  0  0  0
 16 22  1  0  0  0  0
 16 20  1  0  0  0  0
 17 18  1  0  0  0  0
 18 20  1  0  0  0  0
 18 13  1  1  0  0  0
 19 21  1  0  0  0  0
 19 17  1  0  0  0  0
 21 16  1  0  0  0  0
 22 23  1  6  0  0  0
 25 24  1  6  0  0  0
 25 22  1  0  0  0  0
 25 26  1  0  0  0  0
 26 27  1  0  0  0  0
 28 27  1  0  0  0  0
 29 31  1  0  0  0  0
 31 30  2  0  0  0  0
 32 45  1  0  0  0  0
 33 30  1  0  0  0  0
 33 32  2  0  0  0  0
 34 36  1  0  0  0  0
 35 34  2  0  0  0  0
 37 35  2  0  0  0  0
 37 32  1  0  0  0  0
 38 33  1  0  0  0  0
 39 38  1  0  0  0  0
 39 40  2  0  0  0  0
 41 42  1  6  0  0  0
 41 39  1  0  0  0  0
 43 44  1  0  0  0  0
 43 41  1  0  0  0  0
 46 47  1  0  0  0  0
 46 45  1  0  0  0  0
 49 54  1  0  0  0  0
 49 51  1  0  0  0  0
 51 53  1  0  0  0  0
 53 52  1  0  0  0  0
 53 50  1  6  0  0  0
 54 55  1  0  0  0  0
 55 52  1  0  0  0  0
 55 48  1  1  0  0  0
 56 54  2  0  0  0  0
 57 58  2  0  0  0  0
 57 59  1  0  0  0  0
 59 49  1  0  0  0  0
 60 61  1  6  0  0  0
 60 57  1  0  0  0  0
 62 60  1  0  0  0  0
 63 62  1  0  0  0  0
M  END
>  <MODEL>
3

>  <REMARK>
 VINA RESULT:      -4.7      3.574      8.927
  Name = 
  24 active torsions:
  status: ('A' for Active; 'I' for Inactive)
    1  A    between atoms: N_2  and  C_57
    2  A    between atoms: C_4  and  O_42
    3  A    between atoms: C_5  and  C_32
    4  A    between atoms: C_6  and  N_20
    5  A    between atoms: C_6  and  C_30
    6  A    between atoms: N_7  and  N_58
    7  A    between atoms: N_8  and  C_38
    8  A    between atoms: C_9  and  C_32
    9  A    between atoms: C_9  and  C_63
   10  A    between atoms: C_10  and  C_34
   11  A    between atoms: C_10  and  C_47
   12  A    between atoms: C_11  and  C_18
   13  A    between atoms: C_13  and  C_16
   14  A    between atoms: C_15  and  C_23
   15  A    between atoms: C_18  and  N_31
   16  A    between atoms: C_18  and  N_40
   17  A    between atoms: C_23  and  C_43
   18  A    between atoms: N_25  and  C_60
   19  A    between atoms: C_30  and  O_42
   20  A    between atoms: C_36  and  N_37
   21  A    between atoms: N_37  and  C_57
   22  A    between atoms: N_40  and  N_46
   23  A    between atoms: C_44  and  C_60
   24  A    between atoms: C_57  and  C_61
                            x       y       z     vdW  Elec       q    Type
                         _______ _______ _______ _____ _____    ______ ____

>  <TORSDO>
F 24

$$$$
=
 OpenBabel11042415263D

 63 64  0  0  1  0  0  0  0  0999 V2000
  191.1950  173.9640  143.2330 C   0  0  2  0  0  3  0  0  0  0  0  0
  192.0700  173.2500  144.1580 N   0  0  0  0  0  2  0  0  0  0  0  0
  193.2710  173.8300  144.6680 C   0  0  0  0  0  0  0  0  0  0  0  0
  193.7640  175.0600  144.1280 N   0  0  0  0  0  2  0  0  0  0  0  0
  193.8950  173.2420  145.5880 O   0  0  0  0  0  0  0  0  0  0  0  0
  194.9970  175.6800  144.5840 C   0  0  2  0  0  3  0  0  0  0  0  0
  195.1860  178.0900  145.3630 N   0  0  0  0  0  2  0  0  0  0  0  0
  194.6820  176.7710  145.5590 C   0  0  0  0  0  0  0  0  0  0  0  0
  193.9820  176.5050  146.6120 N   0  0  0  0  0  1  0  0  0  0  0  0
  195.7240  176.2000  143.4350 N   0  0  0  0  0  2  0  0  0  0  0  0
  195.5630  174.6280  141.7240 C   0  0  0  0  0  3  0  0  0  0  0  0
  196.3090  175.3510  142.4900 N   0  0  0  0  0  0  0  0  0  0  0  0
  196.5950  174.3790  139.4510 N   0  0  0  0  0  2  0  0  0  0  0  0
  196.1470  173.7910  140.6770 C   0  0  0  0  0  0  0  0  0  0  0  0
  196.1890  172.5440  140.8380 O   0  0  0  0  0  0  0  0  0  0  0  0
  196.4670  171.8250  136.7480 N   0  0  0  0  0  0  0  0  0  0  0  0
  197.5600  174.4790  137.2080 C   0  0  0  0  0  2  0  0  0  0  0  0
  197.0850  173.5750  138.3440 C   0  0  2  0  0  3  0  0  0  0  0  0
  197.9290  173.6450  135.9820 C   0  0  0  0  0  2  0  0  0  0  0  0
  195.9630  172.6750  137.8340 C   0  0  0  0  0  2  0  0  0  0  0  0
  196.7670  172.7170  135.6190 C   0  0  0  0  0  2  0  0  0  0  0  0
  195.4040  170.8880  136.3460 C   0  0  1  0  0  3  0  0  0  0  0  0
  195.1950  170.9200  134.8300 C   0  0  0  0  0  1  0  0  0  0  0  0
  196.8450  169.4370  137.8190 C   0  0  0  0  0  1  0  0  0  0  0  0
  195.7120  169.4490  136.8070 C   0  0  1  0  0  3  0  0  0  0  0  0
  194.5780  168.8310  137.3480 O   0  0  0  0  0  0  0  0  0  0  0  0
  194.4340  169.3850  138.6220 C   0  0  0  0  0  2  0  0  0  0  0  0
  193.2080  168.9980  139.1670 O   0  0  0  0  0  1  0  0  0  0  0  0
  189.0320  173.2160  144.2070 O   0  0  0  0  0  1  0  0  0  0  0  0
  189.5420  175.5390  144.1560 C   0  0  0  0  0  3  0  0  0  0  0  0
  189.8850  174.2720  143.8990 C   0  0  0  0  0  0  0  0  0  0  0  0
  188.1420  176.2520  146.0390 C   0  0  0  0  0  0  0  0  0  0  0  0
  188.2480  175.9800  144.7210 C   0  0  0  0  0  0  0  0  0  0  0  0
  185.9240  179.0870  146.5190 C   0  0  0  0  0  3  0  0  0  0  0  0
  186.3810  177.8680  146.5660 C   0  0  0  0  0  0  0  0  0  0  0  0
  185.1310  179.5380  145.3450 C   0  0  0  0  0  1  0  0  0  0  0  0
  186.8350  176.6430  146.6100 C   0  0  0  0  0  3  0  0  0  0  0  0
  187.1280  176.1660  143.8410 N   0  0  0  0  0  2  0  0  0  0  0  0
  187.1950  176.9720  142.6590 C   0  0  0  0  0  0  0  0  0  0  0  0
  188.2900  177.4810  142.2940 O   0  0  0  0  0  0  0  0  0  0  0  0
  185.9690  177.1450  141.8250 C   0  0  1  0  0  3  0  0  0  0  0  0
  184.8840  177.8500  142.6220 C   0  0  0  0  0  1  0  0  0  0  0  0
  186.3090  177.9150  140.5550 C   0  0  0  0  0  2  0  0  0  0  0  0
  186.8070  176.9720  139.4740 C   0  0  0  0  0  1  0  0  0  0  0  0
  189.3270  176.0950  146.9560 C   0  0  0  0  0  2  0  0  0  0  0  0
  189.5300  174.6320  147.3070 C   0  0  0  0  0  2  0  0  0  0  0  0
  188.6620  174.2790  148.4150 N   0  0  0  0  0  1  0  0  0  0  0  0
  190.9950  173.1620  142.0320 N   0  0  0  0  0  2  0  0  0  0  0  0
  191.3470  173.3910  138.6560 N   0  0  0  0  0  0  0  0  0  0  0  0
  188.1900  171.7670  139.1800 F   0  0  0  0  0  0  0  0  0  0  0  0
  190.4630  172.2210  138.6040 C   0  0  0  0  0  2  0  0  0  0  0  0
  189.2000  173.5400  140.4030 C   0  0  0  0  0  2  0  0  0  0  0  0
  189.3950  172.1910  139.7130 C   0  0  1  0  0  3  0  0  0  0  0  0
  191.5450  174.1210  139.8850 C   0  0  0  0  0  0  0  0  0  0  0  0
  190.5230  174.0480  140.9730 C   0  0  2  0  0  3  0  0  0  0  0  0
  192.6150  174.7510  140.0840 O   0  0  0  0  0  0  0  0  0  0  0  0
  191.5980  174.4520  136.4100 C   0  0  0  0  0  0  0  0  0  0  0  0
  190.3710  174.7310  136.3330 O   0  0  0  0  0  0  0  0  0  0  0  0
  192.1010  173.6830  137.5080 N   0  0  0  0  0  2  0  0  0  0  0  0
  192.5030  174.8590  135.2940 C   0  0  1  0  0  3  0  0  0  0  0  0
  191.9680  176.0730  134.5470 C   0  0  0  0  0  1  0  0  0  0  0  0
  193.9470  175.0510  135.7580 C   0  0  0  0  0  2  0  0  0  0  0  0
  194.8130  175.7600  134.7280 C   0  0  0  0  0  1  0  0  0  0  0  0
  1 48  1  6  0  0  0
  1 31  1  0  0  0  0
  1  2  1  0  0  0  0
  2  3  1  0  0  0  0
  3  5  2  0  0  0  0
  4  6  1  0  0  0  0
  4  3  1  0  0  0  0
  6 10  1  6  0  0  0
  6  8  1  0  0  0  0
  7  8  2  0  0  0  0
  8  9  1  0  0  0  0
 11 12  2  0  0  0  0
 12 10  1  0  0  0  0
 13 14  1  0  0  0  0
 14 15  2  0  0  0  0
 14 11  1  0  0  0  0
 16 20  1  0  0  0  0
 17 18  1  0  0  0  0
 18 13  1  1  0  0  0
 19 17  1  0  0  0  0
 20 18  1  0  0  0  0
 21 19  1  0  0  0  0
 21 16  1  0  0  0  0
 22 23  1  6  0  0  0
 22 16  1  0  0  0  0
 22 25  1  0  0  0  0
 25 26  1  0  0  0  0
 25 24  1  1  0  0  0
 26 27  1  0  0  0  0
 27 28  1  0  0  0  0
 30 33  1  0  0  0  0
 31 30  2  0  0  0  0
 31 29  1  0  0  0  0
 32 37  1  0  0  0  0
 32 45  1  0  0  0  0
 33 32  2  0  0  0  0
 34 35  2  0  0  0  0
 35 37  2  0  0  0  0
 36 34  1  0  0  0  0
 38 33  1  0  0  0  0
 39 38  1  0  0  0  0
 40 39  2  0  0  0  0
 41 42  1  1  0  0  0
 41 39  1  0  0  0  0
 43 41  1  0  0  0  0
 44 43  1  0  0  0  0
 45 46  1  0  0  0  0
 46 47  1  0  0  0  0
 49 54  1  0  0  0  0
 51 49  1  0  0  0  0
 51 53  1  0  0  0  0
 52 55  1  0  0  0  0
 53 50  1  6  0  0  0
 53 52  1  0  0  0  0
 54 56  2  0  0  0  0
 54 55  1  0  0  0  0
 55 48  1  1  0  0  0
 57 59  1  0  0  0  0
 58 57  2  0  0  0  0
 59 49  1  0  0  0  0
 60 61  1  1  0  0  0
 60 62  1  0  0  0  0
 60 57  1  0  0  0  0
 63 62  1  0  0  0  0
M  END
>  <MODEL>
4

>  <REMARK>
 VINA RESULT:      -4.6      2.859     10.775
  Name = 
  24 active torsions:
  status: ('A' for Active; 'I' for Inactive)
    1  A    between atoms: N_2  and  C_57
    2  A    between atoms: C_4  and  O_42
    3  A    between atoms: C_5  and  C_32
    4  A    between atoms: C_6  and  N_20
    5  A    between atoms: C_6  and  C_30
    6  A    between atoms: N_7  and  N_58
    7  A    between atoms: N_8  and  C_38
    8  A    between atoms: C_9  and  C_32
    9  A    between atoms: C_9  and  C_63
   10  A    between atoms: C_10  and  C_34
   11  A    between atoms: C_10  and  C_47
   12  A    between atoms: C_11  and  C_18
   13  A    between atoms: C_13  and  C_16
   14  A    between atoms: C_15  and  C_23
   15  A    between atoms: C_18  and  N_31
   16  A    between atoms: C_18  and  N_40
   17  A    between atoms: C_23  and  C_43
   18  A    between atoms: N_25  and  C_60
   19  A    between atoms: C_30  and  O_42
   20  A    between atoms: C_36  and  N_37
   21  A    between atoms: N_37  and  C_57
   22  A    between atoms: N_40  and  N_46
   23  A    between atoms: C_44  and  C_60
   24  A    between atoms: C_57  and  C_61
                            x       y       z     vdW  Elec       q    Type
                         _______ _______ _______ _____ _____    ______ ____

>  <TORSDO>
F 24

$$$$
=
 OpenBabel11042415263D

 63 64  0  0  1  0  0  0  0  0999 V2000
  192.7260  170.0950  140.6910 C   0  0  2  0  0  3  0  0  0  0  0  0
  192.8400  169.4010  141.9700 N   0  0  0  0  0  2  0  0  0  0  0  0
  193.4530  170.0040  143.1100 C   0  0  0  0  0  0  0  0  0  0  0  0
  194.1610  171.2410  142.9780 N   0  0  0  0  0  2  0  0  0  0  0  0
  193.3730  169.4310  144.2270 O   0  0  0  0  0  0  0  0  0  0  0  0
  194.8310  171.8850  144.0950 C   0  0  2  0  0  3  0  0  0  0  0  0
  196.1650  170.4170  145.6810 N   0  0  0  0  0  1  0  0  0  0  0  0
  196.0710  171.1240  144.4470 C   0  0  0  0  0  0  0  0  0  0  0  0
  197.0820  171.1430  143.6440 N   0  0  0  0  0  2  0  0  0  0  0  0
  193.9180  171.9480  145.2280 N   0  0  0  0  0  2  0  0  0  0  0  0
  192.1890  173.4730  144.8990 C   0  0  0  0  0  3  0  0  0  0  0  0
  193.2410  173.1260  145.5620 N   0  0  0  0  0  0  0  0  0  0  0  0
  190.1280  174.8890  144.7050 N   0  0  0  0  0  2  0  0  0  0  0  0
  191.4200  174.6580  145.2770 C   0  0  0  0  0  0  0  0  0  0  0  0
  191.9330  175.5030  146.0550 O   0  0  0  0  0  0  0  0  0  0  0  0
  187.7150  177.6410  144.0360 N   0  0  0  0  0  0  0  0  0  0  0  0
  188.5420  175.9370  146.2410 C   0  0  0  0  0  2  0  0  0  0  0  0
  189.3730  176.1030  144.9700 C   0  0  2  0  0  3  0  0  0  0  0  0
  187.6280  177.1460  146.4410 C   0  0  0  0  0  2  0  0  0  0  0  0
  188.4420  176.3900  143.7950 C   0  0  0  0  0  2  0  0  0  0  0  0
  186.8120  177.3930  145.1690 C   0  0  0  0  0  2  0  0  0  0  0  0
  186.9080  177.9600  142.8450 C   0  0  1  0  0  3  0  0  0  0  0  0
  186.8070  176.7470  141.9160 C   0  0  0  0  0  1  0  0  0  0  0  0
  185.5670  179.7960  143.9300 C   0  0  0  0  0  1  0  0  0  0  0  0
  185.4980  178.4500  143.2290 C   0  0  1  0  0  3  0  0  0  0  0  0
  184.6630  178.5340  142.1080 O   0  0  0  0  0  0  0  0  0  0  0  0
  183.3630  178.5120  142.6200 C   0  0  0  0  0  2  0  0  0  0  0  0
  182.4680  178.1460  141.6130 O   0  0  0  0  0  1  0  0  0  0  0  0
  195.1460  169.5730  140.4470 O   0  0  0  0  0  1  0  0  0  0  0  0
  194.2860  171.5710  139.4840 C   0  0  0  0  0  3  0  0  0  0  0  0
  194.0920  170.4390  140.1700 C   0  0  0  0  0  0  0  0  0  0  0  0
  196.0440  171.7030  137.7800 C   0  0  0  0  0  0  0  0  0  0  0  0
  195.5910  172.0680  138.9990 C   0  0  0  0  0  0  0  0  0  0  0  0
  197.7160  173.5340  135.1260 C   0  0  0  0  0  3  0  0  0  0  0  0
  197.5440  172.8460  136.2190 C   0  0  0  0  0  0  0  0  0  0  0  0
  197.6260  175.0190  135.1620 C   0  0  0  0  0  1  0  0  0  0  0  0
  197.3730  172.1600  137.3180 C   0  0  0  0  0  3  0  0  0  0  0  0
  196.3390  172.9810  139.8160 N   0  0  0  0  0  2  0  0  0  0  0  0
  196.1220  174.3960  139.7970 C   0  0  0  0  0  0  0  0  0  0  0  0
  195.1820  174.8890  139.1160 O   0  0  0  0  0  0  0  0  0  0  0  0
  196.9760  175.2760  140.6500 C   0  0  1  0  0  3  0  0  0  0  0  0
  196.1130  176.2650  141.4160 C   0  0  0  0  0  1  0  0  0  0  0  0
  197.8140  174.4270  141.5960 C   0  0  0  0  0  2  0  0  0  0  0  0
  197.9390  175.1010  142.9510 C   0  0  0  0  0  1  0  0  0  0  0  0
  195.2410  170.7770  136.9050 C   0  0  0  0  0  2  0  0  0  0  0  0
  195.9830  169.4670  136.7060 C   0  0  0  0  0  2  0  0  0  0  0  0
  195.4350  168.7750  135.5540 N   0  0  0  0  0  1  0  0  0  0  0  0
  191.9140  171.2940  140.8570 N   0  0  0  0  0  2  0  0  0  0  0  0
  189.3810  172.0080  138.7000 N   0  0  0  0  0  0  0  0  0  0  0  0
  190.7190  168.8670  137.5970 F   0  0  0  0  0  0  0  0  0  0  0  0
  190.1190  171.1740  137.7450 C   0  0  0  0  0  2  0  0  0  0  0  0
  190.3940  169.6780  139.8090 C   0  0  0  0  0  2  0  0  0  0  0  0
  190.8650  169.9910  138.3900 C   0  0  1  0  0  3  0  0  0  0  0  0
  189.7480  172.0460  140.0950 C   0  0  0  0  0  0  0  0  0  0  0  0
  190.5130  170.9140  140.7000 C   0  0  2  0  0  3  0  0  0  0  0  0
  189.5050  173.0670  140.7890 O   0  0  0  0  0  0  0  0  0  0  0  0
  188.7170  174.1100  137.5280 C   0  0  0  0  0  0  0  0  0  0  0  0
  189.8850  174.5790  137.5710 O   0  0  0  0  0  0  0  0  0  0  0  0
  188.4050  172.8740  138.1820 N   0  0  0  0  0  2  0  0  0  0  0  0
  187.6420  174.9050  136.8610 C   0  0  1  0  0  3  0  0  0  0  0  0
  187.0590  175.9590  137.7920 C   0  0  0  0  0  1  0  0  0  0  0  0
  188.0990  175.4940  135.5260 C   0  0  0  0  0  2  0  0  0  0  0  0
  187.8560  176.9920  135.4250 C   0  0  0  0  0  1  0  0  0  0  0  0
  1 31  1  1  0  0  0
  1 48  1  0  0  0  0
  1  2  1  0  0  0  0
  2  3  1  0  0  0  0
  3  5  2  0  0  0  0
  4  3  1  0  0  0  0
  6  4  1  6  0  0  0
  6  8  1  0  0  0  0
  6 10  1  0  0  0  0
  8  7  1  0  0  0  0
  9  8  2  0  0  0  0
 10 12  1  0  0  0  0
 11 14  1  0  0  0  0
 11 12  2  0  0  0  0
 13 14  1  0  0  0  0
 14 15  2  0  0  0  0
 16 21  1  0  0  0  0
 17 19  1  0  0  0  0
 18 13  1  6  0  0  0
 18 17  1  0  0  0  0
 20 16  1  0  0  0  0
 20 18  1  0  0  0  0
 21 19  1  0  0  0  0
 22 23  1  6  0  0  0
 22 25  1  0  0  0  0
 22 16  1  0  0  0  0
 25 24  1  6  0  0  0
 26 27  1  0  0  0  0
 26 25  1  0  0  0  0
 28 27  1  0  0  0  0
 30 31  2  0  0  0  0
 31 29  1  0  0  0  0
 32 33  2  0  0  0  0
 33 30  1  0  0  0  0
 33 38  1  0  0  0  0
 34 36  1  0  0  0  0
 34 35  2  0  0  0  0
 35 37  2  0  0  0  0
 37 32  1  0  0  0  0
 39 38  1  0  0  0  0
 39 41  1  0  0  0  0
 40 39  2  0  0  0  0
 41 42  1  1  0  0  0
 41 43  1  0  0  0  0
 43 44  1  0  0  0  0
 45 32  1  0  0  0  0
 46 45  1  0  0  0  0
 47 46  1  0  0  0  0
 49 54  1  0  0  0  0
 51 53  1  0  0  0  0
 51 49  1  0  0  0  0
 52 55  1  0  0  0  0
 53 50  1  6  0  0  0
 53 52  1  0  0  0  0
 54 55  1  0  0  0  0
 54 56  2  0  0  0  0
 55 48  1  6  0  0  0
 57 58  2  0  0  0  0
 57 59  1  0  0  0  0
 59 49  1  0  0  0  0
 60 57  1  0  0  0  0
 60 61  1  1  0  0  0
 62 60  1  0  0  0  0
 63 62  1  0  0  0  0
M  END
>  <MODEL>
5

>  <REMARK>
 VINA RESULT:      -4.3      2.920      6.186
  Name = 
  24 active torsions:
  status: ('A' for Active; 'I' for Inactive)
    1  A    between atoms: N_2  and  C_57
    2  A    between atoms: C_4  and  O_42
    3  A    between atoms: C_5  and  C_32
    4  A    between atoms: C_6  and  N_20
    5  A    between atoms: C_6  and  C_30
    6  A    between atoms: N_7  and  N_58
    7  A    between atoms: N_8  and  C_38
    8  A    between atoms: C_9  and  C_32
    9  A    between atoms: C_9  and  C_63
   10  A    between atoms: C_10  and  C_34
   11  A    between atoms: C_10  and  C_47
   12  A    between atoms: C_11  and  C_18
   13  A    between atoms: C_13  and  C_16
   14  A    between atoms: C_15  and  C_23
   15  A    between atoms: C_18  and  N_31
   16  A    between atoms: C_18  and  N_40
   17  A    between atoms: C_23  and  C_43
   18  A    between atoms: N_25  and  C_60
   19  A    between atoms: C_30  and  O_42
   20  A    between atoms: C_36  and  N_37
   21  A    between atoms: N_37  and  C_57
   22  A    between atoms: N_40  and  N_46
   23  A    between atoms: C_44  and  C_60
   24  A    between atoms: C_57  and  C_61
                            x       y       z     vdW  Elec       q    Type
                         _______ _______ _______ _____ _____    ______ ____

>  <TORSDO>
F 24

$$$$
=
 OpenBabel11042415263D

 63 64  0  0  1  0  0  0  0  0999 V2000
  193.5560  174.2600  143.2980 C   0  0  2  0  0  3  0  0  0  0  0  0
  193.7880  173.0580  144.0930 N   0  0  0  0  0  2  0  0  0  0  0  0
  193.0090  171.8730  143.9230 C   0  0  0  0  0  0  0  0  0  0  0  0
  191.8360  171.8930  143.1040 N   0  0  0  0  0  2  0  0  0  0  0  0
  193.3600  170.8170  144.5100 O   0  0  0  0  0  0  0  0  0  0  0  0
  190.9860  170.7270  142.9210 C   0  0  2  0  0  3  0  0  0  0  0  0
  191.0450  170.1530  140.4470 N   0  0  0  0  0  2  0  0  0  0  0  0
  191.4960  169.9070  141.7770 C   0  0  0  0  0  0  0  0  0  0  0  0
  192.3190  168.9380  142.0030 N   0  0  0  0  0  1  0  0  0  0  0  0
  189.6190  171.1660  142.6800 N   0  0  0  0  0  2  0  0  0  0  0  0
  188.6860  172.7850  141.2900 C   0  0  0  0  0  3  0  0  0  0  0  0
  189.3160  172.4980  142.3790 N   0  0  0  0  0  0  0  0  0  0  0  0
  187.7090  174.9800  142.0080 N   0  0  0  0  0  2  0  0  0  0  0  0
  188.2900  174.1600  140.9890 C   0  0  0  0  0  0  0  0  0  0  0  0
  188.4030  174.5890  139.8120 O   0  0  0  0  0  0  0  0  0  0  0  0
  185.4620  177.9310  142.3120 N   0  0  0  0  0  0  0  0  0  0  0  0
  188.2940  177.3530  142.0000 C   0  0  0  0  0  2  0  0  0  0  0  0
  187.2060  176.3160  141.7290 C   0  0  2  0  0  3  0  0  0  0  0  0
  187.7280  178.7670  141.8620 C   0  0  0  0  0  2  0  0  0  0  0  0
  186.0040  176.6030  142.6240 C   0  0  0  0  0  2  0  0  0  0  0  0
  186.4760  178.9090  142.7300 C   0  0  0  0  0  2  0  0  0  0  0  0
  184.2380  178.1440  143.1040 C   0  0  1  0  0  3  0  0  0  0  0  0
  184.3180  179.4570  143.8870 C   0  0  0  0  0  1  0  0  0  0  0  0
  181.9100  179.0530  142.7830 C   0  0  0  0  0  1  0  0  0  0  0  0
  182.9780  178.1330  142.2160 C   0  0  1  0  0  3  0  0  0  0  0  0
  183.2780  178.4990  140.8980 O   0  0  0  0  0  0  0  0  0  0  0  0
  182.0560  178.4570  140.2220 C   0  0  0  0  0  2  0  0  0  0  0  0
  181.9830  177.2930  139.4550 O   0  0  0  0  0  1  0  0  0  0  0  0
  193.0990  174.6480  140.8840 O   0  0  0  0  0  1  0  0  0  0  0  0
  194.7840  173.0910  141.5120 C   0  0  0  0  0  3  0  0  0  0  0  0
  193.8480  173.9830  141.8510 C   0  0  0  0  0  0  0  0  0  0  0  0
  196.3560  172.7990  139.6520 C   0  0  0  0  0  0  0  0  0  0  0  0
  195.1020  172.6620  140.1330 C   0  0  0  0  0  0  0  0  0  0  0  0
  197.9400  170.2310  137.6310 C   0  0  0  0  0  3  0  0  0  0  0  0
  197.3030  171.3230  137.9440 C   0  0  0  0  0  0  0  0  0  0  0  0
  197.1870  168.9650  137.4250 C   0  0  0  0  0  1  0  0  0  0  0  0
  196.6590  172.4170  138.2560 C   0  0  0  0  0  3  0  0  0  0  0  0
  194.0740  172.0510  139.3360 N   0  0  0  0  0  2  0  0  0  0  0  0
  193.4930  172.6930  138.1960 C   0  0  0  0  0  0  0  0  0  0  0  0
  193.9380  173.8000  137.7890 O   0  0  0  0  0  0  0  0  0  0  0  0
  192.3990  172.0010  137.4500 C   0  0  1  0  0  3  0  0  0  0  0  0
  192.6430  170.5020  137.4270 C   0  0  0  0  0  1  0  0  0  0  0  0
  191.0520  172.3310  138.0800 C   0  0  0  0  0  2  0  0  0  0  0  0
  190.4070  173.5120  137.3770 C   0  0  0  0  0  1  0  0  0  0  0  0
  197.4440  173.4020  140.5010 C   0  0  0  0  0  2  0  0  0  0  0  0
  197.8180  174.7780  139.9780 C   0  0  0  0  0  2  0  0  0  0  0  0
  196.7770  175.7250  140.3310 N   0  0  0  0  0  1  0  0  0  0  0  0
  194.3880  175.3460  143.8000 N   0  0  0  0  0  2  0  0  0  0  0  0
  192.1080  176.3080  146.1350 N   0  0  0  0  0  0  0  0  0  0  0  0
  195.1620  177.9590  147.0430 F   0  0  0  0  0  0  0  0  0  0  0  0
  193.2670  176.5050  147.0130 C   0  0  0  0  0  2  0  0  0  0  0  0
  194.2530  177.5420  144.8860 C   0  0  0  0  0  2  0  0  0  0  0  0
  194.5330  176.9890  146.2820 C   0  0  1  0  0  3  0  0  0  0  0  0
  192.2760  176.0680  144.7220 C   0  0  0  0  0  0  0  0  0  0  0  0
  193.5290  176.5020  144.0320 C   0  0  2  0  0  3  0  0  0  0  0  0
  191.4110  175.4180  144.0800 O   0  0  0  0  0  0  0  0  0  0  0  0
  189.7360  177.0480  146.3840 C   0  0  0  0  0  0  0  0  0  0  0  0
  189.9050  178.0520  145.6420 O   0  0  0  0  0  0  0  0  0  0  0  0
  190.8460  176.2150  146.7420 N   0  0  0  0  0  2  0  0  0  0  0  0
  188.3810  176.7900  146.9560 C   0  0  1  0  0  3  0  0  0  0  0  0
  187.7720  178.0500  147.5550 C   0  0  0  0  0  1  0  0  0  0  0  0
  187.4470  176.1120  145.9530 C   0  0  0  0  0  2  0  0  0  0  0  0
  186.1130  176.8260  145.8070 C   0  0  0  0  0  1  0  0  0  0  0  0
  1 31  1  6  0  0  0
  1 48  1  0  0  0  0
  1  2  1  0  0  0  0
  3  2  1  0  0  0  0
  3  5  2  0  0  0  0
  4  3  1  0  0  0  0
  6  8  1  6  0  0  0
  6  4  1  0  0  0  0
  7  8  2  0  0  0  0
  8  9  1  0  0  0  0
 10  6  1  0  0  0  0
 11 12  2  0  0  0  0
 12 10  1  0  0  0  0
 14 11  1  0  0  0  0
 14 13  1  0  0  0  0
 15 14  2  0  0  0  0
 16 20  1  0  0  0  0
 16 21  1  0  0  0  0
 16 22  1  0  0  0  0
 18 17  1  0  0  0  0
 18 13  1  1  0  0  0
 18 20  1  0  0  0  0
 19 17  1  0  0  0  0
 19 21  1  0  0  0  0
 22 23  1  6  0  0  0
 25 24  1  1  0  0  0
 25 22  1  0  0  0  0
 26 25  1  0  0  0  0
 27 26  1  0  0  0  0
 28 27  1  0  0  0  0
 29 31  1  0  0  0  0
 30 31  2  0  0  0  0
 32 33  2  0  0  0  0
 32 45  1  0  0  0  0
 33 30  1  0  0  0  0
 34 35  2  0  0  0  0
 35 37  2  0  0  0  0
 36 34  1  0  0  0  0
 37 32  1  0  0  0  0
 38 33  1  0  0  0  0
 39 38  1  0  0  0  0
 40 39  2  0  0  0  0
 41 42  1  1  0  0  0
 41 43  1  0  0  0  0
 41 39  1  0  0  0  0
 44 43  1  0  0  0  0
 46 47  1  0  0  0  0
 46 45  1  0  0  0  0
 49 59  1  0  0  0  0
 49 51  1  0  0  0  0
 52 53  1  0  0  0  0
 53 51  1  0  0  0  0
 53 50  1  1  0  0  0
 54 49  1  0  0  0  0
 55 48  1  1  0  0  0
 55 54  1  0  0  0  0
 55 52  1  0  0  0  0
 56 54  2  0  0  0  0
 57 59  1  0  0  0  0
 57 60  1  0  0  0  0
 58 57  2  0  0  0  0
 60 61  1  6  0  0  0
 62 60  1  0  0  0  0
 63 62  1  0  0  0  0
M  END
>  <MODEL>
6

>  <REMARK>
 VINA RESULT:      -4.3      1.427      2.203
  Name = 
  24 active torsions:
  status: ('A' for Active; 'I' for Inactive)
    1  A    between atoms: N_2  and  C_57
    2  A    between atoms: C_4  and  O_42
    3  A    between atoms: C_5  and  C_32
    4  A    between atoms: C_6  and  N_20
    5  A    between atoms: C_6  and  C_30
    6  A    between atoms: N_7  and  N_58
    7  A    between atoms: N_8  and  C_38
    8  A    between atoms: C_9  and  C_32
    9  A    between atoms: C_9  and  C_63
   10  A    between atoms: C_10  and  C_34
   11  A    between atoms: C_10  and  C_47
   12  A    between atoms: C_11  and  C_18
   13  A    between atoms: C_13  and  C_16
   14  A    between atoms: C_15  and  C_23
   15  A    between atoms: C_18  and  N_31
   16  A    between atoms: C_18  and  N_40
   17  A    between atoms: C_23  and  C_43
   18  A    between atoms: N_25  and  C_60
   19  A    between atoms: C_30  and  O_42
   20  A    between atoms: C_36  and  N_37
   21  A    between atoms: N_37  and  C_57
   22  A    between atoms: N_40  and  N_46
   23  A    between atoms: C_44  and  C_60
   24  A    between atoms: C_57  and  C_61
                            x       y       z     vdW  Elec       q    Type
                         _______ _______ _______ _____ _____    ______ ____

>  <TORSDO>
F 24

$$$$
=
 OpenBabel11042415263D

 63 64  0  0  1  0  0  0  0  0999 V2000
  188.6420  175.9410  142.7550 C   0  0  2  0  0  3  0  0  0  0  0  0
  189.7180  176.9260  142.6880 N   0  0  0  0  0  2  0  0  0  0  0  0
  190.9310  176.7760  143.4290 C   0  0  0  0  0  0  0  0  0  0  0  0
  191.0480  175.7520  144.4210 N   0  0  0  0  0  2  0  0  0  0  0  0
  191.8890  177.5600  143.2040 O   0  0  0  0  0  0  0  0  0  0  0  0
  192.2450  175.5730  145.2270 C   0  0  2  0  0  3  0  0  0  0  0  0
  190.7510  176.3020  147.1480 N   0  0  0  0  0  2  0  0  0  0  0  0
  192.0510  176.2100  146.5670 C   0  0  0  0  0  0  0  0  0  0  0  0
  193.0630  176.7200  147.1850 N   0  0  0  0  0  1  0  0  0  0  0  0
  193.3820  176.1580  144.5300 N   0  0  0  0  0  2  0  0  0  0  0  0
  195.0930  175.9990  142.9590 C   0  0  0  0  0  3  0  0  0  0  0  0
  194.0810  175.4530  143.5440 N   0  0  0  0  0  0  0  0  0  0  0  0
  195.4190  175.1110  140.6350 N   0  0  0  0  0  2  0  0  0  0  0  0
  195.8870  175.2570  141.9800 C   0  0  0  0  0  0  0  0  0  0  0  0
  196.9480  174.6910  142.3510 O   0  0  0  0  0  0  0  0  0  0  0  0
  195.8540  173.0430  137.5730 N   0  0  0  0  0  0  0  0  0  0  0  0
  197.2940  175.0770  139.0690 C   0  0  0  0  0  2  0  0  0  0  0  0
  196.1220  174.2960  139.6580 C   0  0  2  0  0  3  0  0  0  0  0  0
  197.9410  174.2880  137.9300 C   0  0  0  0  0  2  0  0  0  0  0  0
  195.1630  173.9080  138.5360 C   0  0  0  0  0  2  0  0  0  0  0  0
  196.8720  173.8740  136.9160 C   0  0  0  0  0  2  0  0  0  0  0  0
  194.8850  172.5880  136.5610 C   0  0  1  0  0  3  0  0  0  0  0  0
  194.1080  171.3670  137.0610 C   0  0  0  0  0  1  0  0  0  0  0  0
  194.5200  174.6170  135.1110 C   0  0  0  0  0  1  0  0  0  0  0  0
  193.9060  173.7120  136.1660 C   0  0  1  0  0  3  0  0  0  0  0  0
  192.6900  173.1930  135.7050 O   0  0  0  0  0  0  0  0  0  0  0  0
  191.7180  174.0940  136.1490 C   0  0  0  0  0  2  0  0  0  0  0  0
  191.8510  174.2870  137.5250 O   0  0  0  0  0  1  0  0  0  0  0  0
  188.9790  173.5120  143.1730 O   0  0  0  0  0  1  0  0  0  0  0  0
  189.7760  174.4630  141.1430 C   0  0  0  0  0  3  0  0  0  0  0  0
  189.1490  174.5970  142.3160 C   0  0  0  0  0  0  0  0  0  0  0  0
  189.7980  172.5090  139.6610 C   0  0  0  0  0  0  0  0  0  0  0  0
  190.3990  173.2210  140.6390 C   0  0  0  0  0  0  0  0  0  0  0  0
  189.6920  170.0740  136.9690 C   0  0  0  0  0  3  0  0  0  0  0  0
  190.0420  170.6560  138.0820 C   0  0  0  0  0  0  0  0  0  0  0  0
  190.3730  170.4350  135.6970 C   0  0  0  0  0  1  0  0  0  0  0  0
  190.3970  171.2400  139.1950 C   0  0  0  0  0  3  0  0  0  0  0  0
  191.6720  172.8140  141.1650 N   0  0  0  0  0  2  0  0  0  0  0  0
  191.8070  171.8230  142.1900 C   0  0  0  0  0  0  0  0  0  0  0  0
  190.7980  171.1940  142.6080 O   0  0  0  0  0  0  0  0  0  0  0  0
  193.1680  171.4920  142.7080 C   0  0  1  0  0  3  0  0  0  0  0  0
  193.2920  171.9070  144.1650 C   0  0  0  0  0  1  0  0  0  0  0  0
  193.4430  170.0040  142.5340 C   0  0  0  0  0  2  0  0  0  0  0  0
  193.6540  169.6670  141.0680 C   0  0  0  0  0  1  0  0  0  0  0  0
  188.4820  172.9570  139.0810 C   0  0  0  0  0  2  0  0  0  0  0  0
  188.6510  174.2800  138.3530 C   0  0  0  0  0  2  0  0  0  0  0  0
  188.2360  174.1240  136.9720 N   0  0  0  0  0  1  0  0  0  0  0  0
  187.5300  176.3780  141.9210 N   0  0  0  0  0  2  0  0  0  0  0  0
  184.7480  178.2220  142.5820 N   0  0  0  0  0  0  0  0  0  0  0  0
  186.1150  177.3710  145.7880 F   0  0  0  0  0  0  0  0  0  0  0  0
  184.7160  177.4980  143.8570 C   0  0  0  0  0  2  0  0  0  0  0  0
  187.2360  177.9580  143.7750 C   0  0  0  0  0  2  0  0  0  0  0  0
  186.1080  177.1570  144.4210 C   0  0  1  0  0  3  0  0  0  0  0  0
  185.8940  178.1420  141.7080 C   0  0  0  0  0  0  0  0  0  0  0  0
  187.2310  177.7660  142.2590 C   0  0  2  0  0  3  0  0  0  0  0  0
  185.7600  178.3020  140.4680 O   0  0  0  0  0  0  0  0  0  0  0  0
  182.6350  178.3070  141.2540 C   0  0  0  0  0  0  0  0  0  0  0  0
  182.9330  177.2740  140.5960 O   0  0  0  0  0  0  0  0  0  0  0  0
  183.5710  178.8740  142.1790 N   0  0  0  0  0  2  0  0  0  0  0  0
  181.3290  178.9820  140.9910 C   0  0  1  0  0  3  0  0  0  0  0  0
  180.4540  178.1710  140.0460 C   0  0  0  0  0  1  0  0  0  0  0  0
  180.6000  179.3580  142.2810 C   0  0  0  0  0  2  0  0  0  0  0  0
  179.3730  178.4970  142.5420 C   0  0  0  0  0  1  0  0  0  0  0  0
  1 48  1  6  0  0  0
  2  1  1  0  0  0  0
  2  3  1  0  0  0  0
  3  4  1  0  0  0  0
  5  3  2  0  0  0  0
  6  4  1  6  0  0  0
  6  8  1  0  0  0  0
  8  7  2  0  0  0  0
  8  9  1  0  0  0  0
 10  6  1  0  0  0  0
 11 12  2  0  0  0  0
 12 10  1  0  0  0  0
 13 14  1  0  0  0  0
 14 15  2  0  0  0  0
 14 11  1  0  0  0  0
 16 20  1  0  0  0  0
 17 18  1  0  0  0  0
 18 13  1  1  0  0  0
 19 17  1  0  0  0  0
 20 18  1  0  0  0  0
 21 16  1  0  0  0  0
 21 19  1  0  0  0  0
 22 23  1  1  0  0  0
 22 16  1  0  0  0  0
 25 24  1  6  0  0  0
 25 22  1  0  0  0  0
 26 27  1  0  0  0  0
 26 25  1  0  0  0  0
 27 28  1  0  0  0  0
 30 31  2  0  0  0  0
 31  1  1  0  0  0  0
 31 29  1  0  0  0  0
 32 33  2  0  0  0  0
 33 30  1  0  0  0  0
 33 38  1  0  0  0  0
 34 35  2  0  0  0  0
 35 37  2  0  0  0  0
 36 34  1  0  0  0  0
 37 32  1  0  0  0  0
 38 39  1  0  0  0  0
 39 40  2  0  0  0  0
 39 41  1  0  0  0  0
 41 42  1  1  0  0  0
 43 41  1  0  0  0  0
 44 43  1  0  0  0  0
 45 32  1  0  0  0  0
 46 45  1  0  0  0  0
 47 46  1  0  0  0  0
 49 51  1  0  0  0  0
 51 53  1  0  0  0  0
 52 53  1  0  0  0  0
 53 50  1  1  0  0  0
 54 55  1  0  0  0  0
 54 49  1  0  0  0  0
 55 48  1  1  0  0  0
 55 52  1  0  0  0  0
 56 54  2  0  0  0  0
 57 59  1  0  0  0  0
 58 57  2  0  0  0  0
 59 49  1  0  0  0  0
 60 61  1  6  0  0  0
 60 57  1  0  0  0  0
 60 62  1  0  0  0  0
 62 63  1  0  0  0  0
M  END
>  <MODEL>
7

>  <REMARK>
 VINA RESULT:      -4.3      2.550      8.548
  Name = 
  24 active torsions:
  status: ('A' for Active; 'I' for Inactive)
    1  A    between atoms: N_2  and  C_57
    2  A    between atoms: C_4  and  O_42
    3  A    between atoms: C_5  and  C_32
    4  A    between atoms: C_6  and  N_20
    5  A    between atoms: C_6  and  C_30
    6  A    between atoms: N_7  and  N_58
    7  A    between atoms: N_8  and  C_38
    8  A    between atoms: C_9  and  C_32
    9  A    between atoms: C_9  and  C_63
   10  A    between atoms: C_10  and  C_34
   11  A    between atoms: C_10  and  C_47
   12  A    between atoms: C_11  and  C_18
   13  A    between atoms: C_13  and  C_16
   14  A    between atoms: C_15  and  C_23
   15  A    between atoms: C_18  and  N_31
   16  A    between atoms: C_18  and  N_40
   17  A    between atoms: C_23  and  C_43
   18  A    between atoms: N_25  and  C_60
   19  A    between atoms: C_30  and  O_42
   20  A    between atoms: C_36  and  N_37
   21  A    between atoms: N_37  and  C_57
   22  A    between atoms: N_40  and  N_46
   23  A    between atoms: C_44  and  C_60
   24  A    between atoms: C_57  and  C_61
                            x       y       z     vdW  Elec       q    Type
                         _______ _______ _______ _____ _____    ______ ____

>  <TORSDO>
F 24

$$$$
=
 OpenBabel11042415263D

 63 64  0  0  1  0  0  0  0  0999 V2000
  191.8990  172.3600  143.9400 C   0  0  2  0  0  3  0  0  0  0  0  0
  191.8720  170.9050  144.0570 N   0  0  0  0  0  2  0  0  0  0  0  0
  193.0520  170.1430  144.3190 C   0  0  0  0  0  0  0  0  0  0  0  0
  194.3390  170.7670  144.2740 N   0  0  0  0  0  2  0  0  0  0  0  0
  192.9460  168.9170  144.5800 O   0  0  0  0  0  0  0  0  0  0  0  0
  195.5740  170.0360  144.5010 C   0  0  2  0  0  3  0  0  0  0  0  0
  197.5460  170.9710  145.8000 N   0  0  0  0  0  1  0  0  0  0  0  0
  196.7110  170.9990  144.6440 C   0  0  0  0  0  0  0  0  0  0  0  0
  196.9120  171.8910  143.7330 N   0  0  0  0  0  2  0  0  0  0  0  0
  195.7990  169.1230  143.3890 N   0  0  0  0  0  2  0  0  0  0  0  0
  195.9310  169.1480  141.0640 C   0  0  0  0  0  3  0  0  0  0  0  0
  196.3980  169.5480  142.1980 N   0  0  0  0  0  0  0  0  0  0  0  0
  195.6300  170.1880  138.8010 N   0  0  0  0  0  2  0  0  0  0  0  0
  196.4900  169.6380  139.8050 C   0  0  0  0  0  0  0  0  0  0  0  0
  197.7220  169.5080  139.5870 O   0  0  0  0  0  0  0  0  0  0  0  0
  195.6100  171.9280  135.5130 N   0  0  0  0  0  0  0  0  0  0  0  0
  197.4820  171.2810  137.6400 C   0  0  0  0  0  2  0  0  0  0  0  0
  196.1270  170.5910  137.4960 C   0  0  2  0  0  3  0  0  0  0  0  0
  197.9370  171.8460  136.2950 C   0  0  0  0  0  2  0  0  0  0  0  0
  195.1370  171.5570  136.8510 C   0  0  0  0  0  2  0  0  0  0  0  0
  196.8310  172.7230  135.7020 C   0  0  0  0  0  2  0  0  0  0  0  0
  194.5900  172.7700  134.8640 C   0  0  1  0  0  3  0  0  0  0  0  0
  193.2260  172.0740  134.8680 C   0  0  0  0  0  1  0  0  0  0  0  0
  194.0930  175.2170  134.5280 C   0  0  0  0  0  1  0  0  0  0  0  0
  194.4800  174.1510  135.5390 C   0  0  1  0  0  3  0  0  0  0  0  0
  193.5600  174.1340  136.5950 O   0  0  0  0  0  0  0  0  0  0  0  0
  193.6380  175.4060  137.1670 C   0  0  0  0  0  2  0  0  0  0  0  0
  193.6660  175.2940  138.5580 O   0  0  0  0  0  1  0  0  0  0  0  0
  189.5520  172.0830  144.7160 O   0  0  0  0  0  1  0  0  0  0  0  0
  190.5100  174.2600  144.6680 C   0  0  0  0  0  3  0  0  0  0  0  0
  190.6200  172.9420  144.4710 C   0  0  0  0  0  0  0  0  0  0  0  0
  189.1760  175.4320  146.3590 C   0  0  0  0  0  0  0  0  0  0  0  0
  189.2840  174.9640  145.0970 C   0  0  0  0  0  0  0  0  0  0  0  0
  187.2430  178.4890  146.0300 C   0  0  0  0  0  3  0  0  0  0  0  0
  187.5870  177.2920  146.4160 C   0  0  0  0  0  0  0  0  0  0  0  0
  186.4610  178.6690  144.7780 C   0  0  0  0  0  1  0  0  0  0  0  0
  187.9280  176.0900  146.8000 C   0  0  0  0  0  3  0  0  0  0  0  0
  188.2360  175.1900  144.1400 N   0  0  0  0  0  2  0  0  0  0  0  0
  188.3850  176.0690  143.0200 C   0  0  0  0  0  0  0  0  0  0  0  0
  189.4970  176.6150  142.7790 O   0  0  0  0  0  0  0  0  0  0  0  0
  187.2290  176.2780  142.0980 C   0  0  1  0  0  3  0  0  0  0  0  0
  185.9290  176.3120  142.8840 C   0  0  0  0  0  1  0  0  0  0  0  0
  187.4240  177.5600  141.3010 C   0  0  0  0  0  2  0  0  0  0  0  0
  186.4690  177.6090  140.1210 C   0  0  0  0  0  1  0  0  0  0  0  0
  190.2910  175.2300  147.3520 C   0  0  0  0  0  2  0  0  0  0  0  0
  190.8100  176.5720  147.8390 C   0  0  0  0  0  2  0  0  0  0  0  0
  192.2120  176.7000  147.4870 N   0  0  0  0  0  1  0  0  0  0  0  0
  192.1040  172.7340  142.5460 N   0  0  0  0  0  2  0  0  0  0  0  0
  191.0940  172.7820  139.2970 N   0  0  0  0  0  0  0  0  0  0  0  0
  192.1400  169.4070  139.9240 F   0  0  0  0  0  0  0  0  0  0  0  0
  192.0130  171.6520  139.1190 C   0  0  0  0  0  2  0  0  0  0  0  0
  190.9750  170.9170  141.3440 C   0  0  0  0  0  2  0  0  0  0  0  0
  192.1130  170.7250  140.3440 C   0  0  1  0  0  3  0  0  0  0  0  0
  190.7560  173.2670  140.6130 C   0  0  0  0  0  0  0  0  0  0  0  0
  190.9010  172.3730  141.8020 C   0  0  2  0  0  3  0  0  0  0  0  0
  190.4220  174.4680  140.7820 O   0  0  0  0  0  0  0  0  0  0  0  0
  189.3400  173.3830  137.6240 C   0  0  0  0  0  0  0  0  0  0  0  0
  188.5310  172.5260  138.0700 O   0  0  0  0  0  0  0  0  0  0  0  0
  190.6740  173.4610  138.1430 N   0  0  0  0  0  2  0  0  0  0  0  0
  188.9190  174.2540  136.4870 C   0  0  1  0  0  3  0  0  0  0  0  0
  187.7900  175.1960  136.8840 C   0  0  0  0  0  1  0  0  0  0  0  0
  190.0980  174.9940  135.8540 C   0  0  0  0  0  2  0  0  0  0  0  0
  189.6650  176.0680  134.8680 C   0  0  0  0  0  1  0  0  0  0  0  0
  1 48  1  6  0  0  0
  1  2  1  0  0  0  0
  1 31  1  0  0  0  0
  2  3  1  0  0  0  0
  3  5  2  0  0  0  0
  4  3  1  0  0  0  0
  4  6  1  0  0  0  0
  6 10  1  6  0  0  0
  6  8  1  0  0  0  0
  8  7  1  0  0  0  0
  9  8  2  0  0  0  0
 11 12  2  0  0  0  0
 12 10  1  0  0  0  0
 13 14  1  0  0  0  0
 14 11  1  0  0  0  0
 15 14  2  0  0  0  0
 16 21  1  0  0  0  0
 16 20  1  0  0  0  0
 18 17  1  0  0  0  0
 18 13  1  1  0  0  0
 19 17  1  0  0  0  0
 20 18  1  0  0  0  0
 21 19  1  0  0  0  0
 22 23  1  1  0  0  0
 22 16  1  0  0  0  0
 22 25  1  0  0  0  0
 25 24  1  6  0  0  0
 25 26  1  0  0  0  0
 26 27  1  0  0  0  0
 27 28  1  0  0  0  0
 30 33  1  0  0  0  0
 31 30  2  0  0  0  0
 31 29  1  0  0  0  0
 32 37  1  0  0  0  0
 32 45  1  0  0  0  0
 33 32  2  0  0  0  0
 34 35  2  0  0  0  0
 35 37  2  0  0  0  0
 36 34  1  0  0  0  0
 38 33  1  0  0  0  0
 39 38  1  0  0  0  0
 40 39  2  0  0  0  0
 41 42  1  1  0  0  0
 41 39  1  0  0  0  0
 43 41  1  0  0  0  0
 44 43  1  0  0  0  0
 45 46  1  0  0  0  0
 47 46  1  0  0  0  0
 49 54  1  0  0  0  0
 51 49  1  0  0  0  0
 51 53  1  0  0  0  0
 52 55  1  0  0  0  0
 53 50  1  6  0  0  0
 53 52  1  0  0  0  0
 54 56  2  0  0  0  0
 54 55  1  0  0  0  0
 55 48  1  6  0  0  0
 57 58  2  0  0  0  0
 57 59  1  0  0  0  0
 59 49  1  0  0  0  0
 60 61  1  1  0  0  0
 60 57  1  0  0  0  0
 62 60  1  0  0  0  0
 63 62  1  0  0  0  0
M  END
>  <MODEL>
8

>  <REMARK>
 VINA RESULT:      -4.1      3.329      9.798
  Name = 
  24 active torsions:
  status: ('A' for Active; 'I' for Inactive)
    1  A    between atoms: N_2  and  C_57
    2  A    between atoms: C_4  and  O_42
    3  A    between atoms: C_5  and  C_32
    4  A    between atoms: C_6  and  N_20
    5  A    between atoms: C_6  and  C_30
    6  A    between atoms: N_7  and  N_58
    7  A    between atoms: N_8  and  C_38
    8  A    between atoms: C_9  and  C_32
    9  A    between atoms: C_9  and  C_63
   10  A    between atoms: C_10  and  C_34
   11  A    between atoms: C_10  and  C_47
   12  A    between atoms: C_11  and  C_18
   13  A    between atoms: C_13  and  C_16
   14  A    between atoms: C_15  and  C_23
   15  A    between atoms: C_18  and  N_31
   16  A    between atoms: C_18  and  N_40
   17  A    between atoms: C_23  and  C_43
   18  A    between atoms: N_25  and  C_60
   19  A    between atoms: C_30  and  O_42
   20  A    between atoms: C_36  and  N_37
   21  A    between atoms: N_37  and  C_57
   22  A    between atoms: N_40  and  N_46
   23  A    between atoms: C_44  and  C_60
   24  A    between atoms: C_57  and  C_61
                            x       y       z     vdW  Elec       q    Type
                         _______ _______ _______ _____ _____    ______ ____

>  <TORSDO>
F 24

$$$$
=
 OpenBabel11042415263D

 63 64  0  0  1  0  0  0  0  0999 V2000
  192.2390  171.0610  142.0290 C   0  0  2  0  0  3  0  0  0  0  0  0
  192.7790  170.6210  143.3110 N   0  0  0  0  0  2  0  0  0  0  0  0
  193.6130  171.4610  144.1110 C   0  0  0  0  0  0  0  0  0  0  0  0
  194.1140  172.6930  143.5840 N   0  0  0  0  0  2  0  0  0  0  0  0
  193.9090  171.1000  145.2790 O   0  0  0  0  0  0  0  0  0  0  0  0
  194.9920  173.5720  144.3390 C   0  0  2  0  0  3  0  0  0  0  0  0
  196.9080  172.2520  143.3210 N   0  0  0  0  0  2  0  0  0  0  0  0
  196.3580  172.9670  144.4250 C   0  0  0  0  0  0  0  0  0  0  0  0
  197.0290  173.0570  145.5250 N   0  0  0  0  0  1  0  0  0  0  0  0
  194.4290  173.7830  145.6660 N   0  0  0  0  0  2  0  0  0  0  0  0
  192.3350  174.3330  146.5220 C   0  0  0  0  0  3  0  0  0  0  0  0
  193.3970  174.7010  145.8880 N   0  0  0  0  0  0  0  0  0  0  0  0
  190.7390  176.1310  145.8070 N   0  0  0  0  0  2  0  0  0  0  0  0
  191.2750  175.2910  146.8350 C   0  0  0  0  0  0  0  0  0  0  0  0
  190.8910  175.4170  148.0260 O   0  0  0  0  0  0  0  0  0  0  0  0
  187.3690  177.6850  146.0730 N   0  0  0  0  0  0  0  0  0  0  0  0
  189.8710  177.6080  147.5500 C   0  0  0  0  0  2  0  0  0  0  0  0
  189.7610  177.1680  146.0920 C   0  0  2  0  0  3  0  0  0  0  0  0
  188.7460  178.5820  147.8990 C   0  0  0  0  0  2  0  0  0  0  0  0
  188.3570  176.6270  145.8350 C   0  0  0  0  0  2  0  0  0  0  0  0
  187.3960  177.9720  147.5140 C   0  0  0  0  0  2  0  0  0  0  0  0
  186.0330  177.1790  145.7130 C   0  0  1  0  0  3  0  0  0  0  0  0
  185.3870  176.4550  146.8970 C   0  0  0  0  0  1  0  0  0  0  0  0
  185.9220  179.5260  144.8010 C   0  0  0  0  0  1  0  0  0  0  0  0
  185.1110  178.3110  145.2190 C   0  0  1  0  0  3  0  0  0  0  0  0
  184.3020  177.8860  144.1570 O   0  0  0  0  0  0  0  0  0  0  0  0
  183.9670  179.0520  143.4640 C   0  0  0  0  0  2  0  0  0  0  0  0
  182.5920  179.0780  143.2240 O   0  0  0  0  0  1  0  0  0  0  0  0
  194.2490  169.9280  141.0970 O   0  0  0  0  0  1  0  0  0  0  0  0
  193.2910  171.7550  139.9130 C   0  0  0  0  0  3  0  0  0  0  0  0
  193.2810  170.9200  140.9570 C   0  0  0  0  0  0  0  0  0  0  0  0
  194.2380  170.9110  137.8140 C   0  0  0  0  0  0  0  0  0  0  0  0
  194.3110  171.7820  138.8430 C   0  0  0  0  0  0  0  0  0  0  0  0
  195.3160  172.5880  134.7790 C   0  0  0  0  0  3  0  0  0  0  0  0
  195.3000  171.7470  135.7740 C   0  0  0  0  0  0  0  0  0  0  0  0
  195.9910  173.9050  134.9320 C   0  0  0  0  0  1  0  0  0  0  0  0
  195.2890  170.9050  136.7740 C   0  0  0  0  0  3  0  0  0  0  0  0
  195.3450  172.7780  138.8880 N   0  0  0  0  0  2  0  0  0  0  0  0
  196.6060  172.5590  139.5300 C   0  0  0  0  0  0  0  0  0  0  0  0
  196.8930  171.4280  140.0070 O   0  0  0  0  0  0  0  0  0  0  0  0
  197.6080  173.6670  139.5650 C   0  0  1  0  0  3  0  0  0  0  0  0
  197.5730  174.4500  138.2630 C   0  0  0  0  0  1  0  0  0  0  0  0
  197.3400  174.5720  140.7600 C   0  0  0  0  0  2  0  0  0  0  0  0
  196.5680  175.8080  140.3330 C   0  0  0  0  0  1  0  0  0  0  0  0
  193.1310  169.8920  137.7460 C   0  0  0  0  0  2  0  0  0  0  0  0
  192.1460  170.2580  136.6500 C   0  0  0  0  0  2  0  0  0  0  0  0
  190.7930  170.1470  137.1630 N   0  0  0  0  0  1  0  0  0  0  0  0
  191.7840  172.4410  142.1370 N   0  0  0  0  0  2  0  0  0  0  0  0
  189.2150  174.5760  141.4870 N   0  0  0  0  0  0  0  0  0  0  0  0
  189.3260  172.3330  138.6880 F   0  0  0  0  0  0  0  0  0  0  0  0
  189.4760  174.2710  140.0760 C   0  0  0  0  0  2  0  0  0  0  0  0
  189.6820  171.8880  140.9970 C   0  0  0  0  0  2  0  0  0  0  0  0
  189.9470  172.8270  139.8220 C   0  0  1  0  0  3  0  0  0  0  0  0
  189.8360  173.8110  142.5420 C   0  0  0  0  0  0  0  0  0  0  0  0
  190.3310  172.4270  142.2720 C   0  0  2  0  0  3  0  0  0  0  0  0
  190.0430  174.3310  143.6670 O   0  0  0  0  0  0  0  0  0  0  0  0
  187.4930  176.2750  140.8690 C   0  0  0  0  0  0  0  0  0  0  0  0
  187.4240  175.8660  139.6790 O   0  0  0  0  0  0  0  0  0  0  0  0
  188.4600  175.7250  141.7720 N   0  0  0  0  0  2  0  0  0  0  0  0
  186.6140  177.4030  141.2980 C   0  0  1  0  0  3  0  0  0  0  0  0
  187.3860  178.4550  142.0830 C   0  0  0  0  0  1  0  0  0  0  0  0
  185.8310  178.0060  140.1310 C   0  0  0  0  0  2  0  0  0  0  0  0
  184.3350  177.7460  140.2230 C   0  0  0  0  0  1  0  0  0  0  0  0
  1 31  1  6  0  0  0
  1 48  1  0  0  0  0
  1  2  1  0  0  0  0
  2  3  1  0  0  0  0
  3  5  2  0  0  0  0
  4  3  1  0  0  0  0
  6  4  1  6  0  0  0
  6  8  1  0  0  0  0
  6 10  1  0  0  0  0
  7  8  2  0  0  0  0
  8  9  1  0  0  0  0
 10 12  1  0  0  0  0
 11 14  1  0  0  0  0
 12 11  2  0  0  0  0
 13 14  1  0  0  0  0
 14 15  2  0  0  0  0
 16 21  1  0  0  0  0
 17 19  1  0  0  0  0
 18 13  1  1  0  0  0
 18 17  1  0  0  0  0
 20 16  1  0  0  0  0
 20 18  1  0  0  0  0
 21 19  1  0  0  0  0
 22 16  1  0  0  0  0
 22 23  1  1  0  0  0
 25 24  1  6  0  0  0
 25 22  1  0  0  0  0
 26 25  1  0  0  0  0
 27 26  1  0  0  0  0
 28 27  1  0  0  0  0
 30 31  2  0  0  0  0
 31 29  1  0  0  0  0
 32 33  2  0  0  0  0
 33 38  1  0  0  0  0
 33 30  1  0  0  0  0
 34 36  1  0  0  0  0
 34 35  2  0  0  0  0
 35 37  2  0  0  0  0
 37 32  1  0  0  0  0
 38 39  1  0  0  0  0
 39 41  1  0  0  0  0
 39 40  2  0  0  0  0
 41 42  1  6  0  0  0
 41 43  1  0  0  0  0
 44 43  1  0  0  0  0
 45 32  1  0  0  0  0
 46 47  1  0  0  0  0
 46 45  1  0  0  0  0
 49 59  1  0  0  0  0
 49 54  1  0  0  0  0
 51 49  1  0  0  0  0
 52 55  1  0  0  0  0
 53 50  1  6  0  0  0
 53 51  1  0  0  0  0
 53 52  1  0  0  0  0
 54 56  2  0  0  0  0
 55 48  1  6  0  0  0
 55 54  1  0  0  0  0
 57 60  1  0  0  0  0
 57 59  1  0  0  0  0
 58 57  2  0  0  0  0
 60 61  1  6  0  0  0
 62 63  1  0  0  0  0
 62 60  1  0  0  0  0
M  END
>  <MODEL>
9

>  <REMARK>
 VINA RESULT:      -3.8      2.434      5.470
  Name = 
  24 active torsions:
  status: ('A' for Active; 'I' for Inactive)
    1  A    between atoms: N_2  and  C_57
    2  A    between atoms: C_4  and  O_42
    3  A    between atoms: C_5  and  C_32
    4  A    between atoms: C_6  and  N_20
    5  A    between atoms: C_6  and  C_30
    6  A    between atoms: N_7  and  N_58
    7  A    between atoms: N_8  and  C_38
    8  A    between atoms: C_9  and  C_32
    9  A    between atoms: C_9  and  C_63
   10  A    between atoms: C_10  and  C_34
   11  A    between atoms: C_10  and  C_47
   12  A    between atoms: C_11  and  C_18
   13  A    between atoms: C_13  and  C_16
   14  A    between atoms: C_15  and  C_23
   15  A    between atoms: C_18  and  N_31
   16  A    between atoms: C_18  and  N_40
   17  A    between atoms: C_23  and  C_43
   18  A    between atoms: N_25  and  C_60
   19  A    between atoms: C_30  and  O_42
   20  A    between atoms: C_36  and  N_37
   21  A    between atoms: N_37  and  C_57
   22  A    between atoms: N_40  and  N_46
   23  A    between atoms: C_44  and  C_60
   24  A    between atoms: C_57  and  C_61
                            x       y       z     vdW  Elec       q    Type
                         _______ _______ _______ _____ _____    ______ ____

>  <TORSDO>
F 24

$$$$
