=
 OpenBabel11042418293D

 30 32  0  0  1  0  0  0  0  0999 V2000
  192.2590  173.7330  144.9440 C   0  0  0  0  0  0  0  0  0  0  0  0
  192.0850  175.0210  145.5670 N   0  0  0  0  0  0  0  0  0  0  0  0
  193.1290  172.9420  145.3980 O   0  0  0  0  0  0  0  0  0  0  0  0
  191.6030  174.0370  142.5540 C   0  0  0  0  0  3  0  0  0  0  0  0
  191.4670  173.3340  143.7600 C   0  0  0  0  0  0  0  0  0  0  0  0
  189.9360  172.6200  141.5090 C   0  0  0  0  0  0  0  0  0  0  0  0
  190.5470  172.2790  143.8340 C   0  0  0  0  0  3  0  0  0  0  0  0
  189.7890  171.9200  142.7160 C   0  0  0  0  0  3  0  0  0  0  0  0
  190.8450  173.6800  141.4360 C   0  0  0  0  0  3  0  0  0  0  0  0
  188.5460  173.2630  139.5670 C   0  0  0  0  0  1  0  0  0  0  0  0
  189.1930  172.2870  140.3730 O   0  0  0  0  0  0  0  0  0  0  0  0
  190.7780  175.5460  145.8830 C   0  0  0  0  0  0  0  0  0  0  0  0
  189.0890  177.2810  145.6660 C   0  0  0  0  0  3  0  0  0  0  0  0
  190.3590  176.7810  145.3660 C   0  0  0  0  0  3  0  0  0  0  0  0
  188.6260  175.3150  146.9910 C   0  0  0  0  0  3  0  0  0  0  0  0
  188.2140  176.5500  146.4820 C   0  0  0  0  0  0  0  0  0  0  0  0
  189.8960  174.8140  146.6940 C   0  0  0  0  0  3  0  0  0  0  0  0
  185.7400  176.9980  145.9760 C   0  0  0  0  0  0  0  0  0  0  0  0
  185.7800  176.4860  144.8250 O   0  0  0  0  0  0  0  0  0  0  0  0
  186.9050  177.0300  146.8130 N   0  0  0  0  0  2  0  0  0  0  0  0
  184.6990  178.7140  147.2320 O   0  0  0  0  0  0  0  0  0  0  0  0
  184.2000  178.8910  145.9310 C   0  0  0  0  0  2  0  0  0  0  0  0
  184.4500  177.5440  146.4900 C   0  0  1  0  0  3  0  0  0  0  0  0
  193.2790  175.7540  145.9850 C   0  0  0  0  0  2  0  0  0  0  0  0
  193.4030  176.7260  143.8220 O   0  0  0  0  0  0  0  0  0  0  0  0
  194.0370  176.2390  144.7960 C   0  0  0  0  0  0  0  0  0  0  0  0
  195.4680  176.1140  144.7790 N   0  0  0  0  0  0  0  0  0  0  0  0
  196.1790  175.2360  144.1310 C   0  0  0  0  0  3  0  0  0  0  0  0
  195.1690  173.3760  142.6220 N   0  0  0  0  0  0  0  0  0  0  0  0
  195.6170  174.2040  143.2950 C   0  0  0  0  0  0  0  0  0  0  0  0
  1  3  2  0  0  0  0
  1  2  1  0  0  0  0
  2 12  1  0  0  0  0
  2 24  1  0  0  0  0
  4  5  1  0  0  0  0
  5  7  2  0  0  0  0
  5  1  1  0  0  0  0
  6  8  2  0  0  0  0
  8  7  1  0  0  0  0
  9  6  1  0  0  0  0
  9  4  2  0  0  0  0
 10 11  1  0  0  0  0
 11  6  1  0  0  0  0
 12 17  1  0  0  0  0
 13 16  2  0  0  0  0
 14 13  1  0  0  0  0
 14 12  2  0  0  0  0
 16 20  1  0  0  0  0
 16 15  1  0  0  0  0
 17 15  2  0  0  0  0
 18 20  1  0  0  0  0
 19 18  2  0  0  0  0
 22 23  1  0  0  0  0
 22 21  1  0  0  0  0
 23 18  1  6  0  0  0
 23 21  1  0  0  0  0
 25 26  2  0  0  0  0
 26 24  1  0  0  0  0
 27 26  1  0  0  0  0
 28 27  2  0  0  0  0
 29 30  3  0  0  0  0
 30 28  1  0  0  0  0
M  END
>  <MODEL>
1

>  <REMARK>
 VINA RESULT:      -6.0      0.000      0.000
  Name = 
  9 active torsions:
  status: ('A' for Active; 'I' for Inactive)
    1  A    between atoms: C_2  and  C_29
    2  A    between atoms: C_3  and  C_16
    3  A    between atoms: N_7  and  C_30
    4  A    between atoms: C_8  and  N_17
    5  A    between atoms: C_10  and  O_27
    6  A    between atoms: C_11  and  C_24
    7  A    between atoms: N_17  and  C_22
    8  A    between atoms: N_19  and  C_23
    9  A    between atoms: C_22  and  C_30
                            x       y       z     vdW  Elec       q    Type
                         _______ _______ _______ _____ _____    ______ ____

>  <TORSDO>
F 9

$$$$
=
 OpenBabel11042418293D

 30 32  0  0  1  0  0  0  0  0999 V2000
  189.7720  176.8250  146.3620 C   0  0  0  0  0  0  0  0  0  0  0  0
  190.4280  175.6000  145.9810 N   0  0  0  0  0  0  0  0  0  0  0  0
  190.4020  177.6730  147.0500 O   0  0  0  0  0  0  0  0  0  0  0  0
  188.0650  177.8390  144.8480 C   0  0  0  0  0  3  0  0  0  0  0  0
  188.3640  177.0930  145.9970 C   0  0  0  0  0  0  0  0  0  0  0  0
  185.6920  177.6540  145.3120 C   0  0  0  0  0  0  0  0  0  0  0  0
  187.3140  176.6420  146.8090 C   0  0  0  0  0  3  0  0  0  0  0  0
  185.9860  176.9160  146.4680 C   0  0  0  0  0  3  0  0  0  0  0  0
  186.7390  178.1140  144.5060 C   0  0  0  0  0  3  0  0  0  0  0  0
  184.0480  178.9870  144.0330 C   0  0  0  0  0  1  0  0  0  0  0  0
  184.3760  177.9460  144.9420 O   0  0  0  0  0  0  0  0  0  0  0  0
  190.3580  175.0820  144.6360 C   0  0  0  0  0  0  0  0  0  0  0  0
  190.8700  175.2770  142.2680 C   0  0  0  0  0  3  0  0  0  0  0  0
  190.9310  175.7870  143.5670 C   0  0  0  0  0  3  0  0  0  0  0  0
  189.6770  173.3400  143.0820 C   0  0  0  0  0  3  0  0  0  0  0  0
  190.2420  174.0490  142.0170 C   0  0  0  0  0  0  0  0  0  0  0  0
  189.7350  173.8500  144.3810 C   0  0  0  0  0  3  0  0  0  0  0  0
  189.1820  173.8060  139.6940 C   0  0  0  0  0  0  0  0  0  0  0  0
  188.2860  174.6670  139.9020 O   0  0  0  0  0  0  0  0  0  0  0  0
  190.1580  173.4940  140.6980 N   0  0  0  0  0  2  0  0  0  0  0  0
  188.7560  173.9930  137.3720 O   0  0  0  0  0  0  0  0  0  0  0  0
  190.1520  173.8680  137.4540 C   0  0  0  0  0  2  0  0  0  0  0  0
  189.2510  173.1280  138.3660 C   0  0  1  0  0  3  0  0  0  0  0  0
  191.2760  174.9340  146.9690 C   0  0  0  0  0  2  0  0  0  0  0  0
  193.2550  173.9850  146.0610 O   0  0  0  0  0  0  0  0  0  0  0  0
  192.7080  175.0050  146.5590 C   0  0  0  0  0  0  0  0  0  0  0  0
  193.4370  176.2250  146.7680 N   0  0  0  0  0  0  0  0  0  0  0  0
  194.1820  176.8600  145.9090 C   0  0  0  0  0  3  0  0  0  0  0  0
  194.5790  176.0680  143.4650 N   0  0  0  0  0  0  0  0  0  0  0  0
  194.4020  176.4190  144.5530 C   0  0  0  0  0  0  0  0  0  0  0  0
  1  3  2  0  0  0  0
  2  1  1  0  0  0  0
  2 24  1  0  0  0  0
  4  5  1  0  0  0  0
  5  1  1  0  0  0  0
  5  7  2  0  0  0  0
  6  8  2  0  0  0  0
  8  7  1  0  0  0  0
  9  4  2  0  0  0  0
  9  6  1  0  0  0  0
 10 11  1  0  0  0  0
 11  6  1  0  0  0  0
 12  2  1  0  0  0  0
 13 14  1  0  0  0  0
 14 12  2  0  0  0  0
 15 17  2  0  0  0  0
 16 13  2  0  0  0  0
 16 15  1  0  0  0  0
 17 12  1  0  0  0  0
 18 19  2  0  0  0  0
 18 20  1  0  0  0  0
 20 16  1  0  0  0  0
 21 22  1  0  0  0  0
 21 23  1  0  0  0  0
 22 23  1  0  0  0  0
 23 18  1  1  0  0  0
 25 26  2  0  0  0  0
 26 27  1  0  0  0  0
 26 24  1  0  0  0  0
 28 27  2  0  0  0  0
 29 30  3  0  0  0  0
 30 28  1  0  0  0  0
M  END
>  <MODEL>
2

>  <REMARK>
 VINA RESULT:      -5.8      2.066      6.145
  Name = 
  9 active torsions:
  status: ('A' for Active; 'I' for Inactive)
    1  A    between atoms: C_2  and  C_29
    2  A    between atoms: C_3  and  C_16
    3  A    between atoms: N_7  and  C_30
    4  A    between atoms: C_8  and  N_17
    5  A    between atoms: C_10  and  O_27
    6  A    between atoms: C_11  and  C_24
    7  A    between atoms: N_17  and  C_22
    8  A    between atoms: N_19  and  C_23
    9  A    between atoms: C_22  and  C_30
                            x       y       z     vdW  Elec       q    Type
                         _______ _______ _______ _____ _____    ______ ____

>  <TORSDO>
F 9

$$$$
=
 OpenBabel11042418293D

 30 32  0  0  1  0  0  0  0  0999 V2000
  191.3110  175.8770  146.8540 C   0  0  0  0  0  0  0  0  0  0  0  0
  190.2600  176.3860  146.0110 N   0  0  0  0  0  0  0  0  0  0  0  0
  191.0830  175.6930  148.0800 O   0  0  0  0  0  0  0  0  0  0  0  0
  193.5260  176.6650  146.0120 C   0  0  0  0  0  3  0  0  0  0  0  0
  192.6640  175.6030  146.3220 C   0  0  0  0  0  0  0  0  0  0  0  0
  195.2250  175.1030  145.2650 C   0  0  0  0  0  0  0  0  0  0  0  0
  193.0890  174.2880  146.0850 C   0  0  0  0  0  3  0  0  0  0  0  0
  194.3620  174.0380  145.5640 C   0  0  0  0  0  3  0  0  0  0  0  0
  194.7980  176.4160  145.4910 C   0  0  0  0  0  3  0  0  0  0  0  0
  197.3420  173.8290  145.1830 C   0  0  0  0  0  1  0  0  0  0  0  0
  196.5040  174.8880  144.7430 O   0  0  0  0  0  0  0  0  0  0  0  0
  189.9690  175.8090  144.7210 C   0  0  0  0  0  0  0  0  0  0  0  0
  189.7220  176.0330  142.3130 C   0  0  0  0  0  3  0  0  0  0  0  0
  189.9940  176.5980  143.5610 C   0  0  0  0  0  3  0  0  0  0  0  0
  189.4090  173.8760  143.3550 C   0  0  0  0  0  3  0  0  0  0  0  0
  189.4270  174.6670  142.2020 C   0  0  0  0  0  0  0  0  0  0  0  0
  189.6790  174.4400  144.6040 C   0  0  0  0  0  3  0  0  0  0  0  0
  190.0910  173.5050  140.0140 C   0  0  0  0  0  0  0  0  0  0  0  0
  191.3250  173.5020  140.2740 O   0  0  0  0  0  0  0  0  0  0  0  0
  189.1410  174.0520  140.9390 N   0  0  0  0  0  2  0  0  0  0  0  0
  188.3580  173.4430  138.4030 O   0  0  0  0  0  0  0  0  0  0  0  0
  189.4660  173.9330  137.6940 C   0  0  0  0  0  2  0  0  0  0  0  0
  189.6100  172.8970  138.7400 C   0  0  1  0  0  3  0  0  0  0  0  0
  189.4010  177.4450  146.5390 C   0  0  0  0  0  2  0  0  0  0  0  0
  187.8430  175.7440  147.1050 O   0  0  0  0  0  0  0  0  0  0  0  0
  188.0130  176.9380  146.7410 C   0  0  0  0  0  0  0  0  0  0  0  0
  186.9030  177.8150  146.4880 N   0  0  0  0  0  0  0  0  0  0  0  0
  186.1200  177.8220  145.4470 C   0  0  0  0  0  3  0  0  0  0  0  0
  186.3580  176.1840  143.4430 N   0  0  0  0  0  0  0  0  0  0  0  0
  186.2500  176.9130  144.3350 C   0  0  0  0  0  0  0  0  0  0  0  0
  1  3  2  0  0  0  0
  2 24  1  0  0  0  0
  2  1  1  0  0  0  0
  4  5  1  0  0  0  0
  5  1  1  0  0  0  0
  6  9  1  0  0  0  0
  6  8  2  0  0  0  0
  7  5  2  0  0  0  0
  8  7  1  0  0  0  0
  9  4  2  0  0  0  0
 11 10  1  0  0  0  0
 11  6  1  0  0  0  0
 12  2  1  0  0  0  0
 13 14  1  0  0  0  0
 14 12  2  0  0  0  0
 15 17  2  0  0  0  0
 16 13  2  0  0  0  0
 16 15  1  0  0  0  0
 17 12  1  0  0  0  0
 18 19  2  0  0  0  0
 18 20  1  0  0  0  0
 20 16  1  0  0  0  0
 21 23  1  0  0  0  0
 22 21  1  0  0  0  0
 22 23  1  0  0  0  0
 23 18  1  1  0  0  0
 24 26  1  0  0  0  0
 26 25  2  0  0  0  0
 27 26  1  0  0  0  0
 28 27  2  0  0  0  0
 29 30  3  0  0  0  0
 30 28  1  0  0  0  0
M  END
>  <MODEL>
3

>  <REMARK>
 VINA RESULT:      -5.8      2.555      6.959
  Name = 
  9 active torsions:
  status: ('A' for Active; 'I' for Inactive)
    1  A    between atoms: C_2  and  C_29
    2  A    between atoms: C_3  and  C_16
    3  A    between atoms: N_7  and  C_30
    4  A    between atoms: C_8  and  N_17
    5  A    between atoms: C_10  and  O_27
    6  A    between atoms: C_11  and  C_24
    7  A    between atoms: N_17  and  C_22
    8  A    between atoms: N_19  and  C_23
    9  A    between atoms: C_22  and  C_30
                            x       y       z     vdW  Elec       q    Type
                         _______ _______ _______ _____ _____    ______ ____

>  <TORSDO>
F 9

$$$$
=
 OpenBabel11042418293D

 30 32  0  0  1  0  0  0  0  0999 V2000
  192.0710  173.5620  144.6840 C   0  0  0  0  0  0  0  0  0  0  0  0
  191.9540  174.7230  145.5280 N   0  0  0  0  0  0  0  0  0  0  0  0
  192.8280  172.6170  145.0360 O   0  0  0  0  0  0  0  0  0  0  0  0
  190.1200  172.8090  143.3190 C   0  0  0  0  0  3  0  0  0  0  0  0
  191.3550  173.4700  143.3930 C   0  0  0  0  0  0  0  0  0  0  0  0
  189.9980  173.2440  140.9360 C   0  0  0  0  0  0  0  0  0  0  0  0
  191.9120  174.0050  142.2220 C   0  0  0  0  0  3  0  0  0  0  0  0
  191.2380  173.8980  141.0030 C   0  0  0  0  0  3  0  0  0  0  0  0
  189.4460  172.7010  142.1000 C   0  0  0  0  0  3  0  0  0  0  0  0
  188.4600  174.1470  139.2230 C   0  0  0  0  0  1  0  0  0  0  0  0
  189.2990  173.1190  139.7330 O   0  0  0  0  0  0  0  0  0  0  0  0
  190.6750  175.3090  145.8470 C   0  0  0  0  0  0  0  0  0  0  0  0
  188.5750  175.2620  147.0720 C   0  0  0  0  0  3  0  0  0  0  0  0
  189.8080  174.6850  146.7570 C   0  0  0  0  0  3  0  0  0  0  0  0
  189.0560  177.1050  145.5860 C   0  0  0  0  0  3  0  0  0  0  0  0
  188.1900  176.4770  146.4870 C   0  0  0  0  0  0  0  0  0  0  0  0
  190.2880  176.5290  145.2700 C   0  0  0  0  0  3  0  0  0  0  0  0
  185.7450  177.0610  145.9810 C   0  0  0  0  0  0  0  0  0  0  0  0
  185.7100  176.4150  144.9000 O   0  0  0  0  0  0  0  0  0  0  0  0
  186.9330  177.0980  146.7840 N   0  0  0  0  0  2  0  0  0  0  0  0
  184.8740  179.0250  146.9760 O   0  0  0  0  0  0  0  0  0  0  0  0
  184.3180  179.0190  145.6870 C   0  0  0  0  0  2  0  0  0  0  0  0
  184.5180  177.7680  146.4510 C   0  0  1  0  0  3  0  0  0  0  0  0
  193.1650  175.2430  146.1620 C   0  0  0  0  0  2  0  0  0  0  0  0
  193.5200  176.5430  144.2060 O   0  0  0  0  0  0  0  0  0  0  0  0
  194.0460  175.8940  145.1490 C   0  0  0  0  0  0  0  0  0  0  0  0
  195.4700  175.7420  145.2580 N   0  0  0  0  0  0  0  0  0  0  0  0
  196.2340  174.9310  144.5840 C   0  0  0  0  0  3  0  0  0  0  0  0
  195.3600  173.2800  142.7770 N   0  0  0  0  0  0  0  0  0  0  0  0
  195.7500  174.0160  143.5800 C   0  0  0  0  0  0  0  0  0  0  0  0
  1  3  2  0  0  0  0
  1  2  1  0  0  0  0
  2 12  1  0  0  0  0
  2 24  1  0  0  0  0
  4  5  1  0  0  0  0
  5  1  1  0  0  0  0
  6  8  2  0  0  0  0
  6  9  1  0  0  0  0
  7  5  2  0  0  0  0
  8  7  1  0  0  0  0
  9  4  2  0  0  0  0
 10 11  1  0  0  0  0
 11  6  1  0  0  0  0
 12 14  1  0  0  0  0
 14 13  2  0  0  0  0
 15 16  2  0  0  0  0
 16 20  1  0  0  0  0
 16 13  1  0  0  0  0
 17 15  1  0  0  0  0
 17 12  2  0  0  0  0
 18 20  1  0  0  0  0
 19 18  2  0  0  0  0
 22 23  1  0  0  0  0
 22 21  1  0  0  0  0
 23 18  1  6  0  0  0
 23 21  1  0  0  0  0
 25 26  2  0  0  0  0
 26 27  1  0  0  0  0
 26 24  1  0  0  0  0
 28 27  2  0  0  0  0
 29 30  3  0  0  0  0
 30 28  1  0  0  0  0
M  END
>  <MODEL>
4

>  <REMARK>
 VINA RESULT:      -5.8      0.516      1.329
  Name = 
  9 active torsions:
  status: ('A' for Active; 'I' for Inactive)
    1  A    between atoms: C_2  and  C_29
    2  A    between atoms: C_3  and  C_16
    3  A    between atoms: N_7  and  C_30
    4  A    between atoms: C_8  and  N_17
    5  A    between atoms: C_10  and  O_27
    6  A    between atoms: C_11  and  C_24
    7  A    between atoms: N_17  and  C_22
    8  A    between atoms: N_19  and  C_23
    9  A    between atoms: C_22  and  C_30
                            x       y       z     vdW  Elec       q    Type
                         _______ _______ _______ _____ _____    ______ ____

>  <TORSDO>
F 9

$$$$
=
 OpenBabel11042418293D

 30 32  0  0  1  0  0  0  0  0999 V2000
  191.0020  175.1590  146.7900 C   0  0  0  0  0  0  0  0  0  0  0  0
  189.7610  175.0890  146.0620 N   0  0  0  0  0  0  0  0  0  0  0  0
  190.9960  174.9750  148.0370 O   0  0  0  0  0  0  0  0  0  0  0  0
  193.3380  174.5630  146.1400 C   0  0  0  0  0  3  0  0  0  0  0  0
  192.2780  175.4800  146.1140 C   0  0  0  0  0  0  0  0  0  0  0  0
  194.7290  176.0930  144.8720 C   0  0  0  0  0  0  0  0  0  0  0  0
  192.4590  176.7140  145.4720 C   0  0  0  0  0  3  0  0  0  0  0  0
  193.6750  177.0180  144.8520 C   0  0  0  0  0  3  0  0  0  0  0  0
  194.5530  174.8660  145.5210 C   0  0  0  0  0  3  0  0  0  0  0  0
  196.1170  176.4130  142.8520 C   0  0  0  0  0  1  0  0  0  0  0  0
  195.9570  176.3650  144.2630 O   0  0  0  0  0  0  0  0  0  0  0  0
  189.6420  174.3580  144.8240 C   0  0  0  0  0  0  0  0  0  0  0  0
  189.2910  174.3180  142.4180 C   0  0  0  0  0  3  0  0  0  0  0  0
  189.3950  175.0290  143.6160 C   0  0  0  0  0  3  0  0  0  0  0  0
  189.6930  172.2530  143.6060 C   0  0  0  0  0  3  0  0  0  0  0  0
  189.4390  172.9240  142.4060 C   0  0  0  0  0  0  0  0  0  0  0  0
  189.7960  172.9630  144.8050 C   0  0  0  0  0  3  0  0  0  0  0  0
  190.3430  172.0170  140.1840 C   0  0  0  0  0  0  0  0  0  0  0  0
  191.4710  172.5650  140.3040 O   0  0  0  0  0  0  0  0  0  0  0  0
  189.3380  172.1600  141.1970 N   0  0  0  0  0  2  0  0  0  0  0  0
  191.2770  170.7100  138.4440 O   0  0  0  0  0  0  0  0  0  0  0  0
  190.5370  169.7890  139.2050 C   0  0  0  0  0  2  0  0  0  0  0  0
  190.0630  171.1730  138.9850 C   0  0  1  0  0  3  0  0  0  0  0  0
  188.5710  175.6880  146.6640 C   0  0  0  0  0  2  0  0  0  0  0  0
  189.1980  177.9000  147.2630 O   0  0  0  0  0  0  0  0  0  0  0  0
  188.5680  177.1650  146.4560 C   0  0  0  0  0  0  0  0  0  0  0  0
  187.8240  177.7170  145.3590 N   0  0  0  0  0  0  0  0  0  0  0  0
  186.6280  178.2330  145.3910 C   0  0  0  0  0  3  0  0  0  0  0  0
  185.1880  178.4190  147.5470 N   0  0  0  0  0  0  0  0  0  0  0  0
  185.8280  178.3360  146.5860 C   0  0  0  0  0  0  0  0  0  0  0  0
  1  3  2  0  0  0  0
  2 24  1  0  0  0  0
  2  1  1  0  0  0  0
  5  4  1  0  0  0  0
  5  1  1  0  0  0  0
  6  9  1  0  0  0  0
  7  5  2  0  0  0  0
  8  6  2  0  0  0  0
  8  7  1  0  0  0  0
  9  4  2  0  0  0  0
 10 11  1  0  0  0  0
 11  6  1  0  0  0  0
 12  2  1  0  0  0  0
 13 14  1  0  0  0  0
 14 12  2  0  0  0  0
 15 17  2  0  0  0  0
 16 13  2  0  0  0  0
 16 15  1  0  0  0  0
 17 12  1  0  0  0  0
 18 19  2  0  0  0  0
 18 20  1  0  0  0  0
 20 16  1  0  0  0  0
 21 23  1  0  0  0  0
 21 22  1  0  0  0  0
 23 22  1  0  0  0  0
 23 18  1  1  0  0  0
 26 24  1  0  0  0  0
 26 25  2  0  0  0  0
 27 28  2  0  0  0  0
 27 26  1  0  0  0  0
 28 30  1  0  0  0  0
 30 29  3  0  0  0  0
M  END
>  <MODEL>
5

>  <REMARK>
 VINA RESULT:      -5.6      2.588      7.449
  Name = 
  9 active torsions:
  status: ('A' for Active; 'I' for Inactive)
    1  A    between atoms: C_2  and  C_29
    2  A    between atoms: C_3  and  C_16
    3  A    between atoms: N_7  and  C_30
    4  A    between atoms: C_8  and  N_17
    5  A    between atoms: C_10  and  O_27
    6  A    between atoms: C_11  and  C_24
    7  A    between atoms: N_17  and  C_22
    8  A    between atoms: N_19  and  C_23
    9  A    between atoms: C_22  and  C_30
                            x       y       z     vdW  Elec       q    Type
                         _______ _______ _______ _____ _____    ______ ____

>  <TORSDO>
F 9

$$$$
=
 OpenBabel11042418293D

 30 32  0  0  1  0  0  0  0  0999 V2000
  189.7910  176.8590  145.7930 C   0  0  0  0  0  0  0  0  0  0  0  0
  190.3280  175.5240  145.7380 N   0  0  0  0  0  0  0  0  0  0  0  0
  190.5050  177.7920  146.2500 O   0  0  0  0  0  0  0  0  0  0  0  0
  187.3210  176.6680  146.1080 C   0  0  0  0  0  3  0  0  0  0  0  0
  188.4060  177.1530  145.3640 C   0  0  0  0  0  0  0  0  0  0  0  0
  185.7640  177.6640  144.5380 C   0  0  0  0  0  0  0  0  0  0  0  0
  188.1580  177.8850  144.1940 C   0  0  0  0  0  3  0  0  0  0  0  0
  186.8460  178.1420  143.7840 C   0  0  0  0  0  3  0  0  0  0  0  0
  186.0100  176.9250  145.6990 C   0  0  0  0  0  3  0  0  0  0  0  0
  184.0840  178.3100  142.8420 C   0  0  0  0  0  1  0  0  0  0  0  0
  184.4410  177.9030  144.1560 O   0  0  0  0  0  0  0  0  0  0  0  0
  190.1890  174.6920  144.5670 C   0  0  0  0  0  0  0  0  0  0  0  0
  189.5520  172.5860  143.5340 C   0  0  0  0  0  3  0  0  0  0  0  0
  189.6940  173.3840  144.6720 C   0  0  0  0  0  3  0  0  0  0  0  0
  190.3800  174.3930  142.1610 C   0  0  0  0  0  3  0  0  0  0  0  0
  189.8950  173.0860  142.2700 C   0  0  0  0  0  0  0  0  0  0  0  0
  190.5250  175.1910  143.2980 C   0  0  0  0  0  3  0  0  0  0  0  0
  190.8050  171.5740  140.4090 C   0  0  0  0  0  0  0  0  0  0  0  0
  191.9810  171.5560  140.8620 O   0  0  0  0  0  0  0  0  0  0  0  0
  189.7640  172.2980  141.0800 N   0  0  0  0  0  2  0  0  0  0  0  0
  189.3110  171.3140  138.5910 O   0  0  0  0  0  0  0  0  0  0  0  0
  190.5240  171.6800  137.9860 C   0  0  0  0  0  2  0  0  0  0  0  0
  190.4830  170.8000  139.1750 C   0  0  1  0  0  3  0  0  0  0  0  0
  191.1300  175.0530  146.8670 C   0  0  0  0  0  2  0  0  0  0  0  0
  193.0810  173.9210  146.1220 O   0  0  0  0  0  0  0  0  0  0  0  0
  192.5740  175.0120  146.4990 C   0  0  0  0  0  0  0  0  0  0  0  0
  193.3600  176.2090  146.6100 N   0  0  0  0  0  0  0  0  0  0  0  0
  193.9940  176.8330  145.6580 C   0  0  0  0  0  3  0  0  0  0  0  0
  194.0180  176.0500  143.1790 N   0  0  0  0  0  0  0  0  0  0  0  0
  194.0090  176.3990  144.2830 C   0  0  0  0  0  0  0  0  0  0  0  0
  1  3  2  0  0  0  0
  2  1  1  0  0  0  0
  2 24  1  0  0  0  0
  5  1  1  0  0  0  0
  5  4  2  0  0  0  0
  6  9  2  0  0  0  0
  7  5  1  0  0  0  0
  8  7  2  0  0  0  0
  8  6  1  0  0  0  0
  9  4  1  0  0  0  0
 10 11  1  0  0  0  0
 11  6  1  0  0  0  0
 12 14  1  0  0  0  0
 12  2  1  0  0  0  0
 13 14  2  0  0  0  0
 15 16  2  0  0  0  0
 15 17  1  0  0  0  0
 16 13  1  0  0  0  0
 17 12  2  0  0  0  0
 18 19  2  0  0  0  0
 18 20  1  0  0  0  0
 20 16  1  0  0  0  0
 21 23  1  0  0  0  0
 22 21  1  0  0  0  0
 22 23  1  0  0  0  0
 23 18  1  1  0  0  0
 25 26  2  0  0  0  0
 26 27  1  0  0  0  0
 26 24  1  0  0  0  0
 28 27  2  0  0  0  0
 29 30  3  0  0  0  0
 30 28  1  0  0  0  0
M  END
>  <MODEL>
6

>  <REMARK>
 VINA RESULT:      -5.5      2.167      6.515
  Name = 
  9 active torsions:
  status: ('A' for Active; 'I' for Inactive)
    1  A    between atoms: C_2  and  C_29
    2  A    between atoms: C_3  and  C_16
    3  A    between atoms: N_7  and  C_30
    4  A    between atoms: C_8  and  N_17
    5  A    between atoms: C_10  and  O_27
    6  A    between atoms: C_11  and  C_24
    7  A    between atoms: N_17  and  C_22
    8  A    between atoms: N_19  and  C_23
    9  A    between atoms: C_22  and  C_30
                            x       y       z     vdW  Elec       q    Type
                         _______ _______ _______ _____ _____    ______ ____

>  <TORSDO>
F 9

$$$$
=
 OpenBabel11042418293D

 30 32  0  0  1  0  0  0  0  0999 V2000
  191.3270  176.1390  146.3550 C   0  0  0  0  0  0  0  0  0  0  0  0
  190.1880  176.2320  145.4780 N   0  0  0  0  0  0  0  0  0  0  0  0
  191.1540  176.2140  147.6020 O   0  0  0  0  0  0  0  0  0  0  0  0
  193.1280  176.8020  144.7570 C   0  0  0  0  0  3  0  0  0  0  0  0
  192.7010  176.0000  145.8250 C   0  0  0  0  0  0  0  0  0  0  0  0
  195.2960  175.7170  144.7710 C   0  0  0  0  0  0  0  0  0  0  0  0
  193.5810  175.0430  146.3520 C   0  0  0  0  0  3  0  0  0  0  0  0
  194.8710  174.9040  145.8330 C   0  0  0  0  0  3  0  0  0  0  0  0
  194.4170  176.6640  144.2370 C   0  0  0  0  0  3  0  0  0  0  0  0
  197.0630  176.4750  143.2160 C   0  0  0  0  0  1  0  0  0  0  0  0
  196.5790  175.6030  144.2280 O   0  0  0  0  0  0  0  0  0  0  0  0
  189.9980  175.3210  144.3750 C   0  0  0  0  0  0  0  0  0  0  0  0
  189.7150  173.0610  143.5260 C   0  0  0  0  0  3  0  0  0  0  0  0
  189.9110  173.9380  144.5960 C   0  0  0  0  0  3  0  0  0  0  0  0
  189.6740  174.9300  141.9970 C   0  0  0  0  0  3  0  0  0  0  0  0
  189.5960  173.5520  142.2180 C   0  0  0  0  0  0  0  0  0  0  0  0
  189.8710  175.8090  143.0650 C   0  0  0  0  0  3  0  0  0  0  0  0
  190.4120  172.0180  140.3320 C   0  0  0  0  0  0  0  0  0  0  0  0
  191.6320  172.1360  140.6290 O   0  0  0  0  0  0  0  0  0  0  0  0
  189.3960  172.6830  141.0960 N   0  0  0  0  0  2  0  0  0  0  0  0
  189.0250  171.7860  138.4270 O   0  0  0  0  0  0  0  0  0  0  0  0
  190.3270  171.8030  137.9020 C   0  0  0  0  0  2  0  0  0  0  0  0
  190.0180  171.1430  139.1900 C   0  0  1  0  0  3  0  0  0  0  0  0
  189.1480  177.2100  145.7960 C   0  0  0  0  0  2  0  0  0  0  0  0
  187.8490  175.7490  147.1460 O   0  0  0  0  0  0  0  0  0  0  0  0
  187.8740  176.5200  146.1490 C   0  0  0  0  0  0  0  0  0  0  0  0
  186.7140  176.7280  145.3280 N   0  0  0  0  0  0  0  0  0  0  0  0
  185.7640  177.6030  145.5040 C   0  0  0  0  0  3  0  0  0  0  0  0
  185.6970  179.2930  147.4780 N   0  0  0  0  0  0  0  0  0  0  0  0
  185.7260  178.5390  146.6000 C   0  0  0  0  0  0  0  0  0  0  0  0
  1  3  2  0  0  0  0
  2 24  1  0  0  0  0
  2  1  1  0  0  0  0
  4  5  1  0  0  0  0
  5  7  2  0  0  0  0
  5  1  1  0  0  0  0
  6  8  2  0  0  0  0
  8  7  1  0  0  0  0
  9  4  2  0  0  0  0
  9  6  1  0  0  0  0
 10 11  1  0  0  0  0
 11  6  1  0  0  0  0
 12 14  1  0  0  0  0
 12  2  1  0  0  0  0
 13 14  2  0  0  0  0
 15 16  2  0  0  0  0
 15 17  1  0  0  0  0
 16 13  1  0  0  0  0
 17 12  2  0  0  0  0
 18 19  2  0  0  0  0
 18 20  1  0  0  0  0
 20 16  1  0  0  0  0
 21 23  1  0  0  0  0
 22 21  1  0  0  0  0
 22 23  1  0  0  0  0
 23 18  1  1  0  0  0
 24 26  1  0  0  0  0
 26 25  2  0  0  0  0
 27 28  2  0  0  0  0
 27 26  1  0  0  0  0
 28 30  1  0  0  0  0
 30 29  3  0  0  0  0
M  END
>  <MODEL>
7

>  <REMARK>
 VINA RESULT:      -5.5      2.479      7.500
  Name = 
  9 active torsions:
  status: ('A' for Active; 'I' for Inactive)
    1  A    between atoms: C_2  and  C_29
    2  A    between atoms: C_3  and  C_16
    3  A    between atoms: N_7  and  C_30
    4  A    between atoms: C_8  and  N_17
    5  A    between atoms: C_10  and  O_27
    6  A    between atoms: C_11  and  C_24
    7  A    between atoms: N_17  and  C_22
    8  A    between atoms: N_19  and  C_23
    9  A    between atoms: C_22  and  C_30
                            x       y       z     vdW  Elec       q    Type
                         _______ _______ _______ _____ _____    ______ ____

>  <TORSDO>
F 9

$$$$
=
 OpenBabel11042418293D

 30 32  0  0  1  0  0  0  0  0999 V2000
  188.9800  177.1500  144.1240 C   0  0  0  0  0  0  0  0  0  0  0  0
  189.7110  177.0620  145.3620 N   0  0  0  0  0  0  0  0  0  0  0  0
  188.3980  178.2280  143.8270 O   0  0  0  0  0  0  0  0  0  0  0  0
  189.1940  174.7050  143.6620 C   0  0  0  0  0  3  0  0  0  0  0  0
  188.8620  175.9920  143.2120 C   0  0  0  0  0  0  0  0  0  0  0  0
  188.6890  173.7810  141.4770 C   0  0  0  0  0  0  0  0  0  0  0  0
  188.4570  176.1640  141.8800 C   0  0  0  0  0  3  0  0  0  0  0  0
  188.3670  175.0670  141.0190 C   0  0  0  0  0  3  0  0  0  0  0  0
  189.1040  173.6080  142.8020 C   0  0  0  0  0  3  0  0  0  0  0  0
  188.6550  172.7600  139.2250 C   0  0  0  0  0  1  0  0  0  0  0  0
  188.6100  172.6630  140.6420 O   0  0  0  0  0  0  0  0  0  0  0  0
  191.0330  176.4860  145.4290 C   0  0  0  0  0  0  0  0  0  0  0  0
  193.3270  176.3630  144.6340 C   0  0  0  0  0  3  0  0  0  0  0  0
  192.0460  176.9150  144.5580 C   0  0  0  0  0  3  0  0  0  0  0  0
  192.6140  174.9530  146.4610 C   0  0  0  0  0  3  0  0  0  0  0  0
  193.6190  175.3770  145.5860 C   0  0  0  0  0  0  0  0  0  0  0  0
  191.3320  175.5030  146.3860 C   0  0  0  0  0  3  0  0  0  0  0  0
  195.4400  173.7020  144.9090 C   0  0  0  0  0  0  0  0  0  0  0  0
  194.7550  173.1760  143.9920 O   0  0  0  0  0  0  0  0  0  0  0  0
  194.9210  174.7860  145.6930 N   0  0  0  0  0  2  0  0  0  0  0  0
  197.1590  173.4150  146.5110 O   0  0  0  0  0  0  0  0  0  0  0  0
  196.8180  172.1050  146.1380 C   0  0  0  0  0  2  0  0  0  0  0  0
  196.8280  173.2150  145.1580 C   0  0  1  0  0  3  0  0  0  0  0  0
  189.1310  177.6780  146.5540 C   0  0  0  0  0  2  0  0  0  0  0  0
  187.8160  175.7300  146.8960 O   0  0  0  0  0  0  0  0  0  0  0  0
  187.8640  176.9890  146.9340 C   0  0  0  0  0  0  0  0  0  0  0  0
  186.7220  177.7760  147.3060 N   0  0  0  0  0  0  0  0  0  0  0  0
  185.6610  178.0210  146.5910 C   0  0  0  0  0  3  0  0  0  0  0  0
  185.2970  177.1210  144.1800 N   0  0  0  0  0  0  0  0  0  0  0  0
  185.4580  177.5200  145.2540 C   0  0  0  0  0  0  0  0  0  0  0  0
  1  2  1  0  0  0  0
  2 12  1  0  0  0  0
  2 24  1  0  0  0  0
  3  1  2  0  0  0  0
  5  4  1  0  0  0  0
  5  1  1  0  0  0  0
  6  9  1  0  0  0  0
  7  5  2  0  0  0  0
  8  6  2  0  0  0  0
  8  7  1  0  0  0  0
  9  4  2  0  0  0  0
 10 11  1  0  0  0  0
 11  6  1  0  0  0  0
 12 17  1  0  0  0  0
 13 16  2  0  0  0  0
 14 13  1  0  0  0  0
 14 12  2  0  0  0  0
 16 20  1  0  0  0  0
 16 15  1  0  0  0  0
 17 15  2  0  0  0  0
 18 20  1  0  0  0  0
 19 18  2  0  0  0  0
 22 21  1  0  0  0  0
 23 18  1  1  0  0  0
 23 22  1  0  0  0  0
 23 21  1  0  0  0  0
 24 26  1  0  0  0  0
 25 26  2  0  0  0  0
 26 27  1  0  0  0  0
 28 27  2  0  0  0  0
 29 30  3  0  0  0  0
 30 28  1  0  0  0  0
M  END
>  <MODEL>
8

>  <REMARK>
 VINA RESULT:      -5.4      2.160      7.323
  Name = 
  9 active torsions:
  status: ('A' for Active; 'I' for Inactive)
    1  A    between atoms: C_2  and  C_29
    2  A    between atoms: C_3  and  C_16
    3  A    between atoms: N_7  and  C_30
    4  A    between atoms: C_8  and  N_17
    5  A    between atoms: C_10  and  O_27
    6  A    between atoms: C_11  and  C_24
    7  A    between atoms: N_17  and  C_22
    8  A    between atoms: N_19  and  C_23
    9  A    between atoms: C_22  and  C_30
                            x       y       z     vdW  Elec       q    Type
                         _______ _______ _______ _____ _____    ______ ____

>  <TORSDO>
F 9

$$$$
=
 OpenBabel11042418293D

 30 32  0  0  1  0  0  0  0  0999 V2000
  187.4070  177.3060  141.6240 C   0  0  0  0  0  0  0  0  0  0  0  0
  187.7310  177.7650  142.9500 N   0  0  0  0  0  0  0  0  0  0  0  0
  186.7980  178.0780  140.8350 O   0  0  0  0  0  0  0  0  0  0  0  0
  187.8950  175.6550  139.8140 C   0  0  0  0  0  3  0  0  0  0  0  0
  187.7380  175.9340  141.1800 C   0  0  0  0  0  0  0  0  0  0  0  0
  188.3220  173.3210  140.3110 C   0  0  0  0  0  0  0  0  0  0  0  0
  187.8620  174.8890  142.1070 C   0  0  0  0  0  3  0  0  0  0  0  0
  188.1560  173.5920  141.6780 C   0  0  0  0  0  3  0  0  0  0  0  0
  188.1880  174.3590  139.3840 C   0  0  0  0  0  3  0  0  0  0  0  0
  189.9350  171.6230  139.5170 C   0  0  0  0  0  1  0  0  0  0  0  0
  188.6160  172.0350  139.8490 O   0  0  0  0  0  0  0  0  0  0  0  0
  189.0360  177.5640  143.5320 C   0  0  0  0  0  0  0  0  0  0  0  0
  190.4350  176.9550  145.4240 C   0  0  0  0  0  3  0  0  0  0  0  0
  189.1700  177.1590  144.8680 C   0  0  0  0  0  3  0  0  0  0  0  0
  191.4580  177.5410  143.3150 C   0  0  0  0  0  3  0  0  0  0  0  0
  191.5890  177.1450  144.6500 C   0  0  0  0  0  0  0  0  0  0  0  0
  190.1940  177.7470  142.7590 C   0  0  0  0  0  3  0  0  0  0  0  0
  193.5360  175.6910  145.4700 C   0  0  0  0  0  0  0  0  0  0  0  0
  192.9530  174.6000  145.2290 O   0  0  0  0  0  0  0  0  0  0  0  0
  192.9040  176.9470  145.1850 N   0  0  0  0  0  2  0  0  0  0  0  0
  195.4660  174.3840  145.8870 O   0  0  0  0  0  0  0  0  0  0  0  0
  195.8990  175.3500  144.9630 C   0  0  0  0  0  2  0  0  0  0  0  0
  194.9200  175.6750  146.0250 C   0  0  1  0  0  3  0  0  0  0  0  0
  186.7330  178.5550  143.6710 C   0  0  0  0  0  2  0  0  0  0  0  0
  185.8420  176.4240  144.2250 O   0  0  0  0  0  0  0  0  0  0  0  0
  185.6620  177.6710  144.2160 C   0  0  0  0  0  0  0  0  0  0  0  0
  184.4420  178.2600  144.6920 N   0  0  0  0  0  0  0  0  0  0  0  0
  184.1500  178.6010  145.9150 C   0  0  0  0  0  3  0  0  0  0  0  0
  185.7620  178.2950  147.9310 N   0  0  0  0  0  0  0  0  0  0  0  0
  185.0450  178.4330  147.0330 C   0  0  0  0  0  0  0  0  0  0  0  0
  1  2  1  0  0  0  0
  2 12  1  0  0  0  0
  2 24  1  0  0  0  0
  3  1  2  0  0  0  0
  4  5  1  0  0  0  0
  5  1  1  0  0  0  0
  5  7  2  0  0  0  0
  6  8  2  0  0  0  0
  8  7  1  0  0  0  0
  9  4  2  0  0  0  0
  9  6  1  0  0  0  0
 10 11  1  0  0  0  0
 11  6  1  0  0  0  0
 12 14  1  0  0  0  0
 14 13  2  0  0  0  0
 15 16  2  0  0  0  0
 16 20  1  0  0  0  0
 16 13  1  0  0  0  0
 17 15  1  0  0  0  0
 17 12  2  0  0  0  0
 19 18  2  0  0  0  0
 20 18  1  0  0  0  0
 21 23  1  0  0  0  0
 22 21  1  0  0  0  0
 22 23  1  0  0  0  0
 23 18  1  6  0  0  0
 24 26  1  0  0  0  0
 26 25  2  0  0  0  0
 26 27  1  0  0  0  0
 27 28  2  0  0  0  0
 28 30  1  0  0  0  0
 30 29  3  0  0  0  0
M  END
>  <MODEL>
9

>  <REMARK>
 VINA RESULT:      -5.3      2.330      7.436
  Name = 
  9 active torsions:
  status: ('A' for Active; 'I' for Inactive)
    1  A    between atoms: C_2  and  C_29
    2  A    between atoms: C_3  and  C_16
    3  A    between atoms: N_7  and  C_30
    4  A    between atoms: C_8  and  N_17
    5  A    between atoms: C_10  and  O_27
    6  A    between atoms: C_11  and  C_24
    7  A    between atoms: N_17  and  C_22
    8  A    between atoms: N_19  and  C_23
    9  A    between atoms: C_22  and  C_30
                            x       y       z     vdW  Elec       q    Type
                         _______ _______ _______ _____ _____    ______ ____

>  <TORSDO>
F 9

$$$$
