=
 OpenBabel11042416053D

 64 69  0  0  1  0  0  0  0  0999 V2000
  189.2600  175.5370  146.8350 C   0  0  2  0  0  3  0  0  0  0  0  0
  184.8220  178.1020  147.1000 C   0  0  0  0  0  2  0  0  0  0  0  0
  186.9330  176.9870  147.7380 C   0  0  0  0  0  3  0  0  0  0  0  0
  185.5760  178.6880  145.9110 C   0  0  0  0  0  2  0  0  0  0  0  0
  185.7860  177.5550  148.1130 C   0  0  0  0  0  3  0  0  0  0  0  0
  186.4750  177.6250  145.2730 C   0  0  2  0  0  3  0  0  0  0  0  0
  187.3310  176.9370  146.3110 C   0  0  0  0  0  0  0  0  0  0  0  0
  188.3620  176.2440  145.9250 N   0  0  0  0  0  0  0  0  0  0  0  0
  187.2840  178.2380  144.3110 O   0  0  0  0  0  0  0  0  0  0  0  0
  186.5550  178.1810  143.1190 C   0  0  0  0  0  2  0  0  0  0  0  0
  186.3730  176.7350  142.6620 C   0  0  0  0  0  2  0  0  0  0  0  0
  187.4870  174.6540  141.9980 C   0  0  0  0  0  1  0  0  0  0  0  0
  187.3620  176.4570  140.3570 C   0  0  0  0  0  1  0  0  0  0  0  0
  187.5330  176.1570  141.8380 C   0  0  0  0  0  0  0  0  0  0  0  0
  189.2630  177.9360  141.8260 N   0  0  0  0  0  1  0  0  0  0  0  0
  188.9030  176.6240  142.3470 C   0  0  0  0  0  2  0  0  0  0  0  0
  190.5410  176.2990  147.0120 C   0  0  0  0  0  0  0  0  0  0  0  0
  190.5360  177.4260  147.4860 O   0  0  0  0  0  0  0  0  0  0  0  0
  191.8380  175.6360  146.6700 C   0  0  0  0  0  2  0  0  0  0  0  0
  192.6240  176.4330  145.2820 S   0  0  0  0  0  0  0  0  0  0  0  0
  193.6470  177.4150  145.7820 O   0  0  0  0  0  0  0  0  0  0  0  0
  191.5880  177.1600  144.4680 O   0  0  0  0  0  0  0  0  0  0  0  0
  194.9300  175.1940  144.5860 C   0  0  0  0  0  2  0  0  0  0  0  0
  194.3890  175.8080  143.3080 C   0  0  2  0  0  3  0  0  0  0  0  0
  193.4430  175.1760  144.3130 C   0  0  2  0  0  3  0  0  0  0  0  0
  195.4400  173.9640  142.2270 O   0  0  0  0  0  0  0  0  0  0  0  0
  193.7580  175.0090  140.9890 N   0  0  0  0  0  2  0  0  0  0  0  0
  194.5770  174.8800  142.1540 C   0  0  0  0  0  0  0  0  0  0  0  0
  192.9200  173.5500  136.6400 C   0  0  0  0  0  2  0  0  0  0  0  0
  192.6980  172.5990  138.8950 O   0  0  0  0  0  0  0  0  0  0  0  0
  194.9390  174.9220  138.5840 S   0  0  0  0  0  0  0  0  0  0  0  0
  195.2370  173.3390  137.7220 C   0  0  1  0  0  3  0  0  0  0  0  0
  192.6240  173.8530  139.3090 O   0  0  0  0  0  0  0  0  0  0  0  0
  192.1990  172.5620  137.5730 C   0  0  1  0  0  3  0  0  0  0  0  0
  194.4060  173.2300  136.4400 C   0  0  1  0  0  3  0  0  0  0  0  0
  194.5470  171.9610  135.8740 O   0  0  0  0  0  1  0  0  0  0  0  0
  193.8900  174.1270  139.8410 C   0  0  2  0  0  3  0  0  0  0  0  0
  188.5750  172.8070  138.8790 C   0  0  0  0  0  2  0  0  0  0  0  0
  190.6800  172.7640  137.5430 C   0  0  1  0  0  3  0  0  0  0  0  0
  190.1010  172.7640  138.9580 C   0  0  0  0  0  2  0  0  0  0  0  0
  188.8680  174.4360  137.0050 C   0  0  0  0  0  3  0  0  0  0  0  0
  188.0840  173.8860  137.9460 C   0  0  0  0  0  3  0  0  0  0  0  0
  190.3320  174.0990  136.8760 C   0  0  0  0  0  2  0  0  0  0  0  0
  196.7160  173.2040  137.3930 C   0  0  0  0  0  2  0  0  0  0  0  0
  197.4550  174.4780  137.7580 C   0  0  0  0  0  1  0  0  0  0  0  0
  189.4910  174.0980  146.3780 C   0  0  0  0  0  2  0  0  0  0  0  0
  189.8030  173.9980  144.8880 C   0  0  0  0  0  2  0  0  0  0  0  0
  189.6520  172.5580  144.4340 C   0  0  0  0  0  2  0  0  0  0  0  0
  190.9740  169.6620  141.0360 C   0  0  0  0  0  3  0  0  0  0  0  0
  190.9130  172.0150  143.8370 C   0  0  0  0  0  0  0  0  0  0  0  0
  192.3780  169.7610  140.7170 N   0  0  0  0  0  0  0  0  0  0  0  0
  194.6220  170.6100  141.0160 C   0  0  0  0  0  1  0  0  0  0  0  0
  193.0550  171.6030  143.6320 C   0  0  1  0  0  3  0  0  0  0  0  0
  193.1700  170.5790  141.3480 C   0  0  0  0  0  0  0  0  0  0  0  0
  191.1350  171.7410  142.3780 C   0  0  1  0  0  3  0  0  0  0  0  0
  192.5930  171.4340  142.3990 C   0  0  1  0  0  3  0  0  0  0  0  0
  190.3800  170.5450  141.8550 C   0  0  0  0  0  3  0  0  0  0  0  0
  192.0130  171.9860  144.5170 N   0  0  0  0  0  0  0  0  0  0  0  0
  194.3960  171.1670  144.1200 C   0  0  0  0  0  2  0  0  0  0  0  0
  194.5960  171.6190  145.5570 C   0  0  0  0  0  2  0  0  0  0  0  0
  196.7780  172.1640  144.7640 O   0  0  0  0  0  1  0  0  0  0  0  0
  196.0780  171.7090  145.8830 C   0  0  2  0  0  3  0  0  0  0  0  0
  195.6280  169.5720  146.8920 O   0  0  0  0  0  1  0  0  0  0  0  0
  196.6350  170.3630  146.3340 C   0  0  0  0  0  2  0  0  0  0  0  0
  1 46  1  6  0  0  0
  1 17  1  0  0  0  0
  2  5  1  0  0  0  0
  3  5  2  0  0  0  0
  4  2  1  0  0  0  0
  6  9  1  6  0  0  0
  6  4  1  0  0  0  0
  6  7  1  0  0  0  0
  7  3  1  0  0  0  0
  8  7  2  0  0  0  0
  8  1  1  0  0  0  0
 10  9  1  0  0  0  0
 11 10  1  0  0  0  0
 13 14  1  0  0  0  0
 14 12  1  0  0  0  0
 14 16  1  0  0  0  0
 14 11  1  0  0  0  0
 15 16  1  0  0  0  0
 17 18  2  0  0  0  0
 19 17  1  0  0  0  0
 20 21  2  0  0  0  0
 20 19  1  0  0  0  0
 22 20  2  0  0  0  0
 24 28  1  6  0  0  0
 24 25  1  0  0  0  0
 24 23  1  0  0  0  0
 25 23  1  0  0  0  0
 25 20  1  1  0  0  0
 27 28  1  0  0  0  0
 28 26  2  0  0  0  0
 30 33  1  0  0  0  0
 31 37  1  0  0  0  0
 32 44  1  6  0  0  0
 32 31  1  0  0  0  0
 33 37  1  0  0  0  0
 34 29  1  6  0  0  0
 34 30  1  0  0  0  0
 35 36  1  1  0  0  0
 35 29  1  0  0  0  0
 35 32  1  0  0  0  0
 37 27  1  1  0  0  0
 38 40  1  0  0  0  0
 39 43  1  1  0  0  0
 39 34  1  0  0  0  0
 39 40  1  0  0  0  0
 41 42  2  0  0  0  0
 42 38  1  0  0  0  0
 43 41  1  0  0  0  0
 44 45  1  0  0  0  0
 47 46  1  0  0  0  0
 48 47  1  0  0  0  0
 49 57  2  0  0  0  0
 50 48  1  0  0  0  0
 50 58  2  0  0  0  0
 51 49  1  0  0  0  0
 51 54  2  0  0  0  0
 52 54  1  0  0  0  0
 53 59  1  1  0  0  0
 53 58  1  0  0  0  0
 55 57  1  1  0  0  0
 55 56  1  0  0  0  0
 55 50  1  0  0  0  0
 56 54  1  1  0  0  0
 56 53  1  0  0  0  0
 59 60  1  0  0  0  0
 60 62  1  0  0  0  0
 62 61  1  6  0  0  0
 62 64  1  0  0  0  0
 64 63  1  0  0  0  0
M  END
>  <MODEL>
1

>  <REMARK>
 VINA RESULT:      -6.3      0.000      0.000
  Name = 
  22 active torsions:
  status: ('A' for Active; 'I' for Inactive)
    1  A    between atoms: C_5  and  C_40
    2  A    between atoms: C_7  and  C_8
    3  A    between atoms: C_7  and  C_43
    4  A    between atoms: C_8  and  C_33
    5  A    between atoms: C_9  and  C_43
    6  A    between atoms: C_9  and  C_53
    7  A    between atoms: S_13  and  C_53
    8  A    between atoms: S_13  and  C_63
    9  A    between atoms: C_14  and  C_38
   10  A    between atoms: C_16  and  C_34
   11  A    between atoms: C_16  and  O_56
   12  A    between atoms: C_20  and  C_33
   13  A    between atoms: N_21  and  C_59
   14  A    between atoms: C_25  and  C_27
   15  A    between atoms: C_30  and  C_35
   16  A    between atoms: C_34  and  C_45
   17  A    between atoms: C_35  and  C_47
   18  A    between atoms: C_43  and  N_60
   19  A    between atoms: C_44  and  C_45
   20  A    between atoms: C_47  and  C_57
   21  A    between atoms: C_50  and  O_56
   22  A    between atoms: C_54  and  C_57
                            x       y       z     vdW  Elec       q    Type
                         _______ _______ _______ _____ _____    ______ ____

>  <TORSDO>
F 22

$$$$
=
 OpenBabel11042416053D

 64 69  0  0  1  0  0  0  0  0999 V2000
  189.8220  175.7980  146.5520 C   0  0  2  0  0  3  0  0  0  0  0  0
  184.9880  177.5240  146.5420 C   0  0  0  0  0  2  0  0  0  0  0  0
  187.1870  176.6980  147.3110 C   0  0  0  0  0  3  0  0  0  0  0  0
  185.7460  178.3890  145.5410 C   0  0  0  0  0  2  0  0  0  0  0  0
  185.9210  177.0080  147.5990 C   0  0  0  0  0  3  0  0  0  0  0  0
  186.8870  177.5920  144.9020 C   0  0  2  0  0  3  0  0  0  0  0  0
  187.7370  176.9170  145.9530 C   0  0  0  0  0  0  0  0  0  0  0  0
  188.9130  176.4670  145.6240 N   0  0  0  0  0  0  0  0  0  0  0  0
  187.6690  178.4610  144.1350 O   0  0  0  0  0  0  0  0  0  0  0  0
  186.8110  178.9680  143.1540 C   0  0  0  0  0  2  0  0  0  0  0  0
  187.2540  178.5250  141.7620 C   0  0  0  0  0  2  0  0  0  0  0  0
  186.6270  177.4370  139.6550 C   0  0  0  0  0  1  0  0  0  0  0  0
  186.9970  176.0190  141.6080 C   0  0  0  0  0  1  0  0  0  0  0  0
  186.4510  177.3640  141.1550 C   0  0  0  0  0  0  0  0  0  0  0  0
  184.2830  178.3890  140.5160 N   0  0  0  0  0  1  0  0  0  0  0  0
  184.9480  177.4810  141.4400 C   0  0  0  0  0  2  0  0  0  0  0  0
  191.1970  176.3940  146.4670 C   0  0  0  0  0  0  0  0  0  0  0  0
  191.8630  176.5730  147.4760 O   0  0  0  0  0  0  0  0  0  0  0  0
  191.7780  176.6990  145.1210 C   0  0  0  0  0  2  0  0  0  0  0  0
  193.4270  176.0410  144.9660 S   0  0  0  0  0  0  0  0  0  0  0  0
  193.4990  174.7050  145.6530 O   0  0  0  0  0  0  0  0  0  0  0  0
  194.4080  176.9860  145.6070 O   0  0  0  0  0  0  0  0  0  0  0  0
  192.4870  175.6880  142.4500 C   0  0  0  0  0  2  0  0  0  0  0  0
  193.3180  174.4560  142.7570 C   0  0  2  0  0  3  0  0  0  0  0  0
  193.7760  175.8250  143.2280 C   0  0  2  0  0  3  0  0  0  0  0  0
  195.2190  173.4540  141.7290 O   0  0  0  0  0  0  0  0  0  0  0  0
  193.6280  174.3060  140.2470 N   0  0  0  0  0  2  0  0  0  0  0  0
  194.1210  174.0500  141.5650 C   0  0  0  0  0  0  0  0  0  0  0  0
  194.1070  172.7920  135.8630 C   0  0  0  0  0  2  0  0  0  0  0  0
  194.9100  172.0810  138.0730 O   0  0  0  0  0  0  0  0  0  0  0  0
  194.2090  175.2360  137.8010 S   0  0  0  0  0  0  0  0  0  0  0  0
  195.6350  174.6010  136.8500 C   0  0  1  0  0  3  0  0  0  0  0  0
  193.8550  172.7180  138.5520 O   0  0  0  0  0  0  0  0  0  0  0  0
  194.5820  171.6450  136.7690 C   0  0  1  0  0  3  0  0  0  0  0  0
  195.1840  173.8480  135.5940 C   0  0  1  0  0  3  0  0  0  0  0  0
  196.2800  173.2590  134.9610 O   0  0  0  0  0  1  0  0  0  0  0  0
  194.3630  173.9230  139.0520 C   0  0  2  0  0  3  0  0  0  0  0  0
  191.2350  169.7820  136.2970 C   0  0  0  0  0  2  0  0  0  0  0  0
  193.5690  170.4950  136.8040 C   0  0  1  0  0  3  0  0  0  0  0  0
  192.2690  170.8900  136.1040 C   0  0  0  0  0  2  0  0  0  0  0  0
  193.1110  168.1700  135.9330 C   0  0  0  0  0  3  0  0  0  0  0  0
  191.7920  168.4190  135.9720 C   0  0  0  0  0  3  0  0  0  0  0  0
  194.1420  169.2570  136.1040 C   0  0  0  0  0  2  0  0  0  0  0  0
  196.5470  175.7540  136.4630 C   0  0  0  0  0  2  0  0  0  0  0  0
  195.8800  176.6270  135.4160 C   0  0  0  0  0  1  0  0  0  0  0  0
  189.8220  174.2860  146.3330 C   0  0  0  0  0  2  0  0  0  0  0  0
  189.9040  173.9060  144.8590 C   0  0  0  0  0  2  0  0  0  0  0  0
  189.8580  172.3950  144.7210 C   0  0  0  0  0  2  0  0  0  0  0  0
  194.1850  170.9390  143.8060 C   0  0  0  0  0  3  0  0  0  0  0  0
  190.6640  171.9050  143.5600 C   0  0  0  0  0  0  0  0  0  0  0  0
  194.3070  170.2840  142.5260 N   0  0  0  0  0  0  0  0  0  0  0  0
  193.4760  169.5070  140.3920 C   0  0  0  0  0  1  0  0  0  0  0  0
  191.1590  171.4410  141.4760 C   0  0  1  0  0  3  0  0  0  0  0  0
  193.2900  170.1460  141.7250 C   0  0  0  0  0  0  0  0  0  0  0  0
  191.7140  170.8340  143.6220 C   0  0  1  0  0  3  0  0  0  0  0  0
  191.9830  170.6610  142.1660 C   0  0  1  0  0  3  0  0  0  0  0  0
  192.9840  171.2560  144.3170 C   0  0  0  0  0  3  0  0  0  0  0  0
  190.3270  172.1950  142.3450 N   0  0  0  0  0  0  0  0  0  0  0  0
  191.2690  171.7400  140.0190 C   0  0  0  0  0  2  0  0  0  0  0  0
  189.9400  171.4720  139.3330 C   0  0  0  0  0  2  0  0  0  0  0  0
  190.6630  173.4940  138.2950 O   0  0  0  0  0  1  0  0  0  0  0  0
  189.5740  172.6280  138.4160 C   0  0  2  0  0  3  0  0  0  0  0  0
  187.8800  172.8170  140.1130 O   0  0  0  0  0  1  0  0  0  0  0  0
  188.3580  173.3890  138.9320 C   0  0  0  0  0  2  0  0  0  0  0  0
  1 46  1  6  0  0  0
  2  5  1  0  0  0  0
  3  5  2  0  0  0  0
  4  2  1  0  0  0  0
  6  9  1  1  0  0  0
  6  4  1  0  0  0  0
  6  7  1  0  0  0  0
  7  3  1  0  0  0  0
  8  7  2  0  0  0  0
  8  1  1  0  0  0  0
 10  9  1  0  0  0  0
 11 10  1  0  0  0  0
 12 14  1  0  0  0  0
 14 16  1  0  0  0  0
 14 13  1  0  0  0  0
 14 11  1  0  0  0  0
 15 16  1  0  0  0  0
 17  1  1  0  0  0  0
 17 18  2  0  0  0  0
 19 17  1  0  0  0  0
 20 19  1  0  0  0  0
 20 22  2  0  0  0  0
 20 21  2  0  0  0  0
 23 24  1  0  0  0  0
 23 25  1  0  0  0  0
 24 28  1  6  0  0  0
 24 25  1  0  0  0  0
 25 20  1  1  0  0  0
 27 28  1  0  0  0  0
 28 26  2  0  0  0  0
 30 33  1  0  0  0  0
 31 37  1  0  0  0  0
 32 44  1  6  0  0  0
 32 31  1  0  0  0  0
 33 37  1  0  0  0  0
 34 29  1  6  0  0  0
 34 39  1  0  0  0  0
 34 30  1  0  0  0  0
 35 36  1  1  0  0  0
 35 29  1  0  0  0  0
 35 32  1  0  0  0  0
 37 27  1  1  0  0  0
 39 43  1  6  0  0  0
 40 38  1  0  0  0  0
 40 39  1  0  0  0  0
 41 42  2  0  0  0  0
 41 43  1  0  0  0  0
 42 38  1  0  0  0  0
 45 44  1  0  0  0  0
 47 46  1  0  0  0  0
 48 47  1  0  0  0  0
 49 57  2  0  0  0  0
 50 55  1  0  0  0  0
 50 48  1  0  0  0  0
 51 49  1  0  0  0  0
 52 54  1  0  0  0  0
 53 59  1  1  0  0  0
 53 56  1  0  0  0  0
 53 58  1  0  0  0  0
 54 51  2  0  0  0  0
 55 57  1  1  0  0  0
 56 54  1  1  0  0  0
 56 55  1  0  0  0  0
 58 50  2  0  0  0  0
 60 59  1  0  0  0  0
 62 61  1  1  0  0  0
 62 64  1  0  0  0  0
 62 60  1  0  0  0  0
 64 63  1  0  0  0  0
M  END
>  <MODEL>
2

>  <REMARK>
 VINA RESULT:      -6.3      1.956      3.839
  Name = 
  22 active torsions:
  status: ('A' for Active; 'I' for Inactive)
    1  A    between atoms: C_5  and  C_40
    2  A    between atoms: C_7  and  C_8
    3  A    between atoms: C_7  and  C_43
    4  A    between atoms: C_8  and  C_33
    5  A    between atoms: C_9  and  C_43
    6  A    between atoms: C_9  and  C_53
    7  A    between atoms: S_13  and  C_53
    8  A    between atoms: S_13  and  C_63
    9  A    between atoms: C_14  and  C_38
   10  A    between atoms: C_16  and  C_34
   11  A    between atoms: C_16  and  O_56
   12  A    between atoms: C_20  and  C_33
   13  A    between atoms: N_21  and  C_59
   14  A    between atoms: C_25  and  C_27
   15  A    between atoms: C_30  and  C_35
   16  A    between atoms: C_34  and  C_45
   17  A    between atoms: C_35  and  C_47
   18  A    between atoms: C_43  and  N_60
   19  A    between atoms: C_44  and  C_45
   20  A    between atoms: C_47  and  C_57
   21  A    between atoms: C_50  and  O_56
   22  A    between atoms: C_54  and  C_57
                            x       y       z     vdW  Elec       q    Type
                         _______ _______ _______ _____ _____    ______ ____

>  <TORSDO>
F 22

$$$$
=
 OpenBabel11042416053D

 64 69  0  0  1  0  0  0  0  0999 V2000
  189.5070  175.1730  146.8330 C   0  0  2  0  0  3  0  0  0  0  0  0
  185.1240  177.8310  146.5790 C   0  0  0  0  0  2  0  0  0  0  0  0
  187.0580  176.5670  147.4560 C   0  0  0  0  0  3  0  0  0  0  0  0
  186.1040  178.5460  145.6560 C   0  0  0  0  0  2  0  0  0  0  0  0
  185.8630  177.1180  147.6750 C   0  0  0  0  0  3  0  0  0  0  0  0
  187.1050  177.5490  145.0630 C   0  0  2  0  0  3  0  0  0  0  0  0
  187.7310  176.6970  146.1420 C   0  0  0  0  0  0  0  0  0  0  0  0
  188.8140  176.0270  145.8720 N   0  0  0  0  0  0  0  0  0  0  0  0
  188.0930  178.2580  144.3740 O   0  0  0  0  0  0  0  0  0  0  0  0
  188.0090  177.8220  143.0480 C   0  0  0  0  0  2  0  0  0  0  0  0
  186.9910  178.6510  142.2670 C   0  0  0  0  0  2  0  0  0  0  0  0
  185.9540  176.4310  142.1560 C   0  0  0  0  0  1  0  0  0  0  0  0
  184.4940  178.3600  142.4860 C   0  0  0  0  0  1  0  0  0  0  0  0
  185.7540  177.8820  141.7800 C   0  0  0  0  0  0  0  0  0  0  0  0
  186.7030  177.2950  139.5630 N   0  0  0  0  0  1  0  0  0  0  0  0
  185.5930  177.9370  140.2560 C   0  0  0  0  0  2  0  0  0  0  0  0
  190.8630  175.7300  147.1540 C   0  0  0  0  0  0  0  0  0  0  0  0
  191.3940  175.4980  148.2300 O   0  0  0  0  0  0  0  0  0  0  0  0
  191.5950  176.5170  146.1110 C   0  0  0  0  0  2  0  0  0  0  0  0
  193.2300  175.8610  145.8390 S   0  0  0  0  0  0  0  0  0  0  0  0
  193.2360  174.3880  146.1430 O   0  0  0  0  0  0  0  0  0  0  0  0
  194.2090  176.5620  146.7420 O   0  0  0  0  0  0  0  0  0  0  0  0
  192.4060  175.9890  143.2620 C   0  0  0  0  0  2  0  0  0  0  0  0
  193.3920  174.8380  143.3230 C   0  0  2  0  0  3  0  0  0  0  0  0
  193.6450  176.1060  144.1200 C   0  0  2  0  0  3  0  0  0  0  0  0
  195.5050  175.0530  142.2430 O   0  0  0  0  0  0  0  0  0  0  0  0
  193.7200  174.5360  140.8290 N   0  0  0  0  0  2  0  0  0  0  0  0
  194.2710  174.8300  142.1160 C   0  0  0  0  0  0  0  0  0  0  0  0
  195.6040  172.5900  137.0340 C   0  0  0  0  0  2  0  0  0  0  0  0
  196.4530  173.7140  139.0470 O   0  0  0  0  0  0  0  0  0  0  0  0
  193.4430  174.5370  138.1630 S   0  0  0  0  0  0  0  0  0  0  0  0
  194.8140  175.0300  137.0590 C   0  0  1  0  0  3  0  0  0  0  0  0
  195.3150  173.3450  139.6120 O   0  0  0  0  0  0  0  0  0  0  0  0
  196.7510  172.7650  138.0430 C   0  0  1  0  0  3  0  0  0  0  0  0
  195.3100  173.8510  136.2160 C   0  0  1  0  0  3  0  0  0  0  0  0
  196.4410  174.2190  135.4840 O   0  0  0  0  0  1  0  0  0  0  0  0
  194.5300  174.5040  139.6220 C   0  0  2  0  0  3  0  0  0  0  0  0
  197.9410  170.2380  140.7070 C   0  0  0  0  0  2  0  0  0  0  0  0
  197.1780  171.4250  138.6520 C   0  0  1  0  0  3  0  0  0  0  0  0
  197.3650  171.5450  140.1640 C   0  0  0  0  0  2  0  0  0  0  0  0
  196.3950  169.0720  139.1250 C   0  0  0  0  0  3  0  0  0  0  0  0
  197.1830  169.0320  140.2120 C   0  0  0  0  0  3  0  0  0  0  0  0
  196.1190  170.3520  138.3760 C   0  0  0  0  0  2  0  0  0  0  0  0
  194.3590  176.1620  136.1510 C   0  0  0  0  0  2  0  0  0  0  0  0
  192.8450  176.2600  136.1480 C   0  0  0  0  0  1  0  0  0  0  0  0
  189.5680  173.7270  146.3430 C   0  0  0  0  0  2  0  0  0  0  0  0
  190.0790  173.6120  144.9110 C   0  0  0  0  0  2  0  0  0  0  0  0
  189.7360  172.2410  144.3580 C   0  0  0  0  0  2  0  0  0  0  0  0
  193.8560  171.0930  142.5180 C   0  0  0  0  0  3  0  0  0  0  0  0
  190.3470  172.0020  143.0130 C   0  0  0  0  0  0  0  0  0  0  0  0
  193.7710  170.6970  141.1330 N   0  0  0  0  0  0  0  0  0  0  0  0
  192.6110  170.3220  139.0450 C   0  0  0  0  0  1  0  0  0  0  0  0
  190.5040  171.9560  140.8270 C   0  0  1  0  0  3  0  0  0  0  0  0
  192.6410  170.6900  140.4880 C   0  0  0  0  0  0  0  0  0  0  0  0
  191.3860  170.9650  142.7030 C   0  0  1  0  0  3  0  0  0  0  0  0
  191.4220  171.0790  141.2180 C   0  0  1  0  0  3  0  0  0  0  0  0
  192.7520  171.2770  143.2610 C   0  0  0  0  0  3  0  0  0  0  0  0
  189.8240  172.5090  141.9440 N   0  0  0  0  0  0  0  0  0  0  0  0
  190.3860  172.5310  139.4560 C   0  0  0  0  0  2  0  0  0  0  0  0
  189.2490  171.8550  138.7070 C   0  0  0  0  0  2  0  0  0  0  0  0
  189.3410  171.7610  136.3260 O   0  0  0  0  0  1  0  0  0  0  0  0
  188.9740  172.5760  137.3990 C   0  0  2  0  0  3  0  0  0  0  0  0
  190.1400  174.1620  136.0160 O   0  0  0  0  0  1  0  0  0  0  0  0
  189.7200  173.9040  137.3220 C   0  0  0  0  0  2  0  0  0  0  0  0
  1 46  1  6  0  0  0
  1 17  1  0  0  0  0
  2  5  1  0  0  0  0
  3  5  2  0  0  0  0
  4  2  1  0  0  0  0
  6  9  1  1  0  0  0
  6  4  1  0  0  0  0
  6  7  1  0  0  0  0
  7  3  1  0  0  0  0
  8  7  2  0  0  0  0
  8  1  1  0  0  0  0
 10  9  1  0  0  0  0
 11 10  1  0  0  0  0
 14 12  1  0  0  0  0
 14 11  1  0  0  0  0
 14 13  1  0  0  0  0
 15 16  1  0  0  0  0
 16 14  1  0  0  0  0
 17 18  2  0  0  0  0
 19 17  1  0  0  0  0
 20 19  1  0  0  0  0
 20 21  2  0  0  0  0
 20 22  2  0  0  0  0
 23 24  1  0  0  0  0
 23 25  1  0  0  0  0
 24 28  1  6  0  0  0
 24 25  1  0  0  0  0
 25 20  1  1  0  0  0
 27 28  1  0  0  0  0
 28 26  2  0  0  0  0
 30 33  1  0  0  0  0
 31 37  1  0  0  0  0
 32 44  1  6  0  0  0
 32 31  1  0  0  0  0
 33 37  1  0  0  0  0
 34 29  1  1  0  0  0
 34 39  1  0  0  0  0
 34 30  1  0  0  0  0
 35 36  1  1  0  0  0
 35 29  1  0  0  0  0
 35 32  1  0  0  0  0
 37 27  1  1  0  0  0
 39 43  1  1  0  0  0
 39 40  1  0  0  0  0
 40 38  1  0  0  0  0
 41 42  2  0  0  0  0
 42 38  1  0  0  0  0
 43 41  1  0  0  0  0
 45 44  1  0  0  0  0
 47 46  1  0  0  0  0
 48 47  1  0  0  0  0
 49 57  2  0  0  0  0
 50 48  1  0  0  0  0
 51 49  1  0  0  0  0
 52 54  1  0  0  0  0
 53 59  1  1  0  0  0
 53 56  1  0  0  0  0
 53 58  1  0  0  0  0
 54 51  2  0  0  0  0
 55 50  1  0  0  0  0
 55 57  1  1  0  0  0
 56 54  1  1  0  0  0
 56 55  1  0  0  0  0
 58 50  2  0  0  0  0
 60 59  1  0  0  0  0
 62 61  1  6  0  0  0
 62 60  1  0  0  0  0
 63 64  1  0  0  0  0
 64 62  1  0  0  0  0
M  END
>  <MODEL>
3

>  <REMARK>
 VINA RESULT:      -5.7      1.937      4.696
  Name = 
  22 active torsions:
  status: ('A' for Active; 'I' for Inactive)
    1  A    between atoms: C_5  and  C_40
    2  A    between atoms: C_7  and  C_8
    3  A    between atoms: C_7  and  C_43
    4  A    between atoms: C_8  and  C_33
    5  A    between atoms: C_9  and  C_43
    6  A    between atoms: C_9  and  C_53
    7  A    between atoms: S_13  and  C_53
    8  A    between atoms: S_13  and  C_63
    9  A    between atoms: C_14  and  C_38
   10  A    between atoms: C_16  and  C_34
   11  A    between atoms: C_16  and  O_56
   12  A    between atoms: C_20  and  C_33
   13  A    between atoms: N_21  and  C_59
   14  A    between atoms: C_25  and  C_27
   15  A    between atoms: C_30  and  C_35
   16  A    between atoms: C_34  and  C_45
   17  A    between atoms: C_35  and  C_47
   18  A    between atoms: C_43  and  N_60
   19  A    between atoms: C_44  and  C_45
   20  A    between atoms: C_47  and  C_57
   21  A    between atoms: C_50  and  O_56
   22  A    between atoms: C_54  and  C_57
                            x       y       z     vdW  Elec       q    Type
                         _______ _______ _______ _____ _____    ______ ____

>  <TORSDO>
F 22

$$$$
=
 OpenBabel11042416053D

 64 69  0  0  1  0  0  0  0  0999 V2000
  189.0300  176.1030  146.2840 C   0  0  2  0  0  3  0  0  0  0  0  0
  184.4530  178.4240  146.3710 C   0  0  0  0  0  2  0  0  0  0  0  0
  186.6870  177.6080  147.0420 C   0  0  0  0  0  3  0  0  0  0  0  0
  185.0590  178.7400  145.0070 C   0  0  0  0  0  2  0  0  0  0  0  0
  185.5370  178.1910  147.3840 C   0  0  0  0  0  3  0  0  0  0  0  0
  185.9770  177.6000  144.5540 C   0  0  2  0  0  3  0  0  0  0  0  0
  186.9660  177.2310  145.6360 C   0  0  0  0  0  0  0  0  0  0  0  0
  188.0090  176.5190  145.3260 N   0  0  0  0  0  0  0  0  0  0  0  0
  186.6550  178.0000  143.3990 O   0  0  0  0  0  0  0  0  0  0  0  0
  186.0890  177.2570  142.3580 C   0  0  0  0  0  2  0  0  0  0  0  0
  187.1180  176.9830  141.2640 C   0  0  0  0  0  2  0  0  0  0  0  0
  187.2700  174.8490  142.4640 C   0  0  0  0  0  1  0  0  0  0  0  0
  188.1720  174.9530  140.1970 C   0  0  0  0  0  1  0  0  0  0  0  0
  187.9980  175.7430  141.4860 C   0  0  0  0  0  0  0  0  0  0  0  0
  189.5050  177.5240  142.3300 N   0  0  0  0  0  1  0  0  0  0  0  0
  189.3530  176.0920  142.1130 C   0  0  0  0  0  2  0  0  0  0  0  0
  190.3220  176.8220  146.0250 C   0  0  0  0  0  0  0  0  0  0  0  0
  190.3490  178.0400  145.9270 O   0  0  0  0  0  0  0  0  0  0  0  0
  191.5950  176.0370  145.9630 C   0  0  0  0  0  2  0  0  0  0  0  0
  192.7480  176.7690  144.8180 S   0  0  0  0  0  0  0  0  0  0  0  0
  194.0050  177.1520  145.5490 O   0  0  0  0  0  0  0  0  0  0  0  0
  192.1340  177.9970  144.2020 O   0  0  0  0  0  0  0  0  0  0  0  0
  194.5330  175.0010  143.8030 C   0  0  0  0  0  2  0  0  0  0  0  0
  194.2960  176.0240  142.7070 C   0  0  2  0  0  3  0  0  0  0  0  0
  193.1420  175.5500  143.5740 C   0  0  2  0  0  3  0  0  0  0  0  0
  193.0970  174.9820  140.9320 O   0  0  0  0  0  0  0  0  0  0  0  0
  195.3980  175.1850  140.5860 N   0  0  0  0  0  2  0  0  0  0  0  0
  194.2160  175.3600  141.3720 C   0  0  0  0  0  0  0  0  0  0  0  0
  195.6820  175.0580  135.9340 C   0  0  0  0  0  2  0  0  0  0  0  0
  194.0040  174.4350  137.6180 O   0  0  0  0  0  0  0  0  0  0  0  0
  197.0800  174.4110  138.6480 S   0  0  0  0  0  0  0  0  0  0  0  0
  196.5940  173.1640  137.4030 C   0  0  1  0  0  3  0  0  0  0  0  0
  194.6020  175.3210  138.3970 O   0  0  0  0  0  0  0  0  0  0  0  0
  194.1980  174.8520  136.2810 C   0  0  1  0  0  3  0  0  0  0  0  0
  196.5110  173.7720  135.9990 C   0  0  1  0  0  3  0  0  0  0  0  0
  196.0090  172.8350  135.0930 O   0  0  0  0  0  1  0  0  0  0  0  0
  195.3770  174.5550  139.2760 C   0  0  2  0  0  3  0  0  0  0  0  0
  193.3480  178.3580  134.9080 C   0  0  0  0  0  2  0  0  0  0  0  0
  193.3640  176.0970  135.9590 C   0  0  1  0  0  3  0  0  0  0  0  0
  194.1480  177.0670  135.0750 C   0  0  0  0  0  2  0  0  0  0  0  0
  191.3250  176.9030  134.7080 C   0  0  0  0  0  3  0  0  0  0  0  0
  191.9150  178.0940  134.5190 C   0  0  0  0  0  3  0  0  0  0  0  0
  192.0770  175.7030  135.2250 C   0  0  0  0  0  2  0  0  0  0  0  0
  197.5920  172.0160  137.4120 C   0  0  0  0  0  2  0  0  0  0  0  0
  197.3500  171.1160  138.6090 C   0  0  0  0  0  1  0  0  0  0  0  0
  189.1950  174.5840  146.2920 C   0  0  0  0  0  2  0  0  0  0  0  0
  189.6450  174.0350  144.9420 C   0  0  0  0  0  2  0  0  0  0  0  0
  189.9680  172.5580  145.0780 C   0  0  0  0  0  2  0  0  0  0  0  0
  190.2210  171.5130  140.5480 C   0  0  0  0  0  3  0  0  0  0  0  0
  190.9840  172.1040  144.0770 C   0  0  0  0  0  0  0  0  0  0  0  0
  191.5750  171.4240  140.0580 N   0  0  0  0  0  0  0  0  0  0  0  0
  193.9810  171.4560  140.2970 C   0  0  0  0  0  1  0  0  0  0  0  0
  192.8970  171.3560  143.3140 C   0  0  1  0  0  3  0  0  0  0  0  0
  192.6010  171.6070  140.8380 C   0  0  0  0  0  0  0  0  0  0  0  0
  191.0490  172.5460  142.6440 C   0  0  1  0  0  3  0  0  0  0  0  0
  192.3500  171.9360  142.2510 C   0  0  1  0  0  3  0  0  0  0  0  0
  189.9520  171.9850  141.7760 C   0  0  0  0  0  3  0  0  0  0  0  0
  192.0560  171.4830  144.4500 N   0  0  0  0  0  0  0  0  0  0  0  0
  194.0700  170.4340  143.2880 C   0  0  0  0  0  2  0  0  0  0  0  0
  195.0710  170.8400  144.3560 C   0  0  0  0  0  2  0  0  0  0  0  0
  195.7080  168.5720  144.7260 O   0  0  0  0  0  1  0  0  0  0  0  0
  196.2120  169.8390  144.4210 C   0  0  2  0  0  3  0  0  0  0  0  0
  197.2350  171.6260  145.6650 O   0  0  0  0  0  1  0  0  0  0  0  0
  197.2570  170.2460  145.4550 C   0  0  0  0  0  2  0  0  0  0  0  0
  1 46  1  6  0  0  0
  2  5  1  0  0  0  0
  3  5  2  0  0  0  0
  4  2  1  0  0  0  0
  6  9  1  6  0  0  0
  6  4  1  0  0  0  0
  6  7  1  0  0  0  0
  7  3  1  0  0  0  0
  8  7  2  0  0  0  0
  8  1  1  0  0  0  0
 10  9  1  0  0  0  0
 11 14  1  0  0  0  0
 11 10  1  0  0  0  0
 13 14  1  0  0  0  0
 14 16  1  0  0  0  0
 14 12  1  0  0  0  0
 16 15  1  0  0  0  0
 17  1  1  0  0  0  0
 18 17  2  0  0  0  0
 19 17  1  0  0  0  0
 20 21  2  0  0  0  0
 20 19  1  0  0  0  0
 22 20  2  0  0  0  0
 24 28  1  6  0  0  0
 24 25  1  0  0  0  0
 24 23  1  0  0  0  0
 25 23  1  0  0  0  0
 25 20  1  1  0  0  0
 26 28  2  0  0  0  0
 27 28  1  0  0  0  0
 29 35  1  0  0  0  0
 30 33  1  0  0  0  0
 31 37  1  0  0  0  0
 32 44  1  6  0  0  0
 32 31  1  0  0  0  0
 33 37  1  0  0  0  0
 34 29  1  1  0  0  0
 34 30  1  0  0  0  0
 35 36  1  6  0  0  0
 35 32  1  0  0  0  0
 37 27  1  1  0  0  0
 38 40  1  0  0  0  0
 39 40  1  6  0  0  0
 39 34  1  0  0  0  0
 41 43  1  0  0  0  0
 42 41  2  0  0  0  0
 42 38  1  0  0  0  0
 43 39  1  0  0  0  0
 44 45  1  0  0  0  0
 47 48  1  0  0  0  0
 47 46  1  0  0  0  0
 49 57  2  0  0  0  0
 50 58  2  0  0  0  0
 50 48  1  0  0  0  0
 51 49  1  0  0  0  0
 51 54  2  0  0  0  0
 52 54  1  0  0  0  0
 53 59  1  6  0  0  0
 53 58  1  0  0  0  0
 55 57  1  6  0  0  0
 55 50  1  0  0  0  0
 56 54  1  6  0  0  0
 56 55  1  0  0  0  0
 56 53  1  0  0  0  0
 59 60  1  0  0  0  0
 60 62  1  0  0  0  0
 62 61  1  1  0  0  0
 62 64  1  0  0  0  0
 64 63  1  0  0  0  0
M  END
>  <MODEL>
4

>  <REMARK>
 VINA RESULT:      -5.6      1.745      2.383
  Name = 
  22 active torsions:
  status: ('A' for Active; 'I' for Inactive)
    1  A    between atoms: C_5  and  C_40
    2  A    between atoms: C_7  and  C_8
    3  A    between atoms: C_7  and  C_43
    4  A    between atoms: C_8  and  C_33
    5  A    between atoms: C_9  and  C_43
    6  A    between atoms: C_9  and  C_53
    7  A    between atoms: S_13  and  C_53
    8  A    between atoms: S_13  and  C_63
    9  A    between atoms: C_14  and  C_38
   10  A    between atoms: C_16  and  C_34
   11  A    between atoms: C_16  and  O_56
   12  A    between atoms: C_20  and  C_33
   13  A    between atoms: N_21  and  C_59
   14  A    between atoms: C_25  and  C_27
   15  A    between atoms: C_30  and  C_35
   16  A    between atoms: C_34  and  C_45
   17  A    between atoms: C_35  and  C_47
   18  A    between atoms: C_43  and  N_60
   19  A    between atoms: C_44  and  C_45
   20  A    between atoms: C_47  and  C_57
   21  A    between atoms: C_50  and  O_56
   22  A    between atoms: C_54  and  C_57
                            x       y       z     vdW  Elec       q    Type
                         _______ _______ _______ _____ _____    ______ ____

>  <TORSDO>
F 22

$$$$
=
 OpenBabel11042416053D

 64 69  0  0  1  0  0  0  0  0999 V2000
  189.7010  175.5780  146.7020 C   0  0  2  0  0  3  0  0  0  0  0  0
  185.0420  177.6970  146.3250 C   0  0  0  0  0  2  0  0  0  0  0  0
  187.0790  176.6510  147.2540 C   0  0  0  0  0  3  0  0  0  0  0  0
  185.9640  178.5500  145.4600 C   0  0  0  0  0  2  0  0  0  0  0  0
  185.8190  177.0480  147.4340 C   0  0  0  0  0  3  0  0  0  0  0  0
  187.1000  177.6960  144.8870 C   0  0  2  0  0  3  0  0  0  0  0  0
  187.7820  176.8970  145.9720 C   0  0  0  0  0  0  0  0  0  0  0  0
  188.9470  176.3690  145.7330 N   0  0  0  0  0  0  0  0  0  0  0  0
  188.0210  178.5380  144.2560 O   0  0  0  0  0  0  0  0  0  0  0  0
  188.1470  178.0430  142.9540 C   0  0  0  0  0  2  0  0  0  0  0  0
  187.0680  178.6270  142.0450 C   0  0  0  0  0  2  0  0  0  0  0  0
  186.1630  176.3480  142.0070 C   0  0  0  0  0  1  0  0  0  0  0  0
  184.9130  178.0940  140.8440 C   0  0  0  0  0  1  0  0  0  0  0  0
  186.3140  177.6050  141.1810 C   0  0  0  0  0  0  0  0  0  0  0  0
  186.2040  176.8830  138.8090 N   0  0  0  0  0  1  0  0  0  0  0  0
  187.0900  177.2230  139.9140 C   0  0  0  0  0  2  0  0  0  0  0  0
  191.1370  176.0130  146.7370 C   0  0  0  0  0  0  0  0  0  0  0  0
  191.8210  175.8290  147.7330 O   0  0  0  0  0  0  0  0  0  0  0  0
  191.7490  176.6110  145.5090 C   0  0  0  0  0  2  0  0  0  0  0  0
  193.3900  175.9740  145.2300 S   0  0  0  0  0  0  0  0  0  0  0  0
  193.4610  174.5490  145.7030 O   0  0  0  0  0  0  0  0  0  0  0  0
  194.3870  176.8040  145.9930 O   0  0  0  0  0  0  0  0  0  0  0  0
  192.4120  176.0860  142.7060 C   0  0  0  0  0  2  0  0  0  0  0  0
  193.1760  174.7780  142.7960 C   0  0  2  0  0  3  0  0  0  0  0  0
  193.7130  176.0250  143.4750 C   0  0  2  0  0  3  0  0  0  0  0  0
  195.1760  174.2650  141.6080 O   0  0  0  0  0  0  0  0  0  0  0  0
  193.2810  174.5520  140.2750 N   0  0  0  0  0  2  0  0  0  0  0  0
  193.9450  174.5270  141.5410 C   0  0  0  0  0  0  0  0  0  0  0  0
  194.4250  172.1250  136.4620 C   0  0  0  0  0  2  0  0  0  0  0  0
  195.6370  173.0940  138.3670 O   0  0  0  0  0  0  0  0  0  0  0  0
  192.8250  174.5350  137.6330 S   0  0  0  0  0  0  0  0  0  0  0  0
  194.1910  174.6790  136.4260 C   0  0  1  0  0  3  0  0  0  0  0  0
  194.4880  173.0020  139.0160 O   0  0  0  0  0  0  0  0  0  0  0  0
  195.6500  172.0720  137.3900 C   0  0  1  0  0  3  0  0  0  0  0  0
  194.3570  173.3950  135.6080 C   0  0  1  0  0  3  0  0  0  0  0  0
  195.4880  173.4810  134.7920 O   0  0  0  0  0  1  0  0  0  0  0  0
  193.9780  174.3050  139.0230 C   0  0  2  0  0  3  0  0  0  0  0  0
  195.9910  168.2350  137.6290 C   0  0  0  0  0  2  0  0  0  0  0  0
  195.8150  170.6900  138.0300 C   0  0  1  0  0  3  0  0  0  0  0  0
  195.9890  169.6100  136.9620 C   0  0  0  0  0  2  0  0  0  0  0  0
  197.3650  169.2800  139.4380 C   0  0  0  0  0  3  0  0  0  0  0  0
  196.9270  168.1760  138.8110 C   0  0  0  0  0  3  0  0  0  0  0  0
  197.0430  170.6690  138.9470 C   0  0  0  0  0  2  0  0  0  0  0  0
  193.9320  175.8560  135.4980 C   0  0  0  0  0  2  0  0  0  0  0  0
  195.1840  176.7000  135.3550 C   0  0  0  0  0  1  0  0  0  0  0  0
  189.5470  174.0820  146.4340 C   0  0  0  0  0  2  0  0  0  0  0  0
  190.2600  173.6360  145.1620 C   0  0  0  0  0  2  0  0  0  0  0  0
  189.3530  173.8640  143.9660 C   0  0  0  0  0  2  0  0  0  0  0  0
  188.5000  173.5870  139.3970 C   0  0  0  0  0  3  0  0  0  0  0  0
  189.7330  173.0150  142.7940 C   0  0  0  0  0  0  0  0  0  0  0  0
  189.4140  172.7150  138.6990 N   0  0  0  0  0  0  0  0  0  0  0  0
  191.2490  171.1460  138.5630 C   0  0  0  0  0  1  0  0  0  0  0  0
  190.6070  171.3290  141.7000 C   0  0  1  0  0  3  0  0  0  0  0  0
  190.3610  172.0730  139.3190 C   0  0  0  0  0  0  0  0  0  0  0  0
  189.9640  173.5140  141.3980 C   0  0  1  0  0  3  0  0  0  0  0  0
  190.5010  172.2730  140.7720 C   0  0  1  0  0  3  0  0  0  0  0  0
  188.7060  173.9330  140.6790 C   0  0  0  0  0  3  0  0  0  0  0  0
  190.1510  171.8010  142.9580 N   0  0  0  0  0  0  0  0  0  0  0  0
  190.8710  169.8840  141.4380 C   0  0  0  0  0  2  0  0  0  0  0  0
  192.2040  169.4820  142.0450 C   0  0  0  0  0  2  0  0  0  0  0  0
  194.0190  168.5770  140.7910 O   0  0  0  0  0  1  0  0  0  0  0  0
  193.3360  169.7630  141.0720 C   0  0  2  0  0  3  0  0  0  0  0  0
  195.2470  170.2070  142.4640 O   0  0  0  0  0  1  0  0  0  0  0  0
  194.3050  170.8040  141.6230 C   0  0  0  0  0  2  0  0  0  0  0  0
  1 46  1  6  0  0  0
  1 17  1  0  0  0  0
  2  5  1  0  0  0  0
  3  5  2  0  0  0  0
  4  2  1  0  0  0  0
  6  9  1  1  0  0  0
  6  4  1  0  0  0  0
  6  7  1  0  0  0  0
  7  3  1  0  0  0  0
  8  7  2  0  0  0  0
  8  1  1  0  0  0  0
 10  9  1  0  0  0  0
 11 10  1  0  0  0  0
 13 14  1  0  0  0  0
 14 12  1  0  0  0  0
 14 11  1  0  0  0  0
 15 16  1  0  0  0  0
 16 14  1  0  0  0  0
 17 18  2  0  0  0  0
 19 17  1  0  0  0  0
 20 19  1  0  0  0  0
 20 21  2  0  0  0  0
 20 22  2  0  0  0  0
 23 24  1  0  0  0  0
 23 25  1  0  0  0  0
 24 28  1  6  0  0  0
 24 25  1  0  0  0  0
 25 20  1  1  0  0  0
 27 28  1  0  0  0  0
 28 26  2  0  0  0  0
 30 33  1  0  0  0  0
 31 37  1  0  0  0  0
 32 44  1  6  0  0  0
 32 31  1  0  0  0  0
 33 37  1  0  0  0  0
 34 29  1  1  0  0  0
 34 39  1  0  0  0  0
 34 30  1  0  0  0  0
 35 36  1  1  0  0  0
 35 32  1  0  0  0  0
 35 29  1  0  0  0  0
 37 27  1  1  0  0  0
 38 42  1  0  0  0  0
 39 40  1  6  0  0  0
 39 43  1  0  0  0  0
 40 38  1  0  0  0  0
 42 41  2  0  0  0  0
 43 41  1  0  0  0  0
 45 44  1  0  0  0  0
 47 46  1  0  0  0  0
 48 47  1  0  0  0  0
 49 57  2  0  0  0  0
 50 58  2  0  0  0  0
 50 48  1  0  0  0  0
 51 54  2  0  0  0  0
 51 49  1  0  0  0  0
 52 54  1  0  0  0  0
 53 59  1  6  0  0  0
 53 58  1  0  0  0  0
 55 57  1  6  0  0  0
 55 50  1  0  0  0  0
 56 54  1  6  0  0  0
 56 55  1  0  0  0  0
 56 53  1  0  0  0  0
 59 60  1  0  0  0  0
 62 61  1  1  0  0  0
 62 64  1  0  0  0  0
 62 60  1  0  0  0  0
 64 63  1  0  0  0  0
M  END
>  <MODEL>
5

>  <REMARK>
 VINA RESULT:      -5.4      2.096      3.765
  Name = 
  22 active torsions:
  status: ('A' for Active; 'I' for Inactive)
    1  A    between atoms: C_5  and  C_40
    2  A    between atoms: C_7  and  C_8
    3  A    between atoms: C_7  and  C_43
    4  A    between atoms: C_8  and  C_33
    5  A    between atoms: C_9  and  C_43
    6  A    between atoms: C_9  and  C_53
    7  A    between atoms: S_13  and  C_53
    8  A    between atoms: S_13  and  C_63
    9  A    between atoms: C_14  and  C_38
   10  A    between atoms: C_16  and  C_34
   11  A    between atoms: C_16  and  O_56
   12  A    between atoms: C_20  and  C_33
   13  A    between atoms: N_21  and  C_59
   14  A    between atoms: C_25  and  C_27
   15  A    between atoms: C_30  and  C_35
   16  A    between atoms: C_34  and  C_45
   17  A    between atoms: C_35  and  C_47
   18  A    between atoms: C_43  and  N_60
   19  A    between atoms: C_44  and  C_45
   20  A    between atoms: C_47  and  C_57
   21  A    between atoms: C_50  and  O_56
   22  A    between atoms: C_54  and  C_57
                            x       y       z     vdW  Elec       q    Type
                         _______ _______ _______ _____ _____    ______ ____

>  <TORSDO>
F 22

$$$$
=
 OpenBabel11042416053D

 64 69  0  0  1  0  0  0  0  0999 V2000
  193.0800  171.9630  143.0960 C   0  0  2  0  0  3  0  0  0  0  0  0
  195.0690  168.8180  139.5610 C   0  0  0  0  0  2  0  0  0  0  0  0
  193.8480  170.6840  140.6250 C   0  0  0  0  0  3  0  0  0  0  0  0
  196.1760  169.0570  140.5820 C   0  0  0  0  0  2  0  0  0  0  0  0
  194.1310  169.9900  139.5220 C   0  0  0  0  0  3  0  0  0  0  0  0
  195.5780  169.3080  141.9700 C   0  0  2  0  0  3  0  0  0  0  0  0
  194.5020  170.3670  141.9170 C   0  0  0  0  0  0  0  0  0  0  0  0
  194.1100  170.9290  143.0230 N   0  0  0  0  0  0  0  0  0  0  0  0
  196.6010  169.7040  142.8360 O   0  0  0  0  0  0  0  0  0  0  0  0
  196.9190  168.5650  143.5830 C   0  0  0  0  0  2  0  0  0  0  0  0
  195.8920  168.3360  144.6890 C   0  0  0  0  0  2  0  0  0  0  0  0
  195.4790  168.2220  147.1040 C   0  0  0  0  0  1  0  0  0  0  0  0
  197.7060  168.8900  146.3550 C   0  0  0  0  0  1  0  0  0  0  0  0
  196.2210  168.9950  146.0370 C   0  0  0  0  0  0  0  0  0  0  0  0
  196.8300  171.3990  145.9660 N   0  0  0  0  0  1  0  0  0  0  0  0
  195.7370  170.4480  146.1120 C   0  0  0  0  0  2  0  0  0  0  0  0
  193.2380  172.7780  144.3460 C   0  0  0  0  0  0  0  0  0  0  0  0
  192.4540  172.6520  145.2760 O   0  0  0  0  0  0  0  0  0  0  0  0
  194.4110  173.6990  144.4750 C   0  0  0  0  0  2  0  0  0  0  0  0
  193.9010  175.4060  144.4150 S   0  0  0  0  0  0  0  0  0  0  0  0
  194.8560  176.1840  143.5530 O   0  0  0  0  0  0  0  0  0  0  0  0
  193.9020  175.9800  145.8060 O   0  0  0  0  0  0  0  0  0  0  0  0
  192.3720  175.5780  142.1850 C   0  0  0  0  0  2  0  0  0  0  0  0
  192.0420  176.8090  143.0080 C   0  0  2  0  0  3  0  0  0  0  0  0
  192.2700  175.4710  143.6900 C   0  0  2  0  0  3  0  0  0  0  0  0
  190.1320  178.1410  143.5120 O   0  0  0  0  0  0  0  0  0  0  0  0
  189.6920  176.2100  142.2740 N   0  0  0  0  0  2  0  0  0  0  0  0
  190.5770  177.0970  142.9640 C   0  0  0  0  0  0  0  0  0  0  0  0
  185.6860  178.3820  143.2590 C   0  0  0  0  0  2  0  0  0  0  0  0
  186.5370  176.0840  143.4360 O   0  0  0  0  0  0  0  0  0  0  0  0
  187.9490  177.9170  141.1620 S   0  0  0  0  0  0  0  0  0  0  0  0
  186.1950  177.4670  140.9170 C   0  0  1  0  0  3  0  0  0  0  0  0
  187.7380  176.6380  143.4750 O   0  0  0  0  0  0  0  0  0  0  0  0
  185.6240  177.0210  143.9720 C   0  0  1  0  0  3  0  0  0  0  0  0
  185.2680  178.3230  141.7860 C   0  0  1  0  0  3  0  0  0  0  0  0
  183.9500  177.8700  141.6840 O   0  0  0  0  0  1  0  0  0  0  0  0
  188.2600  176.4470  142.1900 C   0  0  2  0  0  3  0  0  0  0  0  0
  187.3750  177.7200  147.3400 C   0  0  0  0  0  2  0  0  0  0  0  0
  185.8010  177.1680  145.4870 C   0  0  1  0  0  3  0  0  0  0  0  0
  187.1790  177.7370  145.8250 C   0  0  0  0  0  2  0  0  0  0  0  0
  184.9870  178.4420  147.5080 C   0  0  0  0  0  3  0  0  0  0  0  0
  186.1990  178.3130  148.0740 C   0  0  0  0  0  3  0  0  0  0  0  0
  184.7330  178.1060  146.0610 C   0  0  0  0  0  2  0  0  0  0  0  0
  185.8240  177.6280  139.4510 C   0  0  0  0  0  2  0  0  0  0  0  0
  186.6000  176.6400  138.6000 C   0  0  0  0  0  1  0  0  0  0  0  0
  191.6830  171.3610  142.9600 C   0  0  0  0  0  2  0  0  0  0  0  0
  190.7210  172.2740  142.2070 C   0  0  0  0  0  2  0  0  0  0  0  0
  190.1070  171.5160  141.0440 C   0  0  0  0  0  2  0  0  0  0  0  0
  190.8650  169.8600  136.7590 C   0  0  0  0  0  3  0  0  0  0  0  0
  190.6160  171.9940  139.7210 C   0  0  0  0  0  0  0  0  0  0  0  0
  191.0910  170.8950  135.7800 N   0  0  0  0  0  0  0  0  0  0  0  0
  191.3790  173.1870  135.0640 C   0  0  0  0  0  1  0  0  0  0  0  0
  191.5460  173.3400  138.2630 C   0  0  1  0  0  3  0  0  0  0  0  0
  191.0920  172.1560  136.1010 C   0  0  0  0  0  0  0  0  0  0  0  0
  190.0890  171.5670  138.3820 C   0  0  1  0  0  3  0  0  0  0  0  0
  190.8310  172.5160  137.5050 C   0  0  1  0  0  3  0  0  0  0  0  0
  190.4470  170.1530  138.0020 C   0  0  0  0  0  3  0  0  0  0  0  0
  191.3920  173.0260  139.6390 N   0  0  0  0  0  0  0  0  0  0  0  0
  192.6050  174.2690  137.7710 C   0  0  0  0  0  2  0  0  0  0  0  0
  193.8880  174.0550  138.5560 C   0  0  0  0  0  2  0  0  0  0  0  0
  194.5770  175.6300  136.9030 O   0  0  0  0  0  1  0  0  0  0  0  0
  194.9490  175.0500  138.1180 C   0  0  2  0  0  3  0  0  0  0  0  0
  196.9240  174.2430  139.2300 O   0  0  0  0  0  1  0  0  0  0  0  0
  196.3160  174.3870  137.9810 C   0  0  0  0  0  2  0  0  0  0  0  0
  1 46  1  1  0  0  0
  1 17  1  0  0  0  0
  2  4  1  0  0  0  0
  3  7  1  0  0  0  0
  4  6  1  0  0  0  0
  5  2  1  0  0  0  0
  5  3  2  0  0  0  0
  6  9  1  1  0  0  0
  7  6  1  0  0  0  0
  7  8  2  0  0  0  0
  8  1  1  0  0  0  0
  9 10  1  0  0  0  0
 10 11  1  0  0  0  0
 11 14  1  0  0  0  0
 14 16  1  0  0  0  0
 14 13  1  0  0  0  0
 14 12  1  0  0  0  0
 15 16  1  0  0  0  0
 17 19  1  0  0  0  0
 17 18  2  0  0  0  0
 20 19  1  0  0  0  0
 20 22  2  0  0  0  0
 21 20  2  0  0  0  0
 23 24  1  0  0  0  0
 23 25  1  0  0  0  0
 24 28  1  6  0  0  0
 24 25  1  0  0  0  0
 25 20  1  1  0  0  0
 27 28  1  0  0  0  0
 28 26  2  0  0  0  0
 30 33  1  0  0  0  0
 30 34  1  0  0  0  0
 31 37  1  0  0  0  0
 32 44  1  6  0  0  0
 32 31  1  0  0  0  0
 32 35  1  0  0  0  0
 34 29  1  6  0  0  0
 34 39  1  0  0  0  0
 35 36  1  1  0  0  0
 35 29  1  0  0  0  0
 37 27  1  1  0  0  0
 37 33  1  0  0  0  0
 38 42  1  0  0  0  0
 39 40  1  6  0  0  0
 39 43  1  0  0  0  0
 40 38  1  0  0  0  0
 41 42  2  0  0  0  0
 43 41  1  0  0  0  0
 45 44  1  0  0  0  0
 47 46  1  0  0  0  0
 48 47  1  0  0  0  0
 49 57  2  0  0  0  0
 50 48  1  0  0  0  0
 51 54  2  0  0  0  0
 51 49  1  0  0  0  0
 52 54  1  0  0  0  0
 53 59  1  6  0  0  0
 53 58  1  0  0  0  0
 55 57  1  6  0  0  0
 55 50  1  0  0  0  0
 56 54  1  6  0  0  0
 56 53  1  0  0  0  0
 56 55  1  0  0  0  0
 58 50  2  0  0  0  0
 59 60  1  0  0  0  0
 62 61  1  6  0  0  0
 62 60  1  0  0  0  0
 64 62  1  0  0  0  0
 64 63  1  0  0  0  0
M  END
>  <MODEL>
6

>  <REMARK>
 VINA RESULT:      -5.3      2.329      9.016
  Name = 
  22 active torsions:
  status: ('A' for Active; 'I' for Inactive)
    1  A    between atoms: C_5  and  C_40
    2  A    between atoms: C_7  and  C_8
    3  A    between atoms: C_7  and  C_43
    4  A    between atoms: C_8  and  C_33
    5  A    between atoms: C_9  and  C_43
    6  A    between atoms: C_9  and  C_53
    7  A    between atoms: S_13  and  C_53
    8  A    between atoms: S_13  and  C_63
    9  A    between atoms: C_14  and  C_38
   10  A    between atoms: C_16  and  C_34
   11  A    between atoms: C_16  and  O_56
   12  A    between atoms: C_20  and  C_33
   13  A    between atoms: N_21  and  C_59
   14  A    between atoms: C_25  and  C_27
   15  A    between atoms: C_30  and  C_35
   16  A    between atoms: C_34  and  C_45
   17  A    between atoms: C_35  and  C_47
   18  A    between atoms: C_43  and  N_60
   19  A    between atoms: C_44  and  C_45
   20  A    between atoms: C_47  and  C_57
   21  A    between atoms: C_50  and  O_56
   22  A    between atoms: C_54  and  C_57
                            x       y       z     vdW  Elec       q    Type
                         _______ _______ _______ _____ _____    ______ ____

>  <TORSDO>
F 22

$$$$
=
 OpenBabel11042416053D

 64 69  0  0  1  0  0  0  0  0999 V2000
  195.6460  172.2150  142.6770 C   0  0  2  0  0  3  0  0  0  0  0  0
  195.6110  177.0720  144.3340 C   0  0  0  0  0  2  0  0  0  0  0  0
  195.7250  175.0940  142.8570 C   0  0  0  0  0  3  0  0  0  0  0  0
  194.4700  176.3700  145.0630 C   0  0  0  0  0  2  0  0  0  0  0  0
  195.8720  176.4110  143.0110 C   0  0  0  0  0  3  0  0  0  0  0  0
  194.7960  174.8870  145.2630 C   0  0  2  0  0  3  0  0  0  0  0  0
  195.2330  174.2440  143.9670 C   0  0  0  0  0  0  0  0  0  0  0  0
  195.2450  172.9470  143.8750 N   0  0  0  0  0  0  0  0  0  0  0  0
  193.6620  174.2400  145.7630 O   0  0  0  0  0  0  0  0  0  0  0  0
  192.9760  175.2090  146.5020 C   0  0  0  0  0  2  0  0  0  0  0  0
  191.4760  174.9240  146.5090 C   0  0  0  0  0  2  0  0  0  0  0  0
  189.1860  175.5760  145.9210 C   0  0  0  0  0  1  0  0  0  0  0  0
  190.4940  177.1120  147.2970 C   0  0  0  0  0  1  0  0  0  0  0  0
  190.5780  176.1180  146.1480 C   0  0  0  0  0  0  0  0  0  0  0  0
  191.2440  175.8500  143.7720 N   0  0  0  0  0  1  0  0  0  0  0  0
  191.0140  176.8050  144.8480 C   0  0  0  0  0  2  0  0  0  0  0  0
  194.5520  171.2890  142.2310 C   0  0  0  0  0  0  0  0  0  0  0  0
  194.7000  170.0770  142.2820 O   0  0  0  0  0  0  0  0  0  0  0  0
  193.2430  171.8660  141.7880 C   0  0  0  0  0  2  0  0  0  0  0  0
  191.8900  171.1880  142.7290 S   0  0  0  0  0  0  0  0  0  0  0  0
  192.3770  170.7930  144.0950 O   0  0  0  0  0  0  0  0  0  0  0  0
  191.3450  169.9760  142.0230 O   0  0  0  0  0  0  0  0  0  0  0  0
  189.9500  172.3330  144.2350 C   0  0  0  0  0  2  0  0  0  0  0  0
  189.2580  171.8350  142.9790 C   0  0  2  0  0  3  0  0  0  0  0  0
  190.6420  172.4550  142.8960 C   0  0  2  0  0  3  0  0  0  0  0  0
  187.2150  172.4190  141.9030 O   0  0  0  0  0  0  0  0  0  0  0  0
  188.4260  174.2180  142.7690 N   0  0  0  0  0  2  0  0  0  0  0  0
  188.2450  172.8240  142.5060 C   0  0  0  0  0  0  0  0  0  0  0  0
  186.4560  178.4440  142.6950 C   0  0  0  0  0  2  0  0  0  0  0  0
  185.7010  176.1520  143.1600 O   0  0  0  0  0  0  0  0  0  0  0  0
  188.2810  176.3940  141.2090 S   0  0  0  0  0  0  0  0  0  0  0  0
  186.6820  177.0130  140.5780 C   0  0  1  0  0  3  0  0  0  0  0  0
  186.9660  175.9030  143.4580 O   0  0  0  0  0  0  0  0  0  0  0  0
  185.4690  177.5210  143.4280 C   0  0  1  0  0  3  0  0  0  0  0  0
  186.3350  178.3830  141.1690 C   0  0  1  0  0  3  0  0  0  0  0  0
  185.0510  178.7700  140.7780 O   0  0  0  0  0  1  0  0  0  0  0  0
  187.4670  175.2240  142.3410 C   0  0  2  0  0  3  0  0  0  0  0  0
  185.1200  176.8330  147.2100 C   0  0  0  0  0  2  0  0  0  0  0  0
  185.4480  177.7990  144.9360 C   0  0  1  0  0  3  0  0  0  0  0  0
  185.2950  176.5010  145.7290 C   0  0  0  0  0  2  0  0  0  0  0  0
  186.8620  178.5940  146.8700 C   0  0  0  0  0  3  0  0  0  0  0  0
  186.1580  177.8090  147.7030 C   0  0  0  0  0  3  0  0  0  0  0  0
  186.7480  178.4840  145.3700 C   0  0  0  0  0  2  0  0  0  0  0  0
  186.7290  177.1000  139.0600 C   0  0  0  0  0  2  0  0  0  0  0  0
  187.0100  175.7350  138.4620 C   0  0  0  0  0  1  0  0  0  0  0  0
  196.9760  171.4930  142.8890 C   0  0  0  0  0  2  0  0  0  0  0  0
  197.8410  171.4720  141.6330 C   0  0  0  0  0  2  0  0  0  0  0  0
  197.7370  172.8090  140.9230 C   0  0  0  0  0  2  0  0  0  0  0  0
  197.2780  175.4360  137.1060 C   0  0  0  0  0  3  0  0  0  0  0  0
  197.3200  172.6640  139.4940 C   0  0  0  0  0  0  0  0  0  0  0  0
  197.1190  174.6620  135.8980 N   0  0  0  0  0  0  0  0  0  0  0  0
  196.8790  172.6070  134.6470 C   0  0  0  0  0  1  0  0  0  0  0  0
  196.4910  171.7120  137.7020 C   0  0  1  0  0  3  0  0  0  0  0  0
  197.0940  173.3610  135.9140 C   0  0  0  0  0  0  0  0  0  0  0  0
  197.9380  173.3830  138.3310 C   0  0  1  0  0  3  0  0  0  0  0  0
  197.2570  172.6780  137.2080 C   0  0  1  0  0  3  0  0  0  0  0  0
  197.6080  174.8530  138.2710 C   0  0  0  0  0  3  0  0  0  0  0  0
  196.5500  171.6930  139.1200 N   0  0  0  0  0  0  0  0  0  0  0  0
  195.4680  170.9430  136.9360 C   0  0  0  0  0  2  0  0  0  0  0  0
  194.0750  171.3050  137.4230 C   0  0  0  0  0  2  0  0  0  0  0  0
  192.4040  172.1950  135.9740 O   0  0  0  0  0  1  0  0  0  0  0  0
  193.0440  171.0110  136.3470 C   0  0  2  0  0  3  0  0  0  0  0  0
  191.1530  169.6370  135.7790 O   0  0  0  0  0  1  0  0  0  0  0  0
  192.0140  169.9900  136.8200 C   0  0  0  0  0  2  0  0  0  0  0  0
  1 46  1  1  0  0  0
  1  8  1  0  0  0  0
  2  4  1  0  0  0  0
  3  5  2  0  0  0  0
  3  7  1  0  0  0  0
  4  6  1  0  0  0  0
  5  2  1  0  0  0  0
  6  9  1  6  0  0  0
  7  6  1  0  0  0  0
  8  7  2  0  0  0  0
  9 10  1  0  0  0  0
 10 11  1  0  0  0  0
 12 14  1  0  0  0  0
 14 11  1  0  0  0  0
 14 13  1  0  0  0  0
 15 16  1  0  0  0  0
 16 14  1  0  0  0  0
 17 18  2  0  0  0  0
 17  1  1  0  0  0  0
 19 17  1  0  0  0  0
 19 20  1  0  0  0  0
 20 21  2  0  0  0  0
 22 20  2  0  0  0  0
 24 28  1  6  0  0  0
 24 23  1  0  0  0  0
 25 20  1  1  0  0  0
 25 24  1  0  0  0  0
 25 23  1  0  0  0  0
 26 28  2  0  0  0  0
 28 27  1  0  0  0  0
 30 34  1  0  0  0  0
 30 33  1  0  0  0  0
 31 37  1  0  0  0  0
 32 44  1  6  0  0  0
 32 35  1  0  0  0  0
 32 31  1  0  0  0  0
 34 29  1  6  0  0  0
 34 39  1  0  0  0  0
 35 36  1  1  0  0  0
 35 29  1  0  0  0  0
 37 27  1  1  0  0  0
 37 33  1  0  0  0  0
 38 42  1  0  0  0  0
 39 43  1  1  0  0  0
 39 40  1  0  0  0  0
 40 38  1  0  0  0  0
 41 42  2  0  0  0  0
 43 41  1  0  0  0  0
 45 44  1  0  0  0  0
 47 46  1  0  0  0  0
 48 47  1  0  0  0  0
 49 57  2  0  0  0  0
 50 48  1  0  0  0  0
 51 54  2  0  0  0  0
 51 49  1  0  0  0  0
 52 54  1  0  0  0  0
 53 59  1  1  0  0  0
 53 58  1  0  0  0  0
 55 57  1  1  0  0  0
 55 50  1  0  0  0  0
 56 54  1  1  0  0  0
 56 53  1  0  0  0  0
 56 55  1  0  0  0  0
 58 50  2  0  0  0  0
 59 60  1  0  0  0  0
 62 61  1  1  0  0  0
 62 64  1  0  0  0  0
 62 60  1  0  0  0  0
 63 64  1  0  0  0  0
M  END
>  <MODEL>
7

>  <REMARK>
 VINA RESULT:      -5.2      2.719      8.561
  Name = 
  22 active torsions:
  status: ('A' for Active; 'I' for Inactive)
    1  A    between atoms: C_5  and  C_40
    2  A    between atoms: C_7  and  C_8
    3  A    between atoms: C_7  and  C_43
    4  A    between atoms: C_8  and  C_33
    5  A    between atoms: C_9  and  C_43
    6  A    between atoms: C_9  and  C_53
    7  A    between atoms: S_13  and  C_53
    8  A    between atoms: S_13  and  C_63
    9  A    between atoms: C_14  and  C_38
   10  A    between atoms: C_16  and  C_34
   11  A    between atoms: C_16  and  O_56
   12  A    between atoms: C_20  and  C_33
   13  A    between atoms: N_21  and  C_59
   14  A    between atoms: C_25  and  C_27
   15  A    between atoms: C_30  and  C_35
   16  A    between atoms: C_34  and  C_45
   17  A    between atoms: C_35  and  C_47
   18  A    between atoms: C_43  and  N_60
   19  A    between atoms: C_44  and  C_45
   20  A    between atoms: C_47  and  C_57
   21  A    between atoms: C_50  and  O_56
   22  A    between atoms: C_54  and  C_57
                            x       y       z     vdW  Elec       q    Type
                         _______ _______ _______ _____ _____    ______ ____

>  <TORSDO>
F 22

$$$$
=
 OpenBabel11042416053D

 64 69  0  0  1  0  0  0  0  0999 V2000
  188.6510  175.9070  142.6660 C   0  0  2  0  0  3  0  0  0  0  0  0
  189.3120  174.1840  147.4550 C   0  0  0  0  0  2  0  0  0  0  0  0
  189.7420  174.8180  145.1050 C   0  0  0  0  0  3  0  0  0  0  0  0
  188.5100  175.4750  147.5790 C   0  0  0  0  0  2  0  0  0  0  0  0
  190.1630  174.2130  146.2180 C   0  0  0  0  0  3  0  0  0  0  0  0
  187.6380  175.6840  146.3370 C   0  0  2  0  0  3  0  0  0  0  0  0
  188.4490  175.5410  145.0700 C   0  0  0  0  0  0  0  0  0  0  0  0
  187.9600  175.9890  143.9510 N   0  0  0  0  0  0  0  0  0  0  0  0
  187.0630  176.9570  146.4000 O   0  0  0  0  0  0  0  0  0  0  0  0
  185.6810  176.7440  146.3550 C   0  0  0  0  0  2  0  0  0  0  0  0
  184.9300  178.0700  146.2710 C   0  0  0  0  0  2  0  0  0  0  0  0
  184.8380  177.5170  143.8830 C   0  0  0  0  0  1  0  0  0  0  0  0
  183.4800  179.3860  144.6770 C   0  0  0  0  0  1  0  0  0  0  0  0
  184.8100  178.6700  144.8620 C   0  0  0  0  0  0  0  0  0  0  0  0
  185.5530  180.8300  143.8930 N   0  0  0  0  0  1  0  0  0  0  0  0
  185.9890  179.5870  144.5130 C   0  0  0  0  0  2  0  0  0  0  0  0
  189.2190  177.2430  142.2850 C   0  0  0  0  0  0  0  0  0  0  0  0
  188.4850  178.1610  141.9500 O   0  0  0  0  0  0  0  0  0  0  0  0
  190.6950  177.4660  142.3920 C   0  0  0  0  0  2  0  0  0  0  0  0
  191.1430  178.0580  144.0120 S   0  0  0  0  0  0  0  0  0  0  0  0
  189.8970  178.2910  144.8220 O   0  0  0  0  0  0  0  0  0  0  0  0
  191.9040  179.3500  143.8830 O   0  0  0  0  0  0  0  0  0  0  0  0
  193.5360  177.3110  145.0390 C   0  0  0  0  0  2  0  0  0  0  0  0
  193.2600  176.3520  143.8960 C   0  0  2  0  0  3  0  0  0  0  0  0
  192.1310  176.8010  144.8070 C   0  0  2  0  0  3  0  0  0  0  0  0
  194.2410  174.7520  145.3620 O   0  0  0  0  0  0  0  0  0  0  0  0
  193.3740  173.8750  143.3790 N   0  0  0  0  0  2  0  0  0  0  0  0
  193.6670  174.9620  144.2600 C   0  0  0  0  0  0  0  0  0  0  0  0
  194.8880  169.5690  142.4270 C   0  0  0  0  0  2  0  0  0  0  0  0
  192.8620  170.5500  143.4130 O   0  0  0  0  0  0  0  0  0  0  0  0
  195.5510  172.3420  143.6950 S   0  0  0  0  0  0  0  0  0  0  0  0
  195.4850  170.7650  144.6160 C   0  0  1  0  0  3  0  0  0  0  0  0
  193.1810  171.6400  142.7360 O   0  0  0  0  0  0  0  0  0  0  0  0
  193.3790  169.4450  142.6990 C   0  0  1  0  0  3  0  0  0  0  0  0
  195.7420  169.5660  143.6990 C   0  0  1  0  0  3  0  0  0  0  0  0
  195.5520  168.3710  144.3970 O   0  0  0  0  0  1  0  0  0  0  0  0
  193.7370  172.5010  143.6890 C   0  0  2  0  0  3  0  0  0  0  0  0
  190.5260  169.7240  140.1140 C   0  0  0  0  0  2  0  0  0  0  0  0
  192.5910  169.1970  141.4080 C   0  0  1  0  0  3  0  0  0  0  0  0
  191.3680  170.1100  141.3290 C   0  0  0  0  0  2  0  0  0  0  0  0
  192.6900  169.4290  138.8960 C   0  0  0  0  0  3  0  0  0  0  0  0
  191.3580  169.5980  138.8620 C   0  0  0  0  0  3  0  0  0  0  0  0
  193.4750  169.4620  140.1840 C   0  0  0  0  0  2  0  0  0  0  0  0
  196.5080  170.7860  145.7410 C   0  0  0  0  0  2  0  0  0  0  0  0
  196.8300  172.2160  146.1360 C   0  0  0  0  0  1  0  0  0  0  0  0
  187.7410  175.3270  141.5850 C   0  0  0  0  0  2  0  0  0  0  0  0
  188.2950  174.0430  140.9780 C   0  0  0  0  0  2  0  0  0  0  0  0
  189.7570  173.8930  141.3540 C   0  0  0  0  0  2  0  0  0  0  0  0
  189.3680  172.0720  137.0860 C   0  0  0  0  0  3  0  0  0  0  0  0
  190.6210  173.5920  140.1690 C   0  0  0  0  0  0  0  0  0  0  0  0
  190.5190  172.3220  136.2530 N   0  0  0  0  0  0  0  0  0  0  0  0
  192.7380  173.1720  135.8070 C   0  0  0  0  0  1  0  0  0  0  0  0
  192.4570  173.3550  138.9960 C   0  0  1  0  0  3  0  0  0  0  0  0
  191.5530  172.9810  136.6890 C   0  0  0  0  0  0  0  0  0  0  0  0
  190.2040  173.7260  138.7340 C   0  0  1  0  0  3  0  0  0  0  0  0
  191.5180  173.4970  138.0680 C   0  0  1  0  0  3  0  0  0  0  0  0
  189.2230  172.6750  138.2780 C   0  0  0  0  0  3  0  0  0  0  0  0
  191.8990  173.4370  140.2990 N   0  0  0  0  0  0  0  0  0  0  0  0
  193.8480  172.8730  138.7530 C   0  0  0  0  0  2  0  0  0  0  0  0
  194.7120  173.1500  139.9710 C   0  0  0  0  0  2  0  0  0  0  0  0
  196.9330  173.9860  140.2130 O   0  0  0  0  0  1  0  0  0  0  0  0
  195.6750  174.2920  139.6890 C   0  0  2  0  0  3  0  0  0  0  0  0
  196.1590  176.2100  141.0580 O   0  0  0  0  0  1  0  0  0  0  0  0
  195.1720  175.6070  140.2750 C   0  0  0  0  0  2  0  0  0  0  0  0
  1 46  1  6  0  0  0
  1  8  1  0  0  0  0
  2  4  1  0  0  0  0
  3  5  2  0  0  0  0
  5  2  1  0  0  0  0
  6  9  1  1  0  0  0
  6  4  1  0  0  0  0
  7  3  1  0  0  0  0
  7  6  1  0  0  0  0
  8  7  2  0  0  0  0
 10  9  1  0  0  0  0
 11 10  1  0  0  0  0
 12 14  1  0  0  0  0
 13 14  1  0  0  0  0
 14 11  1  0  0  0  0
 15 16  1  0  0  0  0
 16 14  1  0  0  0  0
 17 19  1  0  0  0  0
 17  1  1  0  0  0  0
 18 17  2  0  0  0  0
 19 20  1  0  0  0  0
 20 21  2  0  0  0  0
 22 20  2  0  0  0  0
 24 28  1  1  0  0  0
 24 25  1  0  0  0  0
 24 23  1  0  0  0  0
 25 20  1  6  0  0  0
 25 23  1  0  0  0  0
 27 28  1  0  0  0  0
 28 26  2  0  0  0  0
 29 35  1  0  0  0  0
 31 32  1  0  0  0  0
 32 44  1  1  0  0  0
 33 30  1  0  0  0  0
 33 37  1  0  0  0  0
 34 29  1  6  0  0  0
 34 30  1  0  0  0  0
 35 36  1  1  0  0  0
 35 32  1  0  0  0  0
 37 27  1  6  0  0  0
 37 31  1  0  0  0  0
 38 40  1  0  0  0  0
 39 43  1  6  0  0  0
 39 34  1  0  0  0  0
 40 39  1  0  0  0  0
 41 43  1  0  0  0  0
 42 41  2  0  0  0  0
 42 38  1  0  0  0  0
 44 45  1  0  0  0  0
 47 48  1  0  0  0  0
 47 46  1  0  0  0  0
 49 57  2  0  0  0  0
 50 58  2  0  0  0  0
 50 48  1  0  0  0  0
 51 54  2  0  0  0  0
 51 49  1  0  0  0  0
 52 54  1  0  0  0  0
 53 59  1  6  0  0  0
 53 58  1  0  0  0  0
 55 57  1  6  0  0  0
 55 50  1  0  0  0  0
 56 54  1  1  0  0  0
 56 55  1  0  0  0  0
 56 53  1  0  0  0  0
 59 60  1  0  0  0  0
 62 60  1  0  0  0  0
 62 61  1  1  0  0  0
 62 64  1  0  0  0  0
 64 63  1  0  0  0  0
M  END
>  <MODEL>
8

>  <REMARK>
 VINA RESULT:      -4.6      2.226      5.241
  Name = 
  22 active torsions:
  status: ('A' for Active; 'I' for Inactive)
    1  A    between atoms: C_5  and  C_40
    2  A    between atoms: C_7  and  C_8
    3  A    between atoms: C_7  and  C_43
    4  A    between atoms: C_8  and  C_33
    5  A    between atoms: C_9  and  C_43
    6  A    between atoms: C_9  and  C_53
    7  A    between atoms: S_13  and  C_53
    8  A    between atoms: S_13  and  C_63
    9  A    between atoms: C_14  and  C_38
   10  A    between atoms: C_16  and  C_34
   11  A    between atoms: C_16  and  O_56
   12  A    between atoms: C_20  and  C_33
   13  A    between atoms: N_21  and  C_59
   14  A    between atoms: C_25  and  C_27
   15  A    between atoms: C_30  and  C_35
   16  A    between atoms: C_34  and  C_45
   17  A    between atoms: C_35  and  C_47
   18  A    between atoms: C_43  and  N_60
   19  A    between atoms: C_44  and  C_45
   20  A    between atoms: C_47  and  C_57
   21  A    between atoms: C_50  and  O_56
   22  A    between atoms: C_54  and  C_57
                            x       y       z     vdW  Elec       q    Type
                         _______ _______ _______ _____ _____    ______ ____

>  <TORSDO>
F 22

$$$$
=
 OpenBabel11042416053D

 64 69  0  0  1  0  0  0  0  0999 V2000
  189.1960  173.3850  141.2800 C   0  0  2  0  0  3  0  0  0  0  0  0
  191.2290  170.6110  137.4700 C   0  0  0  0  0  2  0  0  0  0  0  0
  189.6320  171.5150  139.1260 C   0  0  0  0  0  3  0  0  0  0  0  0
  191.6830  172.0480  137.2330 C   0  0  0  0  0  2  0  0  0  0  0  0
  189.9220  170.5900  138.2080 C   0  0  0  0  0  3  0  0  0  0  0  0
  191.8100  172.7950  138.5650 C   0  0  2  0  0  3  0  0  0  0  0  0
  190.5620  172.6360  139.4010 C   0  0  0  0  0  0  0  0  0  0  0  0
  190.3630  173.4420  140.4030 N   0  0  0  0  0  0  0  0  0  0  0  0
  192.0450  174.1470  138.3020 O   0  0  0  0  0  0  0  0  0  0  0  0
  193.2460  174.4500  138.9510 C   0  0  0  0  0  2  0  0  0  0  0  0
  194.3650  173.5220  138.4830 C   0  0  0  0  0  2  0  0  0  0  0  0
  196.0970  173.0290  136.8180 C   0  0  0  0  0  1  0  0  0  0  0  0
  194.7090  175.0080  136.4720 C   0  0  0  0  0  1  0  0  0  0  0  0
  195.3920  174.1590  137.5340 C   0  0  0  0  0  0  0  0  0  0  0  0
  197.3640  175.6560  137.3730 N   0  0  0  0  0  1  0  0  0  0  0  0
  196.4640  174.9590  138.2830 C   0  0  0  0  0  2  0  0  0  0  0  0
  188.1730  174.4010  140.8650 C   0  0  0  0  0  0  0  0  0  0  0  0
  188.2160  174.9120  139.7550 O   0  0  0  0  0  0  0  0  0  0  0  0
  187.0500  174.7300  141.7990 C   0  0  0  0  0  2  0  0  0  0  0  0
  186.8940  176.4910  142.0240 S   0  0  0  0  0  0  0  0  0  0  0  0
  185.6410  176.7880  142.8010 O   0  0  0  0  0  0  0  0  0  0  0  0
  186.8200  177.1650  140.6800 O   0  0  0  0  0  0  0  0  0  0  0  0
  188.5380  178.5320  142.7110 C   0  0  0  0  0  2  0  0  0  0  0  0
  189.4180  177.5080  142.0200 C   0  0  2  0  0  3  0  0  0  0  0  0
  188.3090  177.0580  142.9550 C   0  0  2  0  0  3  0  0  0  0  0  0
  191.0350  178.2060  143.6240 O   0  0  0  0  0  0  0  0  0  0  0  0
  191.6250  176.3180  142.3830 N   0  0  0  0  0  2  0  0  0  0  0  0
  190.7330  177.3840  142.7180 C   0  0  0  0  0  0  0  0  0  0  0  0
  194.5930  174.5200  145.4970 C   0  0  0  0  0  2  0  0  0  0  0  0
  193.8270  176.7730  144.8850 O   0  0  0  0  0  0  0  0  0  0  0  0
  193.6400  174.5550  142.5260 S   0  0  0  0  0  0  0  0  0  0  0  0
  195.3050  175.0510  143.0910 C   0  0  1  0  0  3  0  0  0  0  0  0
  192.7420  176.1720  144.4260 O   0  0  0  0  0  0  0  0  0  0  0  0
  194.3400  175.9730  145.9320 C   0  0  1  0  0  3  0  0  0  0  0  0
  195.6720  174.3810  144.4190 C   0  0  1  0  0  3  0  0  0  0  0  0
  196.8870  174.8790  144.8950 O   0  0  0  0  0  1  0  0  0  0  0  0
  192.9120  176.1440  143.0370 C   0  0  2  0  0  3  0  0  0  0  0  0
  192.1240  177.5200  148.6880 C   0  0  0  0  0  2  0  0  0  0  0  0
  193.4490  176.0440  147.1770 C   0  0  1  0  0  3  0  0  0  0  0  0
  192.8740  177.4480  147.3580 C   0  0  0  0  0  2  0  0  0  0  0  0
  191.2710  175.2300  148.1600 C   0  0  0  0  0  3  0  0  0  0  0  0
  191.1670  176.3680  148.8660 C   0  0  0  0  0  3  0  0  0  0  0  0
  192.2850  175.0540  147.0580 C   0  0  0  0  0  2  0  0  0  0  0  0
  196.3340  174.6930  142.0290 C   0  0  0  0  0  2  0  0  0  0  0  0
  196.2760  173.2100  141.7170 C   0  0  0  0  0  1  0  0  0  0  0  0
  189.6000  173.5240  142.7470 C   0  0  0  0  0  2  0  0  0  0  0  0
  189.7600  172.1760  143.4420 C   0  0  0  0  0  2  0  0  0  0  0  0
  190.9410  172.2330  144.3940 C   0  0  0  0  0  2  0  0  0  0  0  0
  191.9100  169.0550  141.1320 C   0  0  0  0  0  3  0  0  0  0  0  0
  192.1110  171.4430  143.8960 C   0  0  0  0  0  0  0  0  0  0  0  0
  193.3250  168.8740  140.9150 N   0  0  0  0  0  0  0  0  0  0  0  0
  195.6650  169.2800  141.3700 C   0  0  0  0  0  1  0  0  0  0  0  0
  194.1410  170.6200  143.8540 C   0  0  1  0  0  3  0  0  0  0  0  0
  194.2140  169.5380  141.5940 C   0  0  0  0  0  0  0  0  0  0  0  0
  192.3770  171.0960  142.4610 C   0  0  1  0  0  3  0  0  0  0  0  0
  193.7420  170.5130  142.5910 C   0  0  1  0  0  3  0  0  0  0  0  0
  191.4420  170.0560  141.8960 C   0  0  0  0  0  3  0  0  0  0  0  0
  193.1340  171.2180  144.6550 N   0  0  0  0  0  0  0  0  0  0  0  0
  195.3340  169.9450  144.4430 C   0  0  0  0  0  2  0  0  0  0  0  0
  195.8010  170.7020  145.6750 C   0  0  0  0  0  2  0  0  0  0  0  0
  197.9370  169.6830  145.3770 O   0  0  0  0  0  1  0  0  0  0  0  0
  196.9630  169.9770  146.3340 C   0  0  2  0  0  3  0  0  0  0  0  0
  197.1180  168.5580  148.2700 O   0  0  0  0  0  1  0  0  0  0  0  0
  196.5050  168.6950  147.0230 C   0  0  0  0  0  2  0  0  0  0  0  0
  1 46  1  1  0  0  0
  2  5  1  0  0  0  0
  3  7  1  0  0  0  0
  4  2  1  0  0  0  0
  4  6  1  0  0  0  0
  5  3  2  0  0  0  0
  6  9  1  6  0  0  0
  6  7  1  0  0  0  0
  7  8  2  0  0  0  0
  8  1  1  0  0  0  0
  9 10  1  0  0  0  0
 11 10  1  0  0  0  0
 12 14  1  0  0  0  0
 13 14  1  0  0  0  0
 14 16  1  0  0  0  0
 14 11  1  0  0  0  0
 15 16  1  0  0  0  0
 17  1  1  0  0  0  0
 17 19  1  0  0  0  0
 18 17  2  0  0  0  0
 19 20  1  0  0  0  0
 20 21  2  0  0  0  0
 22 20  2  0  0  0  0
 23 25  1  0  0  0  0
 24 23  1  0  0  0  0
 24 28  1  1  0  0  0
 24 25  1  0  0  0  0
 25 20  1  6  0  0  0
 27 28  1  0  0  0  0
 28 26  2  0  0  0  0
 30 34  1  0  0  0  0
 31 37  1  0  0  0  0
 31 32  1  0  0  0  0
 32 44  1  6  0  0  0
 32 35  1  0  0  0  0
 33 30  1  0  0  0  0
 34 29  1  6  0  0  0
 34 39  1  0  0  0  0
 35 36  1  1  0  0  0
 35 29  1  0  0  0  0
 37 27  1  6  0  0  0
 37 33  1  0  0  0  0
 38 42  1  0  0  0  0
 39 43  1  6  0  0  0
 39 40  1  0  0  0  0
 40 38  1  0  0  0  0
 41 42  2  0  0  0  0
 43 41  1  0  0  0  0
 45 44  1  0  0  0  0
 46 47  1  0  0  0  0
 47 48  1  0  0  0  0
 49 57  2  0  0  0  0
 50 48  1  0  0  0  0
 50 58  2  0  0  0  0
 51 49  1  0  0  0  0
 51 54  2  0  0  0  0
 52 54  1  0  0  0  0
 53 59  1  1  0  0  0
 53 58  1  0  0  0  0
 55 57  1  1  0  0  0
 55 56  1  0  0  0  0
 55 50  1  0  0  0  0
 56 54  1  1  0  0  0
 56 53  1  0  0  0  0
 59 60  1  0  0  0  0
 60 62  1  0  0  0  0
 62 61  1  6  0  0  0
 62 64  1  0  0  0  0
 64 63  1  0  0  0  0
M  END
>  <MODEL>
9

>  <REMARK>
 VINA RESULT:      -4.5      2.400      7.238
  Name = 
  22 active torsions:
  status: ('A' for Active; 'I' for Inactive)
    1  A    between atoms: C_5  and  C_40
    2  A    between atoms: C_7  and  C_8
    3  A    between atoms: C_7  and  C_43
    4  A    between atoms: C_8  and  C_33
    5  A    between atoms: C_9  and  C_43
    6  A    between atoms: C_9  and  C_53
    7  A    between atoms: S_13  and  C_53
    8  A    between atoms: S_13  and  C_63
    9  A    between atoms: C_14  and  C_38
   10  A    between atoms: C_16  and  C_34
   11  A    between atoms: C_16  and  O_56
   12  A    between atoms: C_20  and  C_33
   13  A    between atoms: N_21  and  C_59
   14  A    between atoms: C_25  and  C_27
   15  A    between atoms: C_30  and  C_35
   16  A    between atoms: C_34  and  C_45
   17  A    between atoms: C_35  and  C_47
   18  A    between atoms: C_43  and  N_60
   19  A    between atoms: C_44  and  C_45
   20  A    between atoms: C_47  and  C_57
   21  A    between atoms: C_50  and  O_56
   22  A    between atoms: C_54  and  C_57
                            x       y       z     vdW  Elec       q    Type
                         _______ _______ _______ _____ _____    ______ ____

>  <TORSDO>
F 22

$$$$
