=
 OpenBabel11042419013D

 41 44  0  0  1  0  0  0  0  0999 V2000
  189.8180  177.2580  146.6670 C   0  0  0  0  0  0  0  0  0  0  0  0
  191.8670  176.2340  147.6000 C   0  0  0  0  0  3  0  0  0  0  0  0
  190.2250  177.4480  145.3310 C   0  0  0  0  0  0  0  0  0  0  0  0
  189.2570  177.6560  144.3480 C   0  0  0  0  0  3  0  0  0  0  0  0
  188.4950  177.3160  146.9800 N   0  0  0  0  0  0  0  0  0  0  0  0
  187.9020  177.6660  144.6870 C   0  0  0  0  0  0  0  0  0  0  0  0
  190.7950  177.0180  147.7460 C   0  0  0  0  0  3  0  0  0  0  0  0
  192.4840  176.2940  145.1260 C   0  0  2  0  0  3  0  0  0  0  0  0
  191.6750  177.5860  144.9700 C   0  0  0  0  0  2  0  0  0  0  0  0
  187.5420  177.5160  146.0320 C   0  0  0  0  0  3  0  0  0  0  0  0
  192.1210  175.4410  146.3500 C   0  0  0  0  0  2  0  0  0  0  0  0
  186.8780  177.9300  143.6150 C   0  0  1  0  0  3  0  0  0  0  0  0
  185.9440  179.0350  143.9140 C   0  0  0  0  0  0  0  0  0  0  0  0
  185.1790  179.9350  144.1550 C   0  0  0  0  0  3  0  0  0  0  0  0
  187.4170  177.9820  142.3090 O   0  0  0  0  0  0  0  0  0  0  0  0
  186.8430  176.9640  141.5250 C   0  0  0  0  0  2  0  0  0  0  0  0
  187.1670  175.6030  142.1220 C   0  0  0  0  0  2  0  0  0  0  0  0
  188.4960  175.0710  141.6010 C   0  0  0  0  0  2  0  0  0  0  0  0
  189.0740  172.6680  142.0260 C   0  0  0  0  0  3  0  0  0  0  0  0
  189.5690  171.6550  142.8550 C   0  0  0  0  0  3  0  0  0  0  0  0
  189.4800  174.2980  143.7750 C   0  0  0  0  0  3  0  0  0  0  0  0
  190.0190  171.9630  144.1440 C   0  0  0  0  0  3  0  0  0  0  0  0
  189.9730  173.2850  144.6040 C   0  0  0  0  0  3  0  0  0  0  0  0
  189.0320  173.9920  142.4820 C   0  0  0  0  0  0  0  0  0  0  0  0
  193.8460  176.6080  145.1570 O   0  0  0  0  0  0  0  0  0  0  0  0
  194.4890  175.5490  144.5000 C   0  0  1  0  0  3  0  0  0  0  0  0
  196.3290  176.2430  143.1270 O   0  0  0  0  0  1  0  0  0  0  0  0
  194.9550  175.9840  143.1090 C   0  0  1  0  0  3  0  0  0  0  0  0
  194.6580  174.9010  142.0810 C   0  0  0  0  0  2  0  0  0  0  0  0
  193.1580  174.7030  141.9180 C   0  0  0  0  0  2  0  0  0  0  0  0
  192.8230  173.2220  141.8750 C   0  0  0  0  0  2  0  0  0  0  0  0
  192.4470  172.8080  140.4640 C   0  0  0  0  0  2  0  0  0  0  0  0
  191.6420  173.7880  139.8780 O   0  0  0  0  0  1  0  0  0  0  0  0
  195.6560  175.0280  145.3480 C   0  0  0  0  0  2  0  0  0  0  0  0
  194.5110  172.8010  145.1370 C   0  0  0  0  0  3  0  0  0  0  0  0
  194.5190  171.4070  145.2410 C   0  0  0  0  0  0  0  0  0  0  0  0
  196.7990  172.8720  145.9290 C   0  0  0  0  0  3  0  0  0  0  0  0
  193.3900  170.6790  144.8950 O   0  0  0  0  0  1  0  0  0  0  0  0
  196.8070  171.4780  146.0330 C   0  0  0  0  0  3  0  0  0  0  0  0
  195.6510  173.5370  145.4840 C   0  0  0  0  0  0  0  0  0  0  0  0
  195.6670  170.7460  145.6880 C   0  0  0  0  0  3  0  0  0  0  0  0
  1  5  1  0  0  0  0
  1  7  1  0  0  0  0
  2  7  2  0  0  0  0
  3  1  2  0  0  0  0
  4  6  2  0  0  0  0
  4  3  1  0  0  0  0
  6 10  1  0  0  0  0
  8 25  1  1  0  0  0
  8 11  1  0  0  0  0
  9  8  1  0  0  0  0
  9  3  1  0  0  0  0
 10  5  2  0  0  0  0
 11  2  1  0  0  0  0
 12 13  1  1  0  0  0
 12  6  1  0  0  0  0
 13 14  3  0  0  0  0
 15 12  1  0  0  0  0
 16 17  1  0  0  0  0
 16 15  1  0  0  0  0
 18 17  1  0  0  0  0
 18 24  1  0  0  0  0
 19 24  2  0  0  0  0
 19 20  1  0  0  0  0
 20 22  2  0  0  0  0
 21 23  2  0  0  0  0
 22 23  1  0  0  0  0
 24 21  1  0  0  0  0
 26 25  1  0  0  0  0
 26 34  1  1  0  0  0
 28 27  1  1  0  0  0
 28 26  1  0  0  0  0
 29 28  1  0  0  0  0
 30 29  1  0  0  0  0
 31 30  1  0  0  0  0
 32 31  1  0  0  0  0
 33 32  1  0  0  0  0
 34 40  1  0  0  0  0
 35 36  2  0  0  0  0
 35 40  1  0  0  0  0
 36 41  1  0  0  0  0
 37 39  1  0  0  0  0
 38 36  1  0  0  0  0
 40 37  2  0  0  0  0
 41 39  2  0  0  0  0
M  END
>  <MODEL>
1

>  <REMARK>
 VINA RESULT:      -6.7      0.000      0.000
  Name = 
  16 active torsions:
  status: ('A' for Active; 'I' for Inactive)
    1  A    between atoms: C_5  and  C_28
    2  A    between atoms: C_5  and  C_35
    3  A    between atoms: C_7  and  C_11
    4  A    between atoms: C_7  and  C_37
    5  A    between atoms: O_9  and  C_11
    6  A    between atoms: O_9  and  C_31
    7  A    between atoms: C_10  and  O_12
    8  A    between atoms: C_10  and  C_28
    9  A    between atoms: C_11  and  C_39
   10  A    between atoms: O_12  and  C_23
   11  A    between atoms: C_15  and  C_17
   12  A    between atoms: C_15  and  C_39
   13  A    between atoms: C_17  and  C_30
   14  A    between atoms: C_21  and  C_23
   15  A    between atoms: C_23  and  C_26
   16  A    between atoms: C_29  and  C_30
                            x       y       z     vdW  Elec       q    Type
                         _______ _______ _______ _____ _____    ______ ____

>  <TORSDO>
F 16

$$$$
=
 OpenBabel11042419013D

 41 44  0  0  1  0  0  0  0  0999 V2000
  190.8190  172.6610  141.6320 C   0  0  0  0  0  0  0  0  0  0  0  0
  188.5920  172.6840  140.5560 C   0  0  0  0  0  3  0  0  0  0  0  0
  190.7080  173.8030  142.4520 C   0  0  0  0  0  0  0  0  0  0  0  0
  191.5920  173.9620  143.5190 C   0  0  0  0  0  3  0  0  0  0  0  0
  191.8060  171.7560  141.8720 N   0  0  0  0  0  0  0  0  0  0  0  0
  192.5680  172.9960  143.7730 C   0  0  0  0  0  0  0  0  0  0  0  0
  189.9020  172.4310  140.4990 C   0  0  0  0  0  3  0  0  0  0  0  0
  188.2840  174.5550  142.2620 C   0  0  2  0  0  3  0  0  0  0  0  0
  189.7660  174.9180  142.1100 C   0  0  0  0  0  2  0  0  0  0  0  0
  192.6730  171.8980  142.9090 C   0  0  0  0  0  3  0  0  0  0  0  0
  187.9130  173.1330  141.8180 C   0  0  0  0  0  2  0  0  0  0  0  0
  193.5360  173.2090  144.9070 C   0  0  1  0  0  3  0  0  0  0  0  0
  194.1720  171.9760  145.4130 C   0  0  0  0  0  0  0  0  0  0  0  0
  194.6960  170.9710  145.8250 C   0  0  0  0  0  3  0  0  0  0  0  0
  194.4460  174.2690  144.6920 O   0  0  0  0  0  0  0  0  0  0  0  0
  194.9330  174.7270  145.9300 C   0  0  0  0  0  2  0  0  0  0  0  0
  194.3020  176.0690  146.2720 C   0  0  0  0  0  2  0  0  0  0  0  0
  192.8710  175.8980  146.7680 C   0  0  0  0  0  2  0  0  0  0  0  0
  190.5640  176.7520  146.2840 C   0  0  0  0  0  3  0  0  0  0  0  0
  189.6540  177.4230  145.4590 C   0  0  0  0  0  3  0  0  0  0  0  0
  192.3260  177.1560  144.6690 C   0  0  0  0  0  3  0  0  0  0  0  0
  190.0790  177.9600  144.2380 C   0  0  0  0  0  3  0  0  0  0  0  0
  191.4160  177.8250  143.8430 C   0  0  0  0  0  3  0  0  0  0  0  0
  191.9020  176.6210  145.8920 C   0  0  0  0  0  0  0  0  0  0  0  0
  187.5110  175.4860  141.5610 O   0  0  0  0  0  0  0  0  0  0  0  0
  187.2920  176.5410  142.4580 C   0  0  1  0  0  3  0  0  0  0  0  0
  188.3860  178.3100  141.2630 O   0  0  0  0  0  1  0  0  0  0  0  0
  187.1370  177.8630  141.7040 C   0  0  1  0  0  3  0  0  0  0  0  0
  186.2100  177.6930  140.5080 C   0  0  0  0  0  2  0  0  0  0  0  0
  185.0010  178.6100  140.6230 C   0  0  0  0  0  2  0  0  0  0  0  0
  183.7470  177.8900  140.1570 C   0  0  0  0  0  2  0  0  0  0  0  0
  182.5770  178.2330  141.0600 C   0  0  0  0  0  2  0  0  0  0  0  0
  183.0060  178.3130  142.3870 O   0  0  0  0  0  1  0  0  0  0  0  0
  186.0700  176.2470  143.3370 C   0  0  0  0  0  2  0  0  0  0  0  0
  186.0540  176.6480  145.8180 C   0  0  0  0  0  3  0  0  0  0  0  0
  185.9910  177.5100  146.9170 C   0  0  0  0  0  0  0  0  0  0  0  0
  185.8340  178.5410  144.3230 C   0  0  0  0  0  3  0  0  0  0  0  0
  186.0730  176.9990  148.2040 O   0  0  0  0  0  1  0  0  0  0  0  0
  185.7700  179.4020  145.4220 C   0  0  0  0  0  3  0  0  0  0  0  0
  185.9740  177.1620  144.5180 C   0  0  0  0  0  0  0  0  0  0  0  0
  185.8490  178.8860  146.7190 C   0  0  0  0  0  3  0  0  0  0  0  0
  1  5  2  0  0  0  0
  1  3  1  0  0  0  0
  2 11  1  0  0  0  0
  3  4  2  0  0  0  0
  4  6  1  0  0  0  0
  5 10  1  0  0  0  0
  6 12  1  0  0  0  0
  7  2  2  0  0  0  0
  7  1  1  0  0  0  0
  8 25  1  6  0  0  0
  9  8  1  0  0  0  0
  9  3  1  0  0  0  0
 10  6  2  0  0  0  0
 11  8  1  0  0  0  0
 12 13  1  6  0  0  0
 13 14  3  0  0  0  0
 15 12  1  0  0  0  0
 15 16  1  0  0  0  0
 16 17  1  0  0  0  0
 17 18  1  0  0  0  0
 20 19  2  0  0  0  0
 21 24  2  0  0  0  0
 22 20  1  0  0  0  0
 23 22  2  0  0  0  0
 23 21  1  0  0  0  0
 24 19  1  0  0  0  0
 24 18  1  0  0  0  0
 25 26  1  0  0  0  0
 26 34  1  6  0  0  0
 28 27  1  6  0  0  0
 28 26  1  0  0  0  0
 29 30  1  0  0  0  0
 29 28  1  0  0  0  0
 31 30  1  0  0  0  0
 31 32  1  0  0  0  0
 32 33  1  0  0  0  0
 34 40  1  0  0  0  0
 35 36  1  0  0  0  0
 36 38  1  0  0  0  0
 37 40  1  0  0  0  0
 37 39  2  0  0  0  0
 39 41  1  0  0  0  0
 40 35  2  0  0  0  0
 41 36  2  0  0  0  0
M  END
>  <MODEL>
2

>  <REMARK>
 VINA RESULT:      -6.6      2.424      8.675
  Name = 
  16 active torsions:
  status: ('A' for Active; 'I' for Inactive)
    1  A    between atoms: C_5  and  C_28
    2  A    between atoms: C_5  and  C_35
    3  A    between atoms: C_7  and  C_11
    4  A    between atoms: C_7  and  C_37
    5  A    between atoms: O_9  and  C_11
    6  A    between atoms: O_9  and  C_31
    7  A    between atoms: C_10  and  O_12
    8  A    between atoms: C_10  and  C_28
    9  A    between atoms: C_11  and  C_39
   10  A    between atoms: O_12  and  C_23
   11  A    between atoms: C_15  and  C_17
   12  A    between atoms: C_15  and  C_39
   13  A    between atoms: C_17  and  C_30
   14  A    between atoms: C_21  and  C_23
   15  A    between atoms: C_23  and  C_26
   16  A    between atoms: C_29  and  C_30
                            x       y       z     vdW  Elec       q    Type
                         _______ _______ _______ _____ _____    ______ ____

>  <TORSDO>
F 16

$$$$
=
 OpenBabel11042419013D

 41 44  0  0  1  0  0  0  0  0999 V2000
  189.7870  177.2290  146.7620 C   0  0  0  0  0  0  0  0  0  0  0  0
  191.7030  176.0850  147.8290 C   0  0  0  0  0  3  0  0  0  0  0  0
  190.2100  177.2140  145.4170 C   0  0  0  0  0  0  0  0  0  0  0  0
  189.2700  177.4190  144.4070 C   0  0  0  0  0  3  0  0  0  0  0  0
  188.4820  177.4790  147.0520 N   0  0  0  0  0  0  0  0  0  0  0  0
  187.9270  177.6290  144.7280 C   0  0  0  0  0  0  0  0  0  0  0  0
  190.7320  177.0020  147.8720 C   0  0  0  0  0  3  0  0  0  0  0  0
  192.3150  175.7850  145.3710 C   0  0  2  0  0  3  0  0  0  0  0  0
  191.6640  177.1370  145.0590 C   0  0  0  0  0  2  0  0  0  0  0  0
  187.5550  177.6790  146.0780 C   0  0  0  0  0  3  0  0  0  0  0  0
  191.8570  175.1280  146.6820 C   0  0  0  0  0  2  0  0  0  0  0  0
  186.9380  177.8860  143.6220 C   0  0  1  0  0  3  0  0  0  0  0  0
  185.9960  178.9930  143.8840 C   0  0  0  0  0  0  0  0  0  0  0  0
  185.2300  179.9000  144.0970 C   0  0  0  0  0  3  0  0  0  0  0  0
  187.5190  177.9290  142.3340 O   0  0  0  0  0  0  0  0  0  0  0  0
  186.8680  177.0040  141.4960 C   0  0  0  0  0  2  0  0  0  0  0  0
  187.2010  175.5850  141.9310 C   0  0  0  0  0  2  0  0  0  0  0  0
  188.6270  175.2070  141.5470 C   0  0  0  0  0  2  0  0  0  0  0  0
  189.2100  172.7720  141.6780 C   0  0  0  0  0  3  0  0  0  0  0  0
  189.6440  171.6530  142.3980 C   0  0  0  0  0  3  0  0  0  0  0  0
  189.4130  174.1340  143.6730 C   0  0  0  0  0  3  0  0  0  0  0  0
  189.9620  171.7740  143.7560 C   0  0  0  0  0  3  0  0  0  0  0  0
  189.8450  173.0150  144.3940 C   0  0  0  0  0  3  0  0  0  0  0  0
  189.0980  174.0150  142.3130 C   0  0  0  0  0  0  0  0  0  0  0  0
  193.7050  175.9370  145.3800 O   0  0  0  0  0  0  0  0  0  0  0  0
  194.1690  175.1920  144.2870 C   0  0  1  0  0  3  0  0  0  0  0  0
  196.4150  176.0120  144.0960 O   0  0  0  0  0  1  0  0  0  0  0  0
  195.6600  174.8860  144.4390 C   0  0  1  0  0  3  0  0  0  0  0  0
  195.9810  174.4810  145.8720 C   0  0  0  0  0  2  0  0  0  0  0  0
  197.2000  173.5720  145.9190 C   0  0  0  0  0  2  0  0  0  0  0  0
  196.7810  172.1200  145.7640 C   0  0  0  0  0  2  0  0  0  0  0  0
  197.6700  171.4210  144.7510 C   0  0  0  0  0  2  0  0  0  0  0  0
  197.7550  172.1840  143.5840 O   0  0  0  0  0  1  0  0  0  0  0  0
  193.3440  173.9080  144.1300 C   0  0  0  0  0  2  0  0  0  0  0  0
  193.3150  172.2210  142.2670 C   0  0  0  0  0  3  0  0  0  0  0  0
  193.0750  171.8760  140.9340 C   0  0  0  0  0  0  0  0  0  0  0  0
  192.6750  174.5080  141.7880 C   0  0  0  0  0  3  0  0  0  0  0  0
  193.2700  170.5690  140.5100 O   0  0  0  0  0  1  0  0  0  0  0  0
  192.4370  174.1630  140.4550 C   0  0  0  0  0  3  0  0  0  0  0  0
  193.1170  173.5390  142.6970 C   0  0  0  0  0  0  0  0  0  0  0  0
  192.6370  172.8460  140.0280 C   0  0  0  0  0  3  0  0  0  0  0  0
  1  5  1  0  0  0  0
  1  7  1  0  0  0  0
  2  7  2  0  0  0  0
  3  1  2  0  0  0  0
  4  6  2  0  0  0  0
  4  3  1  0  0  0  0
  6 10  1  0  0  0  0
  8 25  1  1  0  0  0
  8 11  1  0  0  0  0
  9  8  1  0  0  0  0
  9  3  1  0  0  0  0
 10  5  2  0  0  0  0
 11  2  1  0  0  0  0
 12 13  1  1  0  0  0
 12  6  1  0  0  0  0
 13 14  3  0  0  0  0
 15 12  1  0  0  0  0
 16 17  1  0  0  0  0
 16 15  1  0  0  0  0
 18 17  1  0  0  0  0
 18 24  1  0  0  0  0
 19 24  2  0  0  0  0
 19 20  1  0  0  0  0
 20 22  2  0  0  0  0
 21 23  2  0  0  0  0
 22 23  1  0  0  0  0
 24 21  1  0  0  0  0
 26 34  1  1  0  0  0
 26 28  1  0  0  0  0
 26 25  1  0  0  0  0
 28 27  1  1  0  0  0
 28 29  1  0  0  0  0
 29 30  1  0  0  0  0
 31 30  1  0  0  0  0
 32 31  1  0  0  0  0
 33 32  1  0  0  0  0
 35 40  1  0  0  0  0
 36 35  2  0  0  0  0
 37 40  2  0  0  0  0
 38 36  1  0  0  0  0
 39 37  1  0  0  0  0
 40 34  1  0  0  0  0
 41 39  2  0  0  0  0
 41 36  1  0  0  0  0
M  END
>  <MODEL>
3

>  <REMARK>
 VINA RESULT:      -6.4      1.212      3.134
  Name = 
  16 active torsions:
  status: ('A' for Active; 'I' for Inactive)
    1  A    between atoms: C_5  and  C_28
    2  A    between atoms: C_5  and  C_35
    3  A    between atoms: C_7  and  C_11
    4  A    between atoms: C_7  and  C_37
    5  A    between atoms: O_9  and  C_11
    6  A    between atoms: O_9  and  C_31
    7  A    between atoms: C_10  and  O_12
    8  A    between atoms: C_10  and  C_28
    9  A    between atoms: C_11  and  C_39
   10  A    between atoms: O_12  and  C_23
   11  A    between atoms: C_15  and  C_17
   12  A    between atoms: C_15  and  C_39
   13  A    between atoms: C_17  and  C_30
   14  A    between atoms: C_21  and  C_23
   15  A    between atoms: C_23  and  C_26
   16  A    between atoms: C_29  and  C_30
                            x       y       z     vdW  Elec       q    Type
                         _______ _______ _______ _____ _____    ______ ____

>  <TORSDO>
F 16

$$$$
=
 OpenBabel11042419013D

 41 44  0  0  1  0  0  0  0  0999 V2000
  189.9700  177.0060  146.5470 C   0  0  0  0  0  0  0  0  0  0  0  0
  191.8610  175.9250  147.7200 C   0  0  0  0  0  3  0  0  0  0  0  0
  190.4680  177.0060  145.2270 C   0  0  0  0  0  0  0  0  0  0  0  0
  189.5790  177.1810  144.1660 C   0  0  0  0  0  3  0  0  0  0  0  0
  188.6430  177.2130  146.7630 N   0  0  0  0  0  0  0  0  0  0  0  0
  188.2150  177.3460  144.4120 C   0  0  0  0  0  0  0  0  0  0  0  0
  190.8590  176.8090  147.7070 C   0  0  0  0  0  3  0  0  0  0  0  0
  192.6180  175.6470  145.3000 C   0  0  2  0  0  3  0  0  0  0  0  0
  191.9410  176.9770  144.9500 C   0  0  0  0  0  2  0  0  0  0  0  0
  187.7670  177.3830  145.7390 C   0  0  0  0  0  3  0  0  0  0  0  0
  192.1090  174.9740  146.5840 C   0  0  0  0  0  2  0  0  0  0  0  0
  187.2800  177.5710  143.2520 C   0  0  1  0  0  3  0  0  0  0  0  0
  186.3130  178.6710  143.4450 C   0  0  0  0  0  0  0  0  0  0  0  0
  185.5240  179.5680  143.6070 C   0  0  0  0  0  3  0  0  0  0  0  0
  187.9260  177.5990  141.9940 O   0  0  0  0  0  0  0  0  0  0  0  0
  187.4460  176.5430  141.1980 C   0  0  0  0  0  2  0  0  0  0  0  0
  188.4020  175.3610  141.2710 C   0  0  0  0  0  2  0  0  0  0  0  0
  187.8960  174.2970  142.2370 C   0  0  0  0  0  2  0  0  0  0  0  0
  189.6530  173.4990  143.8380 C   0  0  0  0  0  3  0  0  0  0  0  0
  190.6780  172.6140  144.1910 C   0  0  0  0  0  3  0  0  0  0  0  0
  189.3480  172.3120  141.7470 C   0  0  0  0  0  3  0  0  0  0  0  0
  191.0390  171.5780  143.3220 C   0  0  0  0  0  3  0  0  0  0  0  0
  190.3740  171.4280  142.0990 C   0  0  0  0  0  3  0  0  0  0  0  0
  188.9840  173.3470  142.6170 C   0  0  0  0  0  0  0  0  0  0  0  0
  193.9990  175.8440  145.3860 O   0  0  0  0  0  0  0  0  0  0  0  0
  194.5020  175.5230  144.1170 C   0  0  1  0  0  3  0  0  0  0  0  0
  196.8320  175.0560  144.4430 O   0  0  0  0  0  1  0  0  0  0  0  0
  195.9410  176.0230  143.9680 C   0  0  1  0  0  3  0  0  0  0  0  0
  196.2550  176.3260  142.5090 C   0  0  0  0  0  2  0  0  0  0  0  0
  197.4760  175.5470  142.0430 C   0  0  0  0  0  2  0  0  0  0  0  0
  197.1690  174.8090  140.7510 C   0  0  0  0  0  2  0  0  0  0  0  0
  196.0210  175.4800  140.0210 C   0  0  0  0  0  2  0  0  0  0  0  0
  196.1980  175.3590  138.6410 O   0  0  0  0  0  1  0  0  0  0  0  0
  194.4030  174.0120  143.8730 C   0  0  0  0  0  2  0  0  0  0  0  0
  194.3730  172.5430  141.8340 C   0  0  0  0  0  3  0  0  0  0  0  0
  193.8830  172.2230  140.5640 C   0  0  0  0  0  0  0  0  0  0  0  0
  192.9380  174.4940  141.8950 C   0  0  0  0  0  3  0  0  0  0  0  0
  194.3490  171.0950  139.9050 O   0  0  0  0  0  1  0  0  0  0  0  0
  192.4490  174.1740  140.6250 C   0  0  0  0  0  3  0  0  0  0  0  0
  193.9020  173.6810  142.5010 C   0  0  0  0  0  0  0  0  0  0  0  0
  192.9220  173.0380  139.9600 C   0  0  0  0  0  3  0  0  0  0  0  0
  1  5  1  0  0  0  0
  1  7  1  0  0  0  0
  3  1  2  0  0  0  0
  4  6  2  0  0  0  0
  4  3  1  0  0  0  0
  6 10  1  0  0  0  0
  7  2  2  0  0  0  0
  8 25  1  1  0  0  0
  8 11  1  0  0  0  0
  9  3  1  0  0  0  0
  9  8  1  0  0  0  0
 10  5  2  0  0  0  0
 11  2  1  0  0  0  0
 12 13  1  1  0  0  0
 12  6  1  0  0  0  0
 13 14  3  0  0  0  0
 15 12  1  0  0  0  0
 16 17  1  0  0  0  0
 16 15  1  0  0  0  0
 17 18  1  0  0  0  0
 18 24  1  0  0  0  0
 19 20  1  0  0  0  0
 21 23  2  0  0  0  0
 21 24  1  0  0  0  0
 22 20  2  0  0  0  0
 23 22  1  0  0  0  0
 24 19  2  0  0  0  0
 26 34  1  1  0  0  0
 26 25  1  0  0  0  0
 28 26  1  0  0  0  0
 28 27  1  6  0  0  0
 29 28  1  0  0  0  0
 30 29  1  0  0  0  0
 31 30  1  0  0  0  0
 32 31  1  0  0  0  0
 33 32  1  0  0  0  0
 35 40  1  0  0  0  0
 36 35  2  0  0  0  0
 37 40  2  0  0  0  0
 38 36  1  0  0  0  0
 39 37  1  0  0  0  0
 40 34  1  0  0  0  0
 41 36  1  0  0  0  0
 41 39  2  0  0  0  0
M  END
>  <MODEL>
4

>  <REMARK>
 VINA RESULT:      -6.3      1.746      2.907
  Name = 
  16 active torsions:
  status: ('A' for Active; 'I' for Inactive)
    1  A    between atoms: C_5  and  C_28
    2  A    between atoms: C_5  and  C_35
    3  A    between atoms: C_7  and  C_11
    4  A    between atoms: C_7  and  C_37
    5  A    between atoms: O_9  and  C_11
    6  A    between atoms: O_9  and  C_31
    7  A    between atoms: C_10  and  O_12
    8  A    between atoms: C_10  and  C_28
    9  A    between atoms: C_11  and  C_39
   10  A    between atoms: O_12  and  C_23
   11  A    between atoms: C_15  and  C_17
   12  A    between atoms: C_15  and  C_39
   13  A    between atoms: C_17  and  C_30
   14  A    between atoms: C_21  and  C_23
   15  A    between atoms: C_23  and  C_26
   16  A    between atoms: C_29  and  C_30
                            x       y       z     vdW  Elec       q    Type
                         _______ _______ _______ _____ _____    ______ ____

>  <TORSDO>
F 16

$$$$
=
 OpenBabel11042419013D

 41 44  0  0  1  0  0  0  0  0999 V2000
  191.4520  171.4060  142.9780 C   0  0  0  0  0  0  0  0  0  0  0  0
  189.2540  172.3840  142.4020 C   0  0  0  0  0  3  0  0  0  0  0  0
  192.0780  172.5300  143.5540 C   0  0  0  0  0  0  0  0  0  0  0  0
  193.2000  172.3430  144.3620 C   0  0  0  0  0  3  0  0  0  0  0  0
  191.9730  170.1670  143.1880 N   0  0  0  0  0  0  0  0  0  0  0  0
  193.6890  171.0570  144.5990 C   0  0  0  0  0  0  0  0  0  0  0  0
  190.2530  171.5400  142.1290 C   0  0  0  0  0  3  0  0  0  0  0  0
  190.2720  174.3160  143.7200 C   0  0  2  0  0  3  0  0  0  0  0  0
  191.6580  173.9250  143.1950 C   0  0  0  0  0  2  0  0  0  0  0  0
  193.0650  169.9710  143.9730 C   0  0  0  0  0  3  0  0  0  0  0  0
  189.2140  173.2040  143.6600 C   0  0  0  0  0  2  0  0  0  0  0  0
  194.9240  170.8840  145.4430 C   0  0  1  0  0  3  0  0  0  0  0  0
  194.8780  169.7390  146.3750 C   0  0  0  0  0  0  0  0  0  0  0  0
  194.8390  168.8060  147.1380 C   0  0  0  0  0  3  0  0  0  0  0  0
  196.1330  170.9730  144.7140 O   0  0  0  0  0  0  0  0  0  0  0  0
  197.1890  171.2780  145.5930 C   0  0  0  0  0  2  0  0  0  0  0  0
  197.0230  172.6900  146.1350 C   0  0  0  0  0  2  0  0  0  0  0  0
  197.3070  173.7330  145.0610 C   0  0  0  0  0  2  0  0  0  0  0  0
  195.3110  174.9590  145.9570 C   0  0  0  0  0  3  0  0  0  0  0  0
  194.2150  175.8120  145.7800 C   0  0  0  0  0  3  0  0  0  0  0  0
  195.8720  175.1910  143.6100 C   0  0  0  0  0  3  0  0  0  0  0  0
  193.9480  176.3540  144.5180 C   0  0  0  0  0  3  0  0  0  0  0  0
  194.7760  176.0430  143.4320 C   0  0  0  0  0  3  0  0  0  0  0  0
  196.1430  174.6500  144.8740 C   0  0  0  0  0  0  0  0  0  0  0  0
  189.8180  175.4380  143.0200 O   0  0  0  0  0  0  0  0  0  0  0  0
  189.2980  176.3010  143.9950 C   0  0  1  0  0  3  0  0  0  0  0  0
  190.6110  178.3040  144.1040 O   0  0  0  0  0  1  0  0  0  0  0  0
  190.4260  177.0550  144.7020 C   0  0  1  0  0  3  0  0  0  0  0  0
  190.1020  177.2440  146.1780 C   0  0  0  0  0  2  0  0  0  0  0  0
  190.0350  175.9030  146.8950 C   0  0  0  0  0  2  0  0  0  0  0  0
  191.1800  175.7770  147.8850 C   0  0  0  0  0  2  0  0  0  0  0  0
  191.8430  177.1250  148.0980 C   0  0  0  0  0  2  0  0  0  0  0  0
  191.5590  177.5990  149.3810 O   0  0  0  0  0  1  0  0  0  0  0  0
  188.2850  177.2660  143.3650 C   0  0  0  0  0  2  0  0  0  0  0  0
  186.2860  178.6290  144.0440 C   0  0  0  0  0  3  0  0  0  0  0  0
  185.1560  178.8280  144.8420 C   0  0  0  0  0  0  0  0  0  0  0  0
  186.7560  176.5670  145.2260 C   0  0  0  0  0  3  0  0  0  0  0  0
  184.3590  179.9480  144.6500 O   0  0  0  0  0  1  0  0  0  0  0  0
  185.6260  176.7670  146.0250 C   0  0  0  0  0  3  0  0  0  0  0  0
  187.0890  177.4980  144.2360 C   0  0  0  0  0  0  0  0  0  0  0  0
  184.8260  177.8980  145.8320 C   0  0  0  0  0  3  0  0  0  0  0  0
  1  5  2  0  0  0  0
  1  3  1  0  0  0  0
  2 11  1  0  0  0  0
  3  4  2  0  0  0  0
  4  6  1  0  0  0  0
  5 10  1  0  0  0  0
  6 12  1  0  0  0  0
  7  2  2  0  0  0  0
  7  1  1  0  0  0  0
  8 25  1  6  0  0  0
  9  3  1  0  0  0  0
  9  8  1  0  0  0  0
 10  6  2  0  0  0  0
 11  8  1  0  0  0  0
 12 13  1  6  0  0  0
 13 14  3  0  0  0  0
 15 12  1  0  0  0  0
 15 16  1  0  0  0  0
 16 17  1  0  0  0  0
 18 17  1  0  0  0  0
 20 19  1  0  0  0  0
 21 24  1  0  0  0  0
 22 20  2  0  0  0  0
 23 21  2  0  0  0  0
 23 22  1  0  0  0  0
 24 18  1  0  0  0  0
 24 19  2  0  0  0  0
 25 26  1  0  0  0  0
 26 34  1  6  0  0  0
 26 28  1  0  0  0  0
 28 27  1  6  0  0  0
 28 29  1  0  0  0  0
 29 30  1  0  0  0  0
 30 31  1  0  0  0  0
 31 32  1  0  0  0  0
 32 33  1  0  0  0  0
 34 40  1  0  0  0  0
 35 40  2  0  0  0  0
 35 36  1  0  0  0  0
 36 41  2  0  0  0  0
 37 39  2  0  0  0  0
 38 36  1  0  0  0  0
 40 37  1  0  0  0  0
 41 39  1  0  0  0  0
M  END
>  <MODEL>
5

>  <REMARK>
 VINA RESULT:      -6.3      2.376      8.890
  Name = 
  16 active torsions:
  status: ('A' for Active; 'I' for Inactive)
    1  A    between atoms: C_5  and  C_28
    2  A    between atoms: C_5  and  C_35
    3  A    between atoms: C_7  and  C_11
    4  A    between atoms: C_7  and  C_37
    5  A    between atoms: O_9  and  C_11
    6  A    between atoms: O_9  and  C_31
    7  A    between atoms: C_10  and  O_12
    8  A    between atoms: C_10  and  C_28
    9  A    between atoms: C_11  and  C_39
   10  A    between atoms: O_12  and  C_23
   11  A    between atoms: C_15  and  C_17
   12  A    between atoms: C_15  and  C_39
   13  A    between atoms: C_17  and  C_30
   14  A    between atoms: C_21  and  C_23
   15  A    between atoms: C_23  and  C_26
   16  A    between atoms: C_29  and  C_30
                            x       y       z     vdW  Elec       q    Type
                         _______ _______ _______ _____ _____    ______ ____

>  <TORSDO>
F 16

$$$$
=
 OpenBabel11042419013D

 41 44  0  0  1  0  0  0  0  0999 V2000
  194.8560  174.9540  145.7430 C   0  0  0  0  0  0  0  0  0  0  0  0
  193.7850  177.1600  145.4150 C   0  0  0  0  0  3  0  0  0  0  0  0
  193.7110  174.1440  145.8860 C   0  0  0  0  0  0  0  0  0  0  0  0
  193.8300  172.7650  145.7160 C   0  0  0  0  0  3  0  0  0  0  0  0
  196.0590  174.3760  145.4800 N   0  0  0  0  0  0  0  0  0  0  0  0
  195.0660  172.1980  145.4020 C   0  0  0  0  0  0  0  0  0  0  0  0
  194.7890  176.4200  145.8950 C   0  0  0  0  0  3  0  0  0  0  0  0
  191.7290  175.6520  145.3620 C   0  0  2  0  0  3  0  0  0  0  0  0
  192.4090  174.7140  146.3650 C   0  0  0  0  0  2  0  0  0  0  0  0
  196.1880  173.0330  145.3110 C   0  0  0  0  0  3  0  0  0  0  0  0
  192.6790  176.5740  144.5850 C   0  0  0  0  0  2  0  0  0  0  0  0
  195.1770  170.7030  145.2610 C   0  0  1  0  0  3  0  0  0  0  0  0
  196.0710  170.0560  146.2420 C   0  0  0  0  0  0  0  0  0  0  0  0
  196.7980  169.5260  147.0450 C   0  0  0  0  0  3  0  0  0  0  0  0
  193.9320  170.0490  145.1120 O   0  0  0  0  0  0  0  0  0  0  0  0
  193.9540  169.2590  143.9480 C   0  0  0  0  0  2  0  0  0  0  0  0
  192.6710  169.4660  143.1560 C   0  0  0  0  0  2  0  0  0  0  0  0
  192.6390  170.8420  142.5020 C   0  0  0  0  0  2  0  0  0  0  0  0
  190.9690  171.9120  144.0370 C   0  0  0  0  0  3  0  0  0  0  0  0
  189.7410  172.5450  144.2610 C   0  0  0  0  0  3  0  0  0  0  0  0
  190.4620  171.7690  141.6700 C   0  0  0  0  0  3  0  0  0  0  0  0
  188.8730  172.7900  143.1910 C   0  0  0  0  0  3  0  0  0  0  0  0
  189.2340  172.4010  141.8950 C   0  0  0  0  0  3  0  0  0  0  0  0
  191.3330  171.5260  142.7410 C   0  0  0  0  0  0  0  0  0  0  0  0
  190.7690  176.4180  146.0310 O   0  0  0  0  0  0  0  0  0  0  0  0
  189.5810  176.2420  145.3080 C   0  0  1  0  0  3  0  0  0  0  0  0
  188.9460  174.9460  147.2230 O   0  0  0  0  0  1  0  0  0  0  0  0
  188.4470  175.8020  146.2360 C   0  0  1  0  0  3  0  0  0  0  0  0
  187.7950  177.0090  146.8960 C   0  0  0  0  0  2  0  0  0  0  0  0
  186.2780  176.9280  146.7980 C   0  0  0  0  0  2  0  0  0  0  0  0
  185.6940  178.3010  146.5150 C   0  0  0  0  0  2  0  0  0  0  0  0
  184.5940  178.2010  145.4750 C   0  0  0  0  0  2  0  0  0  0  0  0
  184.4660  179.4160  144.7980 O   0  0  0  0  0  1  0  0  0  0  0  0
  189.2220  177.5290  144.5530 C   0  0  0  0  0  2  0  0  0  0  0  0
  187.3140  178.0530  143.0040 C   0  0  0  0  0  3  0  0  0  0  0  0
  186.5960  177.8220  141.8270 C   0  0  0  0  0  0  0  0  0  0  0  0
  188.8310  176.2530  142.4290 C   0  0  0  0  0  3  0  0  0  0  0  0
  185.4890  178.6020  141.5250 O   0  0  0  0  0  1  0  0  0  0  0  0
  188.1110  176.0210  141.2530 C   0  0  0  0  0  3  0  0  0  0  0  0
  188.4330  177.2670  143.3080 C   0  0  0  0  0  0  0  0  0  0  0  0
  186.9940  176.8060  140.9520 C   0  0  0  0  0  3  0  0  0  0  0  0
  1  3  1  0  0  0  0
  1  7  1  0  0  0  0
  2  7  2  0  0  0  0
  3  9  1  0  0  0  0
  4  3  2  0  0  0  0
  5  1  2  0  0  0  0
  6  4  1  0  0  0  0
  8 25  1  1  0  0  0
  8  9  1  0  0  0  0
 10  6  2  0  0  0  0
 10  5  1  0  0  0  0
 11  8  1  0  0  0  0
 11  2  1  0  0  0  0
 12  6  1  0  0  0  0
 12 13  1  1  0  0  0
 13 14  3  0  0  0  0
 15 12  1  0  0  0  0
 16 15  1  0  0  0  0
 17 16  1  0  0  0  0
 18 24  1  0  0  0  0
 18 17  1  0  0  0  0
 19 20  1  0  0  0  0
 21 23  2  0  0  0  0
 21 24  1  0  0  0  0
 22 20  2  0  0  0  0
 23 22  1  0  0  0  0
 24 19  2  0  0  0  0
 26 34  1  1  0  0  0
 26 25  1  0  0  0  0
 26 28  1  0  0  0  0
 28 29  1  0  0  0  0
 28 27  1  1  0  0  0
 30 29  1  0  0  0  0
 31 30  1  0  0  0  0
 32 31  1  0  0  0  0
 33 32  1  0  0  0  0
 35 40  1  0  0  0  0
 36 35  2  0  0  0  0
 37 40  2  0  0  0  0
 38 36  1  0  0  0  0
 39 37  1  0  0  0  0
 40 34  1  0  0  0  0
 41 39  2  0  0  0  0
 41 36  1  0  0  0  0
M  END
>  <MODEL>
6

>  <REMARK>
 VINA RESULT:      -6.2      2.541      8.212
  Name = 
  16 active torsions:
  status: ('A' for Active; 'I' for Inactive)
    1  A    between atoms: C_5  and  C_28
    2  A    between atoms: C_5  and  C_35
    3  A    between atoms: C_7  and  C_11
    4  A    between atoms: C_7  and  C_37
    5  A    between atoms: O_9  and  C_11
    6  A    between atoms: O_9  and  C_31
    7  A    between atoms: C_10  and  O_12
    8  A    between atoms: C_10  and  C_28
    9  A    between atoms: C_11  and  C_39
   10  A    between atoms: O_12  and  C_23
   11  A    between atoms: C_15  and  C_17
   12  A    between atoms: C_15  and  C_39
   13  A    between atoms: C_17  and  C_30
   14  A    between atoms: C_21  and  C_23
   15  A    between atoms: C_23  and  C_26
   16  A    between atoms: C_29  and  C_30
                            x       y       z     vdW  Elec       q    Type
                         _______ _______ _______ _____ _____    ______ ____

>  <TORSDO>
F 16

$$$$
=
 OpenBabel11042419013D

 41 44  0  0  1  0  0  0  0  0999 V2000
  192.9720  173.7000  143.7590 C   0  0  0  0  0  0  0  0  0  0  0  0
  192.8560  174.5860  146.0650 C   0  0  0  0  0  3  0  0  0  0  0  0
  192.1660  174.6450  143.0910 C   0  0  0  0  0  0  0  0  0  0  0  0
  192.2550  174.7540  141.7030 C   0  0  0  0  0  3  0  0  0  0  0  0
  193.7930  172.8890  143.0370 N   0  0  0  0  0  0  0  0  0  0  0  0
  193.1390  173.9420  140.9890 C   0  0  0  0  0  0  0  0  0  0  0  0
  192.9330  173.5500  145.2260 C   0  0  0  0  0  3  0  0  0  0  0  0
  191.6630  176.4560  144.8060 C   0  0  2  0  0  3  0  0  0  0  0  0
  191.1100  175.4210  143.8200 C   0  0  0  0  0  2  0  0  0  0  0  0
  193.8910  172.9870  141.6850 C   0  0  0  0  0  3  0  0  0  0  0  0
  192.9050  176.0110  145.5910 C   0  0  0  0  0  2  0  0  0  0  0  0
  193.1900  174.0530  139.4880 C   0  0  1  0  0  3  0  0  0  0  0  0
  194.4420  174.6250  138.9550 C   0  0  0  0  0  0  0  0  0  0  0  0
  195.4680  175.0880  138.5210 C   0  0  0  0  0  3  0  0  0  0  0  0
  192.7690  172.8830  138.8140 O   0  0  0  0  0  0  0  0  0  0  0  0
  191.8320  173.2260  137.8220 C   0  0  0  0  0  2  0  0  0  0  0  0
  190.4570  173.4090  138.4470 C   0  0  0  0  0  2  0  0  0  0  0  0
  189.9170  172.0930  138.9950 C   0  0  0  0  0  2  0  0  0  0  0  0
  188.7680  173.0640  141.0010 C   0  0  0  0  0  3  0  0  0  0  0  0
  188.5740  173.1390  142.3850 C   0  0  0  0  0  3  0  0  0  0  0  0
  190.4500  171.3500  141.3300 C   0  0  0  0  0  3  0  0  0  0  0  0
  189.3180  172.3200  143.2420 C   0  0  0  0  0  3  0  0  0  0  0  0
  190.2570  171.4250  142.7140 C   0  0  0  0  0  3  0  0  0  0  0  0
  189.7040  172.1670  140.4710 C   0  0  0  0  0  0  0  0  0  0  0  0
  190.6500  176.8270  145.6950 O   0  0  0  0  0  0  0  0  0  0  0  0
  189.4490  176.6250  145.0000 C   0  0  1  0  0  3  0  0  0  0  0  0
  188.9310  175.2520  146.8970 O   0  0  0  0  0  1  0  0  0  0  0  0
  188.3640  176.1020  145.9440 C   0  0  1  0  0  3  0  0  0  0  0  0
  187.6640  177.2570  146.6480 C   0  0  0  0  0  2  0  0  0  0  0  0
  186.3420  176.8040  147.2490 C   0  0  0  0  0  2  0  0  0  0  0  0
  185.1900  177.1740  146.3290 C   0  0  0  0  0  2  0  0  0  0  0  0
  184.9310  178.6680  146.3850 C   0  0  0  0  0  2  0  0  0  0  0  0
  183.9220  179.0110  145.4820 O   0  0  0  0  0  1  0  0  0  0  0  0
  189.0130  177.9200  144.3030 C   0  0  0  0  0  2  0  0  0  0  0  0
  186.8080  178.2880  143.1570 C   0  0  0  0  0  3  0  0  0  0  0  0
  185.9380  178.0780  142.0830 C   0  0  0  0  0  0  0  0  0  0  0  0
  188.4530  176.8560  142.1020 C   0  0  0  0  0  3  0  0  0  0  0  0
  184.6910  178.6870  142.0700 O   0  0  0  0  0  1  0  0  0  0  0  0
  187.5820  176.6450  141.0290 C   0  0  0  0  0  3  0  0  0  0  0  0
  188.0670  177.6760  143.1690 C   0  0  0  0  0  0  0  0  0  0  0  0
  186.3240  177.2570  141.0200 C   0  0  0  0  0  3  0  0  0  0  0  0
  1  7  1  0  0  0  0
  3  1  1  0  0  0  0
  3  9  1  0  0  0  0
  4  3  2  0  0  0  0
  5  1  2  0  0  0  0
  6 10  2  0  0  0  0
  6  4  1  0  0  0  0
  7  2  2  0  0  0  0
  8 11  1  0  0  0  0
  8 25  1  1  0  0  0
  9  8  1  0  0  0  0
 10  5  1  0  0  0  0
 11  2  1  0  0  0  0
 12 13  1  1  0  0  0
 12  6  1  0  0  0  0
 14 13  3  0  0  0  0
 15 12  1  0  0  0  0
 16 17  1  0  0  0  0
 16 15  1  0  0  0  0
 17 18  1  0  0  0  0
 18 24  1  0  0  0  0
 19 20  1  0  0  0  0
 20 22  2  0  0  0  0
 21 23  2  0  0  0  0
 23 22  1  0  0  0  0
 24 19  2  0  0  0  0
 24 21  1  0  0  0  0
 26 34  1  1  0  0  0
 26 25  1  0  0  0  0
 26 28  1  0  0  0  0
 28 29  1  0  0  0  0
 28 27  1  1  0  0  0
 29 30  1  0  0  0  0
 31 32  1  0  0  0  0
 31 30  1  0  0  0  0
 33 32  1  0  0  0  0
 35 40  1  0  0  0  0
 36 35  2  0  0  0  0
 37 40  2  0  0  0  0
 38 36  1  0  0  0  0
 39 37  1  0  0  0  0
 40 34  1  0  0  0  0
 41 39  2  0  0  0  0
 41 36  1  0  0  0  0
M  END
>  <MODEL>
7

>  <REMARK>
 VINA RESULT:      -6.1      2.777      7.655
  Name = 
  16 active torsions:
  status: ('A' for Active; 'I' for Inactive)
    1  A    between atoms: C_5  and  C_28
    2  A    between atoms: C_5  and  C_35
    3  A    between atoms: C_7  and  C_11
    4  A    between atoms: C_7  and  C_37
    5  A    between atoms: O_9  and  C_11
    6  A    between atoms: O_9  and  C_31
    7  A    between atoms: C_10  and  O_12
    8  A    between atoms: C_10  and  C_28
    9  A    between atoms: C_11  and  C_39
   10  A    between atoms: O_12  and  C_23
   11  A    between atoms: C_15  and  C_17
   12  A    between atoms: C_15  and  C_39
   13  A    between atoms: C_17  and  C_30
   14  A    between atoms: C_21  and  C_23
   15  A    between atoms: C_23  and  C_26
   16  A    between atoms: C_29  and  C_30
                            x       y       z     vdW  Elec       q    Type
                         _______ _______ _______ _____ _____    ______ ____

>  <TORSDO>
F 16

$$$$
=
 OpenBabel11042419013D

 41 44  0  0  1  0  0  0  0  0999 V2000
  194.7950  174.8470  145.7910 C   0  0  0  0  0  0  0  0  0  0  0  0
  193.8420  177.0870  145.3520 C   0  0  0  0  0  3  0  0  0  0  0  0
  193.6350  174.0560  145.6590 C   0  0  0  0  0  0  0  0  0  0  0  0
  193.7690  172.6830  145.4550 C   0  0  0  0  0  3  0  0  0  0  0  0
  196.0190  174.2540  145.7530 N   0  0  0  0  0  0  0  0  0  0  0  0
  195.0370  172.1040  145.3740 C   0  0  0  0  0  0  0  0  0  0  0  0
  194.7170  176.3060  145.9930 C   0  0  0  0  0  3  0  0  0  0  0  0
  191.8220  175.6260  144.8110 C   0  0  2  0  0  3  0  0  0  0  0  0
  192.2700  174.6320  145.8880 C   0  0  0  0  0  2  0  0  0  0  0  0
  196.1640  172.9180  145.5520 C   0  0  0  0  0  3  0  0  0  0  0  0
  192.9220  176.5610  144.2870 C   0  0  0  0  0  2  0  0  0  0  0  0
  195.1560  170.6140  145.1900 C   0  0  1  0  0  3  0  0  0  0  0  0
  196.1340  169.9590  146.0820 C   0  0  0  0  0  0  0  0  0  0  0  0
  196.9340  169.4220  146.8070 C   0  0  0  0  0  3  0  0  0  0  0  0
  193.9120  169.9450  145.1250 O   0  0  0  0  0  0  0  0  0  0  0  0
  193.8730  169.1380  143.9730 C   0  0  0  0  0  2  0  0  0  0  0  0
  193.6300  170.0000  142.7430 C   0  0  0  0  0  2  0  0  0  0  0  0
  192.3310  170.7870  142.8660 C   0  0  0  0  0  2  0  0  0  0  0  0
  191.9800  171.4810  140.4820 C   0  0  0  0  0  3  0  0  0  0  0  0
  191.8960  172.4670  139.4920 C   0  0  0  0  0  3  0  0  0  0  0  0
  192.4090  173.1890  142.1480 C   0  0  0  0  0  3  0  0  0  0  0  0
  192.0690  173.8150  139.8310 C   0  0  0  0  0  3  0  0  0  0  0  0
  192.3260  174.1750  141.1590 C   0  0  0  0  0  3  0  0  0  0  0  0
  192.2330  171.8400  141.8120 C   0  0  0  0  0  0  0  0  0  0  0  0
  190.7550  176.3840  145.3040 O   0  0  0  0  0  0  0  0  0  0  0  0
  189.6020  175.6410  145.0100 C   0  0  1  0  0  3  0  0  0  0  0  0
  188.9950  174.8920  147.2060 O   0  0  0  0  0  1  0  0  0  0  0  0
  188.5980  175.7310  146.1610 C   0  0  1  0  0  3  0  0  0  0  0  0
  188.4940  177.1610  146.6730 C   0  0  0  0  0  2  0  0  0  0  0  0
  187.0460  177.5340  146.9540 C   0  0  0  0  0  2  0  0  0  0  0  0
  186.1320  176.9340  145.8990 C   0  0  0  0  0  2  0  0  0  0  0  0
  185.8510  177.9490  144.8070 C   0  0  0  0  0  2  0  0  0  0  0  0
  184.4820  177.9880  144.5330 O   0  0  0  0  0  1  0  0  0  0  0  0
  188.9860  176.1160  143.6880 C   0  0  0  0  0  2  0  0  0  0  0  0
  188.5680  175.2860  141.3530 C   0  0  0  0  0  3  0  0  0  0  0  0
  188.4210  174.2420  140.4340 C   0  0  0  0  0  0  0  0  0  0  0  0
  188.8880  173.6730  143.1320 C   0  0  0  0  0  3  0  0  0  0  0  0
  188.1930  174.5240  139.0950 O   0  0  0  0  0  1  0  0  0  0  0  0
  188.7400  172.6300  142.2130 C   0  0  0  0  0  3  0  0  0  0  0  0
  188.8000  175.0030  142.7050 C   0  0  0  0  0  0  0  0  0  0  0  0
  188.5060  172.9150  140.8640 C   0  0  0  0  0  3  0  0  0  0  0  0
  1  7  1  0  0  0  0
  2  7  2  0  0  0  0
  3  1  2  0  0  0  0
  3  9  1  0  0  0  0
  4  3  1  0  0  0  0
  5  1  1  0  0  0  0
  6  4  2  0  0  0  0
  6 10  1  0  0  0  0
  8 25  1  1  0  0  0
  8  9  1  0  0  0  0
 10  5  2  0  0  0  0
 11  8  1  0  0  0  0
 11  2  1  0  0  0  0
 12  6  1  0  0  0  0
 12 13  1  1  0  0  0
 13 14  3  0  0  0  0
 15 12  1  0  0  0  0
 16 15  1  0  0  0  0
 17 18  1  0  0  0  0
 17 16  1  0  0  0  0
 19 24  1  0  0  0  0
 20 22  1  0  0  0  0
 20 19  2  0  0  0  0
 22 23  2  0  0  0  0
 23 21  1  0  0  0  0
 24 21  2  0  0  0  0
 24 18  1  0  0  0  0
 26 34  1  6  0  0  0
 26 25  1  0  0  0  0
 26 28  1  0  0  0  0
 28 29  1  0  0  0  0
 28 27  1  1  0  0  0
 29 30  1  0  0  0  0
 31 30  1  0  0  0  0
 32 31  1  0  0  0  0
 33 32  1  0  0  0  0
 35 40  1  0  0  0  0
 36 41  1  0  0  0  0
 36 35  2  0  0  0  0
 38 36  1  0  0  0  0
 39 37  1  0  0  0  0
 40 37  2  0  0  0  0
 40 34  1  0  0  0  0
 41 39  2  0  0  0  0
M  END
>  <MODEL>
8

>  <REMARK>
 VINA RESULT:      -6.1      2.351      7.786
  Name = 
  16 active torsions:
  status: ('A' for Active; 'I' for Inactive)
    1  A    between atoms: C_5  and  C_28
    2  A    between atoms: C_5  and  C_35
    3  A    between atoms: C_7  and  C_11
    4  A    between atoms: C_7  and  C_37
    5  A    between atoms: O_9  and  C_11
    6  A    between atoms: O_9  and  C_31
    7  A    between atoms: C_10  and  O_12
    8  A    between atoms: C_10  and  C_28
    9  A    between atoms: C_11  and  C_39
   10  A    between atoms: O_12  and  C_23
   11  A    between atoms: C_15  and  C_17
   12  A    between atoms: C_15  and  C_39
   13  A    between atoms: C_17  and  C_30
   14  A    between atoms: C_21  and  C_23
   15  A    between atoms: C_23  and  C_26
   16  A    between atoms: C_29  and  C_30
                            x       y       z     vdW  Elec       q    Type
                         _______ _______ _______ _____ _____    ______ ____

>  <TORSDO>
F 16

$$$$
=
 OpenBabel11042419013D

 41 44  0  0  1  0  0  0  0  0999 V2000
  194.9770  174.7370  145.9240 C   0  0  0  0  0  0  0  0  0  0  0  0
  193.8910  176.9130  145.4750 C   0  0  0  0  0  3  0  0  0  0  0  0
  193.9100  173.8640  145.6270 C   0  0  0  0  0  0  0  0  0  0  0  0
  194.1820  172.5180  145.3800 C   0  0  0  0  0  3  0  0  0  0  0  0
  196.2430  174.2460  146.0010 N   0  0  0  0  0  0  0  0  0  0  0  0
  195.4960  172.0470  145.4200 C   0  0  0  0  0  0  0  0  0  0  0  0
  194.7520  176.1730  146.1780 C   0  0  0  0  0  3  0  0  0  0  0  0
  192.0740  175.3270  144.6440 C   0  0  2  0  0  3  0  0  0  0  0  0
  192.4830  174.3170  145.7220 C   0  0  0  0  0  2  0  0  0  0  0  0
  196.5220  172.9380  145.7610 C   0  0  0  0  0  3  0  0  0  0  0  0
  193.1430  176.3720  144.2900 C   0  0  0  0  0  2  0  0  0  0  0  0
  195.7600  170.5830  145.1880 C   0  0  1  0  0  3  0  0  0  0  0  0
  195.4200  169.7070  146.3270 C   0  0  0  0  0  0  0  0  0  0  0  0
  195.1400  168.9890  147.2540 C   0  0  0  0  0  3  0  0  0  0  0  0
  195.2840  170.1060  143.9450 O   0  0  0  0  0  0  0  0  0  0  0  0
  196.3130  169.4080  143.2860 C   0  0  0  0  0  2  0  0  0  0  0  0
  197.4220  170.3700  142.8880 C   0  0  0  0  0  2  0  0  0  0  0  0
  197.0440  171.1690  141.6470 C   0  0  0  0  0  2  0  0  0  0  0  0
  197.9200  173.4070  142.3630 C   0  0  0  0  0  3  0  0  0  0  0  0
  197.7230  174.7570  142.6760 C   0  0  0  0  0  3  0  0  0  0  0  0
  195.5520  173.1680  141.9030 C   0  0  0  0  0  3  0  0  0  0  0  0
  196.4400  175.3120  142.6030 C   0  0  0  0  0  3  0  0  0  0  0  0
  195.3540  174.5170  142.2170 C   0  0  0  0  0  3  0  0  0  0  0  0
  196.8350  172.6110  141.9720 C   0  0  0  0  0  0  0  0  0  0  0  0
  190.8990  175.9710  145.0430 O   0  0  0  0  0  0  0  0  0  0  0  0
  189.9280  174.9610  145.1210 C   0  0  1  0  0  3  0  0  0  0  0  0
  188.9650  174.4770  147.2630 O   0  0  0  0  0  1  0  0  0  0  0  0
  188.8600  175.3220  146.1550 C   0  0  1  0  0  3  0  0  0  0  0  0
  189.0160  176.7690  146.6060 C   0  0  0  0  0  2  0  0  0  0  0  0
  187.7310  177.5500  146.3790 C   0  0  0  0  0  2  0  0  0  0  0  0
  186.5600  176.8440  147.0410 C   0  0  0  0  0  2  0  0  0  0  0  0
  185.3080  176.9970  146.1970 C   0  0  0  0  0  2  0  0  0  0  0  0
  184.4110  177.8630  146.8270 O   0  0  0  0  0  1  0  0  0  0  0  0
  189.3120  174.7090  143.7390 C   0  0  0  0  0  2  0  0  0  0  0  0
  187.2250  175.9730  143.1400 C   0  0  0  0  0  3  0  0  0  0  0  0
  186.5860  177.1150  142.6450 C   0  0  0  0  0  0  0  0  0  0  0  0
  189.3780  177.0070  142.7370 C   0  0  0  0  0  3  0  0  0  0  0  0
  185.2000  177.1700  142.6030 O   0  0  0  0  0  1  0  0  0  0  0  0
  188.7390  178.1470  142.2420 C   0  0  0  0  0  3  0  0  0  0  0  0
  188.6230  175.9170  143.1840 C   0  0  0  0  0  0  0  0  0  0  0  0
  187.3420  178.2010  142.1970 C   0  0  0  0  0  3  0  0  0  0  0  0
  1  5  1  0  0  0  0
  1  7  1  0  0  0  0
  2  7  2  0  0  0  0
  3  9  1  0  0  0  0
  3  1  2  0  0  0  0
  4  6  2  0  0  0  0
  4  3  1  0  0  0  0
  6 10  1  0  0  0  0
  8 25  1  1  0  0  0
  8  9  1  0  0  0  0
 10  5  2  0  0  0  0
 11  8  1  0  0  0  0
 11  2  1  0  0  0  0
 12  6  1  0  0  0  0
 12 13  1  1  0  0  0
 13 14  3  0  0  0  0
 15 12  1  0  0  0  0
 16 15  1  0  0  0  0
 17 16  1  0  0  0  0
 18 24  1  0  0  0  0
 18 17  1  0  0  0  0
 19 20  1  0  0  0  0
 21 24  1  0  0  0  0
 21 23  2  0  0  0  0
 22 20  2  0  0  0  0
 23 22  1  0  0  0  0
 24 19  2  0  0  0  0
 25 26  1  0  0  0  0
 26 34  1  6  0  0  0
 26 28  1  0  0  0  0
 28 29  1  0  0  0  0
 28 27  1  1  0  0  0
 30 29  1  0  0  0  0
 30 31  1  0  0  0  0
 32 33  1  0  0  0  0
 32 31  1  0  0  0  0
 35 40  1  0  0  0  0
 36 35  2  0  0  0  0
 37 40  2  0  0  0  0
 38 36  1  0  0  0  0
 39 37  1  0  0  0  0
 40 34  1  0  0  0  0
 41 39  2  0  0  0  0
 41 36  1  0  0  0  0
M  END
>  <MODEL>
9

>  <REMARK>
 VINA RESULT:      -6.0      2.629      8.709
  Name = 
  16 active torsions:
  status: ('A' for Active; 'I' for Inactive)
    1  A    between atoms: C_5  and  C_28
    2  A    between atoms: C_5  and  C_35
    3  A    between atoms: C_7  and  C_11
    4  A    between atoms: C_7  and  C_37
    5  A    between atoms: O_9  and  C_11
    6  A    between atoms: O_9  and  C_31
    7  A    between atoms: C_10  and  O_12
    8  A    between atoms: C_10  and  C_28
    9  A    between atoms: C_11  and  C_39
   10  A    between atoms: O_12  and  C_23
   11  A    between atoms: C_15  and  C_17
   12  A    between atoms: C_15  and  C_39
   13  A    between atoms: C_17  and  C_30
   14  A    between atoms: C_21  and  C_23
   15  A    between atoms: C_23  and  C_26
   16  A    between atoms: C_29  and  C_30
                            x       y       z     vdW  Elec       q    Type
                         _______ _______ _______ _____ _____    ______ ____

>  <TORSDO>
F 16

$$$$
