=
 OpenBabel11042415583D

 52 55  0  0  1  0  0  0  0  0999 V2000
  194.9980  172.5160  142.7620 C   0  0  1  0  0  3  0  0  0  0  0  0
  191.2340  173.6570  145.1160 C   0  0  0  0  0  0  0  0  0  0  0  0
  190.2540  171.9660  144.0970 N   0  0  0  0  0  0  0  0  0  0  0  0
  194.7760  170.9960  142.7370 C   0  0  2  0  0  3  0  0  0  0  0  0
  195.0300  174.4410  144.3770 C   0  0  2  0  0  3  0  0  0  0  0  0
  195.0310  174.7300  145.8750 C   0  0  0  0  0  2  0  0  0  0  0  0
  193.5910  170.5740  143.5970 C   0  0  0  0  0  2  0  0  0  0  0  0
  191.4570  174.8530  145.9430 C   0  0  0  0  0  0  0  0  0  0  0  0
  192.2130  173.0210  144.4530 N   0  0  0  0  0  0  0  0  0  0  0  0
  191.5800  171.9940  143.8590 C   0  0  0  0  0  0  0  0  0  0  0  0
  190.0260  173.0230  144.9040 C   0  0  0  0  0  2  0  0  0  0  0  0
  195.9220  170.3170  143.1610 O   0  0  0  0  0  1  0  0  0  0  0  0
  193.9240  175.6700  146.2360 C   0  0  0  0  0  3  0  0  0  0  0  0
  195.5360  173.0290  144.1000 C   0  0  0  0  0  2  0  0  0  0  0  0
  192.2740  171.0160  142.9720 C   0  0  0  0  0  2  0  0  0  0  0  0
  192.6810  175.2930  146.1040 C   0  0  0  0  0  0  0  0  0  0  0  0
  195.8210  175.4790  143.6300 C   0  0  0  0  0  0  0  0  0  0  0  0
  197.0740  175.5250  143.7560 O   0  0  0  0  0  0  0  0  0  0  0  0
  193.9510  176.1100  142.1490 C   0  0  0  0  0  1  0  0  0  0  0  0
  195.1900  176.3930  142.7840 O   0  0  0  0  0  0  0  0  0  0  0  0
  195.8550  172.9860  141.5820 C   0  0  0  0  0  2  0  0  0  0  0  0
  195.1330  172.9770  140.3830 O   0  0  0  0  0  0  0  0  0  0  0  0
  195.6310  174.0510  139.6450 C   0  0  0  0  0  2  0  0  0  0  0  0
  194.7860  174.1630  138.0790 S   0  0  0  0  0  0  0  0  0  0  0  0
  195.0190  172.8980  137.3010 O   0  0  0  0  0  0  0  0  0  0  0  0
  195.3170  175.3350  137.3020 O   0  0  0  0  0  0  0  0  0  0  0  0
  193.0920  174.3740  138.3720 N   0  0  0  0  0  2  0  0  0  0  0  0
  192.4010  173.1990  137.8670 C   0  0  1  0  0  3  0  0  0  0  0  0
  189.9150  173.4670  138.2860 C   0  0  0  0  0  0  0  0  0  0  0  0
  191.8810  172.3670  139.0380 C   0  0  0  0  0  2  0  0  0  0  0  0
  188.5400  174.0480  138.3520 C   0  0  0  0  0  1  0  0  0  0  0  0
  190.9680  173.7280  136.8680 S   0  0  0  0  0  0  0  0  0  0  0  0
  189.7570  172.4350  140.5430 C   0  0  0  0  0  1  0  0  0  0  0  0
  190.4720  172.7840  139.2760 C   0  0  0  0  0  0  0  0  0  0  0  0
  190.3580  175.4770  146.6150 N   0  0  0  0  0  2  0  0  0  0  0  0
  188.2610  176.7410  146.3790 C   0  0  0  0  0  0  0  0  0  0  0  0
  189.1220  175.6760  145.9840 N   0  0  0  0  0  2  0  0  0  0  0  0
  186.9640  176.8450  145.7950 N   0  0  0  0  0  2  0  0  0  0  0  0
  188.6540  177.5930  147.2270 O   0  0  0  0  0  0  0  0  0  0  0  0
  186.0850  177.9710  146.0610 C   0  0  0  0  0  2  0  0  0  0  0  0
  186.1220  178.9370  144.8890 C   0  0  0  0  0  2  0  0  0  0  0  0
  185.9120  178.2460  143.5400 C   0  0  1  0  0  3  0  0  0  0  0  0
  184.3520  177.7870  141.7520 O   0  0  0  0  0  1  0  0  0  0  0  0
  184.4730  178.3310  143.0330 C   0  0  0  0  0  2  0  0  0  0  0  0
  186.9270  178.6840  142.4870 C   0  0  0  0  0  2  0  0  0  0  0  0
  190.1310  178.2350  143.6750 C   0  0  0  0  0  2  0  0  0  0  0  0
  190.4920  177.0430  142.9780 C   0  0  0  0  0  2  0  0  0  0  0  0
  187.8880  177.5790  142.1840 C   0  0  0  0  0  0  0  0  0  0  0  0
  189.0920  177.6060  142.7500 C   0  0  0  0  0  0  0  0  0  0  0  0
  187.5300  176.5060  141.2410 C   0  0  0  0  0  0  0  0  0  0  0  0
  187.0210  176.7830  140.1220 O   0  0  0  0  0  0  0  0  0  0  0  0
  187.7520  175.1790  141.5720 O   0  0  0  0  0  1  0  0  0  0  0  0
  1 21  1  6  0  0  0
  1 14  1  0  0  0  0
  2  8  1  0  0  0  0
  3 11  1  0  0  0  0
  4  1  1  0  0  0  0
  4 12  1  1  0  0  0
  4  7  1  0  0  0  0
  5 17  1  6  0  0  0
  5  6  1  0  0  0  0
  6 13  1  0  0  0  0
  8 16  2  0  0  0  0
  8 35  1  0  0  0  0
  9  2  2  0  0  0  0
 10  3  2  0  0  0  0
 10  9  1  0  0  0  0
 11  2  1  0  0  0  0
 14  5  1  0  0  0  0
 15  7  1  0  0  0  0
 15 10  1  0  0  0  0
 16 13  2  0  0  0  0
 17 18  2  0  0  0  0
 19 20  1  0  0  0  0
 20 17  1  0  0  0  0
 22 21  1  0  0  0  0
 23 22  1  0  0  0  0
 24 27  1  0  0  0  0
 24 23  1  0  0  0  0
 25 24  2  0  0  0  0
 26 24  2  0  0  0  0
 28 27  1  1  0  0  0
 28 30  1  0  0  0  0
 29 31  1  0  0  0  0
 29 34  2  0  0  0  0
 30 34  1  0  0  0  0
 32 28  1  0  0  0  0
 32 29  1  0  0  0  0
 34 33  1  0  0  0  0
 36 39  2  0  0  0  0
 37 36  1  0  0  0  0
 37 35  1  0  0  0  0
 38 40  1  0  0  0  0
 38 36  1  0  0  0  0
 41 40  1  0  0  0  0
 42 45  1  6  0  0  0
 42 41  1  0  0  0  0
 43 44  1  0  0  0  0
 44 42  1  0  0  0  0
 47 46  1  0  0  0  0
 48 45  1  0  0  0  0
 48 49  2  0  0  0  0
 49 47  1  0  0  0  0
 49 46  1  0  0  0  0
 50 52  1  0  0  0  0
 50 48  1  0  0  0  0
 51 50  2  0  0  0  0
M  END
>  <MODEL>
1

>  <REMARK>
 VINA RESULT:      -6.5      0.000      0.000
  Name = 
  17 active torsions:
  status: ('A' for Active; 'I' for Inactive)
    1  A    between atoms: C_1  and  N_22
    2  A    between atoms: C_1  and  C_49
    3  A    between atoms: C_2  and  N_14
    4  A    between atoms: O_4  and  C_11
    5  A    between atoms: O_4  and  C_35
    6  A    between atoms: N_5  and  N_18
    7  A    between atoms: N_5  and  C_36
    8  A    between atoms: S_6  and  N_14
    9  A    between atoms: S_6  and  C_35
   10  A    between atoms: C_8  and  C_28
   11  A    between atoms: C_8  and  C_31
   12  A    between atoms: C_10  and  C_28
   13  A    between atoms: C_11  and  C_12
   14  A    between atoms: C_26  and  C_30
   15  A    between atoms: C_26  and  O_45
   16  A    between atoms: C_31  and  C_44
   17  A    between atoms: C_31  and  C_49
                            x       y       z     vdW  Elec       q    Type
                         _______ _______ _______ _____ _____    ______ ____

>  <TORSDO>
F 17

$$$$
=
 OpenBabel11042415583D

 52 55  0  0  1  0  0  0  0  0999 V2000
  194.1020  173.8990  142.0750 C   0  0  1  0  0  3  0  0  0  0  0  0
  192.0330  175.3610  145.8960 C   0  0  0  0  0  0  0  0  0  0  0  0
  193.8570  176.5420  146.2640 N   0  0  0  0  0  0  0  0  0  0  0  0
  194.8760  175.1860  141.7520 C   0  0  2  0  0  3  0  0  0  0  0  0
  191.7780  173.1310  142.6500 C   0  0  2  0  0  3  0  0  0  0  0  0
  190.3390  173.6370  142.6860 C   0  0  0  0  0  2  0  0  0  0  0  0
  194.4940  176.3350  142.6760 C   0  0  0  0  0  2  0  0  0  0  0  0
  190.7140  174.7320  146.0700 C   0  0  0  0  0  0  0  0  0  0  0  0
  192.7760  175.2300  144.7860 N   0  0  0  0  0  0  0  0  0  0  0  0
  193.8680  175.9720  145.0430 C   0  0  0  0  0  0  0  0  0  0  0  0
  192.6850  176.1610  146.8120 C   0  0  0  0  0  2  0  0  0  0  0  0
  194.6730  175.5700  140.4230 O   0  0  0  0  0  1  0  0  0  0  0  0
  189.7320  173.4150  144.0350 C   0  0  0  0  0  3  0  0  0  0  0  0
  192.6210  173.9700  141.6940 C   0  0  0  0  0  2  0  0  0  0  0  0
  195.0070  176.0980  144.0900 C   0  0  0  0  0  2  0  0  0  0  0  0
  190.1970  174.0590  145.0720 C   0  0  0  0  0  0  0  0  0  0  0  0
  191.8250  171.6680  142.3060 C   0  0  0  0  0  0  0  0  0  0  0  0
  192.2470  170.8380  143.1540 O   0  0  0  0  0  0  0  0  0  0  0  0
  190.8660  169.9050  140.8710 C   0  0  0  0  0  1  0  0  0  0  0  0
  191.3980  171.2090  141.0580 O   0  0  0  0  0  0  0  0  0  0  0  0
  194.7850  172.6590  141.4890 C   0  0  0  0  0  2  0  0  0  0  0  0
  195.5340  172.9740  140.3490 O   0  0  0  0  0  0  0  0  0  0  0  0
  195.1390  172.0500  139.3810 C   0  0  0  0  0  2  0  0  0  0  0  0
  195.2680  172.7710  137.7560 S   0  0  0  0  0  0  0  0  0  0  0  0
  196.0190  171.8290  136.8570 O   0  0  0  0  0  0  0  0  0  0  0  0
  196.0020  174.0790  137.8400 O   0  0  0  0  0  0  0  0  0  0  0  0
  193.6720  173.0340  137.1350 N   0  0  0  0  0  2  0  0  0  0  0  0
  192.7230  172.4910  138.0930 C   0  0  1  0  0  3  0  0  0  0  0  0
  190.5940  171.8590  136.8710 C   0  0  0  0  0  0  0  0  0  0  0  0
  191.5790  173.4820  138.2990 C   0  0  0  0  0  2  0  0  0  0  0  0
  189.6510  171.2910  135.8600 C   0  0  0  0  0  1  0  0  0  0  0  0
  192.0200  170.9430  137.4310 S   0  0  0  0  0  0  0  0  0  0  0  0
  189.3540  174.0080  137.0500 C   0  0  0  0  0  1  0  0  0  0  0  0
  190.4860  173.0820  137.3710 C   0  0  0  0  0  0  0  0  0  0  0  0
  189.9860  174.9160  147.2880 N   0  0  0  0  0  2  0  0  0  0  0  0
  188.0440  176.4130  147.0970 C   0  0  0  0  0  0  0  0  0  0  0  0
  188.5980  175.1160  147.2970 N   0  0  0  0  0  2  0  0  0  0  0  0
  186.6350  176.5980  147.2260 N   0  0  0  0  0  2  0  0  0  0  0  0
  188.7940  177.3840  146.7930 O   0  0  0  0  0  0  0  0  0  0  0  0
  185.9910  177.8650  146.9180 C   0  0  0  0  0  2  0  0  0  0  0  0
  184.8680  177.6380  145.9200 C   0  0  0  0  0  2  0  0  0  0  0  0
  185.2610  178.0000  144.4870 C   0  0  1  0  0  3  0  0  0  0  0  0
  183.5470  178.3770  142.8250 O   0  0  0  0  0  1  0  0  0  0  0  0
  184.3020  178.9910  143.8270 C   0  0  0  0  0  2  0  0  0  0  0  0
  186.7200  178.4350  144.3670 C   0  0  0  0  0  2  0  0  0  0  0  0
  190.1240  178.1060  143.9350 C   0  0  0  0  0  2  0  0  0  0  0  0
  190.1500  177.1640  142.8630 C   0  0  0  0  0  2  0  0  0  0  0  0
  187.4590  177.5560  143.4080 C   0  0  0  0  0  0  0  0  0  0  0  0
  188.7880  177.5930  143.4020 C   0  0  0  0  0  0  0  0  0  0  0  0
  186.7300  176.7010  142.4560 C   0  0  0  0  0  0  0  0  0  0  0  0
  186.5850  175.4700  142.6840 O   0  0  0  0  0  1  0  0  0  0  0  0
  186.1920  177.2410  141.2990 O   0  0  0  0  0  0  0  0  0  0  0  0
  1 21  1  6  0  0  0
  2  8  1  0  0  0  0
  2 11  1  0  0  0  0
  3 11  1  0  0  0  0
  4 12  1  6  0  0  0
  4  1  1  0  0  0  0
  4  7  1  0  0  0  0
  5 17  1  6  0  0  0
  5  6  1  0  0  0  0
  6 13  1  0  0  0  0
  7 15  1  0  0  0  0
  8 35  1  0  0  0  0
  9 10  1  0  0  0  0
  9  2  2  0  0  0  0
 10  3  2  0  0  0  0
 13 16  2  0  0  0  0
 14  1  1  0  0  0  0
 14  5  1  0  0  0  0
 15 10  1  0  0  0  0
 16  8  2  0  0  0  0
 17 18  2  0  0  0  0
 19 20  1  0  0  0  0
 20 17  1  0  0  0  0
 22 21  1  0  0  0  0
 23 22  1  0  0  0  0
 24 26  2  0  0  0  0
 24 23  1  0  0  0  0
 25 24  2  0  0  0  0
 27 24  1  0  0  0  0
 28 27  1  6  0  0  0
 28 30  1  0  0  0  0
 29 34  2  0  0  0  0
 29 32  1  0  0  0  0
 31 29  1  0  0  0  0
 32 28  1  0  0  0  0
 33 34  1  0  0  0  0
 34 30  1  0  0  0  0
 35 37  1  0  0  0  0
 36 38  1  0  0  0  0
 36 37  1  0  0  0  0
 39 36  2  0  0  0  0
 40 38  1  0  0  0  0
 41 40  1  0  0  0  0
 42 44  1  1  0  0  0
 42 41  1  0  0  0  0
 43 44  1  0  0  0  0
 45 42  1  0  0  0  0
 47 49  1  0  0  0  0
 47 46  1  0  0  0  0
 48 45  1  0  0  0  0
 49 48  2  0  0  0  0
 49 46  1  0  0  0  0
 50 51  1  0  0  0  0
 50 48  1  0  0  0  0
 52 50  2  0  0  0  0
M  END
>  <MODEL>
2

>  <REMARK>
 VINA RESULT:      -6.4      1.771      3.390
  Name = 
  17 active torsions:
  status: ('A' for Active; 'I' for Inactive)
    1  A    between atoms: C_1  and  N_22
    2  A    between atoms: C_1  and  C_49
    3  A    between atoms: C_2  and  N_14
    4  A    between atoms: O_4  and  C_11
    5  A    between atoms: O_4  and  C_35
    6  A    between atoms: N_5  and  N_18
    7  A    between atoms: N_5  and  C_36
    8  A    between atoms: S_6  and  N_14
    9  A    between atoms: S_6  and  C_35
   10  A    between atoms: C_8  and  C_28
   11  A    between atoms: C_8  and  C_31
   12  A    between atoms: C_10  and  C_28
   13  A    between atoms: C_11  and  C_12
   14  A    between atoms: C_26  and  C_30
   15  A    between atoms: C_26  and  O_45
   16  A    between atoms: C_31  and  C_44
   17  A    between atoms: C_31  and  C_49
                            x       y       z     vdW  Elec       q    Type
                         _______ _______ _______ _____ _____    ______ ____

>  <TORSDO>
F 17

$$$$
=
 OpenBabel11042415583D

 52 55  0  0  1  0  0  0  0  0999 V2000
  189.5010  175.7900  145.8400 C   0  0  1  0  0  3  0  0  0  0  0  0
  193.9120  176.3310  144.7170 C   0  0  0  0  0  0  0  0  0  0  0  0
  194.1970  177.0830  146.7680 N   0  0  0  0  0  0  0  0  0  0  0  0
  189.7050  175.4210  147.3170 C   0  0  2  0  0  3  0  0  0  0  0  0
  190.3290  175.1530  143.5540 C   0  0  2  0  0  3  0  0  0  0  0  0
  191.1560  174.0810  142.8500 C   0  0  0  0  0  2  0  0  0  0  0  0
  191.1770  175.2400  147.6660 C   0  0  0  0  0  2  0  0  0  0  0  0
  194.1600  175.9650  143.3130 C   0  0  0  0  0  0  0  0  0  0  0  0
  192.7440  176.1170  145.3430 N   0  0  0  0  0  0  0  0  0  0  0  0
  192.9630  176.5740  146.5890 C   0  0  0  0  0  0  0  0  0  0  0  0
  194.8110  176.9260  145.5780 C   0  0  0  0  0  2  0  0  0  0  0  0
  189.0030  174.2570  147.6430 O   0  0  0  0  0  1  0  0  0  0  0  0
  192.2550  174.7000  142.0450 C   0  0  0  0  0  3  0  0  0  0  0  0
  189.7870  174.6310  144.8810 C   0  0  0  0  0  2  0  0  0  0  0  0
  191.9140  176.5720  147.6500 C   0  0  0  0  0  2  0  0  0  0  0  0
  193.2230  175.3360  142.6480 C   0  0  0  0  0  0  0  0  0  0  0  0
  189.2340  175.6620  142.6580 C   0  0  0  0  0  0  0  0  0  0  0  0
  188.3050  174.8880  142.3020 O   0  0  0  0  0  0  0  0  0  0  0  0
  190.0820  177.9760  142.7640 C   0  0  0  0  0  1  0  0  0  0  0  0
  189.2210  176.9870  142.2180 O   0  0  0  0  0  0  0  0  0  0  0  0
  188.1220  176.4110  145.5920 C   0  0  0  0  0  2  0  0  0  0  0  0
  187.7370  177.2480  146.6460 O   0  0  0  0  0  0  0  0  0  0  0  0
  186.4230  176.8870  146.9440 C   0  0  0  0  0  2  0  0  0  0  0  0
  185.2830  177.9960  146.1390 S   0  0  0  0  0  0  0  0  0  0  0  0
  185.7920  179.4050  146.2670 O   0  0  0  0  0  0  0  0  0  0  0  0
  183.9320  177.8890  146.7870 O   0  0  0  0  0  0  0  0  0  0  0  0
  185.1670  177.5590  144.4670 N   0  0  0  0  0  2  0  0  0  0  0  0
  185.1620  178.7850  143.6830 C   0  0  1  0  0  3  0  0  0  0  0  0
  184.1040  178.3120  141.4290 C   0  0  0  0  0  0  0  0  0  0  0  0
  186.1710  178.6680  142.5430 C   0  0  0  0  0  2  0  0  0  0  0  0
  183.1630  177.8260  140.3740 C   0  0  0  0  0  1  0  0  0  0  0  0
  183.5070  179.0240  142.9530 S   0  0  0  0  0  0  0  0  0  0  0  0
  186.1290  177.6490  140.1460 C   0  0  0  0  0  1  0  0  0  0  0  0
  185.4220  178.1970  141.3460 C   0  0  0  0  0  0  0  0  0  0  0  0
  195.4320  176.2320  142.7150 N   0  0  0  0  0  2  0  0  0  0  0  0
  196.3770  175.4050  140.6000 C   0  0  0  0  0  0  0  0  0  0  0  0
  195.5890  176.3440  141.3270 N   0  0  0  0  0  2  0  0  0  0  0  0
  196.6060  175.6150  139.2080 N   0  0  0  0  0  2  0  0  0  0  0  0
  196.8510  174.3890  141.1830 O   0  0  0  0  0  0  0  0  0  0  0  0
  197.2960  174.6370  138.3830 C   0  0  0  0  0  2  0  0  0  0  0  0
  197.3800  175.1430  136.9530 C   0  0  0  0  0  2  0  0  0  0  0  0
  196.3860  174.4530  136.0170 C   0  0  1  0  0  3  0  0  0  0  0  0
  197.4930  172.7200  134.7470 O   0  0  0  0  0  1  0  0  0  0  0  0
  197.0030  174.0260  134.6850 C   0  0  0  0  0  2  0  0  0  0  0  0
  195.6260  173.3160  136.6970 C   0  0  0  0  0  2  0  0  0  0  0  0
  193.1240  171.6420  135.0190 C   0  0  0  0  0  2  0  0  0  0  0  0
  191.9950  172.4200  135.4140 C   0  0  0  0  0  2  0  0  0  0  0  0
  194.1560  173.5880  136.7010 C   0  0  0  0  0  0  0  0  0  0  0  0
  193.3610  172.8170  135.9650 C   0  0  0  0  0  0  0  0  0  0  0  0
  193.6020  174.7190  137.4650 C   0  0  0  0  0  0  0  0  0  0  0  0
  193.2770  174.5750  138.6750 O   0  0  0  0  0  1  0  0  0  0  0  0
  193.4330  175.9560  136.8640 O   0  0  0  0  0  0  0  0  0  0  0  0
  1 21  1  1  0  0  0
  1  4  1  0  0  0  0
  2  9  2  0  0  0  0
  2 11  1  0  0  0  0
  4 12  1  6  0  0  0
  4  7  1  0  0  0  0
  5 17  1  6  0  0  0
  5 14  1  0  0  0  0
  6  5  1  0  0  0  0
  8  2  1  0  0  0  0
  9 10  1  0  0  0  0
 10  3  2  0  0  0  0
 10 15  1  0  0  0  0
 11  3  1  0  0  0  0
 13 16  2  0  0  0  0
 13  6  1  0  0  0  0
 14  1  1  0  0  0  0
 15  7  1  0  0  0  0
 16  8  2  0  0  0  0
 18 17  2  0  0  0  0
 20 17  1  0  0  0  0
 20 19  1  0  0  0  0
 21 22  1  0  0  0  0
 22 23  1  0  0  0  0
 24 25  2  0  0  0  0
 24 26  2  0  0  0  0
 24 23  1  0  0  0  0
 27 24  1  0  0  0  0
 28 27  1  6  0  0  0
 29 32  1  0  0  0  0
 30 28  1  0  0  0  0
 31 29  1  0  0  0  0
 32 28  1  0  0  0  0
 33 34  1  0  0  0  0
 34 29  2  0  0  0  0
 34 30  1  0  0  0  0
 35  8  1  0  0  0  0
 36 39  2  0  0  0  0
 36 37  1  0  0  0  0
 37 35  1  0  0  0  0
 38 36  1  0  0  0  0
 40 38  1  0  0  0  0
 41 40  1  0  0  0  0
 42 44  1  6  0  0  0
 42 45  1  0  0  0  0
 42 41  1  0  0  0  0
 44 43  1  0  0  0  0
 45 48  1  0  0  0  0
 46 47  1  0  0  0  0
 46 49  1  0  0  0  0
 47 49  1  0  0  0  0
 48 50  1  0  0  0  0
 49 48  2  0  0  0  0
 50 51  1  0  0  0  0
 52 50  2  0  0  0  0
M  END
>  <MODEL>
3

>  <REMARK>
 VINA RESULT:      -6.3      3.586      9.359
  Name = 
  17 active torsions:
  status: ('A' for Active; 'I' for Inactive)
    1  A    between atoms: C_1  and  N_22
    2  A    between atoms: C_1  and  C_49
    3  A    between atoms: C_2  and  N_14
    4  A    between atoms: O_4  and  C_11
    5  A    between atoms: O_4  and  C_35
    6  A    between atoms: N_5  and  N_18
    7  A    between atoms: N_5  and  C_36
    8  A    between atoms: S_6  and  N_14
    9  A    between atoms: S_6  and  C_35
   10  A    between atoms: C_8  and  C_28
   11  A    between atoms: C_8  and  C_31
   12  A    between atoms: C_10  and  C_28
   13  A    between atoms: C_11  and  C_12
   14  A    between atoms: C_26  and  C_30
   15  A    between atoms: C_26  and  O_45
   16  A    between atoms: C_31  and  C_44
   17  A    between atoms: C_31  and  C_49
                            x       y       z     vdW  Elec       q    Type
                         _______ _______ _______ _____ _____    ______ ____

>  <TORSDO>
F 17

$$$$
=
 OpenBabel11042415583D

 52 55  0  0  1  0  0  0  0  0999 V2000
  193.4700  173.4470  139.7740 C   0  0  1  0  0  3  0  0  0  0  0  0
  193.1630  175.2730  143.9680 C   0  0  0  0  0  0  0  0  0  0  0  0
  195.2510  175.9190  143.6870 N   0  0  0  0  0  0  0  0  0  0  0  0
  194.4100  174.4950  139.1590 C   0  0  2  0  0  3  0  0  0  0  0  0
  191.3300  173.2990  141.0840 C   0  0  2  0  0  3  0  0  0  0  0  0
  190.1590  174.1640  141.5410 C   0  0  0  0  0  2  0  0  0  0  0  0
  194.6500  175.6720  140.0950 C   0  0  0  0  0  2  0  0  0  0  0  0
  191.8500  175.0080  144.5770 C   0  0  0  0  0  0  0  0  0  0  0  0
  193.4580  174.9880  142.6900 N   0  0  0  0  0  0  0  0  0  0  0  0
  194.7290  175.4080  142.5550 C   0  0  0  0  0  0  0  0  0  0  0  0
  194.2540  175.8420  144.5920 C   0  0  0  0  0  2  0  0  0  0  0  0
  193.9070  174.9630  137.9420 O   0  0  0  0  0  1  0  0  0  0  0  0
  189.9710  174.0660  143.0210 C   0  0  0  0  0  3  0  0  0  0  0  0
  192.0170  173.9190  139.8710 C   0  0  0  0  0  2  0  0  0  0  0  0
  195.5020  175.2610  141.2880 C   0  0  0  0  0  2  0  0  0  0  0  0
  190.8890  174.5290  143.8270 C   0  0  0  0  0  0  0  0  0  0  0  0
  190.8840  171.8880  140.8190 C   0  0  0  0  0  0  0  0  0  0  0  0
  190.9900  171.0160  141.7230 O   0  0  0  0  0  0  0  0  0  0  0  0
  189.0410  171.9250  139.1790 C   0  0  0  0  0  1  0  0  0  0  0  0
  190.3410  171.5250  139.5850 O   0  0  0  0  0  0  0  0  0  0  0  0
  193.5860  172.0920  139.0700 C   0  0  0  0  0  2  0  0  0  0  0  0
  194.9090  171.6330  139.0500 O   0  0  0  0  0  0  0  0  0  0  0  0
  194.8630  170.3510  139.5990 C   0  0  0  0  0  2  0  0  0  0  0  0
  196.4230  169.9540  140.3640 S   0  0  0  0  0  0  0  0  0  0  0  0
  197.5070  170.7820  139.7320 O   0  0  0  0  0  0  0  0  0  0  0  0
  196.7260  168.4960  140.1680 O   0  0  0  0  0  0  0  0  0  0  0  0
  196.3200  170.3080  142.0570 N   0  0  0  0  0  2  0  0  0  0  0  0
  196.0030  171.7200  142.2010 C   0  0  1  0  0  3  0  0  0  0  0  0
  196.2930  172.3820  144.6300 C   0  0  0  0  0  0  0  0  0  0  0  0
  194.6850  171.8750  142.9570 C   0  0  0  0  0  2  0  0  0  0  0  0
  196.8640  172.5360  146.0030 C   0  0  0  0  0  1  0  0  0  0  0  0
  197.3150  172.5330  143.1740 S   0  0  0  0  0  0  0  0  0  0  0  0
  193.9990  171.9110  145.4690 C   0  0  0  0  0  1  0  0  0  0  0  0
  195.0280  172.0640  144.3930 C   0  0  0  0  0  0  0  0  0  0  0  0
  191.6150  175.3360  145.9500 N   0  0  0  0  0  2  0  0  0  0  0  0
  189.4000  176.1810  146.6060 C   0  0  0  0  0  0  0  0  0  0  0  0
  190.7800  176.3980  146.3250 N   0  0  0  0  0  2  0  0  0  0  0  0
  188.5570  177.3000  146.8730 N   0  0  0  0  0  2  0  0  0  0  0  0
  188.9360  175.0060  146.6320 O   0  0  0  0  0  0  0  0  0  0  0  0
  187.1720  177.1420  147.2840 C   0  0  0  0  0  2  0  0  0  0  0  0
  186.3660  176.5400  146.1460 C   0  0  0  0  0  2  0  0  0  0  0  0
  185.4670  177.5620  145.4460 C   0  0  1  0  0  3  0  0  0  0  0  0
  183.5450  179.0110  145.6560 O   0  0  0  0  0  1  0  0  0  0  0  0
  184.3720  178.1260  146.3500 C   0  0  0  0  0  2  0  0  0  0  0  0
  186.2600  178.6600  144.7390 C   0  0  0  0  0  2  0  0  0  0  0  0
  189.3420  177.8860  143.4030 C   0  0  0  0  0  2  0  0  0  0  0  0
  188.9710  177.6360  142.0480 C   0  0  0  0  0  2  0  0  0  0  0  0
  186.5950  178.2540  143.3390 C   0  0  0  0  0  0  0  0  0  0  0  0
  187.8660  178.0090  143.0320 C   0  0  0  0  0  0  0  0  0  0  0  0
  185.5480  178.1750  142.3070 C   0  0  0  0  0  0  0  0  0  0  0  0
  184.4940  178.8580  142.4120 O   0  0  0  0  0  1  0  0  0  0  0  0
  185.7110  177.3490  141.2060 O   0  0  0  0  0  0  0  0  0  0  0  0
  1 21  1  6  0  0  0
  1 14  1  0  0  0  0
  2  8  1  0  0  0  0
  2 11  1  0  0  0  0
  3 11  1  0  0  0  0
  4 12  1  6  0  0  0
  4  1  1  0  0  0  0
  4  7  1  0  0  0  0
  5 17  1  6  0  0  0
  5  6  1  0  0  0  0
  6 13  1  0  0  0  0
  7 15  1  0  0  0  0
  8 35  1  0  0  0  0
  9  2  2  0  0  0  0
 10  9  1  0  0  0  0
 10  3  2  0  0  0  0
 13 16  2  0  0  0  0
 14  5  1  0  0  0  0
 15 10  1  0  0  0  0
 16  8  2  0  0  0  0
 17 18  2  0  0  0  0
 19 20  1  0  0  0  0
 20 17  1  0  0  0  0
 22 21  1  0  0  0  0
 22 23  1  0  0  0  0
 23 24  1  0  0  0  0
 24 27  1  0  0  0  0
 25 24  2  0  0  0  0
 26 24  2  0  0  0  0
 28 27  1  1  0  0  0
 28 30  1  0  0  0  0
 28 32  1  0  0  0  0
 29 31  1  0  0  0  0
 30 34  1  0  0  0  0
 32 29  1  0  0  0  0
 34 29  2  0  0  0  0
 34 33  1  0  0  0  0
 35 37  1  0  0  0  0
 36 39  2  0  0  0  0
 36 38  1  0  0  0  0
 37 36  1  0  0  0  0
 38 40  1  0  0  0  0
 41 40  1  0  0  0  0
 42 45  1  1  0  0  0
 42 41  1  0  0  0  0
 42 44  1  0  0  0  0
 43 44  1  0  0  0  0
 47 49  1  0  0  0  0
 47 46  1  0  0  0  0
 48 45  1  0  0  0  0
 49 48  2  0  0  0  0
 49 46  1  0  0  0  0
 50 51  1  0  0  0  0
 50 48  1  0  0  0  0
 52 50  2  0  0  0  0
M  END
>  <MODEL>
4

>  <REMARK>
 VINA RESULT:      -6.1      2.510      5.079
  Name = 
  17 active torsions:
  status: ('A' for Active; 'I' for Inactive)
    1  A    between atoms: C_1  and  N_22
    2  A    between atoms: C_1  and  C_49
    3  A    between atoms: C_2  and  N_14
    4  A    between atoms: O_4  and  C_11
    5  A    between atoms: O_4  and  C_35
    6  A    between atoms: N_5  and  N_18
    7  A    between atoms: N_5  and  C_36
    8  A    between atoms: S_6  and  N_14
    9  A    between atoms: S_6  and  C_35
   10  A    between atoms: C_8  and  C_28
   11  A    between atoms: C_8  and  C_31
   12  A    between atoms: C_10  and  C_28
   13  A    between atoms: C_11  and  C_12
   14  A    between atoms: C_26  and  C_30
   15  A    between atoms: C_26  and  O_45
   16  A    between atoms: C_31  and  C_44
   17  A    between atoms: C_31  and  C_49
                            x       y       z     vdW  Elec       q    Type
                         _______ _______ _______ _____ _____    ______ ____

>  <TORSDO>
F 17

$$$$
=
 OpenBabel11042415583D

 52 55  0  0  1  0  0  0  0  0999 V2000
  189.7500  176.4930  144.5520 C   0  0  1  0  0  3  0  0  0  0  0  0
  191.2910  172.3090  143.4860 C   0  0  0  0  0  0  0  0  0  0  0  0
  189.5820  172.1850  142.1000 N   0  0  0  0  0  0  0  0  0  0  0  0
  189.1980  176.8710  143.1690 C   0  0  2  0  0  3  0  0  0  0  0  0
  191.8350  175.5830  145.6210 C   0  0  2  0  0  3  0  0  0  0  0  0
  193.2960  175.2810  145.3000 C   0  0  0  0  0  2  0  0  0  0  0  0
  189.5490  175.8350  142.1070 C   0  0  0  0  0  2  0  0  0  0  0  0
  192.4780  171.9530  144.2800 C   0  0  0  0  0  0  0  0  0  0  0  0
  190.7390  173.5330  143.4870 N   0  0  0  0  0  0  0  0  0  0  0  0
  189.7140  173.4200  142.6240 C   0  0  0  0  0  0  0  0  0  0  0  0
  190.5900  171.4720  142.6420 C   0  0  0  0  0  2  0  0  0  0  0  0
  189.6700  178.1240  142.7690 O   0  0  0  0  0  1  0  0  0  0  0  0
  193.6330  173.8640  145.6400 C   0  0  0  0  0  3  0  0  0  0  0  0
  191.2730  176.6190  144.6530 C   0  0  0  0  0  2  0  0  0  0  0  0
  188.7770  174.5410  142.3260 C   0  0  0  0  0  2  0  0  0  0  0  0
  193.0760  172.8860  144.9780 C   0  0  0  0  0  0  0  0  0  0  0  0
  191.6770  176.0080  147.0550 C   0  0  0  0  0  0  0  0  0  0  0  0
  192.2000  177.0830  147.4520 O   0  0  0  0  0  0  0  0  0  0  0  0
  189.6790  174.6810  147.6340 C   0  0  0  0  0  1  0  0  0  0  0  0
  190.9470  175.2340  147.9590 O   0  0  0  0  0  0  0  0  0  0  0  0
  189.0370  177.2500  145.6770 C   0  0  0  0  0  2  0  0  0  0  0  0
  187.7410  176.7640  145.8850 O   0  0  0  0  0  0  0  0  0  0  0  0
  187.0000  177.8650  146.3160 C   0  0  0  0  0  2  0  0  0  0  0  0
  185.2590  177.5620  146.0810 S   0  0  0  0  0  0  0  0  0  0  0  0
  184.4820  178.7630  146.5440 O   0  0  0  0  0  0  0  0  0  0  0  0
  184.8430  176.3580  146.8780 O   0  0  0  0  0  0  0  0  0  0  0  0
  184.9640  177.2800  144.3980 N   0  0  0  0  0  2  0  0  0  0  0  0
  184.9670  178.5670  143.7210 C   0  0  1  0  0  3  0  0  0  0  0  0
  184.2470  178.2290  141.3140 C   0  0  0  0  0  0  0  0  0  0  0  0
  186.1210  178.6170  142.7210 C   0  0  0  0  0  2  0  0  0  0  0  0
  183.4890  177.7780  140.1070 C   0  0  0  0  0  1  0  0  0  0  0  0
  183.4060  178.7620  142.7960 S   0  0  0  0  0  0  0  0  0  0  0  0
  186.4650  177.8150  140.2670 C   0  0  0  0  0  1  0  0  0  0  0  0
  185.5700  178.2070  141.4000 C   0  0  0  0  0  0  0  0  0  0  0  0
  193.0040  170.6230  144.2280 N   0  0  0  0  0  2  0  0  0  0  0  0
  194.7670  170.8690  142.5310 C   0  0  0  0  0  0  0  0  0  0  0  0
  194.3050  170.3590  143.7790 N   0  0  0  0  0  2  0  0  0  0  0  0
  196.0570  170.4860  142.0550 N   0  0  0  0  0  2  0  0  0  0  0  0
  194.0460  171.6640  141.8650 O   0  0  0  0  0  0  0  0  0  0  0  0
  196.6380  171.0620  140.8540 C   0  0  0  0  0  2  0  0  0  0  0  0
  197.8650  171.8790  141.2200 C   0  0  0  0  0  2  0  0  0  0  0  0
  197.6700  173.3800  141.0000 C   0  0  1  0  0  3  0  0  0  0  0  0
  197.6270  175.1710  139.3780 O   0  0  0  0  0  1  0  0  0  0  0  0
  197.9410  173.8230  139.5630 C   0  0  0  0  0  2  0  0  0  0  0  0
  196.3250  173.8830  141.5200 C   0  0  0  0  0  2  0  0  0  0  0  0
  197.2550  172.8220  144.6640 C   0  0  0  0  0  2  0  0  0  0  0  0
  197.1960  174.0590  145.3730 C   0  0  0  0  0  2  0  0  0  0  0  0
  196.5060  174.6950  142.7630 C   0  0  0  0  0  0  0  0  0  0  0  0
  196.8630  174.0750  143.8840 C   0  0  0  0  0  0  0  0  0  0  0  0
  196.2470  176.1440  142.7610 C   0  0  0  0  0  0  0  0  0  0  0  0
  196.0570  176.7580  141.6770 O   0  0  0  0  0  0  0  0  0  0  0  0
  196.2060  176.8510  143.9530 O   0  0  0  0  0  1  0  0  0  0  0  0
  1 14  1  0  0  0  0
  1 21  1  1  0  0  0
  2  9  2  0  0  0  0
  2  8  1  0  0  0  0
  3 10  2  0  0  0  0
  3 11  1  0  0  0  0
  4 12  1  6  0  0  0
  4  1  1  0  0  0  0
  5 17  1  1  0  0  0
  6  5  1  0  0  0  0
  6 13  1  0  0  0  0
  7 15  1  0  0  0  0
  7  4  1  0  0  0  0
  8 16  2  0  0  0  0
 10  9  1  0  0  0  0
 11  2  1  0  0  0  0
 14  5  1  0  0  0  0
 15 10  1  0  0  0  0
 16 13  2  0  0  0  0
 17 18  2  0  0  0  0
 17 20  1  0  0  0  0
 19 20  1  0  0  0  0
 21 22  1  0  0  0  0
 22 23  1  0  0  0  0
 24 23  1  0  0  0  0
 24 25  2  0  0  0  0
 24 26  2  0  0  0  0
 27 24  1  0  0  0  0
 28 27  1  6  0  0  0
 29 34  2  0  0  0  0
 29 32  1  0  0  0  0
 30 28  1  0  0  0  0
 31 29  1  0  0  0  0
 32 28  1  0  0  0  0
 33 34  1  0  0  0  0
 34 30  1  0  0  0  0
 35  8  1  0  0  0  0
 36 37  1  0  0  0  0
 37 35  1  0  0  0  0
 38 36  1  0  0  0  0
 39 36  2  0  0  0  0
 40 41  1  0  0  0  0
 40 38  1  0  0  0  0
 42 44  1  6  0  0  0
 42 41  1  0  0  0  0
 42 45  1  0  0  0  0
 43 44  1  0  0  0  0
 45 48  1  0  0  0  0
 46 47  1  0  0  0  0
 48 49  2  0  0  0  0
 49 46  1  0  0  0  0
 49 47  1  0  0  0  0
 50 48  1  0  0  0  0
 50 52  1  0  0  0  0
 51 50  2  0  0  0  0
M  END
>  <MODEL>
5

>  <REMARK>
 VINA RESULT:      -6.1      3.432      8.909
  Name = 
  17 active torsions:
  status: ('A' for Active; 'I' for Inactive)
    1  A    between atoms: C_1  and  N_22
    2  A    between atoms: C_1  and  C_49
    3  A    between atoms: C_2  and  N_14
    4  A    between atoms: O_4  and  C_11
    5  A    between atoms: O_4  and  C_35
    6  A    between atoms: N_5  and  N_18
    7  A    between atoms: N_5  and  C_36
    8  A    between atoms: S_6  and  N_14
    9  A    between atoms: S_6  and  C_35
   10  A    between atoms: C_8  and  C_28
   11  A    between atoms: C_8  and  C_31
   12  A    between atoms: C_10  and  C_28
   13  A    between atoms: C_11  and  C_12
   14  A    between atoms: C_26  and  C_30
   15  A    between atoms: C_26  and  O_45
   16  A    between atoms: C_31  and  C_44
   17  A    between atoms: C_31  and  C_49
                            x       y       z     vdW  Elec       q    Type
                         _______ _______ _______ _____ _____    ______ ____

>  <TORSDO>
F 17

$$$$
=
 OpenBabel11042415583D

 52 55  0  0  1  0  0  0  0  0999 V2000
  192.4620  175.2690  145.0970 C   0  0  1  0  0  3  0  0  0  0  0  0
  196.4840  174.9590  142.9190 C   0  0  0  0  0  0  0  0  0  0  0  0
  196.8100  177.0560  143.5150 N   0  0  0  0  0  0  0  0  0  0  0  0
  192.9050  176.2240  146.2170 C   0  0  2  0  0  3  0  0  0  0  0  0
  193.1630  173.1210  143.9970 C   0  0  2  0  0  3  0  0  0  0  0  0
  194.1310  171.9570  144.1810 C   0  0  0  0  0  2  0  0  0  0  0  0
  194.4080  176.4710  146.2010 C   0  0  0  0  0  2  0  0  0  0  0  0
  196.6560  173.6400  142.2890 C   0  0  0  0  0  0  0  0  0  0  0  0
  195.4720  175.2580  143.7480 N   0  0  0  0  0  0  0  0  0  0  0  0
  195.7130  176.5340  144.0980 C   0  0  0  0  0  0  0  0  0  0  0  0
  197.3110  176.0530  142.7650 C   0  0  0  0  0  2  0  0  0  0  0  0
  192.5280  175.7320  147.4700 O   0  0  0  0  0  1  0  0  0  0  0  0
  194.9660  171.7600  142.9550 C   0  0  0  0  0  3  0  0  0  0  0  0
  192.9010  173.8210  145.3270 C   0  0  0  0  0  2  0  0  0  0  0  0
  194.8140  177.3120  144.9980 C   0  0  0  0  0  2  0  0  0  0  0  0
  195.8220  172.6780  142.5960 C   0  0  0  0  0  0  0  0  0  0  0  0
  191.8890  172.6610  143.3420 C   0  0  0  0  0  0  0  0  0  0  0  0
  190.9750  172.1480  144.0400 O   0  0  0  0  0  0  0  0  0  0  0  0
  190.8090  173.7700  141.4200 C   0  0  0  0  0  1  0  0  0  0  0  0
  191.6960  172.8040  141.9660 O   0  0  0  0  0  0  0  0  0  0  0  0
  190.9600  175.3750  144.8170 C   0  0  0  0  0  2  0  0  0  0  0  0
  190.5530  176.7080  144.6820 O   0  0  0  0  0  0  0  0  0  0  0  0
  190.5580  176.9570  143.3090 C   0  0  0  0  0  2  0  0  0  0  0  0
  188.9000  177.2780  142.7380 S   0  0  0  0  0  0  0  0  0  0  0  0
  188.3030  176.0020  142.2140 O   0  0  0  0  0  0  0  0  0  0  0  0
  188.9340  178.3040  141.6400 O   0  0  0  0  0  0  0  0  0  0  0  0
  187.9580  177.8710  144.0640 N   0  0  0  0  0  2  0  0  0  0  0  0
  187.0810  176.7980  144.5060 C   0  0  1  0  0  3  0  0  0  0  0  0
  185.0790  177.8080  145.6870 C   0  0  0  0  0  0  0  0  0  0  0  0
  187.1410  176.6810  146.0280 C   0  0  0  0  0  2  0  0  0  0  0  0
  183.9050  178.6780  146.0030 C   0  0  0  0  0  1  0  0  0  0  0  0
  185.3630  177.1930  144.0350 S   0  0  0  0  0  0  0  0  0  0  0  0
  185.9560  177.8800  148.0130 C   0  0  0  0  0  1  0  0  0  0  0  0
  186.0130  177.4860  146.5710 C   0  0  0  0  0  0  0  0  0  0  0  0
  197.7610  173.4020  141.4120 N   0  0  0  0  0  2  0  0  0  0  0  0
  197.0130  173.8470  139.1120 C   0  0  0  0  0  0  0  0  0  0  0  0
  197.5780  172.9770  140.0890 N   0  0  0  0  0  2  0  0  0  0  0  0
  196.7360  173.3440  137.8050 N   0  0  0  0  0  2  0  0  0  0  0  0
  196.7750  175.0540  139.3990 O   0  0  0  0  0  0  0  0  0  0  0  0
  196.2740  174.2050  136.7290 C   0  0  0  0  0  2  0  0  0  0  0  0
  194.7780  174.0220  136.5350 C   0  0  0  0  0  2  0  0  0  0  0  0
  193.9490  175.0830  137.2630 C   0  0  1  0  0  3  0  0  0  0  0  0
  193.4650  177.0940  136.0140 O   0  0  0  0  0  1  0  0  0  0  0  0
  192.9790  175.8280  136.3470 C   0  0  0  0  0  2  0  0  0  0  0  0
  193.2650  174.5400  138.5160 C   0  0  0  0  0  2  0  0  0  0  0  0
  194.2080  171.3590  139.4500 C   0  0  0  0  0  2  0  0  0  0  0  0
  193.1710  170.5990  138.8300 C   0  0  0  0  0  2  0  0  0  0  0  0
  192.5810  173.2420  138.2280 C   0  0  0  0  0  0  0  0  0  0  0  0
  193.1290  172.1170  138.6790 C   0  0  0  0  0  0  0  0  0  0  0  0
  191.3520  173.2020  137.4180 C   0  0  0  0  0  0  0  0  0  0  0  0
  191.3730  172.7360  136.2470 O   0  0  0  0  0  0  0  0  0  0  0  0
  190.1560  173.6730  137.9350 O   0  0  0  0  0  1  0  0  0  0  0  0
  1 21  1  1  0  0  0
  1 14  1  0  0  0  0
  1  4  1  0  0  0  0
  2  9  2  0  0  0  0
  3 10  2  0  0  0  0
  4 12  1  1  0  0  0
  5 17  1  1  0  0  0
  5  6  1  0  0  0  0
  5 14  1  0  0  0  0
  7  4  1  0  0  0  0
  8 16  2  0  0  0  0
  8  2  1  0  0  0  0
  9 10  1  0  0  0  0
 10 15  1  0  0  0  0
 11  2  1  0  0  0  0
 11  3  1  0  0  0  0
 13  6  1  0  0  0  0
 15  7  1  0  0  0  0
 16 13  2  0  0  0  0
 17 18  2  0  0  0  0
 19 20  1  0  0  0  0
 20 17  1  0  0  0  0
 22 21  1  0  0  0  0
 23 22  1  0  0  0  0
 24 23  1  0  0  0  0
 24 27  1  0  0  0  0
 25 24  2  0  0  0  0
 26 24  2  0  0  0  0
 28 27  1  1  0  0  0
 28 30  1  0  0  0  0
 29 31  1  0  0  0  0
 29 34  2  0  0  0  0
 30 34  1  0  0  0  0
 32 28  1  0  0  0  0
 32 29  1  0  0  0  0
 34 33  1  0  0  0  0
 35  8  1  0  0  0  0
 36 39  2  0  0  0  0
 36 37  1  0  0  0  0
 37 35  1  0  0  0  0
 38 36  1  0  0  0  0
 40 38  1  0  0  0  0
 41 40  1  0  0  0  0
 41 42  1  0  0  0  0
 42 44  1  6  0  0  0
 42 45  1  0  0  0  0
 43 44  1  0  0  0  0
 47 46  1  0  0  0  0
 48 45  1  0  0  0  0
 48 49  2  0  0  0  0
 49 47  1  0  0  0  0
 49 46  1  0  0  0  0
 50 52  1  0  0  0  0
 50 48  1  0  0  0  0
 51 50  2  0  0  0  0
M  END
>  <MODEL>
6

>  <REMARK>
 VINA RESULT:      -6.0      3.127      8.306
  Name = 
  17 active torsions:
  status: ('A' for Active; 'I' for Inactive)
    1  A    between atoms: C_1  and  N_22
    2  A    between atoms: C_1  and  C_49
    3  A    between atoms: C_2  and  N_14
    4  A    between atoms: O_4  and  C_11
    5  A    between atoms: O_4  and  C_35
    6  A    between atoms: N_5  and  N_18
    7  A    between atoms: N_5  and  C_36
    8  A    between atoms: S_6  and  N_14
    9  A    between atoms: S_6  and  C_35
   10  A    between atoms: C_8  and  C_28
   11  A    between atoms: C_8  and  C_31
   12  A    between atoms: C_10  and  C_28
   13  A    between atoms: C_11  and  C_12
   14  A    between atoms: C_26  and  C_30
   15  A    between atoms: C_26  and  O_45
   16  A    between atoms: C_31  and  C_44
   17  A    between atoms: C_31  and  C_49
                            x       y       z     vdW  Elec       q    Type
                         _______ _______ _______ _____ _____    ______ ____

>  <TORSDO>
F 17

$$$$
=
 OpenBabel11042415583D

 52 55  0  0  1  0  0  0  0  0999 V2000
  195.7180  173.2310  144.1160 C   0  0  1  0  0  3  0  0  0  0  0  0
  192.0530  172.6860  141.4170 C   0  0  0  0  0  0  0  0  0  0  0  0
  193.2940  171.2900  140.2490 N   0  0  0  0  0  0  0  0  0  0  0  0
  196.2720  171.8020  144.0050 C   0  0  2  0  0  3  0  0  0  0  0  0
  193.5700  174.4400  144.6090 C   0  0  2  0  0  3  0  0  0  0  0  0
  192.1640  174.1860  145.1430 C   0  0  0  0  0  2  0  0  0  0  0  0
  195.3260  170.8740  143.2520 C   0  0  0  0  0  2  0  0  0  0  0  0
  190.9340  173.5400  141.8470 C   0  0  0  0  0  0  0  0  0  0  0  0
  193.1840  172.5340  142.1230 N   0  0  0  0  0  0  0  0  0  0  0  0
  193.9050  171.6690  141.3880 C   0  0  0  0  0  0  0  0  0  0  0  0
  192.1080  171.9300  140.2630 C   0  0  0  0  0  2  0  0  0  0  0  0
  196.5360  171.2700  145.2710 O   0  0  0  0  0  1  0  0  0  0  0  0
  191.1320  174.6930  144.1860 C   0  0  0  0  0  3  0  0  0  0  0  0
  194.5280  173.3470  145.0730 C   0  0  0  0  0  2  0  0  0  0  0  0
  195.2760  171.2250  141.7720 C   0  0  0  0  0  2  0  0  0  0  0  0
  191.0050  174.1380  143.0110 C   0  0  0  0  0  0  0  0  0  0  0  0
  194.0510  175.8110  144.9950 C   0  0  0  0  0  0  0  0  0  0  0  0
  194.0750  176.7330  144.1360 O   0  0  0  0  0  0  0  0  0  0  0  0
  194.4350  177.3980  146.8450 C   0  0  0  0  0  1  0  0  0  0  0  0
  194.4670  176.0870  146.3000 O   0  0  0  0  0  0  0  0  0  0  0  0
  196.8170  174.2460  144.4430 C   0  0  0  0  0  2  0  0  0  0  0  0
  196.9240  175.2280  143.4510 O   0  0  0  0  0  0  0  0  0  0  0  0
  196.6820  174.5650  142.2470 C   0  0  0  0  0  2  0  0  0  0  0  0
  195.8810  175.6610  141.0930 S   0  0  0  0  0  0  0  0  0  0  0  0
  196.1850  177.0840  141.4720 O   0  0  0  0  0  0  0  0  0  0  0  0
  194.3950  175.4380  141.1320 O   0  0  0  0  0  0  0  0  0  0  0  0
  196.4810  175.3320  139.5020 N   0  0  0  0  0  2  0  0  0  0  0  0
  195.5730  174.3890  138.8670 C   0  0  1  0  0  3  0  0  0  0  0  0
  196.5370  173.7050  136.6250 C   0  0  0  0  0  0  0  0  0  0  0  0
  194.8910  175.0570  137.6750 C   0  0  0  0  0  2  0  0  0  0  0  0
  197.4900  173.2520  135.5660 C   0  0  0  0  0  1  0  0  0  0  0  0
  196.5270  172.9620  138.2480 S   0  0  0  0  0  0  0  0  0  0  0  0
  195.5240  175.4590  135.1810 C   0  0  0  0  0  1  0  0  0  0  0  0
  195.6900  174.7140  136.4680 C   0  0  0  0  0  0  0  0  0  0  0  0
  189.7620  173.6530  141.0340 N   0  0  0  0  0  2  0  0  0  0  0  0
  187.9990  175.3240  141.4200 C   0  0  0  0  0  0  0  0  0  0  0  0
  189.1780  174.8940  140.7450 N   0  0  0  0  0  2  0  0  0  0  0  0
  187.3700  176.5400  141.0200 N   0  0  0  0  0  2  0  0  0  0  0  0
  187.5290  174.6400  142.3730 O   0  0  0  0  0  0  0  0  0  0  0  0
  186.2380  177.0970  141.7420 C   0  0  0  0  0  2  0  0  0  0  0  0
  186.5760  178.5000  142.2190 C   0  0  0  0  0  2  0  0  0  0  0  0
  185.4690  179.1230  143.0710 C   0  0  1  0  0  3  0  0  0  0  0  0
  183.5310  178.3340  141.8620 O   0  0  0  0  0  1  0  0  0  0  0  0
  184.1840  178.2950  143.0950 C   0  0  0  0  0  2  0  0  0  0  0  0
  185.9440  179.5000  144.4730 C   0  0  0  0  0  2  0  0  0  0  0  0
  188.7120  177.4730  144.8070 C   0  0  0  0  0  2  0  0  0  0  0  0
  188.1980  176.4950  145.7100 C   0  0  0  0  0  2  0  0  0  0  0  0
  186.1110  178.2800  145.3230 C   0  0  0  0  0  0  0  0  0  0  0  0
  187.2730  177.6350  145.2930 C   0  0  0  0  0  0  0  0  0  0  0  0
  184.9950  177.7730  146.1390 C   0  0  0  0  0  0  0  0  0  0  0  0
  184.9360  176.5540  146.4540 O   0  0  0  0  0  0  0  0  0  0  0  0
  183.9980  178.6310  146.5750 O   0  0  0  0  0  1  0  0  0  0  0  0
  1 21  1  1  0  0  0
  1 14  1  0  0  0  0
  2  8  1  0  0  0  0
  2  9  2  0  0  0  0
  3 11  1  0  0  0  0
  3 10  2  0  0  0  0
  4  1  1  0  0  0  0
  4 12  1  1  0  0  0
  5 17  1  1  0  0  0
  5 14  1  0  0  0  0
  5  6  1  0  0  0  0
  7  4  1  0  0  0  0
  8 16  2  0  0  0  0
 10 15  1  0  0  0  0
 10  9  1  0  0  0  0
 11  2  1  0  0  0  0
 13  6  1  0  0  0  0
 15  7  1  0  0  0  0
 16 13  2  0  0  0  0
 17 20  1  0  0  0  0
 18 17  2  0  0  0  0
 20 19  1  0  0  0  0
 22 21  1  0  0  0  0
 23 22  1  0  0  0  0
 24 26  2  0  0  0  0
 24 25  2  0  0  0  0
 24 23  1  0  0  0  0
 27 24  1  0  0  0  0
 28 27  1  6  0  0  0
 29 32  1  0  0  0  0
 30 28  1  0  0  0  0
 31 29  1  0  0  0  0
 32 28  1  0  0  0  0
 33 34  1  0  0  0  0
 34 29  2  0  0  0  0
 34 30  1  0  0  0  0
 35  8  1  0  0  0  0
 36 39  2  0  0  0  0
 37 35  1  0  0  0  0
 37 36  1  0  0  0  0
 38 36  1  0  0  0  0
 38 40  1  0  0  0  0
 40 41  1  0  0  0  0
 42 41  1  1  0  0  0
 42 44  1  0  0  0  0
 42 45  1  0  0  0  0
 43 44  1  0  0  0  0
 45 48  1  0  0  0  0
 46 49  1  0  0  0  0
 46 47  1  0  0  0  0
 48 50  1  0  0  0  0
 49 48  2  0  0  0  0
 49 47  1  0  0  0  0
 50 51  2  0  0  0  0
 50 52  1  0  0  0  0
M  END
>  <MODEL>
7

>  <REMARK>
 VINA RESULT:      -5.9      2.589      4.376
  Name = 
  17 active torsions:
  status: ('A' for Active; 'I' for Inactive)
    1  A    between atoms: C_1  and  N_22
    2  A    between atoms: C_1  and  C_49
    3  A    between atoms: C_2  and  N_14
    4  A    between atoms: O_4  and  C_11
    5  A    between atoms: O_4  and  C_35
    6  A    between atoms: N_5  and  N_18
    7  A    between atoms: N_5  and  C_36
    8  A    between atoms: S_6  and  N_14
    9  A    between atoms: S_6  and  C_35
   10  A    between atoms: C_8  and  C_28
   11  A    between atoms: C_8  and  C_31
   12  A    between atoms: C_10  and  C_28
   13  A    between atoms: C_11  and  C_12
   14  A    between atoms: C_26  and  C_30
   15  A    between atoms: C_26  and  O_45
   16  A    between atoms: C_31  and  C_44
   17  A    between atoms: C_31  and  C_49
                            x       y       z     vdW  Elec       q    Type
                         _______ _______ _______ _____ _____    ______ ____

>  <TORSDO>
F 17

$$$$
=
 OpenBabel11042415583D

 52 55  0  0  1  0  0  0  0  0999 V2000
  195.0380  173.5850  143.4510 C   0  0  1  0  0  3  0  0  0  0  0  0
  191.9550  175.4980  146.2520 C   0  0  0  0  0  0  0  0  0  0  0  0
  193.5940  176.8030  146.9360 N   0  0  0  0  0  0  0  0  0  0  0  0
  195.8700  174.8440  143.1650 C   0  0  2  0  0  3  0  0  0  0  0  0
  192.6490  172.8040  143.4530 C   0  0  2  0  0  3  0  0  0  0  0  0
  191.2590  173.2420  143.0010 C   0  0  0  0  0  2  0  0  0  0  0  0
  195.2360  176.0980  143.7530 C   0  0  0  0  0  2  0  0  0  0  0  0
  190.6430  174.8410  146.1400 C   0  0  0  0  0  0  0  0  0  0  0  0
  192.9860  175.2390  145.4330 N   0  0  0  0  0  0  0  0  0  0  0  0
  193.9560  176.0600  145.8720 C   0  0  0  0  0  0  0  0  0  0  0  0
  192.3140  176.4540  147.1810 C   0  0  0  0  0  2  0  0  0  0  0  0
  196.0570  175.0180  141.7910 O   0  0  0  0  0  1  0  0  0  0  0  0
  190.2900  173.1950  144.1390 C   0  0  0  0  0  3  0  0  0  0  0  0
  193.7290  173.5310  142.6580 C   0  0  0  0  0  2  0  0  0  0  0  0
  195.3220  176.0960  145.2730 C   0  0  0  0  0  2  0  0  0  0  0  0
  190.4360  174.0050  145.1530 C   0  0  0  0  0  0  0  0  0  0  0  0
  192.7950  171.3100  143.3670 C   0  0  0  0  0  0  0  0  0  0  0  0
  192.5550  170.7170  142.2820 O   0  0  0  0  0  0  0  0  0  0  0  0
  193.2840  169.1450  144.4450 C   0  0  0  0  0  1  0  0  0  0  0  0
  193.2050  170.5620  144.4730 O   0  0  0  0  0  0  0  0  0  0  0  0
  195.8630  172.3050  143.2810 C   0  0  0  0  0  2  0  0  0  0  0  0
  195.9000  171.8880  141.9450 O   0  0  0  0  0  0  0  0  0  0  0  0
  196.1420  170.5150  141.9940 C   0  0  0  0  0  2  0  0  0  0  0  0
  195.8420  169.7820  140.3970 S   0  0  0  0  0  0  0  0  0  0  0  0
  194.7680  168.7380  140.5270 O   0  0  0  0  0  0  0  0  0  0  0  0
  197.1040  169.1430  139.8900 O   0  0  0  0  0  0  0  0  0  0  0  0
  195.3320  171.0220  139.3000 N   0  0  0  0  0  2  0  0  0  0  0  0
  193.9090  170.8470  139.0570 C   0  0  1  0  0  3  0  0  0  0  0  0
  193.3290  171.8700  136.8120 C   0  0  0  0  0  0  0  0  0  0  0  0
  193.2010  172.1970  139.1610 C   0  0  0  0  0  2  0  0  0  0  0  0
  193.3670  172.2300  135.3620 C   0  0  0  0  0  1  0  0  0  0  0  0
  193.6630  170.2060  137.3670 S   0  0  0  0  0  0  0  0  0  0  0  0
  192.7920  174.1890  137.5330 C   0  0  0  0  0  1  0  0  0  0  0  0
  193.1130  172.7480  137.7810 C   0  0  0  0  0  0  0  0  0  0  0  0
  189.5940  175.1690  147.0570 N   0  0  0  0  0  2  0  0  0  0  0  0
  187.7170  176.7390  146.8070 C   0  0  0  0  0  0  0  0  0  0  0  0
  188.2910  175.4480  146.6220 N   0  0  0  0  0  2  0  0  0  0  0  0
  186.3520  176.9530  146.4560 N   0  0  0  0  0  2  0  0  0  0  0  0
  188.4200  177.6860  147.2630 O   0  0  0  0  0  0  0  0  0  0  0  0
  185.7400  178.2710  146.5050 C   0  0  0  0  0  2  0  0  0  0  0  0
  186.0770  179.0390  145.2380 C   0  0  0  0  0  2  0  0  0  0  0  0
  185.9380  178.1910  143.9720 C   0  0  1  0  0  3  0  0  0  0  0  0
  183.6760  179.0320  143.8570 O   0  0  0  0  0  1  0  0  0  0  0  0
  184.4860  177.9310  143.5720 C   0  0  0  0  0  2  0  0  0  0  0  0
  186.7760  178.7220  142.8110 C   0  0  0  0  0  2  0  0  0  0  0  0
  189.8950  177.9130  144.0320 C   0  0  0  0  0  2  0  0  0  0  0  0
  190.2680  176.8910  143.1090 C   0  0  0  0  0  2  0  0  0  0  0  0
  187.7270  177.6780  142.3210 C   0  0  0  0  0  0  0  0  0  0  0  0
  188.8960  177.5380  142.9390 C   0  0  0  0  0  0  0  0  0  0  0  0
  187.4000  176.8510  141.1470 C   0  0  0  0  0  0  0  0  0  0  0  0
  187.8270  175.6680  141.0590 O   0  0  0  0  0  1  0  0  0  0  0  0
  186.6140  177.3630  140.1270 O   0  0  0  0  0  0  0  0  0  0  0  0
  1 21  1  6  0  0  0
  2 11  1  0  0  0  0
  3 11  1  0  0  0  0
  4 12  1  6  0  0  0
  4  1  1  0  0  0  0
  4  7  1  0  0  0  0
  5 17  1  6  0  0  0
  6  5  1  0  0  0  0
  6 13  1  0  0  0  0
  7 15  1  0  0  0  0
  8  2  1  0  0  0  0
  8 35  1  0  0  0  0
  9 10  1  0  0  0  0
  9  2  2  0  0  0  0
 10  3  2  0  0  0  0
 13 16  2  0  0  0  0
 14  1  1  0  0  0  0
 14  5  1  0  0  0  0
 15 10  1  0  0  0  0
 16  8  2  0  0  0  0
 17 20  1  0  0  0  0
 18 17  2  0  0  0  0
 19 20  1  0  0  0  0
 22 23  1  0  0  0  0
 22 21  1  0  0  0  0
 24 25  2  0  0  0  0
 24 23  1  0  0  0  0
 26 24  2  0  0  0  0
 27 24  1  0  0  0  0
 28 30  1  0  0  0  0
 28 27  1  6  0  0  0
 29 32  1  0  0  0  0
 29 34  2  0  0  0  0
 31 29  1  0  0  0  0
 32 28  1  0  0  0  0
 33 34  1  0  0  0  0
 34 30  1  0  0  0  0
 36 39  2  0  0  0  0
 37 36  1  0  0  0  0
 37 35  1  0  0  0  0
 38 40  1  0  0  0  0
 38 36  1  0  0  0  0
 41 40  1  0  0  0  0
 42 45  1  6  0  0  0
 42 41  1  0  0  0  0
 44 43  1  0  0  0  0
 44 42  1  0  0  0  0
 47 46  1  0  0  0  0
 48 45  1  0  0  0  0
 48 49  2  0  0  0  0
 49 47  1  0  0  0  0
 49 46  1  0  0  0  0
 50 48  1  0  0  0  0
 51 50  1  0  0  0  0
 52 50  2  0  0  0  0
M  END
>  <MODEL>
8

>  <REMARK>
 VINA RESULT:      -5.9      2.117      3.767
  Name = 
  17 active torsions:
  status: ('A' for Active; 'I' for Inactive)
    1  A    between atoms: C_1  and  N_22
    2  A    between atoms: C_1  and  C_49
    3  A    between atoms: C_2  and  N_14
    4  A    between atoms: O_4  and  C_11
    5  A    between atoms: O_4  and  C_35
    6  A    between atoms: N_5  and  N_18
    7  A    between atoms: N_5  and  C_36
    8  A    between atoms: S_6  and  N_14
    9  A    between atoms: S_6  and  C_35
   10  A    between atoms: C_8  and  C_28
   11  A    between atoms: C_8  and  C_31
   12  A    between atoms: C_10  and  C_28
   13  A    between atoms: C_11  and  C_12
   14  A    between atoms: C_26  and  C_30
   15  A    between atoms: C_26  and  O_45
   16  A    between atoms: C_31  and  C_44
   17  A    between atoms: C_31  and  C_49
                            x       y       z     vdW  Elec       q    Type
                         _______ _______ _______ _____ _____    ______ ____

>  <TORSDO>
F 17

$$$$
=
 OpenBabel11042415583D

 52 55  0  0  1  0  0  0  0  0999 V2000
  193.6140  176.2220  144.5420 C   0  0  1  0  0  3  0  0  0  0  0  0
  195.8130  172.8710  142.3170 C   0  0  0  0  0  0  0  0  0  0  0  0
  196.9880  174.4690  141.3580 N   0  0  0  0  0  0  0  0  0  0  0  0
  194.7980  177.1930  144.6780 C   0  0  2  0  0  3  0  0  0  0  0  0
  193.0320  173.8120  144.9540 C   0  0  2  0  0  3  0  0  0  0  0  0
  193.5770  172.5630  145.6410 C   0  0  0  0  0  2  0  0  0  0  0  0
  196.1080  176.5730  144.2080 C   0  0  0  0  0  2  0  0  0  0  0  0
  195.2640  171.5480  142.6550 C   0  0  0  0  0  0  0  0  0  0  0  0
  195.4580  174.0030  142.9450 N   0  0  0  0  0  0  0  0  0  0  0  0
  196.2040  174.9470  142.3430 C   0  0  0  0  0  0  0  0  0  0  0  0
  196.7480  173.1420  141.3390 C   0  0  0  0  0  2  0  0  0  0  0  0
  194.9370  177.6280  145.9990 O   0  0  0  0  0  1  0  0  0  0  0  0
  193.6240  171.4100  144.6880 C   0  0  0  0  0  3  0  0  0  0  0  0
  193.6570  175.0700  145.5490 C   0  0  0  0  0  2  0  0  0  0  0  0
  196.1190  176.3940  142.6960 C   0  0  0  0  0  2  0  0  0  0  0  0
  194.4340  171.4460  143.6640 C   0  0  0  0  0  0  0  0  0  0  0  0
  191.5300  173.8470  145.0140 C   0  0  0  0  0  0  0  0  0  0  0  0
  190.8530  173.2870  144.1110 O   0  0  0  0  0  0  0  0  0  0  0  0
  189.4500  174.5470  146.1410 C   0  0  0  0  0  1  0  0  0  0  0  0
  190.8670  174.4840  146.0650 O   0  0  0  0  0  0  0  0  0  0  0  0
  192.2690  176.9550  144.5660 C   0  0  0  0  0  2  0  0  0  0  0  0
  191.6430  176.9240  143.3150 O   0  0  0  0  0  0  0  0  0  0  0  0
  190.7970  178.0340  143.2990 C   0  0  0  0  0  2  0  0  0  0  0  0
  189.1360  177.5340  142.8910 S   0  0  0  0  0  0  0  0  0  0  0  0
  189.1240  176.0620  142.5870 O   0  0  0  0  0  0  0  0  0  0  0  0
  188.6580  178.2990  141.6890 O   0  0  0  0  0  0  0  0  0  0  0  0
  188.1050  177.8670  144.2430 N   0  0  0  0  0  2  0  0  0  0  0  0
  187.0390  176.8780  144.2470 C   0  0  1  0  0  3  0  0  0  0  0  0
  184.8090  178.0790  144.3520 C   0  0  0  0  0  0  0  0  0  0  0  0
  186.3820  176.8380  145.6260 C   0  0  0  0  0  2  0  0  0  0  0  0
  183.6970  179.0400  144.0750 C   0  0  0  0  0  1  0  0  0  0  0  0
  185.7690  177.3610  143.0290 S   0  0  0  0  0  0  0  0  0  0  0  0
  184.5210  178.2150  146.8180 C   0  0  0  0  0  1  0  0  0  0  0  0
  185.2020  177.7430  145.5720 C   0  0  0  0  0  0  0  0  0  0  0  0
  195.6890  170.3880  141.9340 N   0  0  0  0  0  2  0  0  0  0  0  0
  193.9790  169.6160  140.3440 C   0  0  0  0  0  0  0  0  0  0  0  0
  195.2750  170.1410  140.6170 N   0  0  0  0  0  2  0  0  0  0  0  0
  193.6340  169.2720  139.0030 N   0  0  0  0  0  2  0  0  0  0  0  0
  193.1410  169.4750  141.2790 O   0  0  0  0  0  0  0  0  0  0  0  0
  192.2930  168.8470  138.6360 C   0  0  0  0  0  2  0  0  0  0  0  0
  191.7480  169.7570  137.5480 C   0  0  0  0  0  2  0  0  0  0  0  0
  191.1600  171.0580  138.0990 C   0  0  1  0  0  3  0  0  0  0  0  0
  191.0800  172.4100  136.0970 O   0  0  0  0  0  1  0  0  0  0  0  0
  190.2970  171.8100  137.0850 C   0  0  0  0  0  2  0  0  0  0  0  0
  190.4500  170.8650  139.4370 C   0  0  0  0  0  2  0  0  0  0  0  0
  192.8040  173.1500  140.4930 C   0  0  0  0  0  2  0  0  0  0  0  0
  191.9530  174.1320  141.0820 C   0  0  0  0  0  2  0  0  0  0  0  0
  190.2350  172.1800  140.1180 C   0  0  0  0  0  0  0  0  0  0  0  0
  191.2970  172.9070  140.4510 C   0  0  0  0  0  0  0  0  0  0  0  0
  188.8780  172.6400  140.4570 C   0  0  0  0  0  0  0  0  0  0  0  0
  188.0700  172.9730  139.5490 O   0  0  0  0  0  0  0  0  0  0  0  0
  188.4710  172.7080  141.7800 O   0  0  0  0  0  1  0  0  0  0  0  0
  1 21  1  1  0  0  0
  1  4  1  0  0  0  0
  1 14  1  0  0  0  0
  2  8  1  0  0  0  0
  2  9  2  0  0  0  0
  3 10  2  0  0  0  0
  4 12  1  1  0  0  0
  5 17  1  1  0  0  0
  5 14  1  0  0  0  0
  5  6  1  0  0  0  0
  7  4  1  0  0  0  0
  8 16  2  0  0  0  0
 10 15  1  0  0  0  0
 10  9  1  0  0  0  0
 11  3  1  0  0  0  0
 11  2  1  0  0  0  0
 13  6  1  0  0  0  0
 15  7  1  0  0  0  0
 16 13  2  0  0  0  0
 17 20  1  0  0  0  0
 18 17  2  0  0  0  0
 20 19  1  0  0  0  0
 22 21  1  0  0  0  0
 23 22  1  0  0  0  0
 24 23  1  0  0  0  0
 24 27  1  0  0  0  0
 25 24  2  0  0  0  0
 26 24  2  0  0  0  0
 28 27  1  1  0  0  0
 28 30  1  0  0  0  0
 29 34  2  0  0  0  0
 31 29  1  0  0  0  0
 32 28  1  0  0  0  0
 32 29  1  0  0  0  0
 34 30  1  0  0  0  0
 34 33  1  0  0  0  0
 35  8  1  0  0  0  0
 36 37  1  0  0  0  0
 36 39  2  0  0  0  0
 37 35  1  0  0  0  0
 38 36  1  0  0  0  0
 40 38  1  0  0  0  0
 41 42  1  0  0  0  0
 41 40  1  0  0  0  0
 42 44  1  6  0  0  0
 42 45  1  0  0  0  0
 43 44  1  0  0  0  0
 45 48  1  0  0  0  0
 46 47  1  0  0  0  0
 48 49  2  0  0  0  0
 48 50  1  0  0  0  0
 49 46  1  0  0  0  0
 49 47  1  0  0  0  0
 50 52  1  0  0  0  0
 51 50  2  0  0  0  0
M  END
>  <MODEL>
9

>  <REMARK>
 VINA RESULT:      -5.9      3.038      7.786
  Name = 
  17 active torsions:
  status: ('A' for Active; 'I' for Inactive)
    1  A    between atoms: C_1  and  N_22
    2  A    between atoms: C_1  and  C_49
    3  A    between atoms: C_2  and  N_14
    4  A    between atoms: O_4  and  C_11
    5  A    between atoms: O_4  and  C_35
    6  A    between atoms: N_5  and  N_18
    7  A    between atoms: N_5  and  C_36
    8  A    between atoms: S_6  and  N_14
    9  A    between atoms: S_6  and  C_35
   10  A    between atoms: C_8  and  C_28
   11  A    between atoms: C_8  and  C_31
   12  A    between atoms: C_10  and  C_28
   13  A    between atoms: C_11  and  C_12
   14  A    between atoms: C_26  and  C_30
   15  A    between atoms: C_26  and  O_45
   16  A    between atoms: C_31  and  C_44
   17  A    between atoms: C_31  and  C_49
                            x       y       z     vdW  Elec       q    Type
                         _______ _______ _______ _____ _____    ______ ____

>  <TORSDO>
F 17

$$$$
