=
 OpenBabel11042418153D

 53 55  0  0  1  0  0  0  0  0999 V2000
  189.4990  173.6950  142.7380 C   0  0  0  0  0  0  0  0  0  0  0  0
  189.7460  173.2490  143.9800 C   0  0  0  0  0  3  0  0  0  0  0  0
  191.3460  170.8510  136.9420 C   0  0  0  0  0  3  0  0  0  0  0  0
  190.4720  171.9280  139.3910 C   0  0  0  0  0  0  0  0  0  0  0  0
  192.1680  171.7210  137.6560 C   0  0  0  0  0  3  0  0  0  0  0  0
  191.7700  172.2540  138.8960 C   0  0  0  0  0  0  0  0  0  0  0  0
  192.6920  173.2380  139.5950 C   0  0  1  0  0  3  0  0  0  0  0  0
  191.5890  174.0600  141.3040 C   0  0  0  0  0  2  0  0  0  0  0  0
  190.0950  170.5080  137.4470 C   0  0  0  0  0  3  0  0  0  0  0  0
  190.2930  173.3470  141.5220 C   0  0  0  0  0  0  0  0  0  0  0  0
  189.8530  172.4300  140.6440 C   0  0  0  0  0  3  0  0  0  0  0  0
  189.6650  171.0470  138.6590 C   0  0  0  0  0  3  0  0  0  0  0  0
  192.5820  173.1390  140.9820 O   0  0  0  0  0  0  0  0  0  0  0  0
  194.5980  173.8590  138.3520 O   0  0  0  0  0  0  0  0  0  0  0  0
  194.1370  173.1110  139.2000 C   0  0  0  0  0  0  0  0  0  0  0  0
  195.8260  171.4940  138.8340 O   0  0  0  0  0  1  0  0  0  0  0  0
  195.0050  172.0560  139.8110 C   0  0  0  0  0  2  0  0  0  0  0  0
  188.3370  174.6270  142.5960 C   0  0  0  0  0  2  0  0  0  0  0  0
  188.5410  175.5170  141.4200 C   0  0  0  0  0  3  0  0  0  0  0  0
  186.4180  177.4710  139.4190 O   0  0  0  0  0  1  0  0  0  0  0  0
  187.6290  176.3880  141.0920 C   0  0  0  0  0  0  0  0  0  0  0  0
  186.7220  177.2620  140.7590 C   0  0  0  0  0  0  0  0  0  0  0  0
  186.0290  178.0530  141.8130 C   0  0  0  0  0  2  0  0  0  0  0  0
  186.9790  178.6520  142.6610 O   0  0  0  0  0  0  0  0  0  0  0  0
  186.0170  178.9140  144.9020 C   0  0  0  0  0  2  0  0  0  0  0  0
  186.8770  178.0780  143.9470 C   0  0  2  0  0  3  0  0  0  0  0  0
  185.3390  179.0180  147.5060 O   0  0  0  0  0  0  0  0  0  0  0  0
  188.0700  176.7300  145.7180 C   0  0  0  0  0  2  0  0  0  0  0  0
  187.4370  177.4350  146.9090 C   0  0  0  0  0  2  0  0  0  0  0  0
  185.8330  178.0640  146.4550 S   0  0  0  0  0  0  0  0  0  0  0  0
  188.2410  177.6820  144.5360 C   0  0  0  0  0  2  0  0  0  0  0  0
  184.8610  176.9280  146.3050 O   0  0  0  0  0  0  0  0  0  0  0  0
  190.8410  172.3140  144.3700 C   0  0  0  0  0  2  0  0  0  0  0  0
  192.0680  173.1060  144.7780 C   0  0  0  0  0  2  0  0  0  0  0  0
  193.3230  172.2970  144.5060 C   0  0  2  0  0  3  0  0  0  0  0  0
  193.0110  170.9360  144.4690 O   0  0  0  0  0  1  0  0  0  0  0  0
  194.3380  172.5610  145.6050 C   0  0  0  0  0  2  0  0  0  0  0  0
  195.7370  172.7390  145.0310 C   0  0  2  0  0  3  0  0  0  0  0  0
  197.8530  171.6050  145.0910 O   0  0  0  0  0  0  0  0  0  0  0  0
  196.1230  170.5480  146.1630 O   0  0  0  0  0  1  0  0  0  0  0  0
  196.6360  171.6050  145.4220 C   0  0  0  0  0  0  0  0  0  0  0  0
  196.3130  174.0610  145.5100 C   0  0  0  0  0  2  0  0  0  0  0  0
  194.9050  175.9990  144.9480 C   0  0  0  0  0  0  0  0  0  0  0  0
  195.2380  175.0180  145.7370 N   0  0  0  0  0  0  0  0  0  0  0  0
  195.5630  176.2420  143.6290 C   0  0  0  0  0  0  0  0  0  0  0  0
  196.5380  177.0390  143.5570 O   0  0  0  0  0  0  0  0  0  0  0  0
  195.6960  175.8490  141.1380 C   0  0  0  0  0  1  0  0  0  0  0  0
  195.0820  175.6160  142.4350 N   0  0  0  0  0  2  0  0  0  0  0  0
  192.8110  177.0750  144.4310 O   0  0  0  0  0  1  0  0  0  0  0  0
  193.7850  176.8860  145.4180 C   0  0  1  0  0  3  0  0  0  0  0  0
  193.1700  176.4280  146.7380 C   0  0  0  0  0  2  0  0  0  0  0  0
  191.6540  176.3420  146.6750 C   0  0  0  0  0  2  0  0  0  0  0  0
  191.1610  175.3700  147.7270 C   0  0  0  0  0  1  0  0  0  0  0  0
  1  2  2  0  0  0  0
  2 33  1  0  0  0  0
  3  9  2  0  0  0  0
  3  5  1  0  0  0  0
  4 11  1  0  0  0  0
  5  6  2  0  0  0  0
  6  4  1  0  0  0  0
  6  7  1  0  0  0  0
  7 15  1  1  0  0  0
  7 13  1  0  0  0  0
  8 10  1  0  0  0  0
  9 12  1  0  0  0  0
 10  1  1  0  0  0  0
 11 10  2  0  0  0  0
 12  4  2  0  0  0  0
 13  8  1  0  0  0  0
 14 15  2  0  0  0  0
 15 17  1  0  0  0  0
 16 17  1  0  0  0  0
 18  1  1  0  0  0  0
 19 18  1  0  0  0  0
 20 22  1  0  0  0  0
 21 19  2  0  0  0  0
 22 21  2  0  0  0  0
 22 23  1  0  0  0  0
 23 24  1  0  0  0  0
 25 30  1  0  0  0  0
 26 24  1  6  0  0  0
 26 31  1  0  0  0  0
 26 25  1  0  0  0  0
 28 29  1  0  0  0  0
 30 29  1  0  0  0  0
 30 27  2  0  0  0  0
 31 28  1  0  0  0  0
 32 30  2  0  0  0  0
 33 34  1  0  0  0  0
 35 36  1  1  0  0  0
 35 34  1  0  0  0  0
 35 37  1  0  0  0  0
 38 41  1  0  0  0  0
 38 42  1  1  0  0  0
 38 37  1  0  0  0  0
 39 41  2  0  0  0  0
 41 40  1  0  0  0  0
 42 44  1  0  0  0  0
 43 50  1  0  0  0  0
 43 44  2  0  0  0  0
 45 43  1  0  0  0  0
 46 45  2  0  0  0  0
 47 48  1  0  0  0  0
 48 45  1  0  0  0  0
 50 49  1  6  0  0  0
 50 51  1  0  0  0  0
 52 51  1  0  0  0  0
 52 53  1  0  0  0  0
M  END
>  <MODEL>
1

>  <REMARK>
 VINA RESULT:      -6.8      0.000      0.000
  Name = 
  20 active torsions:
  status: ('A' for Active; 'I' for Inactive)
    1  A    between atoms: C_4  and  C_10
    2  A    between atoms: C_6  and  O_15
    3  A    between atoms: C_7  and  C_10
    4  A    between atoms: C_7  and  C_42
    5  A    between atoms: C_8  and  C_19
    6  A    between atoms: C_9  and  C_14
    7  A    between atoms: C_9  and  C_21
    8  A    between atoms: C_11  and  C_19
    9  A    between atoms: C_11  and  C_39
   10  A    between atoms: C_14  and  C_33
   11  A    between atoms: C_14  and  C_40
   12  A    between atoms: O_15  and  C_16
   13  A    between atoms: C_16  and  C_30
   14  A    between atoms: C_20  and  C_39
   15  A    between atoms: C_21  and  C_28
   16  A    between atoms: C_22  and  C_28
   17  A    between atoms: C_22  and  C_50
   18  A    between atoms: C_32  and  C_51
   19  A    between atoms: C_35  and  C_51
   20  A    between atoms: C_40  and  N_48
                            x       y       z     vdW  Elec       q    Type
                         _______ _______ _______ _____ _____    ______ ____

>  <TORSDO>
F 20

$$$$
=
 OpenBabel11042418153D

 53 55  0  0  1  0  0  0  0  0999 V2000
  189.3160  173.4670  142.2720 C   0  0  0  0  0  0  0  0  0  0  0  0
  189.3050  172.7390  143.4000 C   0  0  0  0  0  3  0  0  0  0  0  0
  195.2510  175.3170  139.7300 C   0  0  0  0  0  3  0  0  0  0  0  0
  192.7720  174.6590  140.8930 C   0  0  0  0  0  0  0  0  0  0  0  0
  194.3240  174.5560  139.0180 C   0  0  0  0  0  3  0  0  0  0  0  0
  193.0660  174.2360  139.5630 C   0  0  0  0  0  0  0  0  0  0  0  0
  192.1260  173.3590  138.7540 C   0  0  1  0  0  3  0  0  0  0  0  0
  190.4400  172.8400  140.0580 C   0  0  0  0  0  2  0  0  0  0  0  0
  194.9440  175.7580  141.0140 C   0  0  0  0  0  3  0  0  0  0  0  0
  190.4780  173.6020  141.3430 C   0  0  0  0  0  0  0  0  0  0  0  0
  191.5310  174.3750  141.6570 C   0  0  0  0  0  3  0  0  0  0  0  0
  193.7170  175.4270  141.5870 C   0  0  0  0  0  3  0  0  0  0  0  0
  190.7920  173.6800  139.0050 O   0  0  0  0  0  0  0  0  0  0  0  0
  192.0300  174.3740  136.6270 O   0  0  0  0  0  0  0  0  0  0  0  0
  192.3760  173.3950  137.2720 C   0  0  0  0  0  0  0  0  0  0  0  0
  193.0520  171.1330  137.4320 O   0  0  0  0  0  1  0  0  0  0  0  0
  193.0110  172.2330  136.5760 C   0  0  0  0  0  2  0  0  0  0  0  0
  188.0520  174.2030  141.9550 C   0  0  0  0  0  2  0  0  0  0  0  0
  188.3670  175.4620  141.2270 C   0  0  0  0  0  3  0  0  0  0  0  0
  186.4470  177.8850  139.5630 O   0  0  0  0  0  1  0  0  0  0  0  0
  187.4330  176.3440  141.0080 C   0  0  0  0  0  0  0  0  0  0  0  0
  186.5040  177.2300  140.7870 C   0  0  0  0  0  0  0  0  0  0  0  0
  185.5190  177.5560  141.8540 C   0  0  0  0  0  2  0  0  0  0  0  0
  186.0580  178.5220  142.7220 O   0  0  0  0  0  0  0  0  0  0  0  0
  185.9690  179.3230  145.0390 C   0  0  0  0  0  2  0  0  0  0  0  0
  185.7540  178.1670  144.0550 C   0  0  2  0  0  3  0  0  0  0  0  0
  185.9990  179.7910  147.6910 O   0  0  0  0  0  0  0  0  0  0  0  0
  185.7760  176.3090  145.7640 C   0  0  0  0  0  2  0  0  0  0  0  0
  186.0750  177.1970  146.9630 C   0  0  0  0  0  2  0  0  0  0  0  0
  185.4450  178.8380  146.6690 S   0  0  0  0  0  0  0  0  0  0  0  0
  186.4240  176.8540  144.4940 C   0  0  0  0  0  2  0  0  0  0  0  0
  183.9450  178.8310  146.7440 O   0  0  0  0  0  0  0  0  0  0  0  0
  190.4380  171.9210  143.9230 C   0  0  0  0  0  2  0  0  0  0  0  0
  191.2880  172.7620  144.8550 C   0  0  0  0  0  2  0  0  0  0  0  0
  192.7560  172.6030  144.5040 C   0  0  2  0  0  3  0  0  0  0  0  0
  193.0600  171.2500  144.3410 O   0  0  0  0  0  1  0  0  0  0  0  0
  193.6050  173.1880  145.6200 C   0  0  0  0  0  2  0  0  0  0  0  0
  194.1320  174.5670  145.2470 C   0  0  2  0  0  3  0  0  0  0  0  0
  196.2720  173.8270  146.0450 O   0  0  0  0  0  1  0  0  0  0  0  0
  196.3140  175.5160  144.4940 O   0  0  0  0  0  0  0  0  0  0  0  0
  195.6300  174.6100  145.2930 C   0  0  0  0  0  0  0  0  0  0  0  0
  193.5430  175.6030  146.1890 C   0  0  0  0  0  2  0  0  0  0  0  0
  191.2070  176.2930  146.5400 C   0  0  0  0  0  0  0  0  0  0  0  0
  192.1940  175.9540  145.7620 N   0  0  0  0  0  0  0  0  0  0  0  0
  191.3490  176.4340  148.0210 C   0  0  0  0  0  0  0  0  0  0  0  0
  191.3100  175.4050  148.7490 O   0  0  0  0  0  0  0  0  0  0  0  0
  191.6110  177.8810  150.0720 C   0  0  0  0  0  1  0  0  0  0  0  0
  191.4870  177.7190  148.6330 N   0  0  0  0  0  2  0  0  0  0  0  0
  189.3890  177.8360  146.1900 O   0  0  0  0  0  1  0  0  0  0  0  0
  189.8890  176.5700  145.8690 C   0  0  1  0  0  3  0  0  0  0  0  0
  189.9250  176.3430  144.3590 C   0  0  0  0  0  2  0  0  0  0  0  0
  189.8960  177.6440  143.5740 C   0  0  0  0  0  2  0  0  0  0  0  0
  191.2880  177.9570  143.0660 C   0  0  0  0  0  1  0  0  0  0  0  0
  1  2  2  0  0  0  0
  2 33  1  0  0  0  0
  3  9  1  0  0  0  0
  4 12  1  0  0  0  0
  4 11  1  0  0  0  0
  5  6  1  0  0  0  0
  5  3  2  0  0  0  0
  6  4  2  0  0  0  0
  7 15  1  6  0  0  0
  7 13  1  0  0  0  0
  7  6  1  0  0  0  0
  8 10  1  0  0  0  0
  9 12  2  0  0  0  0
 10 11  2  0  0  0  0
 10  1  1  0  0  0  0
 13  8  1  0  0  0  0
 14 15  2  0  0  0  0
 17 15  1  0  0  0  0
 17 16  1  0  0  0  0
 18  1  1  0  0  0  0
 19 18  1  0  0  0  0
 20 22  1  0  0  0  0
 21 19  2  0  0  0  0
 22 21  2  0  0  0  0
 22 23  1  0  0  0  0
 23 24  1  0  0  0  0
 25 30  1  0  0  0  0
 26 24  1  6  0  0  0
 26 31  1  0  0  0  0
 26 25  1  0  0  0  0
 28 29  1  0  0  0  0
 30 32  2  0  0  0  0
 30 29  1  0  0  0  0
 30 27  2  0  0  0  0
 31 28  1  0  0  0  0
 33 34  1  0  0  0  0
 35 36  1  1  0  0  0
 35 34  1  0  0  0  0
 35 37  1  0  0  0  0
 38 41  1  0  0  0  0
 38 37  1  1  0  0  0
 38 42  1  0  0  0  0
 40 41  2  0  0  0  0
 41 39  1  0  0  0  0
 43 45  1  0  0  0  0
 44 42  1  0  0  0  0
 44 43  2  0  0  0  0
 45 48  1  0  0  0  0
 45 46  2  0  0  0  0
 48 47  1  0  0  0  0
 50 49  1  6  0  0  0
 50 43  1  0  0  0  0
 51 50  1  0  0  0  0
 52 51  1  0  0  0  0
 53 52  1  0  0  0  0
M  END
>  <MODEL>
2

>  <REMARK>
 VINA RESULT:      -6.7      1.943      3.642
  Name = 
  20 active torsions:
  status: ('A' for Active; 'I' for Inactive)
    1  A    between atoms: C_4  and  C_10
    2  A    between atoms: C_6  and  O_15
    3  A    between atoms: C_7  and  C_10
    4  A    between atoms: C_7  and  C_42
    5  A    between atoms: C_8  and  C_19
    6  A    between atoms: C_9  and  C_14
    7  A    between atoms: C_9  and  C_21
    8  A    between atoms: C_11  and  C_19
    9  A    between atoms: C_11  and  C_39
   10  A    between atoms: C_14  and  C_33
   11  A    between atoms: C_14  and  C_40
   12  A    between atoms: O_15  and  C_16
   13  A    between atoms: C_16  and  C_30
   14  A    between atoms: C_20  and  C_39
   15  A    between atoms: C_21  and  C_28
   16  A    between atoms: C_22  and  C_28
   17  A    between atoms: C_22  and  C_50
   18  A    between atoms: C_32  and  C_51
   19  A    between atoms: C_35  and  C_51
   20  A    between atoms: C_40  and  N_48
                            x       y       z     vdW  Elec       q    Type
                         _______ _______ _______ _____ _____    ______ ____

>  <TORSDO>
F 20

$$$$
=
 OpenBabel11042418153D

 53 55  0  0  1  0  0  0  0  0999 V2000
  189.5420  173.5690  142.6540 C   0  0  0  0  0  0  0  0  0  0  0  0
  189.8150  173.0600  143.8650 C   0  0  0  0  0  3  0  0  0  0  0  0
  194.1870  173.5990  137.8030 C   0  0  0  0  0  3  0  0  0  0  0  0
  192.2920  173.7230  139.8820 C   0  0  0  0  0  0  0  0  0  0  0  0
  193.0180  172.8420  137.7300 C   0  0  0  0  0  3  0  0  0  0  0  0
  192.0400  172.9050  138.7400 C   0  0  0  0  0  0  0  0  0  0  0  0
  190.8160  172.0140  138.6230 C   0  0  1  0  0  3  0  0  0  0  0  0
  189.7150  172.1720  140.5130 C   0  0  0  0  0  2  0  0  0  0  0  0
  194.4110  174.4230  138.9020 C   0  0  0  0  0  3  0  0  0  0  0  0
  190.2770  173.2410  141.3940 C   0  0  0  0  0  0  0  0  0  0  0  0
  191.4140  173.8780  141.0680 C   0  0  0  0  0  3  0  0  0  0  0  0
  193.4710  174.4780  139.9300 C   0  0  0  0  0  3  0  0  0  0  0  0
  189.6940  172.6150  139.1940 O   0  0  0  0  0  0  0  0  0  0  0  0
  190.1520  172.4410  136.4010 O   0  0  0  0  0  0  0  0  0  0  0  0
  190.4940  171.5960  137.2150 C   0  0  0  0  0  0  0  0  0  0  0  0
  191.6930  169.5610  137.3510 O   0  0  0  0  0  1  0  0  0  0  0  0
  190.5530  170.1570  136.8130 C   0  0  0  0  0  2  0  0  0  0  0  0
  188.4170  174.5520  142.5930 C   0  0  0  0  0  2  0  0  0  0  0  0
  188.6590  175.5360  141.5040 C   0  0  0  0  0  3  0  0  0  0  0  0
  186.5870  177.4880  139.4480 O   0  0  0  0  0  1  0  0  0  0  0  0
  187.7200  176.3680  141.1500 C   0  0  0  0  0  0  0  0  0  0  0  0
  186.7860  177.2030  140.7940 C   0  0  0  0  0  0  0  0  0  0  0  0
  185.9490  177.8680  141.8290 C   0  0  0  0  0  2  0  0  0  0  0  0
  186.7630  178.6430  142.6750 O   0  0  0  0  0  0  0  0  0  0  0  0
  185.9080  178.9200  144.9580 C   0  0  0  0  0  2  0  0  0  0  0  0
  186.7390  178.0870  143.9730 C   0  0  2  0  0  3  0  0  0  0  0  0
  185.3600  179.0500  147.5910 O   0  0  0  0  0  0  0  0  0  0  0  0
  188.0500  176.7960  145.7020 C   0  0  0  0  0  2  0  0  0  0  0  0
  187.4610  177.5060  146.9130 C   0  0  0  0  0  2  0  0  0  0  0  0
  185.8230  178.0910  146.5310 S   0  0  0  0  0  0  0  0  0  0  0  0
  188.1400  177.7320  144.4990 C   0  0  0  0  0  2  0  0  0  0  0  0
  184.8710  176.9310  146.4470 O   0  0  0  0  0  0  0  0  0  0  0  0
  190.8830  172.0650  144.1750 C   0  0  0  0  0  2  0  0  0  0  0  0
  192.1340  172.7860  144.6380 C   0  0  0  0  0  2  0  0  0  0  0  0
  193.3500  171.9040  144.4270 C   0  0  2  0  0  3  0  0  0  0  0  0
  192.9750  170.5590  144.4820 O   0  0  0  0  0  1  0  0  0  0  0  0
  194.3750  172.1940  145.5110 C   0  0  0  0  0  2  0  0  0  0  0  0
  195.7920  172.1460  144.9570 C   0  0  2  0  0  3  0  0  0  0  0  0
  196.7450  170.5600  146.4870 O   0  0  0  0  0  1  0  0  0  0  0  0
  196.7740  169.9550  144.2750 O   0  0  0  0  0  0  0  0  0  0  0  0
  196.4650  170.8490  145.2920 C   0  0  0  0  0  0  0  0  0  0  0  0
  196.5890  173.3150  145.5100 C   0  0  0  0  0  2  0  0  0  0  0  0
  195.1670  175.3230  145.4560 C   0  0  0  0  0  0  0  0  0  0  0  0
  195.6870  174.3060  146.0830 N   0  0  0  0  0  0  0  0  0  0  0  0
  195.3840  175.5800  144.0010 C   0  0  0  0  0  0  0  0  0  0  0  0
  194.6370  175.0230  143.1520 O   0  0  0  0  0  0  0  0  0  0  0  0
  196.6950  176.6690  142.1370 C   0  0  0  0  0  1  0  0  0  0  0  0
  196.4540  176.4170  143.5480 N   0  0  0  0  0  2  0  0  0  0  0  0
  194.6470  177.5820  146.1160 O   0  0  0  0  0  1  0  0  0  0  0  0
  194.2940  176.2370  146.2720 C   0  0  1  0  0  3  0  0  0  0  0  0
  192.8020  176.0130  146.0360 C   0  0  0  0  0  2  0  0  0  0  0  0
  192.1970  177.0580  145.1130 C   0  0  0  0  0  2  0  0  0  0  0  0
  191.5480  176.3690  143.9300 C   0  0  0  0  0  1  0  0  0  0  0  0
  1  2  2  0  0  0  0
  2 33  1  0  0  0  0
  3  9  1  0  0  0  0
  4 12  1  0  0  0  0
  4 11  1  0  0  0  0
  5  3  2  0  0  0  0
  5  6  1  0  0  0  0
  6  4  2  0  0  0  0
  7 15  1  6  0  0  0
  7  6  1  0  0  0  0
  7 13  1  0  0  0  0
  8 10  1  0  0  0  0
  9 12  2  0  0  0  0
 10  1  1  0  0  0  0
 11 10  2  0  0  0  0
 13  8  1  0  0  0  0
 14 15  2  0  0  0  0
 17 15  1  0  0  0  0
 17 16  1  0  0  0  0
 18  1  1  0  0  0  0
 19 18  1  0  0  0  0
 20 22  1  0  0  0  0
 21 19  2  0  0  0  0
 22 21  2  0  0  0  0
 22 23  1  0  0  0  0
 23 24  1  0  0  0  0
 25 30  1  0  0  0  0
 26 24  1  6  0  0  0
 26 31  1  0  0  0  0
 26 25  1  0  0  0  0
 28 29  1  0  0  0  0
 30 29  1  0  0  0  0
 30 27  2  0  0  0  0
 31 28  1  0  0  0  0
 32 30  2  0  0  0  0
 33 34  1  0  0  0  0
 35 36  1  1  0  0  0
 35 34  1  0  0  0  0
 35 37  1  0  0  0  0
 38 41  1  0  0  0  0
 38 42  1  1  0  0  0
 38 37  1  0  0  0  0
 40 41  2  0  0  0  0
 41 39  1  0  0  0  0
 42 44  1  0  0  0  0
 43 44  2  0  0  0  0
 43 50  1  0  0  0  0
 45 43  1  0  0  0  0
 46 45  2  0  0  0  0
 47 48  1  0  0  0  0
 48 45  1  0  0  0  0
 50 49  1  6  0  0  0
 51 50  1  0  0  0  0
 52 51  1  0  0  0  0
 53 52  1  0  0  0  0
M  END
>  <MODEL>
3

>  <REMARK>
 VINA RESULT:      -6.5      1.482      2.280
  Name = 
  20 active torsions:
  status: ('A' for Active; 'I' for Inactive)
    1  A    between atoms: C_4  and  C_10
    2  A    between atoms: C_6  and  O_15
    3  A    between atoms: C_7  and  C_10
    4  A    between atoms: C_7  and  C_42
    5  A    between atoms: C_8  and  C_19
    6  A    between atoms: C_9  and  C_14
    7  A    between atoms: C_9  and  C_21
    8  A    between atoms: C_11  and  C_19
    9  A    between atoms: C_11  and  C_39
   10  A    between atoms: C_14  and  C_33
   11  A    between atoms: C_14  and  C_40
   12  A    between atoms: O_15  and  C_16
   13  A    between atoms: C_16  and  C_30
   14  A    between atoms: C_20  and  C_39
   15  A    between atoms: C_21  and  C_28
   16  A    between atoms: C_22  and  C_28
   17  A    between atoms: C_22  and  C_50
   18  A    between atoms: C_32  and  C_51
   19  A    between atoms: C_35  and  C_51
   20  A    between atoms: C_40  and  N_48
                            x       y       z     vdW  Elec       q    Type
                         _______ _______ _______ _____ _____    ______ ____

>  <TORSDO>
F 20

$$$$
=
 OpenBabel11042418153D

 53 55  0  0  1  0  0  0  0  0999 V2000
  189.8450  174.3710  141.9090 C   0  0  0  0  0  0  0  0  0  0  0  0
  191.0750  173.9630  142.2570 C   0  0  0  0  0  3  0  0  0  0  0  0
  186.8110  177.6630  146.9150 C   0  0  0  0  0  3  0  0  0  0  0  0
  188.0960  176.1610  144.9100 C   0  0  0  0  0  0  0  0  0  0  0  0
  186.6440  178.0010  145.5730 C   0  0  0  0  0  3  0  0  0  0  0  0
  187.2510  177.2520  144.5470 C   0  0  0  0  0  0  0  0  0  0  0  0
  187.0700  177.7090  143.1100 C   0  0  1  0  0  3  0  0  0  0  0  0
  188.4050  176.4890  141.8690 C   0  0  0  0  0  2  0  0  0  0  0  0
  187.6080  176.5750  147.2610 C   0  0  0  0  0  3  0  0  0  0  0  0
  189.0260  175.3760  142.6510 C   0  0  0  0  0  0  0  0  0  0  0  0
  188.8620  175.2920  143.9820 C   0  0  0  0  0  3  0  0  0  0  0  0
  188.2440  175.8370  146.2640 C   0  0  0  0  0  3  0  0  0  0  0  0
  187.0680  176.6260  142.2300 O   0  0  0  0  0  0  0  0  0  0  0  0
  185.8690  179.7390  143.1040 O   0  0  0  0  0  0  0  0  0  0  0  0
  185.8370  178.5380  142.8800 C   0  0  0  0  0  0  0  0  0  0  0  0
  183.4740  178.5380  143.0030 O   0  0  0  0  0  1  0  0  0  0  0  0
  184.5660  177.9020  142.4140 C   0  0  0  0  0  2  0  0  0  0  0  0
  189.2670  173.7370  140.6830 C   0  0  0  0  0  2  0  0  0  0  0  0
  189.8620  172.3880  140.4790 C   0  0  0  0  0  3  0  0  0  0  0  0
  189.5180  169.8950  138.0310 O   0  0  0  0  0  1  0  0  0  0  0  0
  189.8200  171.8240  139.3050 C   0  0  0  0  0  0  0  0  0  0  0  0
  189.7820  171.2550  138.1330 C   0  0  0  0  0  0  0  0  0  0  0  0
  190.0450  172.0580  136.9080 C   0  0  0  0  0  2  0  0  0  0  0  0
  191.2690  171.6670  136.3350 O   0  0  0  0  0  0  0  0  0  0  0  0
  193.3420  172.3330  137.4640 C   0  0  0  0  0  2  0  0  0  0  0  0
  192.2100  172.7070  136.4990 C   0  0  2  0  0  3  0  0  0  0  0  0
  195.4350  173.4700  138.7190 O   0  0  0  0  0  0  0  0  0  0  0  0
  192.5420  175.2080  136.5980 C   0  0  0  0  0  2  0  0  0  0  0  0
  193.6590  175.1800  137.6330 C   0  0  0  0  0  2  0  0  0  0  0  0
  194.5480  173.6410  137.5190 S   0  0  0  0  0  0  0  0  0  0  0  0
  191.5560  174.0630  136.8150 C   0  0  0  0  0  2  0  0  0  0  0  0
  195.3810  173.6220  136.2680 O   0  0  0  0  0  0  0  0  0  0  0  0
  191.8570  174.4480  143.4320 C   0  0  0  0  0  2  0  0  0  0  0  0
  191.8520  173.3930  144.5200 C   0  0  0  0  0  2  0  0  0  0  0  0
  193.0410  172.4650  144.3490 C   0  0  2  0  0  3  0  0  0  0  0  0
  192.6130  171.1360  144.3840 O   0  0  0  0  0  1  0  0  0  0  0  0
  194.0360  172.7130  145.4700 C   0  0  0  0  0  2  0  0  0  0  0  0
  195.4690  172.6330  144.9620 C   0  0  2  0  0  3  0  0  0  0  0  0
  197.4370  171.3480  145.4540 O   0  0  0  0  0  0  0  0  0  0  0  0
  195.4470  170.4240  146.1220 O   0  0  0  0  0  1  0  0  0  0  0  0
  196.1810  171.4370  145.5200 C   0  0  0  0  0  0  0  0  0  0  0  0
  196.2070  173.9090  145.3330 C   0  0  0  0  0  2  0  0  0  0  0  0
  195.0110  176.0300  144.9720 C   0  0  0  0  0  0  0  0  0  0  0  0
  195.2510  174.9560  145.6700 N   0  0  0  0  0  0  0  0  0  0  0  0
  195.6630  176.3070  143.6560 C   0  0  0  0  0  0  0  0  0  0  0  0
  196.6730  177.0600  143.6090 O   0  0  0  0  0  0  0  0  0  0  0  0
  195.7450  176.0350  141.1480 C   0  0  0  0  0  1  0  0  0  0  0  0
  195.1370  175.7660  142.4400 N   0  0  0  0  0  2  0  0  0  0  0  0
  193.0190  177.3400  144.6190 O   0  0  0  0  0  1  0  0  0  0  0  0
  194.0070  176.9910  145.5460 C   0  0  1  0  0  3  0  0  0  0  0  0
  193.4020  176.5120  146.8640 C   0  0  0  0  0  2  0  0  0  0  0  0
  191.8910  176.3690  146.7910 C   0  0  0  0  0  2  0  0  0  0  0  0
  191.4340  175.3380  147.8020 C   0  0  0  0  0  1  0  0  0  0  0  0
  1  2  2  0  0  0  0
  1 10  1  0  0  0  0
  2 33  1  0  0  0  0
  3  9  1  0  0  0  0
  4 12  1  0  0  0  0
  5  3  2  0  0  0  0
  6  4  2  0  0  0  0
  6  5  1  0  0  0  0
  7 15  1  1  0  0  0
  7  6  1  0  0  0  0
  8 13  1  0  0  0  0
  8 10  1  0  0  0  0
 10 11  2  0  0  0  0
 11  4  1  0  0  0  0
 12  9  2  0  0  0  0
 13  7  1  0  0  0  0
 15 14  2  0  0  0  0
 17 15  1  0  0  0  0
 17 16  1  0  0  0  0
 18  1  1  0  0  0  0
 19 18  1  0  0  0  0
 20 22  1  0  0  0  0
 21 19  2  0  0  0  0
 22 21  2  0  0  0  0
 23 22  1  0  0  0  0
 24 23  1  0  0  0  0
 25 30  1  0  0  0  0
 26 24  1  1  0  0  0
 26 31  1  0  0  0  0
 26 25  1  0  0  0  0
 28 31  1  0  0  0  0
 28 29  1  0  0  0  0
 30 29  1  0  0  0  0
 30 27  2  0  0  0  0
 32 30  2  0  0  0  0
 33 34  1  0  0  0  0
 35 36  1  1  0  0  0
 35 34  1  0  0  0  0
 35 37  1  0  0  0  0
 38 42  1  1  0  0  0
 38 37  1  0  0  0  0
 38 41  1  0  0  0  0
 39 41  2  0  0  0  0
 41 40  1  0  0  0  0
 42 44  1  0  0  0  0
 43 50  1  0  0  0  0
 43 44  2  0  0  0  0
 45 43  1  0  0  0  0
 46 45  2  0  0  0  0
 47 48  1  0  0  0  0
 48 45  1  0  0  0  0
 50 49  1  6  0  0  0
 50 51  1  0  0  0  0
 52 51  1  0  0  0  0
 52 53  1  0  0  0  0
M  END
>  <MODEL>
4

>  <REMARK>
 VINA RESULT:      -6.4      2.417      7.495
  Name = 
  20 active torsions:
  status: ('A' for Active; 'I' for Inactive)
    1  A    between atoms: C_4  and  C_10
    2  A    between atoms: C_6  and  O_15
    3  A    between atoms: C_7  and  C_10
    4  A    between atoms: C_7  and  C_42
    5  A    between atoms: C_8  and  C_19
    6  A    between atoms: C_9  and  C_14
    7  A    between atoms: C_9  and  C_21
    8  A    between atoms: C_11  and  C_19
    9  A    between atoms: C_11  and  C_39
   10  A    between atoms: C_14  and  C_33
   11  A    between atoms: C_14  and  C_40
   12  A    between atoms: O_15  and  C_16
   13  A    between atoms: C_16  and  C_30
   14  A    between atoms: C_20  and  C_39
   15  A    between atoms: C_21  and  C_28
   16  A    between atoms: C_22  and  C_28
   17  A    between atoms: C_22  and  C_50
   18  A    between atoms: C_32  and  C_51
   19  A    between atoms: C_35  and  C_51
   20  A    between atoms: C_40  and  N_48
                            x       y       z     vdW  Elec       q    Type
                         _______ _______ _______ _____ _____    ______ ____

>  <TORSDO>
F 20

$$$$
=
 OpenBabel11042418153D

 53 55  0  0  1  0  0  0  0  0999 V2000
  190.1700  173.6190  144.7020 C   0  0  0  0  0  0  0  0  0  0  0  0
  189.3330  173.9270  145.7050 C   0  0  0  0  0  3  0  0  0  0  0  0
  196.7980  172.8350  145.4530 C   0  0  0  0  0  3  0  0  0  0  0  0
  193.9990  173.0480  145.2370 C   0  0  0  0  0  0  0  0  0  0  0  0
  196.2180  174.0310  145.0320 C   0  0  0  0  0  3  0  0  0  0  0  0
  194.8210  174.1760  144.9410 C   0  0  0  0  0  0  0  0  0  0  0  0
  194.2590  175.4880  144.4230 C   0  0  1  0  0  3  0  0  0  0  0  0
  192.1030  175.2030  144.1380 C   0  0  0  0  0  2  0  0  0  0  0  0
  195.9890  171.7490  145.7760 C   0  0  0  0  0  3  0  0  0  0  0  0
  191.6390  173.8920  144.6890 C   0  0  0  0  0  0  0  0  0  0  0  0
  192.5190  172.9860  145.1470 C   0  0  0  0  0  3  0  0  0  0  0  0
  194.6040  171.8580  145.6630 C   0  0  0  0  0  3  0  0  0  0  0  0
  193.0250  175.7770  145.0080 O   0  0  0  0  0  0  0  0  0  0  0  0
  196.1010  176.8300  143.8160 O   0  0  0  0  0  0  0  0  0  0  0  0
  195.1800  176.6630  144.6010 C   0  0  0  0  0  0  0  0  0  0  0  0
  195.7630  178.7550  145.5400 O   0  0  0  0  0  1  0  0  0  0  0  0
  194.9990  177.6070  145.7470 C   0  0  0  0  0  2  0  0  0  0  0  0
  189.5510  172.9630  143.5090 C   0  0  0  0  0  2  0  0  0  0  0  0
  190.2970  171.7210  143.1670 C   0  0  0  0  0  3  0  0  0  0  0  0
  191.1100  170.0900  140.1660 O   0  0  0  0  0  1  0  0  0  0  0  0
  190.7440  171.5370  141.9570 C   0  0  0  0  0  0  0  0  0  0  0  0
  191.1950  171.3490  140.7490 C   0  0  0  0  0  0  0  0  0  0  0  0
  191.8210  172.4750  140.0050 C   0  0  0  0  0  2  0  0  0  0  0  0
  192.2720  173.4530  140.9100 O   0  0  0  0  0  0  0  0  0  0  0  0
  194.5310  172.6920  141.4870 C   0  0  0  0  0  2  0  0  0  0  0  0
  193.6520  173.6730  140.7030 C   0  0  2  0  0  3  0  0  0  0  0  0
  197.1230  172.2850  142.0980 O   0  0  0  0  0  0  0  0  0  0  0  0
  195.4370  175.4090  140.2840 C   0  0  0  0  0  2  0  0  0  0  0  0
  196.5320  174.7080  141.0770 C   0  0  0  0  0  2  0  0  0  0  0  0
  196.2440  172.9500  141.0760 S   0  0  0  0  0  0  0  0  0  0  0  0
  194.0590  175.1440  140.8860 C   0  0  0  0  0  2  0  0  0  0  0  0
  196.5340  172.3830  139.7150 O   0  0  0  0  0  0  0  0  0  0  0  0
  189.7140  174.5810  146.9910 C   0  0  0  0  0  2  0  0  0  0  0  0
  189.8150  176.0800  146.7930 C   0  0  0  0  0  2  0  0  0  0  0  0
  188.7210  176.5560  145.8560 C   0  0  2  0  0  3  0  0  0  0  0  0
  189.2110  177.5730  145.0330 O   0  0  0  0  0  1  0  0  0  0  0  0
  187.5510  177.0760  146.6740 C   0  0  0  0  0  2  0  0  0  0  0  0
  186.5150  177.7520  145.7850 C   0  0  2  0  0  3  0  0  0  0  0  0
  185.7190  179.4740  147.2570 O   0  0  0  0  0  1  0  0  0  0  0  0
  184.1700  177.9050  146.6250 O   0  0  0  0  0  0  0  0  0  0  0  0
  185.4550  178.4300  146.6010 C   0  0  0  0  0  0  0  0  0  0  0  0
  185.8930  176.7170  144.8620 C   0  0  0  0  0  2  0  0  0  0  0  0
  185.6590  177.6330  142.5900 C   0  0  0  0  0  0  0  0  0  0  0  0
  185.1840  177.3820  143.7770 N   0  0  0  0  0  0  0  0  0  0  0  0
  187.0190  177.2000  142.1500 C   0  0  0  0  0  0  0  0  0  0  0  0
  187.9520  178.0460  142.0910 O   0  0  0  0  0  0  0  0  0  0  0  0
  188.5860  175.4090  141.3070 C   0  0  0  0  0  1  0  0  0  0  0  0
  187.2740  175.8490  141.7540 N   0  0  0  0  0  2  0  0  0  0  0  0
  184.9650  178.0120  140.3130 O   0  0  0  0  0  1  0  0  0  0  0  0
  184.7490  178.3730  141.6480 C   0  0  1  0  0  3  0  0  0  0  0  0
  183.2740  178.2690  142.0300 C   0  0  0  0  0  2  0  0  0  0  0  0
  182.3590  178.2400  140.8170 C   0  0  0  0  0  2  0  0  0  0  0  0
  180.9160  178.2360  141.2750 C   0  0  0  0  0  1  0  0  0  0  0  0
  1  2  2  0  0  0  0
  2 33  1  0  0  0  0
  3  9  1  0  0  0  0
  4 12  1  0  0  0  0
  5  3  2  0  0  0  0
  6  5  1  0  0  0  0
  6  4  2  0  0  0  0
  7 15  1  1  0  0  0
  7  6  1  0  0  0  0
  7 13  1  0  0  0  0
  8 10  1  0  0  0  0
  8 13  1  0  0  0  0
 10  1  1  0  0  0  0
 10 11  2  0  0  0  0
 11  4  1  0  0  0  0
 12  9  2  0  0  0  0
 14 15  2  0  0  0  0
 15 17  1  0  0  0  0
 16 17  1  0  0  0  0
 18  1  1  0  0  0  0
 19 18  1  0  0  0  0
 20 22  1  0  0  0  0
 21 19  2  0  0  0  0
 22 21  2  0  0  0  0
 23 22  1  0  0  0  0
 23 24  1  0  0  0  0
 26 31  1  0  0  0  0
 26 24  1  1  0  0  0
 26 25  1  0  0  0  0
 28 31  1  0  0  0  0
 28 29  1  0  0  0  0
 30 29  1  0  0  0  0
 30 25  1  0  0  0  0
 30 27  2  0  0  0  0
 32 30  2  0  0  0  0
 34 33  1  0  0  0  0
 35 36  1  6  0  0  0
 35 37  1  0  0  0  0
 35 34  1  0  0  0  0
 38 42  1  6  0  0  0
 38 41  1  0  0  0  0
 38 37  1  0  0  0  0
 41 40  2  0  0  0  0
 41 39  1  0  0  0  0
 43 44  2  0  0  0  0
 44 42  1  0  0  0  0
 45 43  1  0  0  0  0
 46 45  2  0  0  0  0
 47 48  1  0  0  0  0
 48 45  1  0  0  0  0
 50 49  1  6  0  0  0
 50 51  1  0  0  0  0
 50 43  1  0  0  0  0
 52 53  1  0  0  0  0
 52 51  1  0  0  0  0
M  END
>  <MODEL>
5

>  <REMARK>
 VINA RESULT:      -6.3      3.046      8.939
  Name = 
  20 active torsions:
  status: ('A' for Active; 'I' for Inactive)
    1  A    between atoms: C_4  and  C_10
    2  A    between atoms: C_6  and  O_15
    3  A    between atoms: C_7  and  C_10
    4  A    between atoms: C_7  and  C_42
    5  A    between atoms: C_8  and  C_19
    6  A    between atoms: C_9  and  C_14
    7  A    between atoms: C_9  and  C_21
    8  A    between atoms: C_11  and  C_19
    9  A    between atoms: C_11  and  C_39
   10  A    between atoms: C_14  and  C_33
   11  A    between atoms: C_14  and  C_40
   12  A    between atoms: O_15  and  C_16
   13  A    between atoms: C_16  and  C_30
   14  A    between atoms: C_20  and  C_39
   15  A    between atoms: C_21  and  C_28
   16  A    between atoms: C_22  and  C_28
   17  A    between atoms: C_22  and  C_50
   18  A    between atoms: C_32  and  C_51
   19  A    between atoms: C_35  and  C_51
   20  A    between atoms: C_40  and  N_48
                            x       y       z     vdW  Elec       q    Type
                         _______ _______ _______ _____ _____    ______ ____

>  <TORSDO>
F 20

$$$$
=
 OpenBabel11042418153D

 53 55  0  0  1  0  0  0  0  0999 V2000
  189.7060  172.6560  142.0600 C   0  0  0  0  0  0  0  0  0  0  0  0
  188.6990  173.4540  142.4470 C   0  0  0  0  0  3  0  0  0  0  0  0
  191.4330  171.2040  135.7340 C   0  0  0  0  0  3  0  0  0  0  0  0
  190.6490  171.6720  138.3970 C   0  0  0  0  0  0  0  0  0  0  0  0
  192.0720  172.1870  136.4890 C   0  0  0  0  0  3  0  0  0  0  0  0
  191.7210  172.4250  137.8310 C   0  0  0  0  0  0  0  0  0  0  0  0
  192.4210  173.5470  138.5770 C   0  0  1  0  0  3  0  0  0  0  0  0
  191.3860  173.7940  140.4960 C   0  0  0  0  0  2  0  0  0  0  0  0
  190.4130  170.4480  136.3040 C   0  0  0  0  0  3  0  0  0  0  0  0
  190.3860  172.7080  140.7300 C   0  0  0  0  0  0  0  0  0  0  0  0
  190.0990  171.8140  139.7690 C   0  0  0  0  0  3  0  0  0  0  0  0
  190.0260  170.6860  137.6220 C   0  0  0  0  0  3  0  0  0  0  0  0
  192.5410  173.2550  139.9360 O   0  0  0  0  0  0  0  0  0  0  0  0
  194.7060  173.1280  138.1730 O   0  0  0  0  0  0  0  0  0  0  0  0
  193.7730  173.9020  138.0250 C   0  0  0  0  0  0  0  0  0  0  0  0
  192.7980  175.6500  136.7610 O   0  0  0  0  0  1  0  0  0  0  0  0
  193.9930  175.2070  137.3270 C   0  0  0  0  0  2  0  0  0  0  0  0
  190.1530  171.6330  143.0560 C   0  0  0  0  0  2  0  0  0  0  0  0
  190.8280  172.3010  144.2020 C   0  0  0  0  0  3  0  0  0  0  0  0
  193.9440  171.9260  145.7760 O   0  0  0  0  0  1  0  0  0  0  0  0
  192.1190  172.2000  144.3520 C   0  0  0  0  0  0  0  0  0  0  0  0
  193.4090  172.1030  144.5060 C   0  0  0  0  0  0  0  0  0  0  0  0
  194.3090  172.2070  143.3250 C   0  0  0  0  0  2  0  0  0  0  0  0
  195.5320  172.7880  143.7070 O   0  0  0  0  0  0  0  0  0  0  0  0
  195.9600  174.0100  141.6240 C   0  0  0  0  0  2  0  0  0  0  0  0
  195.6370  174.0690  143.1220 C   0  0  2  0  0  3  0  0  0  0  0  0
  196.6320  175.6500  139.5960 O   0  0  0  0  0  0  0  0  0  0  0  0
  196.3400  176.4660  143.4870 C   0  0  0  0  0  2  0  0  0  0  0  0
  196.8330  176.7070  142.0670 C   0  0  0  0  0  2  0  0  0  0  0  0
  195.9500  175.6510  140.9350 S   0  0  0  0  0  0  0  0  0  0  0  0
  196.5570  175.0160  143.9110 C   0  0  0  0  0  2  0  0  0  0  0  0
  194.5350  176.1340  140.7830 O   0  0  0  0  0  0  0  0  0  0  0  0
  188.0850  174.5440  141.6340 C   0  0  0  0  0  2  0  0  0  0  0  0
  187.1320  175.3490  142.4950 C   0  0  0  0  0  2  0  0  0  0  0  0
  187.4330  176.8300  142.3590 C   0  0  2  0  0  3  0  0  0  0  0  0
  186.5960  177.3970  141.3940 O   0  0  0  0  0  1  0  0  0  0  0  0
  188.8840  177.0110  141.9490 C   0  0  0  0  0  2  0  0  0  0  0  0
  189.6570  177.8040  142.9940 C   0  0  2  0  0  3  0  0  0  0  0  0
  191.2020  175.9670  142.9820 O   0  0  0  0  0  0  0  0  0  0  0  0
  191.9760  177.9170  143.9090 O   0  0  0  0  0  1  0  0  0  0  0  0
  190.9820  177.1690  143.2920 C   0  0  0  0  0  0  0  0  0  0  0  0
  188.8240  177.9120  144.2610 C   0  0  0  0  0  2  0  0  0  0  0  0
  188.6910  176.6280  146.3560 C   0  0  0  0  0  0  0  0  0  0  0  0
  189.2980  176.9530  145.2510 N   0  0  0  0  0  0  0  0  0  0  0  0
  187.3510  177.1670  146.7370 C   0  0  0  0  0  0  0  0  0  0  0  0
  187.2660  178.0380  147.6450 O   0  0  0  0  0  0  0  0  0  0  0  0
  184.8390  177.1810  146.4850 C   0  0  0  0  0  1  0  0  0  0  0  0
  186.1540  176.6820  146.1200 N   0  0  0  0  0  2  0  0  0  0  0  0
  188.5750  174.5730  147.6120 O   0  0  0  0  0  1  0  0  0  0  0  0
  189.4000  175.6420  147.2440 C   0  0  1  0  0  3  0  0  0  0  0  0
  190.7270  175.1580  146.6650 C   0  0  0  0  0  2  0  0  0  0  0  0
  191.9220  175.8770  147.2690 C   0  0  0  0  0  2  0  0  0  0  0  0
  193.1660  175.5410  146.4740 C   0  0  0  0  0  1  0  0  0  0  0  0
  1  2  2  0  0  0  0
  1 18  1  0  0  0  0
  3  9  2  0  0  0  0
  3  5  1  0  0  0  0
  4 11  1  0  0  0  0
  5  6  2  0  0  0  0
  6  4  1  0  0  0  0
  6  7  1  0  0  0  0
  7 15  1  6  0  0  0
  7 13  1  0  0  0  0
  8 10  1  0  0  0  0
  9 12  1  0  0  0  0
 10  1  1  0  0  0  0
 11 10  2  0  0  0  0
 12  4  2  0  0  0  0
 13  8  1  0  0  0  0
 15 14  2  0  0  0  0
 16 17  1  0  0  0  0
 17 15  1  0  0  0  0
 18 19  1  0  0  0  0
 19 21  2  0  0  0  0
 21 22  2  0  0  0  0
 22 20  1  0  0  0  0
 23 24  1  0  0  0  0
 23 22  1  0  0  0  0
 25 26  1  0  0  0  0
 26 24  1  1  0  0  0
 26 31  1  0  0  0  0
 27 30  2  0  0  0  0
 28 31  1  0  0  0  0
 29 28  1  0  0  0  0
 30 25  1  0  0  0  0
 30 29  1  0  0  0  0
 32 30  2  0  0  0  0
 33  2  1  0  0  0  0
 33 34  1  0  0  0  0
 35 36  1  6  0  0  0
 35 34  1  0  0  0  0
 37 35  1  0  0  0  0
 38 37  1  6  0  0  0
 38 41  1  0  0  0  0
 38 42  1  0  0  0  0
 39 41  2  0  0  0  0
 41 40  1  0  0  0  0
 42 44  1  0  0  0  0
 43 45  1  0  0  0  0
 43 50  1  0  0  0  0
 44 43  2  0  0  0  0
 45 46  2  0  0  0  0
 48 47  1  0  0  0  0
 48 45  1  0  0  0  0
 50 49  1  6  0  0  0
 51 50  1  0  0  0  0
 51 52  1  0  0  0  0
 53 52  1  0  0  0  0
M  END
>  <MODEL>
6

>  <REMARK>
 VINA RESULT:      -6.2      2.817      7.180
  Name = 
  20 active torsions:
  status: ('A' for Active; 'I' for Inactive)
    1  A    between atoms: C_4  and  C_10
    2  A    between atoms: C_6  and  O_15
    3  A    between atoms: C_7  and  C_10
    4  A    between atoms: C_7  and  C_42
    5  A    between atoms: C_8  and  C_19
    6  A    between atoms: C_9  and  C_14
    7  A    between atoms: C_9  and  C_21
    8  A    between atoms: C_11  and  C_19
    9  A    between atoms: C_11  and  C_39
   10  A    between atoms: C_14  and  C_33
   11  A    between atoms: C_14  and  C_40
   12  A    between atoms: O_15  and  C_16
   13  A    between atoms: C_16  and  C_30
   14  A    between atoms: C_20  and  C_39
   15  A    between atoms: C_21  and  C_28
   16  A    between atoms: C_22  and  C_28
   17  A    between atoms: C_22  and  C_50
   18  A    between atoms: C_32  and  C_51
   19  A    between atoms: C_35  and  C_51
   20  A    between atoms: C_40  and  N_48
                            x       y       z     vdW  Elec       q    Type
                         _______ _______ _______ _____ _____    ______ ____

>  <TORSDO>
F 20

$$$$
=
 OpenBabel11042418153D

 53 55  0  0  1  0  0  0  0  0999 V2000
  189.1880  173.3250  142.0770 C   0  0  0  0  0  0  0  0  0  0  0  0
  189.4170  172.9520  143.3450 C   0  0  0  0  0  3  0  0  0  0  0  0
  191.4920  170.5060  136.4330 C   0  0  0  0  0  3  0  0  0  0  0  0
  190.4310  171.5680  138.8140 C   0  0  0  0  0  0  0  0  0  0  0  0
  192.2290  171.4260  137.1780 C   0  0  0  0  0  3  0  0  0  0  0  0
  191.7370  171.9530  138.3860 C   0  0  0  0  0  0  0  0  0  0  0  0
  192.5690  172.9910  139.1190 C   0  0  1  0  0  3  0  0  0  0  0  0
  191.3340  173.7780  140.7530 C   0  0  0  0  0  2  0  0  0  0  0  0
  190.2340  170.1070  136.8750 C   0  0  0  0  0  3  0  0  0  0  0  0
  190.0650  173.0020  140.9100 C   0  0  0  0  0  0  0  0  0  0  0  0
  189.7210  172.0540  140.0240 C   0  0  0  0  0  3  0  0  0  0  0  0
  189.7120  170.6390  138.0530 C   0  0  0  0  0  3  0  0  0  0  0  0
  192.3880  172.9040  140.4990 O   0  0  0  0  0  0  0  0  0  0  0  0
  194.6940  171.9700  139.1750 O   0  0  0  0  0  0  0  0  0  0  0  0
  194.0380  172.9330  138.8060 C   0  0  0  0  0  0  0  0  0  0  0  0
  194.6760  173.8170  136.7060 O   0  0  0  0  0  1  0  0  0  0  0  0
  194.7090  174.0550  138.0800 C   0  0  0  0  0  2  0  0  0  0  0  0
  187.9560  174.1420  141.8450 C   0  0  0  0  0  2  0  0  0  0  0  0
  188.3080  175.4010  141.1340 C   0  0  0  0  0  3  0  0  0  0  0  0
  186.4570  177.9100  139.5190 O   0  0  0  0  0  1  0  0  0  0  0  0
  187.4020  176.3160  140.9340 C   0  0  0  0  0  0  0  0  0  0  0  0
  186.5000  177.2350  140.7320 C   0  0  0  0  0  0  0  0  0  0  0  0
  185.5320  177.5760  141.8100 C   0  0  0  0  0  2  0  0  0  0  0  0
  186.1080  178.5120  142.6890 O   0  0  0  0  0  0  0  0  0  0  0  0
  185.9630  179.3120  145.0030 C   0  0  0  0  0  2  0  0  0  0  0  0
  185.7970  178.1480  144.0180 C   0  0  2  0  0  3  0  0  0  0  0  0
  185.9410  179.7840  147.6540 O   0  0  0  0  0  0  0  0  0  0  0  0
  185.8530  176.2940  145.7300 C   0  0  0  0  0  2  0  0  0  0  0  0
  186.1080  177.1930  146.9330 C   0  0  0  0  0  2  0  0  0  0  0  0
  185.4320  178.8130  146.6270 S   0  0  0  0  0  0  0  0  0  0  0  0
  186.5010  176.8580  144.4680 C   0  0  0  0  0  2  0  0  0  0  0  0
  183.9310  178.7610  146.6810 O   0  0  0  0  0  0  0  0  0  0  0  0
  190.5720  172.1360  143.8220 C   0  0  0  0  0  2  0  0  0  0  0  0
  191.4220  172.9580  144.7700 C   0  0  0  0  0  2  0  0  0  0  0  0
  192.8930  172.6760  144.5270 C   0  0  2  0  0  3  0  0  0  0  0  0
  193.1130  171.2970  144.5010 O   0  0  0  0  0  1  0  0  0  0  0  0
  193.7150  173.3040  145.6400 C   0  0  0  0  0  2  0  0  0  0  0  0
  194.2390  174.6740  145.2320 C   0  0  2  0  0  3  0  0  0  0  0  0
  196.4000  175.3300  144.4180 O   0  0  0  0  0  0  0  0  0  0  0  0
  196.3910  174.1240  146.3690 O   0  0  0  0  0  1  0  0  0  0  0  0
  195.7350  174.7310  145.3060 C   0  0  0  0  0  0  0  0  0  0  0  0
  193.6240  175.7360  146.1280 C   0  0  0  0  0  2  0  0  0  0  0  0
  191.2650  176.3910  146.3850 C   0  0  0  0  0  0  0  0  0  0  0  0
  192.2930  176.0830  145.6460 N   0  0  0  0  0  0  0  0  0  0  0  0
  191.3350  176.4940  147.8740 C   0  0  0  0  0  0  0  0  0  0  0  0
  191.2020  175.4560  148.5760 O   0  0  0  0  0  0  0  0  0  0  0  0
  191.5660  177.8850  149.9680 C   0  0  0  0  0  1  0  0  0  0  0  0
  191.5100  177.7580  148.5220 N   0  0  0  0  0  2  0  0  0  0  0  0
  189.4230  177.9020  146.0240 O   0  0  0  0  0  1  0  0  0  0  0  0
  189.9780  176.6710  145.6590 C   0  0  1  0  0  3  0  0  0  0  0  0
  190.1020  176.5350  144.1430 C   0  0  0  0  0  2  0  0  0  0  0  0
  189.9150  177.8600  143.4220 C   0  0  0  0  0  2  0  0  0  0  0  0
  191.1970  178.6620  143.5010 C   0  0  0  0  0  1  0  0  0  0  0  0
  1  2  2  0  0  0  0
  2 33  1  0  0  0  0
  3  9  2  0  0  0  0
  3  5  1  0  0  0  0
  4 11  1  0  0  0  0
  5  6  2  0  0  0  0
  6  4  1  0  0  0  0
  6  7  1  0  0  0  0
  7 15  1  1  0  0  0
  7 13  1  0  0  0  0
  8 10  1  0  0  0  0
  9 12  1  0  0  0  0
 10  1  1  0  0  0  0
 11 10  2  0  0  0  0
 12  4  2  0  0  0  0
 13  8  1  0  0  0  0
 15 14  2  0  0  0  0
 16 17  1  0  0  0  0
 17 15  1  0  0  0  0
 18  1  1  0  0  0  0
 19 18  1  0  0  0  0
 20 22  1  0  0  0  0
 21 19  2  0  0  0  0
 22 21  2  0  0  0  0
 22 23  1  0  0  0  0
 23 24  1  0  0  0  0
 25 30  1  0  0  0  0
 26 24  1  6  0  0  0
 26 31  1  0  0  0  0
 26 25  1  0  0  0  0
 28 29  1  0  0  0  0
 30 32  2  0  0  0  0
 30 29  1  0  0  0  0
 30 27  2  0  0  0  0
 31 28  1  0  0  0  0
 33 34  1  0  0  0  0
 35 36  1  1  0  0  0
 35 34  1  0  0  0  0
 35 37  1  0  0  0  0
 38 41  1  0  0  0  0
 38 37  1  1  0  0  0
 38 42  1  0  0  0  0
 39 41  2  0  0  0  0
 41 40  1  0  0  0  0
 43 45  1  0  0  0  0
 44 42  1  0  0  0  0
 44 43  2  0  0  0  0
 45 48  1  0  0  0  0
 45 46  2  0  0  0  0
 48 47  1  0  0  0  0
 50 49  1  6  0  0  0
 50 43  1  0  0  0  0
 51 50  1  0  0  0  0
 52 53  1  0  0  0  0
 52 51  1  0  0  0  0
M  END
>  <MODEL>
7

>  <REMARK>
 VINA RESULT:      -6.1      1.754      2.976
  Name = 
  20 active torsions:
  status: ('A' for Active; 'I' for Inactive)
    1  A    between atoms: C_4  and  C_10
    2  A    between atoms: C_6  and  O_15
    3  A    between atoms: C_7  and  C_10
    4  A    between atoms: C_7  and  C_42
    5  A    between atoms: C_8  and  C_19
    6  A    between atoms: C_9  and  C_14
    7  A    between atoms: C_9  and  C_21
    8  A    between atoms: C_11  and  C_19
    9  A    between atoms: C_11  and  C_39
   10  A    between atoms: C_14  and  C_33
   11  A    between atoms: C_14  and  C_40
   12  A    between atoms: O_15  and  C_16
   13  A    between atoms: C_16  and  C_30
   14  A    between atoms: C_20  and  C_39
   15  A    between atoms: C_21  and  C_28
   16  A    between atoms: C_22  and  C_28
   17  A    between atoms: C_22  and  C_50
   18  A    between atoms: C_32  and  C_51
   19  A    between atoms: C_35  and  C_51
   20  A    between atoms: C_40  and  N_48
                            x       y       z     vdW  Elec       q    Type
                         _______ _______ _______ _____ _____    ______ ____

>  <TORSDO>
F 20

$$$$
=
 OpenBabel11042418153D

 53 55  0  0  1  0  0  0  0  0999 V2000
  190.9660  172.2790  143.4170 C   0  0  0  0  0  0  0  0  0  0  0  0
  190.8090  171.1540  142.7030 C   0  0  0  0  0  3  0  0  0  0  0  0
  197.1220  173.0010  146.0040 C   0  0  0  0  0  3  0  0  0  0  0  0
  194.5210  172.5780  145.0120 C   0  0  0  0  0  0  0  0  0  0  0  0
  196.4260  174.0460  145.3970 C   0  0  0  0  0  3  0  0  0  0  0  0
  195.1150  173.8720  144.9170 C   0  0  0  0  0  0  0  0  0  0  0  0
  194.4360  175.0380  144.2190 C   0  0  1  0  0  3  0  0  0  0  0  0
  192.5670  174.2780  143.3570 C   0  0  0  0  0  2  0  0  0  0  0  0
  196.5240  171.7500  146.1260 C   0  0  0  0  0  3  0  0  0  0  0  0
  192.2790  172.8800  143.8030 C   0  0  0  0  0  0  0  0  0  0  0  0
  193.1780  172.1840  144.5180 C   0  0  0  0  0  3  0  0  0  0  0  0
  195.2380  171.5450  145.6310 C   0  0  0  0  0  3  0  0  0  0  0  0
  193.0560  175.0200  144.4280 O   0  0  0  0  0  0  0  0  0  0  0  0
  195.9670  176.8220  144.0340 O   0  0  0  0  0  0  0  0  0  0  0  0
  194.9790  176.3850  144.6050 C   0  0  0  0  0  0  0  0  0  0  0  0
  194.3420  176.4360  146.8840 O   0  0  0  0  0  1  0  0  0  0  0  0
  194.3440  177.1780  145.7030 C   0  0  0  0  0  2  0  0  0  0  0  0
  189.7080  172.9550  143.8630 C   0  0  0  0  0  2  0  0  0  0  0  0
  189.7070  173.1000  145.3450 C   0  0  0  0  0  3  0  0  0  0  0  0
  190.4520  175.7220  147.5570 O   0  0  0  0  0  1  0  0  0  0  0  0
  189.6910  174.2850  145.8870 C   0  0  0  0  0  0  0  0  0  0  0  0
  189.6730  175.4670  146.4350 C   0  0  0  0  0  0  0  0  0  0  0  0
  188.8020  176.5340  145.8720 C   0  0  0  0  0  2  0  0  0  0  0  0
  187.4820  176.0620  145.7580 O   0  0  0  0  0  0  0  0  0  0  0  0
  185.5440  177.5530  145.5630 C   0  0  0  0  0  2  0  0  0  0  0  0
  186.7620  176.9100  144.8880 C   0  0  2  0  0  3  0  0  0  0  0  0
  183.3860  179.0350  144.9340 O   0  0  0  0  0  0  0  0  0  0  0  0
  186.0240  177.2950  142.5050 C   0  0  0  0  0  2  0  0  0  0  0  0
  184.6750  177.9120  142.8520 C   0  0  0  0  0  2  0  0  0  0  0  0
  184.7670  178.7010  144.4460 S   0  0  0  0  0  0  0  0  0  0  0  0
  186.4390  176.2500  143.5370 C   0  0  0  0  0  2  0  0  0  0  0  0
  185.5870  179.9560  144.3510 O   0  0  0  0  0  0  0  0  0  0  0  0
  191.9070  170.3100  142.1480 C   0  0  0  0  0  2  0  0  0  0  0  0
  191.5020  169.7700  140.7910 C   0  0  0  0  0  2  0  0  0  0  0  0
  190.7950  170.8500  139.9930 C   0  0  2  0  0  3  0  0  0  0  0  0
  189.9850  170.2640  139.0170 O   0  0  0  0  0  1  0  0  0  0  0  0
  191.8300  171.7440  139.3300 C   0  0  0  0  0  2  0  0  0  0  0  0
  191.7040  173.1830  139.8110 C   0  0  2  0  0  3  0  0  0  0  0  0
  189.6100  174.1300  140.5040 O   0  0  0  0  0  1  0  0  0  0  0  0
  189.8560  173.7930  138.2490 O   0  0  0  0  0  0  0  0  0  0  0  0
  190.3310  173.7270  139.5520 C   0  0  0  0  0  0  0  0  0  0  0  0
  192.7520  174.0380  139.1200 C   0  0  0  0  0  2  0  0  0  0  0  0
  195.1850  174.0210  139.4950 C   0  0  0  0  0  0  0  0  0  0  0  0
  193.9600  174.0990  139.9330 N   0  0  0  0  0  0  0  0  0  0  0  0
  195.5250  173.9200  138.0440 C   0  0  0  0  0  0  0  0  0  0  0  0
  195.6730  172.7840  137.5180 O   0  0  0  0  0  0  0  0  0  0  0  0
  196.0730  175.0170  135.8370 C   0  0  0  0  0  1  0  0  0  0  0  0
  195.7260  175.0910  137.2470 N   0  0  0  0  0  2  0  0  0  0  0  0
  196.4220  175.3400  141.0880 O   0  0  0  0  0  1  0  0  0  0  0  0
  196.2710  174.0640  140.5340 C   0  0  1  0  0  3  0  0  0  0  0  0
  196.1130  172.9960  141.6130 C   0  0  0  0  0  2  0  0  0  0  0  0
  197.4430  172.5810  142.2210 C   0  0  0  0  0  2  0  0  0  0  0  0
  197.4620  171.0790  142.4120 C   0  0  0  0  0  1  0  0  0  0  0  0
  1 10  1  0  0  0  0
  1 18  1  0  0  0  0
  2  1  2  0  0  0  0
  3  9  1  0  0  0  0
  4 12  1  0  0  0  0
  5  3  2  0  0  0  0
  6  4  2  0  0  0  0
  6  5  1  0  0  0  0
  7 13  1  0  0  0  0
  7 15  1  1  0  0  0
  7  6  1  0  0  0  0
  8 10  1  0  0  0  0
  8 13  1  0  0  0  0
 10 11  2  0  0  0  0
 11  4  1  0  0  0  0
 12  9  2  0  0  0  0
 14 15  2  0  0  0  0
 15 17  1  0  0  0  0
 17 16  1  0  0  0  0
 18 19  1  0  0  0  0
 19 21  2  0  0  0  0
 21 22  2  0  0  0  0
 22 20  1  0  0  0  0
 23 22  1  0  0  0  0
 24 23  1  0  0  0  0
 26 25  1  0  0  0  0
 26 24  1  1  0  0  0
 28 29  1  0  0  0  0
 28 31  1  0  0  0  0
 29 30  1  0  0  0  0
 30 27  2  0  0  0  0
 30 25  1  0  0  0  0
 31 26  1  0  0  0  0
 32 30  2  0  0  0  0
 33  2  1  0  0  0  0
 34 33  1  0  0  0  0
 35 36  1  6  0  0  0
 35 34  1  0  0  0  0
 37 38  1  0  0  0  0
 37 35  1  0  0  0  0
 38 42  1  6  0  0  0
 40 41  2  0  0  0  0
 41 38  1  0  0  0  0
 41 39  1  0  0  0  0
 42 44  1  0  0  0  0
 43 44  2  0  0  0  0
 43 50  1  0  0  0  0
 45 43  1  0  0  0  0
 46 45  2  0  0  0  0
 47 48  1  0  0  0  0
 48 45  1  0  0  0  0
 50 49  1  1  0  0  0
 50 51  1  0  0  0  0
 51 52  1  0  0  0  0
 52 53  1  0  0  0  0
M  END
>  <MODEL>
8

>  <REMARK>
 VINA RESULT:      -6.1      2.387      6.392
  Name = 
  20 active torsions:
  status: ('A' for Active; 'I' for Inactive)
    1  A    between atoms: C_4  and  C_10
    2  A    between atoms: C_6  and  O_15
    3  A    between atoms: C_7  and  C_10
    4  A    between atoms: C_7  and  C_42
    5  A    between atoms: C_8  and  C_19
    6  A    between atoms: C_9  and  C_14
    7  A    between atoms: C_9  and  C_21
    8  A    between atoms: C_11  and  C_19
    9  A    between atoms: C_11  and  C_39
   10  A    between atoms: C_14  and  C_33
   11  A    between atoms: C_14  and  C_40
   12  A    between atoms: O_15  and  C_16
   13  A    between atoms: C_16  and  C_30
   14  A    between atoms: C_20  and  C_39
   15  A    between atoms: C_21  and  C_28
   16  A    between atoms: C_22  and  C_28
   17  A    between atoms: C_22  and  C_50
   18  A    between atoms: C_32  and  C_51
   19  A    between atoms: C_35  and  C_51
   20  A    between atoms: C_40  and  N_48
                            x       y       z     vdW  Elec       q    Type
                         _______ _______ _______ _____ _____    ______ ____

>  <TORSDO>
F 20

$$$$
=
 OpenBabel11042418153D

 53 55  0  0  1  0  0  0  0  0999 V2000
  191.7860  171.6300  141.6750 C   0  0  0  0  0  0  0  0  0  0  0  0
  191.0550  172.0020  142.7360 C   0  0  0  0  0  3  0  0  0  0  0  0
  190.2420  172.8260  135.2490 C   0  0  0  0  0  3  0  0  0  0  0  0
  190.8420  172.1800  137.9230 C   0  0  0  0  0  0  0  0  0  0  0  0
  191.1650  173.5900  135.9630 C   0  0  0  0  0  3  0  0  0  0  0  0
  191.5050  173.2740  137.2920 C   0  0  0  0  0  0  0  0  0  0  0  0
  192.4770  174.1810  138.0270 C   0  0  1  0  0  3  0  0  0  0  0  0
  192.4990  173.5410  140.1260 C   0  0  0  0  0  2  0  0  0  0  0  0
  189.6250  171.7370  135.8590 C   0  0  0  0  0  3  0  0  0  0  0  0
  191.7380  172.2700  140.3250 C   0  0  0  0  0  0  0  0  0  0  0  0
  191.0240  171.7280  139.3250 C   0  0  0  0  0  3  0  0  0  0  0  0
  189.9230  171.4240  137.1840 C   0  0  0  0  0  3  0  0  0  0  0  0
  193.2400  173.4640  138.9500 O   0  0  0  0  0  0  0  0  0  0  0  0
  193.0250  176.0360  136.6780 O   0  0  0  0  0  0  0  0  0  0  0  0
  193.3930  174.9600  137.1250 C   0  0  0  0  0  0  0  0  0  0  0  0
  194.5740  173.2540  135.9870 O   0  0  0  0  0  1  0  0  0  0  0  0
  194.7330  174.4150  136.7430 C   0  0  0  0  0  2  0  0  0  0  0  0
  192.7040  170.4670  141.8860 C   0  0  0  0  0  2  0  0  0  0  0  0
  192.6730  170.0480  143.3140 C   0  0  0  0  0  3  0  0  0  0  0  0
  195.1200  169.5580  145.7840 O   0  0  0  0  0  1  0  0  0  0  0  0
  193.6940  170.2850  144.0880 C   0  0  0  0  0  0  0  0  0  0  0  0
  194.7120  170.5200  144.8680 C   0  0  0  0  0  0  0  0  0  0  0  0
  195.4200  171.8270  144.7920 C   0  0  0  0  0  2  0  0  0  0  0  0
  194.9020  172.7070  145.7600 O   0  0  0  0  0  0  0  0  0  0  0  0
  195.1030  175.1450  145.9390 C   0  0  0  0  0  2  0  0  0  0  0  0
  194.5900  173.9390  145.1430 C   0  0  2  0  0  3  0  0  0  0  0  0
  194.9200  177.8310  145.9520 O   0  0  0  0  0  0  0  0  0  0  0  0
  192.8980  175.1930  143.7520 C   0  0  0  0  0  2  0  0  0  0  0  0
  193.1200  176.5480  144.4120 C   0  0  0  0  0  2  0  0  0  0  0  0
  194.7840  176.6470  145.0380 S   0  0  0  0  0  0  0  0  0  0  0  0
  193.1090  174.0520  144.7430 C   0  0  0  0  0  2  0  0  0  0  0  0
  195.7540  176.7740  143.8980 O   0  0  0  0  0  0  0  0  0  0  0  0
  190.0760  173.1280  142.7720 C   0  0  0  0  0  2  0  0  0  0  0  0
  188.6730  172.5940  142.5630 C   0  0  0  0  0  2  0  0  0  0  0  0
  187.9110  173.4930  141.6070 C   0  0  2  0  0  3  0  0  0  0  0  0
  188.0290  173.0060  140.3030 O   0  0  0  0  0  1  0  0  0  0  0  0
  188.4790  174.9000  141.6820 C   0  0  0  0  0  2  0  0  0  0  0  0
  187.6340  175.7880  142.5860 C   0  0  2  0  0  3  0  0  0  0  0  0
  188.2200  177.8860  141.5770 O   0  0  0  0  0  0  0  0  0  0  0  0
  185.9780  177.4150  141.6710 O   0  0  0  0  0  1  0  0  0  0  0  0
  187.3050  177.0900  141.9190 C   0  0  0  0  0  0  0  0  0  0  0  0
  188.3770  176.0330  143.8890 C   0  0  0  0  0  2  0  0  0  0  0  0
  187.6320  176.4220  146.2010 C   0  0  0  0  0  0  0  0  0  0  0  0
  187.4470  176.4890  144.9140 N   0  0  0  0  0  0  0  0  0  0  0  0
  188.8920  175.9090  146.8180 C   0  0  0  0  0  0  0  0  0  0  0  0
  188.9670  174.6990  147.1650 O   0  0  0  0  0  0  0  0  0  0  0  0
  191.2350  176.3030  147.6720 C   0  0  0  0  0  1  0  0  0  0  0  0
  190.0050  176.7760  147.0590 N   0  0  0  0  0  2  0  0  0  0  0  0
  186.7600  178.1930  147.5840 O   0  0  0  0  0  1  0  0  0  0  0  0
  186.5050  176.9190  147.0660 C   0  0  1  0  0  3  0  0  0  0  0  0
  185.1450  176.8520  146.3760 C   0  0  0  0  0  2  0  0  0  0  0  0
  184.4410  178.1980  146.3440 C   0  0  0  0  0  2  0  0  0  0  0  0
  184.6100  178.8230  144.9750 C   0  0  0  0  0  1  0  0  0  0  0  0
  1 18  1  0  0  0  0
  1  2  2  0  0  0  0
  2 33  1  0  0  0  0
  3  9  2  0  0  0  0
  3  5  1  0  0  0  0
  4 11  1  0  0  0  0
  5  6  2  0  0  0  0
  6  4  1  0  0  0  0
  6  7  1  0  0  0  0
  7 15  1  6  0  0  0
  7 13  1  0  0  0  0
  8 10  1  0  0  0  0
  9 12  1  0  0  0  0
 10  1  1  0  0  0  0
 11 10  2  0  0  0  0
 12  4  2  0  0  0  0
 13  8  1  0  0  0  0
 14 15  2  0  0  0  0
 16 17  1  0  0  0  0
 17 15  1  0  0  0  0
 18 19  1  0  0  0  0
 19 21  2  0  0  0  0
 21 22  2  0  0  0  0
 22 20  1  0  0  0  0
 23 22  1  0  0  0  0
 23 24  1  0  0  0  0
 26 24  1  1  0  0  0
 26 25  1  0  0  0  0
 28 29  1  0  0  0  0
 28 31  1  0  0  0  0
 29 30  1  0  0  0  0
 30 25  1  0  0  0  0
 30 27  2  0  0  0  0
 31 26  1  0  0  0  0
 32 30  2  0  0  0  0
 34 33  1  0  0  0  0
 35 36  1  6  0  0  0
 35 37  1  0  0  0  0
 35 34  1  0  0  0  0
 38 37  1  6  0  0  0
 38 42  1  0  0  0  0
 39 41  2  0  0  0  0
 40 41  1  0  0  0  0
 41 38  1  0  0  0  0
 42 44  1  0  0  0  0
 43 45  1  0  0  0  0
 43 50  1  0  0  0  0
 44 43  2  0  0  0  0
 45 48  1  0  0  0  0
 45 46  2  0  0  0  0
 48 47  1  0  0  0  0
 50 49  1  6  0  0  0
 51 50  1  0  0  0  0
 52 51  1  0  0  0  0
 53 52  1  0  0  0  0
M  END
>  <MODEL>
9

>  <REMARK>
 VINA RESULT:      -6.1      2.730      7.289
  Name = 
  20 active torsions:
  status: ('A' for Active; 'I' for Inactive)
    1  A    between atoms: C_4  and  C_10
    2  A    between atoms: C_6  and  O_15
    3  A    between atoms: C_7  and  C_10
    4  A    between atoms: C_7  and  C_42
    5  A    between atoms: C_8  and  C_19
    6  A    between atoms: C_9  and  C_14
    7  A    between atoms: C_9  and  C_21
    8  A    between atoms: C_11  and  C_19
    9  A    between atoms: C_11  and  C_39
   10  A    between atoms: C_14  and  C_33
   11  A    between atoms: C_14  and  C_40
   12  A    between atoms: O_15  and  C_16
   13  A    between atoms: C_16  and  C_30
   14  A    between atoms: C_20  and  C_39
   15  A    between atoms: C_21  and  C_28
   16  A    between atoms: C_22  and  C_28
   17  A    between atoms: C_22  and  C_50
   18  A    between atoms: C_32  and  C_51
   19  A    between atoms: C_35  and  C_51
   20  A    between atoms: C_40  and  N_48
                            x       y       z     vdW  Elec       q    Type
                         _______ _______ _______ _____ _____    ______ ____

>  <TORSDO>
F 20

$$$$
