=
 OpenBabel11042418293D

 30 31  0  0  1  0  0  0  0  0999 V2000
  190.6140  175.9110  145.5290 C   0  0  0  0  0  0  0  0  0  0  0  0
  190.9410  175.1180  144.5440 N   0  0  0  0  0  0  0  0  0  0  0  0
  189.2400  176.4120  145.7470 C   0  0  0  0  0  0  0  0  0  0  0  0
  188.2020  175.7370  146.5890 C   0  0  0  0  0  2  0  0  0  0  0  0
  187.3370  177.5590  145.4920 C   0  0  0  0  0  0  0  0  0  0  0  0
  188.7260  177.4430  145.0910 C   0  0  0  0  0  3  0  0  0  0  0  0
  187.0130  176.6050  146.3550 C   0  0  0  0  0  3  0  0  0  0  0  0
  186.4250  178.6530  145.0170 C   0  0  2  0  0  3  0  0  0  0  0  0
  183.8320  178.2300  142.7270 N   0  0  0  0  0  2  0  0  0  0  0  0
  184.8730  178.3910  143.6910 C   0  0  0  0  0  0  0  0  0  0  0  0
  184.8420  178.3900  145.5200 S   0  0  0  0  0  0  0  0  0  0  0  0
  182.9640  178.0660  140.4270 N   0  0  0  0  0  1  0  0  0  0  0  0
  184.0590  178.2470  141.3170 C   0  0  0  0  0  0  0  0  0  0  0  0
  185.2170  178.4200  140.8520 O   0  0  0  0  0  0  0  0  0  0  0  0
  186.2010  178.5670  143.5940 N   0  0  0  0  0  0  0  0  0  0  0  0
  191.7010  176.4300  146.4200 C   0  0  1  0  0  3  0  0  0  0  0  0
  191.1640  176.8950  147.6230 O   0  0  0  0  0  1  0  0  0  0  0  0
  192.7300  175.3400  146.6880 C   0  0  0  0  0  2  0  0  0  0  0  0
  194.1360  177.1860  145.7350 C   0  0  0  0  0  1  0  0  0  0  0  0
  194.1470  175.8570  146.4730 C   0  0  2  0  0  3  0  0  0  0  0  0
  194.2970  174.3520  144.5990 O   0  0  0  0  0  1  0  0  0  0  0  0
  194.9830  174.8320  145.7180 C   0  0  0  0  0  2  0  0  0  0  0  0
  189.4160  173.4120  144.0120 O   0  0  0  0  0  0  0  0  0  0  0  0
  190.0650  174.4260  143.6430 C   0  0  0  0  0  0  0  0  0  0  0  0
  190.0250  174.8350  142.2100 C   0  0  0  0  0  2  0  0  0  0  0  0
  188.6640  174.5260  141.6040 C   0  0  2  0  0  3  0  0  0  0  0  0
  188.7860  174.3030  140.2310 O   0  0  0  0  0  1  0  0  0  0  0  0
  187.7180  175.6530  141.8520 C   0  0  0  0  0  0  0  0  0  0  0  0
  187.9490  176.8860  141.2570 O   0  0  0  0  0  0  0  0  0  0  0  0
  186.7150  175.4950  142.5960 O   0  0  0  0  0  1  0  0  0  0  0  0
  1  3  1  0  0  0  0
  1 16  1  0  0  0  0
  2  1  2  0  0  0  0
  3  4  1  0  0  0  0
  5  7  2  0  0  0  0
  6  5  1  0  0  0  0
  6  3  2  0  0  0  0
  7  4  1  0  0  0  0
  8  5  1  1  0  0  0
  8 11  1  0  0  0  0
  9 10  1  0  0  0  0
 10 11  1  0  0  0  0
 12 13  1  0  0  0  0
 13  9  1  0  0  0  0
 14 13  2  0  0  0  0
 15 10  2  0  0  0  0
 15  8  1  0  0  0  0
 16 18  1  0  0  0  0
 16 17  1  1  0  0  0
 20 19  1  6  0  0  0
 20 18  1  0  0  0  0
 21 22  1  0  0  0  0
 22 20  1  0  0  0  0
 24 23  2  0  0  0  0
 24  2  1  0  0  0  0
 25 24  1  0  0  0  0
 26 27  1  6  0  0  0
 26 28  1  0  0  0  0
 26 25  1  0  0  0  0
 28 30  1  0  0  0  0
 29 28  2  0  0  0  0
M  END
>  <MODEL>
1

>  <REMARK>
 VINA RESULT:      -6.7      0.000      0.000
  Name = 
  10 active torsions:
  status: ('A' for Active; 'I' for Inactive)
    1  A    between atoms: C_2  and  C_25
    2  A    between atoms: C_3  and  C_7
    3  A    between atoms: C_3  and  C_11
    4  A    between atoms: C_4  and  C_8
    5  A    between atoms: C_6  and  C_7
    6  A    between atoms: C_8  and  C_27
    7  A    between atoms: C_11  and  C_30
    8  A    between atoms: N_13  and  C_22
    9  A    between atoms: C_22  and  C_27
   10  A    between atoms: C_24  and  C_30
                            x       y       z     vdW  Elec       q    Type
                         _______ _______ _______ _____ _____    ______ ____

>  <TORSDO>
F 10

$$$$
=
 OpenBabel11042418293D

 30 31  0  0  1  0  0  0  0  0999 V2000
  190.6780  175.1710  143.9160 C   0  0  0  0  0  0  0  0  0  0  0  0
  190.5380  174.0610  143.2420 N   0  0  0  0  0  0  0  0  0  0  0  0
  189.5540  175.8610  144.5850 C   0  0  0  0  0  0  0  0  0  0  0  0
  188.9650  175.4670  145.9040 C   0  0  0  0  0  2  0  0  0  0  0  0
  187.7710  177.1680  144.9270 C   0  0  0  0  0  0  0  0  0  0  0  0
  188.8420  176.8210  144.0120 C   0  0  0  0  0  3  0  0  0  0  0  0
  187.8240  176.4180  146.0210 C   0  0  0  0  0  3  0  0  0  0  0  0
  186.7820  178.2660  144.6680 C   0  0  2  0  0  3  0  0  0  0  0  0
  184.0190  178.0010  142.5600 N   0  0  0  0  0  2  0  0  0  0  0  0
  185.1320  178.0940  143.4500 C   0  0  0  0  0  0  0  0  0  0  0  0
  185.2590  177.8690  145.2600 S   0  0  0  0  0  0  0  0  0  0  0  0
  182.9630  178.0770  140.3350 N   0  0  0  0  0  1  0  0  0  0  0  0
  184.1230  178.2000  141.1490 C   0  0  0  0  0  0  0  0  0  0  0  0
  185.2290  178.4840  140.6170 O   0  0  0  0  0  0  0  0  0  0  0  0
  186.4400  178.3430  143.2680 N   0  0  0  0  0  0  0  0  0  0  0  0
  192.0190  175.8400  143.9240 C   0  0  1  0  0  3  0  0  0  0  0  0
  192.1990  176.5810  142.7540 O   0  0  0  0  0  1  0  0  0  0  0  0
  192.1520  176.7400  145.1450 C   0  0  0  0  0  2  0  0  0  0  0  0
  192.0070  176.3920  147.6240 C   0  0  0  0  0  1  0  0  0  0  0  0
  192.7000  175.9700  146.3390 C   0  0  2  0  0  3  0  0  0  0  0  0
  194.5860  177.4300  146.0170 O   0  0  0  0  0  1  0  0  0  0  0  0
  194.2070  176.1590  146.4550 C   0  0  0  0  0  2  0  0  0  0  0  0
  189.2890  172.1940  143.9270 O   0  0  0  0  0  0  0  0  0  0  0  0
  189.3890  173.2050  143.1830 C   0  0  0  0  0  0  0  0  0  0  0  0
  188.3590  173.4400  142.1310 C   0  0  0  0  0  2  0  0  0  0  0  0
  188.9320  174.2850  141.0030 C   0  0  2  0  0  3  0  0  0  0  0  0
  188.1290  175.4070  140.7850 O   0  0  0  0  0  1  0  0  0  0  0  0
  189.0280  173.4810  139.7500 C   0  0  0  0  0  0  0  0  0  0  0  0
  187.9720  172.6590  139.3790 O   0  0  0  0  0  1  0  0  0  0  0  0
  190.0580  173.5400  139.0280 O   0  0  0  0  0  0  0  0  0  0  0  0
  1 16  1  0  0  0  0
  1  3  1  0  0  0  0
  2  1  2  0  0  0  0
  3  4  1  0  0  0  0
  4  7  1  0  0  0  0
  5  7  2  0  0  0  0
  6  3  2  0  0  0  0
  6  5  1  0  0  0  0
  8  5  1  6  0  0  0
  8 11  1  0  0  0  0
  9 10  1  0  0  0  0
 10 11  1  0  0  0  0
 12 13  1  0  0  0  0
 13  9  1  0  0  0  0
 14 13  2  0  0  0  0
 15 10  2  0  0  0  0
 15  8  1  0  0  0  0
 16 17  1  6  0  0  0
 16 18  1  0  0  0  0
 18 20  1  0  0  0  0
 20 22  1  0  0  0  0
 20 19  1  1  0  0  0
 21 22  1  0  0  0  0
 24  2  1  0  0  0  0
 24 23  2  0  0  0  0
 25 24  1  0  0  0  0
 26 27  1  6  0  0  0
 26 25  1  0  0  0  0
 28 26  1  0  0  0  0
 29 28  1  0  0  0  0
 30 28  2  0  0  0  0
M  END
>  <MODEL>
2

>  <REMARK>
 VINA RESULT:      -6.4      1.465      2.206
  Name = 
  10 active torsions:
  status: ('A' for Active; 'I' for Inactive)
    1  A    between atoms: C_2  and  C_25
    2  A    between atoms: C_3  and  C_7
    3  A    between atoms: C_3  and  C_11
    4  A    between atoms: C_4  and  C_8
    5  A    between atoms: C_6  and  C_7
    6  A    between atoms: C_8  and  C_27
    7  A    between atoms: C_11  and  C_30
    8  A    between atoms: N_13  and  C_22
    9  A    between atoms: C_22  and  C_27
   10  A    between atoms: C_24  and  C_30
                            x       y       z     vdW  Elec       q    Type
                         _______ _______ _______ _____ _____    ______ ____

>  <TORSDO>
F 10

$$$$
=
 OpenBabel11042418293D

 30 31  0  0  1  0  0  0  0  0999 V2000
  190.8460  174.4930  143.7820 C   0  0  0  0  0  0  0  0  0  0  0  0
  190.3520  174.1080  142.6350 N   0  0  0  0  0  0  0  0  0  0  0  0
  190.0130  174.9880  144.8990 C   0  0  0  0  0  0  0  0  0  0  0  0
  189.6840  174.2110  146.1360 C   0  0  0  0  0  2  0  0  0  0  0  0
  188.5610  176.2130  146.0790 C   0  0  0  0  0  0  0  0  0  0  0  0
  189.3370  176.1270  144.8560 C   0  0  0  0  0  3  0  0  0  0  0  0
  188.7480  175.1380  146.8330 C   0  0  0  0  0  3  0  0  0  0  0  0
  187.7080  177.3950  146.4390 C   0  0  2  0  0  3  0  0  0  0  0  0
  184.5720  178.0760  145.0790 N   0  0  0  0  0  2  0  0  0  0  0  0
  185.8410  177.7740  145.6590 C   0  0  0  0  0  0  0  0  0  0  0  0
  186.2930  176.9160  147.2090 S   0  0  0  0  0  0  0  0  0  0  0  0
  183.1160  179.0040  143.3210 N   0  0  0  0  0  1  0  0  0  0  0  0
  184.4210  178.7550  143.8310 C   0  0  0  0  0  0  0  0  0  0  0  0
  185.4280  179.1350  143.1770 O   0  0  0  0  0  0  0  0  0  0  0  0
  187.1090  177.9850  145.2660 N   0  0  0  0  0  0  0  0  0  0  0  0
  192.3350  174.5420  143.9400 C   0  0  1  0  0  3  0  0  0  0  0  0
  192.9620  174.3030  142.7150 O   0  0  0  0  0  1  0  0  0  0  0  0
  192.7620  175.8940  144.4970 C   0  0  0  0  0  2  0  0  0  0  0  0
  192.6260  176.3510  146.9590 C   0  0  0  0  0  1  0  0  0  0  0  0
  193.4570  175.7390  145.8430 C   0  0  2  0  0  3  0  0  0  0  0  0
  194.8050  177.7000  146.2100 O   0  0  0  0  0  1  0  0  0  0  0  0
  194.8460  176.3630  145.8050 C   0  0  0  0  0  2  0  0  0  0  0  0
  188.3770  172.8370  142.6560 O   0  0  0  0  0  0  0  0  0  0  0  0
  188.9760  173.8860  142.2990 C   0  0  0  0  0  0  0  0  0  0  0  0
  188.2820  174.8510  141.3990 C   0  0  0  0  0  2  0  0  0  0  0  0
  187.7620  176.0400  142.1910 C   0  0  2  0  0  3  0  0  0  0  0  0
  186.4540  175.8000  142.6200 O   0  0  0  0  0  1  0  0  0  0  0  0
  187.8010  177.2760  141.3560 C   0  0  0  0  0  0  0  0  0  0  0  0
  188.6850  178.2970  141.6820 O   0  0  0  0  0  1  0  0  0  0  0  0
  187.0400  177.4020  140.3610 O   0  0  0  0  0  0  0  0  0  0  0  0
  1 16  1  0  0  0  0
  1  3  1  0  0  0  0
  2  1  2  0  0  0  0
  3  4  1  0  0  0  0
  4  7  1  0  0  0  0
  5  7  2  0  0  0  0
  6  3  2  0  0  0  0
  6  5  1  0  0  0  0
  8  5  1  6  0  0  0
  8 11  1  0  0  0  0
  9 10  1  0  0  0  0
 10 11  1  0  0  0  0
 12 13  1  0  0  0  0
 13  9  1  0  0  0  0
 14 13  2  0  0  0  0
 15 10  2  0  0  0  0
 15  8  1  0  0  0  0
 16 17  1  6  0  0  0
 16 18  1  0  0  0  0
 18 20  1  0  0  0  0
 20 19  1  1  0  0  0
 22 20  1  0  0  0  0
 22 21  1  0  0  0  0
 24  2  1  0  0  0  0
 24 23  2  0  0  0  0
 25 26  1  0  0  0  0
 25 24  1  0  0  0  0
 26 27  1  6  0  0  0
 28 29  1  0  0  0  0
 28 26  1  0  0  0  0
 30 28  2  0  0  0  0
M  END
>  <MODEL>
3

>  <REMARK>
 VINA RESULT:      -6.3      1.750      2.526
  Name = 
  10 active torsions:
  status: ('A' for Active; 'I' for Inactive)
    1  A    between atoms: C_2  and  C_25
    2  A    between atoms: C_3  and  C_7
    3  A    between atoms: C_3  and  C_11
    4  A    between atoms: C_4  and  C_8
    5  A    between atoms: C_6  and  C_7
    6  A    between atoms: C_8  and  C_27
    7  A    between atoms: C_11  and  C_30
    8  A    between atoms: N_13  and  C_22
    9  A    between atoms: C_22  and  C_27
   10  A    between atoms: C_24  and  C_30
                            x       y       z     vdW  Elec       q    Type
                         _______ _______ _______ _____ _____    ______ ____

>  <TORSDO>
F 10

$$$$
=
 OpenBabel11042418293D

 30 31  0  0  1  0  0  0  0  0999 V2000
  190.2050  176.2770  145.3250 C   0  0  0  0  0  0  0  0  0  0  0  0
  190.5950  175.7590  144.1910 N   0  0  0  0  0  0  0  0  0  0  0  0
  188.8300  176.7700  145.5610 C   0  0  0  0  0  0  0  0  0  0  0  0
  187.8420  176.1450  146.4950 C   0  0  0  0  0  2  0  0  0  0  0  0
  186.8960  177.8620  145.3000 C   0  0  0  0  0  0  0  0  0  0  0  0
  188.2700  177.7390  144.8510 C   0  0  0  0  0  3  0  0  0  0  0  0
  186.6270  176.9710  146.2470 C   0  0  0  0  0  3  0  0  0  0  0  0
  185.9440  178.9000  144.7820 C   0  0  2  0  0  3  0  0  0  0  0  0
  183.3640  178.2840  142.5200 N   0  0  0  0  0  2  0  0  0  0  0  0
  184.4000  178.5250  143.4730 C   0  0  0  0  0  0  0  0  0  0  0  0
  184.3720  178.6010  145.3000 S   0  0  0  0  0  0  0  0  0  0  0  0
  182.4990  177.9900  140.2310 N   0  0  0  0  0  1  0  0  0  0  0  0
  183.5880  178.2490  141.1090 C   0  0  0  0  0  0  0  0  0  0  0  0
  184.7390  178.4450  140.6340 O   0  0  0  0  0  0  0  0  0  0  0  0
  185.7210  178.7450  143.3650 N   0  0  0  0  0  0  0  0  0  0  0  0
  191.2220  176.4880  146.4040 C   0  0  1  0  0  3  0  0  0  0  0  0
  190.6510  177.1610  147.4870 O   0  0  0  0  0  1  0  0  0  0  0  0
  191.7960  175.1520  146.8570 C   0  0  0  0  0  2  0  0  0  0  0  0
  193.8670  176.4220  146.2360 C   0  0  0  0  0  1  0  0  0  0  0  0
  193.2800  175.0510  146.5280 C   0  0  2  0  0  3  0  0  0  0  0  0
  193.9990  172.8760  145.7880 O   0  0  0  0  0  1  0  0  0  0  0  0
  193.5070  174.1090  145.3530 C   0  0  0  0  0  2  0  0  0  0  0  0
  189.5930  176.1590  142.1060 O   0  0  0  0  0  0  0  0  0  0  0  0
  189.7840  175.3750  143.0730 C   0  0  0  0  0  0  0  0  0  0  0  0
  189.0490  174.0790  143.1170 C   0  0  0  0  0  2  0  0  0  0  0  0
  190.0010  172.9170  142.8740 C   0  0  2  0  0  3  0  0  0  0  0  0
  189.4100  171.9780  142.0250 O   0  0  0  0  0  1  0  0  0  0  0  0
  190.3680  172.2690  144.1670 C   0  0  0  0  0  0  0  0  0  0  0  0
  191.4420  171.3910  144.2140 O   0  0  0  0  0  0  0  0  0  0  0  0
  189.7120  172.5130  145.2140 O   0  0  0  0  0  1  0  0  0  0  0  0
  1  3  1  0  0  0  0
  1 16  1  0  0  0  0
  2  1  2  0  0  0  0
  3  4  1  0  0  0  0
  5  7  2  0  0  0  0
  6  5  1  0  0  0  0
  6  3  2  0  0  0  0
  7  4  1  0  0  0  0
  8 11  1  0  0  0  0
  8  5  1  1  0  0  0
  9 10  1  0  0  0  0
 10 11  1  0  0  0  0
 12 13  1  0  0  0  0
 13  9  1  0  0  0  0
 14 13  2  0  0  0  0
 15 10  2  0  0  0  0
 15  8  1  0  0  0  0
 16 18  1  0  0  0  0
 16 17  1  1  0  0  0
 20 19  1  6  0  0  0
 20 18  1  0  0  0  0
 22 21  1  0  0  0  0
 22 20  1  0  0  0  0
 23 24  2  0  0  0  0
 24 25  1  0  0  0  0
 24  2  1  0  0  0  0
 26 27  1  6  0  0  0
 26 25  1  0  0  0  0
 26 28  1  0  0  0  0
 28 29  2  0  0  0  0
 28 30  1  0  0  0  0
M  END
>  <MODEL>
4

>  <REMARK>
 VINA RESULT:      -6.3      1.259      2.197
  Name = 
  10 active torsions:
  status: ('A' for Active; 'I' for Inactive)
    1  A    between atoms: C_2  and  C_25
    2  A    between atoms: C_3  and  C_7
    3  A    between atoms: C_3  and  C_11
    4  A    between atoms: C_4  and  C_8
    5  A    between atoms: C_6  and  C_7
    6  A    between atoms: C_8  and  C_27
    7  A    between atoms: C_11  and  C_30
    8  A    between atoms: N_13  and  C_22
    9  A    between atoms: C_22  and  C_27
   10  A    between atoms: C_24  and  C_30
                            x       y       z     vdW  Elec       q    Type
                         _______ _______ _______ _____ _____    ______ ____

>  <TORSDO>
F 10

$$$$
=
 OpenBabel11042418293D

 30 31  0  0  1  0  0  0  0  0999 V2000
  188.2130  176.3630  144.5340 C   0  0  0  0  0  0  0  0  0  0  0  0
  188.0180  175.7950  143.3740 N   0  0  0  0  0  0  0  0  0  0  0  0
  189.3070  175.9770  145.4520 C   0  0  0  0  0  0  0  0  0  0  0  0
  189.1250  175.2610  146.7540 C   0  0  0  0  0  2  0  0  0  0  0  0
  191.3120  175.8840  146.4390 C   0  0  0  0  0  0  0  0  0  0  0  0
  190.5650  176.3630  145.2910 C   0  0  0  0  0  3  0  0  0  0  0  0
  190.5170  175.2420  147.2850 C   0  0  0  0  0  3  0  0  0  0  0  0
  192.7940  176.0620  146.5960 C   0  0  2  0  0  3  0  0  0  0  0  0
  195.2050  174.5900  144.5540 N   0  0  0  0  0  2  0  0  0  0  0  0
  194.2130  175.2190  145.3660 C   0  0  0  0  0  0  0  0  0  0  0  0
  193.4550  176.8800  145.2840 S   0  0  0  0  0  0  0  0  0  0  0  0
  196.6510  172.7030  143.9060 N   0  0  0  0  0  1  0  0  0  0  0  0
  195.6670  173.2560  144.7720 C   0  0  0  0  0  0  0  0  0  0  0  0
  195.2140  172.5630  145.7220 O   0  0  0  0  0  0  0  0  0  0  0  0
  193.4930  174.8110  146.4250 N   0  0  0  0  0  0  0  0  0  0  0  0
  187.2190  177.3770  145.0120 C   0  0  1  0  0  3  0  0  0  0  0  0
  186.9790  178.3280  144.0190 O   0  0  0  0  0  1  0  0  0  0  0  0
  185.9190  176.6920  145.4130 C   0  0  0  0  0  2  0  0  0  0  0  0
  184.2250  178.3410  146.2510 C   0  0  0  0  0  1  0  0  0  0  0  0
  185.3090  177.3500  146.6440 C   0  0  2  0  0  3  0  0  0  0  0  0
  186.0350  179.3590  147.7540 O   0  0  0  0  0  1  0  0  0  0  0  0
  186.3850  178.0350  147.4760 C   0  0  0  0  0  2  0  0  0  0  0  0
  189.8100  175.3080  141.9370 O   0  0  0  0  0  0  0  0  0  0  0  0
  188.8840  174.8880  142.6800 C   0  0  0  0  0  0  0  0  0  0  0  0
  188.6000  173.4250  142.7330 C   0  0  0  0  0  2  0  0  0  0  0  0
  189.8950  172.6340  142.8380 C   0  0  2  0  0  3  0  0  0  0  0  0
  189.7280  171.3600  142.2900 O   0  0  0  0  0  1  0  0  0  0  0  0
  190.3170  172.5190  144.2640 C   0  0  0  0  0  0  0  0  0  0  0  0
  191.6200  172.8390  144.6220 O   0  0  0  0  0  0  0  0  0  0  0  0
  189.5030  172.1340  145.1450 O   0  0  0  0  0  1  0  0  0  0  0  0
  1 16  1  0  0  0  0
  1  3  1  0  0  0  0
  2  1  2  0  0  0  0
  3  4  1  0  0  0  0
  4  7  1  0  0  0  0
  5  7  2  0  0  0  0
  6  3  2  0  0  0  0
  6  5  1  0  0  0  0
  8  5  1  6  0  0  0
  9 13  1  0  0  0  0
  9 10  1  0  0  0  0
 10 15  2  0  0  0  0
 11 10  1  0  0  0  0
 11  8  1  0  0  0  0
 12 13  1  0  0  0  0
 13 14  2  0  0  0  0
 15  8  1  0  0  0  0
 16 17  1  6  0  0  0
 16 18  1  0  0  0  0
 18 20  1  0  0  0  0
 20 19  1  6  0  0  0
 20 22  1  0  0  0  0
 22 21  1  0  0  0  0
 23 24  2  0  0  0  0
 24 25  1  0  0  0  0
 24  2  1  0  0  0  0
 25 26  1  0  0  0  0
 26 27  1  1  0  0  0
 26 28  1  0  0  0  0
 28 29  2  0  0  0  0
 28 30  1  0  0  0  0
M  END
>  <MODEL>
5

>  <REMARK>
 VINA RESULT:      -6.2      3.068      7.447
  Name = 
  10 active torsions:
  status: ('A' for Active; 'I' for Inactive)
    1  A    between atoms: C_2  and  C_25
    2  A    between atoms: C_3  and  C_7
    3  A    between atoms: C_3  and  C_11
    4  A    between atoms: C_4  and  C_8
    5  A    between atoms: C_6  and  C_7
    6  A    between atoms: C_8  and  C_27
    7  A    between atoms: C_11  and  C_30
    8  A    between atoms: N_13  and  C_22
    9  A    between atoms: C_22  and  C_27
   10  A    between atoms: C_24  and  C_30
                            x       y       z     vdW  Elec       q    Type
                         _______ _______ _______ _____ _____    ______ ____

>  <TORSDO>
F 10

$$$$
=
 OpenBabel11042418293D

 30 31  0  0  1  0  0  0  0  0999 V2000
  190.7690  174.0770  144.7910 C   0  0  0  0  0  0  0  0  0  0  0  0
  192.0620  174.2070  144.9260 N   0  0  0  0  0  0  0  0  0  0  0  0
  189.7890  174.8710  145.5640 C   0  0  0  0  0  0  0  0  0  0  0  0
  189.3140  174.5420  146.9450 C   0  0  0  0  0  2  0  0  0  0  0  0
  188.1740  176.3330  146.0710 C   0  0  0  0  0  0  0  0  0  0  0  0
  189.1050  175.8850  145.0520 C   0  0  0  0  0  3  0  0  0  0  0  0
  188.2790  175.5920  147.1660 C   0  0  0  0  0  3  0  0  0  0  0  0
  187.2620  177.5130  145.8990 C   0  0  2  0  0  3  0  0  0  0  0  0
  184.7760  177.7710  143.4700 N   0  0  0  0  0  2  0  0  0  0  0  0
  185.7720  177.6460  144.4850 C   0  0  0  0  0  0  0  0  0  0  0  0
  185.6650  177.1040  146.2280 S   0  0  0  0  0  0  0  0  0  0  0  0
  184.0090  178.2910  141.1860 N   0  0  0  0  0  1  0  0  0  0  0  0
  185.0620  178.2060  142.1390 C   0  0  0  0  0  0  0  0  0  0  0  0
  186.2350  178.5170  141.8000 O   0  0  0  0  0  0  0  0  0  0  0  0
  187.1000  177.8510  144.5050 N   0  0  0  0  0  0  0  0  0  0  0  0
  190.2470  172.9970  143.8940 C   0  0  1  0  0  3  0  0  0  0  0  0
  188.9840  172.5800  144.3180 O   0  0  0  0  0  1  0  0  0  0  0  0
  190.1850  173.4910  142.4550 C   0  0  0  0  0  2  0  0  0  0  0  0
  188.6320  172.6850  140.6570 C   0  0  0  0  0  1  0  0  0  0  0  0
  188.7520  173.4960  141.9370 C   0  0  2  0  0  3  0  0  0  0  0  0
  187.0650  175.1530  142.3900 O   0  0  0  0  0  1  0  0  0  0  0  0
  188.2660  174.9230  141.7140 C   0  0  0  0  0  2  0  0  0  0  0  0
  192.8810  175.1910  146.8950 O   0  0  0  0  0  0  0  0  0  0  0  0
  192.7750  175.2250  145.6400 C   0  0  0  0  0  0  0  0  0  0  0  0
  193.2860  176.4130  144.8980 C   0  0  0  0  0  2  0  0  0  0  0  0
  194.7640  176.6280  145.1870 C   0  0  2  0  0  3  0  0  0  0  0  0
  194.9760  177.9150  145.6880 O   0  0  0  0  0  1  0  0  0  0  0  0
  195.5690  176.4290  143.9470 C   0  0  0  0  0  0  0  0  0  0  0  0
  195.1910  175.4540  143.0330 O   0  0  0  0  0  0  0  0  0  0  0  0
  196.5870  177.1350  143.7240 O   0  0  0  0  0  1  0  0  0  0  0  0
  1  2  2  0  0  0  0
  1  3  1  0  0  0  0
  2 24  1  0  0  0  0
  3  4  1  0  0  0  0
  4  7  1  0  0  0  0
  5  7  2  0  0  0  0
  6  3  2  0  0  0  0
  6  5  1  0  0  0  0
  8  5  1  6  0  0  0
  8 11  1  0  0  0  0
  9 10  1  0  0  0  0
 10 15  2  0  0  0  0
 10 11  1  0  0  0  0
 12 13  1  0  0  0  0
 13  9  1  0  0  0  0
 14 13  2  0  0  0  0
 15  8  1  0  0  0  0
 16 17  1  1  0  0  0
 16  1  1  0  0  0  0
 18 16  1  0  0  0  0
 20 19  1  6  0  0  0
 20 18  1  0  0  0  0
 22 20  1  0  0  0  0
 22 21  1  0  0  0  0
 24 23  2  0  0  0  0
 25 26  1  0  0  0  0
 25 24  1  0  0  0  0
 26 27  1  6  0  0  0
 28 26  1  0  0  0  0
 29 28  2  0  0  0  0
 30 28  1  0  0  0  0
M  END
>  <MODEL>
6

>  <REMARK>
 VINA RESULT:      -6.1      1.677      5.122
  Name = 
  10 active torsions:
  status: ('A' for Active; 'I' for Inactive)
    1  A    between atoms: C_2  and  C_25
    2  A    between atoms: C_3  and  C_7
    3  A    between atoms: C_3  and  C_11
    4  A    between atoms: C_4  and  C_8
    5  A    between atoms: C_6  and  C_7
    6  A    between atoms: C_8  and  C_27
    7  A    between atoms: C_11  and  C_30
    8  A    between atoms: N_13  and  C_22
    9  A    between atoms: C_22  and  C_27
   10  A    between atoms: C_24  and  C_30
                            x       y       z     vdW  Elec       q    Type
                         _______ _______ _______ _____ _____    ______ ____

>  <TORSDO>
F 10

$$$$
=
 OpenBabel11042418293D

 30 31  0  0  1  0  0  0  0  0999 V2000
  188.5750  176.5640  145.2240 C   0  0  0  0  0  0  0  0  0  0  0  0
  187.3960  176.4570  144.6730 N   0  0  0  0  0  0  0  0  0  0  0  0
  189.8140  176.8000  144.4510 C   0  0  0  0  0  0  0  0  0  0  0  0
  190.3880  178.1460  144.1360 C   0  0  0  0  0  2  0  0  0  0  0  0
  191.5580  176.4710  143.0900 C   0  0  0  0  0  0  0  0  0  0  0  0
  190.4730  175.8400  143.8180 C   0  0  0  0  0  3  0  0  0  0  0  0
  191.5390  177.7860  143.2620 C   0  0  0  0  0  3  0  0  0  0  0  0
  192.5780  175.7070  142.2970 C   0  0  2  0  0  3  0  0  0  0  0  0
  195.4890  174.3140  143.6150 N   0  0  0  0  0  2  0  0  0  0  0  0
  194.2780  174.8560  143.0860 C   0  0  0  0  0  0  0  0  0  0  0  0
  192.6440  174.0970  142.7750 S   0  0  0  0  0  0  0  0  0  0  0  0
  197.8380  174.4640  144.3440 N   0  0  0  0  0  1  0  0  0  0  0  0
  196.6790  175.0830  143.7990 C   0  0  0  0  0  0  0  0  0  0  0  0
  196.7140  176.3030  143.4840 O   0  0  0  0  0  0  0  0  0  0  0  0
  193.9200  176.0830  142.6710 N   0  0  0  0  0  0  0  0  0  0  0  0
  188.7010  176.3270  146.6980 C   0  0  1  0  0  3  0  0  0  0  0  0
  187.4400  176.1590  147.2740 O   0  0  0  0  0  1  0  0  0  0  0  0
  189.5690  175.1050  146.9640 C   0  0  0  0  0  2  0  0  0  0  0  0
  190.9010  176.9850  147.9560 C   0  0  0  0  0  1  0  0  0  0  0  0
  190.8520  175.4890  147.6900 C   0  0  2  0  0  3  0  0  0  0  0  0
  192.8270  176.1470  146.4800 O   0  0  0  0  0  1  0  0  0  0  0  0
  192.0730  175.0460  146.8940 C   0  0  0  0  0  2  0  0  0  0  0  0
  186.9130  175.8200  142.4650 O   0  0  0  0  0  0  0  0  0  0  0  0
  187.0280  176.7410  143.3170 C   0  0  0  0  0  0  0  0  0  0  0  0
  186.9090  178.1600  142.8760 C   0  0  0  0  0  2  0  0  0  0  0  0
  185.4550  178.6060  142.8980 C   0  0  2  0  0  3  0  0  0  0  0  0
  184.7680  177.9590  143.9280 O   0  0  0  0  0  1  0  0  0  0  0  0
  184.8020  178.3100  141.5900 C   0  0  0  0  0  0  0  0  0  0  0  0
  185.5500  178.3680  140.4210 O   0  0  0  0  0  0  0  0  0  0  0  0
  183.5810  178.0090  141.5370 O   0  0  0  0  0  1  0  0  0  0  0  0
  1 16  1  0  0  0  0
  2  1  2  0  0  0  0
  3  1  1  0  0  0  0
  4  3  1  0  0  0  0
  5  7  2  0  0  0  0
  5  6  1  0  0  0  0
  6  3  2  0  0  0  0
  7  4  1  0  0  0  0
  8 15  1  0  0  0  0
  8 11  1  0  0  0  0
  8  5  1  1  0  0  0
  9 13  1  0  0  0  0
 10  9  1  0  0  0  0
 11 10  1  0  0  0  0
 13 12  1  0  0  0  0
 14 13  2  0  0  0  0
 15 10  2  0  0  0  0
 16 18  1  0  0  0  0
 16 17  1  6  0  0  0
 18 20  1  0  0  0  0
 20 19  1  6  0  0  0
 21 22  1  0  0  0  0
 22 20  1  0  0  0  0
 23 24  2  0  0  0  0
 24  2  1  0  0  0  0
 25 26  1  0  0  0  0
 25 24  1  0  0  0  0
 26 27  1  1  0  0  0
 28 26  1  0  0  0  0
 29 28  2  0  0  0  0
 30 28  1  0  0  0  0
M  END
>  <MODEL>
7

>  <REMARK>
 VINA RESULT:      -6.1      3.095      6.769
  Name = 
  10 active torsions:
  status: ('A' for Active; 'I' for Inactive)
    1  A    between atoms: C_2  and  C_25
    2  A    between atoms: C_3  and  C_7
    3  A    between atoms: C_3  and  C_11
    4  A    between atoms: C_4  and  C_8
    5  A    between atoms: C_6  and  C_7
    6  A    between atoms: C_8  and  C_27
    7  A    between atoms: C_11  and  C_30
    8  A    between atoms: N_13  and  C_22
    9  A    between atoms: C_22  and  C_27
   10  A    between atoms: C_24  and  C_30
                            x       y       z     vdW  Elec       q    Type
                         _______ _______ _______ _____ _____    ______ ____

>  <TORSDO>
F 10

$$$$
=
 OpenBabel11042418293D

 30 31  0  0  1  0  0  0  0  0999 V2000
  190.1330  176.0620  144.6280 C   0  0  0  0  0  0  0  0  0  0  0  0
  190.1050  175.7650  145.9000 N   0  0  0  0  0  0  0  0  0  0  0  0
  188.9190  176.3640  143.8380 C   0  0  0  0  0  0  0  0  0  0  0  0
  188.1800  175.3790  142.9870 C   0  0  0  0  0  3  0  0  0  0  0  0
  187.3190  177.4950  142.7590 C   0  0  0  0  0  0  0  0  0  0  0  0
  188.4380  177.5890  143.6780 C   0  0  0  0  0  2  0  0  0  0  0  0
  187.1420  176.2430  142.3570 C   0  0  0  0  0  3  0  0  0  0  0  0
  186.4630  178.6660  142.3740 C   0  0  2  0  0  3  0  0  0  0  0  0
  182.9770  178.6560  142.3360 N   0  0  0  0  0  2  0  0  0  0  0  0
  184.4040  178.6660  142.3870 C   0  0  0  0  0  0  0  0  0  0  0  0
  185.5670  179.2250  143.6820 S   0  0  0  0  0  0  0  0  0  0  0  0
  180.8130  178.1750  141.2600 N   0  0  0  0  0  1  0  0  0  0  0  0
  182.2350  178.1580  141.2210 C   0  0  0  0  0  0  0  0  0  0  0  0
  182.8250  177.7030  140.2050 O   0  0  0  0  0  0  0  0  0  0  0  0
  185.3610  178.2550  141.5370 N   0  0  0  0  0  0  0  0  0  0  0  0
  191.4420  175.9850  143.9030 C   0  0  1  0  0  3  0  0  0  0  0  0
  191.2980  176.4370  142.5900 O   0  0  0  0  0  1  0  0  0  0  0  0
  192.4970  176.8070  144.6320 C   0  0  0  0  0  2  0  0  0  0  0  0
  193.9670  176.0400  146.5130 C   0  0  0  0  0  1  0  0  0  0  0  0
  193.6920  175.9470  145.0210 C   0  0  2  0  0  3  0  0  0  0  0  0
  194.7690  176.0410  142.8690 O   0  0  0  0  0  1  0  0  0  0  0  0
  194.9260  176.3500  144.2230 C   0  0  0  0  0  2  0  0  0  0  0  0
  188.5670  174.8670  147.4310 O   0  0  0  0  0  0  0  0  0  0  0  0
  188.9970  175.8720  146.8050 C   0  0  0  0  0  0  0  0  0  0  0  0
  188.2600  177.1640  146.9050 C   0  0  0  0  0  2  0  0  0  0  0  0
  186.7820  176.9150  147.1660 C   0  0  2  0  0  3  0  0  0  0  0  0
  186.1560  176.4570  146.0040 O   0  0  0  0  0  1  0  0  0  0  0  0
  186.1210  178.1680  147.6360 C   0  0  0  0  0  0  0  0  0  0  0  0
  184.8000  178.4190  147.2880 O   0  0  0  0  0  0  0  0  0  0  0  0
  186.7510  178.9980  148.3430 O   0  0  0  0  0  1  0  0  0  0  0  0
  1  2  2  0  0  0  0
  2 24  1  0  0  0  0
  3  1  1  0  0  0  0
  4  3  2  0  0  0  0
  5  6  1  0  0  0  0
  6  3  1  0  0  0  0
  7  5  2  0  0  0  0
  7  4  1  0  0  0  0
  8  5  1  1  0  0  0
  8 11  1  0  0  0  0
  9 10  1  0  0  0  0
 10 11  1  0  0  0  0
 13 12  1  0  0  0  0
 13  9  1  0  0  0  0
 14 13  2  0  0  0  0
 15  8  1  0  0  0  0
 15 10  2  0  0  0  0
 16 17  1  6  0  0  0
 16  1  1  0  0  0  0
 16 18  1  0  0  0  0
 18 20  1  0  0  0  0
 20 19  1  1  0  0  0
 21 22  1  0  0  0  0
 22 20  1  0  0  0  0
 24 25  1  0  0  0  0
 24 23  2  0  0  0  0
 25 26  1  0  0  0  0
 26 27  1  6  0  0  0
 26 28  1  0  0  0  0
 28 30  1  0  0  0  0
 29 28  2  0  0  0  0
M  END
>  <MODEL>
8

>  <REMARK>
 VINA RESULT:      -6.1      2.378      3.718
  Name = 
  10 active torsions:
  status: ('A' for Active; 'I' for Inactive)
    1  A    between atoms: C_2  and  C_25
    2  A    between atoms: C_3  and  C_7
    3  A    between atoms: C_3  and  C_11
    4  A    between atoms: C_4  and  C_8
    5  A    between atoms: C_6  and  C_7
    6  A    between atoms: C_8  and  C_27
    7  A    between atoms: C_11  and  C_30
    8  A    between atoms: N_13  and  C_22
    9  A    between atoms: C_22  and  C_27
   10  A    between atoms: C_24  and  C_30
                            x       y       z     vdW  Elec       q    Type
                         _______ _______ _______ _____ _____    ______ ____

>  <TORSDO>
F 10

$$$$
=
 OpenBabel11042418293D

 30 31  0  0  1  0  0  0  0  0999 V2000
  188.3830  176.8860  144.8910 C   0  0  0  0  0  0  0  0  0  0  0  0
  189.4570  177.4420  145.3850 N   0  0  0  0  0  0  0  0  0  0  0  0
  188.2920  176.3880  143.5010 C   0  0  0  0  0  0  0  0  0  0  0  0
  187.7570  177.1680  142.3410 C   0  0  0  0  0  3  0  0  0  0  0  0
  188.2380  175.0040  141.7450 C   0  0  0  0  0  0  0  0  0  0  0  0
  188.5380  175.1310  143.1590 C   0  0  0  0  0  2  0  0  0  0  0  0
  187.8010  176.1540  141.2500 C   0  0  0  0  0  3  0  0  0  0  0  0
  188.4530  173.7410  140.9630 C   0  0  2  0  0  3  0  0  0  0  0  0
  190.7220  173.3840  138.3410 N   0  0  0  0  0  2  0  0  0  0  0  0
  189.8190  173.5250  139.4380 C   0  0  0  0  0  0  0  0  0  0  0  0
  189.9960  173.1220  141.2130 S   0  0  0  0  0  0  0  0  0  0  0  0
  191.3660  173.6100  135.9730 N   0  0  0  0  0  1  0  0  0  0  0  0
  190.4010  173.7760  137.0050 C   0  0  0  0  0  0  0  0  0  0  0  0
  189.2730  174.2660  136.7300 O   0  0  0  0  0  0  0  0  0  0  0  0
  188.5730  174.0140  139.5510 N   0  0  0  0  0  0  0  0  0  0  0  0
  187.1440  176.8500  145.7330 C   0  0  1  0  0  3  0  0  0  0  0  0
  187.4150  176.2680  146.9730 O   0  0  0  0  0  1  0  0  0  0  0  0
  186.5900  178.2560  145.9190 C   0  0  0  0  0  2  0  0  0  0  0  0
  185.5510  179.6770  144.1320 C   0  0  0  0  0  1  0  0  0  0  0  0
  185.3590  178.4810  145.0510 C   0  0  2  0  0  3  0  0  0  0  0  0
  184.4310  178.5390  147.2720 O   0  0  0  0  0  1  0  0  0  0  0  0
  184.1190  178.6650  145.9160 C   0  0  0  0  0  2  0  0  0  0  0  0
  191.0340  178.2870  143.8640 O   0  0  0  0  0  0  0  0  0  0  0  0
  190.7670  177.4940  144.8060 C   0  0  0  0  0  0  0  0  0  0  0  0
  191.7930  176.5020  145.2350 C   0  0  0  0  0  2  0  0  0  0  0  0
  193.1400  176.8170  144.6010 C   0  0  2  0  0  3  0  0  0  0  0  0
  193.4610  175.8500  143.6450 O   0  0  0  0  0  1  0  0  0  0  0  0
  194.2040  176.8710  145.6440 C   0  0  0  0  0  0  0  0  0  0  0  0
  194.3900  175.7870  146.4920 O   0  0  0  0  0  1  0  0  0  0  0  0
  194.9340  177.8900  145.7630 O   0  0  0  0  0  0  0  0  0  0  0  0
  1  2  2  0  0  0  0
  1 16  1  0  0  0  0
  3  1  1  0  0  0  0
  4  3  2  0  0  0  0
  5  6  1  0  0  0  0
  6  3  1  0  0  0  0
  7  5  2  0  0  0  0
  7  4  1  0  0  0  0
  8 11  1  0  0  0  0
  8  5  1  1  0  0  0
  9 10  1  0  0  0  0
 10 15  2  0  0  0  0
 10 11  1  0  0  0  0
 12 13  1  0  0  0  0
 13  9  1  0  0  0  0
 14 13  2  0  0  0  0
 15  8  1  0  0  0  0
 16 18  1  0  0  0  0
 16 17  1  1  0  0  0
 20 19  1  1  0  0  0
 20 22  1  0  0  0  0
 20 18  1  0  0  0  0
 22 21  1  0  0  0  0
 23 24  2  0  0  0  0
 24 25  1  0  0  0  0
 24  2  1  0  0  0  0
 26 27  1  6  0  0  0
 26 25  1  0  0  0  0
 26 28  1  0  0  0  0
 28 30  2  0  0  0  0
 28 29  1  0  0  0  0
M  END
>  <MODEL>
9

>  <REMARK>
 VINA RESULT:      -6.1      3.627      7.060
  Name = 
  10 active torsions:
  status: ('A' for Active; 'I' for Inactive)
    1  A    between atoms: C_2  and  C_25
    2  A    between atoms: C_3  and  C_7
    3  A    between atoms: C_3  and  C_11
    4  A    between atoms: C_4  and  C_8
    5  A    between atoms: C_6  and  C_7
    6  A    between atoms: C_8  and  C_27
    7  A    between atoms: C_11  and  C_30
    8  A    between atoms: N_13  and  C_22
    9  A    between atoms: C_22  and  C_27
   10  A    between atoms: C_24  and  C_30
                            x       y       z     vdW  Elec       q    Type
                         _______ _______ _______ _____ _____    ______ ____

>  <TORSDO>
F 10

$$$$
