=
 OpenBabel11042414263D

 41 44  0  0  1  0  0  0  0  0999 V2000
  188.7630  176.0000  146.3050 C   0  0  1  0  0  3  0  0  0  0  0  0
  189.4730  176.5000  145.0750 C   0  0  0  0  0  0  0  0  0  0  0  0
  191.1110  177.1090  142.8540 C   0  0  0  0  0  2  0  0  0  0  0  0
  191.0620  178.0350  144.0620 C   0  0  0  0  0  2  0  0  0  0  0  0
  190.3770  177.4210  145.1870 N   0  0  0  0  0  0  0  0  0  0  0  0
  189.6880  176.6650  142.5540 C   0  0  0  0  0  2  0  0  0  0  0  0
  189.1210  175.8800  143.7380 C   0  0  1  0  0  3  0  0  0  0  0  0
  189.6180  174.4440  143.6900 C   0  0  0  0  0  2  0  0  0  0  0  0
  189.0560  171.8520  142.7430 O   0  0  0  0  0  0  0  0  0  0  0  0
  189.7910  174.0220  142.3090 N   0  0  0  0  0  2  0  0  0  0  0  0
  189.4240  172.7060  141.8930 C   0  0  0  0  0  0  0  0  0  0  0  0
  190.7350  172.9340  139.8070 C   0  0  0  0  0  2  0  0  0  0  0  0
  190.5320  172.8830  138.3060 C   0  0  1  0  0  3  0  0  0  0  0  0
  189.4990  172.3420  140.4480 C   0  0  2  0  0  3  0  0  0  0  0  0
  188.7560  173.0970  137.9520 S   0  0  0  0  0  0  0  0  0  0  0  0
  188.2940  172.8800  139.7000 C   0  0  0  0  0  2  0  0  0  0  0  0
  191.3400  173.9820  137.6370 C   0  0  0  0  0  2  0  0  0  0  0  0
  193.5920  173.4300  137.4070 C   0  0  0  0  0  1  0  0  0  0  0  0
  192.6460  174.1090  138.2700 N   0  0  0  0  0  2  0  0  0  0  0  0
  189.5900  174.9660  147.0650 C   0  0  0  0  0  2  0  0  0  0  0  0
  190.7190  175.6150  147.8540 C   0  0  0  0  0  2  0  0  0  0  0  0
  191.9480  174.9470  147.5970 O   0  0  0  0  0  0  0  0  0  0  0  0
  195.4410  176.2640  143.3540 N   0  0  0  0  0  2  0  0  0  0  0  0
  195.8430  175.4820  142.1830 C   0  0  2  0  0  3  0  0  0  0  0  0
  196.1840  174.0760  142.5730 C   0  0  0  0  0  3  0  0  0  0  0  0
  195.2200  173.2170  142.9080 C   0  0  0  0  0  3  0  0  0  0  0  0
  197.0040  176.0980  141.5700 N   0  0  0  0  0  1  0  0  0  0  0  0
  193.5420  176.4170  146.5490 C   0  0  0  0  0  3  0  0  0  0  0  0
  194.4580  175.9220  144.3490 C   0  0  0  0  0  0  0  0  0  0  0  0
  192.8100  174.4390  145.3650 C   0  0  0  0  0  3  0  0  0  0  0  0
  194.3870  176.7370  145.4860 C   0  0  0  0  0  3  0  0  0  0  0  0
  192.7610  175.2590  146.5030 C   0  0  0  0  0  0  0  0  0  0  0  0
  193.6360  174.7630  144.2810 C   0  0  0  0  0  0  0  0  0  0  0  0
  193.5040  173.7310  142.8160 S   0  0  0  0  0  0  0  0  0  0  0  0
  188.4710  177.0830  147.1450 O   0  0  0  0  0  0  0  0  0  0  0  0
  187.3690  177.7270  146.5640 C   0  0  0  0  0  2  0  0  0  0  0  0
  186.2260  176.7470  146.3410 C   0  0  0  0  0  2  0  0  0  0  0  0
  185.4760  177.0750  145.0550 C   0  0  0  0  0  2  0  0  0  0  0  0
  186.1720  178.1950  144.2940 C   0  0  0  0  0  2  0  0  0  0  0  0
  185.2480  178.8440  143.3160 C   0  0  0  0  0  3  0  0  0  0  0  0
  184.0590  178.3960  143.1610 N   0  0  0  0  0  2  0  0  0  0  0  0
  1 20  1  1  0  0  0
  1 35  1  0  0  0  0
  2  5  2  0  0  0  0
  2  1  1  0  0  0  0
  3  4  1  0  0  0  0
  4  5  1  0  0  0  0
  6  3  1  0  0  0  0
  6  7  1  0  0  0  0
  7  8  1  1  0  0  0
  7  2  1  0  0  0  0
 10  8  1  0  0  0  0
 11 10  1  0  0  0  0
 11  9  2  0  0  0  0
 12 14  1  0  0  0  0
 13 17  1  6  0  0  0
 13 12  1  0  0  0  0
 14 11  1  1  0  0  0
 15 13  1  0  0  0  0
 15 16  1  0  0  0  0
 16 14  1  0  0  0  0
 17 19  1  0  0  0  0
 18 19  1  0  0  0  0
 20 21  1  0  0  0  0
 22 21  1  0  0  0  0
 23 29  1  0  0  0  0
 24 27  1  1  0  0  0
 24 25  1  0  0  0  0
 24 23  1  0  0  0  0
 25 26  2  0  0  0  0
 29 31  1  0  0  0  0
 30 32  2  0  0  0  0
 31 28  2  0  0  0  0
 32 28  1  0  0  0  0
 32 22  1  0  0  0  0
 33 29  2  0  0  0  0
 33 30  1  0  0  0  0
 34 26  1  0  0  0  0
 34 33  1  0  0  0  0
 36 35  1  0  0  0  0
 37 36  1  0  0  0  0
 38 37  1  0  0  0  0
 39 38  1  0  0  0  0
 40 39  1  0  0  0  0
 41 40  2  0  0  0  0
M  END
>  <MODEL>
1

>  <REMARK>
 VINA RESULT:      -6.2      0.000      0.000
  Name = 
  16 active torsions:
  status: ('A' for Active; 'I' for Inactive)
    1  A    between atoms: O_2  and  C_32
    2  A    between atoms: O_2  and  C_39
    3  A    between atoms: C_7  and  C_9
    4  A    between atoms: C_8  and  C_12
    5  A    between atoms: C_8  and  C_39
    6  A    between atoms: C_9  and  N_14
    7  A    between atoms: C_10  and  C_39
    8  A    between atoms: C_12  and  O_40
    9  A    between atoms: C_13  and  C_17
   10  A    between atoms: C_16  and  C_38
   11  A    between atoms: C_17  and  C_33
   12  A    between atoms: C_24  and  C_32
   13  A    between atoms: C_24  and  C_33
   14  A    between atoms: N_27  and  C_34
   15  A    between atoms: C_29  and  O_40
   16  A    between atoms: C_34  and  C_37
                            x       y       z     vdW  Elec       q    Type
                         _______ _______ _______ _____ _____    ______ ____

>  <TORSDO>
F 16

$$$$
=
 OpenBabel11042414263D

 41 44  0  0  1  0  0  0  0  0999 V2000
  186.3770  177.7190  142.9910 C   0  0  1  0  0  3  0  0  0  0  0  0
  186.2660  177.5630  144.4840 C   0  0  0  0  0  0  0  0  0  0  0  0
  186.1100  176.8240  147.2070 C   0  0  0  0  0  2  0  0  0  0  0  0
  184.8700  177.2860  146.4550 C   0  0  0  0  0  2  0  0  0  0  0  0
  185.1040  177.3660  145.0230 N   0  0  0  0  0  0  0  0  0  0  0  0
  187.2590  177.7370  146.8100 C   0  0  0  0  0  2  0  0  0  0  0  0
  187.5340  177.6150  145.3100 C   0  0  1  0  0  3  0  0  0  0  0  0
  188.3760  176.3770  145.0400 C   0  0  0  0  0  2  0  0  0  0  0  0
  190.2740  175.4610  146.9070 O   0  0  0  0  0  0  0  0  0  0  0  0
  189.7870  176.7300  145.0120 N   0  0  0  0  0  2  0  0  0  0  0  0
  190.7000  176.1740  145.9600 C   0  0  0  0  0  0  0  0  0  0  0  0
  192.6140  176.3110  144.3970 C   0  0  0  0  0  2  0  0  0  0  0  0
  194.1250  176.2040  144.4130 C   0  0  1  0  0  3  0  0  0  0  0  0
  192.1590  176.4600  145.8320 C   0  0  2  0  0  3  0  0  0  0  0  0
  194.6320  175.3530  145.9440 S   0  0  0  0  0  0  0  0  0  0  0  0
  192.9670  175.4880  146.6710 C   0  0  0  0  0  2  0  0  0  0  0  0
  194.6010  175.4280  143.1960 C   0  0  0  0  0  2  0  0  0  0  0  0
  196.5650  176.6670  142.9860 C   0  0  0  0  0  1  0  0  0  0  0  0
  195.3430  176.3010  142.2960 N   0  0  0  0  0  2  0  0  0  0  0  0
  186.6380  176.3860  142.2930 C   0  0  0  0  0  2  0  0  0  0  0  0
  187.9810  176.3790  141.5750 C   0  0  0  0  0  2  0  0  0  0  0  0
  188.1040  175.2120  140.7690 O   0  0  0  0  0  0  0  0  0  0  0  0
  191.3800  170.8060  142.1050 N   0  0  0  0  0  2  0  0  0  0  0  0
  192.0640  170.4820  143.3590 C   0  0  2  0  0  3  0  0  0  0  0  0
  192.7540  171.6910  143.9160 C   0  0  0  0  0  3  0  0  0  0  0  0
  192.0460  172.6750  144.4710 C   0  0  0  0  0  3  0  0  0  0  0  0
  193.0490  169.4460  143.1150 N   0  0  0  0  0  1  0  0  0  0  0  0
  189.2960  173.2070  140.1740 C   0  0  0  0  0  3  0  0  0  0  0  0
  190.4640  171.8880  141.8530 C   0  0  0  0  0  0  0  0  0  0  0  0
  189.2260  173.8890  142.4940 C   0  0  0  0  0  3  0  0  0  0  0  0
  190.0900  172.1140  140.5220 C   0  0  0  0  0  3  0  0  0  0  0  0
  188.8720  174.1090  141.1540 C   0  0  0  0  0  0  0  0  0  0  0  0
  190.0030  172.7820  142.8590 C   0  0  0  0  0  0  0  0  0  0  0  0
  190.2660  172.5130  144.6160 S   0  0  0  0  0  0  0  0  0  0  0  0
  185.1990  178.2910  142.4940 O   0  0  0  0  0  0  0  0  0  0  0  0
  185.3530  178.3270  141.1010 C   0  0  0  0  0  2  0  0  0  0  0  0
  183.9980  178.3330  140.4070 C   0  0  0  0  0  2  0  0  0  0  0  0
  182.8690  178.2380  141.4270 C   0  0  0  0  0  2  0  0  0  0  0  0
  181.5130  178.2680  140.7360 C   0  0  0  0  0  2  0  0  0  0  0  0
  180.6810  179.4120  141.2190 C   0  0  0  0  0  3  0  0  0  0  0  0
  180.0090  180.1140  140.3860 N   0  0  0  0  0  2  0  0  0  0  0  0
  1 20  1  6  0  0  0
  1  2  1  0  0  0  0
  2  5  2  0  0  0  0
  2  7  1  0  0  0  0
  4  3  1  0  0  0  0
  5  4  1  0  0  0  0
  6  3  1  0  0  0  0
  7  8  1  1  0  0  0
  7  6  1  0  0  0  0
 10  8  1  0  0  0  0
 10 11  1  0  0  0  0
 11  9  2  0  0  0  0
 12 13  1  0  0  0  0
 12 14  1  0  0  0  0
 13 17  1  6  0  0  0
 13 15  1  0  0  0  0
 14 11  1  6  0  0  0
 14 16  1  0  0  0  0
 15 16  1  0  0  0  0
 19 18  1  0  0  0  0
 19 17  1  0  0  0  0
 21 20  1  0  0  0  0
 22 32  1  0  0  0  0
 22 21  1  0  0  0  0
 23 24  1  0  0  0  0
 24 27  1  6  0  0  0
 24 25  1  0  0  0  0
 25 26  2  0  0  0  0
 26 34  1  0  0  0  0
 28 31  2  0  0  0  0
 28 32  1  0  0  0  0
 29 23  1  0  0  0  0
 29 33  2  0  0  0  0
 30 33  1  0  0  0  0
 31 29  1  0  0  0  0
 32 30  2  0  0  0  0
 33 34  1  0  0  0  0
 35  1  1  0  0  0  0
 36 35  1  0  0  0  0
 37 36  1  0  0  0  0
 37 38  1  0  0  0  0
 39 40  1  0  0  0  0
 39 38  1  0  0  0  0
 41 40  2  0  0  0  0
M  END
>  <MODEL>
2

>  <REMARK>
 VINA RESULT:      -6.1      2.718      6.119
  Name = 
  16 active torsions:
  status: ('A' for Active; 'I' for Inactive)
    1  A    between atoms: O_2  and  C_32
    2  A    between atoms: O_2  and  C_39
    3  A    between atoms: C_7  and  C_9
    4  A    between atoms: C_8  and  C_12
    5  A    between atoms: C_8  and  C_39
    6  A    between atoms: C_9  and  N_14
    7  A    between atoms: C_10  and  C_39
    8  A    between atoms: C_12  and  O_40
    9  A    between atoms: C_13  and  C_17
   10  A    between atoms: C_16  and  C_38
   11  A    between atoms: C_17  and  C_33
   12  A    between atoms: C_24  and  C_32
   13  A    between atoms: C_24  and  C_33
   14  A    between atoms: N_27  and  C_34
   15  A    between atoms: C_29  and  O_40
   16  A    between atoms: C_34  and  C_37
                            x       y       z     vdW  Elec       q    Type
                         _______ _______ _______ _____ _____    ______ ____

>  <TORSDO>
F 16

$$$$
=
 OpenBabel11042414263D

 41 44  0  0  1  0  0  0  0  0999 V2000
  191.1780  174.3830  144.9770 C   0  0  1  0  0  3  0  0  0  0  0  0
  190.6970  175.6210  144.2670 C   0  0  0  0  0  0  0  0  0  0  0  0
  189.4220  177.9050  143.1980 C   0  0  0  0  0  2  0  0  0  0  0  0
  189.5480  176.6290  142.3770 C   0  0  0  0  0  2  0  0  0  0  0  0
  189.9910  175.5070  143.1870 N   0  0  0  0  0  0  0  0  0  0  0  0
  190.7470  178.1300  143.9090 C   0  0  0  0  0  2  0  0  0  0  0  0
  191.0350  176.9710  144.8650 C   0  0  1  0  0  3  0  0  0  0  0  0
  190.2650  177.1680  146.1610 C   0  0  0  0  0  2  0  0  0  0  0  0
  188.2690  175.4730  147.1960 O   0  0  0  0  0  0  0  0  0  0  0  0
  188.8450  177.3100  145.8800 N   0  0  0  0  0  2  0  0  0  0  0  0
  187.8870  176.4470  146.4940 C   0  0  0  0  0  0  0  0  0  0  0  0
  186.1580  177.1190  144.8560 C   0  0  0  0  0  2  0  0  0  0  0  0
  184.7760  177.7390  144.8270 C   0  0  1  0  0  3  0  0  0  0  0  0
  186.4310  176.6940  146.2820 C   0  0  2  0  0  3  0  0  0  0  0  0
  184.4780  178.5700  146.4230 S   0  0  0  0  0  0  0  0  0  0  0  0
  185.9410  177.8050  147.1920 C   0  0  0  0  0  2  0  0  0  0  0  0
  184.6800  178.7370  143.6860 C   0  0  0  0  0  2  0  0  0  0  0  0
  183.4930  178.2170  141.7490 C   0  0  0  0  0  1  0  0  0  0  0  0
  184.7760  178.0530  142.4030 N   0  0  0  0  0  2  0  0  0  0  0  0
  190.0890  173.3170  145.0720 C   0  0  0  0  0  2  0  0  0  0  0  0
  190.4060  172.1080  144.2010 C   0  0  0  0  0  2  0  0  0  0  0  0
  189.3370  171.8580  143.2970 O   0  0  0  0  0  0  0  0  0  0  0  0
  189.4310  173.7020  137.9560 N   0  0  0  0  0  2  0  0  0  0  0  0
  190.4990  173.6470  136.9540 C   0  0  2  0  0  3  0  0  0  0  0  0
  191.8100  174.0560  137.5530 C   0  0  0  0  0  3  0  0  0  0  0  0
  192.4520  173.2410  138.3910 C   0  0  0  0  0  3  0  0  0  0  0  0
  190.1770  174.5430  135.8610 N   0  0  0  0  0  1  0  0  0  0  0  0
  188.3390  173.0370  141.4490 C   0  0  0  0  0  3  0  0  0  0  0  0
  189.4210  173.1160  139.2700 C   0  0  0  0  0  0  0  0  0  0  0  0
  190.4330  171.8740  141.1100 C   0  0  0  0  0  3  0  0  0  0  0  0
  188.3680  173.4700  140.1230 C   0  0  0  0  0  3  0  0  0  0  0  0
  189.3780  172.2510  141.9550 C   0  0  0  0  0  0  0  0  0  0  0  0
  190.4610  172.2830  139.7710 C   0  0  0  0  0  0  0  0  0  0  0  0
  191.7750  171.6170  138.7410 S   0  0  0  0  0  0  0  0  0  0  0  0
  192.2910  173.8650  144.3030 O   0  0  0  0  0  0  0  0  0  0  0  0
  193.2380  173.5820  145.2980 C   0  0  0  0  0  2  0  0  0  0  0  0
  193.4590  174.7940  146.1930 C   0  0  0  0  0  2  0  0  0  0  0  0
  194.8610  175.3580  146.0030 C   0  0  0  0  0  2  0  0  0  0  0  0
  194.9030  176.3170  144.8220 C   0  0  0  0  0  2  0  0  0  0  0  0
  196.0350  175.9980  143.9010 C   0  0  0  0  0  3  0  0  0  0  0  0
  196.7340  176.9420  143.3900 N   0  0  0  0  0  2  0  0  0  0  0  0
  1 20  1  6  0  0  0
  2  7  1  0  0  0  0
  2  1  1  0  0  0  0
  3  6  1  0  0  0  0
  4  5  1  0  0  0  0
  4  3  1  0  0  0  0
  5  2  2  0  0  0  0
  6  7  1  0  0  0  0
  7  8  1  1  0  0  0
 10  8  1  0  0  0  0
 10 11  1  0  0  0  0
 11  9  2  0  0  0  0
 12 14  1  0  0  0  0
 13 17  1  6  0  0  0
 13 12  1  0  0  0  0
 13 15  1  0  0  0  0
 14 11  1  6  0  0  0
 14 16  1  0  0  0  0
 15 16  1  0  0  0  0
 18 19  1  0  0  0  0
 19 17  1  0  0  0  0
 21 20  1  0  0  0  0
 22 21  1  0  0  0  0
 23 29  1  0  0  0  0
 24 27  1  6  0  0  0
 24 25  1  0  0  0  0
 24 23  1  0  0  0  0
 25 26  2  0  0  0  0
 26 34  1  0  0  0  0
 28 32  1  0  0  0  0
 29 33  2  0  0  0  0
 29 31  1  0  0  0  0
 30 32  2  0  0  0  0
 31 28  2  0  0  0  0
 32 22  1  0  0  0  0
 33 30  1  0  0  0  0
 34 33  1  0  0  0  0
 35  1  1  0  0  0  0
 35 36  1  0  0  0  0
 36 37  1  0  0  0  0
 38 37  1  0  0  0  0
 39 38  1  0  0  0  0
 40 39  1  0  0  0  0
 41 40  2  0  0  0  0
M  END
>  <MODEL>
3

>  <REMARK>
 VINA RESULT:      -6.1      2.350      7.345
  Name = 
  16 active torsions:
  status: ('A' for Active; 'I' for Inactive)
    1  A    between atoms: O_2  and  C_32
    2  A    between atoms: O_2  and  C_39
    3  A    between atoms: C_7  and  C_9
    4  A    between atoms: C_8  and  C_12
    5  A    between atoms: C_8  and  C_39
    6  A    between atoms: C_9  and  N_14
    7  A    between atoms: C_10  and  C_39
    8  A    between atoms: C_12  and  O_40
    9  A    between atoms: C_13  and  C_17
   10  A    between atoms: C_16  and  C_38
   11  A    between atoms: C_17  and  C_33
   12  A    between atoms: C_24  and  C_32
   13  A    between atoms: C_24  and  C_33
   14  A    between atoms: N_27  and  C_34
   15  A    between atoms: C_29  and  O_40
   16  A    between atoms: C_34  and  C_37
                            x       y       z     vdW  Elec       q    Type
                         _______ _______ _______ _____ _____    ______ ____

>  <TORSDO>
F 16

$$$$
=
 OpenBabel11042414263D

 41 44  0  0  1  0  0  0  0  0999 V2000
  193.9690  175.3420  145.0720 C   0  0  1  0  0  3  0  0  0  0  0  0
  195.0030  174.2610  145.2360 C   0  0  0  0  0  0  0  0  0  0  0  0
  196.7060  172.1090  145.9110 C   0  0  0  0  0  2  0  0  0  0  0  0
  197.1580  173.5490  146.1090 C   0  0  0  0  0  2  0  0  0  0  0  0
  196.0590  174.4870  145.9530 N   0  0  0  0  0  0  0  0  0  0  0  0
  195.9980  172.0260  144.5680 C   0  0  0  0  0  2  0  0  0  0  0  0
  194.7580  172.9220  144.5700 C   0  0  1  0  0  3  0  0  0  0  0  0
  193.6070  172.2070  145.2620 C   0  0  0  0  0  2  0  0  0  0  0  0
  191.9260  170.5720  143.7040 O   0  0  0  0  0  0  0  0  0  0  0  0
  192.3390  172.6410  144.6960 N   0  0  0  0  0  2  0  0  0  0  0  0
  191.5120  171.7320  143.9680 C   0  0  0  0  0  0  0  0  0  0  0  0
  189.9800  171.8860  142.0310 C   0  0  0  0  0  2  0  0  0  0  0  0
  188.8020  172.7120  141.5550 C   0  0  1  0  0  3  0  0  0  0  0  0
  190.1640  172.1730  143.5050 C   0  0  2  0  0  3  0  0  0  0  0  0
  188.7610  174.2670  142.5060 S   0  0  0  0  0  0  0  0  0  0  0  0
  189.9950  173.6670  143.7040 C   0  0  0  0  0  2  0  0  0  0  0  0
  188.9420  173.0050  140.0710 C   0  0  0  0  0  2  0  0  0  0  0  0
  190.4570  173.2260  138.3130 C   0  0  0  0  0  1  0  0  0  0  0  0
  190.3190  173.3570  139.7510 N   0  0  0  0  0  2  0  0  0  0  0  0
  193.4660  175.8640  146.4170 C   0  0  0  0  0  2  0  0  0  0  0  0
  191.9760  175.6120  146.5970 C   0  0  0  0  0  2  0  0  0  0  0  0
  191.2620  176.8430  146.5730 O   0  0  0  0  0  0  0  0  0  0  0  0
  187.9560  178.1000  142.1660 N   0  0  0  0  0  2  0  0  0  0  0  0
  186.4970  178.0690  142.0380 C   0  0  2  0  0  3  0  0  0  0  0  0
  185.9400  176.8060  142.6220 C   0  0  0  0  0  3  0  0  0  0  0  0
  185.9020  176.6350  143.9440 C   0  0  0  0  0  3  0  0  0  0  0  0
  186.1370  178.1410  140.6350 N   0  0  0  0  0  1  0  0  0  0  0  0
  190.9580  177.4370  144.2600 C   0  0  0  0  0  3  0  0  0  0  0  0
  188.7440  177.8770  143.3490 C   0  0  0  0  0  0  0  0  0  0  0  0
  189.0240  177.3240  145.7080 C   0  0  0  0  0  3  0  0  0  0  0  0
  190.1300  177.7630  143.1850 C   0  0  0  0  0  3  0  0  0  0  0  0
  190.4100  177.1990  145.5230 C   0  0  0  0  0  0  0  0  0  0  0  0
  188.1860  177.6740  144.6430 C   0  0  0  0  0  0  0  0  0  0  0  0
  186.4530  177.9560  145.0250 S   0  0  0  0  0  0  0  0  0  0  0  0
  194.5120  176.3970  144.3280 O   0  0  0  0  0  0  0  0  0  0  0  0
  194.7540  175.8740  143.0500 C   0  0  0  0  0  2  0  0  0  0  0  0
  193.5340  176.0440  142.1560 C   0  0  0  0  0  2  0  0  0  0  0  0
  192.9570  174.6880  141.7660 C   0  0  0  0  0  2  0  0  0  0  0  0
  193.9980  173.8460  141.0430 C   0  0  0  0  0  2  0  0  0  0  0  0
  193.5430  172.4310  140.8910 C   0  0  0  0  0  3  0  0  0  0  0  0
  194.2690  171.4720  141.3310 N   0  0  0  0  0  2  0  0  0  0  0  0
  1  2  1  0  0  0  0
  1 20  1  1  0  0  0
  2  5  2  0  0  0  0
  3  4  1  0  0  0  0
  5  4  1  0  0  0  0
  6  7  1  0  0  0  0
  6  3  1  0  0  0  0
  7  2  1  0  0  0  0
  7  8  1  1  0  0  0
  9 11  2  0  0  0  0
 10  8  1  0  0  0  0
 11 10  1  0  0  0  0
 12 14  1  0  0  0  0
 13 17  1  6  0  0  0
 13 12  1  0  0  0  0
 13 15  1  0  0  0  0
 14 16  1  0  0  0  0
 14 11  1  6  0  0  0
 15 16  1  0  0  0  0
 18 19  1  0  0  0  0
 19 17  1  0  0  0  0
 20 21  1  0  0  0  0
 22 21  1  0  0  0  0
 23 29  1  0  0  0  0
 24 27  1  6  0  0  0
 24 23  1  0  0  0  0
 24 25  1  0  0  0  0
 25 26  2  0  0  0  0
 26 34  1  0  0  0  0
 28 32  1  0  0  0  0
 29 33  2  0  0  0  0
 31 29  1  0  0  0  0
 31 28  2  0  0  0  0
 32 30  2  0  0  0  0
 32 22  1  0  0  0  0
 33 34  1  0  0  0  0
 33 30  1  0  0  0  0
 35  1  1  0  0  0  0
 36 35  1  0  0  0  0
 37 36  1  0  0  0  0
 38 37  1  0  0  0  0
 39 38  1  0  0  0  0
 40 39  1  0  0  0  0
 40 41  2  0  0  0  0
M  END
>  <MODEL>
4

>  <REMARK>
 VINA RESULT:      -6.1      2.775      6.727
  Name = 
  16 active torsions:
  status: ('A' for Active; 'I' for Inactive)
    1  A    between atoms: O_2  and  C_32
    2  A    between atoms: O_2  and  C_39
    3  A    between atoms: C_7  and  C_9
    4  A    between atoms: C_8  and  C_12
    5  A    between atoms: C_8  and  C_39
    6  A    between atoms: C_9  and  N_14
    7  A    between atoms: C_10  and  C_39
    8  A    between atoms: C_12  and  O_40
    9  A    between atoms: C_13  and  C_17
   10  A    between atoms: C_16  and  C_38
   11  A    between atoms: C_17  and  C_33
   12  A    between atoms: C_24  and  C_32
   13  A    between atoms: C_24  and  C_33
   14  A    between atoms: N_27  and  C_34
   15  A    between atoms: C_29  and  O_40
   16  A    between atoms: C_34  and  C_37
                            x       y       z     vdW  Elec       q    Type
                         _______ _______ _______ _____ _____    ______ ____

>  <TORSDO>
F 16

$$$$
=
 OpenBabel11042414263D

 41 44  0  0  1  0  0  0  0  0999 V2000
  192.5110  173.1460  141.7530 C   0  0  1  0  0  3  0  0  0  0  0  0
  191.7360  172.5210  140.6240 C   0  0  0  0  0  0  0  0  0  0  0  0
  190.0150  171.1740  138.8330 C   0  0  0  0  0  2  0  0  0  0  0  0
  191.4340  170.6770  139.0690 C   0  0  0  0  0  2  0  0  0  0  0  0
  192.0570  171.3390  140.2040 N   0  0  0  0  0  0  0  0  0  0  0  0
  190.0680  172.6890  138.7220 C   0  0  0  0  0  2  0  0  0  0  0  0
  190.5760  173.2950  140.0310 C   0  0  1  0  0  3  0  0  0  0  0  0
  189.4400  173.3730  141.0390 C   0  0  0  0  0  2  0  0  0  0  0  0
  188.6050  174.9800  143.1950 O   0  0  0  0  0  0  0  0  0  0  0  0
  188.7290  174.6330  140.8930 N   0  0  0  0  0  2  0  0  0  0  0  0
  188.3940  175.4230  142.0350 C   0  0  0  0  0  0  0  0  0  0  0  0
  186.8090  177.0780  142.9680 C   0  0  0  0  0  2  0  0  0  0  0  0
  185.9350  178.2250  142.5050 C   0  0  1  0  0  3  0  0  0  0  0  0
  187.7740  176.7660  141.8450 C   0  0  2  0  0  3  0  0  0  0  0  0
  185.6990  178.0850  140.7020 S   0  0  0  0  0  0  0  0  0  0  0  0
  186.9930  176.8130  140.5450 C   0  0  0  0  0  2  0  0  0  0  0  0
  184.5940  178.1740  143.2180 C   0  0  0  0  0  2  0  0  0  0  0  0
  184.0790  178.8640  145.3840 C   0  0  0  0  0  1  0  0  0  0  0  0
  184.7790  177.8460  144.6250 N   0  0  0  0  0  2  0  0  0  0  0  0
  193.0140  174.5440  141.3990 C   0  0  0  0  0  2  0  0  0  0  0  0
  193.9670  175.0840  142.4560 C   0  0  0  0  0  2  0  0  0  0  0  0
  193.6190  176.4200  142.7980 O   0  0  0  0  0  0  0  0  0  0  0  0
  188.9790  177.6540  145.7780 N   0  0  0  0  0  2  0  0  0  0  0  0
  188.4270  177.0170  146.9750 C   0  0  2  0  0  3  0  0  0  0  0  0
  188.4410  175.5240  146.8380 C   0  0  0  0  0  3  0  0  0  0  0  0
  189.5900  174.8520  146.9190 C   0  0  0  0  0  3  0  0  0  0  0  0
  187.0600  177.4610  147.1680 N   0  0  0  0  0  1  0  0  0  0  0  0
  191.5840  177.6660  143.1220 C   0  0  0  0  0  3  0  0  0  0  0  0
  190.2280  177.3690  145.1220 C   0  0  0  0  0  0  0  0  0  0  0  0
  192.3100  176.1290  144.8430 C   0  0  0  0  0  3  0  0  0  0  0  0
  190.4520  177.9720  143.8780 C   0  0  0  0  0  3  0  0  0  0  0  0
  192.5110  176.7310  143.5920 C   0  0  0  0  0  0  0  0  0  0  0  0
  191.1890  176.4460  145.6210 C   0  0  0  0  0  0  0  0  0  0  0  0
  191.1110  175.7340  147.2700 S   0  0  0  0  0  0  0  0  0  0  0  0
  191.7010  173.2090  142.8940 O   0  0  0  0  0  0  0  0  0  0  0  0
  192.0870  172.1230  143.6930 C   0  0  0  0  0  2  0  0  0  0  0  0
  192.7850  172.6040  144.9580 C   0  0  0  0  0  2  0  0  0  0  0  0
  194.0290  171.7700  145.2380 C   0  0  0  0  0  2  0  0  0  0  0  0
  195.2640  172.4190  144.6290 C   0  0  0  0  0  2  0  0  0  0  0  0
  196.1910  172.9220  145.6870 C   0  0  0  0  0  3  0  0  0  0  0  0
  196.4080  174.1790  145.8070 N   0  0  0  0  0  2  0  0  0  0  0  0
  1 20  1  6  0  0  0
  1 35  1  0  0  0  0
  2  1  1  0  0  0  0
  3  4  1  0  0  0  0
  4  5  1  0  0  0  0
  5  2  2  0  0  0  0
  6  3  1  0  0  0  0
  6  7  1  0  0  0  0
  7  2  1  0  0  0  0
  7  8  1  1  0  0  0
 10  8  1  0  0  0  0
 10 11  1  0  0  0  0
 11  9  2  0  0  0  0
 13 12  1  0  0  0  0
 13 17  1  1  0  0  0
 14 11  1  1  0  0  0
 14 12  1  0  0  0  0
 15 13  1  0  0  0  0
 16 15  1  0  0  0  0
 16 14  1  0  0  0  0
 17 19  1  0  0  0  0
 19 18  1  0  0  0  0
 20 21  1  0  0  0  0
 21 22  1  0  0  0  0
 22 32  1  0  0  0  0
 23 24  1  0  0  0  0
 24 27  1  6  0  0  0
 25 26  2  0  0  0  0
 25 24  1  0  0  0  0
 26 34  1  0  0  0  0
 28 32  2  0  0  0  0
 28 31  1  0  0  0  0
 29 33  1  0  0  0  0
 29 23  1  0  0  0  0
 30 33  2  0  0  0  0
 31 29  2  0  0  0  0
 32 30  1  0  0  0  0
 33 34  1  0  0  0  0
 35 36  1  0  0  0  0
 36 37  1  0  0  0  0
 37 38  1  0  0  0  0
 39 38  1  0  0  0  0
 39 40  1  0  0  0  0
 40 41  2  0  0  0  0
M  END
>  <MODEL>
5

>  <REMARK>
 VINA RESULT:      -6.0      2.602      7.475
  Name = 
  16 active torsions:
  status: ('A' for Active; 'I' for Inactive)
    1  A    between atoms: O_2  and  C_32
    2  A    between atoms: O_2  and  C_39
    3  A    between atoms: C_7  and  C_9
    4  A    between atoms: C_8  and  C_12
    5  A    between atoms: C_8  and  C_39
    6  A    between atoms: C_9  and  N_14
    7  A    between atoms: C_10  and  C_39
    8  A    between atoms: C_12  and  O_40
    9  A    between atoms: C_13  and  C_17
   10  A    between atoms: C_16  and  C_38
   11  A    between atoms: C_17  and  C_33
   12  A    between atoms: C_24  and  C_32
   13  A    between atoms: C_24  and  C_33
   14  A    between atoms: N_27  and  C_34
   15  A    between atoms: C_29  and  O_40
   16  A    between atoms: C_34  and  C_37
                            x       y       z     vdW  Elec       q    Type
                         _______ _______ _______ _____ _____    ______ ____

>  <TORSDO>
F 16

$$$$
=
 OpenBabel11042414263D

 41 44  0  0  1  0  0  0  0  0999 V2000
  195.4390  174.7690  144.7870 C   0  0  1  0  0  3  0  0  0  0  0  0
  195.1020  173.3050  144.8820 C   0  0  0  0  0  0  0  0  0  0  0  0
  194.1980  170.6790  145.4070 C   0  0  0  0  0  2  0  0  0  0  0  0
  195.6190  171.0980  145.7600 C   0  0  0  0  0  2  0  0  0  0  0  0
  195.8010  172.5360  145.6560 N   0  0  0  0  0  0  0  0  0  0  0  0
  193.8740  171.2540  144.0370 C   0  0  0  0  0  2  0  0  0  0  0  0
  193.9270  172.7830  144.0820 C   0  0  1  0  0  3  0  0  0  0  0  0
  192.6290  173.3270  144.6580 C   0  0  0  0  0  2  0  0  0  0  0  0
  190.0530  172.2010  144.8160 O   0  0  0  0  0  0  0  0  0  0  0  0
  191.6250  173.4320  143.6110 N   0  0  0  0  0  2  0  0  0  0  0  0
  190.3170  172.8860  143.7920 C   0  0  0  0  0  0  0  0  0  0  0  0
  189.8150  172.8220  141.3700 C   0  0  0  0  0  2  0  0  0  0  0  0
  188.8700  173.4580  140.3710 C   0  0  1  0  0  3  0  0  0  0  0  0
  189.2730  173.1150  142.7520 C   0  0  2  0  0  3  0  0  0  0  0  0
  188.1780  174.9750  141.1110 S   0  0  0  0  0  0  0  0  0  0  0  0
  188.8150  174.5610  142.7660 C   0  0  0  0  0  2  0  0  0  0  0  0
  189.6170  173.7900  139.0910 C   0  0  0  0  0  2  0  0  0  0  0  0
  191.2780  173.1640  137.5800 C   0  0  0  0  0  1  0  0  0  0  0  0
  190.6170  172.7680  138.8080 N   0  0  0  0  0  2  0  0  0  0  0  0
  194.9420  175.5520  146.0010 C   0  0  0  0  0  2  0  0  0  0  0  0
  194.2740  176.8580  145.5940 C   0  0  0  0  0  2  0  0  0  0  0  0
  193.4870  176.6660  144.4240 O   0  0  0  0  0  0  0  0  0  0  0  0
  188.0330  178.0440  143.8850 N   0  0  0  0  0  2  0  0  0  0  0  0
  186.9090  177.8310  144.7990 C   0  0  2  0  0  3  0  0  0  0  0  0
  186.9270  176.4370  145.3490 C   0  0  0  0  0  3  0  0  0  0  0  0
  187.8330  176.0850  146.2630 C   0  0  0  0  0  3  0  0  0  0  0  0
  185.6640  178.0410  144.0860 N   0  0  0  0  0  1  0  0  0  0  0  0
  191.6390  177.5200  143.1370 C   0  0  0  0  0  3  0  0  0  0  0  0
  189.4270  177.7720  144.1200 C   0  0  0  0  0  0  0  0  0  0  0  0
  191.2900  176.9490  145.4620 C   0  0  0  0  0  3  0  0  0  0  0  0
  190.2940  177.8720  143.0250 C   0  0  0  0  0  3  0  0  0  0  0  0
  192.1420  177.0410  144.3510 C   0  0  0  0  0  0  0  0  0  0  0  0
  189.9440  177.3220  145.3680 C   0  0  0  0  0  0  0  0  0  0  0  0
  188.9840  177.3100  146.8870 S   0  0  0  0  0  0  0  0  0  0  0  0
  196.8260  174.9200  144.6610 O   0  0  0  0  0  0  0  0  0  0  0  0
  197.0570  175.1750  143.3020 C   0  0  0  0  0  2  0  0  0  0  0  0
  196.8180  176.6440  142.9800 C   0  0  0  0  0  2  0  0  0  0  0  0
  196.0590  176.7920  141.6670 C   0  0  0  0  0  2  0  0  0  0  0  0
  195.6310  175.4320  141.1330 C   0  0  0  0  0  2  0  0  0  0  0  0
  194.1570  175.3790  140.8990 C   0  0  0  0  0  3  0  0  0  0  0  0
  193.5560  174.2490  140.8390 N   0  0  0  0  0  2  0  0  0  0  0  0
  1  2  1  0  0  0  0
  1 20  1  1  0  0  0
  2  5  2  0  0  0  0
  3  4  1  0  0  0  0
  5  4  1  0  0  0  0
  6  7  1  0  0  0  0
  6  3  1  0  0  0  0
  7  8  1  1  0  0  0
  7  2  1  0  0  0  0
 10 11  1  0  0  0  0
 10  8  1  0  0  0  0
 11  9  2  0  0  0  0
 12 14  1  0  0  0  0
 13 17  1  6  0  0  0
 13 15  1  0  0  0  0
 13 12  1  0  0  0  0
 14 16  1  0  0  0  0
 14 11  1  1  0  0  0
 15 16  1  0  0  0  0
 18 19  1  0  0  0  0
 19 17  1  0  0  0  0
 21 20  1  0  0  0  0
 22 21  1  0  0  0  0
 23 29  1  0  0  0  0
 23 24  1  0  0  0  0
 24 27  1  6  0  0  0
 24 25  1  0  0  0  0
 25 26  2  0  0  0  0
 26 34  1  0  0  0  0
 28 32  1  0  0  0  0
 29 33  2  0  0  0  0
 31 28  2  0  0  0  0
 31 29  1  0  0  0  0
 32 22  1  0  0  0  0
 32 30  2  0  0  0  0
 33 30  1  0  0  0  0
 33 34  1  0  0  0  0
 35  1  1  0  0  0  0
 36 35  1  0  0  0  0
 37 36  1  0  0  0  0
 38 37  1  0  0  0  0
 39 38  1  0  0  0  0
 40 39  1  0  0  0  0
 41 40  2  0  0  0  0
M  END
>  <MODEL>
6

>  <REMARK>
 VINA RESULT:      -5.8      2.471      6.774
  Name = 
  16 active torsions:
  status: ('A' for Active; 'I' for Inactive)
    1  A    between atoms: O_2  and  C_32
    2  A    between atoms: O_2  and  C_39
    3  A    between atoms: C_7  and  C_9
    4  A    between atoms: C_8  and  C_12
    5  A    between atoms: C_8  and  C_39
    6  A    between atoms: C_9  and  N_14
    7  A    between atoms: C_10  and  C_39
    8  A    between atoms: C_12  and  O_40
    9  A    between atoms: C_13  and  C_17
   10  A    between atoms: C_16  and  C_38
   11  A    between atoms: C_17  and  C_33
   12  A    between atoms: C_24  and  C_32
   13  A    between atoms: C_24  and  C_33
   14  A    between atoms: N_27  and  C_34
   15  A    between atoms: C_29  and  O_40
   16  A    between atoms: C_34  and  C_37
                            x       y       z     vdW  Elec       q    Type
                         _______ _______ _______ _____ _____    ______ ____

>  <TORSDO>
F 16

$$$$
=
 OpenBabel11042414263D

 41 44  0  0  1  0  0  0  0  0999 V2000
  194.1260  175.7080  144.7240 C   0  0  1  0  0  3  0  0  0  0  0  0
  194.8910  174.4330  144.9550 C   0  0  0  0  0  0  0  0  0  0  0  0
  196.0610  171.9880  145.7540 C   0  0  0  0  0  2  0  0  0  0  0  0
  196.8190  173.2990  145.9070 C   0  0  0  0  0  2  0  0  0  0  0  0
  195.9580  174.4490  145.6880 N   0  0  0  0  0  0  0  0  0  0  0  0
  195.3730  172.0060  144.3980 C   0  0  0  0  0  2  0  0  0  0  0  0
  194.3640  173.1540  144.3350 C   0  0  1  0  0  3  0  0  0  0  0  0
  193.0720  172.7430  145.0250 C   0  0  0  0  0  2  0  0  0  0  0  0
  190.3640  173.4260  145.3850 O   0  0  0  0  0  0  0  0  0  0  0  0
  192.0320  172.5100  144.0360 N   0  0  0  0  0  2  0  0  0  0  0  0
  190.6900  172.9420  144.2680 C   0  0  0  0  0  0  0  0  0  0  0  0
  190.2400  172.0350  142.0100 C   0  0  0  0  0  2  0  0  0  0  0  0
  189.3270  172.2870  140.8280 C   0  0  1  0  0  3  0  0  0  0  0  0
  189.6720  172.7980  143.1870 C   0  0  2  0  0  3  0  0  0  0  0  0
  188.6420  173.9710  140.9700 S   0  0  0  0  0  0  0  0  0  0  0  0
  189.2360  174.1600  142.6810 C   0  0  0  0  0  2  0  0  0  0  0  0
  190.1070  172.1420  139.5320 C   0  0  0  0  0  2  0  0  0  0  0  0
  190.3490  173.3340  137.5430 C   0  0  0  0  0  1  0  0  0  0  0  0
  190.4310  173.4540  138.9860 N   0  0  0  0  0  2  0  0  0  0  0  0
  193.8430  176.4510  146.0280 C   0  0  0  0  0  2  0  0  0  0  0  0
  192.3700  176.3840  146.4070 C   0  0  0  0  0  2  0  0  0  0  0  0
  191.5610  176.8310  145.3260 O   0  0  0  0  0  0  0  0  0  0  0  0
  186.0620  177.9230  146.0390 N   0  0  0  0  0  2  0  0  0  0  0  0
  185.0390  178.3030  145.0620 C   0  0  2  0  0  3  0  0  0  0  0  0
  185.5530  179.3680  144.1410 C   0  0  0  0  0  3  0  0  0  0  0  0
  186.4470  179.0690  143.1980 C   0  0  0  0  0  3  0  0  0  0  0  0
  183.8720  178.8050  145.7610 N   0  0  0  0  0  1  0  0  0  0  0  0
  189.6370  177.1630  146.7350 C   0  0  0  0  0  3  0  0  0  0  0  0
  187.4280  177.5460  145.7850 C   0  0  0  0  0  0  0  0  0  0  0  0
  189.3500  177.1660  144.3330 C   0  0  0  0  0  3  0  0  0  0  0  0
  188.2740  177.4160  146.8940 C   0  0  0  0  0  3  0  0  0  0  0  0
  190.1860  177.0530  145.4540 C   0  0  0  0  0  0  0  0  0  0  0  0
  187.9770  177.3950  144.4810 C   0  0  0  0  0  0  0  0  0  0  0  0
  186.9780  177.3690  142.9870 S   0  0  0  0  0  0  0  0  0  0  0  0
  194.8500  176.5350  143.8550 O   0  0  0  0  0  0  0  0  0  0  0  0
  194.2420  176.3900  142.6000 C   0  0  0  0  0  2  0  0  0  0  0  0
  195.2890  176.1850  141.5140 C   0  0  0  0  0  2  0  0  0  0  0  0
  195.2950  174.7380  141.0350 C   0  0  0  0  0  2  0  0  0  0  0  0
  193.9500  174.3640  140.4270 C   0  0  0  0  0  2  0  0  0  0  0  0
  193.6060  172.9370  140.7020 C   0  0  0  0  0  3  0  0  0  0  0  0
  194.5350  172.0630  140.8190 N   0  0  0  0  0  2  0  0  0  0  0  0
  1  2  1  0  0  0  0
  1 20  1  1  0  0  0
  2  5  2  0  0  0  0
  3  4  1  0  0  0  0
  5  4  1  0  0  0  0
  6  3  1  0  0  0  0
  7  6  1  0  0  0  0
  7  2  1  0  0  0  0
  7  8  1  1  0  0  0
 10 11  1  0  0  0  0
 10  8  1  0  0  0  0
 11  9  2  0  0  0  0
 12 14  1  0  0  0  0
 13 17  1  6  0  0  0
 13 15  1  0  0  0  0
 13 12  1  0  0  0  0
 14 11  1  1  0  0  0
 15 16  1  0  0  0  0
 16 14  1  0  0  0  0
 18 19  1  0  0  0  0
 19 17  1  0  0  0  0
 20 21  1  0  0  0  0
 22 32  1  0  0  0  0
 22 21  1  0  0  0  0
 24 27  1  1  0  0  0
 24 23  1  0  0  0  0
 25 24  1  0  0  0  0
 26 25  2  0  0  0  0
 28 31  1  0  0  0  0
 29 23  1  0  0  0  0
 29 31  2  0  0  0  0
 30 33  2  0  0  0  0
 30 32  1  0  0  0  0
 32 28  2  0  0  0  0
 33 29  1  0  0  0  0
 34 26  1  0  0  0  0
 34 33  1  0  0  0  0
 35  1  1  0  0  0  0
 36 35  1  0  0  0  0
 37 36  1  0  0  0  0
 38 37  1  0  0  0  0
 39 40  1  0  0  0  0
 39 38  1  0  0  0  0
 40 41  2  0  0  0  0
M  END
>  <MODEL>
7

>  <REMARK>
 VINA RESULT:      -5.8      2.421      7.125
  Name = 
  16 active torsions:
  status: ('A' for Active; 'I' for Inactive)
    1  A    between atoms: O_2  and  C_32
    2  A    between atoms: O_2  and  C_39
    3  A    between atoms: C_7  and  C_9
    4  A    between atoms: C_8  and  C_12
    5  A    between atoms: C_8  and  C_39
    6  A    between atoms: C_9  and  N_14
    7  A    between atoms: C_10  and  C_39
    8  A    between atoms: C_12  and  O_40
    9  A    between atoms: C_13  and  C_17
   10  A    between atoms: C_16  and  C_38
   11  A    between atoms: C_17  and  C_33
   12  A    between atoms: C_24  and  C_32
   13  A    between atoms: C_24  and  C_33
   14  A    between atoms: N_27  and  C_34
   15  A    between atoms: C_29  and  O_40
   16  A    between atoms: C_34  and  C_37
                            x       y       z     vdW  Elec       q    Type
                         _______ _______ _______ _____ _____    ______ ____

>  <TORSDO>
F 16

$$$$
=
 OpenBabel11042414263D

 41 44  0  0  1  0  0  0  0  0999 V2000
  186.7530  178.0950  143.3080 C   0  0  1  0  0  3  0  0  0  0  0  0
  186.4540  177.8020  144.7540 C   0  0  0  0  0  0  0  0  0  0  0  0
  185.9390  176.8150  147.3510 C   0  0  0  0  0  2  0  0  0  0  0  0
  184.8170  177.4000  146.5060 C   0  0  0  0  0  2  0  0  0  0  0  0
  185.2290  177.6050  145.1270 N   0  0  0  0  0  0  0  0  0  0  0  0
  187.1570  177.7110  147.1880 C   0  0  0  0  0  2  0  0  0  0  0  0
  187.6120  177.7200  145.7270 C   0  0  1  0  0  3  0  0  0  0  0  0
  188.4410  176.4790  145.4370 C   0  0  0  0  0  2  0  0  0  0  0  0
  190.3850  175.0060  146.8450 O   0  0  0  0  0  0  0  0  0  0  0  0
  189.8570  176.8090  145.4630 N   0  0  0  0  0  2  0  0  0  0  0  0
  190.7920  175.9750  146.1500 C   0  0  0  0  0  0  0  0  0  0  0  0
  192.6560  176.5460  144.6260 C   0  0  0  0  0  2  0  0  0  0  0  0
  194.1640  176.4250  144.5540 C   0  0  1  0  0  3  0  0  0  0  0  0
  192.2510  176.2730  146.0580 C   0  0  2  0  0  3  0  0  0  0  0  0
  194.7040  175.1590  145.7510 S   0  0  0  0  0  0  0  0  0  0  0  0
  193.0670  175.0910  146.5460 C   0  0  0  0  0  2  0  0  0  0  0  0
  194.5850  176.0340  143.1480 C   0  0  0  0  0  2  0  0  0  0  0  0
  196.8300  176.2260  142.5470 C   0  0  0  0  0  1  0  0  0  0  0  0
  195.8670  175.3420  143.1750 N   0  0  0  0  0  2  0  0  0  0  0  0
  186.8670  176.8190  142.4760 C   0  0  0  0  0  2  0  0  0  0  0  0
  188.1770  176.7650  141.7030 C   0  0  0  0  0  2  0  0  0  0  0  0
  188.9370  175.6290  142.0980 O   0  0  0  0  0  0  0  0  0  0  0  0
  189.4760  171.1830  138.6530 N   0  0  0  0  0  2  0  0  0  0  0  0
  190.3430  170.0060  138.7560 C   0  0  2  0  0  3  0  0  0  0  0  0
  191.7380  170.4050  139.1330 C   0  0  0  0  0  3  0  0  0  0  0  0
  192.0110  170.8060  140.3750 C   0  0  0  0  0  3  0  0  0  0  0  0
  190.3760  169.3220  137.4780 N   0  0  0  0  0  1  0  0  0  0  0  0
  188.4370  174.4710  140.0470 C   0  0  0  0  0  3  0  0  0  0  0  0
  189.2980  172.2350  139.6190 C   0  0  0  0  0  0  0  0  0  0  0  0
  189.7820  173.3640  141.7260 C   0  0  0  0  0  3  0  0  0  0  0  0
  188.5660  173.3590  139.2150 C   0  0  0  0  0  3  0  0  0  0  0  0
  189.0570  174.4870  141.3000 C   0  0  0  0  0  0  0  0  0  0  0  0
  189.8970  172.2320  140.9090 C   0  0  0  0  0  0  0  0  0  0  0  0
  190.7150  170.7960  141.6150 S   0  0  0  0  0  0  0  0  0  0  0  0
  185.7480  178.9160  142.7820 O   0  0  0  0  0  0  0  0  0  0  0  0
  185.0450  178.1170  141.8690 C   0  0  0  0  0  2  0  0  0  0  0  0
  183.5420  178.2910  142.0450 C   0  0  0  0  0  2  0  0  0  0  0  0
  182.8370  178.2900  140.6940 C   0  0  0  0  0  2  0  0  0  0  0  0
  181.3520  177.9950  140.8600 C   0  0  0  0  0  2  0  0  0  0  0  0
  180.6140  179.1890  141.3700 C   0  0  0  0  0  3  0  0  0  0  0  0
  179.4930  179.0430  141.9710 N   0  0  0  0  0  2  0  0  0  0  0  0
  1 20  1  6  0  0  0
  1  2  1  0  0  0  0
  2  5  2  0  0  0  0
  2  7  1  0  0  0  0
  4  3  1  0  0  0  0
  5  4  1  0  0  0  0
  6  3  1  0  0  0  0
  7  8  1  6  0  0  0
  7  6  1  0  0  0  0
  8 10  1  0  0  0  0
 10 11  1  0  0  0  0
 11  9  2  0  0  0  0
 12 14  1  0  0  0  0
 13 17  1  6  0  0  0
 13 12  1  0  0  0  0
 13 15  1  0  0  0  0
 14 11  1  6  0  0  0
 14 16  1  0  0  0  0
 15 16  1  0  0  0  0
 17 19  1  0  0  0  0
 18 19  1  0  0  0  0
 21 22  1  0  0  0  0
 21 20  1  0  0  0  0
 23 24  1  0  0  0  0
 23 29  1  0  0  0  0
 24 27  1  6  0  0  0
 24 25  1  0  0  0  0
 25 26  2  0  0  0  0
 26 34  1  0  0  0  0
 28 32  1  0  0  0  0
 29 33  2  0  0  0  0
 31 29  1  0  0  0  0
 31 28  2  0  0  0  0
 32 30  2  0  0  0  0
 32 22  1  0  0  0  0
 33 34  1  0  0  0  0
 33 30  1  0  0  0  0
 35  1  1  0  0  0  0
 36 37  1  0  0  0  0
 36 35  1  0  0  0  0
 38 39  1  0  0  0  0
 38 37  1  0  0  0  0
 39 40  1  0  0  0  0
 40 41  2  0  0  0  0
M  END
>  <MODEL>
8

>  <REMARK>
 VINA RESULT:      -5.7      2.626      6.455
  Name = 
  16 active torsions:
  status: ('A' for Active; 'I' for Inactive)
    1  A    between atoms: O_2  and  C_32
    2  A    between atoms: O_2  and  C_39
    3  A    between atoms: C_7  and  C_9
    4  A    between atoms: C_8  and  C_12
    5  A    between atoms: C_8  and  C_39
    6  A    between atoms: C_9  and  N_14
    7  A    between atoms: C_10  and  C_39
    8  A    between atoms: C_12  and  O_40
    9  A    between atoms: C_13  and  C_17
   10  A    between atoms: C_16  and  C_38
   11  A    between atoms: C_17  and  C_33
   12  A    between atoms: C_24  and  C_32
   13  A    between atoms: C_24  and  C_33
   14  A    between atoms: N_27  and  C_34
   15  A    between atoms: C_29  and  O_40
   16  A    between atoms: C_34  and  C_37
                            x       y       z     vdW  Elec       q    Type
                         _______ _______ _______ _____ _____    ______ ____

>  <TORSDO>
F 16

$$$$
=
 OpenBabel11042414263D

 41 44  0  0  1  0  0  0  0  0999 V2000
  191.0970  175.2690  145.1460 C   0  0  1  0  0  3  0  0  0  0  0  0
  191.3690  174.0310  144.3360 C   0  0  0  0  0  0  0  0  0  0  0  0
  191.4260  171.6600  142.7990 C   0  0  0  0  0  2  0  0  0  0  0  0
  191.8470  171.6480  144.2620 C   0  0  0  0  0  2  0  0  0  0  0  0
  191.5000  172.8890  144.9340 N   0  0  0  0  0  0  0  0  0  0  0  0
  192.0160  172.9050  142.1570 C   0  0  0  0  0  2  0  0  0  0  0  0
  191.4530  174.1600  142.8290 C   0  0  1  0  0  3  0  0  0  0  0  0
  190.0780  174.4750  142.2620 C   0  0  0  0  0  2  0  0  0  0  0  0
  188.1330  172.8780  140.9980 O   0  0  0  0  0  0  0  0  0  0  0  0
  190.0510  174.1950  140.8340 N   0  0  0  0  0  2  0  0  0  0  0  0
  188.9940  173.4250  140.2590 C   0  0  0  0  0  0  0  0  0  0  0  0
  190.3160  173.2170  138.1770 C   0  0  0  0  0  2  0  0  0  0  0  0
  190.1700  173.4620  136.6890 C   0  0  1  0  0  3  0  0  0  0  0  0
  188.9290  173.2560  138.7780 C   0  0  2  0  0  3  0  0  0  0  0  0
  188.7610  174.5870  136.4210 S   0  0  0  0  0  0  0  0  0  0  0  0
  188.1880  174.4180  138.1420 C   0  0  0  0  0  2  0  0  0  0  0  0
  191.4470  174.0750  136.1390 C   0  0  0  0  0  2  0  0  0  0  0  0
  193.6570  174.4620  136.7680 C   0  0  0  0  0  1  0  0  0  0  0  0
  192.2850  174.5630  137.2250 N   0  0  0  0  0  2  0  0  0  0  0  0
  191.0070  174.9690  146.6410 C   0  0  0  0  0  2  0  0  0  0  0  0
  189.5630  174.9310  147.1220 C   0  0  0  0  0  2  0  0  0  0  0  0
  188.9980  176.2370  147.0910 O   0  0  0  0  0  0  0  0  0  0  0  0
  184.4690  177.7670  144.0770 N   0  0  0  0  0  2  0  0  0  0  0  0
  184.3060  177.9280  142.6310 C   0  0  2  0  0  3  0  0  0  0  0  0
  185.4620  178.6820  142.0460 C   0  0  0  0  0  3  0  0  0  0  0  0
  186.6540  178.0970  141.9210 C   0  0  0  0  0  3  0  0  0  0  0  0
  183.0820  178.6580  142.3640 N   0  0  0  0  0  1  0  0  0  0  0  0
  186.7300  177.0320  146.9380 C   0  0  0  0  0  3  0  0  0  0  0  0
  185.6170  177.2650  144.7860 C   0  0  0  0  0  0  0  0  0  0  0  0
  187.8990  176.4120  144.9130 C   0  0  0  0  0  3  0  0  0  0  0  0
  185.6140  177.3900  146.1810 C   0  0  0  0  0  3  0  0  0  0  0  0
  187.8840  176.5570  146.3080 C   0  0  0  0  0  0  0  0  0  0  0  0
  186.7760  176.7450  144.1450 C   0  0  0  0  0  0  0  0  0  0  0  0
  186.8500  176.3760  142.3870 S   0  0  0  0  0  0  0  0  0  0  0  0
  192.1090  176.2100  144.9120 O   0  0  0  0  0  0  0  0  0  0  0  0
  192.9540  176.1450  146.0290 C   0  0  0  0  0  2  0  0  0  0  0  0
  194.4080  176.3300  145.6190 C   0  0  0  0  0  2  0  0  0  0  0  0
  194.6800  175.6640  144.2760 C   0  0  0  0  0  2  0  0  0  0  0  0
  195.3110  174.2920  144.4710 C   0  0  0  0  0  2  0  0  0  0  0  0
  196.4860  174.3600  145.3910 C   0  0  0  0  0  3  0  0  0  0  0  0
  196.7770  173.3610  146.1360 N   0  0  0  0  0  2  0  0  0  0  0  0
  1 20  1  1  0  0  0
  2  5  2  0  0  0  0
  2  1  1  0  0  0  0
  3  4  1  0  0  0  0
  4  5  1  0  0  0  0
  6  3  1  0  0  0  0
  6  7  1  0  0  0  0
  7  8  1  6  0  0  0
  7  2  1  0  0  0  0
 10  8  1  0  0  0  0
 11 10  1  0  0  0  0
 11  9  2  0  0  0  0
 12 14  1  0  0  0  0
 13 17  1  1  0  0  0
 13 12  1  0  0  0  0
 14 11  1  1  0  0  0
 15 13  1  0  0  0  0
 15 16  1  0  0  0  0
 16 14  1  0  0  0  0
 17 19  1  0  0  0  0
 18 19  1  0  0  0  0
 20 21  1  0  0  0  0
 22 21  1  0  0  0  0
 23 29  1  0  0  0  0
 24 27  1  1  0  0  0
 24 23  1  0  0  0  0
 25 24  1  0  0  0  0
 26 25  2  0  0  0  0
 26 34  1  0  0  0  0
 29 31  1  0  0  0  0
 30 32  2  0  0  0  0
 31 28  2  0  0  0  0
 32 28  1  0  0  0  0
 32 22  1  0  0  0  0
 33 29  2  0  0  0  0
 33 30  1  0  0  0  0
 34 33  1  0  0  0  0
 35  1  1  0  0  0  0
 35 36  1  0  0  0  0
 37 36  1  0  0  0  0
 38 39  1  0  0  0  0
 38 37  1  0  0  0  0
 39 40  1  0  0  0  0
 40 41  2  0  0  0  0
M  END
>  <MODEL>
9

>  <REMARK>
 VINA RESULT:      -5.6      2.294      6.816
  Name = 
  16 active torsions:
  status: ('A' for Active; 'I' for Inactive)
    1  A    between atoms: O_2  and  C_32
    2  A    between atoms: O_2  and  C_39
    3  A    between atoms: C_7  and  C_9
    4  A    between atoms: C_8  and  C_12
    5  A    between atoms: C_8  and  C_39
    6  A    between atoms: C_9  and  N_14
    7  A    between atoms: C_10  and  C_39
    8  A    between atoms: C_12  and  O_40
    9  A    between atoms: C_13  and  C_17
   10  A    between atoms: C_16  and  C_38
   11  A    between atoms: C_17  and  C_33
   12  A    between atoms: C_24  and  C_32
   13  A    between atoms: C_24  and  C_33
   14  A    between atoms: N_27  and  C_34
   15  A    between atoms: C_29  and  O_40
   16  A    between atoms: C_34  and  C_37
                            x       y       z     vdW  Elec       q    Type
                         _______ _______ _______ _____ _____    ______ ____

>  <TORSDO>
F 16

$$$$
