=
 OpenBabel11042413483D

 25 28  0  0  0  0  0  0  0  0999 V2000
  188.6090  177.8080  144.2080 C   0  0  0  0  0  3  0  0  0  0  0  0
  184.8540  178.0830  140.9560 N   0  0  0  0  0  0  0  0  0  0  0  0
  184.9830  177.9880  143.3260 C   0  0  0  0  0  3  0  0  0  0  0  0
  188.3820  177.9070  141.8060 C   0  0  0  0  0  3  0  0  0  0  0  0
  182.8940  178.1440  141.9420 C   0  0  0  0  0  3  0  0  0  0  0  0
  184.2540  178.0680  142.1460 C   0  0  0  0  0  0  0  0  0  0  0  0
  187.2170  177.8380  144.3840 C   0  0  0  0  0  0  0  0  0  0  0  0
  183.9310  178.1650  140.0200 N   0  0  0  0  0  0  0  0  0  0  0  0
  186.9960  177.9470  141.9370 C   0  0  0  0  0  0  0  0  0  0  0  0
  186.1960  178.0290  140.7880 C   0  0  0  0  0  3  0  0  0  0  0  0
  186.3890  177.9170  143.2330 C   0  0  0  0  0  0  0  0  0  0  0  0
  189.1950  177.8400  142.9350 C   0  0  0  0  0  0  0  0  0  0  0  0
  182.7330  178.2030  140.5940 N   0  0  0  0  0  0  0  0  0  0  0  0
  185.6390  178.0540  148.0090 C   0  0  0  0  0  3  0  0  0  0  0  0
  185.8150  178.9560  146.6040 S   0  0  0  0  0  0  0  0  0  0  0  0
  186.7060  177.7870  145.7800 C   0  0  0  0  0  0  0  0  0  0  0  0
  186.8320  176.6960  146.6370 C   0  0  0  0  0  3  0  0  0  0  0  0
  186.2480  176.8560  147.8570 N   0  0  0  0  0  0  0  0  0  0  0  0
  190.5820  177.8070  142.7670 O   0  0  0  0  0  0  0  0  0  0  0  0
  191.3830  176.7180  143.2080 C   0  0  0  0  0  2  0  0  0  0  0  0
  192.1910  177.1280  144.3930 C   0  0  0  0  0  3  0  0  0  0  0  0
  193.1650  176.3460  144.8520 C   0  0  0  0  0  3  0  0  0  0  0  0
  194.6750  175.6510  146.5230 O   0  0  0  0  0  1  0  0  0  0  0  0
  194.8800  177.7520  145.6730 O   0  0  0  0  0  1  0  0  0  0  0  0
  193.9750  176.7540  146.0370 C   0  0  0  0  0  3  0  0  0  0  0  0
  1  7  2  0  0  0  0
  2  6  1  0  0  0  0
  4  9  1  0  0  0  0
  4 12  2  0  0  0  0
  5  6  2  0  0  0  0
  6  3  1  0  0  0  0
  7 16  1  0  0  0  0
  8 13  2  0  0  0  0
  8  2  1  0  0  0  0
  9 11  1  0  0  0  0
 10  2  1  0  0  0  0
 10  9  2  0  0  0  0
 11  3  2  0  0  0  0
 11  7  1  0  0  0  0
 12  1  1  0  0  0  0
 13  5  1  0  0  0  0
 15 14  1  0  0  0  0
 16 15  1  0  0  0  0
 16 17  2  0  0  0  0
 17 18  1  0  0  0  0
 18 14  2  0  0  0  0
 19 12  1  0  0  0  0
 19 20  1  0  0  0  0
 20 21  1  0  0  0  0
 21 22  2  0  0  0  0
 22 25  1  0  0  0  0
 24 25  1  0  0  0  0
 25 23  1  0  0  0  0
M  END
>  <MODEL>
1

>  <REMARK>
 VINA RESULT:      -7.2      0.000      0.000
  Name = 
  5 active torsions:
  status: ('A' for Active; 'I' for Inactive)
    1  A    between atoms: C_3  and  C_13
    2  A    between atoms: C_10  and  C_23
    3  A    between atoms: C_11  and  C_18
    4  A    between atoms: C_13  and  O_22
    5  A    between atoms: O_22  and  C_24
                            x       y       z     vdW  Elec       q    Type
                         _______ _______ _______ _____ _____    ______ ____

>  <TORSDO>
F 5

$$$$
=
 OpenBabel11042413483D

 25 28  0  0  0  0  0  0  0  0999 V2000
  187.5670  176.3440  145.1760 C   0  0  0  0  0  3  0  0  0  0  0  0
  192.4160  176.5180  146.2760 N   0  0  0  0  0  0  0  0  0  0  0  0
  191.1880  176.1400  144.2780 C   0  0  0  0  0  3  0  0  0  0  0  0
  188.8970  176.7170  147.1560 C   0  0  0  0  0  3  0  0  0  0  0  0
  193.6870  176.1860  144.5170 C   0  0  0  0  0  3  0  0  0  0  0  0
  192.3880  176.2700  144.9670 C   0  0  0  0  0  0  0  0  0  0  0  0
  188.7140  176.1610  144.3880 C   0  0  0  0  0  0  0  0  0  0  0  0
  193.6730  176.5930  146.6630 N   0  0  0  0  0  0  0  0  0  0  0  0
  190.0610  176.5510  146.4090 C   0  0  0  0  0  0  0  0  0  0  0  0
  191.3090  176.6690  147.0380 C   0  0  0  0  0  3  0  0  0  0  0  0
  189.9880  176.2730  145.0070 C   0  0  0  0  0  0  0  0  0  0  0  0
  187.6480  176.6180  146.5480 C   0  0  0  0  0  0  0  0  0  0  0  0
  194.4630  176.3930  145.6130 N   0  0  0  0  0  0  0  0  0  0  0  0
  188.2350  174.9640  140.6440 C   0  0  0  0  0  3  0  0  0  0  0  0
  188.7750  174.4110  142.1340 S   0  0  0  0  0  0  0  0  0  0  0  0
  188.5090  175.8640  142.9450 C   0  0  0  0  0  0  0  0  0  0  0  0
  187.9810  176.7560  142.0140 C   0  0  0  0  0  3  0  0  0  0  0  0
  187.8410  176.2530  140.7560 N   0  0  0  0  0  0  0  0  0  0  0  0
  186.5010  176.7950  147.3270 O   0  0  0  0  0  0  0  0  0  0  0  0
  185.9930  178.0810  147.6630 C   0  0  0  0  0  2  0  0  0  0  0  0
  185.6800  178.8440  146.4200 C   0  0  0  0  0  3  0  0  0  0  0  0
  184.5830  178.5700  145.7170 C   0  0  0  0  0  3  0  0  0  0  0  0
  185.3550  180.1340  144.1320 O   0  0  0  0  0  1  0  0  0  0  0  0
  184.0000  178.4470  143.4290 O   0  0  0  0  0  1  0  0  0  0  0  0
  184.2670  179.3330  144.4730 C   0  0  0  0  0  3  0  0  0  0  0  0
  1 12  1  0  0  0  0
  2  8  1  0  0  0  0
  2 10  1  0  0  0  0
  3  6  1  0  0  0  0
  3 11  2  0  0  0  0
  5  6  2  0  0  0  0
  5 13  1  0  0  0  0
  6  2  1  0  0  0  0
  7 11  1  0  0  0  0
  7  1  2  0  0  0  0
  9 10  2  0  0  0  0
  9  4  1  0  0  0  0
 11  9  1  0  0  0  0
 12  4  2  0  0  0  0
 12 19  1  0  0  0  0
 13  8  2  0  0  0  0
 14 18  2  0  0  0  0
 14 15  1  0  0  0  0
 15 16  1  0  0  0  0
 16  7  1  0  0  0  0
 17 16  2  0  0  0  0
 18 17  1  0  0  0  0
 19 20  1  0  0  0  0
 21 20  1  0  0  0  0
 22 21  2  0  0  0  0
 23 25  1  0  0  0  0
 24 25  1  0  0  0  0
 25 22  1  0  0  0  0
M  END
>  <MODEL>
2

>  <REMARK>
 VINA RESULT:      -6.9      4.056      7.963
  Name = 
  5 active torsions:
  status: ('A' for Active; 'I' for Inactive)
    1  A    between atoms: C_3  and  C_13
    2  A    between atoms: C_10  and  C_23
    3  A    between atoms: C_11  and  C_18
    4  A    between atoms: C_13  and  O_22
    5  A    between atoms: O_22  and  C_24
                            x       y       z     vdW  Elec       q    Type
                         _______ _______ _______ _____ _____    ______ ____

>  <TORSDO>
F 5

$$$$
=
 OpenBabel11042413483D

 25 28  0  0  0  0  0  0  0  0999 V2000
  188.3720  177.8480  144.0700 C   0  0  0  0  0  3  0  0  0  0  0  0
  184.5310  178.0600  140.9150 N   0  0  0  0  0  0  0  0  0  0  0  0
  184.7310  178.1200  143.2820 C   0  0  0  0  0  3  0  0  0  0  0  0
  188.0740  177.7930  141.6750 C   0  0  0  0  0  3  0  0  0  0  0  0
  182.6070  178.2700  141.9500 C   0  0  0  0  0  3  0  0  0  0  0  0
  183.9690  178.1510  142.1200 C   0  0  0  0  0  0  0  0  0  0  0  0
  186.9890  177.9480  144.2830 C   0  0  0  0  0  0  0  0  0  0  0  0
  183.5830  178.1170  140.0020 N   0  0  0  0  0  0  0  0  0  0  0  0
  186.6950  177.9000  141.8420 C   0  0  0  0  0  0  0  0  0  0  0  0
  185.8640  177.9380  140.7120 C   0  0  0  0  0  3  0  0  0  0  0  0
  186.1290  177.9840  143.1530 C   0  0  0  0  0  0  0  0  0  0  0  0
  188.9190  177.7690  142.7820 C   0  0  0  0  0  0  0  0  0  0  0  0
  182.4060  178.2440  140.6060 N   0  0  0  0  0  0  0  0  0  0  0  0
  185.9780  177.7800  148.1070 C   0  0  0  0  0  3  0  0  0  0  0  0
  186.7360  176.8740  146.9150 S   0  0  0  0  0  0  0  0  0  0  0  0
  186.5200  178.0140  145.6940 C   0  0  0  0  0  0  0  0  0  0  0  0
  185.8600  179.1000  146.2640 C   0  0  0  0  0  3  0  0  0  0  0  0
  185.5630  178.9580  147.5860 N   0  0  0  0  0  0  0  0  0  0  0  0
  190.2980  177.6660  142.5770 O   0  0  0  0  0  0  0  0  0  0  0  0
  191.0890  176.6470  143.1760 C   0  0  0  0  0  2  0  0  0  0  0  0
  190.7900  175.3310  142.5380 C   0  0  0  0  0  3  0  0  0  0  0  0
  190.1520  174.3810  143.2170 C   0  0  0  0  0  3  0  0  0  0  0  0
  188.4770  172.9480  142.3820 O   0  0  0  0  0  1  0  0  0  0  0  0
  190.5070  172.9690  141.3540 O   0  0  0  0  0  1  0  0  0  0  0  0
  189.8520  173.0640  142.5820 C   0  0  0  0  0  3  0  0  0  0  0  0
  1  7  2  0  0  0  0
  2  6  1  0  0  0  0
  4  9  1  0  0  0  0
  4 12  2  0  0  0  0
  5  6  2  0  0  0  0
  6  3  1  0  0  0  0
  7 16  1  0  0  0  0
  8 13  2  0  0  0  0
  8  2  1  0  0  0  0
  9 11  1  0  0  0  0
 10  2  1  0  0  0  0
 10  9  2  0  0  0  0
 11  3  2  0  0  0  0
 11  7  1  0  0  0  0
 12  1  1  0  0  0  0
 13  5  1  0  0  0  0
 15 14  1  0  0  0  0
 16 17  2  0  0  0  0
 16 15  1  0  0  0  0
 17 18  1  0  0  0  0
 18 14  2  0  0  0  0
 19 12  1  0  0  0  0
 19 20  1  0  0  0  0
 21 20  1  0  0  0  0
 21 22  2  0  0  0  0
 23 25  1  0  0  0  0
 24 25  1  0  0  0  0
 25 22  1  0  0  0  0
M  END
>  <MODEL>
3

>  <REMARK>
 VINA RESULT:      -6.8      2.106      2.893
  Name = 
  5 active torsions:
  status: ('A' for Active; 'I' for Inactive)
    1  A    between atoms: C_3  and  C_13
    2  A    between atoms: C_10  and  C_23
    3  A    between atoms: C_11  and  C_18
    4  A    between atoms: C_13  and  O_22
    5  A    between atoms: O_22  and  C_24
                            x       y       z     vdW  Elec       q    Type
                         _______ _______ _______ _____ _____    ______ ____

>  <TORSDO>
F 5

$$$$
=
 OpenBabel11042413483D

 25 28  0  0  0  0  0  0  0  0999 V2000
  188.2000  177.3600  144.0400 C   0  0  0  0  0  3  0  0  0  0  0  0
  189.1230  173.6070  140.9070 N   0  0  0  0  0  0  0  0  0  0  0  0
  189.8200  174.1220  143.1190 C   0  0  0  0  0  3  0  0  0  0  0  0
  187.5460  176.7570  141.7950 C   0  0  0  0  0  3  0  0  0  0  0  0
  190.4550  172.0960  141.7790 C   0  0  0  0  0  3  0  0  0  0  0  0
  189.8170  173.2960  142.0010 C   0  0  0  0  0  0  0  0  0  0  0  0
  189.0040  176.2150  144.1590 C   0  0  0  0  0  0  0  0  0  0  0  0
  189.2980  172.6560  140.0130 N   0  0  0  0  0  0  0  0  0  0  0  0
  188.3240  175.6050  141.8760 C   0  0  0  0  0  0  0  0  0  0  0  0
  188.3690  174.7240  140.7850 C   0  0  0  0  0  3  0  0  0  0  0  0
  189.0650  175.3120  143.0640 C   0  0  0  0  0  0  0  0  0  0  0  0
  187.4770  177.6380  142.8720 C   0  0  0  0  0  0  0  0  0  0  0  0
  190.1040  171.7280  140.5180 N   0  0  0  0  0  0  0  0  0  0  0  0
  190.6760  175.4120  147.6570 C   0  0  0  0  0  3  0  0  0  0  0  0
  189.2930  175.0840  146.7640 S   0  0  0  0  0  0  0  0  0  0  0  0
  189.7370  176.0280  145.4400 C   0  0  0  0  0  0  0  0  0  0  0  0
  190.9850  176.5730  145.7320 C   0  0  0  0  0  3  0  0  0  0  0  0
  191.4870  176.2330  146.9510 N   0  0  0  0  0  0  0  0  0  0  0  0
  186.6810  178.7820  142.7590 O   0  0  0  0  0  0  0  0  0  0  0  0
  185.2630  178.7440  142.8630 C   0  0  0  0  0  2  0  0  0  0  0  0
  184.8640  178.0480  144.1210 C   0  0  0  0  0  3  0  0  0  0  0  0
  184.7410  178.7270  145.2590 C   0  0  0  0  0  3  0  0  0  0  0  0
  184.7970  176.7170  146.4870 O   0  0  0  0  0  1  0  0  0  0  0  0
  184.8980  178.6890  147.6180 O   0  0  0  0  0  1  0  0  0  0  0  0
  184.3420  178.0340  146.5190 C   0  0  0  0  0  3  0  0  0  0  0  0
  1  7  2  0  0  0  0
  2  6  1  0  0  0  0
  4  9  1  0  0  0  0
  4 12  2  0  0  0  0
  5  6  2  0  0  0  0
  6  3  1  0  0  0  0
  7 16  1  0  0  0  0
  8 13  2  0  0  0  0
  8  2  1  0  0  0  0
  9 11  1  0  0  0  0
 10  2  1  0  0  0  0
 10  9  2  0  0  0  0
 11  3  2  0  0  0  0
 11  7  1  0  0  0  0
 12  1  1  0  0  0  0
 13  5  1  0  0  0  0
 15 14  1  0  0  0  0
 16 17  2  0  0  0  0
 16 15  1  0  0  0  0
 17 18  1  0  0  0  0
 18 14  2  0  0  0  0
 19 20  1  0  0  0  0
 19 12  1  0  0  0  0
 20 21  1  0  0  0  0
 21 22  2  0  0  0  0
 22 25  1  0  0  0  0
 23 25  1  0  0  0  0
 25 24  1  0  0  0  0
M  END
>  <MODEL>
4

>  <REMARK>
 VINA RESULT:      -6.8      4.241      6.429
  Name = 
  5 active torsions:
  status: ('A' for Active; 'I' for Inactive)
    1  A    between atoms: C_3  and  C_13
    2  A    between atoms: C_10  and  C_23
    3  A    between atoms: C_11  and  C_18
    4  A    between atoms: C_13  and  O_22
    5  A    between atoms: O_22  and  C_24
                            x       y       z     vdW  Elec       q    Type
                         _______ _______ _______ _____ _____    ______ ____

>  <TORSDO>
F 5

$$$$
=
 OpenBabel11042413483D

 25 28  0  0  0  0  0  0  0  0999 V2000
  189.4070  174.9280  144.9540 C   0  0  0  0  0  3  0  0  0  0  0  0
  185.5860  178.1060  145.1750 N   0  0  0  0  0  0  0  0  0  0  0  0
  186.4650  176.6950  143.4770 C   0  0  0  0  0  3  0  0  0  0  0  0
  188.4470  176.3920  146.6160 C   0  0  0  0  0  3  0  0  0  0  0  0
  184.4670  178.2040  143.2880 C   0  0  0  0  0  3  0  0  0  0  0  0
  185.5370  177.6240  143.9330 C   0  0  0  0  0  0  0  0  0  0  0  0
  188.4610  175.3240  143.9960 C   0  0  0  0  0  0  0  0  0  0  0  0
  184.5950  178.9590  145.3340 N   0  0  0  0  0  0  0  0  0  0  0  0
  187.4840  176.8060  145.6980 C   0  0  0  0  0  0  0  0  0  0  0  0
  186.5150  177.7420  146.0880 C   0  0  0  0  0  3  0  0  0  0  0  0
  187.4730  176.2730  144.3700 C   0  0  0  0  0  0  0  0  0  0  0  0
  189.4100  175.4540  146.2530 C   0  0  0  0  0  0  0  0  0  0  0  0
  183.9020  179.0360  144.2020 N   0  0  0  0  0  0  0  0  0  0  0  0
  188.6420  173.3180  140.5870 C   0  0  0  0  0  3  0  0  0  0  0  0
  188.5810  173.0720  142.2460 S   0  0  0  0  0  0  0  0  0  0  0  0
  188.5610  174.7090  142.6440 C   0  0  0  0  0  0  0  0  0  0  0  0
  188.5900  175.4180  141.4460 C   0  0  0  0  0  3  0  0  0  0  0  0
  188.6400  174.6460  140.3260 N   0  0  0  0  0  0  0  0  0  0  0  0
  190.3570  175.0580  147.2010 O   0  0  0  0  0  0  0  0  0  0  0  0
  191.1680  175.9860  147.9100 C   0  0  0  0  0  2  0  0  0  0  0  0
  192.2390  176.5130  147.0160 C   0  0  0  0  0  3  0  0  0  0  0  0
  193.2070  175.7120  146.5750 C   0  0  0  0  0  3  0  0  0  0  0  0
  193.7810  176.3660  144.3850 O   0  0  0  0  0  1  0  0  0  0  0  0
  194.7120  177.4810  146.1370 O   0  0  0  0  0  1  0  0  0  0  0  0
  194.2800  176.2360  145.6800 C   0  0  0  0  0  3  0  0  0  0  0  0
  1 12  1  0  0  0  0
  2  8  1  0  0  0  0
  2 10  1  0  0  0  0
  3  6  1  0  0  0  0
  3 11  2  0  0  0  0
  5  6  2  0  0  0  0
  5 13  1  0  0  0  0
  6  2  1  0  0  0  0
  7 11  1  0  0  0  0
  7  1  2  0  0  0  0
  9 10  2  0  0  0  0
  9  4  1  0  0  0  0
 11  9  1  0  0  0  0
 12  4  2  0  0  0  0
 12 19  1  0  0  0  0
 13  8  2  0  0  0  0
 14 15  1  0  0  0  0
 15 16  1  0  0  0  0
 16  7  1  0  0  0  0
 17 16  2  0  0  0  0
 18 14  2  0  0  0  0
 18 17  1  0  0  0  0
 19 20  1  0  0  0  0
 21 20  1  0  0  0  0
 22 21  2  0  0  0  0
 23 25  1  0  0  0  0
 25 24  1  0  0  0  0
 25 22  1  0  0  0  0
M  END
>  <MODEL>
5

>  <REMARK>
 VINA RESULT:      -6.8      3.089      4.567
  Name = 
  5 active torsions:
  status: ('A' for Active; 'I' for Inactive)
    1  A    between atoms: C_3  and  C_13
    2  A    between atoms: C_10  and  C_23
    3  A    between atoms: C_11  and  C_18
    4  A    between atoms: C_13  and  O_22
    5  A    between atoms: O_22  and  C_24
                            x       y       z     vdW  Elec       q    Type
                         _______ _______ _______ _____ _____    ______ ____

>  <TORSDO>
F 5

$$$$
=
 OpenBabel11042413483D

 25 28  0  0  0  0  0  0  0  0999 V2000
  188.5650  175.9310  145.9570 C   0  0  0  0  0  3  0  0  0  0  0  0
  187.4020  176.5330  141.1580 N   0  0  0  0  0  0  0  0  0  0  0  0
  186.5040  177.3690  143.1930 C   0  0  0  0  0  3  0  0  0  0  0  0
  189.4090  175.1310  143.8420 C   0  0  0  0  0  3  0  0  0  0  0  0
  185.6930  177.8800  140.8730 C   0  0  0  0  0  3  0  0  0  0  0  0
  186.5100  177.2820  141.8060 C   0  0  0  0  0  0  0  0  0  0  0  0
  187.5480  176.6620  145.3240 C   0  0  0  0  0  0  0  0  0  0  0  0
  187.1790  176.6370  139.8640 N   0  0  0  0  0  0  0  0  0  0  0  0
  188.4210  175.8490  143.1730 C   0  0  0  0  0  0  0  0  0  0  0  0
  188.3660  175.8090  141.7720 C   0  0  0  0  0  3  0  0  0  0  0  0
  187.4730  176.6330  143.9060 C   0  0  0  0  0  0  0  0  0  0  0  0
  189.4900  175.1680  145.2320 C   0  0  0  0  0  0  0  0  0  0  0  0
  186.1450  177.4490  139.6660 N   0  0  0  0  0  0  0  0  0  0  0  0
  184.7600  178.4410  147.5010 C   0  0  0  0  0  3  0  0  0  0  0  0
  184.9330  177.3400  146.2460 S   0  0  0  0  0  0  0  0  0  0  0  0
  186.6150  177.4270  146.1950 C   0  0  0  0  0  0  0  0  0  0  0  0
  187.0050  178.3210  147.1900 C   0  0  0  0  0  3  0  0  0  0  0  0
  185.9790  178.8750  147.8950 N   0  0  0  0  0  0  0  0  0  0  0  0
  190.4980  174.4400  145.8700 O   0  0  0  0  0  0  0  0  0  0  0  0
  191.1900  174.9250  147.0130 C   0  0  0  0  0  2  0  0  0  0  0  0
  192.6380  175.0970  146.6960 C   0  0  0  0  0  3  0  0  0  0  0  0
  193.1350  176.3040  146.4370 C   0  0  0  0  0  3  0  0  0  0  0  0
  195.2460  175.2650  146.2990 O   0  0  0  0  0  1  0  0  0  0  0  0
  194.7320  176.8950  144.7970 O   0  0  0  0  0  1  0  0  0  0  0  0
  194.5830  176.4780  146.1190 C   0  0  0  0  0  3  0  0  0  0  0  0
  2 10  1  0  0  0  0
  2  6  1  0  0  0  0
  3 11  2  0  0  0  0
  4 12  2  0  0  0  0
  5  6  2  0  0  0  0
  6  3  1  0  0  0  0
  7  1  2  0  0  0  0
  7 16  1  0  0  0  0
  8  2  1  0  0  0  0
  9  4  1  0  0  0  0
  9 11  1  0  0  0  0
 10  9  2  0  0  0  0
 11  7  1  0  0  0  0
 12 19  1  0  0  0  0
 12  1  1  0  0  0  0
 13  8  2  0  0  0  0
 13  5  1  0  0  0  0
 14 18  2  0  0  0  0
 15 14  1  0  0  0  0
 16 15  1  0  0  0  0
 16 17  2  0  0  0  0
 17 18  1  0  0  0  0
 19 20  1  0  0  0  0
 21 20  1  0  0  0  0
 22 21  2  0  0  0  0
 24 25  1  0  0  0  0
 25 23  1  0  0  0  0
 25 22  1  0  0  0  0
M  END
>  <MODEL>
6

>  <REMARK>
 VINA RESULT:      -6.7      2.052      2.640
  Name = 
  5 active torsions:
  status: ('A' for Active; 'I' for Inactive)
    1  A    between atoms: C_3  and  C_13
    2  A    between atoms: C_10  and  C_23
    3  A    between atoms: C_11  and  C_18
    4  A    between atoms: C_13  and  O_22
    5  A    between atoms: O_22  and  C_24
                            x       y       z     vdW  Elec       q    Type
                         _______ _______ _______ _____ _____    ______ ____

>  <TORSDO>
F 5

$$$$
=
 OpenBabel11042413483D

 25 28  0  0  0  0  0  0  0  0999 V2000
  189.2780  175.2940  143.3560 C   0  0  0  0  0  3  0  0  0  0  0  0
  185.1210  177.8680  144.2760 N   0  0  0  0  0  0  0  0  0  0  0  0
  187.0320  177.3000  145.5680 C   0  0  0  0  0  3  0  0  0  0  0  0
  187.3000  175.9180  142.1200 C   0  0  0  0  0  3  0  0  0  0  0  0
  185.0610  178.6580  146.3230 C   0  0  0  0  0  3  0  0  0  0  0  0
  185.7980  177.9210  145.4230 C   0  0  0  0  0  0  0  0  0  0  0  0
  188.8110  175.9370  144.5120 C   0  0  0  0  0  0  0  0  0  0  0  0
  183.9960  178.5380  144.4200 N   0  0  0  0  0  0  0  0  0  0  0  0
  186.8030  176.5750  143.2430 C   0  0  0  0  0  0  0  0  0  0  0  0
  185.5620  177.2260  143.1700 C   0  0  0  0  0  3  0  0  0  0  0  0
  187.5550  176.5990  144.4600 C   0  0  0  0  0  0  0  0  0  0  0  0
  188.5360  175.2770  142.1670 C   0  0  0  0  0  0  0  0  0  0  0  0
  183.9370  179.0260  145.6550 N   0  0  0  0  0  0  0  0  0  0  0  0
  190.9120  175.4330  147.8300 C   0  0  0  0  0  3  0  0  0  0  0  0
  189.5440  174.8530  147.0490 S   0  0  0  0  0  0  0  0  0  0  0  0
  189.6770  175.8810  145.7200 C   0  0  0  0  0  0  0  0  0  0  0  0
  190.8180  176.6550  145.9200 C   0  0  0  0  0  3  0  0  0  0  0  0
  191.4830  176.4040  147.0810 N   0  0  0  0  0  0  0  0  0  0  0  0
  189.0060  174.6310  141.0200 O   0  0  0  0  0  0  0  0  0  0  0  0
  188.4840  173.3870  140.5710 C   0  0  0  0  0  2  0  0  0  0  0  0
  189.4910  172.3070  140.7850 C   0  0  0  0  0  3  0  0  0  0  0  0
  189.7270  171.8350  142.0070 C   0  0  0  0  0  3  0  0  0  0  0  0
  191.5710  170.6720  141.1120 O   0  0  0  0  0  1  0  0  0  0  0  0
  191.4960  171.0370  143.3570 O   0  0  0  0  0  1  0  0  0  0  0  0
  190.7340  170.7550  142.2240 C   0  0  0  0  0  3  0  0  0  0  0  0
  1  7  2  0  0  0  0
  2  8  1  0  0  0  0
  2  6  1  0  0  0  0
  4 12  2  0  0  0  0
  4  9  1  0  0  0  0
  6  3  1  0  0  0  0
  6  5  2  0  0  0  0
  7 16  1  0  0  0  0
  8 13  2  0  0  0  0
  9 11  1  0  0  0  0
 10  9  2  0  0  0  0
 10  2  1  0  0  0  0
 11  7  1  0  0  0  0
 11  3  2  0  0  0  0
 12  1  1  0  0  0  0
 13  5  1  0  0  0  0
 15 14  1  0  0  0  0
 16 17  2  0  0  0  0
 16 15  1  0  0  0  0
 17 18  1  0  0  0  0
 18 14  2  0  0  0  0
 19 12  1  0  0  0  0
 20 21  1  0  0  0  0
 20 19  1  0  0  0  0
 21 22  2  0  0  0  0
 22 25  1  0  0  0  0
 23 25  1  0  0  0  0
 25 24  1  0  0  0  0
M  END
>  <MODEL>
7

>  <REMARK>
 VINA RESULT:      -6.6      3.911      4.825
  Name = 
  5 active torsions:
  status: ('A' for Active; 'I' for Inactive)
    1  A    between atoms: C_3  and  C_13
    2  A    between atoms: C_10  and  C_23
    3  A    between atoms: C_11  and  C_18
    4  A    between atoms: C_13  and  O_22
    5  A    between atoms: O_22  and  C_24
                            x       y       z     vdW  Elec       q    Type
                         _______ _______ _______ _____ _____    ______ ____

>  <TORSDO>
F 5

$$$$
=
 OpenBabel11042413483D

 25 28  0  0  0  0  0  0  0  0999 V2000
  190.4500  175.6140  144.9810 C   0  0  0  0  0  3  0  0  0  0  0  0
  186.4840  178.0330  146.7630 N   0  0  0  0  0  0  0  0  0  0  0  0
  186.9130  176.8020  144.7770 C   0  0  0  0  0  3  0  0  0  0  0  0
  189.9240  176.8820  146.9670 C   0  0  0  0  0  3  0  0  0  0  0  0
  184.7560  177.9160  145.4150 C   0  0  0  0  0  3  0  0  0  0  0  0
  186.0700  177.5460  145.5930 C   0  0  0  0  0  0  0  0  0  0  0  0
  189.1660  175.8250  144.4540 C   0  0  0  0  0  0  0  0  0  0  0  0
  185.4890  178.6900  147.3220 N   0  0  0  0  0  0  0  0  0  0  0  0
  188.6370  177.1070  146.4850 C   0  0  0  0  0  0  0  0  0  0  0  0
  187.7310  177.8500  147.2570 C   0  0  0  0  0  3  0  0  0  0  0  0
  188.2340  176.5770  145.2180 C   0  0  0  0  0  0  0  0  0  0  0  0
  190.8350  176.1360  146.2220 C   0  0  0  0  0  0  0  0  0  0  0  0
  184.4290  178.6330  146.5220 N   0  0  0  0  0  0  0  0  0  0  0  0
  188.3920  174.6460  140.7540 C   0  0  0  0  0  3  0  0  0  0  0  0
  188.4760  176.0360  141.6930 S   0  0  0  0  0  0  0  0  0  0  0  0
  188.8710  175.2340  143.1210 C   0  0  0  0  0  0  0  0  0  0  0  0
  188.9410  173.8760  142.8170 C   0  0  0  0  0  3  0  0  0  0  0  0
  188.6720  173.5660  141.5190 N   0  0  0  0  0  0  0  0  0  0  0  0
  192.1170  175.9250  146.7390 O   0  0  0  0  0  0  0  0  0  0  0  0
  193.2280  176.7410  146.3920 C   0  0  0  0  0  2  0  0  0  0  0  0
  194.1930  175.9600  145.5640 C   0  0  0  0  0  3  0  0  0  0  0  0
  195.0460  175.1150  146.1380 C   0  0  0  0  0  3  0  0  0  0  0  0
  196.5990  175.1710  144.3660 O   0  0  0  0  0  1  0  0  0  0  0  0
  197.0050  173.7900  146.1290 O   0  0  0  0  0  1  0  0  0  0  0  0
  196.0130  174.3320  145.3120 C   0  0  0  0  0  3  0  0  0  0  0  0
  1 12  1  0  0  0  0
  2 10  1  0  0  0  0
  2  8  1  0  0  0  0
  3 11  2  0  0  0  0
  3  6  1  0  0  0  0
  5  6  2  0  0  0  0
  5 13  1  0  0  0  0
  6  2  1  0  0  0  0
  7  1  2  0  0  0  0
  7 11  1  0  0  0  0
  9  4  1  0  0  0  0
  9 10  2  0  0  0  0
 11  9  1  0  0  0  0
 12 19  1  0  0  0  0
 12  4  2  0  0  0  0
 13  8  2  0  0  0  0
 14 18  2  0  0  0  0
 14 15  1  0  0  0  0
 15 16  1  0  0  0  0
 16  7  1  0  0  0  0
 17 16  2  0  0  0  0
 18 17  1  0  0  0  0
 20 19  1  0  0  0  0
 21 22  2  0  0  0  0
 21 20  1  0  0  0  0
 23 25  1  0  0  0  0
 25 24  1  0  0  0  0
 25 22  1  0  0  0  0
M  END
>  <MODEL>
8

>  <REMARK>
 VINA RESULT:      -6.5      3.436      4.945
  Name = 
  5 active torsions:
  status: ('A' for Active; 'I' for Inactive)
    1  A    between atoms: C_3  and  C_13
    2  A    between atoms: C_10  and  C_23
    3  A    between atoms: C_11  and  C_18
    4  A    between atoms: C_13  and  O_22
    5  A    between atoms: O_22  and  C_24
                            x       y       z     vdW  Elec       q    Type
                         _______ _______ _______ _____ _____    ______ ____

>  <TORSDO>
F 5

$$$$
=
 OpenBabel11042413483D

 25 28  0  0  0  0  0  0  0  0999 V2000
  189.3820  175.3760  143.4370 C   0  0  0  0  0  3  0  0  0  0  0  0
  185.2050  177.9160  144.3630 N   0  0  0  0  0  0  0  0  0  0  0  0
  187.1010  177.3220  145.6670 C   0  0  0  0  0  3  0  0  0  0  0  0
  187.4190  176.0240  142.1910 C   0  0  0  0  0  3  0  0  0  0  0  0
  185.1150  178.6560  146.4280 C   0  0  0  0  0  3  0  0  0  0  0  0
  185.8670  177.9430  145.5200 C   0  0  0  0  0  0  0  0  0  0  0  0
  188.8970  175.9900  144.6030 C   0  0  0  0  0  0  0  0  0  0  0  0
  184.0770  178.5790  144.5080 N   0  0  0  0  0  0  0  0  0  0  0  0
  186.9050  176.6530  143.3220 C   0  0  0  0  0  0  0  0  0  0  0  0
  185.6630  177.3020  143.2480 C   0  0  0  0  0  3  0  0  0  0  0  0
  187.6400  176.6500  144.5500 C   0  0  0  0  0  0  0  0  0  0  0  0
  188.6560  175.3860  142.2390 C   0  0  0  0  0  0  0  0  0  0  0  0
  183.9990  179.0370  145.7540 N   0  0  0  0  0  0  0  0  0  0  0  0
  190.9360  175.4280  147.9500 C   0  0  0  0  0  3  0  0  0  0  0  0
  189.5450  174.9120  147.1650 S   0  0  0  0  0  0  0  0  0  0  0  0
  189.7480  175.9070  145.8210 C   0  0  0  0  0  0  0  0  0  0  0  0
  190.9280  176.6200  146.0190 C   0  0  0  0  0  3  0  0  0  0  0  0
  191.5670  176.3530  147.1920 N   0  0  0  0  0  0  0  0  0  0  0  0
  189.1430  174.7700  141.0830 O   0  0  0  0  0  0  0  0  0  0  0  0
  188.5520  173.6010  140.5280 C   0  0  0  0  0  2  0  0  0  0  0  0
  188.4120  173.7540  139.0510 C   0  0  0  0  0  3  0  0  0  0  0  0
  189.4550  173.5530  138.2490 C   0  0  0  0  0  3  0  0  0  0  0  0
  190.3580  174.4980  136.2880 O   0  0  0  0  0  1  0  0  0  0  0  0
  189.3690  172.4530  136.1580 O   0  0  0  0  0  1  0  0  0  0  0  0
  189.3180  173.7050  136.7710 C   0  0  0  0  0  3  0  0  0  0  0  0
  1  7  2  0  0  0  0
  2  8  1  0  0  0  0
  2  6  1  0  0  0  0
  4 12  2  0  0  0  0
  4  9  1  0  0  0  0
  6  3  1  0  0  0  0
  6  5  2  0  0  0  0
  7 16  1  0  0  0  0
  8 13  2  0  0  0  0
  9 11  1  0  0  0  0
 10  9  2  0  0  0  0
 10  2  1  0  0  0  0
 11  7  1  0  0  0  0
 11  3  2  0  0  0  0
 12  1  1  0  0  0  0
 13  5  1  0  0  0  0
 15 14  1  0  0  0  0
 16 17  2  0  0  0  0
 16 15  1  0  0  0  0
 17 18  1  0  0  0  0
 18 14  2  0  0  0  0
 19 12  1  0  0  0  0
 20 19  1  0  0  0  0
 21 20  1  0  0  0  0
 22 21  2  0  0  0  0
 23 25  1  0  0  0  0
 24 25  1  0  0  0  0
 25 22  1  0  0  0  0
M  END
>  <MODEL>
9

>  <REMARK>
 VINA RESULT:      -6.4      4.084      5.742
  Name = 
  5 active torsions:
  status: ('A' for Active; 'I' for Inactive)
    1  A    between atoms: C_3  and  C_13
    2  A    between atoms: C_10  and  C_23
    3  A    between atoms: C_11  and  C_18
    4  A    between atoms: C_13  and  O_22
    5  A    between atoms: O_22  and  C_24
                            x       y       z     vdW  Elec       q    Type
                         _______ _______ _______ _____ _____    ______ ____

>  <TORSDO>
F 5

$$$$
