=
 OpenBabel11042416163D

 33 36  0  0  1  0  0  0  0  0999 V2000
  189.1350  174.0310  140.6370 C   0  0  0  0  0  3  0  0  0  0  0  0
  189.6310  173.9130  143.8880 C   0  0  0  0  0  2  0  0  0  0  0  0
  189.4400  175.4310  143.8960 C   0  0  1  0  0  3  0  0  0  0  0  0
  188.5500  175.0620  141.1670 C   0  0  0  0  0  0  0  0  0  0  0  0
  188.0560  175.8230  143.3760 C   0  0  0  0  0  2  0  0  0  0  0  0
  188.0640  176.0290  141.8880 C   0  0  0  0  0  0  0  0  0  0  0  0
  189.5830  172.9320  141.5500 C   0  0  0  0  0  2  0  0  0  0  0  0
  190.4660  173.4510  142.6910 C   0  0  0  0  0  2  0  0  0  0  0  0
  188.6890  176.4030  146.0230 N   0  0  0  0  0  0  0  0  0  0  0  0
  189.2650  176.9150  147.2630 C   0  0  0  0  0  2  0  0  0  0  0  0
  190.9390  176.1850  145.8950 C   0  0  0  0  0  0  0  0  0  0  0  0
  189.6470  175.9890  145.2660 C   0  0  0  0  0  0  0  0  0  0  0  0
  190.7420  176.7260  147.0830 C   0  0  0  0  0  3  0  0  0  0  0  0
  193.3480  176.0750  146.3540 C   0  0  0  0  0  3  0  0  0  0  0  0
  194.7280  175.5630  143.6580 C   0  0  0  0  0  3  0  0  0  0  0  0
  194.6280  175.7820  146.1390 C   0  0  0  0  0  3  0  0  0  0  0  0
  193.6090  176.4180  143.3680 N   0  0  0  0  0  0  0  0  0  0  0  0
  192.2800  175.8180  145.3440 C   0  0  2  0  0  3  0  0  0  0  0  0
  195.1850  175.2350  144.8780 C   0  0  0  0  0  0  0  0  0  0  0  0
  192.5400  176.5810  144.0870 C   0  0  0  0  0  3  0  0  0  0  0  0
  196.3610  174.4240  144.9310 N   0  0  0  0  0  2  0  0  0  0  0  0
  196.7850  173.7440  146.1110 C   0  0  0  0  0  3  0  0  0  0  0  0
  196.8160  172.4210  146.1380 C   0  0  0  0  0  2  0  0  0  0  0  0
  186.7900  177.1610  140.2170 O   0  0  0  0  0  1  0  0  0  0  0  0
  187.7080  177.3460  141.2550 C   0  0  1  0  0  3  0  0  0  0  0  0
  184.9420  177.6750  142.0750 O   0  0  0  0  0  0  0  0  0  0  0  0
  185.8210  178.3780  142.6410 C   0  0  0  0  0  0  0  0  0  0  0  0
  187.1910  178.3090  142.2270 N   0  0  0  0  0  2  0  0  0  0  0  0
  185.4370  179.2470  143.7870 C   0  0  0  0  0  2  0  0  0  0  0  0
  184.6590  178.1710  146.6730 C   0  0  0  0  0  2  0  0  0  0  0  0
  186.0050  178.6760  145.0770 C   0  0  0  0  0  3  0  0  0  0  0  0
  185.4200  179.4160  146.2650 C   0  0  0  0  0  2  0  0  0  0  0  0
  185.2360  177.4340  145.4800 C   0  0  0  0  0  2  0  0  0  0  0  0
  1  4  2  0  0  0  0
  1  7  1  0  0  0  0
  2  3  1  0  0  0  0
  3 12  1  1  0  0  0
  4  6  2  0  0  0  0
  5  3  1  0  0  0  0
  6  5  1  0  0  0  0
  7  8  1  0  0  0  0
  8  2  1  0  0  0  0
  9 10  1  0  0  0  0
 11 13  2  0  0  0  0
 12 11  1  0  0  0  0
 12  9  2  0  0  0  0
 13 10  1  0  0  0  0
 15 19  2  0  0  0  0
 16 14  2  0  0  0  0
 17 15  1  0  0  0  0
 17 20  2  0  0  0  0
 18 11  1  1  0  0  0
 18 14  1  0  0  0  0
 19 21  1  0  0  0  0
 19 16  1  0  0  0  0
 20 18  1  0  0  0  0
 21 22  1  0  0  0  0
 22 23  2  0  0  0  0
 25 24  1  6  0  0  0
 25  6  1  0  0  0  0
 25 28  1  0  0  0  0
 26 27  2  0  0  0  0
 27 29  1  0  0  0  0
 28 27  1  0  0  0  0
 29 31  1  0  0  0  0
 31 33  1  0  0  0  0
 31 32  1  0  0  0  0
 32 30  1  0  0  0  0
 33 30  1  0  0  0  0
M  END
>  <MODEL>
1

>  <REMARK>
 VINA RESULT:      -7.9      0.000      0.000
  Name = 
  8 active torsions:
  status: ('A' for Active; 'I' for Inactive)
    1  A    between atoms: C_7  and  C_18
    2  A    between atoms: N_8  and  C_16
    3  A    between atoms: N_8  and  C_26
    4  A    between atoms: C_12  and  C_27
    5  A    between atoms: C_14  and  C_31
    6  A    between atoms: C_19  and  N_23
    7  A    between atoms: C_19  and  C_24
    8  A    between atoms: C_21  and  C_31
                            x       y       z     vdW  Elec       q    Type
                         _______ _______ _______ _____ _____    ______ ____

>  <TORSDO>
F 8

$$$$
=
 OpenBabel11042416163D

 33 36  0  0  1  0  0  0  0  0999 V2000
  186.3220  177.6270  140.5120 C   0  0  0  0  0  3  0  0  0  0  0  0
  184.9960  178.6290  143.3530 C   0  0  0  0  0  2  0  0  0  0  0  0
  186.1540  177.9170  144.0570 C   0  0  1  0  0  3  0  0  0  0  0  0
  187.2720  177.6830  141.3980 C   0  0  0  0  0  0  0  0  0  0  0  0
  187.5060  178.4930  143.6310 C   0  0  0  0  0  2  0  0  0  0  0  0
  188.0560  177.7790  142.4300 C   0  0  0  0  0  0  0  0  0  0  0  0
  185.0180  178.2840  140.8410 C   0  0  0  0  0  2  0  0  0  0  0  0
  184.4500  177.8070  142.1830 C   0  0  0  0  0  2  0  0  0  0  0  0
  184.9970  178.5360  146.1340 N   0  0  0  0  0  0  0  0  0  0  0  0
  185.2160  178.4730  147.5750 C   0  0  0  0  0  2  0  0  0  0  0  0
  186.9990  177.5420  146.4970 C   0  0  0  0  0  0  0  0  0  0  0  0
  186.0090  178.0000  145.5410 C   0  0  0  0  0  0  0  0  0  0  0  0
  186.5520  177.8040  147.7120 C   0  0  0  0  0  3  0  0  0  0  0  0
  188.2810  175.4620  146.7320 C   0  0  0  0  0  3  0  0  0  0  0  0
  191.1780  176.1300  145.9640 C   0  0  0  0  0  3  0  0  0  0  0  0
  189.2910  174.6140  146.5550 C   0  0  0  0  0  3  0  0  0  0  0  0
  190.6720  177.2990  146.6320 N   0  0  0  0  0  0  0  0  0  0  0  0
  188.2950  176.8570  146.2030 C   0  0  2  0  0  3  0  0  0  0  0  0
  190.5740  174.9340  145.8840 C   0  0  0  0  0  0  0  0  0  0  0  0
  189.4280  177.6370  146.7840 C   0  0  0  0  0  3  0  0  0  0  0  0
  191.2960  173.8890  145.2280 N   0  0  0  0  0  2  0  0  0  0  0  0
  192.6750  173.9930  144.8810 C   0  0  0  0  0  3  0  0  0  0  0  0
  193.5690  173.2210  145.4780 C   0  0  0  0  0  2  0  0  0  0  0  0
  190.2950  177.7230  143.2560 O   0  0  0  0  0  1  0  0  0  0  0  0
  189.3680  177.0450  142.4600 C   0  0  1  0  0  3  0  0  0  0  0  0
  188.7570  174.7300  140.8170 O   0  0  0  0  0  0  0  0  0  0  0  0
  188.9850  174.5500  142.0430 C   0  0  0  0  0  0  0  0  0  0  0  0
  189.2210  175.6620  142.9140 N   0  0  0  0  0  2  0  0  0  0  0  0
  189.0630  173.1620  142.5750 C   0  0  0  0  0  2  0  0  0  0  0  0
  191.7260  171.4430  142.3520 C   0  0  0  0  0  2  0  0  0  0  0  0
  189.8900  172.2980  141.6360 C   0  0  0  0  0  3  0  0  0  0  0  0
  191.3400  172.7420  141.6740 C   0  0  0  0  0  2  0  0  0  0  0  0
  190.2750  171.0040  142.3220 C   0  0  0  0  0  2  0  0  0  0  0  0
  1  7  1  0  0  0  0
  1  4  2  0  0  0  0
  2  3  1  0  0  0  0
  3 12  1  1  0  0  0
  4  6  2  0  0  0  0
  5  3  1  0  0  0  0
  6 25  1  0  0  0  0
  6  5  1  0  0  0  0
  7  8  1  0  0  0  0
  8  2  1  0  0  0  0
  9 10  1  0  0  0  0
 10 13  1  0  0  0  0
 11 13  2  0  0  0  0
 12  9  2  0  0  0  0
 12 11  1  0  0  0  0
 15 17  1  0  0  0  0
 16 14  2  0  0  0  0
 17 20  2  0  0  0  0
 18 11  1  1  0  0  0
 18 14  1  0  0  0  0
 18 20  1  0  0  0  0
 19 15  2  0  0  0  0
 19 16  1  0  0  0  0
 21 19  1  0  0  0  0
 22 21  1  0  0  0  0
 22 23  2  0  0  0  0
 25 28  1  0  0  0  0
 25 24  1  1  0  0  0
 26 27  2  0  0  0  0
 27 29  1  0  0  0  0
 27 28  1  0  0  0  0
 31 32  1  0  0  0  0
 31 33  1  0  0  0  0
 31 29  1  0  0  0  0
 32 30  1  0  0  0  0
 33 30  1  0  0  0  0
M  END
>  <MODEL>
2

>  <REMARK>
 VINA RESULT:      -7.7      2.361      5.518
  Name = 
  8 active torsions:
  status: ('A' for Active; 'I' for Inactive)
    1  A    between atoms: C_7  and  C_18
    2  A    between atoms: N_8  and  C_16
    3  A    between atoms: N_8  and  C_26
    4  A    between atoms: C_12  and  C_27
    5  A    between atoms: C_14  and  C_31
    6  A    between atoms: C_19  and  N_23
    7  A    between atoms: C_19  and  C_24
    8  A    between atoms: C_21  and  C_31
                            x       y       z     vdW  Elec       q    Type
                         _______ _______ _______ _____ _____    ______ ____

>  <TORSDO>
F 8

$$$$
=
 OpenBabel11042416163D

 33 36  0  0  1  0  0  0  0  0999 V2000
  188.6670  173.3650  141.9940 C   0  0  0  0  0  3  0  0  0  0  0  0
  189.9620  173.3800  145.0200 C   0  0  0  0  0  2  0  0  0  0  0  0
  190.1600  174.8870  144.8460 C   0  0  1  0  0  3  0  0  0  0  0  0
  188.5160  174.5580  142.4860 C   0  0  0  0  0  0  0  0  0  0  0  0
  188.8270  175.6030  144.6110 C   0  0  0  0  0  2  0  0  0  0  0  0
  188.4920  175.6760  143.1490 C   0  0  0  0  0  0  0  0  0  0  0  0
  189.0560  172.2640  142.9300 C   0  0  0  0  0  2  0  0  0  0  0  0
  190.3100  172.6090  143.7430 C   0  0  0  0  0  2  0  0  0  0  0  0
  190.2570  175.7670  147.1370 N   0  0  0  0  0  0  0  0  0  0  0  0
  191.2330  176.3570  148.0480 C   0  0  0  0  0  2  0  0  0  0  0  0
  192.2550  175.8410  146.0740 C   0  0  0  0  0  0  0  0  0  0  0  0
  190.8520  175.4760  146.0310 C   0  0  0  0  0  0  0  0  0  0  0  0
  192.5100  176.3600  147.2620 C   0  0  0  0  0  3  0  0  0  0  0  0
  193.7050  174.2210  144.9350 C   0  0  0  0  0  3  0  0  0  0  0  0
  195.6700  175.8540  143.2310 C   0  0  0  0  0  3  0  0  0  0  0  0
  194.5650  173.7670  144.0270 C   0  0  0  0  0  3  0  0  0  0  0  0
  195.4540  176.6260  144.4250 N   0  0  0  0  0  0  0  0  0  0  0  0
  193.2760  175.6480  144.9980 C   0  0  2  0  0  3  0  0  0  0  0  0
  195.2590  174.5950  143.0110 C   0  0  0  0  0  0  0  0  0  0  0  0
  194.4440  176.5470  145.2370 C   0  0  0  0  0  3  0  0  0  0  0  0
  195.6480  173.9950  141.7730 N   0  0  0  0  0  2  0  0  0  0  0  0
  195.1600  174.4360  140.5070 C   0  0  0  0  0  3  0  0  0  0  0  0
  193.8580  174.5440  140.3000 C   0  0  0  0  0  2  0  0  0  0  0  0
  187.7600  176.7780  141.1610 O   0  0  0  0  0  1  0  0  0  0  0  0
  188.3170  176.9840  142.4280 C   0  0  1  0  0  3  0  0  0  0  0  0
  185.4640  176.8230  142.9450 O   0  0  0  0  0  0  0  0  0  0  0  0
  186.1140  177.7670  143.4690 C   0  0  0  0  0  0  0  0  0  0  0  0
  187.5090  177.9360  143.1900 N   0  0  0  0  0  2  0  0  0  0  0  0
  185.4350  178.6780  144.4280 C   0  0  0  0  0  2  0  0  0  0  0  0
  185.6970  177.9860  147.5170 C   0  0  0  0  0  2  0  0  0  0  0  0
  184.8210  177.8680  145.5600 C   0  0  0  0  0  3  0  0  0  0  0  0
  185.9110  177.1140  146.2980 C   0  0  0  0  0  2  0  0  0  0  0  0
  184.6140  178.7460  146.7760 C   0  0  0  0  0  2  0  0  0  0  0  0
  1  4  2  0  0  0  0
  1  7  1  0  0  0  0
  3  2  1  0  0  0  0
  3 12  1  1  0  0  0
  4  6  2  0  0  0  0
  5  3  1  0  0  0  0
  6  5  1  0  0  0  0
  7  8  1  0  0  0  0
  8  2  1  0  0  0  0
  9 10  1  0  0  0  0
 11 13  2  0  0  0  0
 12 11  1  0  0  0  0
 12  9  2  0  0  0  0
 13 10  1  0  0  0  0
 14 18  1  0  0  0  0
 15 17  1  0  0  0  0
 16 14  2  0  0  0  0
 17 20  2  0  0  0  0
 18 20  1  0  0  0  0
 18 11  1  1  0  0  0
 19 15  2  0  0  0  0
 19 16  1  0  0  0  0
 21 19  1  0  0  0  0
 22 21  1  0  0  0  0
 23 22  2  0  0  0  0
 25 24  1  6  0  0  0
 25  6  1  0  0  0  0
 25 28  1  0  0  0  0
 26 27  2  0  0  0  0
 27 29  1  0  0  0  0
 28 27  1  0  0  0  0
 29 31  1  0  0  0  0
 31 32  1  0  0  0  0
 31 33  1  0  0  0  0
 32 30  1  0  0  0  0
 33 30  1  0  0  0  0
M  END
>  <MODEL>
3

>  <REMARK>
 VINA RESULT:      -7.7      1.592      2.318
  Name = 
  8 active torsions:
  status: ('A' for Active; 'I' for Inactive)
    1  A    between atoms: C_7  and  C_18
    2  A    between atoms: N_8  and  C_16
    3  A    between atoms: N_8  and  C_26
    4  A    between atoms: C_12  and  C_27
    5  A    between atoms: C_14  and  C_31
    6  A    between atoms: C_19  and  N_23
    7  A    between atoms: C_19  and  C_24
    8  A    between atoms: C_21  and  C_31
                            x       y       z     vdW  Elec       q    Type
                         _______ _______ _______ _____ _____    ______ ____

>  <TORSDO>
F 8

$$$$
=
 OpenBabel11042416163D

 33 36  0  0  1  0  0  0  0  0999 V2000
  191.4020  175.9770  147.2490 C   0  0  0  0  0  3  0  0  0  0  0  0
  189.5050  174.1500  145.2760 C   0  0  0  0  0  2  0  0  0  0  0  0
  190.3210  174.7030  144.1050 C   0  0  1  0  0  3  0  0  0  0  0  0
  192.0740  175.7320  146.1650 C   0  0  0  0  0  0  0  0  0  0  0  0
  191.8030  174.3470  144.2390 C   0  0  0  0  0  2  0  0  0  0  0  0
  192.5550  175.3970  145.0050 C   0  0  0  0  0  0  0  0  0  0  0  0
  190.1580  175.1810  147.4980 C   0  0  0  0  0  2  0  0  0  0  0  0
  189.1890  175.2330  146.3110 C   0  0  0  0  0  2  0  0  0  0  0  0
  190.2370  173.1490  142.2040 N   0  0  0  0  0  0  0  0  0  0  0  0
  189.5170  172.9910  140.9440 C   0  0  0  0  0  3  0  0  0  0  0  0
  188.7600  174.8560  142.0200 C   0  0  0  0  0  0  0  0  0  0  0  0
  189.7920  174.2030  142.8010 C   0  0  2  0  0  3  0  0  0  0  0  0
  188.5720  174.1550  140.9160 C   0  0  0  0  0  3  0  0  0  0  0  0
  186.7670  175.7340  143.1510 C   0  0  0  0  0  3  0  0  0  0  0  0
  186.5200  178.6810  142.3250 C   0  0  0  0  0  3  0  0  0  0  0  0
  185.9360  176.6490  143.6440 C   0  0  0  0  0  3  0  0  0  0  0  0
  187.0260  177.9930  141.1690 N   0  0  0  0  0  0  0  0  0  0  0  0
  187.9930  176.0890  142.3800 C   0  0  2  0  0  3  0  0  0  0  0  0
  186.0600  178.1140  143.4520 C   0  0  0  0  0  0  0  0  0  0  0  0
  187.6450  176.8520  141.1450 C   0  0  0  0  0  3  0  0  0  0  0  0
  185.5360  178.9930  144.4500 N   0  0  0  0  0  2  0  0  0  0  0  0
  184.2850  178.7760  145.1010 C   0  0  0  0  0  3  0  0  0  0  0  0
  184.2550  178.4190  146.3750 C   0  0  0  0  0  2  0  0  0  0  0  0
  194.0000  177.2890  145.1830 O   0  0  0  0  0  1  0  0  0  0  0  0
  193.6980  176.1680  144.4040 C   0  0  1  0  0  3  0  0  0  0  0  0
  195.4400  175.1330  146.4840 O   0  0  0  0  0  0  0  0  0  0  0  0
  195.6720  174.8030  145.2900 C   0  0  0  0  0  0  0  0  0  0  0  0
  194.8900  175.3410  144.2170 N   0  0  0  0  0  2  0  0  0  0  0  0
  196.7360  173.8030  145.0020 C   0  0  0  0  0  2  0  0  0  0  0  0
  195.9710  170.7200  144.9790 C   0  0  0  0  0  2  0  0  0  0  0  0
  196.5440  172.5810  145.8860 C   0  0  0  0  0  3  0  0  0  0  0  0
  195.2260  171.9080  145.5500 C   0  0  0  0  0  2  0  0  0  0  0  0
  197.2890  171.3960  145.3050 C   0  0  0  0  0  2  0  0  0  0  0  0
  1  7  1  0  0  0  0
  2  8  1  0  0  0  0
  3  5  1  1  0  0  0
  3  2  1  0  0  0  0
  4  1  2  0  0  0  0
  5  6  1  0  0  0  0
  6  4  2  0  0  0  0
  8  7  1  0  0  0  0
  9 12  1  0  0  0  0
 10  9  2  0  0  0  0
 12 11  1  6  0  0  0
 12  3  1  0  0  0  0
 13 10  1  0  0  0  0
 13 11  2  0  0  0  0
 14 16  2  0  0  0  0
 15 19  2  0  0  0  0
 17 15  1  0  0  0  0
 18 11  1  6  0  0  0
 18 14  1  0  0  0  0
 19 16  1  0  0  0  0
 19 21  1  0  0  0  0
 20 17  2  0  0  0  0
 20 18  1  0  0  0  0
 21 22  1  0  0  0  0
 22 23  2  0  0  0  0
 25  6  1  0  0  0  0
 25 24  1  1  0  0  0
 27 26  2  0  0  0  0
 28 25  1  0  0  0  0
 28 27  1  0  0  0  0
 29 27  1  0  0  0  0
 29 31  1  0  0  0  0
 30 33  1  0  0  0  0
 30 32  1  0  0  0  0
 32 31  1  0  0  0  0
 33 31  1  0  0  0  0
M  END
>  <MODEL>
4

>  <REMARK>
 VINA RESULT:      -7.7      2.871      8.833
  Name = 
  8 active torsions:
  status: ('A' for Active; 'I' for Inactive)
    1  A    between atoms: C_7  and  C_18
    2  A    between atoms: N_8  and  C_16
    3  A    between atoms: N_8  and  C_26
    4  A    between atoms: C_12  and  C_27
    5  A    between atoms: C_14  and  C_31
    6  A    between atoms: C_19  and  N_23
    7  A    between atoms: C_19  and  C_24
    8  A    between atoms: C_21  and  C_31
                            x       y       z     vdW  Elec       q    Type
                         _______ _______ _______ _____ _____    ______ ____

>  <TORSDO>
F 8

$$$$
=
 OpenBabel11042416163D

 33 36  0  0  1  0  0  0  0  0999 V2000
  193.5060  175.7020  145.4950 C   0  0  0  0  0  3  0  0  0  0  0  0
  191.9050  176.4730  142.7250 C   0  0  0  0  0  2  0  0  0  0  0  0
  190.6140  176.4190  143.5460 C   0  0  1  0  0  3  0  0  0  0  0  0
  192.3900  176.2770  145.8280 C   0  0  0  0  0  0  0  0  0  0  0  0
  190.6370  177.4340  144.6920 C   0  0  0  0  0  2  0  0  0  0  0  0
  191.2240  176.8430  145.9400 C   0  0  0  0  0  0  0  0  0  0  0  0
  193.9470  175.7990  144.0680 C   0  0  0  0  0  2  0  0  0  0  0  0
  192.8600  175.3350  143.0920 C   0  0  0  0  0  2  0  0  0  0  0  0
  188.7370  177.7480  142.6820 N   0  0  0  0  0  0  0  0  0  0  0  0
  187.6260  177.6030  141.7470 C   0  0  0  0  0  3  0  0  0  0  0  0
  188.8470  175.6750  141.7760 C   0  0  0  0  0  0  0  0  0  0  0  0
  189.4200  176.6540  142.6810 C   0  0  2  0  0  3  0  0  0  0  0  0
  187.7850  176.2140  141.2040 C   0  0  0  0  0  3  0  0  0  0  0  0
  188.9070  173.8480  140.1390 C   0  0  0  0  0  3  0  0  0  0  0  0
  190.0390  171.3980  141.6040 C   0  0  0  0  0  3  0  0  0  0  0  0
  189.2700  172.6820  139.6110 C   0  0  0  0  0  3  0  0  0  0  0  0
  189.2440  172.1020  142.5750 N   0  0  0  0  0  0  0  0  0  0  0  0
  189.3580  174.3000  141.4870 C   0  0  2  0  0  3  0  0  0  0  0  0
  190.0970  171.6530  140.2870 C   0  0  0  0  0  0  0  0  0  0  0  0
  188.9000  173.3530  142.5470 C   0  0  0  0  0  3  0  0  0  0  0  0
  190.9030  170.7780  139.4940 N   0  0  0  0  0  2  0  0  0  0  0  0
  190.4520  169.5030  139.0390 C   0  0  0  0  0  3  0  0  0  0  0  0
  190.1140  169.3350  137.7710 C   0  0  0  0  0  2  0  0  0  0  0  0
  191.2500  177.0650  148.3170 O   0  0  0  0  0  1  0  0  0  0  0  0
  190.4460  176.7320  147.2230 C   0  0  1  0  0  3  0  0  0  0  0  0
  187.7860  175.8980  146.4100 O   0  0  0  0  0  0  0  0  0  0  0  0
  187.9350  177.0640  146.8630 C   0  0  0  0  0  0  0  0  0  0  0  0
  189.2360  177.5540  147.2120 N   0  0  0  0  0  2  0  0  0  0  0  0
  186.7380  177.9190  147.0870 C   0  0  0  0  0  2  0  0  0  0  0  0
  184.2590  178.9450  145.3850 C   0  0  0  0  0  2  0  0  0  0  0  0
  185.6080  177.4710  146.1730 C   0  0  0  0  0  3  0  0  0  0  0  0
  184.3010  178.0890  146.6330 C   0  0  0  0  0  2  0  0  0  0  0  0
  185.5700  178.3340  144.9290 C   0  0  0  0  0  2  0  0  0  0  0  0
  1  4  2  0  0  0  0
  2  8  1  0  0  0  0
  3  2  1  6  0  0  0
  3  5  1  0  0  0  0
  4  6  2  0  0  0  0
  5  6  1  0  0  0  0
  6 25  1  0  0  0  0
  7  1  1  0  0  0  0
  8  7  1  0  0  0  0
 10  9  2  0  0  0  0
 12 11  1  1  0  0  0
 12  9  1  0  0  0  0
 12  3  1  0  0  0  0
 13 10  1  0  0  0  0
 13 11  2  0  0  0  0
 14 18  1  0  0  0  0
 15 17  1  0  0  0  0
 16 14  2  0  0  0  0
 16 19  1  0  0  0  0
 18 11  1  1  0  0  0
 18 20  1  0  0  0  0
 19 15  2  0  0  0  0
 20 17  2  0  0  0  0
 21 19  1  0  0  0  0
 22 21  1  0  0  0  0
 23 22  2  0  0  0  0
 25 24  1  1  0  0  0
 26 27  2  0  0  0  0
 27 29  1  0  0  0  0
 27 28  1  0  0  0  0
 28 25  1  0  0  0  0
 30 32  1  0  0  0  0
 31 32  1  0  0  0  0
 31 29  1  0  0  0  0
 33 30  1  0  0  0  0
 33 31  1  0  0  0  0
M  END
>  <MODEL>
5

>  <REMARK>
 VINA RESULT:      -7.6      2.943      5.976
  Name = 
  8 active torsions:
  status: ('A' for Active; 'I' for Inactive)
    1  A    between atoms: C_7  and  C_18
    2  A    between atoms: N_8  and  C_16
    3  A    between atoms: N_8  and  C_26
    4  A    between atoms: C_12  and  C_27
    5  A    between atoms: C_14  and  C_31
    6  A    between atoms: C_19  and  N_23
    7  A    between atoms: C_19  and  C_24
    8  A    between atoms: C_21  and  C_31
                            x       y       z     vdW  Elec       q    Type
                         _______ _______ _______ _____ _____    ______ ____

>  <TORSDO>
F 8

$$$$
=
 OpenBabel11042416163D

 33 36  0  0  1  0  0  0  0  0999 V2000
  190.0150  176.3520  146.9470 C   0  0  0  0  0  3  0  0  0  0  0  0
  193.2640  176.2610  146.4250 C   0  0  0  0  0  2  0  0  0  0  0  0
  192.9460  176.2300  144.9280 C   0  0  1  0  0  3  0  0  0  0  0  0
  190.2430  176.8400  145.7640 C   0  0  0  0  0  0  0  0  0  0  0  0
  192.1640  177.4730  144.4970 C   0  0  0  0  0  2  0  0  0  0  0  0
  190.6830  177.2620  144.6160 C   0  0  0  0  0  0  0  0  0  0  0  0
  191.1810  176.1770  147.8700 C   0  0  0  0  0  2  0  0  0  0  0  0
  192.3130  175.3680  147.2270 C   0  0  0  0  0  2  0  0  0  0  0  0
  195.3300  176.6070  144.4720 N   0  0  0  0  0  0  0  0  0  0  0  0
  196.3070  176.3260  143.4250 C   0  0  0  0  0  3  0  0  0  0  0  0
  194.2820  175.4620  142.8230 C   0  0  0  0  0  0  0  0  0  0  0  0
  194.1950  176.1070  144.1190 C   0  0  2  0  0  3  0  0  0  0  0  0
  195.5250  175.5710  142.3900 C   0  0  0  0  0  3  0  0  0  0  0  0
  192.9320  173.4160  142.6910 C   0  0  0  0  0  3  0  0  0  0  0  0
  191.4640  173.5100  139.9950 C   0  0  0  0  0  3  0  0  0  0  0  0
  191.9700  172.6040  142.2610 C   0  0  0  0  0  3  0  0  0  0  0  0
  192.7520  174.1040  139.7590 N   0  0  0  0  0  0  0  0  0  0  0  0
  193.1890  174.7550  142.0860 C   0  0  2  0  0  3  0  0  0  0  0  0
  191.0760  172.8670  141.1080 C   0  0  0  0  0  0  0  0  0  0  0  0
  193.5470  174.6290  140.6420 C   0  0  0  0  0  3  0  0  0  0  0  0
  189.7670  172.2910  141.0970 N   0  0  0  0  0  2  0  0  0  0  0  0
  188.5800  173.0580  140.9100 C   0  0  0  0  0  3  0  0  0  0  0  0
  187.8910  173.4790  141.9580 C   0  0  0  0  0  2  0  0  0  0  0  0
  189.9440  176.2530  142.5820 O   0  0  0  0  0  1  0  0  0  0  0  0
  189.7590  177.3470  143.4320 C   0  0  1  0  0  3  0  0  0  0  0  0
  187.5840  178.4480  141.8540 O   0  0  0  0  0  0  0  0  0  0  0  0
  187.3130  177.9450  142.9780 C   0  0  0  0  0  0  0  0  0  0  0  0
  188.3550  177.4530  143.8290 N   0  0  0  0  0  2  0  0  0  0  0  0
  185.8910  177.8140  143.3960 C   0  0  0  0  0  2  0  0  0  0  0  0
  184.1350  178.7350  145.8780 C   0  0  0  0  0  2  0  0  0  0  0  0
  185.4900  179.0170  144.2360 C   0  0  0  0  0  3  0  0  0  0  0  0
  183.9830  179.0450  144.4040 C   0  0  0  0  0  2  0  0  0  0  0  0
  185.6420  178.6980  145.7090 C   0  0  0  0  0  2  0  0  0  0  0  0
  1  7  1  0  0  0  0
  2  8  1  0  0  0  0
  3  5  1  6  0  0  0
  3  2  1  0  0  0  0
  4  1  2  0  0  0  0
  5  6  1  0  0  0  0
  6  4  2  0  0  0  0
  8  7  1  0  0  0  0
 10  9  2  0  0  0  0
 12 11  1  6  0  0  0
 12  9  1  0  0  0  0
 12  3  1  0  0  0  0
 13 11  2  0  0  0  0
 13 10  1  0  0  0  0
 15 19  2  0  0  0  0
 16 14  2  0  0  0  0
 17 15  1  0  0  0  0
 17 20  2  0  0  0  0
 18 14  1  0  0  0  0
 18 11  1  1  0  0  0
 19 16  1  0  0  0  0
 20 18  1  0  0  0  0
 21 19  1  0  0  0  0
 22 21  1  0  0  0  0
 22 23  2  0  0  0  0
 25 24  1  6  0  0  0
 25 28  1  0  0  0  0
 25  6  1  0  0  0  0
 26 27  2  0  0  0  0
 27 29  1  0  0  0  0
 27 28  1  0  0  0  0
 29 31  1  0  0  0  0
 31 32  1  0  0  0  0
 31 33  1  0  0  0  0
 32 30  1  0  0  0  0
 33 30  1  0  0  0  0
M  END
>  <MODEL>
6

>  <REMARK>
 VINA RESULT:      -7.5      2.163      5.236
  Name = 
  8 active torsions:
  status: ('A' for Active; 'I' for Inactive)
    1  A    between atoms: C_7  and  C_18
    2  A    between atoms: N_8  and  C_16
    3  A    between atoms: N_8  and  C_26
    4  A    between atoms: C_12  and  C_27
    5  A    between atoms: C_14  and  C_31
    6  A    between atoms: C_19  and  N_23
    7  A    between atoms: C_19  and  C_24
    8  A    between atoms: C_21  and  C_31
                            x       y       z     vdW  Elec       q    Type
                         _______ _______ _______ _____ _____    ______ ____

>  <TORSDO>
F 8

$$$$
=
 OpenBabel11042416163D

 33 36  0  0  1  0  0  0  0  0999 V2000
  186.4120  178.2170  147.6280 C   0  0  0  0  0  3  0  0  0  0  0  0
  185.3740  178.2240  144.5050 C   0  0  0  0  0  2  0  0  0  0  0  0
  186.7410  177.6480  144.1290 C   0  0  1  0  0  3  0  0  0  0  0  0
  187.0830  177.3110  146.9830 C   0  0  0  0  0  0  0  0  0  0  0  0
  186.9910  176.3060  144.8200 C   0  0  0  0  0  2  0  0  0  0  0  0
  187.6540  176.4870  146.1540 C   0  0  0  0  0  0  0  0  0  0  0  0
  185.1950  178.7890  146.9710 C   0  0  0  0  0  2  0  0  0  0  0  0
  185.4920  179.3230  145.5650 C   0  0  0  0  0  2  0  0  0  0  0  0
  186.3210  178.2900  141.7950 N   0  0  0  0  0  0  0  0  0  0  0  0
  186.6220  177.8070  140.4510 C   0  0  0  0  0  3  0  0  0  0  0  0
  187.5650  176.4070  141.9860 C   0  0  0  0  0  0  0  0  0  0  0  0
  186.8670  177.4920  142.6490 C   0  0  2  0  0  3  0  0  0  0  0  0
  187.4420  176.5730  140.6820 C   0  0  0  0  0  3  0  0  0  0  0  0
  189.7910  175.4410  142.3550 C   0  0  0  0  0  3  0  0  0  0  0  0
  189.3450  172.6350  143.5200 C   0  0  0  0  0  3  0  0  0  0  0  0
  190.7050  174.6160  142.8590 C   0  0  0  0  0  3  0  0  0  0  0  0
  188.2770  172.8420  142.5780 N   0  0  0  0  0  0  0  0  0  0  0  0
  188.3330  175.2960  142.6300 C   0  0  2  0  0  3  0  0  0  0  0  0
  190.4190  173.4220  143.6910 C   0  0  0  0  0  0  0  0  0  0  0  0
  187.8260  173.9790  142.1430 C   0  0  0  0  0  3  0  0  0  0  0  0
  191.3950  172.9850  144.6390 N   0  0  0  0  0  2  0  0  0  0  0  0
  192.6160  172.3490  144.2630 C   0  0  0  0  0  3  0  0  0  0  0  0
  192.6730  171.0300  144.1640 C   0  0  0  0  0  2  0  0  0  0  0  0
  188.9760  174.5100  146.3630 O   0  0  0  0  0  1  0  0  0  0  0  0
  189.0040  175.9040  146.4700 C   0  0  1  0  0  3  0  0  0  0  0  0
  191.8270  176.0940  147.1190 O   0  0  0  0  0  0  0  0  0  0  0  0
  191.4500  176.4640  145.9750 C   0  0  0  0  0  0  0  0  0  0  0  0
  190.0610  176.4590  145.6260 N   0  0  0  0  0  2  0  0  0  0  0  0
  192.4670  176.8560  144.9620 C   0  0  0  0  0  2  0  0  0  0  0  0
  195.4700  176.4160  144.0230 C   0  0  0  0  0  2  0  0  0  0  0  0
  193.6350  175.8820  145.0020 C   0  0  0  0  0  3  0  0  0  0  0  0
  194.2000  175.7030  143.6060 C   0  0  0  0  0  2  0  0  0  0  0  0
  194.9010  176.6030  145.4160 C   0  0  0  0  0  2  0  0  0  0  0  0
  2  8  1  0  0  0  0
  3  2  1  6  0  0  0
  3  5  1  0  0  0  0
  4  1  2  0  0  0  0
  5  6  1  0  0  0  0
  6 25  1  0  0  0  0
  6  4  2  0  0  0  0
  7  1  1  0  0  0  0
  8  7  1  0  0  0  0
 10 13  1  0  0  0  0
 10  9  2  0  0  0  0
 11 12  1  0  0  0  0
 12  9  1  6  0  0  0
 12  3  1  0  0  0  0
 13 11  2  0  0  0  0
 14 18  1  0  0  0  0
 14 16  2  0  0  0  0
 15 19  2  0  0  0  0
 16 19  1  0  0  0  0
 17 15  1  0  0  0  0
 18 11  1  6  0  0  0
 19 21  1  0  0  0  0
 20 17  2  0  0  0  0
 20 18  1  0  0  0  0
 22 21  1  0  0  0  0
 23 22  2  0  0  0  0
 25 24  1  6  0  0  0
 27 26  2  0  0  0  0
 28 27  1  0  0  0  0
 28 25  1  0  0  0  0
 29 31  1  0  0  0  0
 29 27  1  0  0  0  0
 30 33  1  0  0  0  0
 31 33  1  0  0  0  0
 32 30  1  0  0  0  0
 32 31  1  0  0  0  0
M  END
>  <MODEL>
7

>  <REMARK>
 VINA RESULT:      -7.5      2.643      6.680
  Name = 
  8 active torsions:
  status: ('A' for Active; 'I' for Inactive)
    1  A    between atoms: C_7  and  C_18
    2  A    between atoms: N_8  and  C_16
    3  A    between atoms: N_8  and  C_26
    4  A    between atoms: C_12  and  C_27
    5  A    between atoms: C_14  and  C_31
    6  A    between atoms: C_19  and  N_23
    7  A    between atoms: C_19  and  C_24
    8  A    between atoms: C_21  and  C_31
                            x       y       z     vdW  Elec       q    Type
                         _______ _______ _______ _____ _____    ______ ____

>  <TORSDO>
F 8

$$$$
=
 OpenBabel11042416163D

 33 36  0  0  1  0  0  0  0  0999 V2000
  191.5870  176.0350  147.4840 C   0  0  0  0  0  3  0  0  0  0  0  0
  189.4150  174.7210  145.3880 C   0  0  0  0  0  2  0  0  0  0  0  0
  190.1570  175.4620  144.2730 C   0  0  1  0  0  3  0  0  0  0  0  0
  192.1450  175.9830  146.3110 C   0  0  0  0  0  0  0  0  0  0  0  0
  191.6210  175.0240  144.1890 C   0  0  0  0  0  2  0  0  0  0  0  0
  192.5000  175.8680  145.0660 C   0  0  0  0  0  0  0  0  0  0  0  0
  190.3240  175.2580  147.6940 C   0  0  0  0  0  2  0  0  0  0  0  0
  189.2590  175.5870  146.6410 C   0  0  0  0  0  2  0  0  0  0  0  0
  189.9070  174.4310  142.0580 N   0  0  0  0  0  0  0  0  0  0  0  0
  189.0320  174.5250  140.8940 C   0  0  0  0  0  3  0  0  0  0  0  0
  188.3180  175.9830  142.4970 C   0  0  0  0  0  0  0  0  0  0  0  0
  189.4850  175.2560  142.9560 C   0  0  2  0  0  3  0  0  0  0  0  0
  188.0230  175.5650  141.2800 C   0  0  0  0  0  3  0  0  0  0  0  0
  186.4020  176.3690  143.9820 C   0  0  0  0  0  3  0  0  0  0  0  0
  185.9490  179.4050  144.0540 C   0  0  0  0  0  3  0  0  0  0  0  0
  185.5810  177.0490  144.7780 C   0  0  0  0  0  3  0  0  0  0  0  0
  186.3750  179.1060  142.7140 N   0  0  0  0  0  0  0  0  0  0  0  0
  187.5340  177.0090  143.2530 C   0  0  2  0  0  3  0  0  0  0  0  0
  185.6210  178.5140  145.0040 C   0  0  0  0  0  0  0  0  0  0  0  0
  187.0390  178.0620  142.3180 C   0  0  0  0  0  3  0  0  0  0  0  0
  185.1540  179.0390  146.2490 N   0  0  0  0  0  2  0  0  0  0  0  0
  185.5010  178.4740  147.5120 C   0  0  0  0  0  3  0  0  0  0  0  0
  186.7100  178.6670  148.0140 C   0  0  0  0  0  2  0  0  0  0  0  0
  194.1450  177.5410  145.5040 O   0  0  0  0  0  1  0  0  0  0  0  0
  193.6300  176.6950  144.5180 C   0  0  1  0  0  3  0  0  0  0  0  0
  194.3300  176.4650  141.7090 O   0  0  0  0  0  0  0  0  0  0  0  0
  195.0370  175.8520  142.5540 C   0  0  0  0  0  0  0  0  0  0  0  0
  194.6950  175.8710  143.9450 N   0  0  0  0  0  2  0  0  0  0  0  0
  196.2680  175.1470  142.1040 C   0  0  0  0  0  2  0  0  0  0  0  0
  197.6150  173.9410  139.4920 C   0  0  0  0  0  2  0  0  0  0  0  0
  196.4730  175.3720  140.6140 C   0  0  0  0  0  3  0  0  0  0  0  0
  197.9390  175.2010  140.2670 C   0  0  0  0  0  2  0  0  0  0  0  0
  196.1500  174.1060  139.8470 C   0  0  0  0  0  2  0  0  0  0  0  0
  1  7  1  0  0  0  0
  2  8  1  0  0  0  0
  3  5  1  6  0  0  0
  3  2  1  0  0  0  0
  4  1  2  0  0  0  0
  5  6  1  0  0  0  0
  6  4  2  0  0  0  0
  8  7  1  0  0  0  0
 10 13  1  0  0  0  0
 10  9  2  0  0  0  0
 11 12  1  0  0  0  0
 12  9  1  6  0  0  0
 12  3  1  0  0  0  0
 13 11  2  0  0  0  0
 14 16  2  0  0  0  0
 15 19  2  0  0  0  0
 16 19  1  0  0  0  0
 17 15  1  0  0  0  0
 18 11  1  6  0  0  0
 18 14  1  0  0  0  0
 19 21  1  0  0  0  0
 20 17  2  0  0  0  0
 20 18  1  0  0  0  0
 21 22  1  0  0  0  0
 22 23  2  0  0  0  0
 25  6  1  0  0  0  0
 25 24  1  1  0  0  0
 26 27  2  0  0  0  0
 27 28  1  0  0  0  0
 28 25  1  0  0  0  0
 29 27  1  0  0  0  0
 30 33  1  0  0  0  0
 30 32  1  0  0  0  0
 31 29  1  0  0  0  0
 32 31  1  0  0  0  0
 33 31  1  0  0  0  0
M  END
>  <MODEL>
8

>  <REMARK>
 VINA RESULT:      -7.5      3.026      8.718
  Name = 
  8 active torsions:
  status: ('A' for Active; 'I' for Inactive)
    1  A    between atoms: C_7  and  C_18
    2  A    between atoms: N_8  and  C_16
    3  A    between atoms: N_8  and  C_26
    4  A    between atoms: C_12  and  C_27
    5  A    between atoms: C_14  and  C_31
    6  A    between atoms: C_19  and  N_23
    7  A    between atoms: C_19  and  C_24
    8  A    between atoms: C_21  and  C_31
                            x       y       z     vdW  Elec       q    Type
                         _______ _______ _______ _____ _____    ______ ____

>  <TORSDO>
F 8

$$$$
=
 OpenBabel11042416163D

 33 36  0  0  1  0  0  0  0  0999 V2000
  191.3490  176.2600  143.0780 C   0  0  0  0  0  3  0  0  0  0  0  0
  189.9490  177.5550  145.7610 C   0  0  0  0  0  2  0  0  0  0  0  0
  188.6120  177.0490  145.2150 C   0  0  1  0  0  3  0  0  0  0  0  0
  190.2440  175.6150  143.3020 C   0  0  0  0  0  0  0  0  0  0  0  0
  188.6170  175.5280  145.0470 C   0  0  0  0  0  2  0  0  0  0  0  0
  189.1020  175.1250  143.6850 C   0  0  0  0  0  0  0  0  0  0  0  0
  191.8760  177.1450  144.1640 C   0  0  0  0  0  2  0  0  0  0  0  0
  190.8270  178.1490  144.6550 C   0  0  0  0  0  2  0  0  0  0  0  0
  187.5710  177.5420  147.3850 N   0  0  0  0  0  0  0  0  0  0  0  0
  186.2690  177.9330  147.9160 C   0  0  0  0  0  2  0  0  0  0  0  0
  186.1410  177.7700  145.6430 C   0  0  0  0  0  0  0  0  0  0  0  0
  187.4820  177.4610  146.1000 C   0  0  0  0  0  0  0  0  0  0  0  0
  185.4020  178.0600  146.6990 C   0  0  0  0  0  3  0  0  0  0  0  0
  186.6600  178.4410  143.3400 C   0  0  0  0  0  3  0  0  0  0  0  0
  184.0420  178.2060  141.7510 C   0  0  0  0  0  3  0  0  0  0  0  0
  186.4960  178.5450  142.0240 C   0  0  0  0  0  3  0  0  0  0  0  0
  183.6630  178.6520  143.0650 N   0  0  0  0  0  0  0  0  0  0  0  0
  185.6490  177.8010  144.2310 C   0  0  2  0  0  3  0  0  0  0  0  0
  185.2930  178.1150  141.2710 C   0  0  0  0  0  0  0  0  0  0  0  0
  184.3440  178.5230  144.1630 C   0  0  0  0  0  3  0  0  0  0  0  0
  185.4330  177.7130  139.9060 N   0  0  0  0  0  2  0  0  0  0  0  0
  186.6190  177.1110  139.3900 C   0  0  0  0  0  3  0  0  0  0  0  0
  186.6270  176.6060  138.1670 C   0  0  0  0  0  2  0  0  0  0  0  0
  187.0950  175.0700  142.3920 O   0  0  0  0  0  1  0  0  0  0  0  0
  188.2460  174.3480  142.7220 C   0  0  1  0  0  3  0  0  0  0  0  0
  189.6950  171.8730  142.2680 O   0  0  0  0  0  0  0  0  0  0  0  0
  189.6150  172.7020  141.3220 C   0  0  0  0  0  0  0  0  0  0  0  0
  188.9750  173.9690  141.5110 N   0  0  0  0  0  2  0  0  0  0  0  0
  190.1450  172.3340  139.9810 C   0  0  0  0  0  2  0  0  0  0  0  0
  189.6350  172.9850  136.9140 C   0  0  0  0  0  2  0  0  0  0  0  0
  189.0610  172.5220  138.9310 C   0  0  0  0  0  3  0  0  0  0  0  0
  189.3190  173.7980  138.1520 C   0  0  0  0  0  2  0  0  0  0  0  0
  189.3860  171.7100  137.6950 C   0  0  0  0  0  2  0  0  0  0  0  0
  1  4  2  0  0  0  0
  1  7  1  0  0  0  0
  3  2  1  0  0  0  0
  3 12  1  1  0  0  0
  4  6  2  0  0  0  0
  5  3  1  0  0  0  0
  6  5  1  0  0  0  0
  7  8  1  0  0  0  0
  8  2  1  0  0  0  0
  9 10  1  0  0  0  0
 11 12  1  0  0  0  0
 11 13  2  0  0  0  0
 12  9  2  0  0  0  0
 13 10  1  0  0  0  0
 14 18  1  0  0  0  0
 15 17  1  0  0  0  0
 16 14  2  0  0  0  0
 17 20  2  0  0  0  0
 18 11  1  1  0  0  0
 19 15  2  0  0  0  0
 19 16  1  0  0  0  0
 20 18  1  0  0  0  0
 21 19  1  0  0  0  0
 22 21  1  0  0  0  0
 23 22  2  0  0  0  0
 25 24  1  6  0  0  0
 25  6  1  0  0  0  0
 27 28  1  0  0  0  0
 27 26  2  0  0  0  0
 28 25  1  0  0  0  0
 29 27  1  0  0  0  0
 30 33  1  0  0  0  0
 30 32  1  0  0  0  0
 31 29  1  0  0  0  0
 32 31  1  0  0  0  0
 33 31  1  0  0  0  0
M  END
>  <MODEL>
9

>  <REMARK>
 VINA RESULT:      -7.3      3.066      7.773
  Name = 
  8 active torsions:
  status: ('A' for Active; 'I' for Inactive)
    1  A    between atoms: C_7  and  C_18
    2  A    between atoms: N_8  and  C_16
    3  A    between atoms: N_8  and  C_26
    4  A    between atoms: C_12  and  C_27
    5  A    between atoms: C_14  and  C_31
    6  A    between atoms: C_19  and  N_23
    7  A    between atoms: C_19  and  C_24
    8  A    between atoms: C_21  and  C_31
                            x       y       z     vdW  Elec       q    Type
                         _______ _______ _______ _____ _____    ______ ____

>  <TORSDO>
F 8

$$$$
