=
 OpenBabel11042416223D

 38 41  0  0  1  0  0  0  0  0999 V2000
  193.5640  171.0670  144.6670 C   0  0  0  0  0  0  0  0  0  0  0  0
  191.6980  171.4210  143.1570 C   0  0  0  0  0  0  0  0  0  0  0  0
  189.7110  171.9340  141.6210 C   0  0  0  0  0  3  0  0  0  0  0  0
  192.6330  170.5880  143.8670 N   0  0  0  0  0  0  0  0  0  0  0  0
  191.7850  172.7200  143.3210 C   0  0  0  0  0  0  0  0  0  0  0  0
  190.9250  173.6890  142.7500 C   0  0  0  0  0  0  0  0  0  0  0  0
  190.6020  170.8630  142.2660 C   0  0  0  0  0  3  0  0  0  0  0  0
  192.7220  173.3640  144.1580 C   0  0  0  0  0  0  0  0  0  0  0  0
  191.2870  174.8940  143.1970 C   0  0  0  0  0  3  0  0  0  0  0  0
  194.4530  170.1730  145.3360 N   0  0  0  0  0  2  0  0  0  0  0  0
  189.8460  173.2560  141.8560 C   0  0  0  0  0  0  0  0  0  0  0  0
  193.7360  172.5660  144.9220 C   0  0  0  0  0  3  0  0  0  0  0  0
  192.4510  174.6720  144.1080 C   0  0  0  0  0  0  0  0  0  0  0  0
  193.1550  175.7310  144.8520 C   0  0  0  0  0  0  0  0  0  0  0  0
  193.6540  176.7150  144.2410 O   0  0  0  0  0  0  0  0  0  0  0  0
  193.3030  175.6260  146.3390 C   0  0  1  0  0  3  0  0  0  0  0  0
  194.0120  176.8580  146.8740 C   0  0  0  0  0  1  0  0  0  0  0  0
  191.9430  175.4670  146.9980 C   0  0  0  0  0  2  0  0  0  0  0  0
  191.3510  176.7780  147.2560 N   0  0  0  0  0  2  0  0  0  0  0  0
  190.1170  177.5130  145.2590 C   0  0  0  0  0  1  0  0  0  0  0  0
  190.0260  176.8720  146.6360 C   0  0  0  0  0  0  0  0  0  0  0  0
  189.1570  177.6100  147.4430 O   0  0  0  0  0  1  0  0  0  0  0  0
  189.4670  175.4740  146.4720 C   0  0  0  0  0  1  0  0  0  0  0  0
  194.3600  168.7280  145.1970 C   0  0  0  0  0  2  0  0  0  0  0  0
  195.9270  168.5600  143.2710 C   0  0  0  0  0  1  0  0  0  0  0  0
  195.6850  168.1660  144.7170 C   0  0  0  0  0  2  0  0  0  0  0  0
  188.9540  174.2390  141.1820 C   0  0  0  0  0  2  0  0  0  0  0  0
  187.8030  174.5150  142.0270 N   0  0  0  0  0  2  0  0  0  0  0  0
  186.1970  176.0590  143.0870 N   0  0  0  0  0  2  0  0  0  0  0  0
  187.2780  175.8330  142.1770 C   0  0  0  0  0  0  0  0  0  0  0  0
  187.7670  176.7920  141.5200 O   0  0  0  0  0  0  0  0  0  0  0  0
  185.5880  177.3690  143.2670 C   0  0  0  0  0  2  0  0  0  0  0  0
  185.5480  179.2940  144.7980 O   0  0  0  0  0  0  0  0  0  0  0  0
  186.2010  178.0760  144.4780 C   0  0  1  0  0  3  0  0  0  0  0  0
  186.3270  177.1510  145.6950 C   0  0  0  0  0  2  0  0  0  0  0  0
  184.9660  176.9280  146.3450 C   0  0  0  0  0  2  0  0  0  0  0  0
  184.2710  178.2630  146.5730 C   0  0  0  0  0  2  0  0  0  0  0  0
  184.2380  179.0260  145.2530 C   0  0  0  0  0  2  0  0  0  0  0  0
  1 12  1  0  0  0  0
  1 10  1  0  0  0  0
  2  5  1  0  0  0  0
  2  4  1  0  0  0  0
  3 11  2  0  0  0  0
  3  7  1  0  0  0  0
  4  1  2  0  0  0  0
  5  8  1  0  0  0  0
  6  9  1  0  0  0  0
  6  5  2  0  0  0  0
  7  2  2  0  0  0  0
  8 12  2  0  0  0  0
  9 13  2  0  0  0  0
 11  6  1  0  0  0  0
 13  8  1  0  0  0  0
 13 14  1  0  0  0  0
 14 16  1  0  0  0  0
 15 14  2  0  0  0  0
 16 17  1  1  0  0  0
 16 18  1  0  0  0  0
 18 19  1  0  0  0  0
 20 21  1  0  0  0  0
 21 19  1  0  0  0  0
 21 22  1  0  0  0  0
 23 21  1  0  0  0  0
 24 10  1  0  0  0  0
 25 26  1  0  0  0  0
 26 24  1  0  0  0  0
 27 11  1  0  0  0  0
 27 28  1  0  0  0  0
 28 30  1  0  0  0  0
 29 32  1  0  0  0  0
 30 29  1  0  0  0  0
 31 30  2  0  0  0  0
 33 38  1  0  0  0  0
 34 32  1  6  0  0  0
 34 33  1  0  0  0  0
 34 35  1  0  0  0  0
 35 36  1  0  0  0  0
 36 37  1  0  0  0  0
 38 37  1  0  0  0  0
M  END
>  <MODEL>
1

>  <REMARK>
 VINA RESULT:      -7.1      0.000      0.000
  Name = 
  11 active torsions:
  status: ('A' for Active; 'I' for Inactive)
    1  A    between atoms: C_1  and  C_6
    2  A    between atoms: C_1  and  C_36
    3  A    between atoms: N_4  and  C_38
    4  A    between atoms: C_6  and  C_10
    5  A    between atoms: C_7  and  C_22
    6  A    between atoms: N_9  and  C_10
    7  A    between atoms: N_9  and  C_11
    8  A    between atoms: N_12  and  C_22
    9  A    between atoms: N_28  and  C_34
   10  A    between atoms: C_30  and  C_38
   11  A    between atoms: C_34  and  C_37
                            x       y       z     vdW  Elec       q    Type
                         _______ _______ _______ _____ _____    ______ ____

>  <TORSDO>
F 11

$$$$
=
 OpenBabel11042416223D

 38 41  0  0  1  0  0  0  0  0999 V2000
  183.4610  178.3800  142.3430 C   0  0  0  0  0  0  0  0  0  0  0  0
  184.3280  178.5070  144.6060 C   0  0  0  0  0  0  0  0  0  0  0  0
  185.3600  178.5500  146.9510 C   0  0  0  0  0  3  0  0  0  0  0  0
  183.2880  178.6490  143.6210 N   0  0  0  0  0  0  0  0  0  0  0  0
  185.5040  178.0890  144.2000 C   0  0  0  0  0  0  0  0  0  0  0  0
  186.6280  177.8390  145.0240 C   0  0  0  0  0  0  0  0  0  0  0  0
  184.1150  178.7820  146.0840 C   0  0  0  0  0  2  0  0  0  0  0  0
  185.8210  177.7500  142.8660 C   0  0  0  0  0  0  0  0  0  0  0  0
  187.6160  177.3630  144.2630 C   0  0  0  0  0  3  0  0  0  0  0  0
  182.3760  178.5470  141.4300 N   0  0  0  0  0  2  0  0  0  0  0  0
  186.5320  178.0940  146.4660 C   0  0  0  0  0  0  0  0  0  0  0  0
  184.7940  177.8810  141.7820 C   0  0  0  0  0  2  0  0  0  0  0  0
  187.0830  177.3100  142.8680 C   0  0  0  0  0  0  0  0  0  0  0  0
  187.8290  176.8140  141.6980 C   0  0  0  0  0  0  0  0  0  0  0  0
  188.1600  177.6050  140.7730 O   0  0  0  0  0  0  0  0  0  0  0  0
  188.1710  175.3600  141.5920 C   0  0  1  0  0  3  0  0  0  0  0  0
  188.1390  174.9280  140.1360 C   0  0  0  0  0  1  0  0  0  0  0  0
  189.5390  175.0910  142.1950 C   0  0  0  0  0  2  0  0  0  0  0  0
  189.4060  174.3020  143.4190 N   0  0  0  0  0  2  0  0  0  0  0  0
  189.1250  172.0350  142.5060 C   0  0  0  0  0  1  0  0  0  0  0  0
  190.0410  172.9910  143.2540 C   0  0  0  0  0  0  0  0  0  0  0  0
  190.3760  172.4490  144.4970 O   0  0  0  0  0  1  0  0  0  0  0  0
  191.3090  173.1660  142.4440 C   0  0  0  0  0  1  0  0  0  0  0  0
  181.0540  178.9800  141.8570 C   0  0  0  0  0  2  0  0  0  0  0  0
  179.3490  178.4800  140.1140 C   0  0  0  0  0  1  0  0  0  0  0  0
  180.2830  179.5360  140.6750 C   0  0  0  0  0  2  0  0  0  0  0  0
  187.7030  177.9070  147.3670 C   0  0  0  0  0  2  0  0  0  0  0  0
  188.3930  176.6740  147.0230 N   0  0  0  0  0  2  0  0  0  0  0  0
  190.4420  175.3250  146.7500 N   0  0  0  0  0  2  0  0  0  0  0  0
  189.8040  176.5300  147.1850 C   0  0  0  0  0  0  0  0  0  0  0  0
  190.4840  177.4610  147.6970 O   0  0  0  0  0  0  0  0  0  0  0  0
  191.8700  175.0950  146.9140 C   0  0  0  0  0  2  0  0  0  0  0  0
  192.4660  175.9450  144.6840 O   0  0  0  0  0  0  0  0  0  0  0  0
  192.5220  174.8270  145.5560 C   0  0  1  0  0  3  0  0  0  0  0  0
  193.9450  174.2680  145.6890 C   0  0  0  0  0  2  0  0  0  0  0  0
  194.9200  175.3690  146.0910 C   0  0  0  0  0  2  0  0  0  0  0  0
  194.7450  176.5790  145.1840 C   0  0  0  0  0  2  0  0  0  0  0  0
  193.2750  176.9850  145.1930 C   0  0  0  0  0  2  0  0  0  0  0  0
  1  4  2  0  0  0  0
  2  7  1  0  0  0  0
  4  2  1  0  0  0  0
  5  2  2  0  0  0  0
  5  6  1  0  0  0  0
  6 11  1  0  0  0  0
  7  3  1  0  0  0  0
  8 13  2  0  0  0  0
  8  5  1  0  0  0  0
  9  6  2  0  0  0  0
 10 24  1  0  0  0  0
 10  1  1  0  0  0  0
 11  3  2  0  0  0  0
 11 27  1  0  0  0  0
 12  1  1  0  0  0  0
 12  8  1  0  0  0  0
 13  9  1  0  0  0  0
 14 13  1  0  0  0  0
 15 14  2  0  0  0  0
 16 17  1  6  0  0  0
 16 14  1  0  0  0  0
 16 18  1  0  0  0  0
 18 19  1  0  0  0  0
 20 21  1  0  0  0  0
 21 19  1  0  0  0  0
 21 22  1  0  0  0  0
 23 21  1  0  0  0  0
 25 26  1  0  0  0  0
 26 24  1  0  0  0  0
 28 30  1  0  0  0  0
 28 27  1  0  0  0  0
 29 32  1  0  0  0  0
 29 30  1  0  0  0  0
 30 31  2  0  0  0  0
 33 38  1  0  0  0  0
 33 34  1  0  0  0  0
 34 35  1  0  0  0  0
 34 32  1  1  0  0  0
 35 36  1  0  0  0  0
 37 38  1  0  0  0  0
 37 36  1  0  0  0  0
M  END
>  <MODEL>
2

>  <REMARK>
 VINA RESULT:      -7.0      2.796      9.538
  Name = 
  11 active torsions:
  status: ('A' for Active; 'I' for Inactive)
    1  A    between atoms: C_1  and  C_6
    2  A    between atoms: C_1  and  C_36
    3  A    between atoms: N_4  and  C_38
    4  A    between atoms: C_6  and  C_10
    5  A    between atoms: C_7  and  C_22
    6  A    between atoms: N_9  and  C_10
    7  A    between atoms: N_9  and  C_11
    8  A    between atoms: N_12  and  C_22
    9  A    between atoms: N_28  and  C_34
   10  A    between atoms: C_30  and  C_38
   11  A    between atoms: C_34  and  C_37
                            x       y       z     vdW  Elec       q    Type
                         _______ _______ _______ _____ _____    ______ ____

>  <TORSDO>
F 11

$$$$
=
 OpenBabel11042416223D

 38 41  0  0  1  0  0  0  0  0999 V2000
  193.6100  171.4860  144.9630 C   0  0  0  0  0  0  0  0  0  0  0  0
  191.9250  171.6990  143.2310 C   0  0  0  0  0  0  0  0  0  0  0  0
  190.0960  172.0530  141.4700 C   0  0  0  0  0  3  0  0  0  0  0  0
  192.8980  170.9580  143.9880 N   0  0  0  0  0  0  0  0  0  0  0  0
  191.7450  172.9640  143.5330 C   0  0  0  0  0  0  0  0  0  0  0  0
  190.8010  173.8350  142.9370 C   0  0  0  0  0  0  0  0  0  0  0  0
  191.0790  171.0780  142.1330 C   0  0  0  0  0  3  0  0  0  0  0  0
  192.4270  173.6500  144.5630 C   0  0  0  0  0  0  0  0  0  0  0  0
  190.8700  175.0180  143.5510 C   0  0  0  0  0  3  0  0  0  0  0  0
  194.5560  170.6810  145.6680 N   0  0  0  0  0  2  0  0  0  0  0  0
  189.9490  173.3380  141.8520 C   0  0  0  0  0  0  0  0  0  0  0  0
  193.4630  172.9480  145.3880 C   0  0  0  0  0  3  0  0  0  0  0  0
  191.9250  174.8870  144.6010 C   0  0  0  0  0  0  0  0  0  0  0  0
  192.3150  175.9500  145.5450 C   0  0  0  0  0  0  0  0  0  0  0  0
  191.6180  176.1750  146.5720 O   0  0  0  0  0  0  0  0  0  0  0  0
  193.5250  176.7880  145.2680 C   0  0  1  0  0  3  0  0  0  0  0  0
  194.4300  176.8030  146.4870 C   0  0  0  0  0  1  0  0  0  0  0  0
  194.2730  176.2550  144.0570 C   0  0  0  0  0  2  0  0  0  0  0  0
  195.6920  176.5980  144.1490 N   0  0  0  0  0  2  0  0  0  0  0  0
  196.7580  174.4710  144.7710 C   0  0  0  0  0  1  0  0  0  0  0  0
  196.5180  175.4880  143.6660 C   0  0  0  0  0  0  0  0  0  0  0  0
  197.7420  175.9610  143.1860 O   0  0  0  0  0  1  0  0  0  0  0  0
  195.7880  174.7960  142.5330 C   0  0  0  0  0  1  0  0  0  0  0  0
  194.7540  169.2690  145.3740 C   0  0  0  0  0  2  0  0  0  0  0  0
  194.6030  168.5830  147.7610 C   0  0  0  0  0  1  0  0  0  0  0  0
  195.4800  168.5970  146.5230 C   0  0  0  0  0  2  0  0  0  0  0  0
  188.9850  174.2310  141.1510 C   0  0  0  0  0  2  0  0  0  0  0  0
  187.8460  174.4950  142.0160 N   0  0  0  0  0  2  0  0  0  0  0  0
  186.2470  176.0240  143.1090 N   0  0  0  0  0  2  0  0  0  0  0  0
  187.3150  175.8100  142.1800 C   0  0  0  0  0  0  0  0  0  0  0  0
  187.7880  176.7750  141.5200 O   0  0  0  0  0  0  0  0  0  0  0  0
  185.6340  177.3300  143.3040 C   0  0  0  0  0  2  0  0  0  0  0  0
  185.6290  179.2630  144.8260 O   0  0  0  0  0  0  0  0  0  0  0  0
  186.2730  178.0420  144.4980 C   0  0  1  0  0  3  0  0  0  0  0  0
  186.4240  177.1230  145.7170 C   0  0  0  0  0  2  0  0  0  0  0  0
  185.0770  176.9050  146.3970 C   0  0  0  0  0  2  0  0  0  0  0  0
  184.3890  178.2420  146.6340 C   0  0  0  0  0  2  0  0  0  0  0  0
  184.3280  178.9980  145.3100 C   0  0  0  0  0  2  0  0  0  0  0  0
  1 12  1  0  0  0  0
  1 10  1  0  0  0  0
  2  5  1  0  0  0  0
  2  4  1  0  0  0  0
  3 11  2  0  0  0  0
  3  7  1  0  0  0  0
  4  1  2  0  0  0  0
  5  8  1  0  0  0  0
  6  5  2  0  0  0  0
  6  9  1  0  0  0  0
  7  2  2  0  0  0  0
  8 13  1  0  0  0  0
  8 12  2  0  0  0  0
  9 13  2  0  0  0  0
 11  6  1  0  0  0  0
 13 14  1  0  0  0  0
 14 15  2  0  0  0  0
 16 14  1  0  0  0  0
 16 17  1  1  0  0  0
 18 19  1  0  0  0  0
 18 16  1  0  0  0  0
 21 19  1  0  0  0  0
 21 20  1  0  0  0  0
 22 21  1  0  0  0  0
 23 21  1  0  0  0  0
 24 10  1  0  0  0  0
 24 26  1  0  0  0  0
 26 25  1  0  0  0  0
 27 11  1  0  0  0  0
 27 28  1  0  0  0  0
 28 30  1  0  0  0  0
 29 32  1  0  0  0  0
 30 29  1  0  0  0  0
 31 30  2  0  0  0  0
 33 38  1  0  0  0  0
 34 32  1  6  0  0  0
 34 33  1  0  0  0  0
 34 35  1  0  0  0  0
 35 36  1  0  0  0  0
 36 37  1  0  0  0  0
 38 37  1  0  0  0  0
M  END
>  <MODEL>
3

>  <REMARK>
 VINA RESULT:      -6.9      1.727      3.006
  Name = 
  11 active torsions:
  status: ('A' for Active; 'I' for Inactive)
    1  A    between atoms: C_1  and  C_6
    2  A    between atoms: C_1  and  C_36
    3  A    between atoms: N_4  and  C_38
    4  A    between atoms: C_6  and  C_10
    5  A    between atoms: C_7  and  C_22
    6  A    between atoms: N_9  and  C_10
    7  A    between atoms: N_9  and  C_11
    8  A    between atoms: N_12  and  C_22
    9  A    between atoms: N_28  and  C_34
   10  A    between atoms: C_30  and  C_38
   11  A    between atoms: C_34  and  C_37
                            x       y       z     vdW  Elec       q    Type
                         _______ _______ _______ _____ _____    ______ ____

>  <TORSDO>
F 11

$$$$
=
 OpenBabel11042416223D

 38 41  0  0  1  0  0  0  0  0999 V2000
  187.4590  176.8640  142.9730 C   0  0  0  0  0  0  0  0  0  0  0  0
  188.2530  174.8110  141.9540 C   0  0  0  0  0  0  0  0  0  0  0  0
  189.1950  172.6310  140.9890 C   0  0  0  0  0  3  0  0  0  0  0  0
  187.5380  176.0600  141.9330 N   0  0  0  0  0  0  0  0  0  0  0  0
  188.8520  174.4650  143.0690 C   0  0  0  0  0  0  0  0  0  0  0  0
  189.6410  173.3050  143.2640 C   0  0  0  0  0  0  0  0  0  0  0  0
  188.3740  173.9050  140.7410 C   0  0  0  0  0  3  0  0  0  0  0  0
  188.8610  175.2380  144.2510 C   0  0  0  0  0  0  0  0  0  0  0  0
  190.1340  173.3310  144.5040 C   0  0  0  0  0  3  0  0  0  0  0  0
  186.7300  178.0880  142.8710 N   0  0  0  0  0  2  0  0  0  0  0  0
  189.8040  172.3530  142.1600 C   0  0  0  0  0  0  0  0  0  0  0  0
  188.1300  176.5450  144.3110 C   0  0  0  0  0  3  0  0  0  0  0  0
  189.6230  174.5850  145.1340 C   0  0  0  0  0  0  0  0  0  0  0  0
  189.9450  175.0370  146.4990 C   0  0  0  0  0  0  0  0  0  0  0  0
  189.3110  174.5770  147.4880 O   0  0  0  0  0  0  0  0  0  0  0  0
  191.0110  176.0670  146.7130 C   0  0  1  0  0  3  0  0  0  0  0  0
  190.5020  177.1480  147.6510 C   0  0  0  0  0  1  0  0  0  0  0  0
  192.2670  175.4230  147.2760 C   0  0  0  0  0  2  0  0  0  0  0  0
  193.4420  175.8670  146.5270 N   0  0  0  0  0  2  0  0  0  0  0  0
  193.4000  175.1960  144.1610 C   0  0  0  0  0  1  0  0  0  0  0  0
  193.8550  174.8390  145.5670 C   0  0  0  0  0  0  0  0  0  0  0  0
  193.3360  173.5930  145.9290 O   0  0  0  0  0  1  0  0  0  0  0  0
  195.3670  174.7530  145.5700 C   0  0  0  0  0  1  0  0  0  0  0  0
  186.0830  178.5110  141.6380 C   0  0  0  0  0  2  0  0  0  0  0  0
  184.0850  178.3340  143.1120 C   0  0  0  0  0  1  0  0  0  0  0  0
  184.6020  178.1870  141.6930 C   0  0  0  0  0  2  0  0  0  0  0  0
  190.5720  171.0890  142.3320 C   0  0  0  0  0  2  0  0  0  0  0  0
  191.9970  171.3770  142.3150 N   0  0  0  0  0  2  0  0  0  0  0  0
  194.3020  171.0310  143.1280 N   0  0  0  0  0  2  0  0  0  0  0  0
  192.9230  170.6480  143.1210 C   0  0  0  0  0  0  0  0  0  0  0  0
  192.5270  169.6820  143.8290 O   0  0  0  0  0  0  0  0  0  0  0  0
  195.3070  170.3140  143.8980 C   0  0  0  0  0  2  0  0  0  0  0  0
  194.6420  170.5540  146.2550 O   0  0  0  0  0  0  0  0  0  0  0  0
  195.5320  171.0040  145.2460 C   0  0  1  0  0  3  0  0  0  0  0  0
  196.9960  170.9420  145.6980 C   0  0  0  0  0  2  0  0  0  0  0  0
  197.3460  169.5460  146.2020 C   0  0  0  0  0  2  0  0  0  0  0  0
  196.3020  169.0770  147.2070 C   0  0  0  0  0  2  0  0  0  0  0  0
  194.9220  169.2060  146.5700 C   0  0  0  0  0  2  0  0  0  0  0  0
  1 12  1  0  0  0  0
  2  5  1  0  0  0  0
  3 11  2  0  0  0  0
  4  2  1  0  0  0  0
  4  1  2  0  0  0  0
  5  6  2  0  0  0  0
  5  8  1  0  0  0  0
  6  9  1  0  0  0  0
  7  3  1  0  0  0  0
  7  2  2  0  0  0  0
  8 12  2  0  0  0  0
  8 13  1  0  0  0  0
  9 13  2  0  0  0  0
 10  1  1  0  0  0  0
 11 27  1  0  0  0  0
 11  6  1  0  0  0  0
 13 14  1  0  0  0  0
 14 16  1  0  0  0  0
 14 15  2  0  0  0  0
 16 18  1  0  0  0  0
 16 17  1  1  0  0  0
 19 18  1  0  0  0  0
 20 21  1  0  0  0  0
 21 23  1  0  0  0  0
 21 22  1  0  0  0  0
 21 19  1  0  0  0  0
 24 26  1  0  0  0  0
 24 10  1  0  0  0  0
 26 25  1  0  0  0  0
 28 27  1  0  0  0  0
 28 30  1  0  0  0  0
 29 32  1  0  0  0  0
 30 29  1  0  0  0  0
 30 31  2  0  0  0  0
 33 38  1  0  0  0  0
 34 32  1  6  0  0  0
 34 35  1  0  0  0  0
 34 33  1  0  0  0  0
 35 36  1  0  0  0  0
 36 37  1  0  0  0  0
 38 37  1  0  0  0  0
M  END
>  <MODEL>
4

>  <REMARK>
 VINA RESULT:      -6.6      2.462      8.495
  Name = 
  11 active torsions:
  status: ('A' for Active; 'I' for Inactive)
    1  A    between atoms: C_1  and  C_6
    2  A    between atoms: C_1  and  C_36
    3  A    between atoms: N_4  and  C_38
    4  A    between atoms: C_6  and  C_10
    5  A    between atoms: C_7  and  C_22
    6  A    between atoms: N_9  and  C_10
    7  A    between atoms: N_9  and  C_11
    8  A    between atoms: N_12  and  C_22
    9  A    between atoms: N_28  and  C_34
   10  A    between atoms: C_30  and  C_38
   11  A    between atoms: C_34  and  C_37
                            x       y       z     vdW  Elec       q    Type
                         _______ _______ _______ _____ _____    ______ ____

>  <TORSDO>
F 11

$$$$
=
 OpenBabel11042416223D

 38 41  0  0  1  0  0  0  0  0999 V2000
  187.8330  176.5600  146.2980 C   0  0  0  0  0  0  0  0  0  0  0  0
  190.1380  176.7330  147.0380 C   0  0  0  0  0  0  0  0  0  0  0  0
  192.6040  176.7940  147.7320 C   0  0  0  0  0  3  0  0  0  0  0  0
  188.7300  177.0110  147.1510 N   0  0  0  0  0  0  0  0  0  0  0  0
  190.5370  175.9940  146.0300 C   0  0  0  0  0  0  0  0  0  0  0  0
  191.8670  175.5740  145.7830 C   0  0  0  0  0  0  0  0  0  0  0  0
  191.1630  177.2220  148.0450 C   0  0  0  0  0  2  0  0  0  0  0  0
  189.6840  175.4340  145.0530 C   0  0  0  0  0  0  0  0  0  0  0  0
  191.8700  174.7840  144.7070 C   0  0  0  0  0  3  0  0  0  0  0  0
  186.4540  176.8810  146.4820 N   0  0  0  0  0  2  0  0  0  0  0  0
  192.9380  176.0100  146.6860 C   0  0  0  0  0  0  0  0  0  0  0  0
  188.2070  175.6870  145.0980 C   0  0  0  0  0  2  0  0  0  0  0  0
  190.4520  174.7010  144.2420 C   0  0  0  0  0  0  0  0  0  0  0  0
  189.9850  173.9040  143.0940 C   0  0  0  0  0  0  0  0  0  0  0  0
  189.6430  172.7010  143.2520 O   0  0  0  0  0  0  0  0  0  0  0  0
  189.9450  174.5170  141.7280 C   0  0  1  0  0  3  0  0  0  0  0  0
  190.3190  173.4770  140.6860 C   0  0  0  0  0  1  0  0  0  0  0  0
  188.5640  175.0830  141.4410 C   0  0  0  0  0  2  0  0  0  0  0  0
  188.5370  176.5170  141.7260 N   0  0  0  0  0  2  0  0  0  0  0  0
  187.0670  178.3160  142.5360 C   0  0  0  0  0  1  0  0  0  0  0  0
  187.1550  177.0040  141.7700 C   0  0  0  0  0  0  0  0  0  0  0  0
  186.3190  176.0550  142.3630 O   0  0  0  0  0  1  0  0  0  0  0  0
  186.6820  177.2500  140.3530 C   0  0  0  0  0  1  0  0  0  0  0  0
  185.9790  177.6720  147.6060 C   0  0  0  0  0  2  0  0  0  0  0  0
  185.2900  179.2240  145.7870 C   0  0  0  0  0  1  0  0  0  0  0  0
  184.9160  178.6500  147.1410 C   0  0  0  0  0  2  0  0  0  0  0  0
  194.3600  175.6470  146.4360 C   0  0  0  0  0  2  0  0  0  0  0  0
  194.8810  176.4390  145.3340 N   0  0  0  0  0  2  0  0  0  0  0  0
  196.2750  176.7170  143.3160 N   0  0  0  0  0  2  0  0  0  0  0  0
  195.7230  175.8710  144.3300 C   0  0  0  0  0  0  0  0  0  0  0  0
  195.9860  174.6380  144.3430 O   0  0  0  0  0  0  0  0  0  0  0  0
  197.1140  176.2030  142.2430 C   0  0  0  0  0  2  0  0  0  0  0  0
  197.1130  175.7780  139.8200 O   0  0  0  0  0  0  0  0  0  0  0  0
  196.4280  176.4090  140.8910 C   0  0  1  0  0  3  0  0  0  0  0  0
  194.9410  176.0340  140.9250 C   0  0  0  0  0  2  0  0  0  0  0  0
  194.7670  174.5190  140.9340 C   0  0  0  0  0  2  0  0  0  0  0  0
  195.6020  173.8910  139.8280 C   0  0  0  0  0  2  0  0  0  0  0  0
  197.0420  174.3760  139.9700 C   0  0  0  0  0  2  0  0  0  0  0  0
  1 10  1  0  0  0  0
  1  4  2  0  0  0  0
  2  4  1  0  0  0  0
  2  7  1  0  0  0  0
  3  7  1  0  0  0  0
  5  2  2  0  0  0  0
  6  5  1  0  0  0  0
  6 11  1  0  0  0  0
  8 12  1  0  0  0  0
  8  5  1  0  0  0  0
  9  6  2  0  0  0  0
 10 24  1  0  0  0  0
 11  3  2  0  0  0  0
 12  1  1  0  0  0  0
 13  9  1  0  0  0  0
 13  8  2  0  0  0  0
 14 15  2  0  0  0  0
 14 13  1  0  0  0  0
 16 17  1  6  0  0  0
 16 14  1  0  0  0  0
 18 19  1  0  0  0  0
 18 16  1  0  0  0  0
 19 21  1  0  0  0  0
 21 22  1  0  0  0  0
 21 20  1  0  0  0  0
 23 21  1  0  0  0  0
 25 26  1  0  0  0  0
 26 24  1  0  0  0  0
 27 11  1  0  0  0  0
 28 27  1  0  0  0  0
 29 30  1  0  0  0  0
 30 31  2  0  0  0  0
 30 28  1  0  0  0  0
 32 29  1  0  0  0  0
 33 38  1  0  0  0  0
 33 34  1  0  0  0  0
 34 35  1  0  0  0  0
 34 32  1  1  0  0  0
 35 36  1  0  0  0  0
 37 38  1  0  0  0  0
 37 36  1  0  0  0  0
M  END
>  <MODEL>
5

>  <REMARK>
 VINA RESULT:      -6.5      3.224      8.876
  Name = 
  11 active torsions:
  status: ('A' for Active; 'I' for Inactive)
    1  A    between atoms: C_1  and  C_6
    2  A    between atoms: C_1  and  C_36
    3  A    between atoms: N_4  and  C_38
    4  A    between atoms: C_6  and  C_10
    5  A    between atoms: C_7  and  C_22
    6  A    between atoms: N_9  and  C_10
    7  A    between atoms: N_9  and  C_11
    8  A    between atoms: N_12  and  C_22
    9  A    between atoms: N_28  and  C_34
   10  A    between atoms: C_30  and  C_38
   11  A    between atoms: C_34  and  C_37
                            x       y       z     vdW  Elec       q    Type
                         _______ _______ _______ _____ _____    ______ ____

>  <TORSDO>
F 11

$$$$
=
 OpenBabel11042416223D

 38 41  0  0  1  0  0  0  0  0999 V2000
  194.2510  171.2250  144.7390 C   0  0  0  0  0  0  0  0  0  0  0  0
  192.0670  171.9600  143.9800 C   0  0  0  0  0  0  0  0  0  0  0  0
  189.8210  172.8730  143.1510 C   0  0  0  0  0  3  0  0  0  0  0  0
  192.9450  171.0650  144.6890 N   0  0  0  0  0  0  0  0  0  0  0  0
  192.6050  172.9800  143.3560 C   0  0  0  0  0  0  0  0  0  0  0  0
  191.9030  173.9900  142.6530 C   0  0  0  0  0  0  0  0  0  0  0  0
  190.5580  171.7940  143.9570 C   0  0  0  0  0  2  0  0  0  0  0  0
  193.9860  173.2780  143.3410 C   0  0  0  0  0  0  0  0  0  0  0  0
  192.7830  174.8900  142.2110 C   0  0  0  0  0  3  0  0  0  0  0  0
  195.0530  170.2930  145.4660 N   0  0  0  0  0  2  0  0  0  0  0  0
  190.4410  173.9110  142.5530 C   0  0  0  0  0  0  0  0  0  0  0  0
  194.9640  172.3880  144.0470 C   0  0  0  0  0  2  0  0  0  0  0  0
  194.1280  174.4200  142.6610 C   0  0  0  0  0  0  0  0  0  0  0  0
  195.3960  175.1310  142.4190 C   0  0  0  0  0  0  0  0  0  0  0  0
  195.8300  175.2750  141.2440 O   0  0  0  0  0  0  0  0  0  0  0  0
  196.1880  175.6600  143.5750 C   0  0  1  0  0  3  0  0  0  0  0  0
  197.3830  176.4450  143.0640 C   0  0  0  0  0  1  0  0  0  0  0  0
  195.3160  176.5350  144.4600 C   0  0  0  0  0  2  0  0  0  0  0  0
  194.9460  175.8130  145.6770 N   0  0  0  0  0  2  0  0  0  0  0  0
  192.8840  176.9980  145.0490 C   0  0  0  0  0  1  0  0  0  0  0  0
  193.6200  176.2350  146.1390 C   0  0  0  0  0  0  0  0  0  0  0  0
  193.7300  177.0320  147.2810 O   0  0  0  0  0  1  0  0  0  0  0  0
  192.8120  175.0010  146.4840 C   0  0  0  0  0  1  0  0  0  0  0  0
  194.4800  169.1700  146.1920 C   0  0  0  0  0  2  0  0  0  0  0  0
  196.8490  169.2640  146.9480 C   0  0  0  0  0  1  0  0  0  0  0  0
  195.4970  168.6100  147.1690 C   0  0  0  0  0  2  0  0  0  0  0  0
  189.6610  174.9120  141.7740 C   0  0  0  0  0  2  0  0  0  0  0  0
  188.5150  175.3520  142.5520 N   0  0  0  0  0  2  0  0  0  0  0  0
  187.4770  176.7230  144.3230 N   0  0  0  0  0  2  0  0  0  0  0  0
  188.6190  176.3900  143.5270 C   0  0  0  0  0  0  0  0  0  0  0  0
  189.7100  177.0020  143.6910 O   0  0  0  0  0  0  0  0  0  0  0  0
  187.4990  177.7920  145.3100 C   0  0  0  0  0  2  0  0  0  0  0  0
  186.8890  178.3040  147.6380 O   0  0  0  0  0  0  0  0  0  0  0  0
  186.9380  177.2930  146.6430 C   0  0  1  0  0  3  0  0  0  0  0  0
  185.5900  176.5770  146.4800 C   0  0  0  0  0  2  0  0  0  0  0  0
  184.4720  177.5840  146.2320 C   0  0  0  0  0  2  0  0  0  0  0  0
  184.5320  178.6960  147.2700 C   0  0  0  0  0  2  0  0  0  0  0  0
  185.9400  179.2840  147.2730 C   0  0  0  0  0  2  0  0  0  0  0  0
  1 10  1  0  0  0  0
  2  4  1  0  0  0  0
  3  7  1  0  0  0  0
  4  1  2  0  0  0  0
  5  2  2  0  0  0  0
  6  5  1  0  0  0  0
  7  2  1  0  0  0  0
  8  5  1  0  0  0  0
  8 12  1  0  0  0  0
  9  6  2  0  0  0  0
  9 13  1  0  0  0  0
 10 24  1  0  0  0  0
 11  6  1  0  0  0  0
 11  3  2  0  0  0  0
 12  1  1  0  0  0  0
 13  8  2  0  0  0  0
 14 13  1  0  0  0  0
 14 16  1  0  0  0  0
 15 14  2  0  0  0  0
 16 17  1  6  0  0  0
 16 18  1  0  0  0  0
 18 19  1  0  0  0  0
 19 21  1  0  0  0  0
 20 21  1  0  0  0  0
 21 23  1  0  0  0  0
 21 22  1  0  0  0  0
 24 26  1  0  0  0  0
 25 26  1  0  0  0  0
 27 28  1  0  0  0  0
 27 11  1  0  0  0  0
 28 30  1  0  0  0  0
 29 32  1  0  0  0  0
 30 31  2  0  0  0  0
 30 29  1  0  0  0  0
 34 32  1  6  0  0  0
 34 33  1  0  0  0  0
 35 34  1  0  0  0  0
 36 35  1  0  0  0  0
 36 37  1  0  0  0  0
 37 38  1  0  0  0  0
 38 33  1  0  0  0  0
M  END
>  <MODEL>
6

>  <REMARK>
 VINA RESULT:      -6.5      2.072      2.617
  Name = 
  11 active torsions:
  status: ('A' for Active; 'I' for Inactive)
    1  A    between atoms: C_1  and  C_6
    2  A    between atoms: C_1  and  C_36
    3  A    between atoms: N_4  and  C_38
    4  A    between atoms: C_6  and  C_10
    5  A    between atoms: C_7  and  C_22
    6  A    between atoms: N_9  and  C_10
    7  A    between atoms: N_9  and  C_11
    8  A    between atoms: N_12  and  C_22
    9  A    between atoms: N_28  and  C_34
   10  A    between atoms: C_30  and  C_38
   11  A    between atoms: C_34  and  C_37
                            x       y       z     vdW  Elec       q    Type
                         _______ _______ _______ _____ _____    ______ ____

>  <TORSDO>
F 11

$$$$
=
 OpenBabel11042416223D

 38 41  0  0  1  0  0  0  0  0999 V2000
  193.7390  173.0780  144.5130 C   0  0  0  0  0  0  0  0  0  0  0  0
  192.2850  173.2190  142.5750 C   0  0  0  0  0  0  0  0  0  0  0  0
  190.6320  173.3820  140.6240 C   0  0  0  0  0  3  0  0  0  0  0  0
  193.5230  172.8830  143.2280 N   0  0  0  0  0  0  0  0  0  0  0  0
  191.3300  173.7460  143.3050 C   0  0  0  0  0  0  0  0  0  0  0  0
  190.0330  174.0910  142.8530 C   0  0  0  0  0  0  0  0  0  0  0  0
  192.0270  172.9570  141.1020 C   0  0  0  0  0  3  0  0  0  0  0  0
  191.4210  173.9940  144.6930 C   0  0  0  0  0  0  0  0  0  0  0  0
  189.3250  174.5350  143.8930 C   0  0  0  0  0  3  0  0  0  0  0  0
  194.9960  172.7160  145.0850 N   0  0  0  0  0  2  0  0  0  0  0  0
  189.6890  173.8970  141.4400 C   0  0  0  0  0  0  0  0  0  0  0  0
  192.6810  173.6810  145.4410 C   0  0  0  0  0  3  0  0  0  0  0  0
  190.2330  174.4690  145.0790 C   0  0  0  0  0  0  0  0  0  0  0  0
  189.8540  174.8370  146.4550 C   0  0  0  0  0  0  0  0  0  0  0  0
  189.2500  174.0090  147.1910 O   0  0  0  0  0  0  0  0  0  0  0  0
  190.1600  176.2080  146.9720 C   0  0  1  0  0  3  0  0  0  0  0  0
  191.5440  176.2250  147.5980 C   0  0  0  0  0  1  0  0  0  0  0  0
  190.0720  177.2300  145.8510 C   0  0  0  0  0  2  0  0  0  0  0  0
  191.4040  177.5070  145.3130 N   0  0  0  0  0  2  0  0  0  0  0  0
  192.1930  177.2050  143.0040 C   0  0  0  0  0  1  0  0  0  0  0  0
  191.3070  178.0110  143.9410 C   0  0  0  0  0  0  0  0  0  0  0  0
  191.6670  179.3600  143.8870 O   0  0  0  0  0  1  0  0  0  0  0  0
  189.8720  177.8740  143.4740 C   0  0  0  0  0  1  0  0  0  0  0  0
  196.0610  172.1030  144.3070 C   0  0  0  0  0  2  0  0  0  0  0  0
  197.2790  173.9510  145.4450 C   0  0  0  0  0  1  0  0  0  0  0  0
  197.2540  173.0360  144.2340 C   0  0  0  0  0  2  0  0  0  0  0  0
  188.3610  174.3010  140.9020 C   0  0  0  0  0  2  0  0  0  0  0  0
  188.1180  175.7030  141.1990 N   0  0  0  0  0  2  0  0  0  0  0  0
  186.8040  177.5180  142.2330 N   0  0  0  0  0  2  0  0  0  0  0  0
  187.0470  176.1200  142.0450 C   0  0  0  0  0  0  0  0  0  0  0  0
  186.3150  175.2640  142.6130 O   0  0  0  0  0  0  0  0  0  0  0  0
  185.7520  178.0160  143.1070 C   0  0  0  0  0  2  0  0  0  0  0  0
  185.6000  179.5280  145.0420 O   0  0  0  0  0  0  0  0  0  0  0  0
  186.3460  178.4820  144.4380 C   0  0  1  0  0  3  0  0  0  0  0  0
  186.5990  177.3200  145.4060 C   0  0  0  0  0  2  0  0  0  0  0  0
  185.2900  176.8260  146.0100 C   0  0  0  0  0  2  0  0  0  0  0  0
  184.4880  178.0010  146.5520 C   0  0  0  0  0  2  0  0  0  0  0  0
  184.3370  179.0390  145.4450 C   0  0  0  0  0  2  0  0  0  0  0  0
  1 10  1  0  0  0  0
  1 12  1  0  0  0  0
  2  4  1  0  0  0  0
  2  5  1  0  0  0  0
  3  7  1  0  0  0  0
  3 11  2  0  0  0  0
  4  1  2  0  0  0  0
  5  8  1  0  0  0  0
  6  5  2  0  0  0  0
  6  9  1  0  0  0  0
  7  2  2  0  0  0  0
  8 13  1  0  0  0  0
  8 12  2  0  0  0  0
  9 13  2  0  0  0  0
 11  6  1  0  0  0  0
 13 14  1  0  0  0  0
 14 16  1  0  0  0  0
 14 15  2  0  0  0  0
 16 17  1  6  0  0  0
 18 16  1  0  0  0  0
 19 18  1  0  0  0  0
 20 21  1  0  0  0  0
 21 19  1  0  0  0  0
 22 21  1  0  0  0  0
 23 21  1  0  0  0  0
 24 10  1  0  0  0  0
 26 24  1  0  0  0  0
 26 25  1  0  0  0  0
 27 28  1  0  0  0  0
 27 11  1  0  0  0  0
 28 30  1  0  0  0  0
 29 32  1  0  0  0  0
 30 29  1  0  0  0  0
 30 31  2  0  0  0  0
 33 38  1  0  0  0  0
 34 32  1  6  0  0  0
 34 33  1  0  0  0  0
 34 35  1  0  0  0  0
 35 36  1  0  0  0  0
 36 37  1  0  0  0  0
 38 37  1  0  0  0  0
M  END
>  <MODEL>
7

>  <REMARK>
 VINA RESULT:      -6.5      1.956      2.702
  Name = 
  11 active torsions:
  status: ('A' for Active; 'I' for Inactive)
    1  A    between atoms: C_1  and  C_6
    2  A    between atoms: C_1  and  C_36
    3  A    between atoms: N_4  and  C_38
    4  A    between atoms: C_6  and  C_10
    5  A    between atoms: C_7  and  C_22
    6  A    between atoms: N_9  and  C_10
    7  A    between atoms: N_9  and  C_11
    8  A    between atoms: N_12  and  C_22
    9  A    between atoms: N_28  and  C_34
   10  A    between atoms: C_30  and  C_38
   11  A    between atoms: C_34  and  C_37
                            x       y       z     vdW  Elec       q    Type
                         _______ _______ _______ _____ _____    ______ ____

>  <TORSDO>
F 11

$$$$
=
 OpenBabel11042416223D

 38 41  0  0  1  0  0  0  0  0999 V2000
  186.8120  177.1170  141.7720 C   0  0  0  0  0  0  0  0  0  0  0  0
  187.5760  177.0770  144.0740 C   0  0  0  0  0  0  0  0  0  0  0  0
  188.4480  176.9000  146.4780 C   0  0  0  0  0  3  0  0  0  0  0  0
  186.7310  177.5560  143.0120 N   0  0  0  0  0  0  0  0  0  0  0  0
  188.4670  176.1590  143.7840 C   0  0  0  0  0  0  0  0  0  0  0  0
  189.3460  175.5330  144.7010 C   0  0  0  0  0  0  0  0  0  0  0  0
  187.4550  177.5580  145.5100 C   0  0  0  0  0  2  0  0  0  0  0  0
  188.6490  175.5900  142.5040 C   0  0  0  0  0  0  0  0  0  0  0  0
  190.0540  174.6090  144.0480 C   0  0  0  0  0  3  0  0  0  0  0  0
  185.9360  177.6430  140.7750 N   0  0  0  0  0  2  0  0  0  0  0  0
  189.3230  175.9410  146.1100 C   0  0  0  0  0  0  0  0  0  0  0  0
  187.8150  176.0440  141.3440 C   0  0  0  0  0  2  0  0  0  0  0  0
  189.5950  174.6550  142.6270 C   0  0  0  0  0  0  0  0  0  0  0  0
  190.0900  173.7770  141.5510 C   0  0  0  0  0  0  0  0  0  0  0  0
  191.1520  174.0650  140.9340 O   0  0  0  0  0  0  0  0  0  0  0  0
  189.3150  172.5540  141.1690 C   0  0  1  0  0  3  0  0  0  0  0  0
  188.5920  172.7920  139.8550 C   0  0  0  0  0  1  0  0  0  0  0  0
  190.2400  171.3540  141.0570 C   0  0  0  0  0  2  0  0  0  0  0  0
  190.5150  170.8020  142.3830 N   0  0  0  0  0  2  0  0  0  0  0  0
  192.7220  170.9750  141.3100 C   0  0  0  0  0  1  0  0  0  0  0  0
  191.9600  170.6590  142.5880 C   0  0  0  0  0  0  0  0  0  0  0  0
  192.2690  169.3650  143.0140 O   0  0  0  0  0  1  0  0  0  0  0  0
  192.3980  171.6390  143.6570 C   0  0  0  0  0  1  0  0  0  0  0  0
  184.9190  178.6400  141.0750 C   0  0  0  0  0  2  0  0  0  0  0  0
  182.5180  178.2580  140.5400 C   0  0  0  0  0  1  0  0  0  0  0  0
  183.6390  177.9580  141.5190 C   0  0  0  0  0  2  0  0  0  0  0  0
  190.2680  175.3580  147.1020 C   0  0  0  0  0  2  0  0  0  0  0  0
  191.5670  175.9970  146.9750 N   0  0  0  0  0  2  0  0  0  0  0  0
  193.9870  175.9420  146.4910 N   0  0  0  0  0  2  0  0  0  0  0  0
  192.7160  175.2850  146.5160 C   0  0  0  0  0  0  0  0  0  0  0  0
  192.6140  174.0840  146.1450 O   0  0  0  0  0  0  0  0  0  0  0  0
  195.1940  175.2900  146.0050 C   0  0  0  0  0  2  0  0  0  0  0  0
  196.7880  175.3030  144.1320 O   0  0  0  0  0  0  0  0  0  0  0  0
  195.6800  175.9650  144.7210 C   0  0  1  0  0  3  0  0  0  0  0  0
  194.5450  176.1960  143.7150 C   0  0  0  0  0  2  0  0  0  0  0  0
  194.1490  174.8890  143.0380 C   0  0  0  0  0  2  0  0  0  0  0  0
  195.3880  174.1760  142.5140 C   0  0  0  0  0  2  0  0  0  0  0  0
  196.3880  174.0340  143.6580 C   0  0  0  0  0  2  0  0  0  0  0  0
  1  4  2  0  0  0  0
  2  7  1  0  0  0  0
  4  2  1  0  0  0  0
  5  2  2  0  0  0  0
  5  6  1  0  0  0  0
  6 11  1  0  0  0  0
  7  3  1  0  0  0  0
  8 13  2  0  0  0  0
  8  5  1  0  0  0  0
  9  6  2  0  0  0  0
 10 24  1  0  0  0  0
 10  1  1  0  0  0  0
 11  3  2  0  0  0  0
 11 27  1  0  0  0  0
 12  1  1  0  0  0  0
 12  8  1  0  0  0  0
 13  9  1  0  0  0  0
 14 13  1  0  0  0  0
 15 14  2  0  0  0  0
 16 17  1  6  0  0  0
 16 14  1  0  0  0  0
 18 16  1  0  0  0  0
 18 19  1  0  0  0  0
 19 21  1  0  0  0  0
 20 21  1  0  0  0  0
 21 22  1  0  0  0  0
 21 23  1  0  0  0  0
 24 26  1  0  0  0  0
 25 26  1  0  0  0  0
 28 27  1  0  0  0  0
 29 30  1  0  0  0  0
 30 28  1  0  0  0  0
 31 30  2  0  0  0  0
 32 29  1  0  0  0  0
 33 34  1  0  0  0  0
 34 32  1  1  0  0  0
 35 34  1  0  0  0  0
 36 35  1  0  0  0  0
 37 36  1  0  0  0  0
 37 38  1  0  0  0  0
 38 33  1  0  0  0  0
M  END
>  <MODEL>
8

>  <REMARK>
 VINA RESULT:      -6.4      2.887      8.946
  Name = 
  11 active torsions:
  status: ('A' for Active; 'I' for Inactive)
    1  A    between atoms: C_1  and  C_6
    2  A    between atoms: C_1  and  C_36
    3  A    between atoms: N_4  and  C_38
    4  A    between atoms: C_6  and  C_10
    5  A    between atoms: C_7  and  C_22
    6  A    between atoms: N_9  and  C_10
    7  A    between atoms: N_9  and  C_11
    8  A    between atoms: N_12  and  C_22
    9  A    between atoms: N_28  and  C_34
   10  A    between atoms: C_30  and  C_38
   11  A    between atoms: C_34  and  C_37
                            x       y       z     vdW  Elec       q    Type
                         _______ _______ _______ _____ _____    ______ ____

>  <TORSDO>
F 11

$$$$
=
 OpenBabel11042416223D

 38 41  0  0  1  0  0  0  0  0999 V2000
  195.1980  174.4750  142.2940 C   0  0  0  0  0  0  0  0  0  0  0  0
  194.5650  175.2450  144.5060 C   0  0  0  0  0  0  0  0  0  0  0  0
  193.7520  176.0240  146.8080 C   0  0  0  0  0  3  0  0  0  0  0  0
  195.4680  175.1570  143.3880 N   0  0  0  0  0  0  0  0  0  0  0  0
  193.4200  174.6100  144.4210 C   0  0  0  0  0  0  0  0  0  0  0  0
  192.3890  174.6230  145.3920 C   0  0  0  0  0  0  0  0  0  0  0  0
  194.8630  176.0630  145.7500 C   0  0  0  0  0  2  0  0  0  0  0  0
  192.9970  173.8580  143.3030 C   0  0  0  0  0  0  0  0  0  0  0  0
  191.3570  173.9180  144.9240 C   0  0  0  0  0  3  0  0  0  0  0  0
  196.1480  174.4390  141.2280 N   0  0  0  0  0  2  0  0  0  0  0  0
  192.5860  175.3670  146.6410 C   0  0  0  0  0  0  0  0  0  0  0  0
  193.8860  173.7110  142.1050 C   0  0  0  0  0  2  0  0  0  0  0  0
  191.7610  173.4270  143.5710 C   0  0  0  0  0  0  0  0  0  0  0  0
  190.9090  172.6280  142.6730 C   0  0  0  0  0  0  0  0  0  0  0  0
  190.9090  171.3690  142.7500 O   0  0  0  0  0  0  0  0  0  0  0  0
  190.0610  173.3110  141.6450 C   0  0  1  0  0  3  0  0  0  0  0  0
  189.3820  172.2750  140.7670 C   0  0  0  0  0  1  0  0  0  0  0  0
  189.0270  174.2000  142.3150 C   0  0  0  0  0  2  0  0  0  0  0  0
  188.9360  175.4830  141.6200 N   0  0  0  0  0  2  0  0  0  0  0  0
  190.2630  176.8850  143.1430 C   0  0  0  0  0  1  0  0  0  0  0  0
  188.8810  176.5850  142.5840 C   0  0  0  0  0  0  0  0  0  0  0  0
  188.0060  176.2790  143.6290 O   0  0  0  0  0  1  0  0  0  0  0  0
  188.3750  177.8240  141.8760 C   0  0  0  0  0  1  0  0  0  0  0  0
  197.4120  175.1570  141.2830 C   0  0  0  0  0  2  0  0  0  0  0  0
  196.8890  175.0330  138.8530 C   0  0  0  0  0  1  0  0  0  0  0  0
  197.7730  175.6770  139.9040 C   0  0  0  0  0  2  0  0  0  0  0  0
  191.5590  175.3610  147.7190 C   0  0  0  0  0  2  0  0  0  0  0  0
  190.6630  176.4930  147.5470 N   0  0  0  0  0  2  0  0  0  0  0  0
  188.4960  177.4800  146.8970 N   0  0  0  0  0  2  0  0  0  0  0  0
  189.3070  176.3240  147.1320 C   0  0  0  0  0  0  0  0  0  0  0  0
  188.8320  175.1680  146.9650 O   0  0  0  0  0  0  0  0  0  0  0  0
  187.0970  177.3850  146.5050 C   0  0  0  0  0  2  0  0  0  0  0  0
  186.3240  179.0770  144.8960 O   0  0  0  0  0  0  0  0  0  0  0  0
  186.5170  178.7810  146.2700 C   0  0  1  0  0  3  0  0  0  0  0  0
  185.2530  179.0380  147.1000 C   0  0  0  0  0  2  0  0  0  0  0  0
  184.0600  178.2960  146.5080 C   0  0  0  0  0  2  0  0  0  0  0  0
  183.9620  178.5720  145.0140 C   0  0  0  0  0  2  0  0  0  0  0  0
  185.3070  178.2490  144.3700 C   0  0  0  0  0  2  0  0  0  0  0  0
  1  4  2  0  0  0  0
  2  7  1  0  0  0  0
  4  2  1  0  0  0  0
  5  2  2  0  0  0  0
  5  6  1  0  0  0  0
  6 11  1  0  0  0  0
  7  3  1  0  0  0  0
  8 13  2  0  0  0  0
  8  5  1  0  0  0  0
  9  6  2  0  0  0  0
 10 24  1  0  0  0  0
 10  1  1  0  0  0  0
 11  3  2  0  0  0  0
 11 27  1  0  0  0  0
 12  1  1  0  0  0  0
 12  8  1  0  0  0  0
 13  9  1  0  0  0  0
 14 15  2  0  0  0  0
 14 13  1  0  0  0  0
 16 17  1  1  0  0  0
 16 18  1  0  0  0  0
 16 14  1  0  0  0  0
 19 18  1  0  0  0  0
 19 21  1  0  0  0  0
 21 20  1  0  0  0  0
 21 22  1  0  0  0  0
 23 21  1  0  0  0  0
 25 26  1  0  0  0  0
 26 24  1  0  0  0  0
 28 27  1  0  0  0  0
 29 30  1  0  0  0  0
 30 28  1  0  0  0  0
 31 30  2  0  0  0  0
 32 29  1  0  0  0  0
 33 34  1  0  0  0  0
 34 32  1  6  0  0  0
 34 35  1  0  0  0  0
 36 35  1  0  0  0  0
 37 36  1  0  0  0  0
 38 33  1  0  0  0  0
 38 37  1  0  0  0  0
M  END
>  <MODEL>
9

>  <REMARK>
 VINA RESULT:      -6.4      2.833      5.217
  Name = 
  11 active torsions:
  status: ('A' for Active; 'I' for Inactive)
    1  A    between atoms: C_1  and  C_6
    2  A    between atoms: C_1  and  C_36
    3  A    between atoms: N_4  and  C_38
    4  A    between atoms: C_6  and  C_10
    5  A    between atoms: C_7  and  C_22
    6  A    between atoms: N_9  and  C_10
    7  A    between atoms: N_9  and  C_11
    8  A    between atoms: N_12  and  C_22
    9  A    between atoms: N_28  and  C_34
   10  A    between atoms: C_30  and  C_38
   11  A    between atoms: C_34  and  C_37
                            x       y       z     vdW  Elec       q    Type
                         _______ _______ _______ _____ _____    ______ ____

>  <TORSDO>
F 11

$$$$
