=
 OpenBabel11042419043D

 43 47  0  0  1  0  0  0  0  0999 V2000
  190.7780  173.8500  143.4370 C   0  0  0  0  0  2  0  0  0  0  0  0
  190.3210  176.6330  146.1550 C   0  0  0  0  0  0  0  0  0  0  0  0
  191.5660  176.5330  145.5260 C   0  0  0  0  0  3  0  0  0  0  0  0
  191.1990  175.4430  148.0730 C   0  0  0  0  0  3  0  0  0  0  0  0
  193.7380  175.6800  142.9870 C   0  0  1  0  0  3  0  0  0  0  0  0
  193.2640  173.3360  139.8440 C   0  0  2  0  0  3  0  0  0  0  0  0
  194.7710  174.8870  145.9250 O   0  0  0  0  0  0  0  0  0  0  0  0
  193.6310  170.0760  138.3540 C   0  0  0  0  0  2  0  0  0  0  0  0
  194.9430  174.0030  141.5740 C   0  0  0  0  0  2  0  0  0  0  0  0
  188.8150  175.3730  143.7470 C   0  0  1  0  0  3  0  0  0  0  0  0
  196.7520  173.1670  139.3390 O   0  0  0  0  0  0  0  0  0  0  0  0
  192.4390  175.3310  147.4360 C   0  0  0  0  0  3  0  0  0  0  0  0
  187.8400  174.8680  142.9000 F   0  0  0  0  0  0  0  0  0  0  0  0
  194.7570  172.1420  138.6070 N   0  0  0  0  0  0  0  0  0  0  0  0
  196.1590  175.6380  142.9980 C   0  0  0  0  0  2  0  0  0  0  0  0
  192.7320  176.5170  142.2190 C   0  0  0  0  0  1  0  0  0  0  0  0
  188.1990  176.1950  144.8900 C   0  0  1  0  0  3  0  0  0  0  0  0
  195.7200  176.6790  144.0060 C   0  0  0  0  0  2  0  0  0  0  0  0
  189.6010  174.2080  144.3250 C   0  0  0  0  0  2  0  0  0  0  0  0
  189.1750  177.2490  145.4260 C   0  0  0  0  0  2  0  0  0  0  0  0
  194.5880  174.0260  140.0950 C   0  0  1  0  0  3  0  0  0  0  0  0
  192.6320  175.8730  146.1570 C   0  0  0  0  0  0  0  0  0  0  0  0
  193.9280  175.7090  145.4710 C   0  0  0  0  0  0  0  0  0  0  0  0
  194.9540  175.4220  142.1120 C   0  0  2  0  0  3  0  0  0  0  0  0
  190.3350  172.9830  142.2740 C   0  0  0  0  0  2  0  0  0  0  0  0
  190.1380  176.0870  147.4290 C   0  0  0  0  0  3  0  0  0  0  0  0
  191.9800  173.6830  140.5310 C   0  0  0  0  0  2  0  0  0  0  0  0
  193.4320  172.3290  138.9870 C   0  0  1  0  0  3  0  0  0  0  0  0
  195.4940  173.1050  139.3400 C   0  0  0  0  0  0  0  0  0  0  0  0
  191.5440  172.5600  141.4620 C   0  0  0  0  0  2  0  0  0  0  0  0
  194.2260  176.4620  144.1990 C   0  0  2  0  0  3  0  0  0  0  0  0
  192.5920  171.1320  138.7830 C   0  0  0  0  0  2  0  0  0  0  0  0
  195.0270  170.7350  138.4240 C   0  0  0  0  0  2  0  0  0  0  0  0
  186.9240  176.8660  144.4860 C   0  0  0  0  0  0  0  0  0  0  0  0
  186.9650  177.8690  143.4640 N   0  0  0  0  0  2  0  0  0  0  0  0
  185.8280  176.5120  145.0010 O   0  0  0  0  0  0  0  0  0  0  0  0
  185.9000  178.7760  143.1420 C   0  0  0  0  0  0  0  0  0  0  0  0
  185.8230  179.9060  143.8310 C   0  0  0  0  0  2  0  0  0  0  0  0
  184.8160  178.4040  142.1980 C   0  0  0  0  0  0  0  0  0  0  0  0
  183.6920  178.0590  142.6460 O   0  0  0  0  0  0  0  0  0  0  0  0
  184.9900  178.4660  140.7080 C   0  0  0  0  0  3  0  0  0  0  0  0
  183.8050  178.1070  140.0640 O   0  0  0  0  0  1  0  0  0  0  0  0
  186.0270  177.6230  140.2990 O   0  0  0  0  0  1  0  0  0  0  0  0
  1 19  1  0  0  0  0
  2 26  1  0  0  0  0
  3  2  2  0  0  0  0
  3 22  1  0  0  0  0
  5 16  1  6  0  0  0
  5 31  1  0  0  0  0
  6 21  1  0  0  0  0
  6 27  1  1  0  0  0
  8 33  1  0  0  0  0
  8 32  1  0  0  0  0
 10 13  1  6  0  0  0
 10 19  1  0  0  0  0
 10 17  1  0  0  0  0
 11 29  2  0  0  0  0
 12  4  1  0  0  0  0
 14 28  1  0  0  0  0
 14 29  1  0  0  0  0
 15 18  1  0  0  0  0
 17 34  1  6  0  0  0
 17 20  1  0  0  0  0
 20  2  1  0  0  0  0
 21  9  1  1  0  0  0
 22 12  2  0  0  0  0
 23  7  2  0  0  0  0
 23 22  1  0  0  0  0
 24  9  1  1  0  0  0
 24  5  1  0  0  0  0
 24 15  1  0  0  0  0
 25  1  1  0  0  0  0
 26  4  2  0  0  0  0
 27 30  1  0  0  0  0
 28 32  1  1  0  0  0
 28  6  1  0  0  0  0
 29 21  1  0  0  0  0
 30 25  1  0  0  0  0
 31 18  1  6  0  0  0
 31 23  1  0  0  0  0
 33 14  1  0  0  0  0
 34 36  2  0  0  0  0
 35 34  1  0  0  0  0
 37 35  1  0  0  0  0
 37 38  2  0  0  0  0
 39 40  2  0  0  0  0
 39 37  1  0  0  0  0
 41 39  1  0  0  0  0
 42 41  1  0  0  0  0
 43 41  1  0  0  0  0
M  END
>  <MODEL>
1

>  <REMARK>
 VINA RESULT:      -8.8      0.000      0.000
  Name = 
  4 active torsions:
  status: ('A' for Active; 'I' for Inactive)
    1  A    between atoms: C_5  and  C_20
    2  A    between atoms: C_6  and  C_24
    3  A    between atoms: N_13  and  C_37
    4  A    between atoms: C_24  and  C_37
                            x       y       z     vdW  Elec       q    Type
                         _______ _______ _______ _____ _____    ______ ____

>  <TORSDO>
F 4

$$$$
=
 OpenBabel11042419043D

 43 47  0  0  1  0  0  0  0  0999 V2000
  190.4630  175.3590  142.4160 C   0  0  0  0  0  2  0  0  0  0  0  0
  193.5720  173.0340  142.9430 C   0  0  0  0  0  0  0  0  0  0  0  0
  193.0420  173.6820  144.0640 C   0  0  0  0  0  3  0  0  0  0  0  0
  195.3240  174.7020  142.8130 C   0  0  0  0  0  3  0  0  0  0  0  0
  190.5880  175.2370  145.9200 C   0  0  1  0  0  3  0  0  0  0  0  0
  187.0600  176.6700  144.8760 C   0  0  2  0  0  3  0  0  0  0  0  0
  193.4220  176.7520  145.9540 O   0  0  0  0  0  0  0  0  0  0  0  0
  185.0660  179.4880  143.8430 C   0  0  0  0  0  2  0  0  0  0  0  0
  189.0140  177.1310  146.3660 C   0  0  0  0  0  2  0  0  0  0  0  0
  190.8640  173.0970  141.4210 C   0  0  1  0  0  3  0  0  0  0  0  0
  186.8310  178.5210  147.8700 O   0  0  0  0  0  0  0  0  0  0  0  0
  194.7840  175.3560  143.9250 C   0  0  0  0  0  3  0  0  0  0  0  0
  189.8630  172.9470  140.4730 F   0  0  0  0  0  0  0  0  0  0  0  0
  185.7660  178.3140  145.7750 N   0  0  0  0  0  0  0  0  0  0  0  0
  190.7970  176.4960  147.9790 C   0  0  0  0  0  2  0  0  0  0  0  0
  189.8930  173.9300  145.5860 C   0  0  0  0  0  1  0  0  0  0  0  0
  192.0750  172.2040  141.1090 C   0  0  1  0  0  3  0  0  0  0  0  0
  191.9290  175.4910  147.9460 C   0  0  0  0  0  2  0  0  0  0  0  0
  191.2970  174.5530  141.4370 C   0  0  0  0  0  2  0  0  0  0  0  0
  192.8650  171.8510  142.3740 C   0  0  0  0  0  2  0  0  0  0  0  0
  187.5370  176.7740  146.3080 C   0  0  1  0  0  3  0  0  0  0  0  0
  193.6390  174.8520  144.5590 C   0  0  0  0  0  0  0  0  0  0  0  0
  193.0470  175.5740  145.7020 C   0  0  0  0  0  0  0  0  0  0  0  0
  189.7880  175.9790  146.9790 C   0  0  2  0  0  3  0  0  0  0  0  0
  189.1350  175.7530  141.7990 C   0  0  0  0  0  2  0  0  0  0  0  0
  194.7120  173.5460  142.3170 C   0  0  0  0  0  3  0  0  0  0  0  0
  187.6840  175.7980  143.8310 C   0  0  0  0  0  2  0  0  0  0  0  0
  186.0590  177.5260  144.6670 C   0  0  1  0  0  3  0  0  0  0  0  0
  186.7150  177.9400  146.7590 C   0  0  0  0  0  0  0  0  0  0  0  0
  188.3680  176.6390  142.7620 C   0  0  0  0  0  2  0  0  0  0  0  0
  191.9530  174.9430  146.5260 C   0  0  2  0  0  3  0  0  0  0  0  0
  185.5810  178.1050  143.3960 C   0  0  0  0  0  2  0  0  0  0  0  0
  185.3670  179.6360  145.3510 C   0  0  0  0  0  2  0  0  0  0  0  0
  191.6860  170.9420  140.4050 C   0  0  0  0  0  0  0  0  0  0  0  0
  192.2150  170.6870  139.0990 N   0  0  0  0  0  2  0  0  0  0  0  0
  190.9460  170.0950  140.9790 O   0  0  0  0  0  0  0  0  0  0  0  0
  191.7550  169.6730  138.1950 C   0  0  0  0  0  0  0  0  0  0  0  0
  192.5040  168.5890  138.0510 C   0  0  0  0  0  2  0  0  0  0  0  0
  190.5760  169.8860  137.3160 C   0  0  0  0  0  0  0  0  0  0  0  0
  189.4200  169.6670  137.7620 O   0  0  0  0  0  0  0  0  0  0  0  0
  190.7030  170.4030  135.9130 C   0  0  0  0  0  3  0  0  0  0  0  0
  191.8560  171.1780  135.7810 O   0  0  0  0  0  1  0  0  0  0  0  0
  189.5800  171.1600  135.5660 O   0  0  0  0  0  1  0  0  0  0  0  0
  2  3  1  0  0  0  0
  3 22  2  0  0  0  0
  4 12  2  0  0  0  0
  5 16  1  1  0  0  0
  5 31  1  0  0  0  0
  5 24  1  0  0  0  0
  6 27  1  6  0  0  0
  6 21  1  0  0  0  0
  8 33  1  0  0  0  0
 10 13  1  6  0  0  0
 10 19  1  0  0  0  0
 12 22  1  0  0  0  0
 14 29  1  0  0  0  0
 17 34  1  1  0  0  0
 17 10  1  0  0  0  0
 17 20  1  0  0  0  0
 18 15  1  0  0  0  0
 19  1  1  0  0  0  0
 20  2  1  0  0  0  0
 21  9  1  6  0  0  0
 21 29  1  0  0  0  0
 22 23  1  0  0  0  0
 23  7  2  0  0  0  0
 23 31  1  0  0  0  0
 24  9  1  6  0  0  0
 24 15  1  0  0  0  0
 25  1  1  0  0  0  0
 25 30  1  0  0  0  0
 26  4  1  0  0  0  0
 26  2  2  0  0  0  0
 28 32  1  6  0  0  0
 28  6  1  0  0  0  0
 28 14  1  0  0  0  0
 29 11  2  0  0  0  0
 30 27  1  0  0  0  0
 31 18  1  1  0  0  0
 32  8  1  0  0  0  0
 33 14  1  0  0  0  0
 34 36  2  0  0  0  0
 35 34  1  0  0  0  0
 37 35  1  0  0  0  0
 38 37  2  0  0  0  0
 39 40  2  0  0  0  0
 39 37  1  0  0  0  0
 41 39  1  0  0  0  0
 42 41  1  0  0  0  0
 43 41  1  0  0  0  0
M  END
>  <MODEL>
2

>  <REMARK>
 VINA RESULT:      -8.6      2.891      8.598
  Name = 
  4 active torsions:
  status: ('A' for Active; 'I' for Inactive)
    1  A    between atoms: C_5  and  C_20
    2  A    between atoms: C_6  and  C_24
    3  A    between atoms: N_13  and  C_37
    4  A    between atoms: C_24  and  C_37
                            x       y       z     vdW  Elec       q    Type
                         _______ _______ _______ _____ _____    ______ ____

>  <TORSDO>
F 4

$$$$
=
 OpenBabel11042419043D

 43 47  0  0  1  0  0  0  0  0999 V2000
  190.0790  174.4870  142.8830 C   0  0  0  0  0  2  0  0  0  0  0  0
  188.4480  176.9460  145.4590 C   0  0  0  0  0  0  0  0  0  0  0  0
  189.8380  176.7910  145.4940 C   0  0  0  0  0  3  0  0  0  0  0  0
  188.2370  175.4410  147.3450 C   0  0  0  0  0  3  0  0  0  0  0  0
  192.9420  176.0290  144.2000 C   0  0  1  0  0  3  0  0  0  0  0  0
  193.9830  174.1550  140.8840 C   0  0  2  0  0  3  0  0  0  0  0  0
  192.3820  174.7730  147.1050 O   0  0  0  0  0  0  0  0  0  0  0  0
  194.9190  171.0840  139.2490 C   0  0  0  0  0  2  0  0  0  0  0  0
  194.6250  174.4190  143.2860 C   0  0  0  0  0  2  0  0  0  0  0  0
  188.2670  176.1620  142.4580 C   0  0  1  0  0  3  0  0  0  0  0  0
  197.2650  173.6750  142.0850 O   0  0  0  0  0  0  0  0  0  0  0  0
  189.6260  175.2750  147.3690 C   0  0  0  0  0  3  0  0  0  0  0  0
  187.8130  175.8730  141.1800 F   0  0  0  0  0  0  0  0  0  0  0  0
  195.8480  172.9700  140.3360 N   0  0  0  0  0  0  0  0  0  0  0  0
  195.0470  175.7250  145.3590 C   0  0  0  0  0  2  0  0  0  0  0  0
  192.4680  177.0580  143.1910 C   0  0  0  0  0  1  0  0  0  0  0  0
  187.2010  176.8990  143.2830 C   0  0  1  0  0  3  0  0  0  0  0  0
  194.2070  176.6750  146.1870 C   0  0  0  0  0  2  0  0  0  0  0  0
  188.6310  174.8570  143.1460 C   0  0  0  0  0  2  0  0  0  0  0  0
  187.8260  177.7670  144.3810 C   0  0  0  0  0  2  0  0  0  0  0  0
  195.0390  174.6630  141.8420 C   0  0  1  0  0  3  0  0  0  0  0  0
  190.4370  175.9480  146.4430 C   0  0  0  0  0  0  0  0  0  0  0  0
  191.8960  175.7300  146.4420 C   0  0  0  0  0  0  0  0  0  0  0  0
  194.4200  175.7510  143.9840 C   0  0  2  0  0  3  0  0  0  0  0  0
  190.2300  173.8230  141.5280 C   0  0  0  0  0  2  0  0  0  0  0  0
  187.6480  176.2700  146.3850 C   0  0  0  0  0  3  0  0  0  0  0  0
  192.5400  174.5510  140.9190 C   0  0  0  0  0  2  0  0  0  0  0  0
  194.5140  173.2500  140.0620 C   0  0  1  0  0  3  0  0  0  0  0  0
  196.1660  173.7490  141.4760 C   0  0  0  0  0  0  0  0  0  0  0  0
  191.6660  173.3760  141.3360 C   0  0  0  0  0  2  0  0  0  0  0  0
  192.8020  176.5980  145.6050 C   0  0  2  0  0  3  0  0  0  0  0  0
  193.8400  172.1850  139.2930 C   0  0  0  0  0  2  0  0  0  0  0  0
  196.1240  171.5740  140.0820 C   0  0  0  0  0  2  0  0  0  0  0  0
  186.3090  177.7480  142.4330 C   0  0  0  0  0  0  0  0  0  0  0  0
  184.8960  177.5160  142.4650 N   0  0  0  0  0  2  0  0  0  0  0  0
  186.7940  178.6870  141.7420 O   0  0  0  0  0  0  0  0  0  0  0  0
  183.9410  178.0540  141.5400 C   0  0  0  0  0  0  0  0  0  0  0  0
  184.3570  178.3250  140.3110 C   0  0  0  0  0  2  0  0  0  0  0  0
  182.5790  178.4620  141.9720 C   0  0  0  0  0  0  0  0  0  0  0  0
  182.4100  178.9480  143.1200 O   0  0  0  0  0  0  0  0  0  0  0  0
  181.3850  178.3620  141.0680 C   0  0  0  0  0  3  0  0  0  0  0  0
  181.0190  179.6260  140.6040 O   0  0  0  0  0  1  0  0  0  0  0  0
  180.3100  177.7720  141.7380 O   0  0  0  0  0  1  0  0  0  0  0  0
  1 19  1  0  0  0  0
  2  3  2  0  0  0  0
  2 26  1  0  0  0  0
  3 22  1  0  0  0  0
  4 12  1  0  0  0  0
  5 16  1  6  0  0  0
  5 31  1  0  0  0  0
  6 27  1  1  0  0  0
  6 21  1  0  0  0  0
  8 32  1  0  0  0  0
  8 33  1  0  0  0  0
 10 13  1  6  0  0  0
 10 19  1  0  0  0  0
 10 17  1  0  0  0  0
 14 29  1  0  0  0  0
 15 18  1  0  0  0  0
 17 34  1  6  0  0  0
 17 20  1  0  0  0  0
 20  2  1  0  0  0  0
 21  9  1  1  0  0  0
 22 12  2  0  0  0  0
 23 22  1  0  0  0  0
 23  7  2  0  0  0  0
 24  9  1  1  0  0  0
 24  5  1  0  0  0  0
 24 15  1  0  0  0  0
 25  1  1  0  0  0  0
 26  4  2  0  0  0  0
 27 30  1  0  0  0  0
 28 32  1  1  0  0  0
 28 14  1  0  0  0  0
 28  6  1  0  0  0  0
 29 21  1  0  0  0  0
 29 11  2  0  0  0  0
 30 25  1  0  0  0  0
 31 18  1  1  0  0  0
 31 23  1  0  0  0  0
 33 14  1  0  0  0  0
 34 35  1  0  0  0  0
 36 34  2  0  0  0  0
 37 39  1  0  0  0  0
 37 35  1  0  0  0  0
 38 37  2  0  0  0  0
 39 40  2  0  0  0  0
 41 43  1  0  0  0  0
 41 39  1  0  0  0  0
 42 41  1  0  0  0  0
M  END
>  <MODEL>
3

>  <REMARK>
 VINA RESULT:      -8.6      1.664      2.429
  Name = 
  4 active torsions:
  status: ('A' for Active; 'I' for Inactive)
    1  A    between atoms: C_5  and  C_20
    2  A    between atoms: C_6  and  C_24
    3  A    between atoms: N_13  and  C_37
    4  A    between atoms: C_24  and  C_37
                            x       y       z     vdW  Elec       q    Type
                         _______ _______ _______ _____ _____    ______ ____

>  <TORSDO>
F 4

$$$$
=
 OpenBabel11042419043D

 43 47  0  0  1  0  0  0  0  0999 V2000
  192.0340  174.0370  142.4210 C   0  0  0  0  0  2  0  0  0  0  0  0
  191.8720  176.8370  145.1540 C   0  0  0  0  0  0  0  0  0  0  0  0
  193.0970  176.6170  144.5170 C   0  0  0  0  0  3  0  0  0  0  0  0
  192.6400  175.5560  147.0610 C   0  0  0  0  0  3  0  0  0  0  0  0
  195.1570  175.5660  141.9590 C   0  0  1  0  0  3  0  0  0  0  0  0
  194.4350  173.2980  138.8090 C   0  0  2  0  0  3  0  0  0  0  0  0
  196.1260  174.6600  144.8870 O   0  0  0  0  0  0  0  0  0  0  0  0
  194.4670  170.0260  137.3010 C   0  0  0  0  0  2  0  0  0  0  0  0
  196.1820  173.7860  140.5300 C   0  0  0  0  0  2  0  0  0  0  0  0
  190.2330  175.7440  142.7510 C   0  0  1  0  0  3  0  0  0  0  0  0
  197.8850  172.7870  138.2800 O   0  0  0  0  0  0  0  0  0  0  0  0
  193.8590  175.3240  146.4160 C   0  0  0  0  0  3  0  0  0  0  0  0
  189.2080  175.3430  141.9090 F   0  0  0  0  0  0  0  0  0  0  0  0
  195.7940  171.9690  137.5560 N   0  0  0  0  0  0  0  0  0  0  0  0
  197.5630  175.2850  141.9540 C   0  0  0  0  0  2  0  0  0  0  0  0
  194.2350  176.5030  141.2020 C   0  0  0  0  0  1  0  0  0  0  0  0
  189.7090  176.6180  143.9020 C   0  0  1  0  0  3  0  0  0  0  0  0
  197.2350  176.3590  142.9700 C   0  0  0  0  0  2  0  0  0  0  0  0
  190.9040  174.5040  143.3190 C   0  0  0  0  0  2  0  0  0  0  0  0
  190.7880  177.5670  144.4360 C   0  0  0  0  0  2  0  0  0  0  0  0
  195.8210  173.8520  139.0540 C   0  0  1  0  0  3  0  0  0  0  0  0
  194.0960  175.8520  145.1380 C   0  0  0  0  0  0  0  0  0  0  0  0
  195.3650  175.5630  144.4420 C   0  0  0  0  0  0  0  0  0  0  0  0
  196.3360  175.1940  141.0750 C   0  0  2  0  0  3  0  0  0  0  0  0
  191.4990  173.2240  141.2570 C   0  0  0  0  0  2  0  0  0  0  0  0
  191.6440  176.3050  146.4270 C   0  0  0  0  0  3  0  0  0  0  0  0
  193.1950  173.7660  139.5060 C   0  0  0  0  0  2  0  0  0  0  0  0
  194.4970  172.2840  137.9460 C   0  0  1  0  0  3  0  0  0  0  0  0
  196.6270  172.8490  138.2890 C   0  0  0  0  0  0  0  0  0  0  0  0
  192.6560  172.6870  140.4350 C   0  0  0  0  0  2  0  0  0  0  0  0
  195.7280  176.2900  143.1710 C   0  0  2  0  0  3  0  0  0  0  0  0
  193.5410  171.1770  137.7420 C   0  0  0  0  0  2  0  0  0  0  0  0
  195.9220  170.5420  137.3650 C   0  0  0  0  0  2  0  0  0  0  0  0
  188.5050  177.4140  143.5090 C   0  0  0  0  0  0  0  0  0  0  0  0
  187.3210  177.3180  144.3100 N   0  0  0  0  0  2  0  0  0  0  0  0
  188.5540  178.1970  142.5200 O   0  0  0  0  0  0  0  0  0  0  0  0
  186.0220  177.8030  143.9410 C   0  0  0  0  0  0  0  0  0  0  0  0
  185.3890  177.1810  142.9570 C   0  0  0  0  0  2  0  0  0  0  0  0
  185.4670  179.0580  144.5090 C   0  0  0  0  0  0  0  0  0  0  0  0
  185.5740  180.1330  143.8650 O   0  0  0  0  0  0  0  0  0  0  0  0
  184.7290  179.0920  145.8150 C   0  0  0  0  0  3  0  0  0  0  0  0
  185.6000  179.4180  146.8570 O   0  0  0  0  0  1  0  0  0  0  0  0
  184.1250  177.8580  146.0710 O   0  0  0  0  0  1  0  0  0  0  0  0
  1 19  1  0  0  0  0
  2 26  1  0  0  0  0
  3 22  1  0  0  0  0
  3  2  2  0  0  0  0
  5 16  1  6  0  0  0
  5 31  1  0  0  0  0
  6 21  1  0  0  0  0
  6 27  1  1  0  0  0
  8 33  1  0  0  0  0
  8 32  1  0  0  0  0
 10 13  1  6  0  0  0
 10 19  1  0  0  0  0
 10 17  1  0  0  0  0
 11 29  2  0  0  0  0
 12  4  1  0  0  0  0
 14 28  1  0  0  0  0
 14 29  1  0  0  0  0
 15 18  1  0  0  0  0
 17 34  1  6  0  0  0
 17 20  1  0  0  0  0
 20  2  1  0  0  0  0
 21  9  1  1  0  0  0
 22 12  2  0  0  0  0
 23  7  2  0  0  0  0
 23 22  1  0  0  0  0
 24  9  1  1  0  0  0
 24 15  1  0  0  0  0
 24  5  1  0  0  0  0
 25  1  1  0  0  0  0
 26  4  2  0  0  0  0
 27 30  1  0  0  0  0
 28 32  1  1  0  0  0
 28  6  1  0  0  0  0
 29 21  1  0  0  0  0
 30 25  1  0  0  0  0
 31 18  1  6  0  0  0
 31 23  1  0  0  0  0
 33 14  1  0  0  0  0
 34 35  1  0  0  0  0
 36 34  2  0  0  0  0
 37 35  1  0  0  0  0
 37 39  1  0  0  0  0
 38 37  2  0  0  0  0
 39 41  1  0  0  0  0
 40 39  2  0  0  0  0
 41 43  1  0  0  0  0
 41 42  1  0  0  0  0
M  END
>  <MODEL>
4

>  <REMARK>
 VINA RESULT:      -8.3      1.693      2.437
  Name = 
  4 active torsions:
  status: ('A' for Active; 'I' for Inactive)
    1  A    between atoms: C_5  and  C_20
    2  A    between atoms: C_6  and  C_24
    3  A    between atoms: N_13  and  C_37
    4  A    between atoms: C_24  and  C_37
                            x       y       z     vdW  Elec       q    Type
                         _______ _______ _______ _____ _____    ______ ____

>  <TORSDO>
F 4

$$$$
=
 OpenBabel11042419043D

 43 47  0  0  1  0  0  0  0  0999 V2000
  191.2630  173.4500  144.0460 C   0  0  0  0  0  2  0  0  0  0  0  0
  190.6320  176.9620  145.6620 C   0  0  0  0  0  0  0  0  0  0  0  0
  191.9060  176.6980  145.1490 C   0  0  0  0  0  3  0  0  0  0  0  0
  191.4430  176.5050  147.8980 C   0  0  0  0  0  3  0  0  0  0  0  0
  194.2070  175.1200  143.1220 C   0  0  1  0  0  3  0  0  0  0  0  0
  193.9210  171.8510  140.9250 C   0  0  2  0  0  3  0  0  0  0  0  0
  195.1190  175.3820  146.1930 O   0  0  0  0  0  0  0  0  0  0  0  0
  194.4130  168.2960  140.6210 C   0  0  0  0  0  2  0  0  0  0  0  0
  195.5060  173.1090  142.3950 C   0  0  0  0  0  2  0  0  0  0  0  0
  189.2610  174.9250  143.7570 C   0  0  1  0  0  3  0  0  0  0  0  0
  197.4300  171.6370  140.6360 O   0  0  0  0  0  0  0  0  0  0  0  0
  192.7120  176.2270  147.3820 C   0  0  0  0  0  3  0  0  0  0  0  0
  188.3350  174.1360  143.0920 F   0  0  0  0  0  0  0  0  0  0  0  0
  195.4900  170.3630  140.2130 N   0  0  0  0  0  0  0  0  0  0  0  0
  196.6260  175.1620  143.2370 C   0  0  0  0  0  2  0  0  0  0  0  0
  193.2230  175.6220  142.0820 C   0  0  0  0  0  1  0  0  0  0  0  0
  188.5790  176.0600  144.5370 C   0  0  1  0  0  3  0  0  0  0  0  0
  196.1220  176.4640  143.8240 C   0  0  0  0  0  2  0  0  0  0  0  0
  190.0410  174.0440  144.7190 C   0  0  0  0  0  2  0  0  0  0  0  0
  189.5100  177.2630  144.7270 C   0  0  0  0  0  2  0  0  0  0  0  0
  195.2180  172.6280  140.9800 C   0  0  1  0  0  3  0  0  0  0  0  0
  192.9540  176.3200  146.0030 C   0  0  0  0  0  0  0  0  0  0  0  0
  194.2830  175.9790  145.4600 C   0  0  0  0  0  0  0  0  0  0  0  0
  195.4660  174.6250  142.4300 C   0  0  2  0  0  3  0  0  0  0  0  0
  190.8890  172.2320  143.2230 C   0  0  0  0  0  2  0  0  0  0  0  0
  190.4010  176.8640  147.0370 C   0  0  0  0  0  3  0  0  0  0  0  0
  192.6000  172.3650  141.4080 C   0  0  0  0  0  2  0  0  0  0  0  0
  194.1450  170.6230  140.4590 C   0  0  1  0  0  3  0  0  0  0  0  0
  196.1750  171.5380  140.6110 C   0  0  0  0  0  0  0  0  0  0  0  0
  192.1420  171.6020  142.6430 C   0  0  0  0  0  2  0  0  0  0  0  0
  194.6250  176.2750  144.0220 C   0  0  2  0  0  3  0  0  0  0  0  0
  193.3370  169.4000  140.6350 C   0  0  0  0  0  2  0  0  0  0  0  0
  195.7920  168.9840  140.5200 C   0  0  0  0  0  2  0  0  0  0  0  0
  187.3120  176.5180  143.8850 C   0  0  0  0  0  0  0  0  0  0  0  0
  187.3150  177.7520  143.1580 N   0  0  0  0  0  2  0  0  0  0  0  0
  186.2770  175.7970  143.9310 O   0  0  0  0  0  0  0  0  0  0  0  0
  186.1500  178.4520  142.6980 C   0  0  0  0  0  0  0  0  0  0  0  0
  185.9530  178.5270  141.3900 C   0  0  0  0  0  2  0  0  0  0  0  0
  185.2810  179.2180  143.6280 C   0  0  0  0  0  0  0  0  0  0  0  0
  185.5930  180.3950  143.9440 O   0  0  0  0  0  0  0  0  0  0  0  0
  184.0030  178.6570  144.1800 C   0  0  0  0  0  3  0  0  0  0  0  0
  182.9150  179.0760  143.4110 O   0  0  0  0  0  1  0  0  0  0  0  0
  183.8250  179.0530  145.5080 O   0  0  0  0  0  1  0  0  0  0  0  0
  1 19  1  0  0  0  0
  2 26  1  0  0  0  0
  3  2  2  0  0  0  0
  3 22  1  0  0  0  0
  5 16  1  6  0  0  0
  5 31  1  0  0  0  0
  6 21  1  0  0  0  0
  6 27  1  1  0  0  0
  8 32  1  0  0  0  0
 10 13  1  1  0  0  0
 10 17  1  0  0  0  0
 10 19  1  0  0  0  0
 12  4  1  0  0  0  0
 14 28  1  0  0  0  0
 14 33  1  0  0  0  0
 14 29  1  0  0  0  0
 15 18  1  0  0  0  0
 17 34  1  6  0  0  0
 17 20  1  0  0  0  0
 20  2  1  0  0  0  0
 21  9  1  1  0  0  0
 22 12  2  0  0  0  0
 23 22  1  0  0  0  0
 23  7  2  0  0  0  0
 24  9  1  1  0  0  0
 24  5  1  0  0  0  0
 24 15  1  0  0  0  0
 25  1  1  0  0  0  0
 26  4  2  0  0  0  0
 27 30  1  0  0  0  0
 28 32  1  1  0  0  0
 28  6  1  0  0  0  0
 29 11  2  0  0  0  0
 29 21  1  0  0  0  0
 30 25  1  0  0  0  0
 31 18  1  1  0  0  0
 31 23  1  0  0  0  0
 33  8  1  0  0  0  0
 34 36  2  0  0  0  0
 35 34  1  0  0  0  0
 37 35  1  0  0  0  0
 37 39  1  0  0  0  0
 38 37  2  0  0  0  0
 39 40  2  0  0  0  0
 39 41  1  0  0  0  0
 41 43  1  0  0  0  0
 42 41  1  0  0  0  0
M  END
>  <MODEL>
5

>  <REMARK>
 VINA RESULT:      -8.1      1.525      1.911
  Name = 
  4 active torsions:
  status: ('A' for Active; 'I' for Inactive)
    1  A    between atoms: C_5  and  C_20
    2  A    between atoms: C_6  and  C_24
    3  A    between atoms: N_13  and  C_37
    4  A    between atoms: C_24  and  C_37
                            x       y       z     vdW  Elec       q    Type
                         _______ _______ _______ _____ _____    ______ ____

>  <TORSDO>
F 4

$$$$
=
 OpenBabel11042419043D

 43 47  0  0  1  0  0  0  0  0999 V2000
  191.4200  175.0930  142.7460 C   0  0  0  0  0  2  0  0  0  0  0  0
  194.4430  173.1240  144.2720 C   0  0  0  0  0  0  0  0  0  0  0  0
  193.6370  173.8610  145.1440 C   0  0  0  0  0  3  0  0  0  0  0  0
  196.0870  174.9020  144.2930 C   0  0  0  0  0  3  0  0  0  0  0  0
  190.7420  175.4280  146.1720 C   0  0  1  0  0  3  0  0  0  0  0  0
  187.4770  176.4160  144.1820 C   0  0  2  0  0  3  0  0  0  0  0  0
  193.4090  177.1680  146.6130 O   0  0  0  0  0  0  0  0  0  0  0  0
  185.6280  178.9020  142.3450 C   0  0  0  0  0  2  0  0  0  0  0  0
  189.0100  177.2240  145.9850 C   0  0  0  0  0  2  0  0  0  0  0  0
  192.1580  172.7640  142.1970 C   0  0  1  0  0  3  0  0  0  0  0  0
  186.4690  178.6060  146.7570 O   0  0  0  0  0  0  0  0  0  0  0  0
  195.2720  175.6450  145.1550 C   0  0  0  0  0  3  0  0  0  0  0  0
  191.4110  172.4120  141.0830 F   0  0  0  0  0  0  0  0  0  0  0  0
  185.9270  178.0460  144.5310 N   0  0  0  0  0  0  0  0  0  0  0  0
  190.4060  176.9520  148.0250 C   0  0  0  0  0  2  0  0  0  0  0  0
  190.2140  174.0360  145.8830 C   0  0  0  0  0  1  0  0  0  0  0  0
  193.4540  171.9440  142.2910 C   0  0  1  0  0  3  0  0  0  0  0  0
  191.5670  176.0490  148.3860 C   0  0  0  0  0  2  0  0  0  0  0  0
  192.4980  174.2420  142.1010 C   0  0  0  0  0  2  0  0  0  0  0  0
  193.9500  171.8220  143.7360 C   0  0  0  0  0  2  0  0  0  0  0  0
  187.6060  176.7400  145.6550 C   0  0  1  0  0  3  0  0  0  0  0  0
  194.0410  175.1310  145.5860 C   0  0  0  0  0  0  0  0  0  0  0  0
  193.1640  175.9400  146.4550 C   0  0  0  0  0  0  0  0  0  0  0  0
  189.6830  176.2280  146.9120 C   0  0  2  0  0  3  0  0  0  0  0  0
  190.2500  175.2930  141.8020 C   0  0  0  0  0  2  0  0  0  0  0  0
  195.6680  173.6460  143.8460 C   0  0  0  0  0  3  0  0  0  0  0  0
  188.3710  175.4730  143.4370 C   0  0  0  0  0  2  0  0  0  0  0  0
  186.5080  177.1510  143.6390 C   0  0  1  0  0  3  0  0  0  0  0  0
  186.6420  177.8810  145.7430 C   0  0  0  0  0  0  0  0  0  0  0  0
  189.2360  176.2260  142.4350 C   0  0  0  0  0  2  0  0  0  0  0  0
  191.9460  175.3290  147.1000 C   0  0  2  0  0  3  0  0  0  0  0  0
  186.3050  177.5220  142.2240 C   0  0  0  0  0  2  0  0  0  0  0  0
  185.5660  179.2650  143.8450 C   0  0  0  0  0  2  0  0  0  0  0  0
  193.3040  170.5750  141.7050 C   0  0  0  0  0  0  0  0  0  0  0  0
  193.7300  170.3490  140.3570 N   0  0  0  0  0  2  0  0  0  0  0  0
  192.8600  169.6260  142.4100 O   0  0  0  0  0  0  0  0  0  0  0  0
  193.4300  169.1870  139.5710 C   0  0  0  0  0  0  0  0  0  0  0  0
  194.2730  168.1660  139.6330 C   0  0  0  0  0  2  0  0  0  0  0  0
  192.3170  169.1750  138.5870 C   0  0  0  0  0  0  0  0  0  0  0  0
  192.5450  169.4740  137.3860 O   0  0  0  0  0  0  0  0  0  0  0  0
  190.9200  168.7720  138.9580 C   0  0  0  0  0  3  0  0  0  0  0  0
  190.0710  168.8890  137.8560 O   0  0  0  0  0  1  0  0  0  0  0  0
  190.4440  169.5590  140.0090 O   0  0  0  0  0  1  0  0  0  0  0  0
  2  3  1  0  0  0  0
  3 22  2  0  0  0  0
  4 12  2  0  0  0  0
  5 16  1  1  0  0  0
  5 24  1  0  0  0  0
  5 31  1  0  0  0  0
  6 27  1  6  0  0  0
  6 21  1  0  0  0  0
  8 33  1  0  0  0  0
 10 13  1  6  0  0  0
 10 17  1  0  0  0  0
 12 22  1  0  0  0  0
 14 29  1  0  0  0  0
 15 18  1  0  0  0  0
 17 34  1  1  0  0  0
 17 20  1  0  0  0  0
 19 10  1  0  0  0  0
 19  1  1  0  0  0  0
 20  2  1  0  0  0  0
 21 29  1  0  0  0  0
 21  9  1  6  0  0  0
 22 23  1  0  0  0  0
 23  7  2  0  0  0  0
 23 31  1  0  0  0  0
 24  9  1  6  0  0  0
 24 15  1  0  0  0  0
 25 30  1  0  0  0  0
 25  1  1  0  0  0  0
 26  2  2  0  0  0  0
 26  4  1  0  0  0  0
 28 32  1  6  0  0  0
 28  6  1  0  0  0  0
 28 14  1  0  0  0  0
 29 11  2  0  0  0  0
 30 27  1  0  0  0  0
 31 18  1  1  0  0  0
 32  8  1  0  0  0  0
 33 14  1  0  0  0  0
 34 36  2  0  0  0  0
 35 34  1  0  0  0  0
 37 38  2  0  0  0  0
 37 35  1  0  0  0  0
 39 41  1  0  0  0  0
 39 37  1  0  0  0  0
 40 39  2  0  0  0  0
 41 43  1  0  0  0  0
 42 41  1  0  0  0  0
M  END
>  <MODEL>
6

>  <REMARK>
 VINA RESULT:      -7.9      2.778      8.603
  Name = 
  4 active torsions:
  status: ('A' for Active; 'I' for Inactive)
    1  A    between atoms: C_5  and  C_20
    2  A    between atoms: C_6  and  C_24
    3  A    between atoms: N_13  and  C_37
    4  A    between atoms: C_24  and  C_37
                            x       y       z     vdW  Elec       q    Type
                         _______ _______ _______ _____ _____    ______ ____

>  <TORSDO>
F 4

$$$$
=
 OpenBabel11042419043D

 43 47  0  0  1  0  0  0  0  0999 V2000
  191.5990  175.1280  142.6580 C   0  0  0  0  0  2  0  0  0  0  0  0
  187.9730  174.5770  141.2820 C   0  0  0  0  0  0  0  0  0  0  0  0
  188.7530  173.4460  141.5380 C   0  0  0  0  0  3  0  0  0  0  0  0
  188.4830  174.3890  138.9220 C   0  0  0  0  0  3  0  0  0  0  0  0
  191.2810  171.6560  143.0540 C   0  0  1  0  0  3  0  0  0  0  0  0
  194.3890  172.8450  145.1800 C   0  0  2  0  0  3  0  0  0  0  0  0
  191.0890  171.2290  139.8740 O   0  0  0  0  0  0  0  0  0  0  0  0
  197.8740  173.7520  145.2920 C   0  0  0  0  0  2  0  0  0  0  0  0
  193.6970  171.1560  143.4710 C   0  0  0  0  0  2  0  0  0  0  0  0
  189.5050  176.3100  143.3570 C   0  0  1  0  0  3  0  0  0  0  0  0
  195.9580  169.7080  144.7970 O   0  0  0  0  0  0  0  0  0  0  0  0
  189.2750  173.2660  139.1820 C   0  0  0  0  0  3  0  0  0  0  0  0
  189.9410  177.3500  144.1640 F   0  0  0  0  0  0  0  0  0  0  0  0
  196.4270  171.8960  145.5440 N   0  0  0  0  0  0  0  0  0  0  0  0
  192.1570  169.4700  142.4860 C   0  0  0  0  0  2  0  0  0  0  0  0
  190.5450  172.1790  144.2730 C   0  0  0  0  0  1  0  0  0  0  0  0
  188.1260  176.6070  142.7500 C   0  0  1  0  0  3  0  0  0  0  0  0
  190.7100  169.5090  142.0390 C   0  0  0  0  0  2  0  0  0  0  0  0
  190.5190  176.1090  142.2420 C   0  0  0  0  0  2  0  0  0  0  0  0
  187.3580  175.3210  142.4190 C   0  0  0  0  0  2  0  0  0  0  0  0
  194.1670  171.3740  144.9010 C   0  0  1  0  0  3  0  0  0  0  0  0
  189.4170  172.7860  140.4930 C   0  0  0  0  0  0  0  0  0  0  0  0
  190.2930  171.6300  140.7670 C   0  0  0  0  0  0  0  0  0  0  0  0
  192.2850  170.5990  143.4840 C   0  0  2  0  0  3  0  0  0  0  0  0
  192.6550  175.8120  143.5040 C   0  0  0  0  0  2  0  0  0  0  0  0
  187.8390  175.0490  139.9720 C   0  0  0  0  0  3  0  0  0  0  0  0
  193.3650  173.9160  144.9670 C   0  0  0  0  0  2  0  0  0  0  0  0
  195.6500  173.0500  145.5620 C   0  0  1  0  0  3  0  0  0  0  0  0
  195.5710  170.8780  145.0550 C   0  0  0  0  0  0  0  0  0  0  0  0
  193.7690  174.8330  143.8210 C   0  0  0  0  0  2  0  0  0  0  0  0
  190.2920  170.9690  142.1220 C   0  0  2  0  0  3  0  0  0  0  0  0
  196.4470  174.2910  145.5100 C   0  0  0  0  0  2  0  0  0  0  0  0
  197.7790  172.2160  145.1500 C   0  0  0  0  0  2  0  0  0  0  0  0
  187.2840  177.4660  143.6400 C   0  0  0  0  0  0  0  0  0  0  0  0
  186.0030  176.9820  144.0590 N   0  0  0  0  0  2  0  0  0  0  0  0
  187.7240  178.5740  144.0560 O   0  0  0  0  0  0  0  0  0  0  0  0
  184.9810  177.7650  144.6900 C   0  0  0  0  0  0  0  0  0  0  0  0
  184.1630  178.4560  143.9080 C   0  0  0  0  0  2  0  0  0  0  0  0
  184.9310  177.9450  146.1640 C   0  0  0  0  0  0  0  0  0  0  0  0
  183.8220  178.1170  146.7320 O   0  0  0  0  0  0  0  0  0  0  0  0
  186.1600  177.8840  147.0230 C   0  0  0  0  0  3  0  0  0  0  0  0
  186.1350  176.7440  147.8280 O   0  0  0  0  0  1  0  0  0  0  0  0
  186.2580  179.0270  147.8210 O   0  0  0  0  0  1  0  0  0  0  0  0
  1 25  1  0  0  0  0
  2  3  1  0  0  0  0
  2 20  1  0  0  0  0
  4 12  2  0  0  0  0
  4 26  1  0  0  0  0
  5 24  1  0  0  0  0
  5 16  1  1  0  0  0
  6 27  1  6  0  0  0
  6 28  1  0  0  0  0
  7 23  2  0  0  0  0
  8 32  1  0  0  0  0
  9 24  1  0  0  0  0
 10 13  1  1  0  0  0
 11 29  2  0  0  0  0
 12 22  1  0  0  0  0
 14 28  1  0  0  0  0
 17 10  1  0  0  0  0
 17 34  1  1  0  0  0
 18 15  1  0  0  0  0
 19  1  1  0  0  0  0
 19 10  1  0  0  0  0
 20 17  1  0  0  0  0
 21  9  1  6  0  0  0
 21 29  1  0  0  0  0
 21  6  1  0  0  0  0
 22 23  1  0  0  0  0
 22  3  2  0  0  0  0
 23 31  1  0  0  0  0
 24 15  1  6  0  0  0
 25 30  1  0  0  0  0
 26  2  2  0  0  0  0
 28 32  1  6  0  0  0
 29 14  1  0  0  0  0
 30 27  1  0  0  0  0
 31 18  1  6  0  0  0
 31  5  1  0  0  0  0
 33  8  1  0  0  0  0
 33 14  1  0  0  0  0
 34 36  2  0  0  0  0
 34 35  1  0  0  0  0
 35 37  1  0  0  0  0
 37 39  1  0  0  0  0
 38 37  2  0  0  0  0
 39 40  2  0  0  0  0
 39 41  1  0  0  0  0
 41 43  1  0  0  0  0
 41 42  1  0  0  0  0
M  END
>  <MODEL>
7

>  <REMARK>
 VINA RESULT:      -7.8      3.342      5.937
  Name = 
  4 active torsions:
  status: ('A' for Active; 'I' for Inactive)
    1  A    between atoms: C_5  and  C_20
    2  A    between atoms: C_6  and  C_24
    3  A    between atoms: N_13  and  C_37
    4  A    between atoms: C_24  and  C_37
                            x       y       z     vdW  Elec       q    Type
                         _______ _______ _______ _____ _____    ______ ____

>  <TORSDO>
F 4

$$$$
=
 OpenBabel11042419043D

 43 47  0  0  1  0  0  0  0  0999 V2000
  190.6970  172.9970  142.3100 C   0  0  0  0  0  2  0  0  0  0  0  0
  191.8550  175.9200  144.6460 C   0  0  0  0  0  0  0  0  0  0  0  0
  192.8040  175.3520  143.7910 C   0  0  0  0  0  3  0  0  0  0  0  0
  192.7360  174.6150  146.4860 C   0  0  0  0  0  3  0  0  0  0  0  0
  193.8870  173.6420  141.0000 C   0  0  1  0  0  3  0  0  0  0  0  0
  191.9210  171.4300  138.3860 C   0  0  2  0  0  3  0  0  0  0  0  0
  195.2900  172.7140  143.7390 O   0  0  0  0  0  0  0  0  0  0  0  0
  190.8250  168.1660  137.3240 C   0  0  0  0  0  2  0  0  0  0  0  0
  194.0940  171.5670  139.6160 C   0  0  0  0  0  2  0  0  0  0  0  0
  189.4790  175.1270  142.8070 C   0  0  1  0  0  3  0  0  0  0  0  0
  194.9260  170.0190  137.1930 O   0  0  0  0  0  0  0  0  0  0  0  0
  193.6760  174.0370  145.6260 C   0  0  0  0  0  3  0  0  0  0  0  0
  188.2170  174.9460  142.2620 F   0  0  0  0  0  0  0  0  0  0  0  0
  192.5910  169.7170  137.0440 N   0  0  0  0  0  0  0  0  0  0  0  0
  196.0870  172.7550  140.5110 C   0  0  0  0  0  2  0  0  0  0  0  0
  193.0550  174.7310  140.3490 C   0  0  0  0  0  1  0  0  0  0  0  0
  189.4650  176.1790  143.9270 C   0  0  1  0  0  3  0  0  0  0  0  0
  196.2720  173.9420  141.4320 C   0  0  0  0  0  2  0  0  0  0  0  0
  189.9570  173.7970  143.3660 C   0  0  0  0  0  2  0  0  0  0  0  0
  190.8310  176.8540  144.0930 C   0  0  0  0  0  2  0  0  0  0  0  0
  193.4160  171.6260  138.2550 C   0  0  1  0  0  3  0  0  0  0  0  0
  193.7160  174.4000  144.2720 C   0  0  0  0  0  0  0  0  0  0  0  0
  194.6780  173.7510  143.3600 C   0  0  0  0  0  0  0  0  0  0  0  0
  194.6990  172.9220  139.9360 C   0  0  2  0  0  3  0  0  0  0  0  0
  189.7250  172.2720  141.4000 C   0  0  0  0  0  2  0  0  0  0  0  0
  191.8210  175.5500  145.9940 C   0  0  0  0  0  3  0  0  0  0  0  0
  191.0290  172.2450  139.2700 C   0  0  0  0  0  2  0  0  0  0  0  0
  191.5350  170.3790  137.6620 C   0  0  1  0  0  3  0  0  0  0  0  0
  193.7580  170.4010  137.4650 C   0  0  0  0  0  0  0  0  0  0  0  0
  190.4920  171.4050  140.4200 C   0  0  0  0  0  2  0  0  0  0  0  0
  194.8850  174.2740  141.9610 C   0  0  2  0  0  3  0  0  0  0  0  0
  190.3280  169.5420  137.8080 C   0  0  0  0  0  2  0  0  0  0  0  0
  192.3320  168.2960  137.0090 C   0  0  0  0  0  2  0  0  0  0  0  0
  188.4220  177.2300  143.7070 C   0  0  0  0  0  0  0  0  0  0  0  0
  187.1370  177.0650  144.3170 N   0  0  0  0  0  2  0  0  0  0  0  0
  188.6930  178.2660  143.0400 O   0  0  0  0  0  0  0  0  0  0  0  0
  185.9630  177.8310  144.0090 C   0  0  0  0  0  0  0  0  0  0  0  0
  185.3560  177.5910  142.8550 C   0  0  0  0  0  2  0  0  0  0  0  0
  185.5280  178.9700  144.8570 C   0  0  0  0  0  0  0  0  0  0  0  0
  185.4270  180.1180  144.3520 O   0  0  0  0  0  0  0  0  0  0  0  0
  185.1530  178.8020  146.3000 C   0  0  0  0  0  3  0  0  0  0  0  0
  186.2910  178.8420  147.1070 O   0  0  0  0  0  1  0  0  0  0  0  0
  184.4760  177.5950  146.4940 O   0  0  0  0  0  1  0  0  0  0  0  0
  1 19  1  0  0  0  0
  2 26  1  0  0  0  0
  3 22  1  0  0  0  0
  3  2  2  0  0  0  0
  5 16  1  6  0  0  0
  5 31  1  0  0  0  0
  6 27  1  1  0  0  0
  8 32  1  0  0  0  0
 10 13  1  1  0  0  0
 10 19  1  0  0  0  0
 10 17  1  0  0  0  0
 11 29  2  0  0  0  0
 12  4  1  0  0  0  0
 14 29  1  0  0  0  0
 14 28  1  0  0  0  0
 15 18  1  0  0  0  0
 17 34  1  6  0  0  0
 17 20  1  0  0  0  0
 20  2  1  0  0  0  0
 21  6  1  0  0  0  0
 21  9  1  1  0  0  0
 22 12  2  0  0  0  0
 23  7  2  0  0  0  0
 23 22  1  0  0  0  0
 24  9  1  1  0  0  0
 24 15  1  0  0  0  0
 24  5  1  0  0  0  0
 25  1  1  0  0  0  0
 26  4  2  0  0  0  0
 27 30  1  0  0  0  0
 28 32  1  1  0  0  0
 28  6  1  0  0  0  0
 29 21  1  0  0  0  0
 30 25  1  0  0  0  0
 31 18  1  6  0  0  0
 31 23  1  0  0  0  0
 33 14  1  0  0  0  0
 33  8  1  0  0  0  0
 34 35  1  0  0  0  0
 36 34  2  0  0  0  0
 37 35  1  0  0  0  0
 37 39  1  0  0  0  0
 38 37  2  0  0  0  0
 39 41  1  0  0  0  0
 40 39  2  0  0  0  0
 41 43  1  0  0  0  0
 41 42  1  0  0  0  0
M  END
>  <MODEL>
8

>  <REMARK>
 VINA RESULT:      -7.6      2.030      3.177
  Name = 
  4 active torsions:
  status: ('A' for Active; 'I' for Inactive)
    1  A    between atoms: C_5  and  C_20
    2  A    between atoms: C_6  and  C_24
    3  A    between atoms: N_13  and  C_37
    4  A    between atoms: C_24  and  C_37
                            x       y       z     vdW  Elec       q    Type
                         _______ _______ _______ _____ _____    ______ ____

>  <TORSDO>
F 4

$$$$
=
 OpenBabel11042419043D

 43 47  0  0  1  0  0  0  0  0999 V2000
  189.9360  174.0140  144.9500 C   0  0  0  0  0  2  0  0  0  0  0  0
  192.0380  172.2560  142.1510 C   0  0  0  0  0  0  0  0  0  0  0  0
  190.9930  173.0950  141.7530 C   0  0  0  0  0  3  0  0  0  0  0  0
  190.6270  170.3240  141.7690 C   0  0  0  0  0  3  0  0  0  0  0  0
  188.7390  175.6810  142.1040 C   0  0  1  0  0  3  0  0  0  0  0  0
  187.6360  177.7500  145.2820 C   0  0  2  0  0  3  0  0  0  0  0  0
  187.4590  172.9670  140.9520 O   0  0  0  0  0  0  0  0  0  0  0  0
  185.3200  178.2080  148.0030 C   0  0  0  0  0  2  0  0  0  0  0  0
  186.7430  176.7500  143.1710 C   0  0  0  0  0  2  0  0  0  0  0  0
  192.4230  173.7400  144.8540 C   0  0  1  0  0  3  0  0  0  0  0  0
  184.7870  178.9750  143.6000 O   0  0  0  0  0  0  0  0  0  0  0  0
  189.5780  171.1660  141.3850 C   0  0  0  0  0  3  0  0  0  0  0  0
  192.8690  174.1390  146.1050 F   0  0  0  0  0  0  0  0  0  0  0  0
  185.7150  178.8720  145.7660 N   0  0  0  0  0  0  0  0  0  0  0  0
  186.8100  176.2210  140.7420 C   0  0  0  0  0  2  0  0  0  0  0  0
  190.0400  176.4130  142.3710 C   0  0  0  0  0  1  0  0  0  0  0  0
  193.4240  172.7950  144.1720 C   0  0  1  0  0  3  0  0  0  0  0  0
  187.8070  175.5090  139.8530 C   0  0  0  0  0  2  0  0  0  0  0  0
  191.0890  173.0310  145.0230 C   0  0  0  0  0  2  0  0  0  0  0  0
  193.3140  172.8510  142.6440 C   0  0  0  0  0  2  0  0  0  0  0  0
  187.0250  178.0390  143.9280 C   0  0  1  0  0  3  0  0  0  0  0  0
  189.7520  172.5580  141.3760 C   0  0  0  0  0  0  0  0  0  0  0  0
  188.6260  173.4420  141.0160 C   0  0  0  0  0  0  0  0  0  0  0  0
  187.6170  176.6920  141.9310 C   0  0  2  0  0  3  0  0  0  0  0  0
  189.7390  174.7170  146.2790 C   0  0  0  0  0  2  0  0  0  0  0  0
  191.8540  170.8700  142.1600 C   0  0  0  0  0  3  0  0  0  0  0  0
  188.8650  176.9240  145.5030 C   0  0  0  0  0  2  0  0  0  0  0  0
  186.8750  178.2700  146.2440 C   0  0  1  0  0  3  0  0  0  0  0  0
  185.7370  178.6630  144.3650 C   0  0  0  0  0  0  0  0  0  0  0  0
  188.5210  175.6180  146.2050 C   0  0  0  0  0  2  0  0  0  0  0  0
  188.8480  174.9170  140.7920 C   0  0  2  0  0  3  0  0  0  0  0  0
  186.7930  177.8950  147.6700 C   0  0  0  0  0  2  0  0  0  0  0  0
  184.6310  178.6700  146.7000 C   0  0  0  0  0  2  0  0  0  0  0  0
  194.8380  173.0770  144.5730 C   0  0  0  0  0  0  0  0  0  0  0  0
  195.4780  174.2540  144.0670 N   0  0  0  0  0  2  0  0  0  0  0  0
  195.4320  172.3170  145.3860 O   0  0  0  0  0  0  0  0  0  0  0  0
  196.8820  174.5380  144.1430 C   0  0  0  0  0  0  0  0  0  0  0  0
  197.5100  174.2470  145.2730 C   0  0  0  0  0  2  0  0  0  0  0  0
  197.5860  175.2870  143.0710 C   0  0  0  0  0  0  0  0  0  0  0  0
  197.9410  176.4770  143.2740 O   0  0  0  0  0  0  0  0  0  0  0  0
  197.9410  174.6630  141.7530 C   0  0  0  0  0  3  0  0  0  0  0  0
  197.1250  175.1690  140.7390 O   0  0  0  0  0  1  0  0  0  0  0  0
  197.8110  173.2730  141.8170 O   0  0  0  0  0  1  0  0  0  0  0  0
  1 19  1  0  0  0  0
  1 25  1  0  0  0  0
  2 26  1  0  0  0  0
  2 20  1  0  0  0  0
  3  2  2  0  0  0  0
  4 26  2  0  0  0  0
  5 16  1  6  0  0  0
  6 27  1  1  0  0  0
  6 28  1  0  0  0  0
  7 23  2  0  0  0  0
 10 19  1  0  0  0  0
 10 13  1  1  0  0  0
 11 29  2  0  0  0  0
 12  4  1  0  0  0  0
 14 28  1  0  0  0  0
 14 33  1  0  0  0  0
 17 34  1  6  0  0  0
 17 10  1  0  0  0  0
 18 15  1  0  0  0  0
 20 17  1  0  0  0  0
 21  9  1  1  0  0  0
 21 29  1  0  0  0  0
 21  6  1  0  0  0  0
 22 12  2  0  0  0  0
 22  3  1  0  0  0  0
 23 22  1  0  0  0  0
 24 15  1  6  0  0  0
 24  5  1  0  0  0  0
 24  9  1  0  0  0  0
 27 30  1  0  0  0  0
 28 32  1  1  0  0  0
 29 14  1  0  0  0  0
 30 25  1  0  0  0  0
 31 18  1  6  0  0  0
 31 23  1  0  0  0  0
 31  5  1  0  0  0  0
 32  8  1  0  0  0  0
 33  8  1  0  0  0  0
 34 36  2  0  0  0  0
 35 37  1  0  0  0  0
 35 34  1  0  0  0  0
 37 38  2  0  0  0  0
 39 40  2  0  0  0  0
 39 37  1  0  0  0  0
 41 43  1  0  0  0  0
 41 39  1  0  0  0  0
 42 41  1  0  0  0  0
M  END
>  <MODEL>
9

>  <REMARK>
 VINA RESULT:      -7.5      2.854      9.648
  Name = 
  4 active torsions:
  status: ('A' for Active; 'I' for Inactive)
    1  A    between atoms: C_5  and  C_20
    2  A    between atoms: C_6  and  C_24
    3  A    between atoms: N_13  and  C_37
    4  A    between atoms: C_24  and  C_37
                            x       y       z     vdW  Elec       q    Type
                         _______ _______ _______ _____ _____    ______ ____

>  <TORSDO>
F 4

$$$$
