=
 OpenBabel11042415133D

 45 49  0  0  1  0  0  0  0  0999 V2000
  192.3270  173.5560  145.0510 C   0  0  0  0  0  2  0  0  0  0  0  0
  194.1710  173.8300  143.2570 C   0  0  2  0  0  3  0  0  0  0  0  0
  193.6420  174.2230  144.6120 C   0  0  2  0  0  3  0  0  0  0  0  0
  194.6950  174.4450  145.6870 C   0  0  0  0  0  2  0  0  0  0  0  0
  195.0390  174.4820  140.9700 C   0  0  1  0  0  3  0  0  0  0  0  0
  196.1590  176.3780  141.7250 N   0  0  0  0  0  0  0  0  0  0  0  0
  194.6730  176.8610  144.9680 C   0  0  0  0  0  2  0  0  0  0  0  0
  195.9300  175.5430  140.6610 O   0  0  0  0  0  0  0  0  0  0  0  0
  194.8000  174.7080  142.4420 C   0  0  2  0  0  3  0  0  0  0  0  0
  194.6320  175.8970  146.1500 C   0  0  0  0  0  2  0  0  0  0  0  0
  195.5110  175.9730  142.7610 C   0  0  0  0  0  0  0  0  0  0  0  0
  195.8740  176.5490  144.0970 C   0  0  0  0  0  2  0  0  0  0  0  0
  193.7580  174.7230  140.1790 C   0  0  1  0  0  3  0  0  0  0  0  0
  194.0290  174.4290  138.7160 C   0  0  0  0  0  2  0  0  0  0  0  0
  193.2400  173.4450  139.5500 C   0  0  2  0  0  3  0  0  0  0  0  0
  191.7700  173.6050  139.2100 C   0  0  0  0  0  2  0  0  0  0  0  0
  190.0920  171.8120  138.9210 C   0  0  0  0  0  1  0  0  0  0  0  0
  191.3040  172.4810  138.3070 C   0  0  0  0  0  2  0  0  0  0  0  0
  193.9820  172.4150  142.7870 C   0  0  0  0  0  2  0  0  0  0  0  0
  194.9110  171.5390  143.4080 O   0  0  0  0  0  0  0  0  0  0  0  0
  193.5110  170.0400  144.4280 O   0  0  0  0  0  0  0  0  0  0  0  0
  194.5640  170.7250  144.4860 C   0  0  0  0  0  0  0  0  0  0  0  0
  195.4120  170.6470  145.7110 C   0  0  0  0  0  1  0  0  0  0  0  0
  191.0790  174.4250  144.8770 C   0  0  2  0  0  3  0  0  0  0  0  0
  189.9710  173.6590  144.1420 C   0  0  2  0  0  3  0  0  0  0  0  0
  189.9700  172.1960  144.5600 C   0  0  0  0  0  1  0  0  0  0  0  0
  190.1660  173.7350  142.6590 C   0  0  0  0  0  3  0  0  0  0  0  0
  187.8560  174.0950  142.2570 O   0  0  0  0  0  1  0  0  0  0  0  0
  189.1630  173.9340  141.8080 C   0  0  0  0  0  3  0  0  0  0  0  0
  191.4480  175.6150  144.1230 N   0  0  0  0  0  2  0  0  0  0  0  0
  190.1380  177.6810  144.1060 C   0  0  1  0  0  3  0  0  0  0  0  0
  190.3290  176.3480  146.1610 C   0  0  0  0  0  2  0  0  0  0  0  0
  189.1310  177.2680  146.2660 C   0  0  1  0  0  3  0  0  0  0  0  0
  191.0660  176.7790  144.9110 C   0  0  1  0  0  3  0  0  0  0  0  0
  188.8600  177.0010  143.8250 N   0  0  0  0  0  0  0  0  0  0  0  0
  188.2580  177.7010  142.7050 C   0  0  0  0  0  1  0  0  0  0  0  0
  188.9630  177.9760  144.9260 C   0  0  2  0  0  3  0  0  0  0  0  0
  187.8790  176.4810  146.6290 C   0  0  0  0  0  2  0  0  0  0  0  0
  185.6480  176.4680  144.8950 O   0  0  0  0  0  0  0  0  0  0  0  0
  185.6350  177.3000  145.8430 C   0  0  0  0  0  0  0  0  0  0  0  0
  186.7220  178.2740  147.7700 O   0  0  0  0  0  1  0  0  0  0  0  0
  186.7380  177.3750  146.7570 N   0  0  0  0  0  0  0  0  0  0  0  0
  184.4420  178.1790  146.0230 C   0  0  0  0  0  2  0  0  0  0  0  0
  184.1780  179.0020  144.7730 C   0  0  0  0  0  2  0  0  0  0  0  0
  185.4150  179.7920  144.3870 C   0  0  0  0  0  1  0  0  0  0  0  0
  2 19  1  6  0  0  0
  2  3  1  0  0  0  0
  3  1  1  1  0  0  0
  3  4  1  0  0  0  0
  4 10  1  0  0  0  0
  5  8  1  6  0  0  0
  5  9  1  0  0  0  0
  6 11  2  0  0  0  0
  7 10  1  0  0  0  0
  8  6  1  0  0  0  0
  9 11  1  1  0  0  0
  9  2  1  0  0  0  0
 11 12  1  0  0  0  0
 12  7  1  0  0  0  0
 13 14  1  6  0  0  0
 13  5  1  0  0  0  0
 14 15  1  0  0  0  0
 15 16  1  6  0  0  0
 15 13  1  0  0  0  0
 18 17  1  0  0  0  0
 18 16  1  0  0  0  0
 19 20  1  0  0  0  0
 20 22  1  0  0  0  0
 21 22  2  0  0  0  0
 22 23  1  0  0  0  0
 24  1  1  6  0  0  0
 25 26  1  1  0  0  0
 25 24  1  0  0  0  0
 27 25  1  0  0  0  0
 29 28  1  0  0  0  0
 29 27  2  0  0  0  0
 30 24  1  0  0  0  0
 31 35  1  6  0  0  0
 31 34  1  0  0  0  0
 31 37  1  0  0  0  0
 32 33  1  0  0  0  0
 33 38  1  6  0  0  0
 34 30  1  6  0  0  0
 34 32  1  0  0  0  0
 36 35  1  0  0  0  0
 37 35  1  6  0  0  0
 37 33  1  0  0  0  0
 38 42  1  0  0  0  0
 39 40  2  0  0  0  0
 40 43  1  0  0  0  0
 40 42  1  0  0  0  0
 42 41  1  0  0  0  0
 44 43  1  0  0  0  0
 45 44  1  0  0  0  0
M  END
>  <MODEL>
1

>  <REMARK>
 VINA RESULT:      -6.5      0.000      0.000
  Name = 
  16 active torsions:
  status: ('A' for Active; 'I' for Inactive)
    1  A    between atoms: C_1  and  C_19
    2  A    between atoms: N_2  and  C_22
    3  A    between atoms: N_2  and  C_27
    4  A    between atoms: C_3  and  C_5
    5  A    between atoms: C_5  and  C_33
    6  A    between atoms: C_7  and  C_16
    7  A    between atoms: C_8  and  C_11
    8  A    between atoms: C_9  and  O_38
    9  A    between atoms: C_11  and  O_38
   10  A    between atoms: C_13  and  C_40
   11  A    between atoms: C_19  and  C_22
   12  A    between atoms: C_22  and  C_40
   13  A    between atoms: C_23  and  C_26
   14  A    between atoms: C_26  and  N_45
   15  A    between atoms: C_28  and  C_43
   16  A    between atoms: C_29  and  C_43
                            x       y       z     vdW  Elec       q    Type
                         _______ _______ _______ _____ _____    ______ ____

>  <TORSDO>
F 16

$$$$
=
 OpenBabel11042415133D

 45 49  0  0  1  0  0  0  0  0999 V2000
  192.1360  174.4110  145.5270 C   0  0  0  0  0  2  0  0  0  0  0  0
  194.1000  174.3300  143.8450 C   0  0  2  0  0  3  0  0  0  0  0  0
  193.5180  174.9310  145.0990 C   0  0  2  0  0  3  0  0  0  0  0  0
  194.5180  175.2280  146.2070 C   0  0  0  0  0  2  0  0  0  0  0  0
  195.1490  174.6190  141.5600 C   0  0  1  0  0  3  0  0  0  0  0  0
  196.3520  176.5250  142.1410 N   0  0  0  0  0  0  0  0  0  0  0  0
  194.7090  177.5240  145.1840 C   0  0  0  0  0  2  0  0  0  0  0  0
  196.1290  175.5720  141.1800 O   0  0  0  0  0  0  0  0  0  0  0  0
  194.8370  175.0510  142.9700 C   0  0  2  0  0  3  0  0  0  0  0  0
  194.5290  176.7290  146.4750 C   0  0  0  0  0  2  0  0  0  0  0  0
  195.6150  176.3020  143.1730 C   0  0  0  0  0  0  0  0  0  0  0  0
  195.9360  177.0260  144.4460 C   0  0  0  0  0  2  0  0  0  0  0  0
  193.9380  174.8320  140.6570 C   0  0  1  0  0  3  0  0  0  0  0  0
  194.3540  174.5790  139.2210 C   0  0  0  0  0  2  0  0  0  0  0  0
  193.5290  173.5500  139.9590 C   0  0  2  0  0  3  0  0  0  0  0  0
  192.0910  173.6650  139.4870 C   0  0  0  0  0  2  0  0  0  0  0  0
  191.6170  171.6110  140.7790 C   0  0  0  0  0  1  0  0  0  0  0  0
  191.4300  172.3020  139.4440 C   0  0  0  0  0  2  0  0  0  0  0  0
  193.8410  172.8800  143.5480 C   0  0  0  0  0  2  0  0  0  0  0  0
  194.9520  172.0740  143.9130 O   0  0  0  0  0  0  0  0  0  0  0  0
  194.3720  171.1950  145.9480 O   0  0  0  0  0  0  0  0  0  0  0  0
  195.2430  171.7620  145.2410 C   0  0  0  0  0  0  0  0  0  0  0  0
  196.5680  172.0860  145.8460 C   0  0  0  0  0  1  0  0  0  0  0  0
  190.9850  175.3970  145.3110 C   0  0  2  0  0  3  0  0  0  0  0  0
  190.3470  175.8020  146.6460 C   0  0  2  0  0  3  0  0  0  0  0  0
  191.1900  175.3030  147.8110 C   0  0  0  0  0  1  0  0  0  0  0  0
  188.9690  175.2330  146.7730 C   0  0  0  0  0  3  0  0  0  0  0  0
  187.9780  177.3750  147.0080 O   0  0  0  0  0  1  0  0  0  0  0  0
  187.8870  175.9880  146.9440 C   0  0  0  0  0  3  0  0  0  0  0  0
  189.9910  174.7630  144.4560 N   0  0  0  0  0  2  0  0  0  0  0  0
  189.6040  174.5610  142.0490 C   0  0  1  0  0  3  0  0  0  0  0  0
  188.8860  176.5760  143.2590 C   0  0  0  0  0  2  0  0  0  0  0  0
  188.1360  176.4810  141.9460 C   0  0  1  0  0  3  0  0  0  0  0  0
  189.9480  175.4990  143.2000 C   0  0  1  0  0  3  0  0  0  0  0  0
  188.2380  174.0260  142.2000 N   0  0  0  0  0  0  0  0  0  0  0  0
  188.1680  172.8330  141.3750 C   0  0  0  0  0  1  0  0  0  0  0  0
  188.5030  175.1550  141.2900 C   0  0  2  0  0  3  0  0  0  0  0  0
  186.6340  176.5790  142.1760 C   0  0  0  0  0  2  0  0  0  0  0  0
  185.4360  176.5890  144.7350 O   0  0  0  0  0  0  0  0  0  0  0  0
  185.7160  177.7090  144.2260 C   0  0  0  0  0  0  0  0  0  0  0  0
  186.6080  178.9900  142.3810 O   0  0  0  0  0  1  0  0  0  0  0  0
  186.3140  177.7860  142.9250 N   0  0  0  0  0  0  0  0  0  0  0  0
  185.4510  178.9510  145.0120 C   0  0  0  0  0  2  0  0  0  0  0  0
  184.2750  178.7580  145.9550 C   0  0  0  0  0  2  0  0  0  0  0  0
  184.7590  178.6290  147.3870 C   0  0  0  0  0  1  0  0  0  0  0  0
  2 19  1  6  0  0  0
  2  3  1  0  0  0  0
  3  1  1  1  0  0  0
  3  4  1  0  0  0  0
  4 10  1  0  0  0  0
  5  8  1  6  0  0  0
  5  9  1  0  0  0  0
  6 11  2  0  0  0  0
  7 10  1  0  0  0  0
  8  6  1  0  0  0  0
  9 11  1  1  0  0  0
  9  2  1  0  0  0  0
 11 12  1  0  0  0  0
 12  7  1  0  0  0  0
 13 14  1  6  0  0  0
 13  5  1  0  0  0  0
 14 15  1  0  0  0  0
 15 16  1  6  0  0  0
 15 13  1  0  0  0  0
 18 16  1  0  0  0  0
 18 17  1  0  0  0  0
 19 20  1  0  0  0  0
 20 22  1  0  0  0  0
 22 23  1  0  0  0  0
 22 21  2  0  0  0  0
 24  1  1  1  0  0  0
 24 25  1  0  0  0  0
 25 27  1  0  0  0  0
 25 26  1  1  0  0  0
 27 29  2  0  0  0  0
 29 28  1  0  0  0  0
 30 24  1  0  0  0  0
 31 35  1  1  0  0  0
 31 34  1  0  0  0  0
 33 38  1  1  0  0  0
 33 32  1  0  0  0  0
 34 32  1  0  0  0  0
 34 30  1  1  0  0  0
 36 35  1  0  0  0  0
 37 33  1  0  0  0  0
 37 31  1  0  0  0  0
 37 35  1  1  0  0  0
 38 42  1  0  0  0  0
 40 39  2  0  0  0  0
 40 43  1  0  0  0  0
 41 42  1  0  0  0  0
 42 40  1  0  0  0  0
 43 44  1  0  0  0  0
 44 45  1  0  0  0  0
M  END
>  <MODEL>
2

>  <REMARK>
 VINA RESULT:      -6.5      1.540      2.759
  Name = 
  16 active torsions:
  status: ('A' for Active; 'I' for Inactive)
    1  A    between atoms: C_1  and  C_19
    2  A    between atoms: N_2  and  C_22
    3  A    between atoms: N_2  and  C_27
    4  A    between atoms: C_3  and  C_5
    5  A    between atoms: C_5  and  C_33
    6  A    between atoms: C_7  and  C_16
    7  A    between atoms: C_8  and  C_11
    8  A    between atoms: C_9  and  O_38
    9  A    between atoms: C_11  and  O_38
   10  A    between atoms: C_13  and  C_40
   11  A    between atoms: C_19  and  C_22
   12  A    between atoms: C_22  and  C_40
   13  A    between atoms: C_23  and  C_26
   14  A    between atoms: C_26  and  N_45
   15  A    between atoms: C_28  and  C_43
   16  A    between atoms: C_29  and  C_43
                            x       y       z     vdW  Elec       q    Type
                         _______ _______ _______ _____ _____    ______ ____

>  <TORSDO>
F 16

$$$$
=
 OpenBabel11042415133D

 45 49  0  0  1  0  0  0  0  0999 V2000
  192.2870  175.6130  142.4510 C   0  0  0  0  0  2  0  0  0  0  0  0
  192.9070  173.2150  141.7050 C   0  0  2  0  0  3  0  0  0  0  0  0
  191.8390  174.1680  142.1780 C   0  0  2  0  0  3  0  0  0  0  0  0
  190.4670  173.9770  141.5490 C   0  0  0  0  0  2  0  0  0  0  0  0
  194.1310  171.0100  141.9280 C   0  0  1  0  0  3  0  0  0  0  0  0
  192.2440  169.8090  142.5730 N   0  0  0  0  0  0  0  0  0  0  0  0
  189.9780  172.4500  143.4940 C   0  0  0  0  0  2  0  0  0  0  0  0
  193.5650  169.7400  142.2100 O   0  0  0  0  0  0  0  0  0  0  0  0
  192.9330  171.9140  142.0750 C   0  0  2  0  0  3  0  0  0  0  0  0
  189.4690  173.6090  142.6410 C   0  0  0  0  0  2  0  0  0  0  0  0
  191.8360  171.0300  142.5500 C   0  0  0  0  0  0  0  0  0  0  0  0
  190.3600  171.2880  142.5990 C   0  0  0  0  0  2  0  0  0  0  0  0
  195.1540  171.3010  143.0210 C   0  0  1  0  0  3  0  0  0  0  0  0
  196.4740  170.6640  142.6300 C   0  0  0  0  0  2  0  0  0  0  0  0
  196.2920  172.1600  142.5070 C   0  0  2  0  0  3  0  0  0  0  0  0
  196.9970  172.8230  143.6760 C   0  0  0  0  0  2  0  0  0  0  0  0
  196.8650  172.5500  146.1290 C   0  0  0  0  0  1  0  0  0  0  0  0
  197.1670  171.8470  144.8220 C   0  0  0  0  0  2  0  0  0  0  0  0
  193.9920  173.7310  140.8030 C   0  0  0  0  0  2  0  0  0  0  0  0
  193.7540  173.3620  139.4520 O   0  0  0  0  0  0  0  0  0  0  0  0
  195.1120  173.9380  137.6990 O   0  0  0  0  0  0  0  0  0  0  0  0
  194.7910  173.0820  138.5610 C   0  0  0  0  0  0  0  0  0  0  0  0
  195.5290  171.7860  138.6060 C   0  0  0  0  0  1  0  0  0  0  0  0
  192.7110  175.8910  143.8950 C   0  0  2  0  0  3  0  0  0  0  0  0
  193.9700  175.0960  144.2640 C   0  0  2  0  0  3  0  0  0  0  0  0
  193.6670  174.1120  145.3860 C   0  0  0  0  0  1  0  0  0  0  0  0
  195.0670  176.0120  144.7120 C   0  0  0  0  0  3  0  0  0  0  0  0
  195.9430  176.2260  142.5180 O   0  0  0  0  0  1  0  0  0  0  0  0
  195.9710  176.5180  143.8780 C   0  0  0  0  0  3  0  0  0  0  0  0
  191.6120  175.5230  144.7770 N   0  0  0  0  0  2  0  0  0  0  0  0
  190.2860  177.5510  144.4470 C   0  0  1  0  0  3  0  0  0  0  0  0
  190.2640  176.3890  146.6130 C   0  0  0  0  0  2  0  0  0  0  0  0
  189.0490  177.2880  146.5090 C   0  0  1  0  0  3  0  0  0  0  0  0
  191.1290  176.7370  145.4210 C   0  0  1  0  0  3  0  0  0  0  0  0
  189.0560  176.8230  144.0840 N   0  0  0  0  0  0  0  0  0  0  0  0
  188.5740  177.4180  142.8510 C   0  0  0  0  0  1  0  0  0  0  0  0
  189.0220  177.8840  145.1060 C   0  0  2  0  0  3  0  0  0  0  0  0
  187.7740  176.5050  146.7950 C   0  0  0  0  0  2  0  0  0  0  0  0
  185.6190  176.4750  144.9680 O   0  0  0  0  0  0  0  0  0  0  0  0
  185.5690  177.3200  145.9040 C   0  0  0  0  0  0  0  0  0  0  0  0
  186.5750  178.3150  147.8630 O   0  0  0  0  0  1  0  0  0  0  0  0
  186.6320  177.4040  146.8630 N   0  0  0  0  0  0  0  0  0  0  0  0
  184.3720  178.2040  146.0210 C   0  0  0  0  0  2  0  0  0  0  0  0
  184.1600  179.0060  144.7480 C   0  0  0  0  0  2  0  0  0  0  0  0
  185.4010  179.8140  144.4170 C   0  0  0  0  0  1  0  0  0  0  0  0
  2 19  1  1  0  0  0
  2  9  1  0  0  0  0
  2  3  1  0  0  0  0
  3  1  1  6  0  0  0
  4  3  1  0  0  0  0
  4 10  1  0  0  0  0
  5  9  1  0  0  0  0
  5  8  1  1  0  0  0
  5 13  1  0  0  0  0
  8  6  1  0  0  0  0
  9 11  1  6  0  0  0
 10  7  1  0  0  0  0
 11  6  2  0  0  0  0
 11 12  1  0  0  0  0
 12  7  1  0  0  0  0
 13 14  1  6  0  0  0
 15 14  1  0  0  0  0
 15 13  1  0  0  0  0
 15 16  1  1  0  0  0
 16 18  1  0  0  0  0
 18 17  1  0  0  0  0
 20 19  1  0  0  0  0
 21 22  2  0  0  0  0
 22 23  1  0  0  0  0
 22 20  1  0  0  0  0
 24  1  1  6  0  0  0
 24 25  1  0  0  0  0
 24 30  1  0  0  0  0
 25 27  1  0  0  0  0
 25 26  1  1  0  0  0
 28 29  1  0  0  0  0
 29 27  2  0  0  0  0
 31 35  1  6  0  0  0
 31 37  1  0  0  0  0
 31 34  1  0  0  0  0
 33 32  1  0  0  0  0
 33 38  1  6  0  0  0
 34 30  1  6  0  0  0
 34 32  1  0  0  0  0
 36 35  1  0  0  0  0
 37 35  1  6  0  0  0
 37 33  1  0  0  0  0
 38 42  1  0  0  0  0
 39 40  2  0  0  0  0
 40 43  1  0  0  0  0
 40 42  1  0  0  0  0
 42 41  1  0  0  0  0
 44 43  1  0  0  0  0
 45 44  1  0  0  0  0
M  END
>  <MODEL>
3

>  <REMARK>
 VINA RESULT:      -6.0      1.873      4.849
  Name = 
  16 active torsions:
  status: ('A' for Active; 'I' for Inactive)
    1  A    between atoms: C_1  and  C_19
    2  A    between atoms: N_2  and  C_22
    3  A    between atoms: N_2  and  C_27
    4  A    between atoms: C_3  and  C_5
    5  A    between atoms: C_5  and  C_33
    6  A    between atoms: C_7  and  C_16
    7  A    between atoms: C_8  and  C_11
    8  A    between atoms: C_9  and  O_38
    9  A    between atoms: C_11  and  O_38
   10  A    between atoms: C_13  and  C_40
   11  A    between atoms: C_19  and  C_22
   12  A    between atoms: C_22  and  C_40
   13  A    between atoms: C_23  and  C_26
   14  A    between atoms: C_26  and  N_45
   15  A    between atoms: C_28  and  C_43
   16  A    between atoms: C_29  and  C_43
                            x       y       z     vdW  Elec       q    Type
                         _______ _______ _______ _____ _____    ______ ____

>  <TORSDO>
F 16

$$$$
=
 OpenBabel11042415133D

 45 49  0  0  1  0  0  0  0  0999 V2000
  191.5210  173.2560  141.6180 C   0  0  0  0  0  2  0  0  0  0  0  0
  193.7120  173.4820  142.9740 C   0  0  2  0  0  3  0  0  0  0  0  0
  192.7520  172.5800  142.2410 C   0  0  2  0  0  3  0  0  0  0  0  0
  193.3920  171.4480  141.4500 C   0  0  0  0  0  2  0  0  0  0  0  0
  195.0550  174.0270  145.0490 C   0  0  1  0  0  3  0  0  0  0  0  0
  195.5290  171.8060  145.5600 N   0  0  0  0  0  0  0  0  0  0  0  0
  193.1140  170.0620  143.5380 C   0  0  0  0  0  2  0  0  0  0  0  0
  195.7760  173.1200  145.8680 O   0  0  0  0  0  0  0  0  0  0  0  0
  194.3670  173.0890  144.0910 C   0  0  2  0  0  3  0  0  0  0  0  0
  192.9230  170.1160  142.0250 C   0  0  0  0  0  2  0  0  0  0  0  0
  194.7020  171.7240  144.5760 C   0  0  0  0  0  0  0  0  0  0  0  0
  194.5500  170.4040  143.8820 C   0  0  0  0  0  2  0  0  0  0  0  0
  194.0310  174.7240  145.9400 C   0  0  1  0  0  3  0  0  0  0  0  0
  194.6480  176.0000  146.4790 C   0  0  0  0  0  2  0  0  0  0  0  0
  193.6190  176.0670  145.3740 C   0  0  2  0  0  3  0  0  0  0  0  0
  192.2940  176.4900  145.9810 C   0  0  0  0  0  2  0  0  0  0  0  0
  191.3590  176.4160  148.2690 C   0  0  0  0  0  1  0  0  0  0  0  0
  191.9190  175.5830  147.1350 C   0  0  0  0  0  2  0  0  0  0  0  0
  193.9390  174.8730  142.4550 C   0  0  0  0  0  2  0  0  0  0  0  0
  195.1880  174.9740  141.7860 O   0  0  0  0  0  0  0  0  0  0  0  0
  195.9630  177.0400  141.1700 O   0  0  0  0  0  0  0  0  0  0  0  0
  196.0410  176.0650  141.9590 C   0  0  0  0  0  0  0  0  0  0  0  0
  197.0480  176.1010  143.0590 C   0  0  0  0  0  1  0  0  0  0  0  0
  190.2540  172.3970  141.6070 C   0  0  2  0  0  3  0  0  0  0  0  0
  189.8160  172.0770  140.1720 C   0  0  2  0  0  3  0  0  0  0  0  0
  190.3900  170.7390  139.7270 C   0  0  0  0  0  1  0  0  0  0  0  0
  190.2820  173.1370  139.2230 C   0  0  0  0  0  3  0  0  0  0  0  0
  188.0850  173.5630  138.4350 O   0  0  0  0  0  1  0  0  0  0  0  0
  189.4550  173.8080  138.4260 C   0  0  0  0  0  3  0  0  0  0  0  0
  189.1990  173.1240  142.2990 N   0  0  0  0  0  2  0  0  0  0  0  0
  188.9390  175.5560  142.3260 C   0  0  1  0  0  3  0  0  0  0  0  0
  189.7670  174.3720  144.3140 C   0  0  0  0  0  2  0  0  0  0  0  0
  189.2550  175.7390  144.7170 C   0  0  1  0  0  3  0  0  0  0  0  0
  189.7670  174.3680  142.8000 C   0  0  1  0  0  3  0  0  0  0  0  0
  187.5860  175.5180  142.9100 N   0  0  0  0  0  0  0  0  0  0  0  0
  186.7520  176.3650  142.0770 C   0  0  0  0  0  1  0  0  0  0  0  0
  188.6260  176.3870  143.4890 C   0  0  2  0  0  3  0  0  0  0  0  0
  188.2450  175.6220  145.8510 C   0  0  0  0  0  2  0  0  0  0  0  0
  185.5550  176.4600  145.6450 O   0  0  0  0  0  0  0  0  0  0  0  0
  186.3810  177.2880  146.1180 C   0  0  0  0  0  0  0  0  0  0  0  0
  188.6500  177.8340  146.7450 O   0  0  0  0  0  1  0  0  0  0  0  0
  187.7670  176.9400  146.2420 N   0  0  0  0  0  0  0  0  0  0  0  0
  185.8910  178.6200  146.5810 C   0  0  0  0  0  2  0  0  0  0  0  0
  184.8900  179.2050  145.5960 C   0  0  0  0  0  2  0  0  0  0  0  0
  185.6030  179.7250  144.3620 C   0  0  0  0  0  1  0  0  0  0  0  0
  2 19  1  1  0  0  0
  2  9  1  0  0  0  0
  3  1  1  6  0  0  0
  3  2  1  0  0  0  0
  4 10  1  0  0  0  0
  4  3  1  0  0  0  0
  5  8  1  1  0  0  0
  5 13  1  0  0  0  0
  6  8  1  0  0  0  0
  7 12  1  0  0  0  0
  9 11  1  6  0  0  0
  9  5  1  0  0  0  0
 10  7  1  0  0  0  0
 11  6  2  0  0  0  0
 12 11  1  0  0  0  0
 13 14  1  1  0  0  0
 15 13  1  0  0  0  0
 15 16  1  1  0  0  0
 15 14  1  0  0  0  0
 16 18  1  0  0  0  0
 18 17  1  0  0  0  0
 20 22  1  0  0  0  0
 20 19  1  0  0  0  0
 21 22  2  0  0  0  0
 22 23  1  0  0  0  0
 24  1  1  6  0  0  0
 24 30  1  0  0  0  0
 25 26  1  6  0  0  0
 25 24  1  0  0  0  0
 27 25  1  0  0  0  0
 29 28  1  0  0  0  0
 29 27  2  0  0  0  0
 31 34  1  0  0  0  0
 31 35  1  1  0  0  0
 31 37  1  0  0  0  0
 32 33  1  0  0  0  0
 33 38  1  1  0  0  0
 34 30  1  1  0  0  0
 34 32  1  0  0  0  0
 36 35  1  0  0  0  0
 37 35  1  1  0  0  0
 37 33  1  0  0  0  0
 38 42  1  0  0  0  0
 39 40  2  0  0  0  0
 40 42  1  0  0  0  0
 40 43  1  0  0  0  0
 42 41  1  0  0  0  0
 44 43  1  0  0  0  0
 45 44  1  0  0  0  0
M  END
>  <MODEL>
4

>  <REMARK>
 VINA RESULT:      -5.9      2.093      4.792
  Name = 
  16 active torsions:
  status: ('A' for Active; 'I' for Inactive)
    1  A    between atoms: C_1  and  C_19
    2  A    between atoms: N_2  and  C_22
    3  A    between atoms: N_2  and  C_27
    4  A    between atoms: C_3  and  C_5
    5  A    between atoms: C_5  and  C_33
    6  A    between atoms: C_7  and  C_16
    7  A    between atoms: C_8  and  C_11
    8  A    between atoms: C_9  and  O_38
    9  A    between atoms: C_11  and  O_38
   10  A    between atoms: C_13  and  C_40
   11  A    between atoms: C_19  and  C_22
   12  A    between atoms: C_22  and  C_40
   13  A    between atoms: C_23  and  C_26
   14  A    between atoms: C_26  and  N_45
   15  A    between atoms: C_28  and  C_43
   16  A    between atoms: C_29  and  C_43
                            x       y       z     vdW  Elec       q    Type
                         _______ _______ _______ _____ _____    ______ ____

>  <TORSDO>
F 16

$$$$
=
 OpenBabel11042415133D

 45 49  0  0  1  0  0  0  0  0999 V2000
  191.6970  175.5980  142.1240 C   0  0  0  0  0  2  0  0  0  0  0  0
  193.0340  173.4160  142.5000 C   0  0  2  0  0  3  0  0  0  0  0  0
  191.7120  174.0620  142.1740 C   0  0  2  0  0  3  0  0  0  0  0  0
  190.8620  173.3300  141.1460 C   0  0  0  0  0  2  0  0  0  0  0  0
  194.3980  171.7960  143.8870 C   0  0  1  0  0  3  0  0  0  0  0  0
  192.6950  170.2200  144.0710 N   0  0  0  0  0  0  0  0  0  0  0  0
  189.8110  172.1490  143.1100 C   0  0  0  0  0  2  0  0  0  0  0  0
  194.0170  170.4960  144.3100 O   0  0  0  0  0  0  0  0  0  0  0  0
  193.1270  172.2900  143.2450 C   0  0  2  0  0  3  0  0  0  0  0  0
  189.5560  172.8940  141.8030 C   0  0  0  0  0  2  0  0  0  0  0  0
  192.1240  171.2220  143.4970 C   0  0  0  0  0  0  0  0  0  0  0  0
  190.7810  171.0100  142.8660 C   0  0  0  0  0  2  0  0  0  0  0  0
  194.7100  172.6060  145.1420 C   0  0  1  0  0  3  0  0  0  0  0  0
  195.9800  172.0610  145.7660 C   0  0  0  0  0  2  0  0  0  0  0  0
  196.0130  173.3670  145.0060 C   0  0  2  0  0  3  0  0  0  0  0  0
  196.0460  174.5030  146.0120 C   0  0  0  0  0  2  0  0  0  0  0  0
  194.7940  176.6320  145.9010 C   0  0  0  0  0  1  0  0  0  0  0  0
  194.6790  175.1420  146.1440 C   0  0  0  0  0  2  0  0  0  0  0  0
  194.2970  174.0530  141.9940 C   0  0  0  0  0  2  0  0  0  0  0  0
  194.5570  175.2800  142.6610 O   0  0  0  0  0  0  0  0  0  0  0  0
  195.2540  176.8900  141.1880 O   0  0  0  0  0  0  0  0  0  0  0  0
  195.5080  176.1920  142.2020 C   0  0  0  0  0  0  0  0  0  0  0  0
  196.8220  176.3600  142.8860 C   0  0  0  0  0  1  0  0  0  0  0  0
  190.7560  176.2630  143.1310 C   0  0  2  0  0  3  0  0  0  0  0  0
  190.8510  175.5890  144.5060 C   0  0  2  0  0  3  0  0  0  0  0  0
  189.5720  174.8220  144.8120 C   0  0  0  0  0  1  0  0  0  0  0  0
  191.0710  176.6050  145.5840 C   0  0  0  0  0  3  0  0  0  0  0  0
  191.3630  174.9440  147.2520 O   0  0  0  0  0  1  0  0  0  0  0  0
  191.3020  176.2750  146.8510 C   0  0  0  0  0  3  0  0  0  0  0  0
  189.3940  176.1670  142.6220 N   0  0  0  0  0  2  0  0  0  0  0  0
  188.1550  177.7650  141.2460 C   0  0  1  0  0  3  0  0  0  0  0  0
  187.7970  177.6770  143.6750 C   0  0  0  0  0  2  0  0  0  0  0  0
  186.6220  178.3680  143.0170 C   0  0  1  0  0  3  0  0  0  0  0  0
  188.8350  177.5120  142.5860 C   0  0  1  0  0  3  0  0  0  0  0  0
  186.9850  176.8830  141.0770 N   0  0  0  0  0  0  0  0  0  0  0  0
  186.6980  176.8450  139.6550 C   0  0  0  0  0  1  0  0  0  0  0  0
  186.8110  178.2820  141.5070 C   0  0  2  0  0  3  0  0  0  0  0  0
  185.3100  177.7200  143.4410 C   0  0  0  0  0  2  0  0  0  0  0  0
  185.5760  176.5220  145.9860 O   0  0  0  0  0  0  0  0  0  0  0  0
  185.0120  177.6500  145.9360 C   0  0  0  0  0  0  0  0  0  0  0  0
  184.2180  179.5220  144.6310 O   0  0  0  0  0  1  0  0  0  0  0  0
  184.8280  178.3150  144.6790 N   0  0  0  0  0  0  0  0  0  0  0  0
  184.5710  178.2980  147.2070 C   0  0  0  0  0  2  0  0  0  0  0  0
  185.5600  179.3660  147.6450 C   0  0  0  0  0  2  0  0  0  0  0  0
  186.7550  178.7320  148.3330 C   0  0  0  0  0  1  0  0  0  0  0  0
  2 19  1  1  0  0  0
  2  9  1  0  0  0  0
  3  1  1  6  0  0  0
  3  2  1  0  0  0  0
  4 10  1  0  0  0  0
  4  3  1  0  0  0  0
  5  8  1  1  0  0  0
  5 13  1  0  0  0  0
  6  8  1  0  0  0  0
  9 11  1  6  0  0  0
  9  5  1  0  0  0  0
 10  7  1  0  0  0  0
 11  6  2  0  0  0  0
 12  7  1  0  0  0  0
 12 11  1  0  0  0  0
 13 14  1  1  0  0  0
 15 13  1  0  0  0  0
 15 14  1  0  0  0  0
 15 16  1  1  0  0  0
 16 18  1  0  0  0  0
 17 18  1  0  0  0  0
 19 20  1  0  0  0  0
 21 22  2  0  0  0  0
 22 20  1  0  0  0  0
 22 23  1  0  0  0  0
 24  1  1  6  0  0  0
 24 25  1  0  0  0  0
 25 26  1  1  0  0  0
 25 27  1  0  0  0  0
 27 29  2  0  0  0  0
 29 28  1  0  0  0  0
 30 24  1  0  0  0  0
 31 35  1  1  0  0  0
 31 37  1  0  0  0  0
 31 34  1  0  0  0  0
 33 38  1  6  0  0  0
 33 32  1  0  0  0  0
 34 30  1  6  0  0  0
 34 32  1  0  0  0  0
 36 35  1  0  0  0  0
 37 35  1  1  0  0  0
 37 33  1  0  0  0  0
 38 42  1  0  0  0  0
 40 39  2  0  0  0  0
 40 43  1  0  0  0  0
 41 42  1  0  0  0  0
 42 40  1  0  0  0  0
 43 44  1  0  0  0  0
 44 45  1  0  0  0  0
M  END
>  <MODEL>
5

>  <REMARK>
 VINA RESULT:      -5.8      2.172      5.146
  Name = 
  16 active torsions:
  status: ('A' for Active; 'I' for Inactive)
    1  A    between atoms: C_1  and  C_19
    2  A    between atoms: N_2  and  C_22
    3  A    between atoms: N_2  and  C_27
    4  A    between atoms: C_3  and  C_5
    5  A    between atoms: C_5  and  C_33
    6  A    between atoms: C_7  and  C_16
    7  A    between atoms: C_8  and  C_11
    8  A    between atoms: C_9  and  O_38
    9  A    between atoms: C_11  and  O_38
   10  A    between atoms: C_13  and  C_40
   11  A    between atoms: C_19  and  C_22
   12  A    between atoms: C_22  and  C_40
   13  A    between atoms: C_23  and  C_26
   14  A    between atoms: C_26  and  N_45
   15  A    between atoms: C_28  and  C_43
   16  A    between atoms: C_29  and  C_43
                            x       y       z     vdW  Elec       q    Type
                         _______ _______ _______ _____ _____    ______ ____

>  <TORSDO>
F 16

$$$$
=
 OpenBabel11042415133D

 45 49  0  0  1  0  0  0  0  0999 V2000
  190.9830  174.3090  145.1150 C   0  0  0  0  0  2  0  0  0  0  0  0
  193.0850  173.4660  143.8650 C   0  0  2  0  0  3  0  0  0  0  0  0
  192.5120  174.3260  144.9620 C   0  0  2  0  0  3  0  0  0  0  0  0
  193.3330  174.3870  146.2420 C   0  0  0  0  0  2  0  0  0  0  0  0
  194.5700  173.2100  141.8310 C   0  0  1  0  0  3  0  0  0  0  0  0
  196.2020  174.6810  142.5990 N   0  0  0  0  0  0  0  0  0  0  0  0
  194.4480  176.4080  145.2270 C   0  0  0  0  0  2  0  0  0  0  0  0
  195.8600  173.7680  141.6350 O   0  0  0  0  0  0  0  0  0  0  0  0
  194.1640  173.8390  143.1400 C   0  0  2  0  0  3  0  0  0  0  0  0
  193.7850  175.8250  146.4720 C   0  0  0  0  0  2  0  0  0  0  0  0
  195.2570  174.7920  143.4670 C   0  0  0  0  0  0  0  0  0  0  0  0
  195.5580  175.4860  144.7620 C   0  0  0  0  0  2  0  0  0  0  0  0
  193.6820  173.7150  140.6990 C   0  0  1  0  0  3  0  0  0  0  0  0
  193.7960  172.7560  139.5300 C   0  0  0  0  0  2  0  0  0  0  0  0
  192.5570  172.7460  140.3950 C   0  0  2  0  0  3  0  0  0  0  0  0
  191.4500  173.4690  139.6510 C   0  0  0  0  0  2  0  0  0  0  0  0
  190.7860  173.2730  137.2770 C   0  0  0  0  0  1  0  0  0  0  0  0
  190.8200  172.5610  138.6140 C   0  0  0  0  0  2  0  0  0  0  0  0
  192.4250  172.1520  143.5540 C   0  0  0  0  0  2  0  0  0  0  0  0
  192.9350  171.1140  144.3790 O   0  0  0  0  0  0  0  0  0  0  0  0
  193.0850  168.8560  144.7350 O   0  0  0  0  0  0  0  0  0  0  0  0
  193.1070  169.8090  143.9160 C   0  0  0  0  0  0  0  0  0  0  0  0
  193.3180  169.5160  142.4690 C   0  0  0  0  0  1  0  0  0  0  0  0
  190.3550  175.6670  145.4370 C   0  0  2  0  0  3  0  0  0  0  0  0
  190.0740  175.8030  146.9390 C   0  0  2  0  0  3  0  0  0  0  0  0
  188.8920  174.9320  147.3400 C   0  0  0  0  0  1  0  0  0  0  0  0
  189.7660  177.2240  147.2970 C   0  0  0  0  0  3  0  0  0  0  0  0
  191.5670  177.3510  148.8350 O   0  0  0  0  0  1  0  0  0  0  0  0
  190.4750  177.9160  148.1840 C   0  0  0  0  0  3  0  0  0  0  0  0
  189.1130  175.7900  144.6850 N   0  0  0  0  0  2  0  0  0  0  0  0
  189.2660  176.4230  142.3270 C   0  0  1  0  0  3  0  0  0  0  0  0
  188.0930  177.8710  143.9290 C   0  0  0  0  0  2  0  0  0  0  0  0
  187.6520  178.2140  142.5220 C   0  0  1  0  0  3  0  0  0  0  0  0
  189.2560  176.9140  143.7700 C   0  0  1  0  0  3  0  0  0  0  0  0
  187.9660  175.8280  141.9670 N   0  0  0  0  0  0  0  0  0  0  0  0
  188.2020  174.9930  140.8030 C   0  0  0  0  0  1  0  0  0  0  0  0
  188.2910  177.2090  141.5700 C   0  0  2  0  0  3  0  0  0  0  0  0
  186.1330  178.1810  142.4110 C   0  0  0  0  0  2  0  0  0  0  0  0
  185.2050  180.1370  144.2260 O   0  0  0  0  0  0  0  0  0  0  0  0
  185.0780  178.9290  144.5670 C   0  0  0  0  0  0  0  0  0  0  0  0
  185.4030  176.5850  144.0780 O   0  0  0  0  0  1  0  0  0  0  0  0
  185.5370  177.8790  143.7050 N   0  0  0  0  0  0  0  0  0  0  0  0
  184.4110  178.6060  145.8630 C   0  0  0  0  0  2  0  0  0  0  0  0
  185.3740  178.7680  147.0280 C   0  0  0  0  0  2  0  0  0  0  0  0
  185.9590  177.4250  147.4230 C   0  0  0  0  0  1  0  0  0  0  0  0
  2 19  1  6  0  0  0
  2  3  1  0  0  0  0
  3  1  1  1  0  0  0
  3  4  1  0  0  0  0
  4 10  1  0  0  0  0
  5  8  1  6  0  0  0
  5  9  1  0  0  0  0
  6 11  2  0  0  0  0
  7 10  1  0  0  0  0
  8  6  1  0  0  0  0
  9 11  1  1  0  0  0
  9  2  1  0  0  0  0
 11 12  1  0  0  0  0
 12  7  1  0  0  0  0
 13 14  1  6  0  0  0
 13  5  1  0  0  0  0
 14 15  1  0  0  0  0
 15 16  1  6  0  0  0
 15 13  1  0  0  0  0
 17 18  1  0  0  0  0
 18 16  1  0  0  0  0
 19 20  1  0  0  0  0
 22 20  1  0  0  0  0
 22 21  2  0  0  0  0
 23 22  1  0  0  0  0
 24  1  1  1  0  0  0
 24 25  1  0  0  0  0
 25 27  1  0  0  0  0
 25 26  1  6  0  0  0
 27 29  2  0  0  0  0
 29 28  1  0  0  0  0
 30 24  1  0  0  0  0
 31 35  1  1  0  0  0
 31 34  1  0  0  0  0
 33 38  1  1  0  0  0
 33 32  1  0  0  0  0
 34 32  1  0  0  0  0
 34 30  1  1  0  0  0
 36 35  1  0  0  0  0
 37 35  1  1  0  0  0
 37 31  1  0  0  0  0
 37 33  1  0  0  0  0
 38 42  1  0  0  0  0
 39 40  2  0  0  0  0
 40 43  1  0  0  0  0
 42 41  1  0  0  0  0
 42 40  1  0  0  0  0
 43 44  1  0  0  0  0
 44 45  1  0  0  0  0
M  END
>  <MODEL>
6

>  <REMARK>
 VINA RESULT:      -5.8      1.749      3.072
  Name = 
  16 active torsions:
  status: ('A' for Active; 'I' for Inactive)
    1  A    between atoms: C_1  and  C_19
    2  A    between atoms: N_2  and  C_22
    3  A    between atoms: N_2  and  C_27
    4  A    between atoms: C_3  and  C_5
    5  A    between atoms: C_5  and  C_33
    6  A    between atoms: C_7  and  C_16
    7  A    between atoms: C_8  and  C_11
    8  A    between atoms: C_9  and  O_38
    9  A    between atoms: C_11  and  O_38
   10  A    between atoms: C_13  and  C_40
   11  A    between atoms: C_19  and  C_22
   12  A    between atoms: C_22  and  C_40
   13  A    between atoms: C_23  and  C_26
   14  A    between atoms: C_26  and  N_45
   15  A    between atoms: C_28  and  C_43
   16  A    between atoms: C_29  and  C_43
                            x       y       z     vdW  Elec       q    Type
                         _______ _______ _______ _____ _____    ______ ____

>  <TORSDO>
F 16

$$$$
=
 OpenBabel11042415133D

 45 49  0  0  1  0  0  0  0  0999 V2000
  192.0930  174.1780  145.1650 C   0  0  0  0  0  2  0  0  0  0  0  0
  193.8300  173.8310  143.2800 C   0  0  2  0  0  3  0  0  0  0  0  0
  193.5010  174.4550  144.6120 C   0  0  2  0  0  3  0  0  0  0  0  0
  194.6420  174.4950  145.6160 C   0  0  0  0  0  2  0  0  0  0  0  0
  194.6860  174.0520  140.9080 C   0  0  1  0  0  3  0  0  0  0  0  0
  196.2830  175.6630  141.4300 N   0  0  0  0  0  0  0  0  0  0  0  0
  195.1690  176.7710  144.6690 C   0  0  0  0  0  2  0  0  0  0  0  0
  195.7880  174.8260  140.4620 O   0  0  0  0  0  0  0  0  0  0  0  0
  194.6020  174.4520  142.3590 C   0  0  2  0  0  3  0  0  0  0  0  0
  194.9680  175.9490  145.9390 C   0  0  0  0  0  2  0  0  0  0  0  0
  195.6220  175.5210  142.5260 C   0  0  0  0  0  0  0  0  0  0  0  0
  196.1990  176.0970  143.7850 C   0  0  0  0  0  2  0  0  0  0  0  0
  193.4550  174.5400  140.1490 C   0  0  1  0  0  3  0  0  0  0  0  0
  193.7400  174.4590  138.6620 C   0  0  0  0  0  2  0  0  0  0  0  0
  192.8390  173.4350  139.3140 C   0  0  2  0  0  3  0  0  0  0  0  0
  191.4000  173.7890  138.9860 C   0  0  0  0  0  2  0  0  0  0  0  0
  189.3480  173.0610  137.8150 C   0  0  0  0  0  1  0  0  0  0  0  0
  190.6920  172.6110  138.3480 C   0  0  0  0  0  2  0  0  0  0  0  0
  193.2700  172.4750  142.9560 C   0  0  0  0  0  2  0  0  0  0  0  0
  191.9490  172.5740  142.4440 O   0  0  0  0  0  0  0  0  0  0  0  0
  190.0880  171.4060  143.0950 O   0  0  0  0  0  0  0  0  0  0  0  0
  191.0990  171.4710  142.3510 C   0  0  0  0  0  0  0  0  0  0  0  0
  191.3630  170.3620  141.3890 C   0  0  0  0  0  1  0  0  0  0  0  0
  191.0730  175.2900  144.9080 C   0  0  2  0  0  3  0  0  0  0  0  0
  190.5470  175.8720  146.2260 C   0  0  2  0  0  3  0  0  0  0  0  0
  191.6960  176.4190  147.0620 C   0  0  0  0  0  1  0  0  0  0  0  0
  189.8300  174.8260  147.0220 C   0  0  0  0  0  3  0  0  0  0  0  0
  187.8170  176.0800  147.0780 O   0  0  0  0  0  1  0  0  0  0  0  0
  188.5630  174.9520  147.4070 C   0  0  0  0  0  3  0  0  0  0  0  0
  189.9720  174.7340  144.1330 N   0  0  0  0  0  2  0  0  0  0  0  0
  189.3360  174.7400  141.7720 C   0  0  1  0  0  3  0  0  0  0  0  0
  188.6970  176.6080  143.2360 C   0  0  0  0  0  2  0  0  0  0  0  0
  187.8150  176.6070  142.0050 C   0  0  1  0  0  3  0  0  0  0  0  0
  189.7760  175.5810  142.9640 C   0  0  1  0  0  3  0  0  0  0  0  0
  188.0090  174.1450  142.0120 N   0  0  0  0  0  0  0  0  0  0  0  0
  187.8830  173.0310  141.0880 C   0  0  0  0  0  1  0  0  0  0  0  0
  188.1450  175.3610  141.1910 C   0  0  2  0  0  3  0  0  0  0  0  0
  186.3430  176.6290  142.3980 C   0  0  0  0  0  2  0  0  0  0  0  0
  185.3540  176.7120  145.0430 O   0  0  0  0  0  0  0  0  0  0  0  0
  185.5410  177.8170  144.4630 C   0  0  0  0  0  0  0  0  0  0  0  0
  186.2230  179.0440  142.4960 O   0  0  0  0  0  1  0  0  0  0  0  0
  186.0290  177.8560  143.1150 N   0  0  0  0  0  0  0  0  0  0  0  0
  185.2830  179.0830  145.2110 C   0  0  0  0  0  2  0  0  0  0  0  0
  185.9140  179.0380  146.5930 C   0  0  0  0  0  2  0  0  0  0  0  0
  184.8780  178.6710  147.6390 C   0  0  0  0  0  1  0  0  0  0  0  0
  2 19  1  6  0  0  0
  2  3  1  0  0  0  0
  3  1  1  1  0  0  0
  3  4  1  0  0  0  0
  4 10  1  0  0  0  0
  5  8  1  6  0  0  0
  5  9  1  0  0  0  0
  6 11  2  0  0  0  0
  7 10  1  0  0  0  0
  8  6  1  0  0  0  0
  9 11  1  1  0  0  0
  9  2  1  0  0  0  0
 11 12  1  0  0  0  0
 12  7  1  0  0  0  0
 13 14  1  6  0  0  0
 13  5  1  0  0  0  0
 14 15  1  0  0  0  0
 15 16  1  6  0  0  0
 15 13  1  0  0  0  0
 17 18  1  0  0  0  0
 18 16  1  0  0  0  0
 20 19  1  0  0  0  0
 22 20  1  0  0  0  0
 22 21  2  0  0  0  0
 23 22  1  0  0  0  0
 24  1  1  1  0  0  0
 24 25  1  0  0  0  0
 25 27  1  0  0  0  0
 25 26  1  1  0  0  0
 27 29  2  0  0  0  0
 28 29  1  0  0  0  0
 30 24  1  0  0  0  0
 31 35  1  1  0  0  0
 31 34  1  0  0  0  0
 33 38  1  1  0  0  0
 33 32  1  0  0  0  0
 34 32  1  0  0  0  0
 34 30  1  1  0  0  0
 36 35  1  0  0  0  0
 37 31  1  0  0  0  0
 37 33  1  0  0  0  0
 37 35  1  1  0  0  0
 38 42  1  0  0  0  0
 40 39  2  0  0  0  0
 40 43  1  0  0  0  0
 41 42  1  0  0  0  0
 42 40  1  0  0  0  0
 43 44  1  0  0  0  0
 44 45  1  0  0  0  0
M  END
>  <MODEL>
7

>  <REMARK>
 VINA RESULT:      -5.7      1.750      2.999
  Name = 
  16 active torsions:
  status: ('A' for Active; 'I' for Inactive)
    1  A    between atoms: C_1  and  C_19
    2  A    between atoms: N_2  and  C_22
    3  A    between atoms: N_2  and  C_27
    4  A    between atoms: C_3  and  C_5
    5  A    between atoms: C_5  and  C_33
    6  A    between atoms: C_7  and  C_16
    7  A    between atoms: C_8  and  C_11
    8  A    between atoms: C_9  and  O_38
    9  A    between atoms: C_11  and  O_38
   10  A    between atoms: C_13  and  C_40
   11  A    between atoms: C_19  and  C_22
   12  A    between atoms: C_22  and  C_40
   13  A    between atoms: C_23  and  C_26
   14  A    between atoms: C_26  and  N_45
   15  A    between atoms: C_28  and  C_43
   16  A    between atoms: C_29  and  C_43
                            x       y       z     vdW  Elec       q    Type
                         _______ _______ _______ _____ _____    ______ ____

>  <TORSDO>
F 16

$$$$
=
 OpenBabel11042415133D

 45 49  0  0  1  0  0  0  0  0999 V2000
  190.5060  174.6190  142.6030 C   0  0  0  0  0  2  0  0  0  0  0  0
  192.5030  174.7160  144.2450 C   0  0  2  0  0  3  0  0  0  0  0  0
  191.0260  174.9160  144.0190 C   0  0  2  0  0  3  0  0  0  0  0  0
  190.1270  174.5230  145.1820 C   0  0  0  0  0  2  0  0  0  0  0  0
  194.7320  175.5920  145.0640 C   0  0  1  0  0  3  0  0  0  0  0  0
  193.8270  176.7880  146.8440 N   0  0  0  0  0  0  0  0  0  0  0  0
  190.3450  176.9180  145.9380 C   0  0  0  0  0  2  0  0  0  0  0  0
  194.9770  176.3540  146.2360 O   0  0  0  0  0  0  0  0  0  0  0  0
  193.2270  175.5180  145.0600 C   0  0  2  0  0  3  0  0  0  0  0  0
  189.3850  175.7610  145.6750 C   0  0  0  0  0  2  0  0  0  0  0  0
  192.7930  176.3720  146.1970 C   0  0  0  0  0  0  0  0  0  0  0  0
  191.4530  176.4600  146.8640 C   0  0  0  0  0  2  0  0  0  0  0  0
  195.2280  176.4130  143.8790 C   0  0  1  0  0  3  0  0  0  0  0  0
  196.6350  175.9650  143.5330 C   0  0  0  0  0  2  0  0  0  0  0  0
  195.4740  175.5460  142.6610 C   0  0  2  0  0  3  0  0  0  0  0  0
  195.4790  176.4100  141.4130 C   0  0  0  0  0  2  0  0  0  0  0  0
  194.0010  174.8410  140.2030 C   0  0  0  0  0  1  0  0  0  0  0  0
  195.3350  175.5570  140.1690 C   0  0  0  0  0  2  0  0  0  0  0  0
  193.2010  173.5950  143.5290 C   0  0  0  0  0  2  0  0  0  0  0  0
  192.5680  172.3500  143.7850 O   0  0  0  0  0  0  0  0  0  0  0  0
  192.5050  170.0820  143.4650 O   0  0  0  0  0  0  0  0  0  0  0  0
  192.8180  171.2130  143.0150 C   0  0  0  0  0  0  0  0  0  0  0  0
  193.4500  171.3070  141.6670 C   0  0  0  0  0  1  0  0  0  0  0  0
  189.0090  174.3150  142.5200 C   0  0  2  0  0  3  0  0  0  0  0  0
  188.7630  172.8610  142.0970 C   0  0  2  0  0  3  0  0  0  0  0  0
  188.9420  171.9240  143.2840 C   0  0  0  0  0  1  0  0  0  0  0  0
  189.7160  172.4530  141.0160 C   0  0  0  0  0  3  0  0  0  0  0  0
  188.0380  172.5420  139.3420 O   0  0  0  0  0  1  0  0  0  0  0  0
  189.3490  172.3090  139.7460 C   0  0  0  0  0  3  0  0  0  0  0  0
  188.4070  175.2240  141.5550 N   0  0  0  0  0  2  0  0  0  0  0  0
  187.7860  177.5580  141.1690 C   0  0  1  0  0  3  0  0  0  0  0  0
  187.5620  176.5660  143.4060 C   0  0  0  0  0  2  0  0  0  0  0  0
  186.7000  177.8070  143.3160 C   0  0  1  0  0  3  0  0  0  0  0  0
  188.3960  176.5570  142.1420 C   0  0  1  0  0  3  0  0  0  0  0  0
  186.3620  177.2570  140.9320 N   0  0  0  0  0  0  0  0  0  0  0  0
  186.0010  177.9220  139.6930 C   0  0  0  0  0  1  0  0  0  0  0  0
  186.7550  178.3160  141.8800 C   0  0  2  0  0  3  0  0  0  0  0  0
  185.2670  177.4980  143.7310 C   0  0  0  0  0  2  0  0  0  0  0  0
  184.9970  179.8220  145.3160 O   0  0  0  0  0  0  0  0  0  0  0  0
  185.0050  178.7130  145.9170 C   0  0  0  0  0  0  0  0  0  0  0  0
  185.1640  176.3030  145.8330 O   0  0  0  0  0  1  0  0  0  0  0  0
  185.1510  177.4900  145.1820 N   0  0  0  0  0  0  0  0  0  0  0  0
  184.8230  178.6890  147.3980 C   0  0  0  0  0  2  0  0  0  0  0  0
  186.0640  178.1510  148.0920 C   0  0  0  0  0  2  0  0  0  0  0  0
  187.3150  178.5860  147.3520 C   0  0  0  0  0  1  0  0  0  0  0  0
  2 19  1  6  0  0  0
  2  9  1  0  0  0  0
  3  1  1  6  0  0  0
  3  2  1  0  0  0  0
  3  4  1  0  0  0  0
  4 10  1  0  0  0  0
  5  8  1  1  0  0  0
  7 12  1  0  0  0  0
  8  6  1  0  0  0  0
  9  5  1  0  0  0  0
  9 11  1  1  0  0  0
 10  7  1  0  0  0  0
 11  6  2  0  0  0  0
 11 12  1  0  0  0  0
 13 14  1  1  0  0  0
 13  5  1  0  0  0  0
 15 16  1  6  0  0  0
 15 14  1  0  0  0  0
 15 13  1  0  0  0  0
 18 17  1  0  0  0  0
 18 16  1  0  0  0  0
 19 20  1  0  0  0  0
 22 21  2  0  0  0  0
 22 20  1  0  0  0  0
 23 22  1  0  0  0  0
 24  1  1  6  0  0  0
 25 24  1  0  0  0  0
 25 26  1  1  0  0  0
 27 25  1  0  0  0  0
 28 29  1  0  0  0  0
 29 27  2  0  0  0  0
 30 24  1  0  0  0  0
 31 35  1  6  0  0  0
 31 37  1  0  0  0  0
 31 34  1  0  0  0  0
 33 32  1  0  0  0  0
 33 38  1  6  0  0  0
 34 30  1  6  0  0  0
 34 32  1  0  0  0  0
 36 35  1  0  0  0  0
 37 35  1  6  0  0  0
 37 33  1  0  0  0  0
 38 42  1  0  0  0  0
 39 40  2  0  0  0  0
 40 43  1  0  0  0  0
 42 41  1  0  0  0  0
 42 40  1  0  0  0  0
 43 44  1  0  0  0  0
 45 44  1  0  0  0  0
M  END
>  <MODEL>
8

>  <REMARK>
 VINA RESULT:      -5.7      2.161      3.817
  Name = 
  16 active torsions:
  status: ('A' for Active; 'I' for Inactive)
    1  A    between atoms: C_1  and  C_19
    2  A    between atoms: N_2  and  C_22
    3  A    between atoms: N_2  and  C_27
    4  A    between atoms: C_3  and  C_5
    5  A    between atoms: C_5  and  C_33
    6  A    between atoms: C_7  and  C_16
    7  A    between atoms: C_8  and  C_11
    8  A    between atoms: C_9  and  O_38
    9  A    between atoms: C_11  and  O_38
   10  A    between atoms: C_13  and  C_40
   11  A    between atoms: C_19  and  C_22
   12  A    between atoms: C_22  and  C_40
   13  A    between atoms: C_23  and  C_26
   14  A    between atoms: C_26  and  N_45
   15  A    between atoms: C_28  and  C_43
   16  A    between atoms: C_29  and  C_43
                            x       y       z     vdW  Elec       q    Type
                         _______ _______ _______ _____ _____    ______ ____

>  <TORSDO>
F 16

$$$$
=
 OpenBabel11042415133D

 45 49  0  0  1  0  0  0  0  0999 V2000
  193.1480  172.9390  144.7590 C   0  0  0  0  0  2  0  0  0  0  0  0
  195.0650  173.7530  143.2240 C   0  0  2  0  0  3  0  0  0  0  0  0
  194.2770  173.9490  144.4940 C   0  0  2  0  0  3  0  0  0  0  0  0
  195.0810  174.4180  145.6970 C   0  0  0  0  0  2  0  0  0  0  0  0
  196.0120  174.6810  141.0680 C   0  0  1  0  0  3  0  0  0  0  0  0
  196.4660  176.7870  141.9490 N   0  0  0  0  0  0  0  0  0  0  0  0
  194.4950  176.7570  144.9620 C   0  0  0  0  0  2  0  0  0  0  0  0
  196.6120  175.9520  140.8710 O   0  0  0  0  0  0  0  0  0  0  0  0
  195.5310  174.7910  142.4920 C   0  0  2  0  0  3  0  0  0  0  0  0
  194.5660  175.7840  146.1360 C   0  0  0  0  0  2  0  0  0  0  0  0
  195.8230  176.1920  142.8940 C   0  0  0  0  0  0  0  0  0  0  0  0
  195.8390  176.8070  144.2610 C   0  0  0  0  0  2  0  0  0  0  0  0
  194.8270  174.5880  140.1110 C   0  0  1  0  0  3  0  0  0  0  0  0
  195.3570  174.4760  138.6950 C   0  0  0  0  0  2  0  0  0  0  0  0
  194.7950  173.2570  139.3890 C   0  0  2  0  0  3  0  0  0  0  0  0
  193.3980  173.0030  138.8510 C   0  0  0  0  0  2  0  0  0  0  0  0
  191.6190  171.3240  138.4950 C   0  0  0  0  0  1  0  0  0  0  0  0
  193.0620  171.5270  138.9080 C   0  0  0  0  0  2  0  0  0  0  0  0
  195.3300  172.3540  142.7440 C   0  0  0  0  0  2  0  0  0  0  0  0
  196.5090  171.8240  143.3340 O   0  0  0  0  0  0  0  0  0  0  0  0
  196.2240  169.6400  143.9630 O   0  0  0  0  0  0  0  0  0  0  0  0
  196.4730  170.8240  144.3050 C   0  0  0  0  0  0  0  0  0  0  0  0
  196.7240  171.1240  145.7440 C   0  0  0  0  0  1  0  0  0  0  0  0
  191.7980  173.3090  144.1400 C   0  0  2  0  0  3  0  0  0  0  0  0
  191.6230  172.6540  142.7640 C   0  0  2  0  0  3  0  0  0  0  0  0
  191.4450  173.7170  141.6880 C   0  0  0  0  0  1  0  0  0  0  0  0
  190.4270  171.7540  142.7510 C   0  0  0  0  0  3  0  0  0  0  0  0
  191.6190  169.9890  141.7060 O   0  0  0  0  0  1  0  0  0  0  0  0
  190.4540  170.5220  142.2500 C   0  0  0  0  0  3  0  0  0  0  0  0
  191.7310  174.7590  144.0140 N   0  0  0  0  0  2  0  0  0  0  0  0
  190.9400  176.7790  145.1440 C   0  0  1  0  0  3  0  0  0  0  0  0
  189.4190  174.8840  144.7750 C   0  0  0  0  0  2  0  0  0  0  0  0
  188.6100  176.1370  145.0380 C   0  0  1  0  0  3  0  0  0  0  0  0
  190.8570  175.2590  145.0660 C   0  0  1  0  0  3  0  0  0  0  0  0
  190.4130  177.3960  143.9140 N   0  0  0  0  0  0  0  0  0  0  0  0
  190.9450  178.7460  143.8690 C   0  0  0  0  0  1  0  0  0  0  0  0
  189.5770  177.3120  145.1250 C   0  0  2  0  0  3  0  0  0  0  0  0
  187.5820  176.3550  143.9360 C   0  0  0  0  0  2  0  0  0  0  0  0
  185.4990  176.3610  145.8440 O   0  0  0  0  0  0  0  0  0  0  0  0
  185.7210  177.4410  145.2310 C   0  0  0  0  0  0  0  0  0  0  0  0
  186.9840  178.6730  143.5790 O   0  0  0  0  0  1  0  0  0  0  0  0
  186.7530  177.5130  144.2380 N   0  0  0  0  0  0  0  0  0  0  0  0
  184.9190  178.6510  145.5780 C   0  0  0  0  0  2  0  0  0  0  0  0
  184.8200  178.8250  147.0850 C   0  0  0  0  0  2  0  0  0  0  0  0
  186.1760  179.1740  147.6690 C   0  0  0  0  0  1  0  0  0  0  0  0
  2 19  1  6  0  0  0
  2  3  1  0  0  0  0
  3  1  1  1  0  0  0
  3  4  1  0  0  0  0
  4 10  1  0  0  0  0
  5  8  1  6  0  0  0
  5  9  1  0  0  0  0
  6 11  2  0  0  0  0
  7 10  1  0  0  0  0
  8  6  1  0  0  0  0
  9 11  1  1  0  0  0
  9  2  1  0  0  0  0
 11 12  1  0  0  0  0
 12  7  1  0  0  0  0
 13 14  1  6  0  0  0
 13  5  1  0  0  0  0
 14 15  1  0  0  0  0
 15 16  1  6  0  0  0
 15 13  1  0  0  0  0
 16 18  1  0  0  0  0
 17 18  1  0  0  0  0
 19 20  1  0  0  0  0
 20 22  1  0  0  0  0
 21 22  2  0  0  0  0
 22 23  1  0  0  0  0
 24  1  1  6  0  0  0
 25 26  1  6  0  0  0
 25 24  1  0  0  0  0
 27 25  1  0  0  0  0
 28 29  1  0  0  0  0
 29 27  2  0  0  0  0
 30 24  1  0  0  0  0
 31 35  1  6  0  0  0
 32 33  1  0  0  0  0
 32 34  1  0  0  0  0
 33 38  1  6  0  0  0
 33 37  1  0  0  0  0
 34 30  1  6  0  0  0
 34 31  1  0  0  0  0
 36 35  1  0  0  0  0
 37 35  1  6  0  0  0
 37 31  1  0  0  0  0
 38 42  1  0  0  0  0
 40 43  1  0  0  0  0
 40 39  2  0  0  0  0
 41 42  1  0  0  0  0
 42 40  1  0  0  0  0
 43 44  1  0  0  0  0
 44 45  1  0  0  0  0
M  END
>  <MODEL>
9

>  <REMARK>
 VINA RESULT:      -5.7      1.559      2.034
  Name = 
  16 active torsions:
  status: ('A' for Active; 'I' for Inactive)
    1  A    between atoms: C_1  and  C_19
    2  A    between atoms: N_2  and  C_22
    3  A    between atoms: N_2  and  C_27
    4  A    between atoms: C_3  and  C_5
    5  A    between atoms: C_5  and  C_33
    6  A    between atoms: C_7  and  C_16
    7  A    between atoms: C_8  and  C_11
    8  A    between atoms: C_9  and  O_38
    9  A    between atoms: C_11  and  O_38
   10  A    between atoms: C_13  and  C_40
   11  A    between atoms: C_19  and  C_22
   12  A    between atoms: C_22  and  C_40
   13  A    between atoms: C_23  and  C_26
   14  A    between atoms: C_26  and  N_45
   15  A    between atoms: C_28  and  C_43
   16  A    between atoms: C_29  and  C_43
                            x       y       z     vdW  Elec       q    Type
                         _______ _______ _______ _____ _____    ______ ____

>  <TORSDO>
F 16

$$$$
