=
 OpenBabel11042417333D

 39 43  0  0  1  0  0  0  0  0999 V2000
  196.2260  176.6780  141.2590 N   0  0  0  0  0  2  0  0  0  0  0  0
  194.8700  175.3960  142.8010 C   0  0  2  0  0  3  0  0  0  0  0  0
  196.5560  176.9660  143.5570 O   0  0  0  0  0  0  0  0  0  0  0  0
  194.6050  174.9300  141.3650 C   0  0  2  0  0  3  0  0  0  0  0  0
  195.2870  175.9410  140.4330 C   0  0  0  0  0  2  0  0  0  0  0  0
  195.9610  176.3820  142.6140 C   0  0  0  0  0  0  0  0  0  0  0  0
  194.8350  174.1060  145.0080 C   0  0  0  0  0  0  0  0  0  0  0  0
  195.5180  172.7140  145.6590 S   0  0  0  0  0  0  0  0  0  0  0  0
  197.2370  171.1720  144.0640 C   0  0  0  0  0  1  0  0  0  0  0  0
  195.2790  174.2510  143.6920 C   0  0  0  0  0  0  0  0  0  0  0  0
  196.3390  172.3450  144.2380 C   0  0  0  0  0  0  0  0  0  0  0  0
  196.1180  173.2620  143.2720 N   0  0  0  0  0  0  0  0  0  0  0  0
  193.3470  175.7990  146.3880 C   0  0  0  0  0  0  0  0  0  0  0  0
  194.0400  175.0400  145.7570 C   0  0  0  0  0  0  0  0  0  0  0  0
  192.4800  176.6950  147.1670 C   0  0  0  0  0  2  0  0  0  0  0  0
  189.9860  177.3350  147.1400 C   0  0  0  0  0  2  0  0  0  0  0  0
  188.6260  176.8060  146.9780 N   0  0  0  0  0  0  0  0  0  0  0  0
  191.0490  176.2700  147.0830 C   0  0  0  0  0  0  0  0  0  0  0  0
  188.3470  175.4000  147.0030 C   0  0  0  0  0  3  0  0  0  0  0  0
  189.3390  174.5150  147.0550 C   0  0  0  0  0  3  0  0  0  0  0  0
  190.7350  174.9690  147.0800 C   0  0  0  0  0  3  0  0  0  0  0  0
  187.5200  177.7480  146.9680 C   0  0  0  0  0  2  0  0  0  0  0  0
  186.1850  177.0180  146.9800 C   0  0  0  0  0  2  0  0  0  0  0  0
  185.7690  178.9260  145.7120 C   0  0  0  0  0  1  0  0  0  0  0  0
  185.3040  177.5740  145.9670 N   0  0  0  0  0  2  0  0  0  0  0  0
  193.0740  172.5290  141.3300 O   0  0  0  0  0  0  0  0  0  0  0  0
  193.1720  174.8500  141.1090 N   0  0  0  0  0  2  0  0  0  0  0  0
  192.4510  173.6160  141.1850 C   0  0  0  0  0  0  0  0  0  0  0  0
  190.9410  173.6290  141.1510 C   0  0  2  0  0  3  0  0  0  0  0  0
  190.3760  173.1530  139.8240 C   0  0  0  0  0  1  0  0  0  0  0  0
  188.7510  175.1510  143.1790 C   0  0  1  0  0  3  0  0  0  0  0  0
  188.6380  177.6170  143.5630 C   0  0  0  0  0  3  0  0  0  0  0  0
  190.1030  177.7140  143.5440 C   0  0  0  0  0  3  0  0  0  0  0  0
  190.2840  175.2720  143.1050 C   0  0  2  0  0  0  0  0  0  0  0  0
  190.8670  176.6410  143.3430 C   0  0  0  0  0  3  0  0  0  0  0  0
  188.0150  176.4510  143.3960 C   0  0  0  0  0  3  0  0  0  0  0  0
  190.2380  174.9200  141.6180 C   0  0  2  0  0  3  0  0  0  0  0  0
  190.9070  174.3080  143.9030 O   0  0  0  0  0  1  0  0  0  0  0  0
  188.7200  174.7870  141.6990 C   0  0  0  0  0  2  0  0  0  0  0  0
  1  6  1  0  0  0  0
  2 10  1  1  0  0  0
  4 27  1  6  0  0  0
  4  2  1  0  0  0  0
  5  1  1  0  0  0  0
  5  4  1  0  0  0  0
  6  2  1  0  0  0  0
  6  3  2  0  0  0  0
  7  8  1  0  0  0  0
  7 14  1  0  0  0  0
  9 11  1  0  0  0  0
 10  7  2  0  0  0  0
 11  8  1  0  0  0  0
 12 10  1  0  0  0  0
 12 11  2  0  0  0  0
 13 15  1  0  0  0  0
 14 13  3  0  0  0  0
 17 19  1  0  0  0  0
 17 16  1  0  0  0  0
 18 16  1  0  0  0  0
 18 15  1  0  0  0  0
 19 20  2  0  0  0  0
 20 21  1  0  0  0  0
 21 18  2  0  0  0  0
 22 17  1  0  0  0  0
 22 23  1  0  0  0  0
 24 25  1  0  0  0  0
 25 23  1  0  0  0  0
 27 28  1  0  0  0  0
 28 26  2  0  0  0  0
 29 30  1  6  0  0  0
 29 28  1  0  0  0  0
 31 39  1  6  0  0  0
 31 36  1  0  0  0  0
 33 32  1  0  0  0  0
 34 31  1  0  0  0  0
 34 35  1  0  0  0  0
 34 38  1  1  0  0  0
 35 33  2  0  0  0  0
 36 32  2  0  0  0  0
 37 29  1  1  0  0  0
 37 39  1  0  0  0  0
 37 34  1  0  0  0  0
M  END
>  <MODEL>
1

>  <REMARK>
 VINA RESULT:      -6.8      0.000      0.000
  Name = 
  10 active torsions:
  status: ('A' for Active; 'I' for Inactive)
    1  A    between atoms: C_2  and  C_34
    2  A    between atoms: C_3  and  C_25
    3  A    between atoms: C_4  and  C_29
    4  A    between atoms: C_4  and  C_30
    5  A    between atoms: C_5  and  C_18
    6  A    between atoms: C_5  and  C_21
    7  A    between atoms: C_8  and  N_14
    8  A    between atoms: N_17  and  C_20
    9  A    between atoms: C_20  and  C_27
   10  A    between atoms: C_27  and  N_33
                            x       y       z     vdW  Elec       q    Type
                         _______ _______ _______ _____ _____    ______ ____

>  <TORSDO>
F 10

$$$$
=
 OpenBabel11042417333D

 39 43  0  0  1  0  0  0  0  0999 V2000
  192.2920  175.3010  147.3440 N   0  0  0  0  0  2  0  0  0  0  0  0
  191.9910  175.2300  144.9430 C   0  0  2  0  0  3  0  0  0  0  0  0
  193.3280  173.5910  146.1280 O   0  0  0  0  0  0  0  0  0  0  0  0
  191.3720  176.5130  145.5060 C   0  0  2  0  0  3  0  0  0  0  0  0
  191.3650  176.3740  147.0350 C   0  0  0  0  0  2  0  0  0  0  0  0
  192.6230  174.6340  146.1440 C   0  0  0  0  0  0  0  0  0  0  0  0
  192.7090  175.4010  142.4940 C   0  0  0  0  0  0  0  0  0  0  0  0
  194.0800  175.8150  141.6150 S   0  0  0  0  0  0  0  0  0  0  0  0
  196.3990  176.5790  142.9970 C   0  0  0  0  0  1  0  0  0  0  0  0
  192.9930  175.5260  143.8550 C   0  0  0  0  0  0  0  0  0  0  0  0
  194.9770  176.1480  142.9980 C   0  0  0  0  0  0  0  0  0  0  0  0
  194.2630  175.9440  144.1260 N   0  0  0  0  0  0  0  0  0  0  0  0
  190.4880  174.4180  141.4510 C   0  0  0  0  0  0  0  0  0  0  0  0
  191.5030  174.8790  141.9110 C   0  0  0  0  0  0  0  0  0  0  0  0
  189.2440  173.8400  140.9230 C   0  0  0  0  0  2  0  0  0  0  0  0
  188.3200  174.5990  138.6430 C   0  0  0  0  0  2  0  0  0  0  0  0
  188.4960  174.4790  137.1900 N   0  0  0  0  0  0  0  0  0  0  0  0
  189.2810  173.7500  139.4310 C   0  0  0  0  0  0  0  0  0  0  0  0
  189.3380  173.4760  136.6050 C   0  0  0  0  0  3  0  0  0  0  0  0
  190.0870  172.6900  137.3730 C   0  0  0  0  0  3  0  0  0  0  0  0
  190.0670  172.8460  138.8330 C   0  0  0  0  0  3  0  0  0  0  0  0
  187.6550  175.2900  136.3270 C   0  0  0  0  0  2  0  0  0  0  0  0
  188.2360  175.3710  134.9230 C   0  0  0  0  0  2  0  0  0  0  0  0
  188.0570  177.6720  135.2310 C   0  0  0  0  0  1  0  0  0  0  0  0
  188.9430  176.6270  134.7470 N   0  0  0  0  0  2  0  0  0  0  0  0
  190.6750  178.2530  143.3620 O   0  0  0  0  0  0  0  0  0  0  0  0
  190.0250  176.7050  144.9820 N   0  0  0  0  0  2  0  0  0  0  0  0
  189.7580  177.5370  143.8480 C   0  0  0  0  0  0  0  0  0  0  0  0
  188.3930  177.5060  143.2030 C   0  0  2  0  0  3  0  0  0  0  0  0
  188.3910  178.0830  141.7970 C   0  0  0  0  0  1  0  0  0  0  0  0
  185.1170  178.1550  143.4780 C   0  0  1  0  0  3  0  0  0  0  0  0
  183.9420  178.6790  145.6200 C   0  0  0  0  0  3  0  0  0  0  0  0
  184.7520  177.6870  146.3380 C   0  0  0  0  0  3  0  0  0  0  0  0
  186.0000  177.1580  144.2520 C   0  0  2  0  0  0  0  0  0  0  0  0
  185.6940  176.9780  145.7160 C   0  0  0  0  0  3  0  0  0  0  0  0
  184.1040  178.8970  144.3150 C   0  0  0  0  0  3  0  0  0  0  0  0
  187.2130  178.0610  144.0270 C   0  0  2  0  0  3  0  0  0  0  0  0
  186.0710  175.9270  143.5920 O   0  0  0  0  0  1  0  0  0  0  0  0
  186.3370  179.0390  143.2490 C   0  0  0  0  0  2  0  0  0  0  0  0
  2 10  1  6  0  0  0
  2  4  1  0  0  0  0
  2  6  1  0  0  0  0
  3  6  2  0  0  0  0
  4 27  1  6  0  0  0
  4  5  1  0  0  0  0
  5  1  1  0  0  0  0
  6  1  1  0  0  0  0
  7 10  2  0  0  0  0
  8  7  1  0  0  0  0
  8 11  1  0  0  0  0
  9 11  1  0  0  0  0
 10 12  1  0  0  0  0
 11 12  2  0  0  0  0
 13 14  3  0  0  0  0
 14  7  1  0  0  0  0
 15 13  1  0  0  0  0
 16 18  1  0  0  0  0
 17 16  1  0  0  0  0
 18 15  1  0  0  0  0
 19 17  1  0  0  0  0
 19 20  2  0  0  0  0
 20 21  1  0  0  0  0
 21 18  2  0  0  0  0
 22 17  1  0  0  0  0
 23 22  1  0  0  0  0
 25 23  1  0  0  0  0
 25 24  1  0  0  0  0
 26 28  2  0  0  0  0
 28 27  1  0  0  0  0
 29 30  1  6  0  0  0
 29 28  1  0  0  0  0
 31 39  1  1  0  0  0
 31 34  1  0  0  0  0
 31 36  1  0  0  0  0
 32 33  1  0  0  0  0
 34 38  1  6  0  0  0
 34 35  1  0  0  0  0
 35 33  2  0  0  0  0
 36 32  2  0  0  0  0
 37 29  1  6  0  0  0
 37 34  1  0  0  0  0
 39 37  1  0  0  0  0
M  END
>  <MODEL>
2

>  <REMARK>
 VINA RESULT:      -6.5      3.228      6.972
  Name = 
  10 active torsions:
  status: ('A' for Active; 'I' for Inactive)
    1  A    between atoms: C_2  and  C_34
    2  A    between atoms: C_3  and  C_25
    3  A    between atoms: C_4  and  C_29
    4  A    between atoms: C_4  and  C_30
    5  A    between atoms: C_5  and  C_18
    6  A    between atoms: C_5  and  C_21
    7  A    between atoms: C_8  and  N_14
    8  A    between atoms: N_17  and  C_20
    9  A    between atoms: C_20  and  C_27
   10  A    between atoms: C_27  and  N_33
                            x       y       z     vdW  Elec       q    Type
                         _______ _______ _______ _____ _____    ______ ____

>  <TORSDO>
F 10

$$$$
=
 OpenBabel11042417333D

 39 43  0  0  1  0  0  0  0  0999 V2000
  192.2460  175.3580  147.3540 N   0  0  0  0  0  2  0  0  0  0  0  0
  191.8740  175.2450  144.9650 C   0  0  2  0  0  3  0  0  0  0  0  0
  193.1890  173.5870  146.1500 O   0  0  0  0  0  0  0  0  0  0  0  0
  191.3150  176.5600  145.5160 C   0  0  2  0  0  3  0  0  0  0  0  0
  191.3470  176.4550  147.0470 C   0  0  0  0  0  2  0  0  0  0  0  0
  192.5200  174.6540  146.1610 C   0  0  0  0  0  0  0  0  0  0  0  0
  192.5260  175.3400  142.4940 C   0  0  0  0  0  0  0  0  0  0  0  0
  193.8850  175.6860  141.5670 S   0  0  0  0  0  0  0  0  0  0  0  0
  196.2690  176.3930  142.8670 C   0  0  0  0  0  1  0  0  0  0  0  0
  192.8540  175.4820  143.8430 C   0  0  0  0  0  0  0  0  0  0  0  0
  194.8330  176.0140  142.9170 C   0  0  0  0  0  0  0  0  0  0  0  0
  194.1450  175.8580  144.0690 N   0  0  0  0  0  0  0  0  0  0  0  0
  190.2300  174.4430  141.5390 C   0  0  0  0  0  0  0  0  0  0  0  0
  191.2860  174.8510  141.9560 C   0  0  0  0  0  0  0  0  0  0  0  0
  188.9270  173.9570  141.0620 C   0  0  0  0  0  2  0  0  0  0  0  0
  189.5530  171.9030  139.6410 C   0  0  0  0  0  2  0  0  0  0  0  0
  189.5620  171.3610  138.2760 N   0  0  0  0  0  0  0  0  0  0  0  0
  189.0480  173.3200  139.7150 C   0  0  0  0  0  0  0  0  0  0  0  0
  189.3380  172.1890  137.1270 C   0  0  0  0  0  3  0  0  0  0  0  0
  188.9920  173.4650  137.2690 C   0  0  0  0  0  3  0  0  0  0  0  0
  188.8280  174.0420  138.6100 C   0  0  0  0  0  3  0  0  0  0  0  0
  189.9840  169.9840  138.0880 C   0  0  0  0  0  2  0  0  0  0  0  0
  190.8510  169.5190  139.2490 C   0  0  0  0  0  2  0  0  0  0  0  0
  193.0780  169.6320  138.5800 C   0  0  0  0  0  1  0  0  0  0  0  0
  191.9600  168.7220  138.7540 N   0  0  0  0  0  2  0  0  0  0  0  0
  190.6280  178.1760  143.2740 O   0  0  0  0  0  0  0  0  0  0  0  0
  189.9600  176.7860  145.0250 N   0  0  0  0  0  2  0  0  0  0  0  0
  189.6940  177.5470  143.8420 C   0  0  0  0  0  0  0  0  0  0  0  0
  188.3060  177.5450  143.2480 C   0  0  2  0  0  3  0  0  0  0  0  0
  188.2530  178.1760  141.8670 C   0  0  0  0  0  1  0  0  0  0  0  0
  185.0560  178.2620  143.6430 C   0  0  1  0  0  3  0  0  0  0  0  0
  183.9400  178.6550  145.8430 C   0  0  0  0  0  3  0  0  0  0  0  0
  184.7340  177.5900  146.4670 C   0  0  0  0  0  3  0  0  0  0  0  0
  185.9240  177.1840  144.3200 C   0  0  2  0  0  0  0  0  0  0  0  0
  185.6420  176.9030  145.7720 C   0  0  0  0  0  3  0  0  0  0  0  0
  184.0820  178.9660  144.5550 C   0  0  0  0  0  3  0  0  0  0  0  0
  187.1590  178.0680  144.1370 C   0  0  2  0  0  3  0  0  0  0  0  0
  185.9460  176.0060  143.5680 O   0  0  0  0  0  1  0  0  0  0  0  0
  186.2970  179.1260  143.4530 C   0  0  0  0  0  2  0  0  0  0  0  0
  2 10  1  6  0  0  0
  2  4  1  0  0  0  0
  2  6  1  0  0  0  0
  3  6  2  0  0  0  0
  4 27  1  6  0  0  0
  4  5  1  0  0  0  0
  5  1  1  0  0  0  0
  6  1  1  0  0  0  0
  7 10  2  0  0  0  0
  8  7  1  0  0  0  0
  8 11  1  0  0  0  0
  9 11  1  0  0  0  0
 10 12  1  0  0  0  0
 11 12  2  0  0  0  0
 13 14  3  0  0  0  0
 14  7  1  0  0  0  0
 15 13  1  0  0  0  0
 16 18  1  0  0  0  0
 17 16  1  0  0  0  0
 18 15  1  0  0  0  0
 19 20  2  0  0  0  0
 19 17  1  0  0  0  0
 20 21  1  0  0  0  0
 21 18  2  0  0  0  0
 22 17  1  0  0  0  0
 22 23  1  0  0  0  0
 24 25  1  0  0  0  0
 25 23  1  0  0  0  0
 26 28  2  0  0  0  0
 28 27  1  0  0  0  0
 29 30  1  6  0  0  0
 29 28  1  0  0  0  0
 31 39  1  1  0  0  0
 31 34  1  0  0  0  0
 31 36  1  0  0  0  0
 32 33  1  0  0  0  0
 34 38  1  6  0  0  0
 34 35  1  0  0  0  0
 35 33  2  0  0  0  0
 36 32  2  0  0  0  0
 37 29  1  6  0  0  0
 37 34  1  0  0  0  0
 39 37  1  0  0  0  0
M  END
>  <MODEL>
3

>  <REMARK>
 VINA RESULT:      -6.5      2.877      7.231
  Name = 
  10 active torsions:
  status: ('A' for Active; 'I' for Inactive)
    1  A    between atoms: C_2  and  C_34
    2  A    between atoms: C_3  and  C_25
    3  A    between atoms: C_4  and  C_29
    4  A    between atoms: C_4  and  C_30
    5  A    between atoms: C_5  and  C_18
    6  A    between atoms: C_5  and  C_21
    7  A    between atoms: C_8  and  N_14
    8  A    between atoms: N_17  and  C_20
    9  A    between atoms: C_20  and  C_27
   10  A    between atoms: C_27  and  N_33
                            x       y       z     vdW  Elec       q    Type
                         _______ _______ _______ _____ _____    ______ ____

>  <TORSDO>
F 10

$$$$
=
 OpenBabel11042417333D

 39 43  0  0  1  0  0  0  0  0999 V2000
  188.8460  173.7070  137.2440 N   0  0  0  0  0  2  0  0  0  0  0  0
  190.0740  173.7260  139.3300 C   0  0  2  0  0  3  0  0  0  0  0  0
  191.1130  173.1290  137.2220 O   0  0  0  0  0  0  0  0  0  0  0  0
  188.5860  173.9690  139.6020 C   0  0  2  0  0  3  0  0  0  0  0  0
  187.9140  174.2010  138.2420 C   0  0  0  0  0  2  0  0  0  0  0  0
  190.0880  173.4640  137.8710 C   0  0  0  0  0  0  0  0  0  0  0  0
  191.4230  172.7040  141.2480 C   0  0  0  0  0  0  0  0  0  0  0  0
  191.7980  171.1780  141.8430 S   0  0  0  0  0  0  0  0  0  0  0  0
  190.7700  168.9190  140.5330 C   0  0  0  0  0  1  0  0  0  0  0  0
  190.6030  172.5590  140.1270 C   0  0  0  0  0  0  0  0  0  0  0  0
  190.8940  170.3950  140.6610 C   0  0  0  0  0  0  0  0  0  0  0  0
  190.3140  171.2660  139.8080 N   0  0  0  0  0  0  0  0  0  0  0  0
  192.4190  174.9630  142.1920 C   0  0  0  0  0  0  0  0  0  0  0  0
  191.9820  173.9280  141.7540 C   0  0  0  0  0  0  0  0  0  0  0  0
  192.9190  176.2290  142.7460 C   0  0  0  0  0  2  0  0  0  0  0  0
  194.9640  175.1220  143.8530 C   0  0  0  0  0  2  0  0  0  0  0  0
  195.7290  175.0220  145.1020 N   0  0  0  0  0  0  0  0  0  0  0  0
  193.7420  175.9940  143.9720 C   0  0  0  0  0  0  0  0  0  0  0  0
  195.2190  175.5140  146.3490 C   0  0  0  0  0  3  0  0  0  0  0  0
  194.0760  176.1920  146.3920 C   0  0  0  0  0  3  0  0  0  0  0  0
  193.3230  176.4510  145.1590 C   0  0  0  0  0  3  0  0  0  0  0  0
  196.9570  174.2450  145.0950 C   0  0  0  0  0  2  0  0  0  0  0  0
  196.8960  173.1250  146.1240 C   0  0  0  0  0  2  0  0  0  0  0  0
  197.7330  171.3640  144.8510 C   0  0  0  0  0  1  0  0  0  0  0  0
  196.5280  171.8760  145.4800 N   0  0  0  0  0  2  0  0  0  0  0  0
  188.3250  173.8280  142.4340 O   0  0  0  0  0  0  0  0  0  0  0  0
  188.4080  175.1130  140.4880 N   0  0  0  0  0  2  0  0  0  0  0  0
  188.3630  174.9760  141.9120 C   0  0  0  0  0  0  0  0  0  0  0  0
  188.4220  176.2080  142.7840 C   0  0  2  0  0  3  0  0  0  0  0  0
  188.7350  177.4710  142.0010 C   0  0  0  0  0  1  0  0  0  0  0  0
  189.2190  177.4080  145.8090 C   0  0  1  0  0  3  0  0  0  0  0  0
  190.5490  176.1750  147.5270 C   0  0  0  0  0  3  0  0  0  0  0  0
  189.8820  174.9150  147.1790 C   0  0  0  0  0  3  0  0  0  0  0  0
  188.5650  176.0710  145.4130 C   0  0  2  0  0  0  0  0  0  0  0  0
  188.9630  174.8590  146.2150 C   0  0  0  0  0  3  0  0  0  0  0  0
  190.2510  177.3160  146.9060 C   0  0  0  0  0  3  0  0  0  0  0  0
  189.2800  176.1240  144.0620 C   0  0  2  0  0  3  0  0  0  0  0  0
  187.1750  176.1920  145.3300 O   0  0  0  0  0  1  0  0  0  0  0  0
  189.9140  177.4560  144.4540 C   0  0  0  0  0  2  0  0  0  0  0  0
  1  6  1  0  0  0  0
  1  5  1  0  0  0  0
  2  4  1  0  0  0  0
  2 10  1  1  0  0  0
  3  6  2  0  0  0  0
  4 27  1  1  0  0  0
  5  4  1  0  0  0  0
  6  2  1  0  0  0  0
  7 14  1  0  0  0  0
  7  8  1  0  0  0  0
  9 11  1  0  0  0  0
 10  7  2  0  0  0  0
 11  8  1  0  0  0  0
 12 10  1  0  0  0  0
 12 11  2  0  0  0  0
 13 15  1  0  0  0  0
 14 13  3  0  0  0  0
 15 18  1  0  0  0  0
 16 18  1  0  0  0  0
 16 17  1  0  0  0  0
 17 19  1  0  0  0  0
 18 21  2  0  0  0  0
 19 20  2  0  0  0  0
 21 20  1  0  0  0  0
 22 17  1  0  0  0  0
 22 23  1  0  0  0  0
 24 25  1  0  0  0  0
 25 23  1  0  0  0  0
 27 28  1  0  0  0  0
 28 26  2  0  0  0  0
 28 29  1  0  0  0  0
 29 30  1  6  0  0  0
 31 39  1  6  0  0  0
 31 36  1  0  0  0  0
 33 32  1  0  0  0  0
 34 38  1  6  0  0  0
 34 31  1  0  0  0  0
 34 35  1  0  0  0  0
 35 33  2  0  0  0  0
 36 32  2  0  0  0  0
 37 29  1  6  0  0  0
 37 39  1  0  0  0  0
 37 34  1  0  0  0  0
M  END
>  <MODEL>
4

>  <REMARK>
 VINA RESULT:      -6.5      3.038      6.656
  Name = 
  10 active torsions:
  status: ('A' for Active; 'I' for Inactive)
    1  A    between atoms: C_2  and  C_34
    2  A    between atoms: C_3  and  C_25
    3  A    between atoms: C_4  and  C_29
    4  A    between atoms: C_4  and  C_30
    5  A    between atoms: C_5  and  C_18
    6  A    between atoms: C_5  and  C_21
    7  A    between atoms: C_8  and  N_14
    8  A    between atoms: N_17  and  C_20
    9  A    between atoms: C_20  and  C_27
   10  A    between atoms: C_27  and  N_33
                            x       y       z     vdW  Elec       q    Type
                         _______ _______ _______ _____ _____    ______ ____

>  <TORSDO>
F 10

$$$$
=
 OpenBabel11042417333D

 39 43  0  0  1  0  0  0  0  0999 V2000
  191.8870  168.3170  140.3610 N   0  0  0  0  0  2  0  0  0  0  0  0
  190.7960  170.4760  140.2690 C   0  0  2  0  0  3  0  0  0  0  0  0
  190.2320  168.6750  138.7460 O   0  0  0  0  0  0  0  0  0  0  0  0
  191.9480  170.5190  141.2780 C   0  0  2  0  0  3  0  0  0  0  0  0
  192.4230  169.0740  141.4780 C   0  0  0  0  0  2  0  0  0  0  0  0
  190.9360  169.1180  139.6920 C   0  0  0  0  0  0  0  0  0  0  0  0
  190.3020  172.8020  139.3280 C   0  0  0  0  0  0  0  0  0  0  0  0
  190.6900  173.7150  137.9710 S   0  0  0  0  0  0  0  0  0  0  0  0
  192.3520  172.5910  136.0100 C   0  0  0  0  0  1  0  0  0  0  0  0
  190.9270  171.5580  139.2270 C   0  0  0  0  0  0  0  0  0  0  0  0
  191.6470  172.4980  137.3160 C   0  0  0  0  0  0  0  0  0  0  0  0
  191.6760  171.3990  138.0980 N   0  0  0  0  0  0  0  0  0  0  0  0
  188.5580  173.5660  141.1630 C   0  0  0  0  0  0  0  0  0  0  0  0
  189.3680  173.2170  140.3400 C   0  0  0  0  0  0  0  0  0  0  0  0
  187.5440  173.9850  142.1400 C   0  0  0  0  0  2  0  0  0  0  0  0
  186.4690  176.0780  143.1850 C   0  0  0  0  0  2  0  0  0  0  0  0
  186.4900  177.5460  143.1930 N   0  0  0  0  0  0  0  0  0  0  0  0
  187.4260  175.4740  142.1920 C   0  0  0  0  0  0  0  0  0  0  0  0
  187.1800  178.3030  142.1890 C   0  0  0  0  0  3  0  0  0  0  0  0
  187.9300  177.6910  141.2770 C   0  0  0  0  0  3  0  0  0  0  0  0
  188.0670  176.2290  141.2920 C   0  0  0  0  0  3  0  0  0  0  0  0
  185.6420  178.2400  144.1470 C   0  0  0  0  0  2  0  0  0  0  0  0
  186.2530  178.2060  145.5410 C   0  0  0  0  0  2  0  0  0  0  0  0
  184.0130  178.7560  145.8600 C   0  0  0  0  0  1  0  0  0  0  0  0
  185.3120  178.7390  146.5100 N   0  0  0  0  0  2  0  0  0  0  0  0
  192.5250  173.1750  142.1290 O   0  0  0  0  0  0  0  0  0  0  0  0
  191.5070  171.1150  142.5340 N   0  0  0  0  0  2  0  0  0  0  0  0
  191.7670  172.4830  142.8630 C   0  0  0  0  0  0  0  0  0  0  0  0
  191.0830  173.1090  144.0550 C   0  0  2  0  0  3  0  0  0  0  0  0
  189.9660  172.2450  144.6150 C   0  0  0  0  0  1  0  0  0  0  0  0
  190.5800  176.1200  145.4370 C   0  0  1  0  0  3  0  0  0  0  0  0
  190.2370  178.2380  144.1570 C   0  0  0  0  0  3  0  0  0  0  0  0
  191.2400  177.8310  143.1640 C   0  0  0  0  0  3  0  0  0  0  0  0
  191.5890  175.6780  144.3600 C   0  0  2  0  0  0  0  0  0  0  0  0
  191.8720  176.6610  143.2550 C   0  0  0  0  0  3  0  0  0  0  0  0
  189.9320  177.4610  145.1960 C   0  0  0  0  0  3  0  0  0  0  0  0
  190.6270  174.5760  143.9150 C   0  0  2  0  0  3  0  0  0  0  0  0
  192.7720  175.2080  144.9380 O   0  0  0  0  0  1  0  0  0  0  0  0
  189.6370  175.0080  144.9930 C   0  0  0  0  0  2  0  0  0  0  0  0
  1  5  1  0  0  0  0
  2 10  1  6  0  0  0
  2  4  1  0  0  0  0
  3  6  2  0  0  0  0
  4  5  1  0  0  0  0
  4 27  1  1  0  0  0
  6  2  1  0  0  0  0
  6  1  1  0  0  0  0
  7 14  1  0  0  0  0
  8  7  1  0  0  0  0
  9 11  1  0  0  0  0
 10  7  2  0  0  0  0
 11  8  1  0  0  0  0
 11 12  2  0  0  0  0
 12 10  1  0  0  0  0
 13 15  1  0  0  0  0
 14 13  3  0  0  0  0
 15 18  1  0  0  0  0
 16 17  1  0  0  0  0
 17 22  1  0  0  0  0
 18 16  1  0  0  0  0
 19 17  1  0  0  0  0
 20 21  1  0  0  0  0
 20 19  2  0  0  0  0
 21 18  2  0  0  0  0
 22 23  1  0  0  0  0
 23 25  1  0  0  0  0
 24 25  1  0  0  0  0
 26 28  2  0  0  0  0
 27 28  1  0  0  0  0
 28 29  1  0  0  0  0
 29 30  1  6  0  0  0
 31 39  1  6  0  0  0
 32 36  2  0  0  0  0
 33 35  2  0  0  0  0
 33 32  1  0  0  0  0
 34 38  1  1  0  0  0
 34 31  1  0  0  0  0
 35 34  1  0  0  0  0
 36 31  1  0  0  0  0
 37 29  1  1  0  0  0
 37 34  1  0  0  0  0
 37 39  1  0  0  0  0
M  END
>  <MODEL>
5

>  <REMARK>
 VINA RESULT:      -6.4      3.405      5.847
  Name = 
  10 active torsions:
  status: ('A' for Active; 'I' for Inactive)
    1  A    between atoms: C_2  and  C_34
    2  A    between atoms: C_3  and  C_25
    3  A    between atoms: C_4  and  C_29
    4  A    between atoms: C_4  and  C_30
    5  A    between atoms: C_5  and  C_18
    6  A    between atoms: C_5  and  C_21
    7  A    between atoms: C_8  and  N_14
    8  A    between atoms: N_17  and  C_20
    9  A    between atoms: C_20  and  C_27
   10  A    between atoms: C_27  and  N_33
                            x       y       z     vdW  Elec       q    Type
                         _______ _______ _______ _____ _____    ______ ____

>  <TORSDO>
F 10

$$$$
=
 OpenBabel11042417333D

 39 43  0  0  1  0  0  0  0  0999 V2000
  190.2770  171.8570  143.9850 N   0  0  0  0  0  2  0  0  0  0  0  0
  189.9830  172.9360  141.8380 C   0  0  2  0  0  3  0  0  0  0  0  0
  190.3720  170.5510  142.0460 O   0  0  0  0  0  0  0  0  0  0  0  0
  190.0510  173.9930  142.9450 C   0  0  2  0  0  3  0  0  0  0  0  0
  189.9760  173.2450  144.2830 C   0  0  0  0  0  2  0  0  0  0  0  0
  190.2520  171.6830  142.5840 C   0  0  0  0  0  0  0  0  0  0  0  0
  192.3820  173.2230  140.9990 C   0  0  0  0  0  0  0  0  0  0  0  0
  193.1760  173.5390  139.5520 S   0  0  0  0  0  0  0  0  0  0  0  0
  191.6550  173.8960  137.2200 C   0  0  0  0  0  1  0  0  0  0  0  0
  191.0070  173.1900  140.7600 C   0  0  0  0  0  0  0  0  0  0  0  0
  191.7410  173.6080  138.6760 C   0  0  0  0  0  0  0  0  0  0  0  0
  190.6600  173.4060  139.4590 N   0  0  0  0  0  0  0  0  0  0  0  0
  193.6110  173.0970  143.3370 C   0  0  0  0  0  0  0  0  0  0  0  0
  193.0360  173.1420  142.2770 C   0  0  0  0  0  0  0  0  0  0  0  0
  194.3330  173.0690  144.6160 C   0  0  0  0  0  2  0  0  0  0  0  0
  192.6980  174.3280  146.1560 C   0  0  0  0  0  2  0  0  0  0  0  0
  192.5330  175.5280  146.9860 N   0  0  0  0  0  0  0  0  0  0  0  0
  194.0210  174.2780  145.4390 C   0  0  0  0  0  0  0  0  0  0  0  0
  193.4450  176.6330  146.9180 C   0  0  0  0  0  3  0  0  0  0  0  0
  194.5480  176.5540  146.1790 C   0  0  0  0  0  3  0  0  0  0  0  0
  194.8500  175.3290  145.4280 C   0  0  0  0  0  3  0  0  0  0  0  0
  191.3140  175.6620  147.7650 C   0  0  0  0  0  2  0  0  0  0  0  0
  190.3540  176.6420  147.1050 C   0  0  0  0  0  2  0  0  0  0  0  0
  189.0390  174.7510  147.4470 C   0  0  0  0  0  1  0  0  0  0  0  0
  189.1780  175.9390  146.6220 N   0  0  0  0  0  2  0  0  0  0  0  0
  190.2420  176.7860  143.4640 O   0  0  0  0  0  0  0  0  0  0  0  0
  188.9610  174.9500  142.8060 N   0  0  0  0  0  2  0  0  0  0  0  0
  189.1480  176.3550  143.0080 C   0  0  0  0  0  0  0  0  0  0  0  0
  188.0530  177.3190  142.6160 C   0  0  2  0  0  3  0  0  0  0  0  0
  188.5470  178.4410  141.7190 C   0  0  0  0  0  1  0  0  0  0  0  0
  185.0280  178.2480  143.7180 C   0  0  1  0  0  3  0  0  0  0  0  0
  184.4280  178.5890  146.1190 C   0  0  0  0  0  3  0  0  0  0  0  0
  185.2410  177.4330  146.5150 C   0  0  0  0  0  3  0  0  0  0  0  0
  185.9230  177.0710  144.1500 C   0  0  2  0  0  0  0  0  0  0  0  0
  185.9250  176.7240  145.6150 C   0  0  0  0  0  3  0  0  0  0  0  0
  184.3270  178.9660  144.8450 C   0  0  0  0  0  3  0  0  0  0  0  0
  187.1640  177.8700  143.7490 C   0  0  2  0  0  3  0  0  0  0  0  0
  185.6900  175.9410  143.3600 O   0  0  0  0  0  1  0  0  0  0  0  0
  186.2720  179.0280  143.3090 C   0  0  0  0  0  2  0  0  0  0  0  0
  1  5  1  0  0  0  0
  2 10  1  6  0  0  0
  2  6  1  0  0  0  0
  2  4  1  0  0  0  0
  3  6  2  0  0  0  0
  4 27  1  6  0  0  0
  4  5  1  0  0  0  0
  6  1  1  0  0  0  0
  7 14  1  0  0  0  0
  8  7  1  0  0  0  0
  9 11  1  0  0  0  0
 10  7  2  0  0  0  0
 11 12  2  0  0  0  0
 11  8  1  0  0  0  0
 12 10  1  0  0  0  0
 13 15  1  0  0  0  0
 14 13  3  0  0  0  0
 15 18  1  0  0  0  0
 16 17  1  0  0  0  0
 17 22  1  0  0  0  0
 18 16  1  0  0  0  0
 19 17  1  0  0  0  0
 20 19  2  0  0  0  0
 21 18  2  0  0  0  0
 21 20  1  0  0  0  0
 23 22  1  0  0  0  0
 25 23  1  0  0  0  0
 25 24  1  0  0  0  0
 27 28  1  0  0  0  0
 28 26  2  0  0  0  0
 29 30  1  1  0  0  0
 29 28  1  0  0  0  0
 31 39  1  1  0  0  0
 31 34  1  0  0  0  0
 31 36  1  0  0  0  0
 32 33  1  0  0  0  0
 34 38  1  6  0  0  0
 34 35  1  0  0  0  0
 35 33  2  0  0  0  0
 36 32  2  0  0  0  0
 37 29  1  6  0  0  0
 37 34  1  0  0  0  0
 39 37  1  0  0  0  0
M  END
>  <MODEL>
6

>  <REMARK>
 VINA RESULT:      -6.3      2.801      5.605
  Name = 
  10 active torsions:
  status: ('A' for Active; 'I' for Inactive)
    1  A    between atoms: C_2  and  C_34
    2  A    between atoms: C_3  and  C_25
    3  A    between atoms: C_4  and  C_29
    4  A    between atoms: C_4  and  C_30
    5  A    between atoms: C_5  and  C_18
    6  A    between atoms: C_5  and  C_21
    7  A    between atoms: C_8  and  N_14
    8  A    between atoms: N_17  and  C_20
    9  A    between atoms: C_20  and  C_27
   10  A    between atoms: C_27  and  N_33
                            x       y       z     vdW  Elec       q    Type
                         _______ _______ _______ _____ _____    ______ ____

>  <TORSDO>
F 10

$$$$
=
 OpenBabel11042417333D

 39 43  0  0  1  0  0  0  0  0999 V2000
  192.5270  169.0090  143.2840 N   0  0  0  0  0  2  0  0  0  0  0  0
  192.3390  171.3200  142.5890 C   0  0  2  0  0  3  0  0  0  0  0  0
  190.7930  169.6110  141.8340 O   0  0  0  0  0  0  0  0  0  0  0  0
  193.6290  171.1220  143.3920 C   0  0  2  0  0  3  0  0  0  0  0  0
  193.5600  169.7210  144.0150 C   0  0  0  0  0  2  0  0  0  0  0  0
  191.8160  169.9370  142.4920 C   0  0  0  0  0  0  0  0  0  0  0  0
  191.8000  172.8980  140.6510 C   0  0  0  0  0  0  0  0  0  0  0  0
  192.4370  173.3050  139.1490 S   0  0  0  0  0  0  0  0  0  0  0  0
  194.7750  172.0220  138.2750 C   0  0  0  0  0  1  0  0  0  0  0  0
  192.6130  171.9250  141.2350 C   0  0  0  0  0  0  0  0  0  0  0  0
  193.7280  172.2380  139.3080 C   0  0  0  0  0  0  0  0  0  0  0  0
  193.6860  171.5630  140.4760 N   0  0  0  0  0  0  0  0  0  0  0  0
  189.4820  173.7960  141.5500 C   0  0  0  0  0  0  0  0  0  0  0  0
  190.5490  173.3920  141.1570 C   0  0  0  0  0  0  0  0  0  0  0  0
  188.1670  174.2710  142.0000 C   0  0  0  0  0  2  0  0  0  0  0  0
  187.2160  175.8010  143.8410 C   0  0  0  0  0  2  0  0  0  0  0  0
  187.4840  177.0010  144.6430 N   0  0  0  0  0  0  0  0  0  0  0  0
  188.2940  175.5090  142.8300 C   0  0  0  0  0  0  0  0  0  0  0  0
  188.5430  177.9130  144.3200 C   0  0  0  0  0  3  0  0  0  0  0  0
  189.4000  177.6350  143.3420 C   0  0  0  0  0  3  0  0  0  0  0  0
  189.2770  176.3830  142.5850 C   0  0  0  0  0  3  0  0  0  0  0  0
  186.5360  177.3560  145.6850 C   0  0  0  0  0  2  0  0  0  0  0  0
  185.1860  177.7260  145.0870 C   0  0  0  0  0  2  0  0  0  0  0  0
  185.1770  178.6220  147.2360 C   0  0  0  0  0  1  0  0  0  0  0  0
  184.3200  178.2780  146.1140 N   0  0  0  0  0  2  0  0  0  0  0  0
  195.1990  173.4860  143.1480 O   0  0  0  0  0  0  0  0  0  0  0  0
  193.7600  172.1550  144.4140 N   0  0  0  0  0  2  0  0  0  0  0  0
  194.5040  173.3580  144.1930 C   0  0  0  0  0  0  0  0  0  0  0  0
  194.4040  174.4910  145.1850 C   0  0  2  0  0  3  0  0  0  0  0  0
  195.5850  174.5470  146.1390 C   0  0  0  0  0  1  0  0  0  0  0  0
  191.7800  176.3810  146.0640 C   0  0  1  0  0  3  0  0  0  0  0  0
  189.6530  175.5040  147.0360 C   0  0  0  0  0  3  0  0  0  0  0  0
  189.6950  174.3380  146.1460 C   0  0  0  0  0  3  0  0  0  0  0  0
  191.8450  175.1260  145.1740 C   0  0  2  0  0  0  0  0  0  0  0  0
  190.6940  174.1610  145.2810 C   0  0  0  0  0  3  0  0  0  0  0  0
  190.6010  176.4400  147.0040 C   0  0  0  0  0  3  0  0  0  0  0  0
  193.0720  174.6440  145.9480 C   0  0  2  0  0  3  0  0  0  0  0  0
  192.1040  175.4640  143.8420 O   0  0  0  0  0  1  0  0  0  0  0  0
  193.0120  175.8960  146.8190 C   0  0  0  0  0  2  0  0  0  0  0  0
  1  5  1  0  0  0  0
  2 10  1  6  0  0  0
  2  4  1  0  0  0  0
  3  6  2  0  0  0  0
  4  5  1  0  0  0  0
  4 27  1  1  0  0  0
  6  2  1  0  0  0  0
  6  1  1  0  0  0  0
  7 14  1  0  0  0  0
  7 10  2  0  0  0  0
  8 11  1  0  0  0  0
  8  7  1  0  0  0  0
  9 11  1  0  0  0  0
 11 12  2  0  0  0  0
 12 10  1  0  0  0  0
 13 15  1  0  0  0  0
 14 13  3  0  0  0  0
 15 18  1  0  0  0  0
 16 17  1  0  0  0  0
 17 22  1  0  0  0  0
 18 16  1  0  0  0  0
 19 17  1  0  0  0  0
 20 19  2  0  0  0  0
 21 18  2  0  0  0  0
 21 20  1  0  0  0  0
 23 22  1  0  0  0  0
 23 25  1  0  0  0  0
 25 24  1  0  0  0  0
 26 28  2  0  0  0  0
 28 27  1  0  0  0  0
 28 29  1  0  0  0  0
 29 30  1  1  0  0  0
 31 39  1  1  0  0  0
 31 36  1  0  0  0  0
 33 32  1  0  0  0  0
 34 38  1  6  0  0  0
 34 35  1  0  0  0  0
 34 37  1  0  0  0  0
 34 31  1  0  0  0  0
 35 33  2  0  0  0  0
 36 32  2  0  0  0  0
 37 29  1  6  0  0  0
 37 39  1  0  0  0  0
M  END
>  <MODEL>
7

>  <REMARK>
 VINA RESULT:      -6.0      2.495      5.247
  Name = 
  10 active torsions:
  status: ('A' for Active; 'I' for Inactive)
    1  A    between atoms: C_2  and  C_34
    2  A    between atoms: C_3  and  C_25
    3  A    between atoms: C_4  and  C_29
    4  A    between atoms: C_4  and  C_30
    5  A    between atoms: C_5  and  C_18
    6  A    between atoms: C_5  and  C_21
    7  A    between atoms: C_8  and  N_14
    8  A    between atoms: N_17  and  C_20
    9  A    between atoms: C_20  and  C_27
   10  A    between atoms: C_27  and  N_33
                            x       y       z     vdW  Elec       q    Type
                         _______ _______ _______ _____ _____    ______ ____

>  <TORSDO>
F 10

$$$$
=
 OpenBabel11042417333D

 39 43  0  0  1  0  0  0  0  0999 V2000
  196.4410  176.7940  141.9760 N   0  0  0  0  0  2  0  0  0  0  0  0
  195.1130  175.0120  142.9360 C   0  0  2  0  0  3  0  0  0  0  0  0
  196.0100  176.8230  144.2750 O   0  0  0  0  0  0  0  0  0  0  0  0
  195.4080  174.7040  141.4640 C   0  0  2  0  0  3  0  0  0  0  0  0
  196.0190  175.9740  140.8550 C   0  0  0  0  0  2  0  0  0  0  0  0
  195.8940  176.2510  143.1590 C   0  0  0  0  0  0  0  0  0  0  0  0
  194.9040  173.5630  145.0320 C   0  0  0  0  0  0  0  0  0  0  0  0
  195.6980  172.2630  145.7440 S   0  0  0  0  0  0  0  0  0  0  0  0
  197.9410  171.1750  144.4560 C   0  0  0  0  0  1  0  0  0  0  0  0
  195.5520  173.8870  143.8390 C   0  0  0  0  0  0  0  0  0  0  0  0
  196.8250  172.1560  144.5000 C   0  0  0  0  0  0  0  0  0  0  0  0
  196.6240  173.0950  143.5520 N   0  0  0  0  0  0  0  0  0  0  0  0
  192.9390  174.9150  146.1730 C   0  0  0  0  0  0  0  0  0  0  0  0
  193.8230  174.2830  145.6480 C   0  0  0  0  0  0  0  0  0  0  0  0
  191.8850  175.7150  146.8120 C   0  0  0  0  0  2  0  0  0  0  0  0
  189.6180  176.6220  145.9950 C   0  0  0  0  0  2  0  0  0  0  0  0
  188.9720  177.4620  144.9790 N   0  0  0  0  0  0  0  0  0  0  0  0
  191.1060  176.4900  145.7990 C   0  0  0  0  0  0  0  0  0  0  0  0
  189.6630  177.9020  143.8020 C   0  0  0  0  0  3  0  0  0  0  0  0
  190.9620  177.6590  143.6500 C   0  0  0  0  0  3  0  0  0  0  0  0
  191.7070  176.9430  144.6930 C   0  0  0  0  0  3  0  0  0  0  0  0
  187.5440  177.7010  145.0930 C   0  0  0  0  0  2  0  0  0  0  0  0
  187.0330  177.2890  146.4670 C   0  0  0  0  0  2  0  0  0  0  0  0
  184.9680  178.3370  146.7000 C   0  0  0  0  0  1  0  0  0  0  0  0
  185.6000  177.0600  146.4180 N   0  0  0  0  0  2  0  0  0  0  0  0
  194.6750  172.0310  140.8130 O   0  0  0  0  0  0  0  0  0  0  0  0
  194.1880  174.3120  140.7680 N   0  0  0  0  0  2  0  0  0  0  0  0
  193.8440  172.9410  140.5440 C   0  0  0  0  0  0  0  0  0  0  0  0
  192.4650  172.5880  140.0410 C   0  0  2  0  0  3  0  0  0  0  0  0
  192.3780  172.5640  138.5250 C   0  0  0  0  0  1  0  0  0  0  0  0
  189.2090  172.7250  140.8230 C   0  0  1  0  0  3  0  0  0  0  0  0
  188.1900  174.3700  142.4020 C   0  0  0  0  0  3  0  0  0  0  0  0
  189.3520  174.2750  143.2940 C   0  0  0  0  0  3  0  0  0  0  0  0
  190.4490  172.6740  141.7370 C   0  0  2  0  0  0  0  0  0  0  0  0
  190.3900  173.4920  143.0010 C   0  0  0  0  0  3  0  0  0  0  0  0
  188.1190  173.6660  141.2740 C   0  0  0  0  0  3  0  0  0  0  0  0
  191.2760  173.3590  140.6490 C   0  0  2  0  0  3  0  0  0  0  0  0
  190.8290  171.3550  142.0010 O   0  0  0  0  0  1  0  0  0  0  0  0
  190.0490  173.3940  139.7420 C   0  0  0  0  0  2  0  0  0  0  0  0
  1  6  1  0  0  0  0
  2  6  1  0  0  0  0
  2 10  1  1  0  0  0
  4 27  1  6  0  0  0
  4  2  1  0  0  0  0
  5  4  1  0  0  0  0
  5  1  1  0  0  0  0
  6  3  2  0  0  0  0
  7 14  1  0  0  0  0
  7  8  1  0  0  0  0
  9 11  1  0  0  0  0
 10  7  2  0  0  0  0
 11  8  1  0  0  0  0
 12 10  1  0  0  0  0
 12 11  2  0  0  0  0
 13 15  1  0  0  0  0
 14 13  3  0  0  0  0
 17 22  1  0  0  0  0
 17 16  1  0  0  0  0
 18 16  1  0  0  0  0
 18 15  1  0  0  0  0
 19 17  1  0  0  0  0
 20 19  2  0  0  0  0
 20 21  1  0  0  0  0
 21 18  2  0  0  0  0
 22 23  1  0  0  0  0
 25 23  1  0  0  0  0
 25 24  1  0  0  0  0
 28 27  1  0  0  0  0
 28 26  2  0  0  0  0
 29 30  1  6  0  0  0
 29 28  1  0  0  0  0
 31 39  1  6  0  0  0
 31 36  1  0  0  0  0
 31 34  1  0  0  0  0
 32 33  1  0  0  0  0
 34 38  1  1  0  0  0
 34 35  1  0  0  0  0
 35 33  2  0  0  0  0
 36 32  2  0  0  0  0
 37 29  1  6  0  0  0
 37 34  1  0  0  0  0
 39 37  1  0  0  0  0
M  END
>  <MODEL>
8

>  <REMARK>
 VINA RESULT:      -5.9      1.307      2.187
  Name = 
  10 active torsions:
  status: ('A' for Active; 'I' for Inactive)
    1  A    between atoms: C_2  and  C_34
    2  A    between atoms: C_3  and  C_25
    3  A    between atoms: C_4  and  C_29
    4  A    between atoms: C_4  and  C_30
    5  A    between atoms: C_5  and  C_18
    6  A    between atoms: C_5  and  C_21
    7  A    between atoms: C_8  and  N_14
    8  A    between atoms: N_17  and  C_20
    9  A    between atoms: C_20  and  C_27
   10  A    between atoms: C_27  and  N_33
                            x       y       z     vdW  Elec       q    Type
                         _______ _______ _______ _____ _____    ______ ____

>  <TORSDO>
F 10

$$$$
=
 OpenBabel11042417333D

 39 43  0  0  1  0  0  0  0  0999 V2000
  190.8180  170.7110  142.5310 N   0  0  0  0  0  2  0  0  0  0  0  0
  190.4360  173.1010  142.5270 C   0  0  2  0  0  3  0  0  0  0  0  0
  188.7550  171.5230  143.2770 O   0  0  0  0  0  0  0  0  0  0  0  0
  191.7740  172.7880  141.8480 C   0  0  2  0  0  3  0  0  0  0  0  0
  192.0740  171.3060  142.1110 C   0  0  0  0  0  2  0  0  0  0  0  0
  189.8960  171.7470  142.7930 C   0  0  0  0  0  0  0  0  0  0  0  0
  188.8310  175.0380  142.0680 C   0  0  0  0  0  0  0  0  0  0  0  0
  187.9400  175.6510  140.7810 S   0  0  0  0  0  0  0  0  0  0  0  0
  188.0800  174.3570  138.2950 C   0  0  0  0  0  1  0  0  0  0  0  0
  189.5330  173.9130  141.6320 C   0  0  0  0  0  0  0  0  0  0  0  0
  188.4940  174.4710  139.7190 C   0  0  0  0  0  0  0  0  0  0  0  0
  189.3380  173.6050  140.3190 N   0  0  0  0  0  0  0  0  0  0  0  0
  188.6460  175.9470  144.5440 C   0  0  0  0  0  0  0  0  0  0  0  0
  188.7500  175.5350  143.4150 C   0  0  0  0  0  0  0  0  0  0  0  0
  188.4840  176.4370  145.9190 C   0  0  0  0  0  2  0  0  0  0  0  0
  186.4420  177.5720  144.8370 C   0  0  0  0  0  2  0  0  0  0  0  0
  185.1620  178.2340  145.1200 N   0  0  0  0  0  0  0  0  0  0  0  0
  187.1970  177.1810  146.0800 C   0  0  0  0  0  0  0  0  0  0  0  0
  184.8030  178.6640  146.4400 C   0  0  0  0  0  3  0  0  0  0  0  0
  185.5740  178.3680  147.4820 C   0  0  0  0  0  3  0  0  0  0  0  0
  186.8040  177.5870  147.2930 C   0  0  0  0  0  3  0  0  0  0  0  0
  184.3220  178.6140  143.9970 C   0  0  0  0  0  2  0  0  0  0  0  0
  184.7070  177.8380  142.7460 C   0  0  0  0  0  2  0  0  0  0  0  0
  185.2020  178.2770  140.5140 C   0  0  0  0  0  1  0  0  0  0  0  0
  185.5220  178.6680  141.8760 N   0  0  0  0  0  2  0  0  0  0  0  0
  193.3520  174.5830  140.3000 O   0  0  0  0  0  0  0  0  0  0  0  0
  192.8280  173.6480  142.3720 N   0  0  0  0  0  2  0  0  0  0  0  0
  193.5280  174.5860  141.5480 C   0  0  0  0  0  0  0  0  0  0  0  0
  194.4320  175.6140  142.1870 C   0  0  2  0  0  3  0  0  0  0  0  0
  195.8550  175.5590  141.6580 C   0  0  0  0  0  1  0  0  0  0  0  0
  194.3560  177.4750  144.9720 C   0  0  1  0  0  3  0  0  0  0  0  0
  193.8150  176.6090  147.2520 C   0  0  0  0  0  3  0  0  0  0  0  0
  192.7790  175.7270  146.7010 C   0  0  0  0  0  3  0  0  0  0  0  0
  193.3060  176.5060  144.3970 C   0  0  2  0  0  0  0  0  0  0  0  0
  192.5320  175.6800  145.3910 C   0  0  0  0  0  3  0  0  0  0  0  0
  194.5380  177.4090  146.4690 C   0  0  0  0  0  3  0  0  0  0  0  0
  194.4200  175.7010  143.7270 C   0  0  2  0  0  3  0  0  0  0  0  0
  192.4510  177.1570  143.5030 O   0  0  0  0  0  1  0  0  0  0  0  0
  195.4550  176.6730  144.2870 C   0  0  0  0  0  2  0  0  0  0  0  0
  1  6  1  0  0  0  0
  2 10  1  6  0  0  0
  2  6  1  0  0  0  0
  4  5  1  0  0  0  0
  4 27  1  1  0  0  0
  4  2  1  0  0  0  0
  5  1  1  0  0  0  0
  6  3  2  0  0  0  0
  7 14  1  0  0  0  0
  8  7  1  0  0  0  0
  9 11  1  0  0  0  0
 10  7  2  0  0  0  0
 11 12  2  0  0  0  0
 11  8  1  0  0  0  0
 12 10  1  0  0  0  0
 13 15  1  0  0  0  0
 14 13  3  0  0  0  0
 15 18  1  0  0  0  0
 16 17  1  0  0  0  0
 16 18  1  0  0  0  0
 17 19  1  0  0  0  0
 18 21  2  0  0  0  0
 19 20  2  0  0  0  0
 21 20  1  0  0  0  0
 22 17  1  0  0  0  0
 23 22  1  0  0  0  0
 24 25  1  0  0  0  0
 25 23  1  0  0  0  0
 26 28  2  0  0  0  0
 28 29  1  0  0  0  0
 28 27  1  0  0  0  0
 29 30  1  1  0  0  0
 31 39  1  6  0  0  0
 31 36  1  0  0  0  0
 33 32  1  0  0  0  0
 34 38  1  6  0  0  0
 34 31  1  0  0  0  0
 34 35  1  0  0  0  0
 35 33  2  0  0  0  0
 36 32  2  0  0  0  0
 37 29  1  6  0  0  0
 37 39  1  0  0  0  0
 37 34  1  0  0  0  0
M  END
>  <MODEL>
9

>  <REMARK>
 VINA RESULT:      -5.9      2.731      5.886
  Name = 
  10 active torsions:
  status: ('A' for Active; 'I' for Inactive)
    1  A    between atoms: C_2  and  C_34
    2  A    between atoms: C_3  and  C_25
    3  A    between atoms: C_4  and  C_29
    4  A    between atoms: C_4  and  C_30
    5  A    between atoms: C_5  and  C_18
    6  A    between atoms: C_5  and  C_21
    7  A    between atoms: C_8  and  N_14
    8  A    between atoms: N_17  and  C_20
    9  A    between atoms: C_20  and  C_27
   10  A    between atoms: C_27  and  N_33
                            x       y       z     vdW  Elec       q    Type
                         _______ _______ _______ _____ _____    ______ ____

>  <TORSDO>
F 10

$$$$
