=
 OpenBabel11042417463D

 25 27  0  0  1  0  0  0  0  0999 V2000
  190.1130  176.3750  146.2420 C   0  0  0  0  0  0  0  0  0  0  0  0
  188.1200  176.7050  145.4180 C   0  0  0  0  0  0  0  0  0  0  0  0
  189.6030  178.1940  142.4830 O   0  0  0  0  0  0  0  0  0  0  0  0
  192.4720  176.2870  146.3510 N   0  0  0  0  0  0  0  0  0  0  0  0
  188.7770  176.2680  146.5730 C   0  0  0  0  0  3  0  0  0  0  0  0
  188.7180  177.5490  143.1080 C   0  0  0  0  0  0  0  0  0  0  0  0
  191.2120  175.6450  148.1380 O   0  0  0  0  0  0  0  0  0  0  0  0
  191.4090  177.0420  144.3640 N   0  0  0  0  0  2  0  0  0  0  0  0
  188.9960  177.0540  144.4330 N   0  0  0  0  0  0  0  0  0  0  0  0
  192.5470  176.7590  145.0680 C   0  0  0  0  0  3  0  0  0  0  0  0
  190.2100  176.8480  144.9700 C   0  0  0  0  0  0  0  0  0  0  0  0
  191.2670  176.0850  146.9600 C   0  0  0  0  0  0  0  0  0  0  0  0
  187.3800  177.3140  142.4530 C   0  0  1  0  0  3  0  0  0  0  0  0
  187.5140  177.3180  140.9850 N   0  0  0  0  0  2  0  0  0  0  0  0
  187.2510  176.0520  141.6860 C   0  0  1  0  0  3  0  0  0  0  0  0
  188.4960  175.1680  141.6250 C   0  0  1  0  0  3  0  0  0  0  0  0
  188.3340  174.0390  142.5250 N   0  0  0  0  0  1  0  0  0  0  0  0
  188.6790  174.6990  140.3220 O   0  0  0  0  0  0  0  0  0  0  0  0
  188.7200  173.3100  140.4450 C   0  0  0  0  0  1  0  0  0  0  0  0
  186.6340  176.7850  145.3100 C   0  0  0  0  0  2  0  0  0  0  0  0
  186.1440  178.0990  145.8840 C   0  0  0  0  0  2  0  0  0  0  0  0
  184.6530  178.2460  145.6180 C   0  0  0  0  0  2  0  0  0  0  0  0
  184.3590  179.1730  144.4400 C   0  0  0  0  0  3  0  0  0  0  0  0
  185.5370  180.0820  144.1380 C   0  0  0  0  0  1  0  0  0  0  0  0
  183.9610  178.3930  143.2000 C   0  0  0  0  0  1  0  0  0  0  0  0
  1  5  1  0  0  0  0
  1 12  1  0  0  0  0
  2  5  2  0  0  0  0
  3  6  2  0  0  0  0
  4 12  1  0  0  0  0
  6  9  1  0  0  0  0
  8 11  1  0  0  0  0
  8 10  1  0  0  0  0
  9 11  1  0  0  0  0
  9  2  1  0  0  0  0
 10  4  2  0  0  0  0
 11  1  2  0  0  0  0
 12  7  2  0  0  0  0
 13  6  1  1  0  0  0
 14 15  1  0  0  0  0
 14 13  1  0  0  0  0
 15 16  1  1  0  0  0
 15 13  1  0  0  0  0
 16 17  1  1  0  0  0
 18 19  1  0  0  0  0
 18 16  1  0  0  0  0
 20  2  1  0  0  0  0
 20 21  1  0  0  0  0
 22 21  1  0  0  0  0
 23 22  1  0  0  0  0
 24 23  1  0  0  0  0
 25 23  1  0  0  0  0
M  END
>  <MODEL>
1

>  <REMARK>
 VINA RESULT:      -6.4      0.000      0.000
  Name = 
  7 active torsions:
  status: ('A' for Active; 'I' for Inactive)
    1  A    between atoms: C_2  and  C_3
    2  A    between atoms: C_2  and  C_5
    3  A    between atoms: C_3  and  C_20
    4  A    between atoms: C_4  and  C_20
    5  A    between atoms: C_7  and  C_13
    6  A    between atoms: O_10  and  C_16
    7  A    between atoms: C_16  and  C_22
                            x       y       z     vdW  Elec       q    Type
                         _______ _______ _______ _____ _____    ______ ____

>  <TORSDO>
F 7

$$$$
=
 OpenBabel11042417463D

 25 27  0  0  1  0  0  0  0  0999 V2000
  188.6350  175.0790  142.2500 C   0  0  0  0  0  0  0  0  0  0  0  0
  188.4690  176.4090  143.9720 C   0  0  0  0  0  0  0  0  0  0  0  0
  189.5680  173.7270  146.1230 O   0  0  0  0  0  0  0  0  0  0  0  0
  189.1590  173.1490  140.9930 N   0  0  0  0  0  2  0  0  0  0  0  0
  188.2040  176.3440  142.5990 C   0  0  0  0  0  3  0  0  0  0  0  0
  189.4490  174.9350  145.7800 C   0  0  0  0  0  0  0  0  0  0  0  0
  188.2140  174.9600  139.9820 O   0  0  0  0  0  0  0  0  0  0  0  0
  189.6260  173.2030  143.3210 N   0  0  0  0  0  0  0  0  0  0  0  0
  189.0330  175.2600  144.4380 N   0  0  0  0  0  0  0  0  0  0  0  0
  189.6430  172.5460  142.1230 C   0  0  0  0  0  3  0  0  0  0  0  0
  189.1160  174.4600  143.3620 C   0  0  0  0  0  0  0  0  0  0  0  0
  188.6510  174.4150  141.0290 C   0  0  0  0  0  0  0  0  0  0  0  0
  189.7390  176.0170  146.7900 C   0  0  1  0  0  3  0  0  0  0  0  0
  190.7230  175.5500  147.7820 N   0  0  0  0  0  2  0  0  0  0  0  0
  191.1210  176.5520  146.7810 C   0  0  1  0  0  3  0  0  0  0  0  0
  192.0860  175.9160  145.7800 C   0  0  1  0  0  3  0  0  0  0  0  0
  192.4280  176.8850  144.7540 N   0  0  0  0  0  1  0  0  0  0  0  0
  193.2480  175.5080  146.4380 O   0  0  0  0  0  0  0  0  0  0  0  0
  194.0080  176.6700  146.5730 C   0  0  0  0  0  1  0  0  0  0  0  0
  188.1460  177.6040  144.8050 C   0  0  0  0  0  2  0  0  0  0  0  0
  186.6670  177.9180  144.7060 C   0  0  0  0  0  2  0  0  0  0  0  0
  185.8770  176.9100  145.5280 C   0  0  0  0  0  2  0  0  0  0  0  0
  184.9600  177.5800  146.5480 C   0  0  0  0  0  3  0  0  0  0  0  0
  185.7470  178.1610  147.7090 C   0  0  0  0  0  1  0  0  0  0  0  0
  184.0960  178.6500  145.9060 C   0  0  0  0  0  1  0  0  0  0  0  0
  1  5  1  0  0  0  0
  1 11  2  0  0  0  0
  2  9  1  0  0  0  0
  2 20  1  0  0  0  0
  4 12  1  0  0  0  0
  4 10  1  0  0  0  0
  5  2  2  0  0  0  0
  6  3  2  0  0  0  0
  7 12  2  0  0  0  0
  8 11  1  0  0  0  0
  9  6  1  0  0  0  0
 10  8  2  0  0  0  0
 11  9  1  0  0  0  0
 12  1  1  0  0  0  0
 13  6  1  6  0  0  0
 13 14  1  0  0  0  0
 15 16  1  6  0  0  0
 15 13  1  0  0  0  0
 15 14  1  0  0  0  0
 16 17  1  6  0  0  0
 16 18  1  0  0  0  0
 18 19  1  0  0  0  0
 21 20  1  0  0  0  0
 21 22  1  0  0  0  0
 22 23  1  0  0  0  0
 23 24  1  0  0  0  0
 25 23  1  0  0  0  0
M  END
>  <MODEL>
2

>  <REMARK>
 VINA RESULT:      -6.3      1.897      5.236
  Name = 
  7 active torsions:
  status: ('A' for Active; 'I' for Inactive)
    1  A    between atoms: C_2  and  C_3
    2  A    between atoms: C_2  and  C_5
    3  A    between atoms: C_3  and  C_20
    4  A    between atoms: C_4  and  C_20
    5  A    between atoms: C_7  and  C_13
    6  A    between atoms: O_10  and  C_16
    7  A    between atoms: C_16  and  C_22
                            x       y       z     vdW  Elec       q    Type
                         _______ _______ _______ _____ _____    ______ ____

>  <TORSDO>
F 7

$$$$
=
 OpenBabel11042417463D

 25 27  0  0  1  0  0  0  0  0999 V2000
  190.6150  176.0820  145.9580 C   0  0  0  0  0  0  0  0  0  0  0  0
  188.5630  176.6130  145.4390 C   0  0  0  0  0  0  0  0  0  0  0  0
  189.7480  178.1050  142.3730 O   0  0  0  0  0  0  0  0  0  0  0  0
  192.9480  175.7940  145.7260 N   0  0  0  0  0  0  0  0  0  0  0  0
  189.3340  176.0720  146.4740 C   0  0  0  0  0  3  0  0  0  0  0  0
  188.9050  177.5080  143.0970 C   0  0  0  0  0  0  0  0  0  0  0  0
  191.8990  175.1790  147.6530 O   0  0  0  0  0  0  0  0  0  0  0  0
  191.6900  176.7240  143.9380 N   0  0  0  0  0  2  0  0  0  0  0  0
  189.3200  176.9320  144.3520 N   0  0  0  0  0  0  0  0  0  0  0  0
  192.8850  176.3160  144.4610 C   0  0  0  0  0  3  0  0  0  0  0  0
  190.5750  176.6030  144.7020 C   0  0  0  0  0  0  0  0  0  0  0  0
  191.8280  175.6650  146.4940 C   0  0  0  0  0  0  0  0  0  0  0  0
  187.4730  177.4150  142.6330 C   0  0  1  0  0  3  0  0  0  0  0  0
  187.3960  177.5190  141.1650 N   0  0  0  0  0  2  0  0  0  0  0  0
  187.1370  176.2250  141.8140 C   0  0  1  0  0  3  0  0  0  0  0  0
  188.2880  175.2650  141.5130 C   0  0  1  0  0  3  0  0  0  0  0  0
  188.1150  174.0450  142.2830 N   0  0  0  0  0  1  0  0  0  0  0  0
  188.3020  174.9570  140.1520 O   0  0  0  0  0  0  0  0  0  0  0  0
  189.1210  173.8320  140.0490 C   0  0  0  0  0  1  0  0  0  0  0  0
  187.0900  176.8210  145.5480 C   0  0  0  0  0  2  0  0  0  0  0  0
  186.7580  177.4890  146.8670 C   0  0  0  0  0  2  0  0  0  0  0  0
  186.0670  178.8190  146.6040 C   0  0  0  0  0  2  0  0  0  0  0  0
  185.2080  178.7910  145.3420 C   0  0  0  0  0  3  0  0  0  0  0  0
  183.7270  178.7740  145.6740 C   0  0  0  0  0  1  0  0  0  0  0  0
  185.5310  179.9530  144.4200 C   0  0  0  0  0  1  0  0  0  0  0  0
  1  5  1  0  0  0  0
  1 12  1  0  0  0  0
  2 20  1  0  0  0  0
  2  5  2  0  0  0  0
  3  6  2  0  0  0  0
  4 12  1  0  0  0  0
  6  9  1  0  0  0  0
  8 10  1  0  0  0  0
  8 11  1  0  0  0  0
  9 11  1  0  0  0  0
  9  2  1  0  0  0  0
 10  4  2  0  0  0  0
 11  1  2  0  0  0  0
 12  7  2  0  0  0  0
 13  6  1  6  0  0  0
 14 15  1  0  0  0  0
 14 13  1  0  0  0  0
 15 16  1  6  0  0  0
 15 13  1  0  0  0  0
 16 17  1  1  0  0  0
 18 16  1  0  0  0  0
 19 18  1  0  0  0  0
 20 21  1  0  0  0  0
 22 21  1  0  0  0  0
 23 24  1  0  0  0  0
 23 22  1  0  0  0  0
 25 23  1  0  0  0  0
M  END
>  <MODEL>
3

>  <REMARK>
 VINA RESULT:      -6.2      0.806      1.037
  Name = 
  7 active torsions:
  status: ('A' for Active; 'I' for Inactive)
    1  A    between atoms: C_2  and  C_3
    2  A    between atoms: C_2  and  C_5
    3  A    between atoms: C_3  and  C_20
    4  A    between atoms: C_4  and  C_20
    5  A    between atoms: C_7  and  C_13
    6  A    between atoms: O_10  and  C_16
    7  A    between atoms: C_16  and  C_22
                            x       y       z     vdW  Elec       q    Type
                         _______ _______ _______ _____ _____    ______ ____

>  <TORSDO>
F 7

$$$$
=
 OpenBabel11042417463D

 25 27  0  0  1  0  0  0  0  0999 V2000
  187.6970  177.0440  142.7360 C   0  0  0  0  0  0  0  0  0  0  0  0
  188.4590  176.9650  144.7790 C   0  0  0  0  0  0  0  0  0  0  0  0
  189.8140  173.6840  144.1240 O   0  0  0  0  0  0  0  0  0  0  0  0
  187.3320  176.4130  140.4890 N   0  0  0  0  0  2  0  0  0  0  0  0
  187.6700  177.7450  143.9250 C   0  0  0  0  0  3  0  0  0  0  0  0
  189.7880  174.8130  144.6850 C   0  0  0  0  0  0  0  0  0  0  0  0
  186.4070  178.3260  141.3120 O   0  0  0  0  0  0  0  0  0  0  0  0
  188.6750  175.0480  141.8940 N   0  0  0  0  0  0  0  0  0  0  0  0
  188.9460  175.8560  144.1540 N   0  0  0  0  0  0  0  0  0  0  0  0
  188.1030  175.2970  140.6780 C   0  0  0  0  0  3  0  0  0  0  0  0
  188.4550  175.9270  142.9040 C   0  0  0  0  0  0  0  0  0  0  0  0
  187.1140  177.3020  141.5010 C   0  0  0  0  0  0  0  0  0  0  0  0
  190.6380  175.0460  145.9080 C   0  0  1  0  0  3  0  0  0  0  0  0
  191.8980  174.2870  145.8150 N   0  0  0  0  0  2  0  0  0  0  0  0
  191.9220  175.7510  145.6750 C   0  0  1  0  0  3  0  0  0  0  0  0
  192.2380  176.1190  144.2260 C   0  0  1  0  0  3  0  0  0  0  0  0
  192.0490  177.5460  144.0360 N   0  0  0  0  0  1  0  0  0  0  0  0
  193.5610  175.7830  143.9310 O   0  0  0  0  0  0  0  0  0  0  0  0
  194.3290  176.5940  144.7670 C   0  0  0  0  0  1  0  0  0  0  0  0
  188.7070  177.3220  146.2060 C   0  0  0  0  0  2  0  0  0  0  0  0
  187.5240  176.9040  147.0560 C   0  0  0  0  0  2  0  0  0  0  0  0
  186.7460  178.1390  147.4860 C   0  0  0  0  0  2  0  0  0  0  0  0
  185.3120  178.1370  146.9610 C   0  0  0  0  0  3  0  0  0  0  0  0
  185.0860  179.2450  145.9480 C   0  0  0  0  0  1  0  0  0  0  0  0
  184.9370  176.7910  146.3650 C   0  0  0  0  0  1  0  0  0  0  0  0
  1 11  2  0  0  0  0
  1  5  1  0  0  0  0
  2 20  1  0  0  0  0
  3  6  2  0  0  0  0
  4 10  1  0  0  0  0
  4 12  1  0  0  0  0
  5  2  2  0  0  0  0
  7 12  2  0  0  0  0
  8 11  1  0  0  0  0
  9  6  1  0  0  0  0
  9  2  1  0  0  0  0
 10  8  2  0  0  0  0
 11  9  1  0  0  0  0
 12  1  1  0  0  0  0
 13  6  1  6  0  0  0
 14 13  1  0  0  0  0
 15 16  1  6  0  0  0
 15 14  1  0  0  0  0
 15 13  1  0  0  0  0
 16 17  1  1  0  0  0
 18 16  1  0  0  0  0
 18 19  1  0  0  0  0
 20 21  1  0  0  0  0
 21 22  1  0  0  0  0
 23 22  1  0  0  0  0
 24 23  1  0  0  0  0
 25 23  1  0  0  0  0
M  END
>  <MODEL>
4

>  <REMARK>
 VINA RESULT:      -6.1      2.024      5.015
  Name = 
  7 active torsions:
  status: ('A' for Active; 'I' for Inactive)
    1  A    between atoms: C_2  and  C_3
    2  A    between atoms: C_2  and  C_5
    3  A    between atoms: C_3  and  C_20
    4  A    between atoms: C_4  and  C_20
    5  A    between atoms: C_7  and  C_13
    6  A    between atoms: O_10  and  C_16
    7  A    between atoms: C_16  and  C_22
                            x       y       z     vdW  Elec       q    Type
                         _______ _______ _______ _____ _____    ______ ____

>  <TORSDO>
F 7

$$$$
=
 OpenBabel11042417463D

 25 27  0  0  1  0  0  0  0  0999 V2000
  190.8230  176.5550  146.4800 C   0  0  0  0  0  0  0  0  0  0  0  0
  188.9300  176.4220  145.4030 C   0  0  0  0  0  0  0  0  0  0  0  0
  190.7390  175.7680  142.3480 O   0  0  0  0  0  0  0  0  0  0  0  0
  193.1470  176.4330  146.8850 N   0  0  0  0  0  0  0  0  0  0  0  0
  189.4660  176.7370  146.6570 C   0  0  0  0  0  3  0  0  0  0  0  0
  189.7530  175.6740  143.1300 C   0  0  0  0  0  0  0  0  0  0  0  0
  191.7210  177.0600  148.5470 O   0  0  0  0  0  0  0  0  0  0  0  0
  192.2940  175.8930  144.7340 N   0  0  0  0  0  2  0  0  0  0  0  0
  189.8960  176.0640  144.5100 N   0  0  0  0  0  0  0  0  0  0  0  0
  193.3500  176.0330  145.5910 C   0  0  0  0  0  3  0  0  0  0  0  0
  191.0470  176.1620  145.1970 C   0  0  0  0  0  0  0  0  0  0  0  0
  191.8940  176.6990  147.3540 C   0  0  0  0  0  0  0  0  0  0  0  0
  188.4390  175.1600  142.5970 C   0  0  1  0  0  3  0  0  0  0  0  0
  188.6140  174.5910  141.2490 N   0  0  0  0  0  2  0  0  0  0  0  0
  188.3590  173.6950  142.3860 C   0  0  1  0  0  3  0  0  0  0  0  0
  189.6250  172.8960  142.7000 C   0  0  1  0  0  3  0  0  0  0  0  0
  189.3430  171.9330  143.7500 N   0  0  0  0  0  1  0  0  0  0  0  0
  190.0530  172.2220  141.5550 O   0  0  0  0  0  0  0  0  0  0  0  0
  190.4730  170.9730  142.0130 C   0  0  0  0  0  1  0  0  0  0  0  0
  187.4700  176.4950  145.1020 C   0  0  0  0  0  2  0  0  0  0  0  0
  186.7000  176.8420  146.3600 C   0  0  0  0  0  2  0  0  0  0  0  0
  185.2070  176.8170  146.0660 C   0  0  0  0  0  2  0  0  0  0  0  0
  184.4940  178.0740  146.5580 C   0  0  0  0  0  3  0  0  0  0  0  0
  185.3560  178.8590  147.5320 C   0  0  0  0  0  1  0  0  0  0  0  0
  184.0590  178.9580  145.4040 C   0  0  0  0  0  1  0  0  0  0  0  0
  1  5  1  0  0  0  0
  1 12  1  0  0  0  0
  2  5  2  0  0  0  0
  3  6  2  0  0  0  0
  4 12  1  0  0  0  0
  6  9  1  0  0  0  0
  8 11  1  0  0  0  0
  8 10  1  0  0  0  0
  9 11  1  0  0  0  0
  9  2  1  0  0  0  0
 10  4  2  0  0  0  0
 11  1  2  0  0  0  0
 12  7  2  0  0  0  0
 13  6  1  1  0  0  0
 14 15  1  0  0  0  0
 14 13  1  0  0  0  0
 15 13  1  0  0  0  0
 15 16  1  1  0  0  0
 16 17  1  1  0  0  0
 18 19  1  0  0  0  0
 18 16  1  0  0  0  0
 20  2  1  0  0  0  0
 20 21  1  0  0  0  0
 22 21  1  0  0  0  0
 22 23  1  0  0  0  0
 23 24  1  0  0  0  0
 25 23  1  0  0  0  0
M  END
>  <MODEL>
5

>  <REMARK>
 VINA RESULT:      -5.8      1.714      2.106
  Name = 
  7 active torsions:
  status: ('A' for Active; 'I' for Inactive)
    1  A    between atoms: C_2  and  C_3
    2  A    between atoms: C_2  and  C_5
    3  A    between atoms: C_3  and  C_20
    4  A    between atoms: C_4  and  C_20
    5  A    between atoms: C_7  and  C_13
    6  A    between atoms: O_10  and  C_16
    7  A    between atoms: C_16  and  C_22
                            x       y       z     vdW  Elec       q    Type
                         _______ _______ _______ _____ _____    ______ ____

>  <TORSDO>
F 7

$$$$
=
 OpenBabel11042417463D

 25 27  0  0  1  0  0  0  0  0999 V2000
  188.6730  174.7080  141.3160 C   0  0  0  0  0  0  0  0  0  0  0  0
  188.1330  175.7980  143.1270 C   0  0  0  0  0  0  0  0  0  0  0  0
  190.2780  173.6250  145.0510 O   0  0  0  0  0  0  0  0  0  0  0  0
  189.7960  173.1730  139.9140 N   0  0  0  0  0  2  0  0  0  0  0  0
  187.8260  175.7020  141.7650 C   0  0  0  0  0  3  0  0  0  0  0  0
  189.6990  174.7150  144.7940 C   0  0  0  0  0  0  0  0  0  0  0  0
  188.1870  174.5450  139.0640 O   0  0  0  0  0  0  0  0  0  0  0  0
  190.3530  173.2900  142.2210 N   0  0  0  0  0  0  0  0  0  0  0  0
  189.1110  174.9230  143.4940 N   0  0  0  0  0  0  0  0  0  0  0  0
  190.5370  172.7430  140.9820 C   0  0  0  0  0  3  0  0  0  0  0  0
  189.4170  174.2620  142.3650 C   0  0  0  0  0  0  0  0  0  0  0  0
  188.8580  174.1540  140.0550 C   0  0  0  0  0  0  0  0  0  0  0  0
  189.6290  175.7790  145.8600 C   0  0  1  0  0  3  0  0  0  0  0  0
  190.8210  175.7240  146.7260 N   0  0  0  0  0  2  0  0  0  0  0  0
  190.6630  176.8390  145.7800 C   0  0  1  0  0  3  0  0  0  0  0  0
  191.6880  176.7010  144.6540 C   0  0  1  0  0  3  0  0  0  0  0  0
  191.4890  177.7630  143.6840 N   0  0  0  0  0  1  0  0  0  0  0  0
  192.9790  176.7880  145.1780 O   0  0  0  0  0  0  0  0  0  0  0  0
  193.7030  175.8020  144.5070 C   0  0  0  0  0  1  0  0  0  0  0  0
  187.4420  176.7470  144.0490 C   0  0  0  0  0  2  0  0  0  0  0  0
  185.9400  176.5920  143.9200 C   0  0  0  0  0  2  0  0  0  0  0  0
  185.2470  177.5090  144.9160 C   0  0  0  0  0  2  0  0  0  0  0  0
  184.4920  178.6470  144.2330 C   0  0  0  0  0  3  0  0  0  0  0  0
  185.2870  179.9410  144.2620 C   0  0  0  0  0  1  0  0  0  0  0  0
  184.1130  178.2900  142.8070 C   0  0  0  0  0  1  0  0  0  0  0  0
  1  5  1  0  0  0  0
  1 11  2  0  0  0  0
  2  9  1  0  0  0  0
  2 20  1  0  0  0  0
  4 12  1  0  0  0  0
  4 10  1  0  0  0  0
  5  2  2  0  0  0  0
  6  3  2  0  0  0  0
  7 12  2  0  0  0  0
  8 11  1  0  0  0  0
  9  6  1  0  0  0  0
 10  8  2  0  0  0  0
 11  9  1  0  0  0  0
 12  1  1  0  0  0  0
 13  6  1  6  0  0  0
 13 14  1  0  0  0  0
 15 16  1  6  0  0  0
 15 13  1  0  0  0  0
 15 14  1  0  0  0  0
 16 17  1  6  0  0  0
 16 18  1  0  0  0  0
 19 18  1  0  0  0  0
 21 20  1  0  0  0  0
 21 22  1  0  0  0  0
 23 24  1  0  0  0  0
 23 22  1  0  0  0  0
 25 23  1  0  0  0  0
M  END
>  <MODEL>
6

>  <REMARK>
 VINA RESULT:      -5.6      1.843      5.018
  Name = 
  7 active torsions:
  status: ('A' for Active; 'I' for Inactive)
    1  A    between atoms: C_2  and  C_3
    2  A    between atoms: C_2  and  C_5
    3  A    between atoms: C_3  and  C_20
    4  A    between atoms: C_4  and  C_20
    5  A    between atoms: C_7  and  C_13
    6  A    between atoms: O_10  and  C_16
    7  A    between atoms: C_16  and  C_22
                            x       y       z     vdW  Elec       q    Type
                         _______ _______ _______ _____ _____    ______ ____

>  <TORSDO>
F 7

$$$$
=
 OpenBabel11042417463D

 25 27  0  0  1  0  0  0  0  0999 V2000
  186.9500  177.5580  143.2510 C   0  0  0  0  0  0  0  0  0  0  0  0
  188.0260  176.2890  144.6620 C   0  0  0  0  0  0  0  0  0  0  0  0
  188.6820  173.9310  142.0090 O   0  0  0  0  0  0  0  0  0  0  0  0
  186.1060  178.3490  141.1910 N   0  0  0  0  0  2  0  0  0  0  0  0
  187.2440  177.4480  144.5960 C   0  0  0  0  0  3  0  0  0  0  0  0
  188.9410  174.5330  143.0870 C   0  0  0  0  0  0  0  0  0  0  0  0
  185.6690  179.4760  143.1230 O   0  0  0  0  0  0  0  0  0  0  0  0
  187.4230  176.3720  141.2460 N   0  0  0  0  0  0  0  0  0  0  0  0
  188.2060  175.7230  143.4360 N   0  0  0  0  0  0  0  0  0  0  0  0
  186.7020  177.2980  140.5460 C   0  0  0  0  0  3  0  0  0  0  0  0
  187.5290  176.5190  142.5910 C   0  0  0  0  0  0  0  0  0  0  0  0
  186.2160  178.5020  142.5420 C   0  0  0  0  0  0  0  0  0  0  0  0
  190.0150  173.9850  143.9930 C   0  0  1  0  0  3  0  0  0  0  0  0
  190.9630  173.1540  143.2310 N   0  0  0  0  0  2  0  0  0  0  0  0
  191.3900  174.4710  143.7280 C   0  0  1  0  0  3  0  0  0  0  0  0
  191.5530  175.4310  142.5500 C   0  0  1  0  0  3  0  0  0  0  0  0
  192.3170  176.5920  142.9730 N   0  0  0  0  0  1  0  0  0  0  0  0
  192.2230  174.7900  141.5060 O   0  0  0  0  0  0  0  0  0  0  0  0
  193.5240  175.2900  141.5580 C   0  0  0  0  0  1  0  0  0  0  0  0
  188.5700  175.7490  145.9430 C   0  0  0  0  0  2  0  0  0  0  0  0
  189.2850  176.8480  146.7040 C   0  0  0  0  0  2  0  0  0  0  0  0
  190.7220  176.9520  146.2160 C   0  0  0  0  0  2  0  0  0  0  0  0
  191.7200  176.3610  147.2100 C   0  0  0  0  0  3  0  0  0  0  0  0
  193.1420  176.4350  146.6840 C   0  0  0  0  0  1  0  0  0  0  0  0
  191.6220  177.0340  148.5670 C   0  0  0  0  0  1  0  0  0  0  0  0
  1  5  1  0  0  0  0
  2 20  1  0  0  0  0
  3  6  2  0  0  0  0
  4 12  1  0  0  0  0
  5  2  2  0  0  0  0
  6  9  1  0  0  0  0
  8 11  1  0  0  0  0
  9  2  1  0  0  0  0
 10  4  1  0  0  0  0
 10  8  2  0  0  0  0
 11  1  2  0  0  0  0
 11  9  1  0  0  0  0
 12  7  2  0  0  0  0
 12  1  1  0  0  0  0
 13  6  1  6  0  0  0
 14 15  1  0  0  0  0
 14 13  1  0  0  0  0
 15 16  1  6  0  0  0
 15 13  1  0  0  0  0
 16 17  1  1  0  0  0
 18 19  1  0  0  0  0
 18 16  1  0  0  0  0
 20 21  1  0  0  0  0
 22 21  1  0  0  0  0
 22 23  1  0  0  0  0
 23 25  1  0  0  0  0
 24 23  1  0  0  0  0
M  END
>  <MODEL>
7

>  <REMARK>
 VINA RESULT:      -5.6      2.399      5.635
  Name = 
  7 active torsions:
  status: ('A' for Active; 'I' for Inactive)
    1  A    between atoms: C_2  and  C_3
    2  A    between atoms: C_2  and  C_5
    3  A    between atoms: C_3  and  C_20
    4  A    between atoms: C_4  and  C_20
    5  A    between atoms: C_7  and  C_13
    6  A    between atoms: O_10  and  C_16
    7  A    between atoms: C_16  and  C_22
                            x       y       z     vdW  Elec       q    Type
                         _______ _______ _______ _____ _____    ______ ____

>  <TORSDO>
F 7

$$$$
=
 OpenBabel11042417463D

 25 27  0  0  1  0  0  0  0  0999 V2000
  189.5880  173.8040  143.3820 C   0  0  0  0  0  0  0  0  0  0  0  0
  190.1560  175.5620  144.5430 C   0  0  0  0  0  0  0  0  0  0  0  0
  193.0080  173.7630  145.8300 O   0  0  0  0  0  0  0  0  0  0  0  0
  189.7300  171.6500  142.4230 N   0  0  0  0  0  2  0  0  0  0  0  0
  189.1390  175.0660  143.7190 C   0  0  0  0  0  3  0  0  0  0  0  0
  192.3850  174.7970  145.4630 C   0  0  0  0  0  0  0  0  0  0  0  0
  187.9230  172.9750  142.0110 O   0  0  0  0  0  0  0  0  0  0  0  0
  191.4840  172.4390  143.8170 N   0  0  0  0  0  0  0  0  0  0  0  0
  191.1700  174.6650  144.6980 N   0  0  0  0  0  0  0  0  0  0  0  0
  190.9420  171.4610  143.0310 C   0  0  0  0  0  3  0  0  0  0  0  0
  190.7900  173.5940  143.9820 C   0  0  0  0  0  0  0  0  0  0  0  0
  189.0340  172.8120  142.5810 C   0  0  0  0  0  0  0  0  0  0  0  0
  192.9260  176.1530  145.8400 C   0  0  1  0  0  3  0  0  0  0  0  0
  194.3120  176.0410  146.3280 N   0  0  0  0  0  2  0  0  0  0  0  0
  194.0530  176.6490  145.0150 C   0  0  1  0  0  3  0  0  0  0  0  0
  194.5480  175.7120  143.9130 C   0  0  1  0  0  3  0  0  0  0  0  0
  194.1890  176.2560  142.6160 N   0  0  0  0  0  1  0  0  0  0  0  0
  195.9360  175.5810  143.9930 O   0  0  0  0  0  0  0  0  0  0  0  0
  196.4360  176.7920  143.5120 C   0  0  0  0  0  1  0  0  0  0  0  0
  190.1010  176.9120  145.1760 C   0  0  0  0  0  2  0  0  0  0  0  0
  188.7420  177.5390  144.9400 C   0  0  0  0  0  2  0  0  0  0  0  0
  187.9370  177.5090  146.2310 C   0  0  0  0  0  2  0  0  0  0  0  0
  186.4900  177.9540  146.0260 C   0  0  0  0  0  3  0  0  0  0  0  0
  186.2980  178.6240  144.6770 C   0  0  0  0  0  1  0  0  0  0  0  0
  185.5210  176.7960  146.1860 C   0  0  0  0  0  1  0  0  0  0  0  0
  1  5  1  0  0  0  0
  1 11  2  0  0  0  0
  2  9  1  0  0  0  0
  2 20  1  0  0  0  0
  4 12  1  0  0  0  0
  4 10  1  0  0  0  0
  5  2  2  0  0  0  0
  6  3  2  0  0  0  0
  7 12  2  0  0  0  0
  8 11  1  0  0  0  0
  9  6  1  0  0  0  0
 10  8  2  0  0  0  0
 11  9  1  0  0  0  0
 12  1  1  0  0  0  0
 13  6  1  6  0  0  0
 13 14  1  0  0  0  0
 15 16  1  6  0  0  0
 15 13  1  0  0  0  0
 15 14  1  0  0  0  0
 16 17  1  6  0  0  0
 16 18  1  0  0  0  0
 19 18  1  0  0  0  0
 21 20  1  0  0  0  0
 21 22  1  0  0  0  0
 23 25  1  0  0  0  0
 23 22  1  0  0  0  0
 24 23  1  0  0  0  0
M  END
>  <MODEL>
8

>  <REMARK>
 VINA RESULT:      -5.5      2.707      5.577
  Name = 
  7 active torsions:
  status: ('A' for Active; 'I' for Inactive)
    1  A    between atoms: C_2  and  C_3
    2  A    between atoms: C_2  and  C_5
    3  A    between atoms: C_3  and  C_20
    4  A    between atoms: C_4  and  C_20
    5  A    between atoms: C_7  and  C_13
    6  A    between atoms: O_10  and  C_16
    7  A    between atoms: C_16  and  C_22
                            x       y       z     vdW  Elec       q    Type
                         _______ _______ _______ _____ _____    ______ ____

>  <TORSDO>
F 7

$$$$
=
 OpenBabel11042417463D

 25 27  0  0  1  0  0  0  0  0999 V2000
  192.7240  175.9800  145.5510 C   0  0  0  0  0  0  0  0  0  0  0  0
  190.6670  175.2530  145.6040 C   0  0  0  0  0  0  0  0  0  0  0  0
  190.7180  174.9100  142.0120 O   0  0  0  0  0  0  0  0  0  0  0  0
  194.8490  176.5340  144.6800 N   0  0  0  0  0  0  0  0  0  0  0  0
  191.6680  175.7920  146.4210 C   0  0  0  0  0  3  0  0  0  0  0  0
  190.3530  174.6030  143.1790 C   0  0  0  0  0  0  0  0  0  0  0  0
  194.3890  176.8590  146.8890 O   0  0  0  0  0  0  0  0  0  0  0  0
  193.1850  175.6280  143.2460 N   0  0  0  0  0  2  0  0  0  0  0  0
  191.0810  175.1140  144.3130 N   0  0  0  0  0  0  0  0  0  0  0  0
  194.4470  176.1160  143.4400 C   0  0  0  0  0  3  0  0  0  0  0  0
  192.3430  175.5750  144.3090 C   0  0  0  0  0  0  0  0  0  0  0  0
  194.0060  176.4760  145.7520 C   0  0  0  0  0  0  0  0  0  0  0  0
  189.1510  173.7100  143.3620 C   0  0  1  0  0  3  0  0  0  0  0  0
  188.8760  172.9530  142.1270 N   0  0  0  0  0  2  0  0  0  0  0  0
  189.4180  172.2530  143.3010 C   0  0  1  0  0  3  0  0  0  0  0  0
  190.8640  171.8400  143.0250 C   0  0  1  0  0  3  0  0  0  0  0  0
  191.4900  171.4080  144.2620 N   0  0  0  0  0  1  0  0  0  0  0  0
  190.8880  170.7930  142.1020 O   0  0  0  0  0  0  0  0  0  0  0  0
  191.9060  171.1280  141.2090 C   0  0  0  0  0  1  0  0  0  0  0  0
  189.3090  174.8990  146.1110 C   0  0  0  0  0  2  0  0  0  0  0  0
  188.5660  176.1540  146.5210 C   0  0  0  0  0  2  0  0  0  0  0  0
  188.0400  176.8620  145.2810 C   0  0  0  0  0  2  0  0  0  0  0  0
  186.5660  177.2410  145.4070 C   0  0  0  0  0  3  0  0  0  0  0  0
  186.0900  177.1600  146.8470 C   0  0  0  0  0  1  0  0  0  0  0  0
  186.2930  178.6210  144.8360 C   0  0  0  0  0  1  0  0  0  0  0  0
  1 12  1  0  0  0  0
  1  5  1  0  0  0  0
  2 20  1  0  0  0  0
  2  5  2  0  0  0  0
  3  6  2  0  0  0  0
  4 12  1  0  0  0  0
  6  9  1  0  0  0  0
  8 10  1  0  0  0  0
  8 11  1  0  0  0  0
  9  2  1  0  0  0  0
 10  4  2  0  0  0  0
 11  9  1  0  0  0  0
 11  1  2  0  0  0  0
 12  7  2  0  0  0  0
 13  6  1  6  0  0  0
 14 15  1  0  0  0  0
 14 13  1  0  0  0  0
 15 16  1  6  0  0  0
 15 13  1  0  0  0  0
 16 17  1  1  0  0  0
 18 16  1  0  0  0  0
 19 18  1  0  0  0  0
 20 21  1  0  0  0  0
 22 23  1  0  0  0  0
 22 21  1  0  0  0  0
 23 24  1  0  0  0  0
 25 23  1  0  0  0  0
M  END
>  <MODEL>
9

>  <REMARK>
 VINA RESULT:      -5.4      2.489      3.543
  Name = 
  7 active torsions:
  status: ('A' for Active; 'I' for Inactive)
    1  A    between atoms: C_2  and  C_3
    2  A    between atoms: C_2  and  C_5
    3  A    between atoms: C_3  and  C_20
    4  A    between atoms: C_4  and  C_20
    5  A    between atoms: C_7  and  C_13
    6  A    between atoms: O_10  and  C_16
    7  A    between atoms: C_16  and  C_22
                            x       y       z     vdW  Elec       q    Type
                         _______ _______ _______ _____ _____    ______ ____

>  <TORSDO>
F 7

$$$$
