=
 OpenBabel11042415243D

 51 57  0  0  1  0  0  0  0  0999 V2000
  193.9540  172.6830  144.9400 N   0  0  0  0  0  0  0  0  0  0  0  0
  193.4310  173.9830  144.6080 N   0  0  2  0  0  0  0  0  0  0  0  0
  188.4250  175.5710  147.3130 O   0  0  0  0  0  0  0  0  0  0  0  0
  187.8040  177.8920  146.8680 O   0  0  0  0  0  0  0  0  0  0  0  0
  191.7620  176.2490  143.9720 C   0  0  0  0  0  1  0  0  0  0  0  0
  189.4680  174.8690  141.7610 C   0  0  0  0  0  2  0  0  0  0  0  0
  192.2890  174.1700  145.3970 N   0  0  0  0  0  2  0  0  0  0  0  0
  188.3210  175.2770  142.6770 C   0  0  2  0  0  3  0  0  0  0  0  0
  190.6190  171.4300  141.6570 F   0  0  0  0  0  0  0  0  0  0  0  0
  192.5470  172.3740  140.6060 C   0  0  0  0  0  2  0  0  0  0  0  0
  191.1660  172.6170  141.1980 C   0  0  1  0  0  3  0  0  0  0  0  0
  193.1470  172.8760  143.7630 C   0  0  1  0  0  3  0  0  0  0  0  0
  187.8670  176.2190  144.7620 C   0  0  2  0  0  3  0  0  0  0  0  0
  191.9210  175.5830  145.3380 C   0  0  2  0  0  0  0  0  0  0  0  0
  188.5620  176.7070  146.3340 S   0  0  0  0  0  0  0  0  0  0  0  0
  187.7110  176.9130  142.1670 S   0  0  0  0  0  0  0  0  0  0  0  0
  190.2510  173.2820  140.1640 C   0  0  2  0  0  3  0  0  0  0  0  0
  188.7880  175.3460  144.0540 N   0  0  0  0  0  2  0  0  0  0  0  0
  191.0640  176.0300  146.5080 C   0  0  1  0  0  3  0  0  0  0  0  0
  193.5200  171.8910  141.6700 C   0  0  0  0  0  2  0  0  0  0  0  0
  189.0460  173.8500  140.7990 N   0  0  0  0  0  0  0  0  0  0  0  0
  192.5350  176.4320  146.4240 C   0  0  0  0  0  2  0  0  0  0  0  0
  193.9150  172.9940  142.5260 N   0  0  0  0  0  2  0  0  0  0  0  0
  188.2730  174.5440  139.7690 C   0  0  0  0  0  1  0  0  0  0  0  0
  187.5810  177.4330  143.9000 C   0  0  1  0  0  3  0  0  0  0  0  0
  190.2270  177.1630  146.1440 N   0  0  0  0  0  2  0  0  0  0  0  0
  189.8930  172.2550  139.0790 C   0  0  0  0  0  2  0  0  0  0  0  0
  193.0470  173.9790  135.0770 C   0  0  0  0  0  1  0  0  0  0  0  0
  190.6970  172.4590  137.8220 C   0  0  0  0  0  0  0  0  0  0  0  0
  191.2320  171.4430  137.0160 C   0  0  0  0  0  0  0  0  0  0  0  0
  192.2220  173.2290  136.0610 C   0  0  0  0  0  0  0  0  0  0  0  0
  191.3360  173.9340  137.3020 S   0  0  0  0  0  0  0  0  0  0  0  0
  192.0630  171.8870  136.0310 N   0  0  0  0  0  0  0  0  0  0  0  0
  190.8900  170.0110  137.1390 C   0  0  0  0  0  0  0  0  0  0  0  0
  189.6990  169.6320  136.9830 O   0  0  0  0  0  0  0  0  0  0  0  0
  191.9090  169.0290  137.3460 N   0  0  0  0  0  2  0  0  0  0  0  0
  194.0410  169.6970  138.5350 C   0  0  0  0  0  2  0  0  0  0  0  0
  193.9880  168.1800  138.4030 C   0  0  0  0  0  2  0  0  0  0  0  0
  192.7170  168.9750  138.5600 C   0  0  0  0  0  0  0  0  0  0  0  0
  192.0160  168.8400  139.8980 C   0  0  0  0  0  1  0  0  0  0  0  0
  186.1850  177.9560  144.1850 C   0  0  0  0  0  2  0  0  0  0  0  0
  184.2040  178.2980  143.0120 C   0  0  0  0  0  1  0  0  0  0  0  0
  185.6290  178.5680  142.9910 N   0  0  0  0  0  2  0  0  0  0  0  0
  195.3920  172.7440  144.6920 C   0  0  0  0  0  2  0  0  0  0  0  0
  195.9860  173.9740  145.3680 C   0  0  1  0  0  3  0  0  0  0  0  0
  196.7090  173.5910  146.4950 O   0  0  0  0  0  1  0  0  0  0  0  0
  196.8590  174.7930  144.4100 C   0  0  0  0  0  2  0  0  0  0  0  0
  195.3580  176.8070  144.6710 O   0  0  0  0  0  1  0  0  0  0  0  0
  195.6960  175.9580  142.3880 C   0  0  0  0  0  2  0  0  0  0  0  0
  196.1370  176.0080  143.8330 C   0  0  0  0  0  0  0  0  0  0  0  0
  196.9100  176.7890  142.7940 C   0  0  0  0  0  2  0  0  0  0  0  0
  2  1  1  0  0  0  0
  2  7  1  1  0  0  0
  8  6  1  6  0  0  0
  8 18  1  0  0  0  0
 10 11  1  0  0  0  0
 10 20  1  0  0  0  0
 11  9  1  6  0  0  0
 12 23  1  6  0  0  0
 12  2  1  0  0  0  0
 12  1  1  0  0  0  0
 13 18  1  6  0  0  0
 13 15  1  0  0  0  0
 14  5  1  6  0  0  0
 14  7  1  0  0  0  0
 14 22  1  0  0  0  0
 14 19  1  0  0  0  0
 15  4  2  0  0  0  0
 15  3  2  0  0  0  0
 16  8  1  0  0  0  0
 16 25  1  0  0  0  0
 17 27  1  6  0  0  0
 17 21  1  0  0  0  0
 17 11  1  0  0  0  0
 19 22  1  1  0  0  0
 20 23  1  0  0  0  0
 21  6  1  0  0  0  0
 24 21  1  0  0  0  0
 25 41  1  6  0  0  0
 25 13  1  0  0  0  0
 26 15  1  0  0  0  0
 26 19  1  0  0  0  0
 28 31  1  0  0  0  0
 29 27  1  0  0  0  0
 30 34  1  0  0  0  0
 30 29  2  0  0  0  0
 31 32  1  0  0  0  0
 32 29  1  0  0  0  0
 33 31  2  0  0  0  0
 33 30  1  0  0  0  0
 34 36  1  0  0  0  0
 35 34  2  0  0  0  0
 36 39  1  0  0  0  0
 37 39  1  0  0  0  0
 38 37  1  0  0  0  0
 38 39  1  0  0  0  0
 39 40  1  0  0  0  0
 43 42  1  0  0  0  0
 43 41  1  0  0  0  0
 44  1  1  0  0  0  0
 44 45  1  0  0  0  0
 45 46  1  1  0  0  0
 47 45  1  0  0  0  0
 49 51  1  0  0  0  0
 49 50  1  0  0  0  0
 50 47  1  0  0  0  0
 50 48  1  0  0  0  0
 51 50  1  0  0  0  0
M  END
>  <MODEL>
1

>  <REMARK>
 VINA RESULT:      -6.9      0.000      0.000
  Name = 
  10 active torsions:
  status: ('A' for Active; 'I' for Inactive)
    1  A    between atoms: N_1  and  C_37
    2  A    between atoms: C_9  and  C_17
    3  A    between atoms: C_9  and  C_37
    4  A    between atoms: C_11  and  C_35
    5  A    between atoms: C_17  and  C_28
    6  A    between atoms: C_25  and  C_31
    7  A    between atoms: C_31  and  C_34
    8  A    between atoms: C_32  and  N_38
    9  A    between atoms: C_32  and  C_49
   10  A    between atoms: N_33  and  C_36
                            x       y       z     vdW  Elec       q    Type
                         _______ _______ _______ _____ _____    ______ ____

>  <TORSDO>
F 10

$$$$
=
 OpenBabel11042415243D

 51 57  0  0  1  0  0  0  0  0999 V2000
  193.9540  172.6130  144.9550 N   0  0  0  0  0  0  0  0  0  0  0  0
  193.4300  173.8440  144.4230 N   0  0  2  0  0  0  0  0  0  0  0  0
  188.2810  175.6880  146.6570 O   0  0  0  0  0  0  0  0  0  0  0  0
  187.6500  177.9120  145.8670 O   0  0  0  0  0  0  0  0  0  0  0  0
  191.7600  175.9660  143.4050 C   0  0  0  0  0  1  0  0  0  0  0  0
  189.5910  174.2490  141.3080 C   0  0  0  0  0  2  0  0  0  0  0  0
  192.2490  174.1150  145.1270 N   0  0  0  0  0  2  0  0  0  0  0  0
  188.3970  174.7560  142.1060 C   0  0  2  0  0  3  0  0  0  0  0  0
  190.7940  170.8530  141.7330 F   0  0  0  0  0  0  0  0  0  0  0  0
  192.7550  171.6810  140.6470 C   0  0  0  0  0  2  0  0  0  0  0  0
  191.3450  171.9760  141.1380 C   0  0  1  0  0  3  0  0  0  0  0  0
  193.2000  172.6250  143.7280 C   0  0  1  0  0  3  0  0  0  0  0  0
  187.8330  175.9670  144.0180 C   0  0  2  0  0  3  0  0  0  0  0  0
  191.8640  175.4980  144.8570 C   0  0  2  0  0  0  0  0  0  0  0  0
  188.4480  176.6810  145.5370 S   0  0  0  0  0  0  0  0  0  0  0  0
  187.7900  176.2930  141.3480 S   0  0  0  0  0  0  0  0  0  0  0  0
  190.4710  172.4730  139.9820 C   0  0  2  0  0  3  0  0  0  0  0  0
  188.7990  175.0230  143.4800 N   0  0  0  0  0  2  0  0  0  0  0  0
  190.9480  176.0850  145.9140 C   0  0  1  0  0  3  0  0  0  0  0  0
  193.6850  171.3690  141.8100 C   0  0  0  0  0  2  0  0  0  0  0  0
  189.2290  173.0990  140.4790 N   0  0  0  0  0  0  0  0  0  0  0  0
  192.4150  176.5010  145.8400 C   0  0  0  0  0  2  0  0  0  0  0  0
  194.0240  172.5870  142.5220 N   0  0  0  0  0  2  0  0  0  0  0  0
  188.4950  173.6280  139.3290 C   0  0  0  0  0  1  0  0  0  0  0  0
  187.5720  177.0440  142.9850 C   0  0  1  0  0  3  0  0  0  0  0  0
  190.1130  177.1400  145.3590 N   0  0  0  0  0  2  0  0  0  0  0  0
  190.1780  171.3000  139.0350 C   0  0  0  0  0  2  0  0  0  0  0  0
  194.0650  169.4640  135.8010 C   0  0  0  0  0  1  0  0  0  0  0  0
  191.2850  171.0920  138.0350 C   0  0  0  0  0  0  0  0  0  0  0  0
  191.5170  171.8720  136.8940 C   0  0  0  0  0  0  0  0  0  0  0  0
  192.9810  170.2040  136.5010 C   0  0  0  0  0  0  0  0  0  0  0  0
  192.2760  169.7250  137.9480 S   0  0  0  0  0  0  0  0  0  0  0  0
  192.4740  171.3770  136.0600 N   0  0  0  0  0  0  0  0  0  0  0  0
  190.8600  173.1670  136.6180 C   0  0  0  0  0  0  0  0  0  0  0  0
  189.7920  173.2020  135.9510 O   0  0  0  0  0  0  0  0  0  0  0  0
  191.3700  174.3820  137.1740 N   0  0  0  0  0  2  0  0  0  0  0  0
  192.6850  176.2260  136.0450 C   0  0  0  0  0  2  0  0  0  0  0  0
  192.9480  174.9050  135.3310 C   0  0  0  0  0  2  0  0  0  0  0  0
  192.6740  174.9280  136.8130 C   0  0  0  0  0  0  0  0  0  0  0  0
  193.8620  174.6320  137.7090 C   0  0  0  0  0  1  0  0  0  0  0  0
  186.1570  177.5740  143.1320 C   0  0  0  0  0  2  0  0  0  0  0  0
  185.2970  179.5800  143.9380 C   0  0  0  0  0  1  0  0  0  0  0  0
  186.1340  179.0070  142.9030 N   0  0  0  0  0  2  0  0  0  0  0  0
  195.4010  172.6680  144.7650 C   0  0  0  0  0  2  0  0  0  0  0  0
  195.9490  173.9810  145.3100 C   0  0  1  0  0  3  0  0  0  0  0  0
  196.6810  173.7430  146.4710 O   0  0  0  0  0  1  0  0  0  0  0  0
  196.7960  174.7270  144.2730 C   0  0  0  0  0  2  0  0  0  0  0  0
  195.4900  176.8550  144.6540 O   0  0  0  0  0  1  0  0  0  0  0  0
  195.5600  175.9870  142.3530 C   0  0  0  0  0  2  0  0  0  0  0  0
  196.1270  175.9980  143.7540 C   0  0  0  0  0  0  0  0  0  0  0  0
  196.8670  176.7160  142.6500 C   0  0  0  0  0  2  0  0  0  0  0  0
  2  1  1  0  0  0  0
  2  7  1  1  0  0  0
  8  6  1  6  0  0  0
  8 18  1  0  0  0  0
 10 11  1  0  0  0  0
 10 20  1  0  0  0  0
 11  9  1  6  0  0  0
 12 23  1  6  0  0  0
 12  2  1  0  0  0  0
 12  1  1  0  0  0  0
 13 18  1  6  0  0  0
 13 15  1  0  0  0  0
 14  5  1  6  0  0  0
 14  7  1  0  0  0  0
 14 22  1  0  0  0  0
 14 19  1  0  0  0  0
 15  4  2  0  0  0  0
 15  3  2  0  0  0  0
 16  8  1  0  0  0  0
 16 25  1  0  0  0  0
 17 27  1  6  0  0  0
 17 21  1  0  0  0  0
 17 11  1  0  0  0  0
 19 22  1  1  0  0  0
 20 23  1  0  0  0  0
 21  6  1  0  0  0  0
 24 21  1  0  0  0  0
 25 41  1  6  0  0  0
 25 13  1  0  0  0  0
 26 15  1  0  0  0  0
 26 19  1  0  0  0  0
 28 31  1  0  0  0  0
 29 27  1  0  0  0  0
 30 29  2  0  0  0  0
 31 32  1  0  0  0  0
 32 29  1  0  0  0  0
 33 31  2  0  0  0  0
 33 30  1  0  0  0  0
 34 30  1  0  0  0  0
 34 36  1  0  0  0  0
 35 34  2  0  0  0  0
 37 39  1  0  0  0  0
 38 37  1  0  0  0  0
 38 39  1  0  0  0  0
 39 36  1  0  0  0  0
 39 40  1  0  0  0  0
 43 41  1  0  0  0  0
 43 42  1  0  0  0  0
 44  1  1  0  0  0  0
 44 45  1  0  0  0  0
 45 46  1  1  0  0  0
 47 45  1  0  0  0  0
 49 51  1  0  0  0  0
 49 50  1  0  0  0  0
 50 47  1  0  0  0  0
 50 48  1  0  0  0  0
 51 50  1  0  0  0  0
M  END
>  <MODEL>
2

>  <REMARK>
 VINA RESULT:      -6.7      1.376      2.478
  Name = 
  10 active torsions:
  status: ('A' for Active; 'I' for Inactive)
    1  A    between atoms: N_1  and  C_37
    2  A    between atoms: C_9  and  C_17
    3  A    between atoms: C_9  and  C_37
    4  A    between atoms: C_11  and  C_35
    5  A    between atoms: C_17  and  C_28
    6  A    between atoms: C_25  and  C_31
    7  A    between atoms: C_31  and  C_34
    8  A    between atoms: C_32  and  N_38
    9  A    between atoms: C_32  and  C_49
   10  A    between atoms: N_33  and  C_36
                            x       y       z     vdW  Elec       q    Type
                         _______ _______ _______ _____ _____    ______ ____

>  <TORSDO>
F 10

$$$$
=
 OpenBabel11042415243D

 51 57  0  0  1  0  0  0  0  0999 V2000
  194.0280  172.6130  145.3070 N   0  0  0  0  0  0  0  0  0  0  0  0
  193.5280  173.9070  144.9220 N   0  0  2  0  0  0  0  0  0  0  0  0
  188.4290  175.5920  147.3840 O   0  0  0  0  0  0  0  0  0  0  0  0
  187.8410  177.9030  146.8550 O   0  0  0  0  0  0  0  0  0  0  0  0
  191.8990  176.1640  144.1620 C   0  0  0  0  0  1  0  0  0  0  0  0
  189.6850  174.7400  141.8980 C   0  0  0  0  0  2  0  0  0  0  0  0
  192.3560  174.1200  145.6600 N   0  0  0  0  0  2  0  0  0  0  0  0
  188.5060  175.1780  142.7560 C   0  0  2  0  0  3  0  0  0  0  0  0
  190.8180  171.2930  141.9280 F   0  0  0  0  0  0  0  0  0  0  0  0
  192.7910  172.1990  140.9310 C   0  0  0  0  0  2  0  0  0  0  0  0
  191.3900  172.4650  141.4610 C   0  0  1  0  0  3  0  0  0  0  0  0
  193.2690  172.7790  144.0950 C   0  0  1  0  0  3  0  0  0  0  0  0
  187.9760  176.1760  144.7960 C   0  0  2  0  0  3  0  0  0  0  0  0
  191.9990  175.5330  145.5500 C   0  0  2  0  0  0  0  0  0  0  0  0
  188.6120  176.7010  146.3820 S   0  0  0  0  0  0  0  0  0  0  0  0
  187.9280  176.8030  142.1810 S   0  0  0  0  0  0  0  0  0  0  0  0
  190.5210  173.1080  140.3740 C   0  0  2  0  0  3  0  0  0  0  0  0
  188.9190  175.2800  144.1480 N   0  0  0  0  0  2  0  0  0  0  0  0
  191.1000  176.0140  146.6730 C   0  0  1  0  0  3  0  0  0  0  0  0
  193.7190  171.7380  142.0440 C   0  0  0  0  0  2  0  0  0  0  0  0
  189.2950  173.6980  140.9460 N   0  0  0  0  0  0  0  0  0  0  0  0
  192.5750  176.4060  146.6370 C   0  0  0  0  0  2  0  0  0  0  0  0
  194.0870  172.8610  142.8870 N   0  0  0  0  0  2  0  0  0  0  0  0
  188.5680  174.3700  139.8690 C   0  0  0  0  0  1  0  0  0  0  0  0
  187.7330  177.3680  143.8930 C   0  0  1  0  0  3  0  0  0  0  0  0
  190.2850  177.1430  146.2470 N   0  0  0  0  0  2  0  0  0  0  0  0
  190.2000  172.0550  139.3020 C   0  0  0  0  0  2  0  0  0  0  0  0
  193.2000  173.9100  135.2410 C   0  0  0  0  0  1  0  0  0  0  0  0
  190.9660  172.2940  138.0290 C   0  0  0  0  0  0  0  0  0  0  0  0
  191.5170  171.3020  137.2040 C   0  0  0  0  0  0  0  0  0  0  0  0
  192.4230  173.1270  136.2390 C   0  0  0  0  0  0  0  0  0  0  0  0
  191.5440  173.7930  137.5050 S   0  0  0  0  0  0  0  0  0  0  0  0
  192.3090  171.7800  136.2030 N   0  0  0  0  0  0  0  0  0  0  0  0
  191.2260  169.8580  137.3240 C   0  0  0  0  0  0  0  0  0  0  0  0
  190.0560  169.4330  137.1330 O   0  0  0  0  0  0  0  0  0  0  0  0
  192.2740  168.9170  137.5700 N   0  0  0  0  0  2  0  0  0  0  0  0
  194.3300  169.6880  138.8280 C   0  0  0  0  0  2  0  0  0  0  0  0
  194.3580  168.1700  138.6920 C   0  0  0  0  0  2  0  0  0  0  0  0
  193.0450  168.9000  138.8090 C   0  0  0  0  0  0  0  0  0  0  0  0
  192.3080  168.7260  140.1240 C   0  0  0  0  0  1  0  0  0  0  0  0
  186.3300  177.9070  144.1090 C   0  0  0  0  0  2  0  0  0  0  0  0
  184.4610  178.2910  142.7760 C   0  0  0  0  0  1  0  0  0  0  0  0
  185.8710  178.5960  142.9160 N   0  0  0  0  0  2  0  0  0  0  0  0
  195.4750  172.6590  145.1150 C   0  0  0  0  0  2  0  0  0  0  0  0
  196.0460  171.2470  145.1130 C   0  0  1  0  0  3  0  0  0  0  0  0
  197.1090  171.1680  144.2160 O   0  0  0  0  0  1  0  0  0  0  0  0
  196.4790  170.7990  146.5140 C   0  0  0  0  0  2  0  0  0  0  0  0
  197.3430  168.5370  147.2310 O   0  0  0  0  0  1  0  0  0  0  0  0
  195.2840  168.5680  145.8860 C   0  0  0  0  0  2  0  0  0  0  0  0
  196.2800  169.3040  146.7530 C   0  0  0  0  0  0  0  0  0  0  0  0
  194.9390  168.9130  147.3320 C   0  0  0  0  0  2  0  0  0  0  0  0
  2  1  1  0  0  0  0
  2  7  1  1  0  0  0
  8  6  1  6  0  0  0
  8 18  1  0  0  0  0
 10 11  1  0  0  0  0
 10 20  1  0  0  0  0
 11  9  1  6  0  0  0
 12 23  1  6  0  0  0
 12  2  1  0  0  0  0
 12  1  1  0  0  0  0
 13 18  1  6  0  0  0
 13 15  1  0  0  0  0
 14  5  1  6  0  0  0
 14  7  1  0  0  0  0
 14 22  1  0  0  0  0
 14 19  1  0  0  0  0
 15  4  2  0  0  0  0
 15  3  2  0  0  0  0
 16  8  1  0  0  0  0
 16 25  1  0  0  0  0
 17 27  1  6  0  0  0
 17 21  1  0  0  0  0
 17 11  1  0  0  0  0
 19 22  1  1  0  0  0
 20 23  1  0  0  0  0
 21  6  1  0  0  0  0
 24 21  1  0  0  0  0
 25 41  1  6  0  0  0
 25 13  1  0  0  0  0
 26 15  1  0  0  0  0
 26 19  1  0  0  0  0
 28 31  1  0  0  0  0
 29 27  1  0  0  0  0
 30 34  1  0  0  0  0
 30 29  2  0  0  0  0
 31 32  1  0  0  0  0
 32 29  1  0  0  0  0
 33 31  2  0  0  0  0
 33 30  1  0  0  0  0
 34 36  1  0  0  0  0
 35 34  2  0  0  0  0
 36 39  1  0  0  0  0
 38 39  1  0  0  0  0
 38 37  1  0  0  0  0
 39 37  1  0  0  0  0
 39 40  1  0  0  0  0
 42 43  1  0  0  0  0
 43 41  1  0  0  0  0
 44  1  1  0  0  0  0
 45 46  1  6  0  0  0
 45 44  1  0  0  0  0
 45 47  1  0  0  0  0
 47 50  1  0  0  0  0
 49 50  1  0  0  0  0
 49 51  1  0  0  0  0
 50 48  1  0  0  0  0
 50 51  1  0  0  0  0
M  END
>  <MODEL>
3

>  <REMARK>
 VINA RESULT:      -6.4      1.504      2.543
  Name = 
  10 active torsions:
  status: ('A' for Active; 'I' for Inactive)
    1  A    between atoms: N_1  and  C_37
    2  A    between atoms: C_9  and  C_17
    3  A    between atoms: C_9  and  C_37
    4  A    between atoms: C_11  and  C_35
    5  A    between atoms: C_17  and  C_28
    6  A    between atoms: C_25  and  C_31
    7  A    between atoms: C_31  and  C_34
    8  A    between atoms: C_32  and  N_38
    9  A    between atoms: C_32  and  C_49
   10  A    between atoms: N_33  and  C_36
                            x       y       z     vdW  Elec       q    Type
                         _______ _______ _______ _____ _____    ______ ____

>  <TORSDO>
F 10

$$$$
=
 OpenBabel11042415243D

 51 57  0  0  1  0  0  0  0  0999 V2000
  194.2560  172.0520  144.2670 N   0  0  0  0  0  0  0  0  0  0  0  0
  193.7780  173.3440  143.8460 N   0  0  2  0  0  0  0  0  0  0  0  0
  189.1110  175.4960  146.7590 O   0  0  0  0  0  0  0  0  0  0  0  0
  188.5810  177.7960  146.1290 O   0  0  0  0  0  0  0  0  0  0  0  0
  192.1860  175.6360  143.1150 C   0  0  0  0  0  1  0  0  0  0  0  0
  189.6430  174.1930  141.2430 C   0  0  0  0  0  2  0  0  0  0  0  0
  192.7180  173.6770  144.7000 N   0  0  0  0  0  2  0  0  0  0  0  0
  188.6010  174.7590  142.1990 C   0  0  2  0  0  3  0  0  0  0  0  0
  190.5940  170.6960  141.4010 F   0  0  0  0  0  0  0  0  0  0  0  0
  192.4740  171.4110  140.1110 C   0  0  0  0  0  2  0  0  0  0  0  0
  191.1630  171.7960  140.7820 C   0  0  1  0  0  3  0  0  0  0  0  0
  193.3640  172.1790  143.1440 C   0  0  1  0  0  3  0  0  0  0  0  0
  188.3760  175.9260  144.2060 C   0  0  2  0  0  3  0  0  0  0  0  0
  192.4230  175.0980  144.5260 C   0  0  2  0  0  0  0  0  0  0  0  0
  189.2260  176.5200  145.6610 S   0  0  0  0  0  0  0  0  0  0  0  0
  188.0400  176.3720  141.5750 S   0  0  0  0  0  0  0  0  0  0  0  0
  190.2020  172.4130  139.7590 C   0  0  2  0  0  3  0  0  0  0  0  0
  189.1850  174.9320  143.5210 N   0  0  0  0  0  2  0  0  0  0  0  0
  191.6940  175.7090  145.7070 C   0  0  1  0  0  3  0  0  0  0  0  0
  193.5060  170.9730  141.1400 C   0  0  0  0  0  2  0  0  0  0  0  0
  189.0870  173.1130  140.4260 N   0  0  0  0  0  0  0  0  0  0  0  0
  193.1710  176.0080  145.4670 C   0  0  0  0  0  2  0  0  0  0  0  0
  194.0310  172.1280  141.8450 N   0  0  0  0  0  2  0  0  0  0  0  0
  188.2690  173.7510  139.3940 C   0  0  0  0  0  1  0  0  0  0  0  0
  188.0850  177.0650  143.2500 C   0  0  1  0  0  3  0  0  0  0  0  0
  190.8910  176.8520  145.2950 N   0  0  0  0  0  2  0  0  0  0  0  0
  189.6990  171.3090  138.8160 C   0  0  0  0  0  2  0  0  0  0  0  0
  192.9480  169.2160  135.0760 C   0  0  0  0  0  1  0  0  0  0  0  0
  190.6740  171.0300  137.7040 C   0  0  0  0  0  0  0  0  0  0  0  0
  190.9560  171.8830  136.6260 C   0  0  0  0  0  0  0  0  0  0  0  0
  192.0670  170.0450  135.9410 C   0  0  0  0  0  0  0  0  0  0  0  0
  191.3980  169.5350  137.3940 S   0  0  0  0  0  0  0  0  0  0  0  0
  191.7450  171.3290  135.6640 N   0  0  0  0  0  0  0  0  0  0  0  0
  190.5200  173.2920  136.5390 C   0  0  0  0  0  0  0  0  0  0  0  0
  189.4450  173.5840  135.9510 O   0  0  0  0  0  0  0  0  0  0  0  0
  191.2580  174.3300  137.1900 N   0  0  0  0  0  2  0  0  0  0  0  0
  192.8320  176.0850  136.2710 C   0  0  0  0  0  2  0  0  0  0  0  0
  192.7930  174.8920  135.3220 C   0  0  0  0  0  2  0  0  0  0  0  0
  192.6180  174.6910  136.8060 C   0  0  0  0  0  0  0  0  0  0  0  0
  193.7790  174.0280  137.5230 C   0  0  0  0  0  1  0  0  0  0  0  0
  186.7480  177.7000  143.5880 C   0  0  0  0  0  2  0  0  0  0  0  0
  185.2380  177.3770  145.3290 C   0  0  0  0  0  1  0  0  0  0  0  0
  185.8710  176.7190  144.2030 N   0  0  0  0  0  2  0  0  0  0  0  0
  195.6690  171.9990  143.9030 C   0  0  0  0  0  2  0  0  0  0  0  0
  196.3900  170.9660  144.7590 C   0  0  1  0  0  3  0  0  0  0  0  0
  197.6560  171.4350  145.1020 O   0  0  0  0  0  1  0  0  0  0  0  0
  195.5870  170.5950  146.0120 C   0  0  0  0  0  2  0  0  0  0  0  0
  195.8170  168.1820  145.3060 O   0  0  0  0  0  1  0  0  0  0  0  0
  194.8560  168.6060  147.5300 C   0  0  0  0  0  2  0  0  0  0  0  0
  195.6400  169.1050  146.3380 C   0  0  0  0  0  0  0  0  0  0  0  0
  196.3730  168.7440  147.6090 C   0  0  0  0  0  2  0  0  0  0  0  0
  2  1  1  0  0  0  0
  2  7  1  1  0  0  0
  8  6  1  6  0  0  0
  8 18  1  0  0  0  0
 10 11  1  0  0  0  0
 10 20  1  0  0  0  0
 11  9  1  6  0  0  0
 12 23  1  6  0  0  0
 12  2  1  0  0  0  0
 12  1  1  0  0  0  0
 13 18  1  6  0  0  0
 13 15  1  0  0  0  0
 14  5  1  6  0  0  0
 14  7  1  0  0  0  0
 14 22  1  0  0  0  0
 14 19  1  0  0  0  0
 15  4  2  0  0  0  0
 15  3  2  0  0  0  0
 16  8  1  0  0  0  0
 16 25  1  0  0  0  0
 17 27  1  6  0  0  0
 17 21  1  0  0  0  0
 17 11  1  0  0  0  0
 19 22  1  1  0  0  0
 20 23  1  0  0  0  0
 21  6  1  0  0  0  0
 24 21  1  0  0  0  0
 25 41  1  1  0  0  0
 25 13  1  0  0  0  0
 26 15  1  0  0  0  0
 26 19  1  0  0  0  0
 28 31  1  0  0  0  0
 29 27  1  0  0  0  0
 30 29  2  0  0  0  0
 31 32  1  0  0  0  0
 32 29  1  0  0  0  0
 33 31  2  0  0  0  0
 33 30  1  0  0  0  0
 34 30  1  0  0  0  0
 34 36  1  0  0  0  0
 35 34  2  0  0  0  0
 37 39  1  0  0  0  0
 38 37  1  0  0  0  0
 38 39  1  0  0  0  0
 39 36  1  0  0  0  0
 39 40  1  0  0  0  0
 41 43  1  0  0  0  0
 43 42  1  0  0  0  0
 44  1  1  0  0  0  0
 44 45  1  0  0  0  0
 45 46  1  1  0  0  0
 45 47  1  0  0  0  0
 47 50  1  0  0  0  0
 48 50  1  0  0  0  0
 49 51  1  0  0  0  0
 50 49  1  0  0  0  0
 50 51  1  0  0  0  0
M  END
>  <MODEL>
4

>  <REMARK>
 VINA RESULT:      -6.2      2.124      3.608
  Name = 
  10 active torsions:
  status: ('A' for Active; 'I' for Inactive)
    1  A    between atoms: N_1  and  C_37
    2  A    between atoms: C_9  and  C_17
    3  A    between atoms: C_9  and  C_37
    4  A    between atoms: C_11  and  C_35
    5  A    between atoms: C_17  and  C_28
    6  A    between atoms: C_25  and  C_31
    7  A    between atoms: C_31  and  C_34
    8  A    between atoms: C_32  and  N_38
    9  A    between atoms: C_32  and  C_49
   10  A    between atoms: N_33  and  C_36
                            x       y       z     vdW  Elec       q    Type
                         _______ _______ _______ _____ _____    ______ ____

>  <TORSDO>
F 10

$$$$
=
 OpenBabel11042415243D

 51 57  0  0  1  0  0  0  0  0999 V2000
  188.1400  176.3950  141.8890 N   0  0  0  0  0  0  0  0  0  0  0  0
  188.7140  175.7650  143.0510 N   0  0  2  0  0  0  0  0  0  0  0  0
  194.1350  177.5360  144.5900 O   0  0  0  0  0  0  0  0  0  0  0  0
  194.8700  176.5910  146.7190 O   0  0  0  0  0  0  0  0  0  0  0  0
  190.4570  174.5260  144.9880 C   0  0  0  0  0  1  0  0  0  0  0  0
  192.3320  172.3730  143.0120 C   0  0  0  0  0  2  0  0  0  0  0  0
  189.9600  176.3710  143.2610 N   0  0  0  0  0  2  0  0  0  0  0  0
  193.6160  173.0580  143.4610 C   0  0  2  0  0  3  0  0  0  0  0  0
  190.9150  173.0550  139.7430 F   0  0  0  0  0  0  0  0  0  0  0  0
  188.9460  172.0680  140.6710 C   0  0  0  0  0  2  0  0  0  0  0  0
  190.4070  172.4440  140.8770 C   0  0  1  0  0  3  0  0  0  0  0  0
  188.8000  175.1190  141.7870 C   0  0  1  0  0  3  0  0  0  0  0  0
  194.4070  174.8610  144.7120 C   0  0  2  0  0  3  0  0  0  0  0  0
  190.4250  176.0030  144.5960 C   0  0  2  0  0  0  0  0  0  0  0  0
  193.9610  176.3810  145.5400 S   0  0  0  0  0  0  0  0  0  0  0  0
  194.2780  172.1820  144.9100 S   0  0  0  0  0  0  0  0  0  0  0  0
  191.2280  171.2040  141.2510 C   0  0  2  0  0  3  0  0  0  0  0  0
  193.3370  174.4410  143.8220 N   0  0  0  0  0  2  0  0  0  0  0  0
  191.4580  176.9630  145.1580 C   0  0  1  0  0  3  0  0  0  0  0  0
  188.0840  173.3080  140.4850 C   0  0  0  0  0  2  0  0  0  0  0  0
  192.5460  171.5810  141.8000 N   0  0  0  0  0  0  0  0  0  0  0  0
  190.0240  176.9700  145.6830 C   0  0  0  0  0  2  0  0  0  0  0  0
  187.8900  173.9770  141.7580 N   0  0  0  0  0  2  0  0  0  0  0  0
  193.2300  170.3570  142.2180 C   0  0  0  0  0  1  0  0  0  0  0  0
  194.6710  173.7580  145.7160 C   0  0  1  0  0  3  0  0  0  0  0  0
  192.3260  176.2970  146.1180 N   0  0  0  0  0  2  0  0  0  0  0  0
  191.3620  170.3010  140.0160 C   0  0  0  0  0  2  0  0  0  0  0  0
  194.9750  172.3050  136.5720 C   0  0  0  0  0  1  0  0  0  0  0  0
  192.1150  170.9780  138.9010 C   0  0  0  0  0  0  0  0  0  0  0  0
  191.6210  171.2330  137.6140 C   0  0  0  0  0  0  0  0  0  0  0  0
  193.7820  171.7900  137.2950 C   0  0  0  0  0  0  0  0  0  0  0  0
  193.7730  171.3020  138.9020 S   0  0  0  0  0  0  0  0  0  0  0  0
  192.5540  171.7010  136.7370 N   0  0  0  0  0  0  0  0  0  0  0  0
  190.2040  171.0950  137.2200 C   0  0  0  0  0  0  0  0  0  0  0  0
  189.7050  169.9510  137.0530 O   0  0  0  0  0  0  0  0  0  0  0  0
  189.3580  172.2430  137.1080 N   0  0  0  0  0  2  0  0  0  0  0  0
  190.2890  174.5310  136.5600 C   0  0  0  0  0  2  0  0  0  0  0  0
  188.7770  174.5400  136.3690 C   0  0  0  0  0  2  0  0  0  0  0  0
  189.5700  173.2850  136.1090 C   0  0  0  0  0  0  0  0  0  0  0  0
  189.7090  172.8820  134.6530 C   0  0  0  0  0  1  0  0  0  0  0  0
  196.1280  173.7790  146.1400 C   0  0  0  0  0  2  0  0  0  0  0  0
  197.8670  173.2970  144.6700 C   0  0  0  0  0  1  0  0  0  0  0  0
  196.9480  174.3400  145.0820 N   0  0  0  0  0  2  0  0  0  0  0  0
  186.6910  176.3040  142.0480 C   0  0  0  0  0  2  0  0  0  0  0  0
  186.0870  177.7000  142.1290 C   0  0  1  0  0  3  0  0  0  0  0  0
  185.7930  178.1640  140.8490 O   0  0  0  0  0  1  0  0  0  0  0  0
  184.8420  177.7380  143.0230 C   0  0  0  0  0  2  0  0  0  0  0  0
  184.3700  177.9260  145.4970 O   0  0  0  0  0  1  0  0  0  0  0  0
  185.5780  179.7940  144.4470 C   0  0  0  0  0  2  0  0  0  0  0  0
  185.1060  178.3600  144.3920 C   0  0  0  0  0  0  0  0  0  0  0  0
  186.5560  178.6510  144.7040 C   0  0  0  0  0  2  0  0  0  0  0  0
  1 44  1  0  0  0  0
  1  2  1  0  0  0  0
  2  7  1  6  0  0  0
  3 15  2  0  0  0  0
  7 14  1  0  0  0  0
  8  6  1  1  0  0  0
  8 18  1  0  0  0  0
  8 16  1  0  0  0  0
 10 11  1  0  0  0  0
 11  9  1  6  0  0  0
 11 17  1  0  0  0  0
 12 23  1  1  0  0  0
 12  1  1  0  0  0  0
 12  2  1  0  0  0  0
 13 18  1  6  0  0  0
 13 15  1  0  0  0  0
 13 25  1  0  0  0  0
 14  5  1  1  0  0  0
 14 19  1  0  0  0  0
 14 22  1  0  0  0  0
 15 26  1  0  0  0  0
 15  4  2  0  0  0  0
 16 25  1  0  0  0  0
 17 27  1  6  0  0  0
 17 21  1  0  0  0  0
 19 22  1  1  0  0  0
 19 26  1  0  0  0  0
 20 10  1  0  0  0  0
 20 23  1  0  0  0  0
 21 24  1  0  0  0  0
 21  6  1  0  0  0  0
 25 41  1  6  0  0  0
 28 31  1  0  0  0  0
 29 32  1  0  0  0  0
 29 27  1  0  0  0  0
 30 29  2  0  0  0  0
 31 32  1  0  0  0  0
 33 31  2  0  0  0  0
 33 30  1  0  0  0  0
 34 30  1  0  0  0  0
 35 34  2  0  0  0  0
 36 34  1  0  0  0  0
 38 37  1  0  0  0  0
 39 38  1  0  0  0  0
 39 37  1  0  0  0  0
 39 36  1  0  0  0  0
 40 39  1  0  0  0  0
 42 43  1  0  0  0  0
 43 41  1  0  0  0  0
 44 45  1  0  0  0  0
 45 46  1  6  0  0  0
 45 47  1  0  0  0  0
 47 50  1  0  0  0  0
 49 51  1  0  0  0  0
 50 49  1  0  0  0  0
 50 51  1  0  0  0  0
 50 48  1  0  0  0  0
M  END
>  <MODEL>
5

>  <REMARK>
 VINA RESULT:      -6.0      2.476      6.961
  Name = 
  10 active torsions:
  status: ('A' for Active; 'I' for Inactive)
    1  A    between atoms: N_1  and  C_37
    2  A    between atoms: C_9  and  C_17
    3  A    between atoms: C_9  and  C_37
    4  A    between atoms: C_11  and  C_35
    5  A    between atoms: C_17  and  C_28
    6  A    between atoms: C_25  and  C_31
    7  A    between atoms: C_31  and  C_34
    8  A    between atoms: C_32  and  N_38
    9  A    between atoms: C_32  and  C_49
   10  A    between atoms: N_33  and  C_36
                            x       y       z     vdW  Elec       q    Type
                         _______ _______ _______ _____ _____    ______ ____

>  <TORSDO>
F 10

$$$$
=
 OpenBabel11042415243D

 51 57  0  0  1  0  0  0  0  0999 V2000
  189.7100  172.3610  138.6590 N   0  0  0  0  0  0  0  0  0  0  0  0
  190.9180  173.0780  138.9750 N   0  0  2  0  0  0  0  0  0  0  0  0
  195.6230  169.7990  140.3920 O   0  0  0  0  0  0  0  0  0  0  0  0
  197.6610  171.1240  140.6350 O   0  0  0  0  0  0  0  0  0  0  0  0
  193.4040  174.0120  140.1040 C   0  0  0  0  0  1  0  0  0  0  0  0
  192.8370  173.6600  143.5110 C   0  0  0  0  0  2  0  0  0  0  0  0
  191.9050  172.1130  139.2210 N   0  0  0  0  0  2  0  0  0  0  0  0
  194.0400  172.7330  143.6290 C   0  0  2  0  0  3  0  0  0  0  0  0
  189.4650  172.3240  143.4970 F   0  0  0  0  0  0  0  0  0  0  0  0
  188.8890  174.4730  142.6250 C   0  0  0  0  0  2  0  0  0  0  0  0
  189.9840  173.5630  143.1600 C   0  0  1  0  0  3  0  0  0  0  0  0
  189.9290  172.8930  139.9800 C   0  0  1  0  0  3  0  0  0  0  0  0
  195.6590  171.6380  142.3570 C   0  0  2  0  0  3  0  0  0  0  0  0
  193.2040  172.7810  139.2200 C   0  0  2  0  0  0  0  0  0  0  0  0
  196.1590  171.1710  140.7060 S   0  0  0  0  0  0  0  0  0  0  0  0
  195.5070  173.7200  144.0530 S   0  0  0  0  0  0  0  0  0  0  0  0
  190.6790  174.2150  144.3610 C   0  0  2  0  0  3  0  0  0  0  0  0
  194.2670  172.0550  142.3610 N   0  0  0  0  0  2  0  0  0  0  0  0
  194.3630  171.8380  138.9520 C   0  0  1  0  0  3  0  0  0  0  0  0
  188.3150  173.9320  141.3230 C   0  0  0  0  0  2  0  0  0  0  0  0
  191.9550  173.5400  144.6730 N   0  0  0  0  0  0  0  0  0  0  0  0
  193.8880  172.8110  137.8750 C   0  0  0  0  0  2  0  0  0  0  0  0
  189.2470  174.1590  140.2340 N   0  0  0  0  0  2  0  0  0  0  0  0
  192.6010  174.2710  145.7640 C   0  0  0  0  0  1  0  0  0  0  0  0
  196.5140  172.7760  142.8760 C   0  0  1  0  0  3  0  0  0  0  0  0
  195.5940  172.3360  139.5500 N   0  0  0  0  0  2  0  0  0  0  0  0
  189.7210  174.2030  145.5610 C   0  0  0  0  0  2  0  0  0  0  0  0
  191.2340  177.9220  149.1410 C   0  0  0  0  0  1  0  0  0  0  0  0
  189.9010  175.4130  146.4390 C   0  0  0  0  0  0  0  0  0  0  0  0
  189.5370  176.7270  146.1110 C   0  0  0  0  0  0  0  0  0  0  0  0
  190.6810  177.1270  148.0120 C   0  0  0  0  0  0  0  0  0  0  0  0
  190.8230  175.4600  147.8550 S   0  0  0  0  0  0  0  0  0  0  0  0
  189.9610  177.6660  147.0030 N   0  0  0  0  0  0  0  0  0  0  0  0
  188.6990  177.0980  144.9520 C   0  0  0  0  0  0  0  0  0  0  0  0
  189.2370  177.5360  143.9010 O   0  0  0  0  0  0  0  0  0  0  0  0
  187.2850  176.8840  144.9700 N   0  0  0  0  0  2  0  0  0  0  0  0
  186.3150  177.0760  147.2990 C   0  0  0  0  0  2  0  0  0  0  0  0
  185.1970  176.7760  146.3070 C   0  0  0  0  0  2  0  0  0  0  0  0
  186.3920  177.5900  145.8840 C   0  0  0  0  0  0  0  0  0  0  0  0
  186.1380  179.0680  145.6580 C   0  0  0  0  0  1  0  0  0  0  0  0
  197.7480  172.2260  143.5680 C   0  0  0  0  0  2  0  0  0  0  0  0
  197.5640  170.6920  145.3080 C   0  0  0  0  0  1  0  0  0  0  0  0
  197.5080  172.1070  144.9950 N   0  0  0  0  0  2  0  0  0  0  0  0
  188.9300  173.2370  137.7880 C   0  0  0  0  0  2  0  0  0  0  0  0
  189.5880  173.3270  136.4170 C   0  0  1  0  0  3  0  0  0  0  0  0
  189.3060  172.1800  135.6790 O   0  0  0  0  0  1  0  0  0  0  0  0
  189.1600  174.5870  135.6540 C   0  0  0  0  0  2  0  0  0  0  0  0
  190.1110  176.7970  134.8890 O   0  0  0  0  0  1  0  0  0  0  0  0
  191.5140  174.8040  134.5550 C   0  0  0  0  0  2  0  0  0  0  0  0
  190.3370  175.4640  135.2360 C   0  0  0  0  0  0  0  0  0  0  0  0
  191.6160  175.2460  136.0120 C   0  0  0  0  0  2  0  0  0  0  0  0
  1  2  1  0  0  0  0
  1 12  1  0  0  0  0
  2  7  1  1  0  0  0
  2 12  1  0  0  0  0
  3 15  2  0  0  0  0
  4 15  2  0  0  0  0
  6 21  1  0  0  0  0
  8  6  1  6  0  0  0
  8 16  1  0  0  0  0
 10 11  1  0  0  0  0
 11  9  1  1  0  0  0
 11 17  1  0  0  0  0
 12 23  1  6  0  0  0
 13 18  1  6  0  0  0
 13 25  1  0  0  0  0
 14  7  1  0  0  0  0
 14  5  1  1  0  0  0
 15 13  1  0  0  0  0
 17 21  1  0  0  0  0
 17 27  1  1  0  0  0
 18  8  1  0  0  0  0
 19 22  1  6  0  0  0
 19 14  1  0  0  0  0
 19 26  1  0  0  0  0
 20 10  1  0  0  0  0
 21 24  1  0  0  0  0
 22 14  1  0  0  0  0
 23 20  1  0  0  0  0
 25 41  1  1  0  0  0
 25 16  1  0  0  0  0
 26 15  1  0  0  0  0
 27 29  1  0  0  0  0
 29 32  1  0  0  0  0
 30 29  2  0  0  0  0
 30 33  1  0  0  0  0
 31 28  1  0  0  0  0
 32 31  1  0  0  0  0
 33 31  2  0  0  0  0
 34 36  1  0  0  0  0
 34 30  1  0  0  0  0
 35 34  2  0  0  0  0
 36 39  1  0  0  0  0
 38 37  1  0  0  0  0
 39 38  1  0  0  0  0
 39 37  1  0  0  0  0
 40 39  1  0  0  0  0
 41 43  1  0  0  0  0
 43 42  1  0  0  0  0
 44  1  1  0  0  0  0
 45 46  1  6  0  0  0
 45 44  1  0  0  0  0
 47 45  1  0  0  0  0
 48 50  1  0  0  0  0
 49 50  1  0  0  0  0
 49 51  1  0  0  0  0
 50 47  1  0  0  0  0
 50 51  1  0  0  0  0
M  END
>  <MODEL>
6

>  <REMARK>
 VINA RESULT:      -5.9      3.087      9.902
  Name = 
  10 active torsions:
  status: ('A' for Active; 'I' for Inactive)
    1  A    between atoms: N_1  and  C_37
    2  A    between atoms: C_9  and  C_17
    3  A    between atoms: C_9  and  C_37
    4  A    between atoms: C_11  and  C_35
    5  A    between atoms: C_17  and  C_28
    6  A    between atoms: C_25  and  C_31
    7  A    between atoms: C_31  and  C_34
    8  A    between atoms: C_32  and  N_38
    9  A    between atoms: C_32  and  C_49
   10  A    between atoms: N_33  and  C_36
                            x       y       z     vdW  Elec       q    Type
                         _______ _______ _______ _____ _____    ______ ____

>  <TORSDO>
F 10

$$$$
=
 OpenBabel11042415243D

 51 57  0  0  1  0  0  0  0  0999 V2000
  190.3880  170.2030  138.8530 N   0  0  0  0  0  0  0  0  0  0  0  0
  191.3530  171.2710  138.8110 N   0  0  2  0  0  0  0  0  0  0  0  0
  196.0970  170.6630  142.2780 O   0  0  0  0  0  0  0  0  0  0  0  0
  197.7700  172.4030  141.9050 O   0  0  0  0  0  0  0  0  0  0  0  0
  193.3200  173.2900  139.4250 C   0  0  0  0  0  1  0  0  0  0  0  0
  192.0590  174.6750  142.3480 C   0  0  0  0  0  2  0  0  0  0  0  0
  192.4060  170.8940  139.6550 N   0  0  0  0  0  2  0  0  0  0  0  0
  193.3420  174.3180  143.0870 C   0  0  2  0  0  3  0  0  0  0  0  0
  189.0550  172.6890  142.7910 F   0  0  0  0  0  0  0  0  0  0  0  0
  188.3370  173.7910  140.7960 C   0  0  0  0  0  2  0  0  0  0  0  0
  189.4200  173.6420  141.8550 C   0  0  1  0  0  3  0  0  0  0  0  0
  190.2070  171.3930  139.6440 C   0  0  1  0  0  3  0  0  0  0  0  0
  195.3710  173.1960  142.8280 C   0  0  2  0  0  3  0  0  0  0  0  0
  193.5390  171.7780  139.3920 C   0  0  2  0  0  0  0  0  0  0  0  0
  196.3060  172.0750  141.7970 S   0  0  0  0  0  0  0  0  0  0  0  0
  194.4850  175.7290  143.0020 S   0  0  0  0  0  0  0  0  0  0  0  0
  189.7020  174.9920  142.5230 C   0  0  2  0  0  3  0  0  0  0  0  0
  193.9640  173.1580  142.4640 N   0  0  0  0  0  2  0  0  0  0  0  0
  194.8700  171.1910  139.8210 C   0  0  1  0  0  3  0  0  0  0  0  0
  188.1760  172.5090  139.9940 C   0  0  0  0  0  2  0  0  0  0  0  0
  190.9680  174.9610  143.2820 N   0  0  0  0  0  0  0  0  0  0  0  0
  194.4950  171.2680  138.3430 C   0  0  0  0  0  2  0  0  0  0  0  0
  189.2790  172.3600  139.0620 N   0  0  0  0  0  2  0  0  0  0  0  0
  191.2140  176.3030  143.8110 C   0  0  0  0  0  1  0  0  0  0  0  0
  195.8790  174.6150  142.6780 C   0  0  1  0  0  3  0  0  0  0  0  0
  195.8300  172.2400  140.1360 N   0  0  0  0  0  2  0  0  0  0  0  0
  188.5110  175.3660  143.4190 C   0  0  0  0  0  2  0  0  0  0  0  0
  185.2970  178.5580  140.5170 C   0  0  0  0  0  1  0  0  0  0  0  0
  187.6880  176.4790  142.8270 C   0  0  0  0  0  0  0  0  0  0  0  0
  187.1360  177.5570  143.5340 C   0  0  0  0  0  0  0  0  0  0  0  0
  186.1360  177.8770  141.5400 C   0  0  0  0  0  0  0  0  0  0  0  0
  187.0440  176.4910  141.2650 S   0  0  0  0  0  0  0  0  0  0  0  0
  186.2910  178.3360  142.8020 N   0  0  0  0  0  0  0  0  0  0  0  0
  187.4750  177.9020  144.9310 C   0  0  0  0  0  0  0  0  0  0  0  0
  188.5890  177.5630  145.4100 O   0  0  0  0  0  0  0  0  0  0  0  0
  186.5910  178.6970  145.7250 N   0  0  0  0  0  2  0  0  0  0  0  0
  185.0820  177.8450  147.5690 C   0  0  0  0  0  2  0  0  0  0  0  0
  185.2130  176.7790  146.4880 C   0  0  0  0  0  2  0  0  0  0  0  0
  185.2640  178.2410  146.1250 C   0  0  0  0  0  0  0  0  0  0  0  0
  184.0540  178.7800  145.3860 C   0  0  0  0  0  1  0  0  0  0  0  0
  196.9970  174.8760  143.6700 C   0  0  0  0  0  2  0  0  0  0  0  0
  197.0450  173.8020  145.7340 C   0  0  0  0  0  1  0  0  0  0  0  0
  196.4650  174.9220  145.0200 N   0  0  0  0  0  2  0  0  0  0  0  0
  189.6910  170.2300  137.5690 C   0  0  0  0  0  2  0  0  0  0  0  0
  190.6770  170.5240  136.4470 C   0  0  1  0  0  3  0  0  0  0  0  0
  191.1890  169.3320  135.9420 O   0  0  0  0  0  1  0  0  0  0  0  0
  190.0450  171.3640  135.3300 C   0  0  0  0  0  2  0  0  0  0  0  0
  189.6650  173.8600  135.3640 O   0  0  0  0  0  1  0  0  0  0  0  0
  191.8370  173.0750  134.5190 C   0  0  0  0  0  2  0  0  0  0  0  0
  190.5680  172.7980  135.2900 C   0  0  0  0  0  0  0  0  0  0  0  0
  191.8550  173.0410  136.0440 C   0  0  0  0  0  2  0  0  0  0  0  0
  1 12  1  0  0  0  0
  2  1  1  0  0  0  0
  2 12  1  0  0  0  0
  2  7  1  1  0  0  0
  6 21  1  0  0  0  0
  8  6  1  6  0  0  0
 10 11  1  0  0  0  0
 11 17  1  0  0  0  0
 11  9  1  1  0  0  0
 12 23  1  6  0  0  0
 13 18  1  6  0  0  0
 14  5  1  1  0  0  0
 14  7  1  0  0  0  0
 14 19  1  0  0  0  0
 15  4  2  0  0  0  0
 15  3  2  0  0  0  0
 15 13  1  0  0  0  0
 16  8  1  0  0  0  0
 17 21  1  0  0  0  0
 17 27  1  1  0  0  0
 18  8  1  0  0  0  0
 19 22  1  6  0  0  0
 19 26  1  0  0  0  0
 20 10  1  0  0  0  0
 21 24  1  0  0  0  0
 22 14  1  0  0  0  0
 23 20  1  0  0  0  0
 25 13  1  0  0  0  0
 25 16  1  0  0  0  0
 25 41  1  1  0  0  0
 26 15  1  0  0  0  0
 28 31  1  0  0  0  0
 29 27  1  0  0  0  0
 29 30  2  0  0  0  0
 30 34  1  0  0  0  0
 31 33  2  0  0  0  0
 32 31  1  0  0  0  0
 32 29  1  0  0  0  0
 33 30  1  0  0  0  0
 34 35  2  0  0  0  0
 34 36  1  0  0  0  0
 36 39  1  0  0  0  0
 38 37  1  0  0  0  0
 39 38  1  0  0  0  0
 39 37  1  0  0  0  0
 40 39  1  0  0  0  0
 41 43  1  0  0  0  0
 43 42  1  0  0  0  0
 44  1  1  0  0  0  0
 45 46  1  6  0  0  0
 45 44  1  0  0  0  0
 47 45  1  0  0  0  0
 49 50  1  0  0  0  0
 49 51  1  0  0  0  0
 50 47  1  0  0  0  0
 50 48  1  0  0  0  0
 50 51  1  0  0  0  0
M  END
>  <MODEL>
7

>  <REMARK>
 VINA RESULT:      -5.9      2.579      9.403
  Name = 
  10 active torsions:
  status: ('A' for Active; 'I' for Inactive)
    1  A    between atoms: N_1  and  C_37
    2  A    between atoms: C_9  and  C_17
    3  A    between atoms: C_9  and  C_37
    4  A    between atoms: C_11  and  C_35
    5  A    between atoms: C_17  and  C_28
    6  A    between atoms: C_25  and  C_31
    7  A    between atoms: C_31  and  C_34
    8  A    between atoms: C_32  and  N_38
    9  A    between atoms: C_32  and  C_49
   10  A    between atoms: N_33  and  C_36
                            x       y       z     vdW  Elec       q    Type
                         _______ _______ _______ _____ _____    ______ ____

>  <TORSDO>
F 10

$$$$
=
 OpenBabel11042415243D

 51 57  0  0  1  0  0  0  0  0999 V2000
  188.1560  174.7140  142.4420 N   0  0  0  0  0  0  0  0  0  0  0  0
  188.7360  174.5880  141.1300 N   0  0  2  0  0  0  0  0  0  0  0  0
  190.6010  169.1980  139.5890 O   0  0  0  0  0  0  0  0  0  0  0  0
  191.3070  169.0730  137.2530 O   0  0  0  0  0  0  0  0  0  0  0  0
  190.3490  173.9020  138.8380 C   0  0  0  0  0  1  0  0  0  0  0  0
  193.5640  174.0270  140.1430 C   0  0  0  0  0  2  0  0  0  0  0  0
  189.0500  173.2330  140.9580 N   0  0  0  0  0  2  0  0  0  0  0  0
  193.7920  172.5720  139.7540 C   0  0  2  0  0  3  0  0  0  0  0  0
  192.8580  174.9330  143.5840 F   0  0  0  0  0  0  0  0  0  0  0  0
  192.1110  176.9900  142.6220 C   0  0  0  0  0  2  0  0  0  0  0  0
  192.7330  175.6210  142.3880 C   0  0  1  0  0  3  0  0  0  0  0  0
  189.5390  175.0420  142.2120 C   0  0  1  0  0  3  0  0  0  0  0  0
  192.7110  170.7050  138.8670 C   0  0  2  0  0  3  0  0  0  0  0  0
  189.3310  173.0060  139.5430 C   0  0  2  0  0  0  0  0  0  0  0  0
  191.1300  169.9980  138.4270 S   0  0  0  0  0  0  0  0  0  0  0  0
  194.5480  172.5140  138.1010 S   0  0  0  0  0  0  0  0  0  0  0  0
  194.0900  175.7640  141.6890 C   0  0  2  0  0  3  0  0  0  0  0  0
  192.5210  171.8630  139.7260 N   0  0  0  0  0  2  0  0  0  0  0  0
  189.1720  171.5570  139.1230 C   0  0  1  0  0  3  0  0  0  0  0  0
  190.6870  176.8620  143.1410 C   0  0  0  0  0  2  0  0  0  0  0  0
  194.5450  174.4750  141.1330 N   0  0  0  0  0  0  0  0  0  0  0  0
  188.1290  172.5990  138.7270 C   0  0  0  0  0  2  0  0  0  0  0  0
  189.7950  176.4730  142.0640 N   0  0  0  0  0  2  0  0  0  0  0  0
  195.7930  174.7090  140.4060 C   0  0  0  0  0  1  0  0  0  0  0  0
  193.4720  171.1330  137.6290 C   0  0  1  0  0  3  0  0  0  0  0  0
  190.0120  171.2470  137.9750 N   0  0  0  0  0  2  0  0  0  0  0  0
  195.1060  176.3460  142.6840 C   0  0  0  0  0  2  0  0  0  0  0  0
  196.7410  172.5490  146.1250 C   0  0  0  0  0  1  0  0  0  0  0  0
  195.3520  175.4200  143.8450 C   0  0  0  0  0  0  0  0  0  0  0  0
  195.1650  175.7340  145.1990 C   0  0  0  0  0  0  0  0  0  0  0  0
  196.1930  173.7410  145.4240 C   0  0  0  0  0  0  0  0  0  0  0  0
  196.1570  173.9370  143.7560 S   0  0  0  0  0  0  0  0  0  0  0  0
  195.6200  174.7850  146.0640 N   0  0  0  0  0  0  0  0  0  0  0  0
  194.4690  176.9420  145.6890 C   0  0  0  0  0  0  0  0  0  0  0  0
  195.1290  177.9730  145.9850 O   0  0  0  0  0  0  0  0  0  0  0  0
  193.0410  176.9920  145.7510 N   0  0  0  0  0  2  0  0  0  0  0  0
  190.8810  176.6220  147.0150 C   0  0  0  0  0  2  0  0  0  0  0  0
  192.0340  176.7380  148.0050 C   0  0  0  0  0  2  0  0  0  0  0  0
  192.2590  176.1400  146.6400 C   0  0  0  0  0  0  0  0  0  0  0  0
  192.4940  174.6410  146.6070 C   0  0  0  0  0  1  0  0  0  0  0  0
  194.3050  169.9770  137.1050 C   0  0  0  0  0  2  0  0  0  0  0  0
  196.2190  169.0200  138.0210 C   0  0  0  0  0  1  0  0  0  0  0  0
  194.7890  169.1700  138.2110 N   0  0  0  0  0  2  0  0  0  0  0  0
  187.2530  175.8610  142.3820 C   0  0  0  0  0  2  0  0  0  0  0  0
  186.6380  176.1120  143.7520 C   0  0  1  0  0  3  0  0  0  0  0  0
  187.6420  176.3680  144.6830 O   0  0  0  0  0  1  0  0  0  0  0  0
  185.6150  177.2530  143.7240 C   0  0  0  0  0  2  0  0  0  0  0  0
  185.0150  176.7070  146.1150 O   0  0  0  0  0  1  0  0  0  0  0  0
  184.2140  178.8570  145.2280 C   0  0  0  0  0  2  0  0  0  0  0  0
  185.1450  177.6720  145.1150 C   0  0  0  0  0  0  0  0  0  0  0  0
  185.6840  178.9940  145.6110 C   0  0  0  0  0  2  0  0  0  0  0  0
  2  7  1  1  0  0  0
  2 12  1  0  0  0  0
  2  1  1  0  0  0  0
  4 15  2  0  0  0  0
  6 21  1  0  0  0  0
  8  6  1  6  0  0  0
 10 20  1  0  0  0  0
 11 10  1  0  0  0  0
 11  9  1  1  0  0  0
 12 23  1  6  0  0  0
 12  1  1  0  0  0  0
 13 18  1  1  0  0  0
 14  5  1  6  0  0  0
 14  7  1  0  0  0  0
 15 13  1  0  0  0  0
 15  3  2  0  0  0  0
 16  8  1  0  0  0  0
 17 11  1  0  0  0  0
 17 27  1  1  0  0  0
 18  8  1  0  0  0  0
 19 22  1  6  0  0  0
 19 14  1  0  0  0  0
 21 17  1  0  0  0  0
 22 14  1  0  0  0  0
 23 20  1  0  0  0  0
 24 21  1  0  0  0  0
 25 41  1  1  0  0  0
 25 16  1  0  0  0  0
 25 13  1  0  0  0  0
 26 15  1  0  0  0  0
 26 19  1  0  0  0  0
 27 29  1  0  0  0  0
 29 30  2  0  0  0  0
 30 34  1  0  0  0  0
 30 33  1  0  0  0  0
 31 33  2  0  0  0  0
 31 28  1  0  0  0  0
 32 29  1  0  0  0  0
 32 31  1  0  0  0  0
 34 36  1  0  0  0  0
 34 35  2  0  0  0  0
 36 39  1  0  0  0  0
 37 38  1  0  0  0  0
 39 37  1  0  0  0  0
 39 38  1  0  0  0  0
 40 39  1  0  0  0  0
 41 43  1  0  0  0  0
 42 43  1  0  0  0  0
 44  1  1  0  0  0  0
 44 45  1  0  0  0  0
 45 46  1  1  0  0  0
 47 45  1  0  0  0  0
 47 50  1  0  0  0  0
 49 51  1  0  0  0  0
 50 49  1  0  0  0  0
 50 51  1  0  0  0  0
 50 48  1  0  0  0  0
M  END
>  <MODEL>
8

>  <REMARK>
 VINA RESULT:      -5.7      2.841      9.565
  Name = 
  10 active torsions:
  status: ('A' for Active; 'I' for Inactive)
    1  A    between atoms: N_1  and  C_37
    2  A    between atoms: C_9  and  C_17
    3  A    between atoms: C_9  and  C_37
    4  A    between atoms: C_11  and  C_35
    5  A    between atoms: C_17  and  C_28
    6  A    between atoms: C_25  and  C_31
    7  A    between atoms: C_31  and  C_34
    8  A    between atoms: C_32  and  N_38
    9  A    between atoms: C_32  and  C_49
   10  A    between atoms: N_33  and  C_36
                            x       y       z     vdW  Elec       q    Type
                         _______ _______ _______ _____ _____    ______ ____

>  <TORSDO>
F 10

$$$$
=
 OpenBabel11042415243D

 51 57  0  0  1  0  0  0  0  0999 V2000
  195.9580  172.6690  144.2070 N   0  0  0  0  0  0  0  0  0  0  0  0
  194.8540  171.8650  143.7500 N   0  0  2  0  0  0  0  0  0  0  0  0
  194.2710  171.2920  137.8990 O   0  0  0  0  0  0  0  0  0  0  0  0
  192.5340  169.6920  137.2740 O   0  0  0  0  0  0  0  0  0  0  0  0
  192.5970  170.7580  142.3340 C   0  0  0  0  0  1  0  0  0  0  0  0
  190.6870  173.5830  141.6810 C   0  0  0  0  0  2  0  0  0  0  0  0
  194.9430  171.8210  142.3520 N   0  0  0  0  0  2  0  0  0  0  0  0
  190.7610  173.3040  140.1860 C   0  0  2  0  0  3  0  0  0  0  0  0
  192.7530  176.1550  143.1900 F   0  0  0  0  0  0  0  0  0  0  0  0
  192.1970  175.0470  145.2330 C   0  0  0  0  0  2  0  0  0  0  0  0
  192.0130  175.1130  143.7240 C   0  0  1  0  0  3  0  0  0  0  0  0
  194.6380  173.2300  144.0860 C   0  0  1  0  0  3  0  0  0  0  0  0
  191.7460  171.8850  138.6190 C   0  0  2  0  0  3  0  0  0  0  0  0
  194.0540  170.7650  141.8730 C   0  0  2  0  0  0  0  0  0  0  0  0
  192.9950  170.6340  138.3530 S   0  0  0  0  0  0  0  0  0  0  0  0
  189.3190  172.3100  139.6970 S   0  0  0  0  0  0  0  0  0  0  0  0
  190.5270  175.2550  143.3730 C   0  0  2  0  0  3  0  0  0  0  0  0
  191.9790  172.5660  139.8810 N   0  0  0  0  0  2  0  0  0  0  0  0
  194.4190  170.2540  140.4910 C   0  0  1  0  0  3  0  0  0  0  0  0
  193.6370  174.7180  145.5940 C   0  0  0  0  0  2  0  0  0  0  0  0
  190.2830  174.9650  141.9470 N   0  0  0  0  0  0  0  0  0  0  0  0
  194.7120  169.4140  141.7330 C   0  0  0  0  0  2  0  0  0  0  0  0
  193.9060  173.3130  145.3480 N   0  0  0  0  0  2  0  0  0  0  0  0
  188.8400  175.0300  141.7110 C   0  0  0  0  0  1  0  0  0  0  0  0
  190.3630  171.2680  138.6420 C   0  0  1  0  0  3  0  0  0  0  0  0
  193.2520  169.7180  139.8050 N   0  0  0  0  0  2  0  0  0  0  0  0
  190.0560  176.6660  143.7560 C   0  0  0  0  0  2  0  0  0  0  0  0
  186.6460  176.3480  147.9040 C   0  0  0  0  0  1  0  0  0  0  0  0
  188.8780  176.6330  144.6940 C   0  0  0  0  0  0  0  0  0  0  0  0
  187.6600  177.3020  144.5060 C   0  0  0  0  0  0  0  0  0  0  0  0
  187.3620  176.5830  146.6220 C   0  0  0  0  0  0  0  0  0  0  0  0
  188.9020  176.0160  146.2670 S   0  0  0  0  0  0  0  0  0  0  0  0
  186.8200  177.2510  145.5780 N   0  0  0  0  0  0  0  0  0  0  0  0
  187.2490  177.9520  143.2450 C   0  0  0  0  0  0  0  0  0  0  0  0
  188.1150  178.2570  142.3820 O   0  0  0  0  0  0  0  0  0  0  0  0
  185.8670  178.1640  142.9450 N   0  0  0  0  0  2  0  0  0  0  0  0
  184.0030  178.4240  144.6360 C   0  0  0  0  0  2  0  0  0  0  0  0
  183.5710  179.0340  143.3080 C   0  0  0  0  0  2  0  0  0  0  0  0
  185.0200  179.0620  143.7230 C   0  0  0  0  0  0  0  0  0  0  0  0
  185.5670  180.4200  144.1200 C   0  0  0  0  0  1  0  0  0  0  0  0
  189.7940  171.2130  137.2360 C   0  0  0  0  0  2  0  0  0  0  0  0
  189.9650  172.0580  135.0740 C   0  0  0  0  0  1  0  0  0  0  0  0
  190.2650  172.3490  136.4620 N   0  0  0  0  0  2  0  0  0  0  0  0
  196.2810  172.1940  145.5500 C   0  0  0  0  0  2  0  0  0  0  0  0
  196.6060  170.7060  145.5130 C   0  0  1  0  0  3  0  0  0  0  0  0
  197.9410  170.5210  145.1630 O   0  0  0  0  0  1  0  0  0  0  0  0
  196.2890  170.0130  146.8440 C   0  0  0  0  0  2  0  0  0  0  0  0
  194.7000  168.3480  147.8820 O   0  0  0  0  0  1  0  0  0  0  0  0
  195.0780  168.1660  145.4580 C   0  0  0  0  0  2  0  0  0  0  0  0
  195.1730  168.9780  146.7290 C   0  0  0  0  0  0  0  0  0  0  0  0
  194.0910  169.2990  145.7240 C   0  0  0  0  0  2  0  0  0  0  0  0
  1 44  1  0  0  0  0
  2  7  1  6  0  0  0
  2 12  1  0  0  0  0
  2  1  1  0  0  0  0
  3 15  2  0  0  0  0
  4 15  2  0  0  0  0
  6 21  1  0  0  0  0
  8  6  1  1  0  0  0
 10 20  1  0  0  0  0
 11  9  1  1  0  0  0
 11 10  1  0  0  0  0
 12  1  1  0  0  0  0
 12 23  1  1  0  0  0
 13 25  1  0  0  0  0
 13 18  1  1  0  0  0
 14  5  1  1  0  0  0
 14  7  1  0  0  0  0
 15 13  1  0  0  0  0
 15 26  1  0  0  0  0
 16  8  1  0  0  0  0
 17 11  1  0  0  0  0
 17 27  1  6  0  0  0
 18  8  1  0  0  0  0
 19 22  1  1  0  0  0
 19 14  1  0  0  0  0
 21 17  1  0  0  0  0
 22 14  1  0  0  0  0
 23 20  1  0  0  0  0
 24 21  1  0  0  0  0
 25 41  1  6  0  0  0
 25 16  1  0  0  0  0
 26 19  1  0  0  0  0
 27 29  1  0  0  0  0
 29 32  1  0  0  0  0
 30 29  2  0  0  0  0
 30 33  1  0  0  0  0
 31 28  1  0  0  0  0
 32 31  1  0  0  0  0
 33 31  2  0  0  0  0
 34 30  1  0  0  0  0
 35 34  2  0  0  0  0
 36 34  1  0  0  0  0
 36 39  1  0  0  0  0
 38 39  1  0  0  0  0
 38 37  1  0  0  0  0
 39 40  1  0  0  0  0
 39 37  1  0  0  0  0
 42 43  1  0  0  0  0
 43 41  1  0  0  0  0
 45 46  1  1  0  0  0
 45 44  1  0  0  0  0
 45 47  1  0  0  0  0
 49 51  1  0  0  0  0
 49 50  1  0  0  0  0
 50 47  1  0  0  0  0
 50 48  1  0  0  0  0
 51 50  1  0  0  0  0
M  END
>  <MODEL>
9

>  <REMARK>
 VINA RESULT:      -5.7      2.672      8.719
  Name = 
  10 active torsions:
  status: ('A' for Active; 'I' for Inactive)
    1  A    between atoms: N_1  and  C_37
    2  A    between atoms: C_9  and  C_17
    3  A    between atoms: C_9  and  C_37
    4  A    between atoms: C_11  and  C_35
    5  A    between atoms: C_17  and  C_28
    6  A    between atoms: C_25  and  C_31
    7  A    between atoms: C_31  and  C_34
    8  A    between atoms: C_32  and  N_38
    9  A    between atoms: C_32  and  C_49
   10  A    between atoms: N_33  and  C_36
                            x       y       z     vdW  Elec       q    Type
                         _______ _______ _______ _____ _____    ______ ____

>  <TORSDO>
F 10

$$$$
