=
 OpenBabel11042417363D

 68 74  0  0  1  0  0  0  0  0999 V2000
  191.9220  173.7320  144.8010 C   0  0  0  0  0  2  0  0  0  0  0  0
  190.0710  178.2130  144.3760 C   0  0  0  0  0  3  0  0  0  0  0  0
  190.3810  175.4730  145.4630 C   0  0  0  0  0  0  0  0  0  0  0  0
  191.3330  177.8360  143.6770 C   0  0  0  0  0  3  0  0  0  0  0  0
  189.2500  176.0910  145.5180 C   0  0  0  0  0  3  0  0  0  0  0  0
  191.6120  175.0950  145.3530 C   0  0  0  0  0  0  0  0  0  0  0  0
  189.1960  177.5110  145.1280 C   0  0  0  0  0  3  0  0  0  0  0  0
  192.5660  176.2560  145.2810 C   0  0  2  0  0  3  0  0  0  0  0  0
  192.3610  177.0370  144.0110 C   0  0  0  0  0  3  0  0  0  0  0  0
  197.0380  175.9800  143.3340 N   0  0  0  0  0  2  0  0  0  0  0  0
  194.9320  176.1150  144.3690 N   0  0  0  0  0  2  0  0  0  0  0  0
  196.2440  175.5530  144.2620 C   0  0  0  0  0  0  0  0  0  0  0  0
  194.4470  175.4570  146.5620 O   0  0  0  0  0  0  0  0  0  0  0  0
  194.0210  175.8870  145.4540 C   0  0  0  0  0  0  0  0  0  0  0  0
  196.6620  174.3810  145.1020 C   0  0  0  0  0  2  0  0  0  0  0  0
  196.6560  172.4270  143.6610 C   0  0  0  0  0  0  0  0  0  0  0  0
  197.3430  173.3420  144.2750 C   0  0  0  0  0  3  0  0  0  0  0  0
  195.9630  171.5160  143.0330 C   0  0  0  0  0  3  0  0  0  0  0  0
  194.8200  171.8940  142.1500 C   0  0  0  0  0  2  0  0  0  0  0  0
  195.2040  171.7720  140.6680 C   0  0  1  0  0  3  0  0  0  0  0  0
  196.7460  173.2970  139.3770 C   0  0  0  0  0  2  0  0  0  0  0  0
  194.7790  175.2870  137.4720 C   0  0  0  0  0  2  0  0  0  0  0  0
  196.9590  174.5030  138.4520 C   0  0  0  0  0  2  0  0  0  0  0  0
  193.7590  174.5090  138.3180 C   0  0  0  0  0  2  0  0  0  0  0  0
  194.2480  173.1110  138.7310 C   0  0  2  0  0  3  0  0  0  0  0  0
  195.3020  173.1080  139.8870 C   0  0  1  0  0  0  0  0  0  0  0  0
  195.7710  173.1010  136.6560 C   0  0  0  0  0  2  0  0  0  0  0  0
  194.9930  174.2320  140.8800 C   0  0  0  0  0  1  0  0  0  0  0  0
  196.0670  174.5090  137.2050 C   0  0  1  0  0  3  0  0  0  0  0  0
  194.7100  172.3410  137.4770 C   0  0  0  0  0  2  0  0  0  0  0  0
  196.2640  170.8670  140.4440 O   0  0  0  0  0  0  0  0  0  0  0  0
  195.7570  169.8070  139.7610 N   0  0  0  0  0  2  0  0  0  0  0  0
  195.8410  168.6520  140.6400 C   0  0  0  0  0  2  0  0  0  0  0  0
  197.2540  168.5230  141.1830 C   0  0  0  0  0  1  0  0  0  0  0  0
  190.0820  173.1140  140.9490 C   0  0  0  0  0  0  0  0  0  0  0  0
  189.4990  172.5760  142.1080 C   0  0  0  0  0  3  0  0  0  0  0  0
  191.8470  174.0680  142.3210 C   0  0  0  0  0  3  0  0  0  0  0  0
  191.2780  173.5030  143.4670 C   0  0  0  0  0  0  0  0  0  0  0  0
  189.4930  172.2090  144.4870 O   0  0  0  0  0  1  0  0  0  0  0  0
  190.0930  172.7590  143.3590 C   0  0  0  0  0  0  0  0  0  0  0  0
  191.2450  173.8900  141.0740 C   0  0  0  0  0  3  0  0  0  0  0  0
  188.1260  173.7440  139.4880 N   0  0  0  0  0  0  0  0  0  0  0  0
  189.3140  173.9410  137.4650 O   0  0  0  0  0  0  0  0  0  0  0  0
  188.0280  173.9200  138.0460 C   0  0  0  0  0  2  0  0  0  0  0  0
  190.1940  173.3900  138.4130 C   0  0  1  0  0  3  0  0  0  0  0  0
  189.3720  173.0010  139.6140 C   0  0  1  0  0  3  0  0  0  0  0  0
  188.2740  175.0350  140.0280 N   0  0  0  0  0  2  0  0  0  0  0  0
  187.4430  175.9180  139.2240 C   0  0  0  0  0  2  0  0  0  0  0  0
  187.1490  177.1950  139.9950 C   0  0  2  0  0  3  0  0  0  0  0  0
  188.1930  177.4530  140.8830 O   0  0  0  0  0  1  0  0  0  0  0  0
  185.8270  177.1180  140.7620 C   0  0  1  0  0  3  0  0  0  0  0  0
  185.0520  178.1900  143.1950 C   0  0  2  0  0  3  0  0  0  0  0  0
  183.6470  178.1620  142.5780 C   0  0  2  0  0  3  0  0  0  0  0  0
  183.6650  178.0090  141.0500 C   0  0  0  0  0  2  0  0  0  0  0  0
  186.1100  176.8270  142.5580 S   0  0  0  0  0  0  0  0  0  0  0  0
  184.9880  178.2900  140.5010 N   0  0  0  0  0  2  0  0  0  0  0  0
  182.9560  179.3300  142.9180 O   0  0  0  0  0  1  0  0  0  0  0  0
  185.5950  179.4850  145.2880 C   0  0  0  0  0  2  0  0  0  0  0  0
  187.3870  179.3680  148.9230 O   0  0  0  0  0  0  0  0  0  0  0  0
  185.5590  176.9900  146.8580 C   0  0  0  0  0  2  0  0  0  0  0  0
  185.4960  179.5010  146.8100 C   0  0  0  0  0  2  0  0  0  0  0  0
  186.0560  178.2680  147.3490 N   0  0  0  0  0  0  0  0  0  0  0  0
  184.9850  178.1950  144.7260 C   0  0  0  0  0  3  0  0  0  0  0  0
  185.6540  176.9550  145.3360 C   0  0  0  0  0  2  0  0  0  0  0  0
  186.9440  178.2830  148.4650 C   0  0  0  0  0  3  0  0  0  0  0  0
  190.8810  172.1580  137.8330 C   0  0  0  0  0  2  0  0  0  0  0  0
  190.4580  169.7720  137.6510 N   0  0  0  0  0  1  0  0  0  0  0  0
  190.4300  170.9040  138.5580 C   0  0  0  0  0  2  0  0  0  0  0  0
  1  6  1  0  0  0  0
  2  7  2  0  0  0  0
  3  5  2  0  0  0  0
  4  9  2  0  0  0  0
  4  2  1  0  0  0  0
  6  3  2  0  0  0  0
  7  5  1  0  0  0  0
  8  6  1  0  0  0  0
  8 14  1  6  0  0  0
  9  8  1  0  0  0  0
 10 12  2  0  0  0  0
 11 14  1  0  0  0  0
 12 11  1  0  0  0  0
 12 15  1  0  0  0  0
 14 13  2  0  0  0  0
 16 17  2  0  0  0  0
 17 15  1  0  0  0  0
 18 16  2  0  0  0  0
 19 18  1  0  0  0  0
 20 19  1  1  0  0  0
 21 26  1  0  0  0  0
 22 24  1  0  0  0  0
 23 21  1  0  0  0  0
 24 25  1  0  0  0  0
 25 30  1  6  0  0  0
 25 26  1  0  0  0  0
 26 20  1  0  0  0  0
 26 28  1  1  0  0  0
 27 30  1  0  0  0  0
 29 27  1  1  0  0  0
 29 22  1  0  0  0  0
 29 23  1  0  0  0  0
 31 20  1  0  0  0  0
 32 31  1  0  0  0  0
 32 33  1  0  0  0  0
 33 34  1  0  0  0  0
 35 41  2  0  0  0  0
 35 36  1  0  0  0  0
 36 40  2  0  0  0  0
 37 38  2  0  0  0  0
 38  1  1  0  0  0  0
 40 38  1  0  0  0  0
 40 39  1  0  0  0  0
 41 37  1  0  0  0  0
 42 46  1  0  0  0  0
 42 47  1  0  0  0  0
 43 44  1  0  0  0  0
 43 45  1  0  0  0  0
 44 42  1  0  0  0  0
 45 66  1  6  0  0  0
 45 46  1  0  0  0  0
 46 35  1  1  0  0  0
 48 49  1  0  0  0  0
 48 47  1  0  0  0  0
 49 50  1  1  0  0  0
 51 49  1  6  0  0  0
 51 55  1  0  0  0  0
 52 63  1  1  0  0  0
 53 57  1  6  0  0  0
 53 52  1  0  0  0  0
 54 53  1  0  0  0  0
 55 52  1  0  0  0  0
 56 51  1  0  0  0  0
 56 54  1  0  0  0  0
 58 61  1  0  0  0  0
 60 62  1  0  0  0  0
 61 62  1  0  0  0  0
 62 65  1  0  0  0  0
 63 58  1  0  0  0  0
 63 64  1  0  0  0  0
 64 60  1  0  0  0  0
 65 59  2  0  0  0  0
 66 68  1  0  0  0  0
 67 68  1  0  0  0  0
M  END
>  <MODEL>
1

>  <REMARK>
 VINA RESULT:      -6.5      0.000      0.000
  Name = 
  19 active torsions:
  status: ('A' for Active; 'I' for Inactive)
    1  A    between atoms: C_1  and  C_26
    2  A    between atoms: C_1  and  C_61
    3  A    between atoms: N_2  and  N_19
    4  A    between atoms: C_7  and  C_45
    5  A    between atoms: C_11  and  C_52
    6  A    between atoms: N_12  and  C_32
    7  A    between atoms: N_12  and  O_59
    8  A    between atoms: C_13  and  C_41
    9  A    between atoms: C_13  and  C_62
   10  A    between atoms: C_17  and  C_53
   11  A    between atoms: N_19  and  C_38
   12  A    between atoms: C_20  and  C_26
   13  A    between atoms: C_22  and  C_30
   14  A    between atoms: C_22  and  C_56
   15  A    between atoms: C_24  and  C_44
   16  A    between atoms: C_24  and  C_49
   17  A    between atoms: C_26  and  O_59
   18  A    between atoms: C_38  and  C_45
   19  A    between atoms: C_63  and  C_64
                            x       y       z     vdW  Elec       q    Type
                         _______ _______ _______ _____ _____    ______ ____

>  <TORSDO>
F 19

$$$$
=
 OpenBabel11042417363D

 68 74  0  0  1  0  0  0  0  0999 V2000
  190.7870  172.8720  141.7090 C   0  0  0  0  0  2  0  0  0  0  0  0
  192.6620  168.7200  139.9970 C   0  0  0  0  0  3  0  0  0  0  0  0
  190.7300  170.4760  141.4010 C   0  0  0  0  0  0  0  0  0  0  0  0
  193.2040  170.0410  139.5660 C   0  0  0  0  0  3  0  0  0  0  0  0
  190.8750  169.2380  141.7350 C   0  0  0  0  0  3  0  0  0  0  0  0
  190.7160  171.6430  140.8470 C   0  0  0  0  0  0  0  0  0  0  0  0
  191.7140  168.3680  140.8920 C   0  0  0  0  0  3  0  0  0  0  0  0
  191.1750  171.6070  139.4150 C   0  0  2  0  0  3  0  0  0  0  0  0
  192.6310  171.2340  139.3310 C   0  0  0  0  0  3  0  0  0  0  0  0
  187.9140  174.4750  137.1800 N   0  0  0  0  0  2  0  0  0  0  0  0
  189.5480  173.1810  138.2670 N   0  0  0  0  0  2  0  0  0  0  0  0
  189.1620  174.1520  137.2880 C   0  0  0  0  0  0  0  0  0  0  0  0
  191.8320  173.6800  138.3730 O   0  0  0  0  0  0  0  0  0  0  0  0
  190.9000  172.8690  138.6330 C   0  0  0  0  0  0  0  0  0  0  0  0
  190.1460  174.6880  136.2900 C   0  0  0  0  0  2  0  0  0  0  0  0
  191.4620  173.1970  134.8950 C   0  0  0  0  0  0  0  0  0  0  0  0
  190.3130  173.7510  135.1400 C   0  0  0  0  0  3  0  0  0  0  0  0
  192.6140  172.6320  134.6580 C   0  0  0  0  0  3  0  0  0  0  0  0
  193.3510  171.9100  135.7380 C   0  0  0  0  0  2  0  0  0  0  0  0
  194.8650  171.9330  135.4820 C   0  0  1  0  0  3  0  0  0  0  0  0
  197.0590  173.1170  135.8820 C   0  0  0  0  0  2  0  0  0  0  0  0
  196.5780  175.2020  138.5040 C   0  0  0  0  0  2  0  0  0  0  0  0
  197.9390  174.0380  136.7370 C   0  0  0  0  0  2  0  0  0  0  0  0
  195.2510  174.4310  138.4350 C   0  0  0  0  0  2  0  0  0  0  0  0
  194.8920  173.9600  137.0150 C   0  0  2  0  0  3  0  0  0  0  0  0
  195.7090  172.7220  136.5170 C   0  0  1  0  0  0  0  0  0  0  0  0
  196.2980  175.9040  136.0840 C   0  0  0  0  0  2  0  0  0  0  0  0
  195.9880  171.7730  137.6850 C   0  0  0  0  0  1  0  0  0  0  0  0
  197.2660  175.3530  137.1470 C   0  0  1  0  0  3  0  0  0  0  0  0
  194.9470  175.1620  136.0510 C   0  0  0  0  0  2  0  0  0  0  0  0
  195.3850  170.6710  135.1240 O   0  0  0  0  0  0  0  0  0  0  0  0
  194.3970  169.7560  135.3140 N   0  0  0  0  0  2  0  0  0  0  0  0
  194.9970  168.6110  135.9810 C   0  0  0  0  0  2  0  0  0  0  0  0
  196.3180  168.2640  135.3160 C   0  0  0  0  0  1  0  0  0  0  0  0
  194.5610  173.1590  143.7770 C   0  0  0  0  0  0  0  0  0  0  0  0
  193.4420  172.6010  144.4180 C   0  0  0  0  0  3  0  0  0  0  0  0
  193.2090  173.5030  141.7870 C   0  0  0  0  0  3  0  0  0  0  0  0
  192.0910  172.9750  142.4410 C   0  0  0  0  0  0  0  0  0  0  0  0
  191.1220  171.9620  144.4260 O   0  0  0  0  0  1  0  0  0  0  0  0
  192.2120  172.5150  143.7620 C   0  0  0  0  0  0  0  0  0  0  0  0
  194.4390  173.5780  142.4440 C   0  0  0  0  0  3  0  0  0  0  0  0
  196.3080  174.3840  145.1210 N   0  0  0  0  0  0  0  0  0  0  0  0
  196.9610  172.5760  146.4820 O   0  0  0  0  0  0  0  0  0  0  0  0
  197.2640  173.9040  146.1090 C   0  0  0  0  0  2  0  0  0  0  0  0
  196.1070  172.0640  145.4900 C   0  0  1  0  0  3  0  0  0  0  0  0
  195.9150  173.1480  144.4600 C   0  0  1  0  0  3  0  0  0  0  0  0
  195.2260  174.9100  145.8520 N   0  0  0  0  0  2  0  0  0  0  0  0
  194.9150  176.2010  145.2600 C   0  0  0  0  0  2  0  0  0  0  0  0
  193.5320  176.6530  145.7050 C   0  0  2  0  0  3  0  0  0  0  0  0
  193.2760  176.1690  146.9870 O   0  0  0  0  0  1  0  0  0  0  0  0
  192.4330  176.1880  144.7470 C   0  0  1  0  0  3  0  0  0  0  0  0
  189.7270  176.7640  144.6430 C   0  0  2  0  0  3  0  0  0  0  0  0
  189.8900  176.4880  143.1420 C   0  0  2  0  0  3  0  0  0  0  0  0
  191.3530  176.5220  142.6800 C   0  0  0  0  0  2  0  0  0  0  0  0
  190.8890  175.7620  145.6560 S   0  0  0  0  0  0  0  0  0  0  0  0
  192.2120  177.1600  143.6740 N   0  0  0  0  0  2  0  0  0  0  0  0
  189.1500  177.4200  142.4060 O   0  0  0  0  0  1  0  0  0  0  0  0
  187.3380  177.4740  144.2680 C   0  0  0  0  0  2  0  0  0  0  0  0
  183.9470  178.8560  146.0080 O   0  0  0  0  0  0  0  0  0  0  0  0
  186.6360  176.6090  146.9980 C   0  0  0  0  0  2  0  0  0  0  0  0
  185.8880  177.2590  144.6890 C   0  0  0  0  0  2  0  0  0  0  0  0
  185.7730  177.4030  146.1350 N   0  0  0  0  0  0  0  0  0  0  0  0
  188.2720  176.5750  145.0860 C   0  0  0  0  0  3  0  0  0  0  0  0
  188.0930  176.8160  146.5920 C   0  0  0  0  0  2  0  0  0  0  0  0
  184.7190  178.1650  146.7220 C   0  0  0  0  0  3  0  0  0  0  0  0
  196.7380  170.8370  144.8410 C   0  0  0  0  0  2  0  0  0  0  0  0
  196.0600  169.3030  146.5990 N   0  0  0  0  0  1  0  0  0  0  0  0
  197.2050  169.8540  145.8980 C   0  0  0  0  0  2  0  0  0  0  0  0
  1 38  1  0  0  0  0
  2  7  2  0  0  0  0
  3  5  2  0  0  0  0
  4  2  1  0  0  0  0
  6  3  2  0  0  0  0
  6  1  1  0  0  0  0
  7  5  1  0  0  0  0
  8 14  1  1  0  0  0
  8  6  1  0  0  0  0
  9  8  1  0  0  0  0
  9  4  2  0  0  0  0
 10 12  2  0  0  0  0
 11 14  1  0  0  0  0
 12 11  1  0  0  0  0
 13 14  2  0  0  0  0
 15 12  1  0  0  0  0
 16 17  2  0  0  0  0
 17 15  1  0  0  0  0
 18 16  2  0  0  0  0
 18 19  1  0  0  0  0
 20 19  1  1  0  0  0
 20 26  1  0  0  0  0
 21 26  1  0  0  0  0
 21 23  1  0  0  0  0
 23 29  1  0  0  0  0
 24 22  1  0  0  0  0
 25 30  1  6  0  0  0
 25 24  1  0  0  0  0
 26 25  1  0  0  0  0
 26 28  1  1  0  0  0
 29 27  1  6  0  0  0
 29 22  1  0  0  0  0
 30 27  1  0  0  0  0
 31 32  1  0  0  0  0
 31 20  1  0  0  0  0
 32 33  1  0  0  0  0
 34 33  1  0  0  0  0
 35 36  1  0  0  0  0
 37 38  2  0  0  0  0
 37 41  1  0  0  0  0
 38 40  1  0  0  0  0
 40 36  2  0  0  0  0
 40 39  1  0  0  0  0
 41 35  2  0  0  0  0
 42 47  1  0  0  0  0
 42 44  1  0  0  0  0
 44 43  1  0  0  0  0
 45 66  1  6  0  0  0
 45 43  1  0  0  0  0
 46 35  1  1  0  0  0
 46 42  1  0  0  0  0
 46 45  1  0  0  0  0
 48 49  1  0  0  0  0
 48 47  1  0  0  0  0
 49 50  1  1  0  0  0
 51 55  1  0  0  0  0
 51 49  1  1  0  0  0
 52 63  1  1  0  0  0
 52 55  1  0  0  0  0
 53 57  1  6  0  0  0
 53 52  1  0  0  0  0
 54 53  1  0  0  0  0
 54 56  1  0  0  0  0
 56 51  1  0  0  0  0
 58 61  1  0  0  0  0
 58 63  1  0  0  0  0
 59 65  2  0  0  0  0
 61 62  1  0  0  0  0
 62 65  1  0  0  0  0
 62 60  1  0  0  0  0
 63 64  1  0  0  0  0
 64 60  1  0  0  0  0
 66 68  1  0  0  0  0
 68 67  1  0  0  0  0
M  END
>  <MODEL>
2

>  <REMARK>
 VINA RESULT:      -5.8      2.535      7.005
  Name = 
  19 active torsions:
  status: ('A' for Active; 'I' for Inactive)
    1  A    between atoms: C_1  and  C_26
    2  A    between atoms: C_1  and  C_61
    3  A    between atoms: N_2  and  N_19
    4  A    between atoms: C_7  and  C_45
    5  A    between atoms: C_11  and  C_52
    6  A    between atoms: N_12  and  C_32
    7  A    between atoms: N_12  and  O_59
    8  A    between atoms: C_13  and  C_41
    9  A    between atoms: C_13  and  C_62
   10  A    between atoms: C_17  and  C_53
   11  A    between atoms: N_19  and  C_38
   12  A    between atoms: C_20  and  C_26
   13  A    between atoms: C_22  and  C_30
   14  A    between atoms: C_22  and  C_56
   15  A    between atoms: C_24  and  C_44
   16  A    between atoms: C_24  and  C_49
   17  A    between atoms: C_26  and  O_59
   18  A    between atoms: C_38  and  C_45
   19  A    between atoms: C_63  and  C_64
                            x       y       z     vdW  Elec       q    Type
                         _______ _______ _______ _____ _____    ______ ____

>  <TORSDO>
F 19

$$$$
=
 OpenBabel11042417363D

 68 74  0  0  1  0  0  0  0  0999 V2000
  191.4750  173.1800  143.3350 C   0  0  0  0  0  2  0  0  0  0  0  0
  195.7210  173.1580  145.7130 C   0  0  0  0  0  3  0  0  0  0  0  0
  193.7090  172.3320  143.6990 C   0  0  0  0  0  0  0  0  0  0  0  0
  194.7320  174.2540  145.9220 C   0  0  0  0  0  3  0  0  0  0  0  0
  194.6040  171.5080  144.1280 C   0  0  0  0  0  3  0  0  0  0  0  0
  192.9690  173.3420  143.3800 C   0  0  0  0  0  0  0  0  0  0  0  0
  195.6850  172.0180  144.9890 C   0  0  0  0  0  3  0  0  0  0  0  0
  193.6530  174.6590  143.6280 C   0  0  2  0  0  3  0  0  0  0  0  0
  193.8700  174.8780  145.1010 C   0  0  0  0  0  3  0  0  0  0  0  0
  191.2100  178.8410  144.2590 N   0  0  0  0  0  2  0  0  0  0  0  0
  192.4160  176.8640  143.8580 N   0  0  0  0  0  2  0  0  0  0  0  0
  191.4900  177.8750  143.4450 C   0  0  0  0  0  0  0  0  0  0  0  0
  192.9500  175.9980  141.7500 O   0  0  0  0  0  0  0  0  0  0  0  0
  192.9680  175.8520  143.0040 C   0  0  0  0  0  0  0  0  0  0  0  0
  190.7290  177.7590  142.1570 C   0  0  0  0  0  2  0  0  0  0  0  0
  189.0160  176.4520  143.2770 C   0  0  0  0  0  0  0  0  0  0  0  0
  189.3100  177.3660  142.4030 C   0  0  0  0  0  3  0  0  0  0  0  0
  188.7210  175.5420  144.1660 C   0  0  0  0  0  3  0  0  0  0  0  0
  189.2500  175.6310  145.5590 C   0  0  0  0  0  2  0  0  0  0  0  0
  188.8970  176.9820  146.1990 C   0  0  1  0  0  3  0  0  0  0  0  0
  187.3010  178.4140  147.5310 C   0  0  0  0  0  2  0  0  0  0  0  0
  184.1810  177.6450  146.4680 C   0  0  0  0  0  2  0  0  0  0  0  0
  185.8700  178.7820  147.9450 C   0  0  0  0  0  2  0  0  0  0  0  0
  185.0570  176.6310  145.7160 C   0  0  0  0  0  2  0  0  0  0  0  0
  186.4790  177.1440  145.4340 C   0  0  2  0  0  3  0  0  0  0  0  0
  187.4300  177.1360  146.6760 C   0  0  1  0  0  0  0  0  0  0  0  0
  185.5600  179.5460  145.5130 C   0  0  0  0  0  2  0  0  0  0  0  0
  187.1180  175.9300  147.5660 C   0  0  0  0  0  1  0  0  0  0  0  0
  184.8980  178.9610  146.7740 C   0  0  1  0  0  3  0  0  0  0  0  0
  186.3970  178.5140  144.7310 C   0  0  0  0  0  2  0  0  0  0  0  0
  189.8750  177.4340  147.1110 O   0  0  0  0  0  0  0  0  0  0  0  0
  190.4590  176.3350  147.6570 N   0  0  0  0  0  2  0  0  0  0  0  0
  191.6270  176.7930  148.3930 C   0  0  0  0  0  2  0  0  0  0  0  0
  192.8040  176.9470  147.4440 C   0  0  0  0  0  1  0  0  0  0  0  0
  190.0930  172.2100  139.3660 C   0  0  0  0  0  0  0  0  0  0  0  0
  189.2130  172.1450  140.4590 C   0  0  0  0  0  3  0  0  0  0  0  0
  191.8590  172.9290  140.8740 C   0  0  0  0  0  3  0  0  0  0  0  0
  190.9850  172.8320  141.9620 C   0  0  0  0  0  0  0  0  0  0  0  0
  188.7580  172.3650  142.8120 O   0  0  0  0  0  1  0  0  0  0  0  0
  189.6530  172.4450  141.7500 C   0  0  0  0  0  0  0  0  0  0  0  0
  191.4120  172.6380  139.5840 C   0  0  0  0  0  3  0  0  0  0  0  0
  189.4700  173.1760  137.1220 N   0  0  0  0  0  0  0  0  0  0  0  0
  190.2910  171.4090  135.7980 O   0  0  0  0  0  0  0  0  0  0  0  0
  189.5420  172.6070  135.7830 C   0  0  0  0  0  2  0  0  0  0  0  0
  190.3540  170.9900  137.1380 C   0  0  1  0  0  3  0  0  0  0  0  0
  189.5780  171.9890  137.9580 C   0  0  1  0  0  3  0  0  0  0  0  0
  190.6190  173.9770  137.2650 N   0  0  0  0  0  2  0  0  0  0  0  0
  190.8810  174.5610  135.9600 C   0  0  0  0  0  2  0  0  0  0  0  0
  191.9860  175.6010  136.0720 C   0  0  2  0  0  3  0  0  0  0  0  0
  191.8160  176.5680  135.0810 O   0  0  0  0  0  1  0  0  0  0  0  0
  193.3800  174.9820  135.9540 C   0  0  1  0  0  3  0  0  0  0  0  0
  195.0400  173.8280  137.8470 C   0  0  2  0  0  3  0  0  0  0  0  0
  195.5790  173.0280  136.6530 C   0  0  2  0  0  3  0  0  0  0  0  0
  194.6430  173.0610  135.4360 C   0  0  0  0  0  2  0  0  0  0  0  0
  194.4640  175.5020  137.3490 S   0  0  0  0  0  0  0  0  0  0  0  0
  193.3080  173.5270  135.8020 N   0  0  0  0  0  2  0  0  0  0  0  0
  195.7980  171.7000  137.0320 O   0  0  0  0  0  1  0  0  0  0  0  0
  195.3770  173.7600  140.3440 C   0  0  0  0  0  2  0  0  0  0  0  0
  197.0230  175.6190  143.5490 O   0  0  0  0  0  0  0  0  0  0  0  0
  197.9410  175.1860  140.0510 C   0  0  0  0  0  2  0  0  0  0  0  0
  196.4070  173.7890  141.4680 C   0  0  0  0  0  2  0  0  0  0  0  0
  197.2600  174.9610  141.3190 N   0  0  0  0  0  0  0  0  0  0  0  0
  196.0690  173.8900  138.9820 C   0  0  0  0  0  3  0  0  0  0  0  0
  196.9230  175.1640  138.9140 C   0  0  0  0  0  2  0  0  0  0  0  0
  197.5830  175.7890  142.4350 C   0  0  0  0  0  3  0  0  0  0  0  0
  189.7330  169.6050  137.2820 C   0  0  0  0  0  2  0  0  0  0  0  0
  191.8750  169.1110  138.3150 N   0  0  0  0  0  1  0  0  0  0  0  0
  190.4580  168.8020  138.3450 C   0  0  0  0  0  2  0  0  0  0  0  0
  1  6  1  0  0  0  0
  2  4  1  0  0  0  0
  3  5  2  0  0  0  0
  5  7  1  0  0  0  0
  6  8  1  0  0  0  0
  6  3  2  0  0  0  0
  7  2  2  0  0  0  0
  8 14  1  1  0  0  0
  8  9  1  0  0  0  0
  9  4  2  0  0  0  0
 12 11  1  0  0  0  0
 12 10  2  0  0  0  0
 13 14  2  0  0  0  0
 14 11  1  0  0  0  0
 15 17  1  0  0  0  0
 15 12  1  0  0  0  0
 16 18  2  0  0  0  0
 17 16  2  0  0  0  0
 18 19  1  0  0  0  0
 20 19  1  1  0  0  0
 20 26  1  0  0  0  0
 20 31  1  0  0  0  0
 21 23  1  0  0  0  0
 22 29  1  0  0  0  0
 24 22  1  0  0  0  0
 25 30  1  1  0  0  0
 25 24  1  0  0  0  0
 25 26  1  0  0  0  0
 26 21  1  0  0  0  0
 26 28  1  1  0  0  0
 29 27  1  6  0  0  0
 29 23  1  0  0  0  0
 30 27  1  0  0  0  0
 31 32  1  0  0  0  0
 32 33  1  0  0  0  0
 34 33  1  0  0  0  0
 35 41  2  0  0  0  0
 35 36  1  0  0  0  0
 36 40  2  0  0  0  0
 37 38  2  0  0  0  0
 38  1  1  0  0  0  0
 40 38  1  0  0  0  0
 40 39  1  0  0  0  0
 41 37  1  0  0  0  0
 42 47  1  0  0  0  0
 42 46  1  0  0  0  0
 43 45  1  0  0  0  0
 44 43  1  0  0  0  0
 44 42  1  0  0  0  0
 45 66  1  6  0  0  0
 45 46  1  0  0  0  0
 46 35  1  1  0  0  0
 48 49  1  0  0  0  0
 48 47  1  0  0  0  0
 49 50  1  6  0  0  0
 51 49  1  1  0  0  0
 51 55  1  0  0  0  0
 52 63  1  1  0  0  0
 53 57  1  1  0  0  0
 53 52  1  0  0  0  0
 54 56  1  0  0  0  0
 54 53  1  0  0  0  0
 55 52  1  0  0  0  0
 56 51  1  0  0  0  0
 58 61  1  0  0  0  0
 60 62  1  0  0  0  0
 62 61  1  0  0  0  0
 62 65  1  0  0  0  0
 63 58  1  0  0  0  0
 64 63  1  0  0  0  0
 64 60  1  0  0  0  0
 65 59  2  0  0  0  0
 66 68  1  0  0  0  0
 67 68  1  0  0  0  0
M  END
>  <MODEL>
3

>  <REMARK>
 VINA RESULT:      -5.7      2.948      9.158
  Name = 
  19 active torsions:
  status: ('A' for Active; 'I' for Inactive)
    1  A    between atoms: C_1  and  C_26
    2  A    between atoms: C_1  and  C_61
    3  A    between atoms: N_2  and  N_19
    4  A    between atoms: C_7  and  C_45
    5  A    between atoms: C_11  and  C_52
    6  A    between atoms: N_12  and  C_32
    7  A    between atoms: N_12  and  O_59
    8  A    between atoms: C_13  and  C_41
    9  A    between atoms: C_13  and  C_62
   10  A    between atoms: C_17  and  C_53
   11  A    between atoms: N_19  and  C_38
   12  A    between atoms: C_20  and  C_26
   13  A    between atoms: C_22  and  C_30
   14  A    between atoms: C_22  and  C_56
   15  A    between atoms: C_24  and  C_44
   16  A    between atoms: C_24  and  C_49
   17  A    between atoms: C_26  and  O_59
   18  A    between atoms: C_38  and  C_45
   19  A    between atoms: C_63  and  C_64
                            x       y       z     vdW  Elec       q    Type
                         _______ _______ _______ _____ _____    ______ ____

>  <TORSDO>
F 19

$$$$
=
 OpenBabel11042417363D

 68 74  0  0  1  0  0  0  0  0999 V2000
  190.0810  175.9370  144.5110 C   0  0  0  0  0  2  0  0  0  0  0  0
  187.2760  178.1950  147.7840 C   0  0  0  0  0  3  0  0  0  0  0  0
  188.0600  176.1140  145.8250 C   0  0  0  0  0  0  0  0  0  0  0  0
  188.6970  178.5990  147.5850 C   0  0  0  0  0  3  0  0  0  0  0  0
  186.8200  176.3850  146.0530 C   0  0  0  0  0  3  0  0  0  0  0  0
  189.3450  175.9780  145.8210 C   0  0  0  0  0  0  0  0  0  0  0  0
  186.4830  177.2970  147.1610 C   0  0  0  0  0  3  0  0  0  0  0  0
  189.9750  176.4230  147.1130 C   0  0  2  0  0  3  0  0  0  0  0  0
  189.8140  177.9080  147.3010 C   0  0  0  0  0  3  0  0  0  0  0  0
  194.6940  177.4670  146.4020 N   0  0  0  0  0  2  0  0  0  0  0  0
  192.4520  176.9000  146.8260 N   0  0  0  0  0  2  0  0  0  0  0  0
  193.8250  176.5380  146.6370 C   0  0  0  0  0  0  0  0  0  0  0  0
  191.7180  174.9480  147.8880 O   0  0  0  0  0  0  0  0  0  0  0  0
  191.4190  176.0150  147.2830 C   0  0  0  0  0  0  0  0  0  0  0  0
  194.2490  175.1010  146.5570 C   0  0  0  0  0  2  0  0  0  0  0  0
  196.1870  173.8430  145.8100 C   0  0  0  0  0  0  0  0  0  0  0  0
  195.5170  174.9550  145.7840 C   0  0  0  0  0  3  0  0  0  0  0  0
  196.8510  172.7200  145.8260 C   0  0  0  0  0  3  0  0  0  0  0  0
  196.1740  171.4230  145.5310 C   0  0  0  0  0  2  0  0  0  0  0  0
  195.9420  171.2520  144.0220 C   0  0  1  0  0  3  0  0  0  0  0  0
  193.5780  171.7920  144.7250 C   0  0  0  0  0  2  0  0  0  0  0  0
  191.8080  172.2980  141.8850 C   0  0  0  0  0  2  0  0  0  0  0  0
  192.1060  172.0370  144.3690 C   0  0  0  0  0  2  0  0  0  0  0  0
  193.1750  171.8360  141.3570 C   0  0  0  0  0  2  0  0  0  0  0  0
  194.3430  172.1990  142.2880 C   0  0  2  0  0  3  0  0  0  0  0  0
  194.4620  171.2970  143.5610 C   0  0  1  0  0  0  0  0  0  0  0  0
  192.9370  174.1590  143.1840 C   0  0  0  0  0  2  0  0  0  0  0  0
  194.0520  169.8610  143.2250 C   0  0  0  0  0  1  0  0  0  0  0  0
  191.8890  173.0320  143.2230 C   0  0  1  0  0  3  0  0  0  0  0  0
  194.2930  173.7070  142.6050 C   0  0  0  0  0  2  0  0  0  0  0  0
  196.8380  172.0080  143.2360 O   0  0  0  0  0  0  0  0  0  0  0  0
  197.7390  171.1420  142.7010 N   0  0  0  0  0  2  0  0  0  0  0  0
  197.9370  171.5320  141.3150 C   0  0  0  0  0  2  0  0  0  0  0  0
  197.9260  173.0470  141.2010 C   0  0  0  0  0  1  0  0  0  0  0  0
  187.5760  177.0520  141.1830 C   0  0  0  0  0  0  0  0  0  0  0  0
  188.5060  177.9640  141.7070 C   0  0  0  0  0  3  0  0  0  0  0  0
  188.3080  175.4150  142.8230 C   0  0  0  0  0  3  0  0  0  0  0  0
  189.2100  176.3390  143.3610 C   0  0  0  0  0  0  0  0  0  0  0  0
  190.2210  178.5470  143.2920 O   0  0  0  0  0  1  0  0  0  0  0  0
  189.3130  177.6180  142.7930 C   0  0  0  0  0  0  0  0  0  0  0  0
  187.5100  175.7620  141.7320 C   0  0  0  0  0  3  0  0  0  0  0  0
  187.1750  176.7110  138.7170 N   0  0  0  0  0  0  0  0  0  0  0  0
  184.8240  176.8380  138.7760 O   0  0  0  0  0  0  0  0  0  0  0  0
  185.9520  176.7820  137.9290 C   0  0  0  0  0  2  0  0  0  0  0  0
  185.2930  177.2060  140.0480 C   0  0  1  0  0  3  0  0  0  0  0  0
  186.7840  177.4010  139.9380 C   0  0  1  0  0  3  0  0  0  0  0  0
  187.3890  175.3440  138.9780 N   0  0  0  0  0  2  0  0  0  0  0  0
  187.8360  174.7490  137.7290 C   0  0  0  0  0  2  0  0  0  0  0  0
  188.6820  173.5170  138.0170 C   0  0  2  0  0  3  0  0  0  0  0  0
  189.4780  173.7530  139.1380 O   0  0  0  0  0  1  0  0  0  0  0  0
  189.5640  173.1290  136.8290 C   0  0  1  0  0  3  0  0  0  0  0  0
  192.2320  172.4010  136.6860 C   0  0  2  0  0  3  0  0  0  0  0  0
  191.7850  171.6160  135.4440 C   0  0  2  0  0  3  0  0  0  0  0  0
  190.2660  171.4090  135.3790 C   0  0  0  0  0  2  0  0  0  0  0  0
  191.2240  173.9180  136.9400 S   0  0  0  0  0  0  0  0  0  0  0  0
  189.6350  171.6740  136.6690 N   0  0  0  0  0  2  0  0  0  0  0  0
  192.4240  170.3730  135.4140 O   0  0  0  0  0  1  0  0  0  0  0  0
  194.2830  172.9390  138.0480 C   0  0  0  0  0  2  0  0  0  0  0  0
  197.4020  175.4820  138.5350 O   0  0  0  0  0  0  0  0  0  0  0  0
  195.5430  174.1780  135.6880 C   0  0  0  0  0  2  0  0  0  0  0  0
  195.7820  173.2150  137.9960 C   0  0  0  0  0  2  0  0  0  0  0  0
  196.0480  174.2900  137.0500 N   0  0  0  0  0  0  0  0  0  0  0  0
  193.7320  172.7110  136.6360 C   0  0  0  0  0  3  0  0  0  0  0  0
  194.0420  173.9060  135.7220 C   0  0  0  0  0  2  0  0  0  0  0  0
  196.9380  175.3580  137.3720 C   0  0  0  0  0  3  0  0  0  0  0  0
  184.6320  178.5070  140.4920 C   0  0  0  0  0  2  0  0  0  0  0  0
  184.5010  177.8620  142.8310 N   0  0  0  0  0  1  0  0  0  0  0  0
  183.7170  178.2630  141.6780 C   0  0  0  0  0  2  0  0  0  0  0  0
  1  6  1  0  0  0  0
  3  5  2  0  0  0  0
  4  2  1  0  0  0  0
  5  7  1  0  0  0  0
  6  3  2  0  0  0  0
  6  8  1  0  0  0  0
  7  2  2  0  0  0  0
  8 14  1  6  0  0  0
  8  9  1  0  0  0  0
  9  4  2  0  0  0  0
 10 12  2  0  0  0  0
 11 14  1  0  0  0  0
 12 11  1  0  0  0  0
 14 13  2  0  0  0  0
 15 12  1  0  0  0  0
 16 18  2  0  0  0  0
 17 16  2  0  0  0  0
 17 15  1  0  0  0  0
 19 18  1  0  0  0  0
 20 19  1  1  0  0  0
 23 21  1  0  0  0  0
 24 22  1  0  0  0  0
 25 24  1  1  0  0  0
 25 30  1  0  0  0  0
 25 26  1  0  0  0  0
 26 28  1  6  0  0  0
 26 20  1  0  0  0  0
 26 21  1  0  0  0  0
 27 29  1  0  0  0  0
 29 22  1  6  0  0  0
 29 23  1  0  0  0  0
 30 27  1  0  0  0  0
 31 20  1  0  0  0  0
 32 31  1  0  0  0  0
 33 32  1  0  0  0  0
 34 33  1  0  0  0  0
 35 36  2  0  0  0  0
 35 41  1  0  0  0  0
 36 40  1  0  0  0  0
 37 38  1  0  0  0  0
 38  1  1  0  0  0  0
 40 39  1  0  0  0  0
 40 38  2  0  0  0  0
 41 37  2  0  0  0  0
 42 47  1  0  0  0  0
 42 46  1  0  0  0  0
 43 45  1  0  0  0  0
 44 42  1  0  0  0  0
 44 43  1  0  0  0  0
 45 66  1  6  0  0  0
 46 45  1  0  0  0  0
 46 35  1  1  0  0  0
 48 49  1  0  0  0  0
 48 47  1  0  0  0  0
 49 50  1  1  0  0  0
 51 55  1  0  0  0  0
 51 49  1  1  0  0  0
 52 63  1  6  0  0  0
 52 55  1  0  0  0  0
 53 57  1  1  0  0  0
 53 52  1  0  0  0  0
 54 53  1  0  0  0  0
 54 56  1  0  0  0  0
 56 51  1  0  0  0  0
 60 64  1  0  0  0  0
 60 62  1  0  0  0  0
 61 58  1  0  0  0  0
 62 65  1  0  0  0  0
 62 61  1  0  0  0  0
 63 58  1  0  0  0  0
 64 63  1  0  0  0  0
 65 59  2  0  0  0  0
 66 68  1  0  0  0  0
 68 67  1  0  0  0  0
M  END
>  <MODEL>
4

>  <REMARK>
 VINA RESULT:      -5.2      2.518      7.438
  Name = 
  19 active torsions:
  status: ('A' for Active; 'I' for Inactive)
    1  A    between atoms: C_1  and  C_26
    2  A    between atoms: C_1  and  C_61
    3  A    between atoms: N_2  and  N_19
    4  A    between atoms: C_7  and  C_45
    5  A    between atoms: C_11  and  C_52
    6  A    between atoms: N_12  and  C_32
    7  A    between atoms: N_12  and  O_59
    8  A    between atoms: C_13  and  C_41
    9  A    between atoms: C_13  and  C_62
   10  A    between atoms: C_17  and  C_53
   11  A    between atoms: N_19  and  C_38
   12  A    between atoms: C_20  and  C_26
   13  A    between atoms: C_22  and  C_30
   14  A    between atoms: C_22  and  C_56
   15  A    between atoms: C_24  and  C_44
   16  A    between atoms: C_24  and  C_49
   17  A    between atoms: C_26  and  O_59
   18  A    between atoms: C_38  and  C_45
   19  A    between atoms: C_63  and  C_64
                            x       y       z     vdW  Elec       q    Type
                         _______ _______ _______ _____ _____    ______ ____

>  <TORSDO>
F 19

$$$$
=
 OpenBabel11042417363D

 68 74  0  0  1  0  0  0  0  0999 V2000
  189.1820  174.0600  140.4020 C   0  0  0  0  0  2  0  0  0  0  0  0
  189.5640  172.1640  135.9360 C   0  0  0  0  0  3  0  0  0  0  0  0
  188.9160  172.2450  138.8280 C   0  0  0  0  0  0  0  0  0  0  0  0
  189.7470  173.6250  136.1660 C   0  0  0  0  0  3  0  0  0  0  0  0
  189.2190  171.1370  138.2400 C   0  0  0  0  0  3  0  0  0  0  0  0
  188.5820  173.4460  139.1670 C   0  0  0  0  0  0  0  0  0  0  0  0
  189.3560  171.1240  136.7730 C   0  0  0  0  0  3  0  0  0  0  0  0
  188.0700  174.2530  138.0050 C   0  0  2  0  0  3  0  0  0  0  0  0
  189.1660  174.5010  137.0030 C   0  0  0  0  0  3  0  0  0  0  0  0
  187.6740  177.9570  141.1640 N   0  0  0  0  0  2  0  0  0  0  0  0
  187.8220  176.2380  139.5680 N   0  0  0  0  0  2  0  0  0  0  0  0
  187.0970  177.2860  140.2210 C   0  0  0  0  0  0  0  0  0  0  0  0
  186.5100  176.0550  137.6390 O   0  0  0  0  0  0  0  0  0  0  0  0
  187.3900  175.5460  138.3870 C   0  0  0  0  0  0  0  0  0  0  0  0
  185.6420  177.5220  139.9390 C   0  0  0  0  0  2  0  0  0  0  0  0
  185.2730  177.0380  142.2900 C   0  0  0  0  0  0  0  0  0  0  0  0
  184.8560  177.6160  141.2050 C   0  0  0  0  0  3  0  0  0  0  0  0
  185.7010  176.4680  143.3830 C   0  0  0  0  0  3  0  0  0  0  0  0
  187.0900  176.7030  143.8790 C   0  0  0  0  0  2  0  0  0  0  0  0
  187.1090  176.8750  145.4050 C   0  0  1  0  0  3  0  0  0  0  0  0
  188.3540  175.3790  147.0130 C   0  0  0  0  0  2  0  0  0  0  0  0
  191.6520  175.7900  146.3740 C   0  0  0  0  0  2  0  0  0  0  0  0
  189.6700  174.9030  147.6430 C   0  0  0  0  0  2  0  0  0  0  0  0
  190.9950  176.8360  145.4600 C   0  0  0  0  0  2  0  0  0  0  0  0
  189.5810  176.4440  145.0010 C   0  0  2  0  0  3  0  0  0  0  0  0
  188.4740  176.6110  146.0930 C   0  0  1  0  0  0  0  0  0  0  0  0
  190.2340  173.9740  145.3150 C   0  0  0  0  0  2  0  0  0  0  0  0
  188.7800  177.8320  146.9650 C   0  0  0  0  0  1  0  0  0  0  0  0
  190.7710  174.5670  146.6310 C   0  0  1  0  0  3  0  0  0  0  0  0
  189.6210  175.0340  144.3780 C   0  0  0  0  0  2  0  0  0  0  0  0
  186.4340  178.0350  145.8390 O   0  0  0  0  0  0  0  0  0  0  0  0
  185.5720  177.6600  146.8210 N   0  0  0  0  0  2  0  0  0  0  0  0
  184.4970  178.6400  146.8450 C   0  0  0  0  0  2  0  0  0  0  0  0
  184.3050  179.2240  145.4560 C   0  0  0  0  0  1  0  0  0  0  0  0
  192.1790  171.5080  142.1630 C   0  0  0  0  0  0  0  0  0  0  0  0
  190.8570  171.4800  142.6370 C   0  0  0  0  0  3  0  0  0  0  0  0
  191.5240  173.1850  140.5310 C   0  0  0  0  0  3  0  0  0  0  0  0
  190.2160  173.1750  141.0280 C   0  0  0  0  0  0  0  0  0  0  0  0
  188.5820  172.2650  142.5780 O   0  0  0  0  0  1  0  0  0  0  0  0
  189.8810  172.3120  142.0820 C   0  0  0  0  0  0  0  0  0  0  0  0
  192.4940  172.3450  141.0820 C   0  0  0  0  0  3  0  0  0  0  0  0
  194.0800  171.0240  143.7480 N   0  0  0  0  0  0  0  0  0  0  0  0
  193.4670  168.8130  144.2830 O   0  0  0  0  0  0  0  0  0  0  0  0
  194.4760  169.7920  144.4170 C   0  0  0  0  0  2  0  0  0  0  0  0
  192.6350  169.2340  143.2310 C   0  0  1  0  0  3  0  0  0  0  0  0
  193.2020  170.5250  142.6990 C   0  0  1  0  0  3  0  0  0  0  0  0
  193.3390  171.7570  144.6940 N   0  0  0  0  0  2  0  0  0  0  0  0
  194.2880  172.6050  145.3970 C   0  0  0  0  0  2  0  0  0  0  0  0
  194.1130  174.0510  144.9570 C   0  0  2  0  0  3  0  0  0  0  0  0
  193.0480  174.1380  144.0600 O   0  0  0  0  0  1  0  0  0  0  0  0
  195.3790  174.6190  144.3130 C   0  0  1  0  0  3  0  0  0  0  0  0
  196.1390  174.8570  141.6610 C   0  0  2  0  0  3  0  0  0  0  0  0
  196.9570  176.0530  142.1700 C   0  0  2  0  0  3  0  0  0  0  0  0
  196.5060  176.5430  143.5530 C   0  0  0  0  0  2  0  0  0  0  0  0
  195.9720  173.5460  142.9390 S   0  0  0  0  0  0  0  0  0  0  0  0
  195.1920  176.0140  143.9050 N   0  0  0  0  0  2  0  0  0  0  0  0
  196.8740  177.1070  141.2550 O   0  0  0  0  0  1  0  0  0  0  0  0
  195.6500  174.3170  139.2480 C   0  0  0  0  0  2  0  0  0  0  0  0
  195.8220  171.4840  136.3530 O   0  0  0  0  0  0  0  0  0  0  0  0
  197.8900  172.4010  139.2070 C   0  0  0  0  0  2  0  0  0  0  0  0
  196.2360  173.8030  137.9380 C   0  0  0  0  0  2  0  0  0  0  0  0
  196.8800  172.5150  138.1630 N   0  0  0  0  0  0  0  0  0  0  0  0
  196.7160  174.3090  140.3510 C   0  0  0  0  0  3  0  0  0  0  0  0
  197.3180  172.9080  140.5280 C   0  0  0  0  0  2  0  0  0  0  0  0
  196.6770  171.4190  137.2730 C   0  0  0  0  0  3  0  0  0  0  0  0
  192.6180  168.1810  142.1280 C   0  0  0  0  0  2  0  0  0  0  0  0
  192.8420  168.7160  139.7680 N   0  0  0  0  0  1  0  0  0  0  0  0
  193.5730  168.5620  141.0120 C   0  0  0  0  0  2  0  0  0  0  0  0
  1 38  1  0  0  0  0
  2  4  1  0  0  0  0
  2  7  2  0  0  0  0
  3  6  2  0  0  0  0
  4  9  2  0  0  0  0
  5  3  2  0  0  0  0
  6  1  1  0  0  0  0
  7  5  1  0  0  0  0
  8 14  1  1  0  0  0
  8  6  1  0  0  0  0
  9  8  1  0  0  0  0
 11 12  1  0  0  0  0
 12 10  2  0  0  0  0
 13 14  2  0  0  0  0
 14 11  1  0  0  0  0
 15 12  1  0  0  0  0
 15 17  1  0  0  0  0
 16 18  2  0  0  0  0
 17 16  2  0  0  0  0
 18 19  1  0  0  0  0
 20 19  1  6  0  0  0
 20 31  1  0  0  0  0
 20 26  1  0  0  0  0
 21 23  1  0  0  0  0
 22 29  1  0  0  0  0
 24 22  1  0  0  0  0
 25 30  1  1  0  0  0
 25 24  1  0  0  0  0
 25 26  1  0  0  0  0
 26 28  1  1  0  0  0
 26 21  1  0  0  0  0
 29 27  1  6  0  0  0
 29 23  1  0  0  0  0
 30 27  1  0  0  0  0
 31 32  1  0  0  0  0
 32 33  1  0  0  0  0
 34 33  1  0  0  0  0
 35 36  1  0  0  0  0
 37 38  2  0  0  0  0
 37 41  1  0  0  0  0
 38 40  1  0  0  0  0
 40 39  1  0  0  0  0
 40 36  2  0  0  0  0
 41 35  2  0  0  0  0
 42 44  1  0  0  0  0
 42 47  1  0  0  0  0
 43 44  1  0  0  0  0
 45 66  1  6  0  0  0
 45 43  1  0  0  0  0
 46 35  1  1  0  0  0
 46 45  1  0  0  0  0
 46 42  1  0  0  0  0
 47 48  1  0  0  0  0
 49 50  1  6  0  0  0
 49 48  1  0  0  0  0
 51 49  1  6  0  0  0
 52 63  1  6  0  0  0
 52 53  1  0  0  0  0
 52 55  1  0  0  0  0
 53 57  1  6  0  0  0
 53 54  1  0  0  0  0
 54 56  1  0  0  0  0
 55 51  1  0  0  0  0
 56 51  1  0  0  0  0
 58 63  1  0  0  0  0
 59 65  2  0  0  0  0
 60 64  1  0  0  0  0
 61 62  1  0  0  0  0
 61 58  1  0  0  0  0
 62 60  1  0  0  0  0
 63 64  1  0  0  0  0
 65 62  1  0  0  0  0
 67 68  1  0  0  0  0
 68 66  1  0  0  0  0
M  END
>  <MODEL>
5

>  <REMARK>
 VINA RESULT:      -4.6      2.602     10.458
  Name = 
  19 active torsions:
  status: ('A' for Active; 'I' for Inactive)
    1  A    between atoms: C_1  and  C_26
    2  A    between atoms: C_1  and  C_61
    3  A    between atoms: N_2  and  N_19
    4  A    between atoms: C_7  and  C_45
    5  A    between atoms: C_11  and  C_52
    6  A    between atoms: N_12  and  C_32
    7  A    between atoms: N_12  and  O_59
    8  A    between atoms: C_13  and  C_41
    9  A    between atoms: C_13  and  C_62
   10  A    between atoms: C_17  and  C_53
   11  A    between atoms: N_19  and  C_38
   12  A    between atoms: C_20  and  C_26
   13  A    between atoms: C_22  and  C_30
   14  A    between atoms: C_22  and  C_56
   15  A    between atoms: C_24  and  C_44
   16  A    between atoms: C_24  and  C_49
   17  A    between atoms: C_26  and  O_59
   18  A    between atoms: C_38  and  C_45
   19  A    between atoms: C_63  and  C_64
                            x       y       z     vdW  Elec       q    Type
                         _______ _______ _______ _____ _____    ______ ____

>  <TORSDO>
F 19

$$$$
=
 OpenBabel11042417363D

 68 74  0  0  1  0  0  0  0  0999 V2000
  190.7580  172.5410  141.1940 C   0  0  0  0  0  2  0  0  0  0  0  0
  192.7170  168.6370  139.0470 C   0  0  0  0  0  3  0  0  0  0  0  0
  190.7150  170.2060  140.5700 C   0  0  0  0  0  0  0  0  0  0  0  0
  193.2810  169.9980  138.8220 C   0  0  0  0  0  3  0  0  0  0  0  0
  190.8430  168.9340  140.7450 C   0  0  0  0  0  3  0  0  0  0  0  0
  190.7310  171.4360  140.1750 C   0  0  0  0  0  0  0  0  0  0  0  0
  191.7230  168.1760  139.8380 C   0  0  0  0  0  3  0  0  0  0  0  0
  191.2640  171.5850  138.7760 C   0  0  2  0  0  3  0  0  0  0  0  0
  192.7220  171.2160  138.7180 C   0  0  0  0  0  3  0  0  0  0  0  0
  188.2400  174.5920  136.3950 N   0  0  0  0  0  2  0  0  0  0  0  0
  189.7480  173.2320  137.5770 N   0  0  0  0  0  2  0  0  0  0  0  0
  189.4690  174.3270  136.6980 C   0  0  0  0  0  0  0  0  0  0  0  0
  191.9190  173.8360  138.2090 O   0  0  0  0  0  0  0  0  0  0  0  0
  191.0290  172.9410  138.1540 C   0  0  0  0  0  0  0  0  0  0  0  0
  190.5720  175.0760  136.0080 C   0  0  0  0  0  2  0  0  0  0  0  0
  192.2540  173.9740  134.6470 C   0  0  0  0  0  0  0  0  0  0  0  0
  191.0210  174.3600  134.7780 C   0  0  0  0  0  3  0  0  0  0  0  0
  193.4900  173.5740  134.5240 C   0  0  0  0  0  3  0  0  0  0  0  0
  194.1460  172.7650  135.5930 C   0  0  0  0  0  2  0  0  0  0  0  0
  195.6130  172.4730  135.2430 C   0  0  1  0  0  3  0  0  0  0  0  0
  197.0070  174.4620  135.9310 C   0  0  0  0  0  2  0  0  0  0  0  0
  197.9050  173.9540  139.1550 C   0  0  0  0  0  2  0  0  0  0  0  0
  197.9190  175.1620  136.9490 C   0  0  0  0  0  2  0  0  0  0  0  0
  197.1960  172.6410  138.7880 C   0  0  0  0  0  2  0  0  0  0  0  0
  196.1120  172.8130  137.7110 C   0  0  2  0  0  3  0  0  0  0  0  0
  196.6630  172.9940  136.2590 C   0  0  1  0  0  0  0  0  0  0  0  0
  195.8450  175.2600  138.4620 C   0  0  0  0  0  2  0  0  0  0  0  0
  197.9270  172.1520  136.0690 C   0  0  0  0  0  1  0  0  0  0  0  0
  197.3800  175.1650  138.3840 C   0  0  1  0  0  3  0  0  0  0  0  0
  195.1380  173.9280  138.1430 C   0  0  0  0  0  2  0  0  0  0  0  0
  195.8210  171.1530  134.7900 O   0  0  0  0  0  0  0  0  0  0  0  0
  194.6300  170.5040  134.8690 N   0  0  0  0  0  2  0  0  0  0  0  0
  194.9230  169.0850  135.0020 C   0  0  0  0  0  2  0  0  0  0  0  0
  195.6920  168.8380  136.2880 C   0  0  0  0  0  1  0  0  0  0  0  0
  194.5950  172.8270  143.1420 C   0  0  0  0  0  0  0  0  0  0  0  0
  193.5640  172.0640  143.7150 C   0  0  0  0  0  3  0  0  0  0  0  0
  193.1160  173.3750  141.2930 C   0  0  0  0  0  3  0  0  0  0  0  0
  192.0840  172.6400  141.8850 C   0  0  0  0  0  0  0  0  0  0  0  0
  191.3110  171.2160  143.6960 O   0  0  0  0  0  1  0  0  0  0  0  0
  192.3140  171.9750  143.0990 C   0  0  0  0  0  0  0  0  0  0  0  0
  194.3670  173.4540  141.9070 C   0  0  0  0  0  3  0  0  0  0  0  0
  196.4540  174.1090  144.2640 N   0  0  0  0  0  0  0  0  0  0  0  0
  197.0950  172.4330  145.7900 O   0  0  0  0  0  0  0  0  0  0  0  0
  197.4350  173.6960  145.2580 C   0  0  0  0  0  2  0  0  0  0  0  0
  196.1740  171.8560  144.8990 C   0  0  1  0  0  3  0  0  0  0  0  0
  195.9780  172.8280  143.7630 C   0  0  1  0  0  3  0  0  0  0  0  0
  195.4310  174.7620  144.9780 N   0  0  0  0  0  2  0  0  0  0  0  0
  195.0340  175.9090  144.1770 C   0  0  0  0  0  2  0  0  0  0  0  0
  194.3360  176.9360  145.0560 C   0  0  2  0  0  3  0  0  0  0  0  0
  194.9680  176.9900  146.2980 O   0  0  0  0  0  1  0  0  0  0  0  0
  192.8500  176.6230  145.2450 C   0  0  1  0  0  3  0  0  0  0  0  0
  190.8400  176.0940  143.4160 C   0  0  2  0  0  3  0  0  0  0  0  0
  190.2220  175.2900  144.5700 C   0  0  2  0  0  3  0  0  0  0  0  0
  191.2280  174.9730  145.6860 C   0  0  0  0  0  2  0  0  0  0  0  0
  191.8130  177.5310  144.0240 S   0  0  0  0  0  0  0  0  0  0  0  0
  192.6020  175.1800  145.2400 N   0  0  0  0  0  2  0  0  0  0  0  0
  189.6820  174.0970  144.0800 O   0  0  0  0  0  1  0  0  0  0  0  0
  189.1590  177.8650  142.7890 C   0  0  0  0  0  2  0  0  0  0  0  0
  185.3010  178.6120  141.7960 O   0  0  0  0  0  0  0  0  0  0  0  0
  187.6470  175.8910  141.2060 C   0  0  0  0  0  2  0  0  0  0  0  0
  188.1210  178.2960  141.7580 C   0  0  0  0  0  2  0  0  0  0  0  0
  187.1610  177.2190  141.5540 N   0  0  0  0  0  0  0  0  0  0  0  0
  189.7720  176.5140  142.4000 C   0  0  0  0  0  3  0  0  0  0  0  0
  188.6850  175.4430  142.2310 C   0  0  0  0  0  2  0  0  0  0  0  0
  185.7580  177.4750  141.5110 C   0  0  0  0  0  3  0  0  0  0  0  0
  196.7220  170.5370  144.3640 C   0  0  0  0  0  2  0  0  0  0  0  0
  195.7270  168.4360  143.6580 N   0  0  0  0  0  1  0  0  0  0  0  0
  195.8140  169.3850  144.7520 C   0  0  0  0  0  2  0  0  0  0  0  0
  1 38  1  0  0  0  0
  2  7  2  0  0  0  0
  3  5  2  0  0  0  0
  4  2  1  0  0  0  0
  6  3  2  0  0  0  0
  6  1  1  0  0  0  0
  7  5  1  0  0  0  0
  8 14  1  1  0  0  0
  8  6  1  0  0  0  0
  9  8  1  0  0  0  0
  9  4  2  0  0  0  0
 10 12  2  0  0  0  0
 11 14  1  0  0  0  0
 12 11  1  0  0  0  0
 14 13  2  0  0  0  0
 15 12  1  0  0  0  0
 16 17  2  0  0  0  0
 17 15  1  0  0  0  0
 18 16  2  0  0  0  0
 18 19  1  0  0  0  0
 20 19  1  1  0  0  0
 20 26  1  0  0  0  0
 21 26  1  0  0  0  0
 21 23  1  0  0  0  0
 24 22  1  0  0  0  0
 25 30  1  1  0  0  0
 25 24  1  0  0  0  0
 26 28  1  6  0  0  0
 26 25  1  0  0  0  0
 29 23  1  6  0  0  0
 29 27  1  0  0  0  0
 29 22  1  0  0  0  0
 30 27  1  0  0  0  0
 31 32  1  0  0  0  0
 31 20  1  0  0  0  0
 32 33  1  0  0  0  0
 33 34  1  0  0  0  0
 35 36  1  0  0  0  0
 37 38  2  0  0  0  0
 37 41  1  0  0  0  0
 38 40  1  0  0  0  0
 40 39  1  0  0  0  0
 40 36  2  0  0  0  0
 41 35  2  0  0  0  0
 42 47  1  0  0  0  0
 42 44  1  0  0  0  0
 44 43  1  0  0  0  0
 45 66  1  6  0  0  0
 45 43  1  0  0  0  0
 46 35  1  1  0  0  0
 46 42  1  0  0  0  0
 46 45  1  0  0  0  0
 48 47  1  0  0  0  0
 48 49  1  0  0  0  0
 49 50  1  1  0  0  0
 51 49  1  6  0  0  0
 52 63  1  6  0  0  0
 52 55  1  0  0  0  0
 52 53  1  0  0  0  0
 53 57  1  6  0  0  0
 53 54  1  0  0  0  0
 55 51  1  0  0  0  0
 56 51  1  0  0  0  0
 56 54  1  0  0  0  0
 60 62  1  0  0  0  0
 60 64  1  0  0  0  0
 61 58  1  0  0  0  0
 62 61  1  0  0  0  0
 63 58  1  0  0  0  0
 64 63  1  0  0  0  0
 65 62  1  0  0  0  0
 65 59  2  0  0  0  0
 66 68  1  0  0  0  0
 67 68  1  0  0  0  0
M  END
>  <MODEL>
6

>  <REMARK>
 VINA RESULT:      -4.6      2.768      7.378
  Name = 
  19 active torsions:
  status: ('A' for Active; 'I' for Inactive)
    1  A    between atoms: C_1  and  C_26
    2  A    between atoms: C_1  and  C_61
    3  A    between atoms: N_2  and  N_19
    4  A    between atoms: C_7  and  C_45
    5  A    between atoms: C_11  and  C_52
    6  A    between atoms: N_12  and  C_32
    7  A    between atoms: N_12  and  O_59
    8  A    between atoms: C_13  and  C_41
    9  A    between atoms: C_13  and  C_62
   10  A    between atoms: C_17  and  C_53
   11  A    between atoms: N_19  and  C_38
   12  A    between atoms: C_20  and  C_26
   13  A    between atoms: C_22  and  C_30
   14  A    between atoms: C_22  and  C_56
   15  A    between atoms: C_24  and  C_44
   16  A    between atoms: C_24  and  C_49
   17  A    between atoms: C_26  and  O_59
   18  A    between atoms: C_38  and  C_45
   19  A    between atoms: C_63  and  C_64
                            x       y       z     vdW  Elec       q    Type
                         _______ _______ _______ _____ _____    ______ ____

>  <TORSDO>
F 19

$$$$
=
 OpenBabel11042417363D

 68 74  0  0  1  0  0  0  0  0999 V2000
  193.2660  173.4880  138.5830 C   0  0  0  0  0  2  0  0  0  0  0  0
  190.0390  171.5480  135.4990 C   0  0  0  0  0  3  0  0  0  0  0  0
  192.6310  171.8740  136.8990 C   0  0  0  0  0  0  0  0  0  0  0  0
  189.6140  172.5370  136.5310 C   0  0  0  0  0  3  0  0  0  0  0  0
  192.5690  171.3630  135.7160 C   0  0  0  0  0  3  0  0  0  0  0  0
  192.4310  172.3400  138.0870 C   0  0  0  0  0  0  0  0  0  0  0  0
  191.2460  171.0600  135.1410 C   0  0  0  0  0  3  0  0  0  0  0  0
  191.0490  172.0380  138.6000 C   0  0  2  0  0  3  0  0  0  0  0  0
  190.0100  172.7700  137.7940 C   0  0  0  0  0  3  0  0  0  0  0  0
  191.5180  170.4110  143.1810 N   0  0  0  0  0  2  0  0  0  0  0  0
  191.2920  171.2950  141.0150 N   0  0  0  0  0  2  0  0  0  0  0  0
  190.9140  171.2420  142.3950 C   0  0  0  0  0  0  0  0  0  0  0  0
  190.3920  173.3890  140.4860 O   0  0  0  0  0  0  0  0  0  0  0  0
  190.8570  172.2890  140.0770 C   0  0  0  0  0  0  0  0  0  0  0  0
  189.7390  172.0180  142.9130 C   0  0  0  0  0  2  0  0  0  0  0  0
  189.5260  173.0020  145.1230 C   0  0  0  0  0  0  0  0  0  0  0  0
  189.6480  171.9300  144.4000 C   0  0  0  0  0  3  0  0  0  0  0  0
  189.3910  174.0800  145.8460 C   0  0  0  0  0  3  0  0  0  0  0  0
  188.3240  175.0790  145.5430 C   0  0  0  0  0  2  0  0  0  0  0  0
  188.4770  176.3330  146.4180 C   0  0  1  0  0  3  0  0  0  0  0  0
  187.4430  178.3290  147.5650 C   0  0  0  0  0  2  0  0  0  0  0  0
  184.1280  178.2340  146.8860 C   0  0  0  0  0  2  0  0  0  0  0  0
  186.2010  179.1190  148.0010 C   0  0  0  0  0  2  0  0  0  0  0  0
  184.6380  176.9180  146.2790 C   0  0  0  0  0  2  0  0  0  0  0  0
  186.1000  176.9900  145.8060 C   0  0  2  0  0  3  0  0  0  0  0  0
  187.1570  176.9400  146.9590 C   0  0  1  0  0  0  0  0  0  0  0  0
  185.8080  179.5280  145.4960 C   0  0  0  0  0  2  0  0  0  0  0  0
  186.6660  176.0190  148.0790 C   0  0  0  0  0  1  0  0  0  0  0  0
  185.1740  179.3500  146.8880 C   0  0  1  0  0  3  0  0  0  0  0  0
  186.2720  178.2000  144.8660 C   0  0  0  0  0  2  0  0  0  0  0  0
  189.5180  176.2220  147.3650 O   0  0  0  0  0  0  0  0  0  0  0  0
  190.3950  177.2330  147.1250 N   0  0  0  0  0  2  0  0  0  0  0  0
  191.5490  177.0100  147.9810 C   0  0  0  0  0  2  0  0  0  0  0  0
  191.5760  175.5620  148.4390 C   0  0  0  0  0  1  0  0  0  0  0  0
  196.0010  172.2440  141.6770 C   0  0  0  0  0  0  0  0  0  0  0  0
  195.7880  173.6100  141.4260 C   0  0  0  0  0  3  0  0  0  0  0  0
  194.4100  171.7070  139.9200 C   0  0  0  0  0  3  0  0  0  0  0  0
  194.2250  173.0680  139.6540 C   0  0  0  0  0  0  0  0  0  0  0  0
  194.7290  175.3840  140.1900 O   0  0  0  0  0  1  0  0  0  0  0  0
  194.9140  174.0240  140.4170 C   0  0  0  0  0  0  0  0  0  0  0  0
  195.2760  171.2990  140.9350 C   0  0  0  0  0  3  0  0  0  0  0  0
  196.6450  172.5100  144.1000 N   0  0  0  0  0  0  0  0  0  0  0  0
  196.9800  170.2270  144.5730 O   0  0  0  0  0  0  0  0  0  0  0  0
  197.1280  171.5400  145.0720 C   0  0  0  0  0  2  0  0  0  0  0  0
  196.7980  170.3430  143.1840 C   0  0  1  0  0  3  0  0  0  0  0  0
  196.8670  171.8100  142.8430 C   0  0  1  0  0  3  0  0  0  0  0  0
  195.2650  172.6470  144.3430 N   0  0  0  0  0  2  0  0  0  0  0  0
  195.0900  173.9140  145.0360 C   0  0  0  0  0  2  0  0  0  0  0  0
  193.6100  174.2550  145.1240 C   0  0  2  0  0  3  0  0  0  0  0  0
  192.8540  173.1260  144.8090 O   0  0  0  0  0  1  0  0  0  0  0  0
  193.2250  175.4100  144.1980 C   0  0  1  0  0  3  0  0  0  0  0  0
  190.7950  176.6520  143.7290 C   0  0  2  0  0  3  0  0  0  0  0  0
  191.6660  177.8700  143.3890 C   0  0  2  0  0  3  0  0  0  0  0  0
  193.1030  177.7450  143.9120 C   0  0  0  0  0  2  0  0  0  0  0  0
  191.6390  175.0690  143.3260 S   0  0  0  0  0  0  0  0  0  0  0  0
  193.2170  176.6890  144.9130 N   0  0  0  0  0  2  0  0  0  0  0  0
  191.0830  179.0300  143.9090 O   0  0  0  0  0  1  0  0  0  0  0  0
  189.1940  175.5760  142.1070 C   0  0  0  0  0  2  0  0  0  0  0  0
  186.8600  176.1380  138.8400 O   0  0  0  0  0  0  0  0  0  0  0  0
  187.8390  178.1630  141.7050 C   0  0  0  0  0  2  0  0  0  0  0  0
  187.8100  175.6610  141.4720 C   0  0  0  0  0  2  0  0  0  0  0  0
  187.6250  176.9800  140.8820 N   0  0  0  0  0  0  0  0  0  0  0  0
  189.4180  176.7530  143.0640 C   0  0  0  0  0  3  0  0  0  0  0  0
  189.2220  178.0950  142.3450 C   0  0  0  0  0  2  0  0  0  0  0  0
  187.0680  177.1370  139.5780 C   0  0  0  0  0  3  0  0  0  0  0  0
  197.9000  169.5880  142.4490 C   0  0  0  0  0  2  0  0  0  0  0  0
  195.9940  168.1670  141.9470 N   0  0  0  0  0  1  0  0  0  0  0  0
  197.4380  168.1890  142.0860 C   0  0  0  0  0  2  0  0  0  0  0  0
  1 38  1  0  0  0  0
  2  4  1  0  0  0  0
  3  6  2  0  0  0  0
  4  9  2  0  0  0  0
  5  3  2  0  0  0  0
  6  1  1  0  0  0  0
  6  8  1  0  0  0  0
  7  2  2  0  0  0  0
  7  5  1  0  0  0  0
  8 14  1  1  0  0  0
  9  8  1  0  0  0  0
 11 12  1  0  0  0  0
 12 15  1  0  0  0  0
 12 10  2  0  0  0  0
 14 13  2  0  0  0  0
 14 11  1  0  0  0  0
 15 17  1  0  0  0  0
 16 18  2  0  0  0  0
 17 16  2  0  0  0  0
 19 18  1  0  0  0  0
 20 19  1  1  0  0  0
 20 26  1  0  0  0  0
 20 31  1  0  0  0  0
 21 23  1  0  0  0  0
 22 29  1  0  0  0  0
 24 22  1  0  0  0  0
 25 30  1  1  0  0  0
 25 24  1  0  0  0  0
 25 26  1  0  0  0  0
 26 21  1  0  0  0  0
 26 28  1  1  0  0  0
 29 27  1  6  0  0  0
 29 23  1  0  0  0  0
 30 27  1  0  0  0  0
 32 31  1  0  0  0  0
 32 33  1  0  0  0  0
 33 34  1  0  0  0  0
 36 35  1  0  0  0  0
 37 41  1  0  0  0  0
 38 37  2  0  0  0  0
 38 40  1  0  0  0  0
 39 40  1  0  0  0  0
 40 36  2  0  0  0  0
 41 35  2  0  0  0  0
 42 47  1  0  0  0  0
 42 44  1  0  0  0  0
 43 44  1  0  0  0  0
 45 66  1  6  0  0  0
 45 43  1  0  0  0  0
 46 35  1  6  0  0  0
 46 45  1  0  0  0  0
 46 42  1  0  0  0  0
 47 48  1  0  0  0  0
 48 49  1  0  0  0  0
 49 50  1  6  0  0  0
 51 56  1  0  0  0  0
 51 49  1  1  0  0  0
 52 63  1  6  0  0  0
 53 52  1  0  0  0  0
 53 57  1  1  0  0  0
 53 54  1  0  0  0  0
 54 56  1  0  0  0  0
 55 52  1  0  0  0  0
 55 51  1  0  0  0  0
 58 63  1  0  0  0  0
 59 65  2  0  0  0  0
 60 64  1  0  0  0  0
 61 58  1  0  0  0  0
 62 61  1  0  0  0  0
 62 60  1  0  0  0  0
 64 63  1  0  0  0  0
 65 62  1  0  0  0  0
 67 68  1  0  0  0  0
 68 66  1  0  0  0  0
M  END
>  <MODEL>
7

>  <REMARK>
 VINA RESULT:      -4.6      2.437      9.289
  Name = 
  19 active torsions:
  status: ('A' for Active; 'I' for Inactive)
    1  A    between atoms: C_1  and  C_26
    2  A    between atoms: C_1  and  C_61
    3  A    between atoms: N_2  and  N_19
    4  A    between atoms: C_7  and  C_45
    5  A    between atoms: C_11  and  C_52
    6  A    between atoms: N_12  and  C_32
    7  A    between atoms: N_12  and  O_59
    8  A    between atoms: C_13  and  C_41
    9  A    between atoms: C_13  and  C_62
   10  A    between atoms: C_17  and  C_53
   11  A    between atoms: N_19  and  C_38
   12  A    between atoms: C_20  and  C_26
   13  A    between atoms: C_22  and  C_30
   14  A    between atoms: C_22  and  C_56
   15  A    between atoms: C_24  and  C_44
   16  A    between atoms: C_24  and  C_49
   17  A    between atoms: C_26  and  O_59
   18  A    between atoms: C_38  and  C_45
   19  A    between atoms: C_63  and  C_64
                            x       y       z     vdW  Elec       q    Type
                         _______ _______ _______ _____ _____    ______ ____

>  <TORSDO>
F 19

$$$$
=
 OpenBabel11042417363D

 68 74  0  0  1  0  0  0  0  0999 V2000
  196.6040  172.1420  140.6200 C   0  0  0  0  0  2  0  0  0  0  0  0
  196.3710  176.8800  141.7100 C   0  0  0  0  0  3  0  0  0  0  0  0
  195.3810  174.2100  140.8850 C   0  0  0  0  0  0  0  0  0  0  0  0
  197.5940  176.0830  142.0140 C   0  0  0  0  0  3  0  0  0  0  0  0
  194.7910  175.2920  140.5000 C   0  0  0  0  0  3  0  0  0  0  0  0
  196.0890  173.2880  141.4470 C   0  0  0  0  0  0  0  0  0  0  0  0
  195.2140  176.5780  141.0820 C   0  0  0  0  0  3  0  0  0  0  0  0
  196.7520  173.7610  142.7120 C   0  0  2  0  0  3  0  0  0  0  0  0
  197.7850  174.8140  142.4120 C   0  0  0  0  0  3  0  0  0  0  0  0
  197.9410  169.0440  143.1600 N   0  0  0  0  0  2  0  0  0  0  0  0
  197.4430  171.3370  143.0200 N   0  0  0  0  0  2  0  0  0  0  0  0
  197.6840  170.1490  143.7820 C   0  0  0  0  0  0  0  0  0  0  0  0
  197.8090  172.9160  144.7080 O   0  0  0  0  0  0  0  0  0  0  0  0
  197.3400  172.6610  143.5640 C   0  0  0  0  0  0  0  0  0  0  0  0
  197.5000  170.1260  145.2710 C   0  0  0  0  0  2  0  0  0  0  0  0
  195.2090  170.7670  145.7580 C   0  0  0  0  0  0  0  0  0  0  0  0
  196.0850  169.8170  145.6340 C   0  0  0  0  0  3  0  0  0  0  0  0
  194.3260  171.7220  145.8690 C   0  0  0  0  0  3  0  0  0  0  0  0
  194.1400  172.7250  144.7800 C   0  0  0  0  0  2  0  0  0  0  0  0
  192.6600  173.1110  144.6320 C   0  0  1  0  0  3  0  0  0  0  0  0
  191.5280  175.2550  143.9290 C   0  0  0  0  0  2  0  0  0  0  0  0
  190.8070  176.9520  146.7670 C   0  0  0  0  0  2  0  0  0  0  0  0
  190.9650  176.6390  144.2770 C   0  0  0  0  0  2  0  0  0  0  0  0
  191.6140  175.7520  147.2850 C   0  0  0  0  0  2  0  0  0  0  0  0
  191.4780  174.4990  146.4020 C   0  0  2  0  0  3  0  0  0  0  0  0
  192.2950  174.5530  145.0690 C   0  0  1  0  0  0  0  0  0  0  0  0
  189.1850  175.3720  145.6270 C   0  0  0  0  0  2  0  0  0  0  0  0
  193.6120  175.3010  145.2930 C   0  0  0  0  0  1  0  0  0  0  0  0
  190.0250  176.6550  145.4880 C   0  0  1  0  0  3  0  0  0  0  0  0
  189.9830  174.1820  146.1950 C   0  0  0  0  0  2  0  0  0  0  0  0
  192.1010  172.6980  143.4040 O   0  0  0  0  0  0  0  0  0  0  0  0
  191.6050  171.4450  143.5840 N   0  0  0  0  0  2  0  0  0  0  0  0
  192.4690  170.5330  142.8500 C   0  0  0  0  0  2  0  0  0  0  0  0
  192.4010  169.1490  143.4720 C   0  0  0  0  0  1  0  0  0  0  0  0
  193.6550  170.7660  137.7900 C   0  0  0  0  0  0  0  0  0  0  0  0
  193.9190  170.0270  138.9550 C   0  0  0  0  0  3  0  0  0  0  0  0
  195.3030  172.4060  138.4970 C   0  0  0  0  0  3  0  0  0  0  0  0
  195.5830  171.6490  139.6400 C   0  0  0  0  0  0  0  0  0  0  0  0
  195.1220  169.6990  141.0140 O   0  0  0  0  0  1  0  0  0  0  0  0
  194.8810  170.4570  139.8720 C   0  0  0  0  0  0  0  0  0  0  0  0
  194.3340  171.9770  137.5880 C   0  0  0  0  0  3  0  0  0  0  0  0
  191.2130  170.8720  137.1710 N   0  0  0  0  0  0  0  0  0  0  0  0
  191.4990  170.9270  134.8340 O   0  0  0  0  0  0  0  0  0  0  0  0
  190.5520  170.8090  135.8750 C   0  0  0  0  0  2  0  0  0  0  0  0
  192.7570  170.6620  135.4020 C   0  0  1  0  0  3  0  0  0  0  0  0
  192.5340  170.3470  136.8590 C   0  0  1  0  0  3  0  0  0  0  0  0
  191.2980  172.2390  137.4960 N   0  0  0  0  0  2  0  0  0  0  0  0
  190.2530  172.9110  136.7400 C   0  0  0  0  0  2  0  0  0  0  0  0
  189.0700  173.2100  137.6480 C   0  0  2  0  0  3  0  0  0  0  0  0
  188.5230  174.4470  137.3050 O   0  0  0  0  0  1  0  0  0  0  0  0
  189.4590  173.2100  139.1280 C   0  0  1  0  0  3  0  0  0  0  0  0
  188.2640  174.3720  141.3390 C   0  0  2  0  0  3  0  0  0  0  0  0
  188.9210  173.2140  142.1030 C   0  0  2  0  0  3  0  0  0  0  0  0
  189.3670  172.0660  141.1850 C   0  0  0  0  0  2  0  0  0  0  0  0
  189.2540  174.8800  139.8750 S   0  0  0  0  0  0  0  0  0  0  0  0
  188.7470  172.1650  139.8670 N   0  0  0  0  0  2  0  0  0  0  0  0
  188.0370  172.7190  143.0670 O   0  0  0  0  0  1  0  0  0  0  0  0
  186.5340  175.4760  142.8030 C   0  0  0  0  0  2  0  0  0  0  0  0
  184.5840  178.9260  143.6560 O   0  0  0  0  0  0  0  0  0  0  0  0
  187.9410  178.0540  142.5460 C   0  0  0  0  0  2  0  0  0  0  0  0
  186.2560  176.6340  143.7540 C   0  0  0  0  0  2  0  0  0  0  0  0
  186.6070  177.8920  143.1070 N   0  0  0  0  0  0  0  0  0  0  0  0
  187.9700  175.5540  142.2700 C   0  0  0  0  0  3  0  0  0  0  0  0
  188.2340  176.9040  141.5880 C   0  0  0  0  0  2  0  0  0  0  0  0
  185.7410  179.0240  143.1700 C   0  0  0  0  0  3  0  0  0  0  0  0
  193.4020  169.4680  134.7050 C   0  0  0  0  0  2  0  0  0  0  0  0
  195.4450  168.3010  135.3140 N   0  0  0  0  0  1  0  0  0  0  0  0
  194.9150  169.5500  134.7990 C   0  0  0  0  0  2  0  0  0  0  0  0
  1  6  1  0  0  0  0
  2  4  1  0  0  0  0
  3  6  2  0  0  0  0
  4  9  2  0  0  0  0
  5  3  2  0  0  0  0
  5  7  1  0  0  0  0
  6  8  1  0  0  0  0
  7  2  2  0  0  0  0
  8 14  1  6  0  0  0
  9  8  1  0  0  0  0
 10 12  2  0  0  0  0
 11 14  1  0  0  0  0
 11 12  1  0  0  0  0
 12 15  1  0  0  0  0
 14 13  2  0  0  0  0
 15 17  1  0  0  0  0
 16 18  2  0  0  0  0
 17 16  2  0  0  0  0
 19 18  1  0  0  0  0
 20 19  1  6  0  0  0
 20 26  1  0  0  0  0
 21 23  1  0  0  0  0
 21 26  1  0  0  0  0
 22 24  1  0  0  0  0
 25 30  1  6  0  0  0
 25 24  1  0  0  0  0
 26 28  1  1  0  0  0
 26 25  1  0  0  0  0
 27 30  1  0  0  0  0
 29 23  1  6  0  0  0
 29 27  1  0  0  0  0
 29 22  1  0  0  0  0
 31 32  1  0  0  0  0
 31 20  1  0  0  0  0
 33 34  1  0  0  0  0
 33 32  1  0  0  0  0
 35 36  1  0  0  0  0
 36 40  2  0  0  0  0
 37 38  2  0  0  0  0
 38 40  1  0  0  0  0
 38  1  1  0  0  0  0
 40 39  1  0  0  0  0
 41 35  2  0  0  0  0
 41 37  1  0  0  0  0
 42 47  1  0  0  0  0
 43 45  1  0  0  0  0
 43 44  1  0  0  0  0
 44 42  1  0  0  0  0
 45 66  1  6  0  0  0
 45 46  1  0  0  0  0
 46 42  1  0  0  0  0
 46 35  1  1  0  0  0
 48 47  1  0  0  0  0
 48 49  1  0  0  0  0
 49 50  1  6  0  0  0
 51 49  1  6  0  0  0
 51 56  1  0  0  0  0
 51 55  1  0  0  0  0
 52 53  1  0  0  0  0
 52 63  1  1  0  0  0
 53 57  1  1  0  0  0
 54 53  1  0  0  0  0
 55 52  1  0  0  0  0
 56 54  1  0  0  0  0
 58 61  1  0  0  0  0
 60 62  1  0  0  0  0
 62 65  1  0  0  0  0
 62 61  1  0  0  0  0
 63 58  1  0  0  0  0
 64 63  1  0  0  0  0
 64 60  1  0  0  0  0
 65 59  2  0  0  0  0
 66 68  1  0  0  0  0
 68 67  1  0  0  0  0
M  END
>  <MODEL>
8

>  <REMARK>
 VINA RESULT:      -4.1      2.533      6.187
  Name = 
  19 active torsions:
  status: ('A' for Active; 'I' for Inactive)
    1  A    between atoms: C_1  and  C_26
    2  A    between atoms: C_1  and  C_61
    3  A    between atoms: N_2  and  N_19
    4  A    between atoms: C_7  and  C_45
    5  A    between atoms: C_11  and  C_52
    6  A    between atoms: N_12  and  C_32
    7  A    between atoms: N_12  and  O_59
    8  A    between atoms: C_13  and  C_41
    9  A    between atoms: C_13  and  C_62
   10  A    between atoms: C_17  and  C_53
   11  A    between atoms: N_19  and  C_38
   12  A    between atoms: C_20  and  C_26
   13  A    between atoms: C_22  and  C_30
   14  A    between atoms: C_22  and  C_56
   15  A    between atoms: C_24  and  C_44
   16  A    between atoms: C_24  and  C_49
   17  A    between atoms: C_26  and  O_59
   18  A    between atoms: C_38  and  C_45
   19  A    between atoms: C_63  and  C_64
                            x       y       z     vdW  Elec       q    Type
                         _______ _______ _______ _____ _____    ______ ____

>  <TORSDO>
F 19

$$$$
=
 OpenBabel11042417363D

 68 74  0  0  1  0  0  0  0  0999 V2000
  195.7210  170.2860  144.3790 C   0  0  0  0  0  2  0  0  0  0  0  0
  197.4660  174.6760  143.2100 C   0  0  0  0  0  3  0  0  0  0  0  0
  197.1090  172.2150  144.8220 C   0  0  0  0  0  0  0  0  0  0  0  0
  196.6970  173.8690  142.2200 C   0  0  0  0  0  3  0  0  0  0  0  0
  197.4320  173.3360  145.3740 C   0  0  0  0  0  3  0  0  0  0  0  0
  196.8550  171.2150  144.0450 C   0  0  0  0  0  0  0  0  0  0  0  0
  197.7710  174.4810  144.5110 C   0  0  0  0  0  3  0  0  0  0  0  0
  197.3670  171.4280  142.6460 C   0  0  2  0  0  3  0  0  0  0  0  0
  196.6250  172.5500  141.9710 C   0  0  0  0  0  3  0  0  0  0  0  0
  197.8900  169.4730  138.2010 N   0  0  0  0  0  2  0  0  0  0  0  0
  197.6640  170.3180  140.3820 N   0  0  0  0  0  2  0  0  0  0  0  0
  197.4110  169.3150  139.3920 C   0  0  0  0  0  0  0  0  0  0  0  0
  197.1940  169.0490  142.2920 O   0  0  0  0  0  0  0  0  0  0  0  0
  197.3690  170.1900  141.7810 C   0  0  0  0  0  0  0  0  0  0  0  0
  196.4840  168.1670  139.6620 C   0  0  0  0  0  2  0  0  0  0  0  0
  194.4090  169.3030  139.1150 C   0  0  0  0  0  0  0  0  0  0  0  0
  195.2130  168.3080  138.8930 C   0  0  0  0  0  3  0  0  0  0  0  0
  193.6090  170.3110  139.3310 C   0  0  0  0  0  3  0  0  0  0  0  0
  194.1200  171.7140  139.3180 C   0  0  0  0  0  2  0  0  0  0  0  0
  193.8600  172.3830  137.9600 C   0  0  1  0  0  3  0  0  0  0  0  0
  195.5800  173.9800  138.8900 C   0  0  0  0  0  2  0  0  0  0  0  0
  196.9700  175.5650  136.2420 C   0  0  0  0  0  2  0  0  0  0  0  0
  196.5780  175.1280  138.6880 C   0  0  0  0  0  2  0  0  0  0  0  0
  195.8500  174.7370  135.5940 C   0  0  0  0  0  2  0  0  0  0  0  0
  195.5250  173.4440  136.3600 C   0  0  2  0  0  3  0  0  0  0  0  0
  194.6940  173.6580  137.6680 C   0  0  1  0  0  0  0  0  0  0  0  0
  197.9290  173.4590  137.2780 C   0  0  0  0  0  2  0  0  0  0  0  0
  193.7030  174.8090  137.4770 C   0  0  0  0  0  1  0  0  0  0  0  0
  197.5400  174.9310  137.5110 C   0  0  1  0  0  3  0  0  0  0  0  0
  196.8240  172.6420  136.5800 C   0  0  0  0  0  2  0  0  0  0  0  0
  193.7830  171.4610  136.8940 O   0  0  0  0  0  0  0  0  0  0  0  0
  192.7450  171.8410  136.1030 N   0  0  0  0  0  2  0  0  0  0  0  0
  192.8130  171.0360  134.8930 C   0  0  0  0  0  2  0  0  0  0  0  0
  192.5530  169.5790  135.2310 C   0  0  0  0  0  1  0  0  0  0  0  0
  191.8940  171.9140  143.2400 C   0  0  0  0  0  0  0  0  0  0  0  0
  192.2900  170.6470  142.7810 C   0  0  0  0  0  3  0  0  0  0  0  0
  193.9910  172.0930  144.4550 C   0  0  0  0  0  3  0  0  0  0  0  0
  194.3930  170.8450  143.9690 C   0  0  0  0  0  0  0  0  0  0  0  0
  193.8990  168.8610  142.6570 O   0  0  0  0  0  1  0  0  0  0  0  0
  193.5330  170.1160  143.1330 C   0  0  0  0  0  0  0  0  0  0  0  0
  192.7440  172.6160  144.1080 C   0  0  0  0  0  3  0  0  0  0  0  0
  189.7190  172.8670  144.0880 N   0  0  0  0  0  0  0  0  0  0  0  0
  189.3460  174.3800  142.3220 O   0  0  0  0  0  0  0  0  0  0  0  0
  188.7790  173.7960  143.4760 C   0  0  0  0  0  2  0  0  0  0  0  0
  190.4360  173.5720  141.9560 C   0  0  1  0  0  3  0  0  0  0  0  0
  190.5010  172.4320  142.9400 C   0  0  1  0  0  3  0  0  0  0  0  0
  190.5170  173.6390  144.9550 N   0  0  0  0  0  2  0  0  0  0  0  0
  189.6030  174.4000  145.7920 C   0  0  0  0  0  2  0  0  0  0  0  0
  190.1910  175.7720  146.0850 C   0  0  2  0  0  3  0  0  0  0  0  0
  191.0510  175.6840  147.1790 O   0  0  0  0  0  1  0  0  0  0  0  0
  189.1100  176.8190  146.3600 C   0  0  1  0  0  3  0  0  0  0  0  0
  186.7910  177.4660  144.9920 C   0  0  2  0  0  3  0  0  0  0  0  0
  186.2900  177.9100  146.3740 C   0  0  2  0  0  3  0  0  0  0  0  0
  187.1320  177.3460  147.5270 C   0  0  0  0  0  2  0  0  0  0  0  0
  188.6080  177.6860  144.8150 S   0  0  0  0  0  0  0  0  0  0  0  0
  187.9750  176.2400  147.0820 N   0  0  0  0  0  2  0  0  0  0  0  0
  184.9570  177.5240  146.5430 O   0  0  0  0  0  1  0  0  0  0  0  0
  184.6080  177.5760  143.7370 C   0  0  0  0  0  2  0  0  0  0  0  0
  182.8450  177.5550  140.0860 O   0  0  0  0  0  0  0  0  0  0  0  0
  185.9730  178.8320  141.4450 C   0  0  0  0  0  2  0  0  0  0  0  0
  183.8290  178.2980  142.6430 C   0  0  0  0  0  2  0  0  0  0  0  0
  184.6130  178.3120  141.4140 N   0  0  0  0  0  0  0  0  0  0  0  0
  186.0160  178.1670  143.8710 C   0  0  0  0  0  3  0  0  0  0  0  0
  186.7680  178.1160  142.5330 C   0  0  0  0  0  2  0  0  0  0  0  0
  184.0210  177.9970  140.1540 C   0  0  0  0  0  3  0  0  0  0  0  0
  190.2330  173.0300  140.5450 C   0  0  0  0  0  2  0  0  0  0  0  0
  188.2980  173.4920  139.1500 N   0  0  0  0  0  1  0  0  0  0  0  0
  189.5290  174.0540  139.6750 C   0  0  0  0  0  2  0  0  0  0  0  0
  2  7  2  0  0  0  0
  3  5  2  0  0  0  0
  4  2  1  0  0  0  0
  6  1  1  0  0  0  0
  6  3  2  0  0  0  0
  7  5  1  0  0  0  0
  8 14  1  6  0  0  0
  8  6  1  0  0  0  0
  9  4  2  0  0  0  0
  9  8  1  0  0  0  0
 10 12  2  0  0  0  0
 11 14  1  0  0  0  0
 12 15  1  0  0  0  0
 12 11  1  0  0  0  0
 14 13  2  0  0  0  0
 16 18  2  0  0  0  0
 17 16  2  0  0  0  0
 17 15  1  0  0  0  0
 19 18  1  0  0  0  0
 20 19  1  1  0  0  0
 23 21  1  0  0  0  0
 24 22  1  0  0  0  0
 25 24  1  1  0  0  0
 25 30  1  0  0  0  0
 25 26  1  0  0  0  0
 26 28  1  6  0  0  0
 26 20  1  0  0  0  0
 26 21  1  0  0  0  0
 27 29  1  0  0  0  0
 29 22  1  6  0  0  0
 29 23  1  0  0  0  0
 30 27  1  0  0  0  0
 31 20  1  0  0  0  0
 32 31  1  0  0  0  0
 33 34  1  0  0  0  0
 33 32  1  0  0  0  0
 35 41  1  0  0  0  0
 36 40  1  0  0  0  0
 36 35  2  0  0  0  0
 38  1  1  0  0  0  0
 38 37  1  0  0  0  0
 39 40  1  0  0  0  0
 40 38  2  0  0  0  0
 41 37  2  0  0  0  0
 42 47  1  0  0  0  0
 43 44  1  0  0  0  0
 44 42  1  0  0  0  0
 45 66  1  6  0  0  0
 45 43  1  0  0  0  0
 45 46  1  0  0  0  0
 46 35  1  1  0  0  0
 46 42  1  0  0  0  0
 47 48  1  0  0  0  0
 48 49  1  0  0  0  0
 49 50  1  1  0  0  0
 51 49  1  6  0  0  0
 51 56  1  0  0  0  0
 52 63  1  6  0  0  0
 52 53  1  0  0  0  0
 53 57  1  1  0  0  0
 53 54  1  0  0  0  0
 55 52  1  0  0  0  0
 55 51  1  0  0  0  0
 56 54  1  0  0  0  0
 58 63  1  0  0  0  0
 59 65  2  0  0  0  0
 60 64  1  0  0  0  0
 61 58  1  0  0  0  0
 62 60  1  0  0  0  0
 62 61  1  0  0  0  0
 64 63  1  0  0  0  0
 65 62  1  0  0  0  0
 67 68  1  0  0  0  0
 68 66  1  0  0  0  0
M  END
>  <MODEL>
9

>  <REMARK>
 VINA RESULT:      -4.0      2.307      5.652
  Name = 
  19 active torsions:
  status: ('A' for Active; 'I' for Inactive)
    1  A    between atoms: C_1  and  C_26
    2  A    between atoms: C_1  and  C_61
    3  A    between atoms: N_2  and  N_19
    4  A    between atoms: C_7  and  C_45
    5  A    between atoms: C_11  and  C_52
    6  A    between atoms: N_12  and  C_32
    7  A    between atoms: N_12  and  O_59
    8  A    between atoms: C_13  and  C_41
    9  A    between atoms: C_13  and  C_62
   10  A    between atoms: C_17  and  C_53
   11  A    between atoms: N_19  and  C_38
   12  A    between atoms: C_20  and  C_26
   13  A    between atoms: C_22  and  C_30
   14  A    between atoms: C_22  and  C_56
   15  A    between atoms: C_24  and  C_44
   16  A    between atoms: C_24  and  C_49
   17  A    between atoms: C_26  and  O_59
   18  A    between atoms: C_38  and  C_45
   19  A    between atoms: C_63  and  C_64
                            x       y       z     vdW  Elec       q    Type
                         _______ _______ _______ _____ _____    ______ ____

>  <TORSDO>
F 19

$$$$
