=
 OpenBabel11042419483D

 50 56  0  0  1  0  0  0  0  0999 V2000
  190.1850  176.9640  144.0660 C   0  0  0  0  0  0  0  0  0  0  0  0
  189.9750  178.3990  143.6350 C   0  0  0  0  0  2  0  0  0  0  0  0
  191.3430  177.9520  144.1080 C   0  0  0  0  0  2  0  0  0  0  0  0
  190.4220  175.8690  143.0370 C   0  0  0  0  0  0  0  0  0  0  0  0
  190.2300  172.7950  142.3650 C   0  0  0  0  0  0  0  0  0  0  0  0
  189.8120  171.6260  142.5820 O   0  0  0  0  0  0  0  0  0  0  0  0
  192.1440  174.3010  142.0840 C   0  0  0  0  0  2  0  0  0  0  0  0
  188.3430  175.7940  141.4790 C   0  0  0  0  0  0  0  0  0  0  0  0
  188.3070  173.6970  140.9560 C   0  0  0  0  0  0  0  0  0  0  0  0
  189.3300  175.1980  142.2560 C   0  0  1  0  0  3  0  0  0  0  0  0
  191.5860  173.0730  142.5270 O   0  0  0  0  0  0  0  0  0  0  0  0
  191.6880  175.4170  142.9690 C   0  0  0  0  0  3  0  0  0  0  0  0
  187.7650  174.8960  140.6620 N   0  0  0  0  0  0  0  0  0  0  0  0
  189.2690  173.8450  141.9490 C   0  0  0  0  0  0  0  0  0  0  0  0
  186.8870  177.4770  140.4160 C   0  0  0  0  0  1  0  0  0  0  0  0
  188.0720  177.2500  141.3340 C   0  0  0  0  0  2  0  0  0  0  0  0
  188.3350  172.3480  139.7470 S   0  0  0  0  0  0  0  0  0  0  0  0
  189.5170  173.7040  135.5680 C   0  0  2  0  0  3  0  0  0  0  0  0
  188.9630  174.7840  136.4850 C   0  0  0  0  0  2  0  0  0  0  0  0
  189.7520  172.1660  137.4880 O   0  0  0  0  0  0  0  0  0  0  0  0
  188.2900  174.1200  137.6770 C   0  0  0  0  0  2  0  0  0  0  0  0
  190.4180  172.7480  136.3660 C   0  0  2  0  0  3  0  0  0  0  0  0
  189.2400  173.1520  138.3780 C   0  0  1  0  0  0  0  0  0  0  0  0
  190.2850  173.8810  138.9530 O   0  0  0  0  0  1  0  0  0  0  0  0
  190.2760  174.3310  134.5890 F   0  0  0  0  0  0  0  0  0  0  0  0
  192.5970  172.3890  136.4790 C   0  0  0  0  0  1  0  0  0  0  0  0
  191.6270  173.3620  136.7380 O   0  0  0  0  0  0  0  0  0  0  0  0
  189.5200  176.6350  145.4160 C   0  0  1  0  0  3  0  0  0  0  0  0
  185.7320  177.1800  144.2850 C   0  0  0  0  0  2  0  0  0  0  0  0
  187.0310  176.3840  144.6520 C   0  0  0  0  0  2  0  0  0  0  0  0
  184.2630  178.1730  146.1460 O   0  0  0  0  0  0  0  0  0  0  0  0
  185.2940  177.2990  146.5210 C   0  0  2  0  0  3  0  0  0  0  0  0
  188.0890  177.2150  145.4560 C   0  0  1  0  0  3  0  0  0  0  0  0
  186.4330  177.7310  147.3730 C   0  0  0  0  0  3  0  0  0  0  0  0
  187.7040  177.6210  146.8920 C   0  0  0  0  0  3  0  0  0  0  0  0
  185.4290  178.2120  145.3580 C   0  0  1  0  0  3  0  0  0  0  0  0
  189.5890  175.1430  145.8000 C   0  0  0  0  0  2  0  0  0  0  0  0
  190.3270  174.8780  147.1140 C   0  0  0  0  0  2  0  0  0  0  0  0
  191.6910  175.5680  147.1400 C   0  0  0  0  0  2  0  0  0  0  0  0
  195.0060  174.8970  145.2290 C   0  0  0  0  0  0  0  0  0  0  0  0
  196.2110  175.5150  144.9030 O   0  0  0  0  0  1  0  0  0  0  0  0
  194.0170  175.6190  145.9320 C   0  0  0  0  0  0  0  0  0  0  0  0
  193.6330  172.9090  145.3160 C   0  0  0  0  0  3  0  0  0  0  0  0
  192.7930  174.9770  146.2920 C   0  0  0  0  0  0  0  0  0  0  0  0
  194.2970  177.0500  146.2630 C   0  0  0  0  0  1  0  0  0  0  0  0
  192.6540  173.6130  146.0220 C   0  0  0  0  0  3  0  0  0  0  0  0
  194.7750  173.5560  144.8620 C   0  0  0  0  0  0  0  0  0  0  0  0
  195.7980  172.7620  144.1250 C   0  0  0  0  0  2  0  0  0  0  0  0
  196.2650  171.6000  144.9710 C   0  0  0  0  0  2  0  0  0  0  0  0
  197.0350  172.0970  146.0390 O   0  0  0  0  0  1  0  0  0  0  0  0
  1  3  1  0  0  0  0
  1 28  1  0  0  0  0
  2  1  1  0  0  0  0
  2  3  1  0  0  0  0
  4  1  1  0  0  0  0
  5 11  1  0  0  0  0
  5  6  2  0  0  0  0
  7 11  1  0  0  0  0
  7 12  1  0  0  0  0
  9 14  2  0  0  0  0
 10  8  1  6  0  0  0
 10  4  1  0  0  0  0
 12  4  2  0  0  0  0
 13  9  1  0  0  0  0
 13  8  2  0  0  0  0
 14 10  1  0  0  0  0
 14  5  1  0  0  0  0
 15 16  1  0  0  0  0
 16  8  1  0  0  0  0
 17  9  1  0  0  0  0
 18 25  1  6  0  0  0
 18 22  1  0  0  0  0
 18 19  1  0  0  0  0
 19 21  1  0  0  0  0
 20 23  1  0  0  0  0
 21 23  1  0  0  0  0
 22 27  1  1  0  0  0
 22 20  1  0  0  0  0
 23 24  1  1  0  0  0
 23 17  1  0  0  0  0
 26 27  1  0  0  0  0
 28 37  1  6  0  0  0
 29 30  1  0  0  0  0
 30 33  1  0  0  0  0
 31 32  1  0  0  0  0
 32 34  1  1  0  0  0
 33 28  1  1  0  0  0
 33 35  1  0  0  0  0
 35 34  2  0  0  0  0
 36 29  1  6  0  0  0
 36 31  1  0  0  0  0
 36 32  1  0  0  0  0
 37 38  1  0  0  0  0
 38 39  1  0  0  0  0
 40 42  1  0  0  0  0
 41 40  1  0  0  0  0
 42 45  1  0  0  0  0
 42 44  2  0  0  0  0
 43 46  2  0  0  0  0
 44 39  1  0  0  0  0
 46 44  1  0  0  0  0
 47 40  2  0  0  0  0
 47 43  1  0  0  0  0
 48 47  1  0  0  0  0
 48 49  1  0  0  0  0
 49 50  1  0  0  0  0
M  END
>  <MODEL>
1

>  <REMARK>
 VINA RESULT:      -7.7      0.000      0.000
  Name = 
  13 active torsions:
  status: ('A' for Active; 'I' for Inactive)
    1  A    between atoms: C_3  and  C_6
    2  A    between atoms: C_3  and  C_11
    3  A    between atoms: C_11  and  C_35
    4  A    between atoms: C_11  and  C_41
    5  A    between atoms: C_12  and  C_36
    6  A    between atoms: C_12  and  C_45
    7  A    between atoms: C_16  and  C_42
    8  A    between atoms: C_24  and  C_37
    9  A    between atoms: C_25  and  O_38
   10  A    between atoms: C_26  and  S_31
   11  A    between atoms: C_27  and  S_31
   12  A    between atoms: C_37  and  C_39
   13  A    between atoms: C_39  and  C_41
                            x       y       z     vdW  Elec       q    Type
                         _______ _______ _______ _____ _____    ______ ____

>  <TORSDO>
F 13

$$$$
=
 OpenBabel11042419483D

 50 56  0  0  1  0  0  0  0  0999 V2000
  188.4110  175.6850  143.1510 C   0  0  0  0  0  0  0  0  0  0  0  0
  187.0480  175.7710  142.5010 C   0  0  0  0  0  2  0  0  0  0  0  0
  188.1960  176.5890  141.9460 C   0  0  0  0  0  2  0  0  0  0  0  0
  189.3570  174.5370  142.8290 C   0  0  0  0  0  0  0  0  0  0  0  0
  190.4870  172.5920  140.6220 C   0  0  0  0  0  0  0  0  0  0  0  0
  190.6690  172.2420  139.4250 O   0  0  0  0  0  0  0  0  0  0  0  0
  189.6060  172.0330  142.8410 C   0  0  0  0  0  2  0  0  0  0  0  0
  191.7020  175.5600  142.3710 C   0  0  0  0  0  0  0  0  0  0  0  0
  192.4850  174.1430  140.9370 C   0  0  0  0  0  0  0  0  0  0  0  0
  190.6500  174.6970  142.0850 C   0  0  1  0  0  3  0  0  0  0  0  0
  189.6660  171.8170  141.4400 O   0  0  0  0  0  0  0  0  0  0  0  0
  188.8860  173.3130  143.1280 C   0  0  0  0  0  3  0  0  0  0  0  0
  192.8180  175.1920  141.7170 N   0  0  0  0  0  0  0  0  0  0  0  0
  191.1460  173.8200  141.1290 C   0  0  0  0  0  0  0  0  0  0  0  0
  191.3490  177.9550  142.8380 C   0  0  0  0  0  1  0  0  0  0  0  0
  191.7390  176.6120  143.4220 C   0  0  0  0  0  2  0  0  0  0  0  0
  193.7230  172.9400  140.3880 S   0  0  0  0  0  0  0  0  0  0  0  0
  195.0740  175.4030  136.8100 C   0  0  2  0  0  3  0  0  0  0  0  0
  195.7770  174.0680  137.0010 C   0  0  0  0  0  2  0  0  0  0  0  0
  193.3550  174.7570  138.4640 O   0  0  0  0  0  0  0  0  0  0  0  0
  195.4850  173.5540  138.4020 C   0  0  0  0  0  2  0  0  0  0  0  0
  193.5810  175.2640  137.1470 C   0  0  2  0  0  3  0  0  0  0  0  0
  193.9820  173.4960  138.6670 C   0  0  1  0  0  0  0  0  0  0  0  0
  193.4150  172.5270  137.8360 O   0  0  0  0  0  1  0  0  0  0  0  0
  195.2060  175.7620  135.4750 F   0  0  0  0  0  0  0  0  0  0  0  0
  191.7210  175.2390  135.9500 C   0  0  0  0  0  1  0  0  0  0  0  0
  192.8960  174.5140  136.1750 O   0  0  0  0  0  0  0  0  0  0  0  0
  188.4700  176.3820  144.5240 C   0  0  1  0  0  3  0  0  0  0  0  0
  185.0700  176.7240  146.5850 C   0  0  0  0  0  2  0  0  0  0  0  0
  186.6150  176.6000  146.3550 C   0  0  0  0  0  2  0  0  0  0  0  0
  183.8890  178.9750  146.2050 O   0  0  0  0  0  0  0  0  0  0  0  0
  185.2920  178.9600  146.1900 C   0  0  2  0  0  3  0  0  0  0  0  0
  187.0780  176.9370  144.8970 C   0  0  1  0  0  3  0  0  0  0  0  0
  186.0790  179.3200  144.9810 C   0  0  0  0  0  3  0  0  0  0  0  0
  186.9370  178.4050  144.4480 C   0  0  0  0  0  3  0  0  0  0  0  0
  184.4940  177.8110  145.6940 C   0  0  1  0  0  3  0  0  0  0  0  0
  189.1060  175.5220  145.6350 C   0  0  0  0  0  2  0  0  0  0  0  0
  190.0960  176.2860  146.5160 C   0  0  0  0  0  2  0  0  0  0  0  0
  191.1040  175.3440  147.1750 C   0  0  0  0  0  2  0  0  0  0  0  0
  194.0960  174.2310  144.9610 C   0  0  0  0  0  0  0  0  0  0  0  0
  194.4490  173.2590  144.0280 O   0  0  0  0  0  1  0  0  0  0  0  0
  192.8290  174.1780  145.5820 C   0  0  0  0  0  0  0  0  0  0  0  0
  194.5820  176.3070  146.1020 C   0  0  0  0  0  3  0  0  0  0  0  0
  192.4550  175.1910  146.5170 C   0  0  0  0  0  0  0  0  0  0  0  0
  191.9260  173.0370  145.2360 C   0  0  0  0  0  1  0  0  0  0  0  0
  193.3250  176.2670  146.7120 C   0  0  0  0  0  3  0  0  0  0  0  0
  194.9970  175.2650  145.2820 C   0  0  0  0  0  0  0  0  0  0  0  0
  196.3400  175.3560  144.6420 C   0  0  0  0  0  2  0  0  0  0  0  0
  196.2760  176.2410  143.4180 C   0  0  0  0  0  2  0  0  0  0  0  0
  197.5430  176.8140  143.2050 O   0  0  0  0  0  1  0  0  0  0  0  0
  1 28  1  0  0  0  0
  2  1  1  0  0  0  0
  3  2  1  0  0  0  0
  3  1  1  0  0  0  0
  4 12  2  0  0  0  0
  4  1  1  0  0  0  0
  5 14  1  0  0  0  0
  5 11  1  0  0  0  0
  6  5  2  0  0  0  0
  7 12  1  0  0  0  0
  8 16  1  0  0  0  0
  9 14  2  0  0  0  0
  9 13  1  0  0  0  0
 10 14  1  1  0  0  0
 10  8  1  0  0  0  0
 10  4  1  0  0  0  0
 11  7  1  0  0  0  0
 13  8  2  0  0  0  0
 15 16  1  0  0  0  0
 17  9  1  0  0  0  0
 18 25  1  6  0  0  0
 18 19  1  0  0  0  0
 18 22  1  0  0  0  0
 19 21  1  0  0  0  0
 20 23  1  0  0  0  0
 21 23  1  0  0  0  0
 22 27  1  6  0  0  0
 22 20  1  0  0  0  0
 23 24  1  6  0  0  0
 23 17  1  0  0  0  0
 26 27  1  0  0  0  0
 28 37  1  1  0  0  0
 30 29  1  0  0  0  0
 32 34  1  6  0  0  0
 32 31  1  0  0  0  0
 33 28  1  1  0  0  0
 33 30  1  0  0  0  0
 35 33  1  0  0  0  0
 35 34  2  0  0  0  0
 36 32  1  0  0  0  0
 36 31  1  0  0  0  0
 36 29  1  1  0  0  0
 37 38  1  0  0  0  0
 38 39  1  0  0  0  0
 40 47  2  0  0  0  0
 40 42  1  0  0  0  0
 41 40  1  0  0  0  0
 42 44  2  0  0  0  0
 43 46  2  0  0  0  0
 44 46  1  0  0  0  0
 44 39  1  0  0  0  0
 45 42  1  0  0  0  0
 47 43  1  0  0  0  0
 48 47  1  0  0  0  0
 49 48  1  0  0  0  0
 50 49  1  0  0  0  0
M  END
>  <MODEL>
2

>  <REMARK>
 VINA RESULT:      -7.6      2.183      3.551
  Name = 
  13 active torsions:
  status: ('A' for Active; 'I' for Inactive)
    1  A    between atoms: C_3  and  C_6
    2  A    between atoms: C_3  and  C_11
    3  A    between atoms: C_11  and  C_35
    4  A    between atoms: C_11  and  C_41
    5  A    between atoms: C_12  and  C_36
    6  A    between atoms: C_12  and  C_45
    7  A    between atoms: C_16  and  C_42
    8  A    between atoms: C_24  and  C_37
    9  A    between atoms: C_25  and  O_38
   10  A    between atoms: C_26  and  S_31
   11  A    between atoms: C_27  and  S_31
   12  A    between atoms: C_37  and  C_39
   13  A    between atoms: C_39  and  C_41
                            x       y       z     vdW  Elec       q    Type
                         _______ _______ _______ _____ _____    ______ ____

>  <TORSDO>
F 13

$$$$
=
 OpenBabel11042419483D

 50 56  0  0  1  0  0  0  0  0999 V2000
  192.1640  175.1900  145.2860 C   0  0  0  0  0  0  0  0  0  0  0  0
  192.9730  176.4650  145.3650 C   0  0  0  0  0  2  0  0  0  0  0  0
  193.0360  175.4660  146.5020 C   0  0  0  0  0  2  0  0  0  0  0  0
  192.6700  173.9930  144.4950 C   0  0  0  0  0  0  0  0  0  0  0  0
  191.9590  171.2460  143.1240 C   0  0  0  0  0  0  0  0  0  0  0  0
  191.1420  170.4000  142.6690 O   0  0  0  0  0  0  0  0  0  0  0  0
  193.7830  171.7440  144.6840 C   0  0  0  0  0  2  0  0  0  0  0  0
  192.6390  174.6470  141.9800 C   0  0  0  0  0  0  0  0  0  0  0  0
  192.2550  172.7240  141.0690 C   0  0  0  0  0  0  0  0  0  0  0  0
  192.3990  173.7740  143.0350 C   0  0  1  0  0  3  0  0  0  0  0  0
  192.6980  170.9310  144.2630 O   0  0  0  0  0  0  0  0  0  0  0  0
  193.2680  173.0380  145.2300 C   0  0  0  0  0  3  0  0  0  0  0  0
  192.6020  173.9990  140.8010 N   0  0  0  0  0  0  0  0  0  0  0  0
  192.1080  172.5530  142.4420 C   0  0  0  0  0  0  0  0  0  0  0  0
  194.6320  176.0890  142.1450 C   0  0  0  0  0  1  0  0  0  0  0  0
  193.1180  176.0530  142.0690 C   0  0  0  0  0  2  0  0  0  0  0  0
  192.6880  171.3690  139.9460 S   0  0  0  0  0  0  0  0  0  0  0  0
  190.1110  171.2720  136.1990 C   0  0  2  0  0  3  0  0  0  0  0  0
  190.0600  170.0290  137.0730 C   0  0  0  0  0  2  0  0  0  0  0  0
  191.2590  172.5150  138.0000 O   0  0  0  0  0  0  0  0  0  0  0  0
  191.2210  170.0680  138.0540 C   0  0  0  0  0  2  0  0  0  0  0  0
  190.1670  172.5310  137.0790 C   0  0  2  0  0  3  0  0  0  0  0  0
  191.2280  171.3730  138.8480 C   0  0  1  0  0  0  0  0  0  0  0  0
  190.0990  171.4060  139.6710 O   0  0  0  0  0  1  0  0  0  0  0  0
  188.9480  171.3020  135.4400 F   0  0  0  0  0  0  0  0  0  0  0  0
  188.7300  174.1410  137.5650 C   0  0  0  0  0  1  0  0  0  0  0  0
  188.9420  172.7680  137.7270 O   0  0  0  0  0  0  0  0  0  0  0  0
  190.6510  175.4230  145.4650 C   0  0  1  0  0  3  0  0  0  0  0  0
  188.6680  175.0740  142.0200 C   0  0  0  0  0  2  0  0  0  0  0  0
  188.9510  174.8920  143.5510 C   0  0  0  0  0  2  0  0  0  0  0  0
  187.7980  177.3240  141.1310 O   0  0  0  0  0  0  0  0  0  0  0  0
  187.8390  177.1400  142.5220 C   0  0  2  0  0  3  0  0  0  0  0  0
  190.0240  175.8760  144.1280 C   0  0  1  0  0  3  0  0  0  0  0  0
  188.6930  177.9720  143.4100 C   0  0  0  0  0  3  0  0  0  0  0  0
  189.6380  177.3670  144.1840 C   0  0  0  0  0  3  0  0  0  0  0  0
  188.8510  176.5290  141.6230 C   0  0  1  0  0  3  0  0  0  0  0  0
  189.9100  174.2400  146.1220 C   0  0  0  0  0  2  0  0  0  0  0  0
  188.9450  174.6590  147.2330 C   0  0  0  0  0  2  0  0  0  0  0  0
  188.9240  176.1760  147.4160 C   0  0  0  0  0  2  0  0  0  0  0  0
  186.0580  178.7870  147.1710 C   0  0  0  0  0  0  0  0  0  0  0  0
  185.7040  180.0520  147.6350 O   0  0  0  0  0  1  0  0  0  0  0  0
  187.2520  178.1850  147.6230 C   0  0  0  0  0  0  0  0  0  0  0  0
  185.6630  176.9190  145.6880 C   0  0  0  0  0  3  0  0  0  0  0  0
  187.6310  176.9000  147.1260 C   0  0  0  0  0  0  0  0  0  0  0  0
  188.0740  178.9270  148.6280 C   0  0  0  0  0  1  0  0  0  0  0  0
  186.8500  176.3210  146.1220 C   0  0  0  0  0  3  0  0  0  0  0  0
  185.2300  178.1120  146.2520 C   0  0  0  0  0  0  0  0  0  0  0  0
  183.9660  178.7190  145.7490 C   0  0  0  0  0  2  0  0  0  0  0  0
  184.0890  179.0360  144.2760 C   0  0  0  0  0  2  0  0  0  0  0  0
  185.1160  179.9820  144.1000 O   0  0  0  0  0  1  0  0  0  0  0  0
  1  2  1  0  0  0  0
  1 28  1  0  0  0  0
  1  3  1  0  0  0  0
  2  3  1  0  0  0  0
  4 12  2  0  0  0  0
  4  1  1  0  0  0  0
  5 11  1  0  0  0  0
  6  5  2  0  0  0  0
  7 12  1  0  0  0  0
  8 16  1  0  0  0  0
  9 14  2  0  0  0  0
 10  8  1  6  0  0  0
 10  4  1  0  0  0  0
 11  7  1  0  0  0  0
 13  9  1  0  0  0  0
 13  8  2  0  0  0  0
 14 10  1  0  0  0  0
 14  5  1  0  0  0  0
 16 15  1  0  0  0  0
 17  9  1  0  0  0  0
 18 25  1  1  0  0  0
 18 19  1  0  0  0  0
 18 22  1  0  0  0  0
 19 21  1  0  0  0  0
 20 23  1  0  0  0  0
 21 23  1  0  0  0  0
 22 27  1  1  0  0  0
 22 20  1  0  0  0  0
 23 24  1  1  0  0  0
 23 17  1  0  0  0  0
 26 27  1  0  0  0  0
 28 37  1  6  0  0  0
 29 30  1  0  0  0  0
 30 33  1  0  0  0  0
 31 36  1  0  0  0  0
 31 32  1  0  0  0  0
 32 34  1  1  0  0  0
 33 35  1  0  0  0  0
 33 28  1  1  0  0  0
 34 35  2  0  0  0  0
 36 29  1  6  0  0  0
 36 32  1  0  0  0  0
 37 38  1  0  0  0  0
 38 39  1  0  0  0  0
 40 42  1  0  0  0  0
 40 41  1  0  0  0  0
 42 45  1  0  0  0  0
 43 46  2  0  0  0  0
 43 47  1  0  0  0  0
 44 39  1  0  0  0  0
 44 42  2  0  0  0  0
 46 44  1  0  0  0  0
 47 40  2  0  0  0  0
 48 47  1  0  0  0  0
 49 48  1  0  0  0  0
 50 49  1  0  0  0  0
M  END
>  <MODEL>
3

>  <REMARK>
 VINA RESULT:      -7.4      2.110      5.948
  Name = 
  13 active torsions:
  status: ('A' for Active; 'I' for Inactive)
    1  A    between atoms: C_3  and  C_6
    2  A    between atoms: C_3  and  C_11
    3  A    between atoms: C_11  and  C_35
    4  A    between atoms: C_11  and  C_41
    5  A    between atoms: C_12  and  C_36
    6  A    between atoms: C_12  and  C_45
    7  A    between atoms: C_16  and  C_42
    8  A    between atoms: C_24  and  C_37
    9  A    between atoms: C_25  and  O_38
   10  A    between atoms: C_26  and  S_31
   11  A    between atoms: C_27  and  S_31
   12  A    between atoms: C_37  and  C_39
   13  A    between atoms: C_39  and  C_41
                            x       y       z     vdW  Elec       q    Type
                         _______ _______ _______ _____ _____    ______ ____

>  <TORSDO>
F 13

$$$$
=
 OpenBabel11042419483D

 50 56  0  0  1  0  0  0  0  0999 V2000
  188.5470  175.6910  143.3630 C   0  0  0  0  0  0  0  0  0  0  0  0
  187.1780  175.6290  142.7220 C   0  0  0  0  0  2  0  0  0  0  0  0
  188.2550  176.5000  142.1070 C   0  0  0  0  0  2  0  0  0  0  0  0
  189.5790  174.6050  143.1020 C   0  0  0  0  0  0  0  0  0  0  0  0
  190.8530  172.6250  141.0060 C   0  0  0  0  0  0  0  0  0  0  0  0
  191.0570  172.2190  139.8310 O   0  0  0  0  0  0  0  0  0  0  0  0
  190.0280  172.1330  143.2620 C   0  0  0  0  0  2  0  0  0  0  0  0
  191.8340  175.7800  142.5620 C   0  0  0  0  0  0  0  0  0  0  0  0
  192.7220  174.3450  141.2100 C   0  0  0  0  0  0  0  0  0  0  0  0
  190.8530  174.8200  142.3380 C   0  0  1  0  0  3  0  0  0  0  0  0
  190.0990  171.8380  141.8760 O   0  0  0  0  0  0  0  0  0  0  0  0
  189.2090  173.3670  143.4780 C   0  0  0  0  0  3  0  0  0  0  0  0
  192.9740  175.4630  141.9220 N   0  0  0  0  0  0  0  0  0  0  0  0
  191.4130  173.9290  141.4330 C   0  0  0  0  0  0  0  0  0  0  0  0
  191.2590  178.1540  142.8970 C   0  0  0  0  0  1  0  0  0  0  0  0
  191.7920  176.8930  143.5490 C   0  0  0  0  0  2  0  0  0  0  0  0
  194.0500  173.2130  140.7240 S   0  0  0  0  0  0  0  0  0  0  0  0
  194.7060  175.4530  136.8190 C   0  0  2  0  0  3  0  0  0  0  0  0
  195.7460  174.3980  137.1620 C   0  0  0  0  0  2  0  0  0  0  0  0
  193.2140  174.5880  138.5900 O   0  0  0  0  0  0  0  0  0  0  0  0
  195.5940  174.0150  138.6260 C   0  0  0  0  0  2  0  0  0  0  0  0
  193.3040  174.9570  137.2130 C   0  0  2  0  0  3  0  0  0  0  0  0
  194.1620  173.5850  138.9380 C   0  0  1  0  0  0  0  0  0  0  0  0
  193.8890  172.3960  138.2560 O   0  0  0  0  0  1  0  0  0  0  0  0
  194.7450  175.6530  135.4450 F   0  0  0  0  0  0  0  0  0  0  0  0
  191.4790  174.1270  136.2790 C   0  0  0  0  0  1  0  0  0  0  0  0
  192.8600  173.9260  136.3660 O   0  0  0  0  0  0  0  0  0  0  0  0
  188.5570  176.4730  144.6910 C   0  0  1  0  0  3  0  0  0  0  0  0
  185.0780  176.7100  146.6320 C   0  0  0  0  0  2  0  0  0  0  0  0
  186.6330  176.6340  146.4560 C   0  0  0  0  0  2  0  0  0  0  0  0
  183.8420  178.9240  146.2080 O   0  0  0  0  0  0  0  0  0  0  0  0
  185.2440  178.9520  146.2410 C   0  0  2  0  0  3  0  0  0  0  0  0
  187.1350  176.9850  145.0140 C   0  0  1  0  0  3  0  0  0  0  0  0
  186.0600  179.3350  145.0590 C   0  0  0  0  0  3  0  0  0  0  0  0
  186.9650  178.4470  144.5580 C   0  0  0  0  0  3  0  0  0  0  0  0
  184.4990  177.7780  145.7200 C   0  0  1  0  0  3  0  0  0  0  0  0
  189.2160  175.7120  145.8590 C   0  0  0  0  0  2  0  0  0  0  0  0
  190.2940  176.5170  146.5880 C   0  0  0  0  0  2  0  0  0  0  0  0
  191.3330  175.6030  147.2380 C   0  0  0  0  0  2  0  0  0  0  0  0
  194.7090  174.9300  145.4400 C   0  0  0  0  0  0  0  0  0  0  0  0
  195.9920  175.4570  145.3140 O   0  0  0  0  0  1  0  0  0  0  0  0
  193.7430  175.6150  146.2080 C   0  0  0  0  0  0  0  0  0  0  0  0
  193.1440  173.1270  145.0570 C   0  0  0  0  0  3  0  0  0  0  0  0
  192.4360  175.0590  146.3610 C   0  0  0  0  0  0  0  0  0  0  0  0
  194.1350  176.9190  146.8250 C   0  0  0  0  0  1  0  0  0  0  0  0
  192.1850  173.7940  145.8250 C   0  0  0  0  0  3  0  0  0  0  0  0
  194.3770  173.7150  144.8070 C   0  0  0  0  0  0  0  0  0  0  0  0
  195.3730  172.9620  143.9940 C   0  0  0  0  0  2  0  0  0  0  0  0
  196.1560  172.0140  144.8740 C   0  0  0  0  0  2  0  0  0  0  0  0
  195.6610  170.7100  144.6890 O   0  0  0  0  0  1  0  0  0  0  0  0
  1 28  1  0  0  0  0
  2  1  1  0  0  0  0
  3  2  1  0  0  0  0
  3  1  1  0  0  0  0
  4  1  1  0  0  0  0
  4 12  2  0  0  0  0
  5 14  1  0  0  0  0
  5 11  1  0  0  0  0
  6  5  2  0  0  0  0
  7 12  1  0  0  0  0
  8 16  1  0  0  0  0
  9 14  2  0  0  0  0
  9 13  1  0  0  0  0
 10 14  1  1  0  0  0
 10  8  1  0  0  0  0
 10  4  1  0  0  0  0
 11  7  1  0  0  0  0
 13  8  2  0  0  0  0
 15 16  1  0  0  0  0
 17  9  1  0  0  0  0
 18 25  1  6  0  0  0
 18 19  1  0  0  0  0
 18 22  1  0  0  0  0
 19 21  1  0  0  0  0
 20 23  1  0  0  0  0
 21 23  1  0  0  0  0
 22 27  1  6  0  0  0
 22 20  1  0  0  0  0
 23 24  1  6  0  0  0
 23 17  1  0  0  0  0
 26 27  1  0  0  0  0
 28 37  1  1  0  0  0
 30 29  1  0  0  0  0
 31 32  1  0  0  0  0
 32 34  1  6  0  0  0
 33 28  1  1  0  0  0
 33 30  1  0  0  0  0
 35 33  1  0  0  0  0
 35 34  2  0  0  0  0
 36 31  1  0  0  0  0
 36 32  1  0  0  0  0
 36 29  1  1  0  0  0
 37 38  1  0  0  0  0
 38 39  1  0  0  0  0
 40 42  1  0  0  0  0
 41 40  1  0  0  0  0
 42 44  2  0  0  0  0
 42 45  1  0  0  0  0
 43 46  2  0  0  0  0
 44 39  1  0  0  0  0
 46 44  1  0  0  0  0
 47 43  1  0  0  0  0
 47 40  2  0  0  0  0
 48 47  1  0  0  0  0
 48 49  1  0  0  0  0
 50 49  1  0  0  0  0
M  END
>  <MODEL>
4

>  <REMARK>
 VINA RESULT:      -7.4      2.082      3.170
  Name = 
  13 active torsions:
  status: ('A' for Active; 'I' for Inactive)
    1  A    between atoms: C_3  and  C_6
    2  A    between atoms: C_3  and  C_11
    3  A    between atoms: C_11  and  C_35
    4  A    between atoms: C_11  and  C_41
    5  A    between atoms: C_12  and  C_36
    6  A    between atoms: C_12  and  C_45
    7  A    between atoms: C_16  and  C_42
    8  A    between atoms: C_24  and  C_37
    9  A    between atoms: C_25  and  O_38
   10  A    between atoms: C_26  and  S_31
   11  A    between atoms: C_27  and  S_31
   12  A    between atoms: C_37  and  C_39
   13  A    between atoms: C_39  and  C_41
                            x       y       z     vdW  Elec       q    Type
                         _______ _______ _______ _____ _____    ______ ____

>  <TORSDO>
F 13

$$$$
=
 OpenBabel11042419483D

 50 56  0  0  1  0  0  0  0  0999 V2000
  190.6540  176.7770  143.9940 C   0  0  0  0  0  0  0  0  0  0  0  0
  190.0590  177.8820  143.1490 C   0  0  0  0  0  2  0  0  0  0  0  0
  191.0010  178.2300  144.2840 C   0  0  0  0  0  2  0  0  0  0  0  0
  191.8680  175.9960  143.5130 C   0  0  0  0  0  0  0  0  0  0  0  0
  194.6670  176.0990  142.0680 C   0  0  0  0  0  0  0  0  0  0  0  0
  195.6720  176.7110  141.6170 O   0  0  0  0  0  0  0  0  0  0  0  0
  192.7800  174.5940  141.6330 C   0  0  0  0  0  2  0  0  0  0  0  0
  193.5100  175.7880  145.5180 C   0  0  0  0  0  0  0  0  0  0  0  0
  195.4070  175.7540  144.4820 C   0  0  0  0  0  0  0  0  0  0  0  0
  193.2110  176.0330  144.1820 C   0  0  0  0  0  0  0  0  0  0  0  0
  193.7920  175.4790  141.1770 O   0  0  0  0  0  0  0  0  0  0  0  0
  191.7080  175.3660  142.3350 C   0  0  0  0  0  3  0  0  0  0  0  0
  194.8260  175.5700  145.6850 N   0  0  0  0  0  2  0  0  0  0  0  0
  194.4380  176.0570  143.5320 C   0  0  0  0  0  0  0  0  0  0  0  0
  192.3210  176.8100  147.4210 C   0  0  0  0  0  1  0  0  0  0  0  0
  192.5440  175.5400  146.6220 C   0  0  0  0  0  2  0  0  0  0  0  0
  196.9900  174.9770  144.0660 S   0  0  0  0  0  0  0  0  0  0  0  0
  197.3810  170.5750  145.1420 C   0  0  2  0  0  3  0  0  0  0  0  0
  196.5670  171.4240  146.1050 C   0  0  0  0  0  2  0  0  0  0  0  0
  197.3430  172.3960  143.4720 O   0  0  0  0  0  0  0  0  0  0  0  0
  196.8340  172.8930  145.8140 C   0  0  0  0  0  2  0  0  0  0  0  0
  197.1000  171.0060  143.6930 C   0  0  2  0  0  3  0  0  0  0  0  0
  196.5770  173.2190  144.3440 C   0  0  1  0  0  0  0  0  0  0  0  0
  195.2130  173.0740  144.0820 O   0  0  0  0  0  1  0  0  0  0  0  0
  196.9860  169.2540  145.3070 F   0  0  0  0  0  0  0  0  0  0  0  0
  195.9970  170.1290  141.9890 C   0  0  0  0  0  1  0  0  0  0  0  0
  195.8090  170.6290  143.2800 O   0  0  0  0  0  0  0  0  0  0  0  0
  189.6280  176.1200  144.9380 C   0  0  1  0  0  3  0  0  0  0  0  0
  186.0870  177.7710  144.1280 C   0  0  0  0  0  2  0  0  0  0  0  0
  187.1350  176.6240  144.3300 C   0  0  0  0  0  2  0  0  0  0  0  0
  185.0250  178.9180  146.1690 O   0  0  0  0  0  0  0  0  0  0  0  0
  185.7950  177.7660  146.3910 C   0  0  2  0  0  3  0  0  0  0  0  0
  188.4120  177.0530  145.1300 C   0  0  1  0  0  3  0  0  0  0  0  0
  187.0440  177.7870  147.1960 C   0  0  0  0  0  3  0  0  0  0  0  0
  188.2140  177.3930  146.6200 C   0  0  0  0  0  3  0  0  0  0  0  0
  186.1230  178.7270  145.3080 C   0  0  1  0  0  3  0  0  0  0  0  0
  189.2420  174.6820  144.5370 C   0  0  0  0  0  2  0  0  0  0  0  0
  190.0670  173.6020  145.2420 C   0  0  0  0  0  2  0  0  0  0  0  0
  189.7170  172.2050  144.7300 C   0  0  0  0  0  2  0  0  0  0  0  0
  190.4390  171.6330  140.9560 C   0  0  0  0  0  0  0  0  0  0  0  0
  189.8840  171.8680  139.7010 O   0  0  0  0  0  1  0  0  0  0  0  0
  189.7190  171.9890  142.1180 C   0  0  0  0  0  0  0  0  0  0  0  0
  192.3190  170.9520  142.3160 C   0  0  0  0  0  3  0  0  0  0  0  0
  190.3010  171.7760  143.4050 C   0  0  0  0  0  0  0  0  0  0  0  0
  188.3530  172.5710  141.9440 C   0  0  0  0  0  1  0  0  0  0  0  0
  191.6170  171.3120  143.4700 C   0  0  0  0  0  3  0  0  0  0  0  0
  191.7160  171.0480  141.0680 C   0  0  0  0  0  0  0  0  0  0  0  0
  192.5070  170.6660  139.8650 C   0  0  0  0  0  2  0  0  0  0  0  0
  193.5640  171.7090  139.5820 C   0  0  0  0  0  2  0  0  0  0  0  0
  193.0240  172.6790  138.7180 O   0  0  0  0  0  1  0  0  0  0  0  0
  1  3  1  0  0  0  0
  1 28  1  0  0  0  0
  2  1  1  0  0  0  0
  2  3  1  0  0  0  0
  4  1  1  0  0  0  0
  4 10  1  0  0  0  0
  5 14  1  0  0  0  0
  6  5  2  0  0  0  0
  7 12  1  0  0  0  0
  8 13  1  0  0  0  0
  8 16  1  0  0  0  0
  9 13  1  0  0  0  0
 10  8  2  0  0  0  0
 11  7  1  0  0  0  0
 11  5  1  0  0  0  0
 12  4  2  0  0  0  0
 14 10  1  0  0  0  0
 14  9  2  0  0  0  0
 16 15  1  0  0  0  0
 17 23  1  0  0  0  0
 17  9  1  0  0  0  0
 18 25  1  6  0  0  0
 18 19  1  0  0  0  0
 20 22  1  0  0  0  0
 20 23  1  0  0  0  0
 21 19  1  0  0  0  0
 22 27  1  1  0  0  0
 22 18  1  0  0  0  0
 23 24  1  6  0  0  0
 23 21  1  0  0  0  0
 26 27  1  0  0  0  0
 28 37  1  6  0  0  0
 29 30  1  0  0  0  0
 30 33  1  0  0  0  0
 31 32  1  0  0  0  0
 32 34  1  1  0  0  0
 33 28  1  1  0  0  0
 33 35  1  0  0  0  0
 35 34  2  0  0  0  0
 36 29  1  6  0  0  0
 36 31  1  0  0  0  0
 36 32  1  0  0  0  0
 37 38  1  0  0  0  0
 39 38  1  0  0  0  0
 40 47  2  0  0  0  0
 40 42  1  0  0  0  0
 41 40  1  0  0  0  0
 42 44  2  0  0  0  0
 43 46  2  0  0  0  0
 44 46  1  0  0  0  0
 44 39  1  0  0  0  0
 45 42  1  0  0  0  0
 47 43  1  0  0  0  0
 48 47  1  0  0  0  0
 49 48  1  0  0  0  0
 50 49  1  0  0  0  0
M  END
>  <MODEL>
5

>  <REMARK>
 VINA RESULT:      -7.3      3.537      6.611
  Name = 
  13 active torsions:
  status: ('A' for Active; 'I' for Inactive)
    1  A    between atoms: C_3  and  C_6
    2  A    between atoms: C_3  and  C_11
    3  A    between atoms: C_11  and  C_35
    4  A    between atoms: C_11  and  C_41
    5  A    between atoms: C_12  and  C_36
    6  A    between atoms: C_12  and  C_45
    7  A    between atoms: C_16  and  C_42
    8  A    between atoms: C_24  and  C_37
    9  A    between atoms: C_25  and  O_38
   10  A    between atoms: C_26  and  S_31
   11  A    between atoms: C_27  and  S_31
   12  A    between atoms: C_37  and  C_39
   13  A    between atoms: C_39  and  C_41
                            x       y       z     vdW  Elec       q    Type
                         _______ _______ _______ _____ _____    ______ ____

>  <TORSDO>
F 13

$$$$
=
 OpenBabel11042419483D

 50 56  0  0  1  0  0  0  0  0999 V2000
  190.2420  174.7780  144.5350 C   0  0  0  0  0  0  0  0  0  0  0  0
  190.2180  174.1750  145.9220 C   0  0  0  0  0  2  0  0  0  0  0  0
  189.1410  175.1600  145.5140 C   0  0  0  0  0  2  0  0  0  0  0  0
  189.6890  174.0120  143.3420 C   0  0  0  0  0  0  0  0  0  0  0  0
  189.4240  173.8470  140.2060 C   0  0  0  0  0  0  0  0  0  0  0  0
  189.7550  174.1780  139.0360 O   0  0  0  0  0  0  0  0  0  0  0  0
  187.6560  173.6750  141.8970 C   0  0  0  0  0  2  0  0  0  0  0  0
  191.3860  172.1310  142.7640 C   0  0  0  0  0  0  0  0  0  0  0  0
  191.0990  171.9730  140.6270 C   0  0  0  0  0  0  0  0  0  0  0  0
  190.5230  173.1670  142.4250 C   0  0  1  0  0  3  0  0  0  0  0  0
  188.1650  174.2090  140.6840 O   0  0  0  0  0  0  0  0  0  0  0  0
  188.3960  174.2580  143.0590 C   0  0  0  0  0  3  0  0  0  0  0  0
  191.6890  171.3840  141.6870 N   0  0  0  0  0  0  0  0  0  0  0  0
  190.3810  173.0880  141.0460 C   0  0  0  0  0  0  0  0  0  0  0  0
  192.6190  170.4390  144.0680 C   0  0  0  0  0  1  0  0  0  0  0  0
  191.7690  171.6940  144.1330 C   0  0  0  0  0  2  0  0  0  0  0  0
  190.6860  171.0370  139.1320 S   0  0  0  0  0  0  0  0  0  0  0  0
  194.7130  172.0970  137.3010 C   0  0  2  0  0  3  0  0  0  0  0  0
  193.9360  170.9930  136.6010 C   0  0  0  0  0  2  0  0  0  0  0  0
  192.7100  172.7040  138.6140 O   0  0  0  0  0  0  0  0  0  0  0  0
  192.8210  170.5170  137.5210 C   0  0  0  0  0  2  0  0  0  0  0  0
  193.7510  173.2000  137.7720 C   0  0  2  0  0  3  0  0  0  0  0  0
  191.9480  171.6830  137.9800 C   0  0  1  0  0  0  0  0  0  0  0  0
  191.2660  172.1970  136.8740 O   0  0  0  0  0  1  0  0  0  0  0  0
  195.6020  172.6350  136.3800 F   0  0  0  0  0  0  0  0  0  0  0  0
  193.4020  175.2730  137.0860 C   0  0  0  0  0  1  0  0  0  0  0  0
  193.2410  173.9410  136.6920 O   0  0  0  0  0  0  0  0  0  0  0  0
  191.3720  175.8080  144.3440 C   0  0  1  0  0  3  0  0  0  0  0  0
  194.7830  173.8770  143.5940 C   0  0  0  0  0  2  0  0  0  0  0  0
  193.6460  174.9370  143.3910 C   0  0  0  0  0  2  0  0  0  0  0  0
  196.5560  174.2270  145.4230 O   0  0  0  0  0  0  0  0  0  0  0  0
  195.6870  175.2920  145.1400 C   0  0  2  0  0  3  0  0  0  0  0  0
  192.7390  175.1560  144.6490 C   0  0  1  0  0  3  0  0  0  0  0  0
  194.7350  175.8310  146.1460 C   0  0  0  0  0  3  0  0  0  0  0  0
  193.4000  175.8210  145.8730 C   0  0  0  0  0  3  0  0  0  0  0  0
  195.2460  173.8770  145.0410 C   0  0  1  0  0  3  0  0  0  0  0  0
  191.3290  176.5380  142.9860 C   0  0  0  0  0  2  0  0  0  0  0  0
  190.4670  177.8020  142.9930 C   0  0  0  0  0  2  0  0  0  0  0  0
  189.1950  177.6180  142.1640 C   0  0  0  0  0  2  0  0  0  0  0  0
  185.4260  178.0520  142.9970 C   0  0  0  0  0  0  0  0  0  0  0  0
  184.1700  177.9760  142.3990 O   0  0  0  0  0  1  0  0  0  0  0  0
  186.5860  177.8640  142.2140 C   0  0  0  0  0  0  0  0  0  0  0  0
  186.7860  178.2430  144.9870 C   0  0  0  0  0  3  0  0  0  0  0  0
  187.8730  177.9130  142.8320 C   0  0  0  0  0  0  0  0  0  0  0  0
  186.4120  177.6300  140.7470 C   0  0  0  0  0  1  0  0  0  0  0  0
  187.9380  178.0460  144.2210 C   0  0  0  0  0  3  0  0  0  0  0  0
  185.5400  178.3120  144.3770 C   0  0  0  0  0  0  0  0  0  0  0  0
  184.3380  178.5100  145.2350 C   0  0  0  0  0  2  0  0  0  0  0  0
  184.4860  177.7400  146.5270 C   0  0  0  0  0  2  0  0  0  0  0  0
  184.6310  178.6550  147.5860 O   0  0  0  0  0  1  0  0  0  0  0  0
  1  3  1  0  0  0  0
  1  2  1  0  0  0  0
  3  2  1  0  0  0  0
  4  1  1  0  0  0  0
  5 11  1  0  0  0  0
  5 14  1  0  0  0  0
  6  5  2  0  0  0  0
  7 12  1  0  0  0  0
  8 16  1  0  0  0  0
  9 14  2  0  0  0  0
  9 13  1  0  0  0  0
 10 14  1  6  0  0  0
 10  8  1  0  0  0  0
 10  4  1  0  0  0  0
 11  7  1  0  0  0  0
 12  4  2  0  0  0  0
 13  8  2  0  0  0  0
 15 16  1  0  0  0  0
 17  9  1  0  0  0  0
 18 25  1  6  0  0  0
 18 22  1  0  0  0  0
 19 18  1  0  0  0  0
 19 21  1  0  0  0  0
 21 23  1  0  0  0  0
 22 27  1  6  0  0  0
 22 20  1  0  0  0  0
 23 24  1  6  0  0  0
 23 20  1  0  0  0  0
 23 17  1  0  0  0  0
 27 26  1  0  0  0  0
 28 37  1  6  0  0  0
 28  1  1  0  0  0  0
 30 29  1  0  0  0  0
 30 33  1  0  0  0  0
 32 31  1  0  0  0  0
 32 34  1  1  0  0  0
 33 28  1  6  0  0  0
 33 35  1  0  0  0  0
 35 34  2  0  0  0  0
 36 29  1  6  0  0  0
 36 32  1  0  0  0  0
 36 31  1  0  0  0  0
 37 38  1  0  0  0  0
 39 44  1  0  0  0  0
 39 38  1  0  0  0  0
 40 47  1  0  0  0  0
 41 40  1  0  0  0  0
 42 44  1  0  0  0  0
 42 40  2  0  0  0  0
 44 46  2  0  0  0  0
 45 42  1  0  0  0  0
 46 43  1  0  0  0  0
 47 43  2  0  0  0  0
 47 48  1  0  0  0  0
 48 49  1  0  0  0  0
 49 50  1  0  0  0  0
M  END
>  <MODEL>
6

>  <REMARK>
 VINA RESULT:      -7.2      2.187      7.134
  Name = 
  13 active torsions:
  status: ('A' for Active; 'I' for Inactive)
    1  A    between atoms: C_3  and  C_6
    2  A    between atoms: C_3  and  C_11
    3  A    between atoms: C_11  and  C_35
    4  A    between atoms: C_11  and  C_41
    5  A    between atoms: C_12  and  C_36
    6  A    between atoms: C_12  and  C_45
    7  A    between atoms: C_16  and  C_42
    8  A    between atoms: C_24  and  C_37
    9  A    between atoms: C_25  and  O_38
   10  A    between atoms: C_26  and  S_31
   11  A    between atoms: C_27  and  S_31
   12  A    between atoms: C_37  and  C_39
   13  A    between atoms: C_39  and  C_41
                            x       y       z     vdW  Elec       q    Type
                         _______ _______ _______ _____ _____    ______ ____

>  <TORSDO>
F 13

$$$$
=
 OpenBabel11042419483D

 50 56  0  0  1  0  0  0  0  0999 V2000
  192.6480  174.8990  144.9880 C   0  0  0  0  0  0  0  0  0  0  0  0
  193.6000  174.6520  146.1370 C   0  0  0  0  0  2  0  0  0  0  0  0
  192.2750  175.3410  146.3960 C   0  0  0  0  0  2  0  0  0  0  0  0
  191.7280  173.7960  144.4860 C   0  0  0  0  0  0  0  0  0  0  0  0
  189.7430  172.8380  142.2340 C   0  0  0  0  0  0  0  0  0  0  0  0
  189.2310  172.9170  141.0850 O   0  0  0  0  0  0  0  0  0  0  0  0
  189.4100  172.8320  144.6630 C   0  0  0  0  0  2  0  0  0  0  0  0
  193.1920  172.0910  143.1780 C   0  0  0  0  0  0  0  0  0  0  0  0
  191.7680  171.3800  141.7140 C   0  0  0  0  0  0  0  0  0  0  0  0
  192.0590  172.8800  143.3440 C   0  0  1  0  0  3  0  0  0  0  0  0
  188.9570  173.1220  143.3490 O   0  0  0  0  0  0  0  0  0  0  0  0
  190.5040  173.7790  145.0440 C   0  0  0  0  0  3  0  0  0  0  0  0
  192.9940  171.1560  142.2320 N   0  0  0  0  0  0  0  0  0  0  0  0
  191.1670  172.4490  142.3700 C   0  0  0  0  0  0  0  0  0  0  0  0
  194.1950  171.0850  145.1940 C   0  0  0  0  0  1  0  0  0  0  0  0
  194.3980  172.0590  144.0490 C   0  0  0  0  0  2  0  0  0  0  0  0
  190.8250  170.0590  140.9090 S   0  0  0  0  0  0  0  0  0  0  0  0
  192.6770  171.1380  136.8960 C   0  0  2  0  0  3  0  0  0  0  0  0
  191.9540  169.8020  136.9560 C   0  0  0  0  0  2  0  0  0  0  0  0
  191.6940  171.7900  139.0680 O   0  0  0  0  0  0  0  0  0  0  0  0
  191.7220  169.4320  138.4130 C   0  0  0  0  0  2  0  0  0  0  0  0
  191.9080  172.1900  137.7130 C   0  0  2  0  0  3  0  0  0  0  0  0
  190.9990  170.5520  139.1580 C   0  0  1  0  0  0  0  0  0  0  0  0
  189.7070  170.6770  138.6400 O   0  0  0  0  0  1  0  0  0  0  0  0
  192.7170  171.5370  135.5670 F   0  0  0  0  0  0  0  0  0  0  0  0
  190.7690  173.9570  137.0280 C   0  0  0  0  0  1  0  0  0  0  0  0
  190.7080  172.5610  137.0820 O   0  0  0  0  0  0  0  0  0  0  0  0
  193.1310  176.0060  144.0310 C   0  0  1  0  0  3  0  0  0  0  0  0
  195.4810  174.4980  141.1790 C   0  0  0  0  0  2  0  0  0  0  0  0
  194.3350  175.3710  141.7980 C   0  0  0  0  0  2  0  0  0  0  0  0
  197.9300  175.2480  141.3970 O   0  0  0  0  0  0  0  0  0  0  0  0
  196.9300  176.1550  141.7800 C   0  0  2  0  0  3  0  0  0  0  0  0
  194.4480  175.5760  143.3470 C   0  0  1  0  0  3  0  0  0  0  0  0
  196.7940  176.6470  143.1760 C   0  0  0  0  0  3  0  0  0  0  0  0
  195.6290  176.4310  143.8480 C   0  0  0  0  0  3  0  0  0  0  0  0
  196.7670  174.6910  141.9640 C   0  0  1  0  0  3  0  0  0  0  0  0
  192.0540  176.4900  143.0400 C   0  0  0  0  0  2  0  0  0  0  0  0
  191.3960  177.8120  143.4410 C   0  0  0  0  0  2  0  0  0  0  0  0
  189.9750  177.9230  142.8880 C   0  0  0  0  0  2  0  0  0  0  0  0
  186.4770  177.5380  144.5320 C   0  0  0  0  0  0  0  0  0  0  0  0
  185.1210  177.6030  144.2180 O   0  0  0  0  0  1  0  0  0  0  0  0
  187.4390  177.8420  143.5440 C   0  0  0  0  0  0  0  0  0  0  0  0
  188.2380  176.9670  146.0870 C   0  0  0  0  0  3  0  0  0  0  0  0
  188.8300  177.7470  143.8560 C   0  0  0  0  0  0  0  0  0  0  0  0
  186.9490  178.2680  142.1960 C   0  0  0  0  0  1  0  0  0  0  0  0
  189.1960  177.2550  145.1110 C   0  0  0  0  0  3  0  0  0  0  0  0
  186.8880  177.1680  145.8270 C   0  0  0  0  0  0  0  0  0  0  0  0
  185.9010  176.8350  146.8930 C   0  0  0  0  0  2  0  0  0  0  0  0
  185.9440  177.8760  147.9880 C   0  0  0  0  0  2  0  0  0  0  0  0
  185.7220  179.1430  147.4180 O   0  0  0  0  0  1  0  0  0  0  0  0
  1  2  1  0  0  0  0
  1  3  1  0  0  0  0
  2  3  1  0  0  0  0
  4  1  1  0  0  0  0
  4 12  2  0  0  0  0
  5 14  1  0  0  0  0
  5 11  1  0  0  0  0
  6  5  2  0  0  0  0
  7 12  1  0  0  0  0
  8 10  1  0  0  0  0
  8 16  1  0  0  0  0
  9 13  1  0  0  0  0
  9 14  2  0  0  0  0
 10 14  1  1  0  0  0
 10  4  1  0  0  0  0
 11  7  1  0  0  0  0
 13  8  2  0  0  0  0
 16 15  1  0  0  0  0
 17  9  1  0  0  0  0
 18 25  1  6  0  0  0
 18 19  1  0  0  0  0
 18 22  1  0  0  0  0
 19 21  1  0  0  0  0
 20 23  1  0  0  0  0
 21 23  1  0  0  0  0
 22 27  1  6  0  0  0
 22 20  1  0  0  0  0
 23 24  1  6  0  0  0
 23 17  1  0  0  0  0
 26 27  1  0  0  0  0
 28 37  1  6  0  0  0
 28  1  1  0  0  0  0
 29 30  1  0  0  0  0
 30 33  1  0  0  0  0
 31 32  1  0  0  0  0
 31 36  1  0  0  0  0
 32 36  1  0  0  0  0
 32 34  1  1  0  0  0
 33 35  1  0  0  0  0
 33 28  1  6  0  0  0
 34 35  2  0  0  0  0
 36 29  1  6  0  0  0
 37 38  1  0  0  0  0
 39 38  1  0  0  0  0
 39 44  1  0  0  0  0
 40 47  1  0  0  0  0
 41 40  1  0  0  0  0
 42 44  1  0  0  0  0
 42 40  2  0  0  0  0
 44 46  2  0  0  0  0
 45 42  1  0  0  0  0
 46 43  1  0  0  0  0
 47 43  2  0  0  0  0
 47 48  1  0  0  0  0
 48 49  1  0  0  0  0
 50 49  1  0  0  0  0
M  END
>  <MODEL>
7

>  <REMARK>
 VINA RESULT:      -7.1      2.330      7.169
  Name = 
  13 active torsions:
  status: ('A' for Active; 'I' for Inactive)
    1  A    between atoms: C_3  and  C_6
    2  A    between atoms: C_3  and  C_11
    3  A    between atoms: C_11  and  C_35
    4  A    between atoms: C_11  and  C_41
    5  A    between atoms: C_12  and  C_36
    6  A    between atoms: C_12  and  C_45
    7  A    between atoms: C_16  and  C_42
    8  A    between atoms: C_24  and  C_37
    9  A    between atoms: C_25  and  O_38
   10  A    between atoms: C_26  and  S_31
   11  A    between atoms: C_27  and  S_31
   12  A    between atoms: C_37  and  C_39
   13  A    between atoms: C_39  and  C_41
                            x       y       z     vdW  Elec       q    Type
                         _______ _______ _______ _____ _____    ______ ____

>  <TORSDO>
F 13

$$$$
=
 OpenBabel11042419483D

 50 56  0  0  1  0  0  0  0  0999 V2000
  192.0230  174.9470  145.3090 C   0  0  0  0  0  0  0  0  0  0  0  0
  192.5160  176.3760  145.3390 C   0  0  0  0  0  2  0  0  0  0  0  0
  192.5930  175.5300  146.5930 C   0  0  0  0  0  2  0  0  0  0  0  0
  192.9010  173.8300  144.7630 C   0  0  0  0  0  0  0  0  0  0  0  0
  193.0580  170.8420  143.7750 C   0  0  0  0  0  0  0  0  0  0  0  0
  192.5360  169.7640  143.3830 O   0  0  0  0  0  0  0  0  0  0  0  0
  194.4910  171.9870  145.4010 C   0  0  0  0  0  2  0  0  0  0  0  0
  193.0360  174.1300  142.1850 C   0  0  0  0  0  0  0  0  0  0  0  0
  193.2500  172.0730  141.5520 C   0  0  0  0  0  0  0  0  0  0  0  0
  192.8810  173.3660  143.3360 C   0  0  1  0  0  3  0  0  0  0  0  0
  193.6990  170.8760  145.0120 O   0  0  0  0  0  0  0  0  0  0  0  0
  193.6130  173.1630  145.6900 C   0  0  0  0  0  3  0  0  0  0  0  0
  193.3090  173.3510  141.1230 N   0  0  0  0  0  0  0  0  0  0  0  0
  192.9720  172.0460  142.9150 C   0  0  0  0  0  0  0  0  0  0  0  0
  194.5940  176.0410  142.2240 C   0  0  0  0  0  1  0  0  0  0  0  0
  193.1460  175.6110  142.0980 C   0  0  0  0  0  2  0  0  0  0  0  0
  194.1380  170.7460  140.6970 S   0  0  0  0  0  0  0  0  0  0  0  0
  192.1250  169.2960  136.8840 C   0  0  2  0  0  3  0  0  0  0  0  0
  192.2030  168.2870  138.0190 C   0  0  0  0  0  2  0  0  0  0  0  0
  192.7750  171.1130  138.4280 O   0  0  0  0  0  0  0  0  0  0  0  0
  193.2010  168.7850  139.0530 C   0  0  0  0  0  2  0  0  0  0  0  0
  191.8270  170.6960  137.4450 C   0  0  2  0  0  3  0  0  0  0  0  0
  192.8560  170.1990  139.5160 C   0  0  1  0  0  0  0  0  0  0  0  0
  191.6460  170.1630  140.2150 O   0  0  0  0  0  1  0  0  0  0  0  0
  191.0850  168.9120  136.0480 F   0  0  0  0  0  0  0  0  0  0  0  0
  190.0980  172.0740  137.5240 C   0  0  0  0  0  1  0  0  0  0  0  0
  190.5060  170.7960  137.9180 O   0  0  0  0  0  0  0  0  0  0  0  0
  190.4880  174.8390  145.2320 C   0  0  1  0  0  3  0  0  0  0  0  0
  189.3160  171.9160  142.7810 C   0  0  0  0  0  2  0  0  0  0  0  0
  189.3170  172.8110  144.0670 C   0  0  0  0  0  2  0  0  0  0  0  0
  188.2690  172.7920  140.6030 O   0  0  0  0  0  0  0  0  0  0  0  0
  188.0640  173.5360  141.7750 C   0  0  2  0  0  3  0  0  0  0  0  0
  190.0700  174.1750  143.9010 C   0  0  1  0  0  3  0  0  0  0  0  0
  188.5700  174.9250  141.9340 C   0  0  0  0  0  3  0  0  0  0  0  0
  189.4310  175.2080  142.9520 C   0  0  0  0  0  3  0  0  0  0  0  0
  189.3230  172.7870  141.5370 C   0  0  1  0  0  3  0  0  0  0  0  0
  189.8430  174.1880  146.4720 C   0  0  0  0  0  2  0  0  0  0  0  0
  188.7980  175.0690  147.1590 C   0  0  0  0  0  2  0  0  0  0  0  0
  188.9390  176.5340  146.7430 C   0  0  0  0  0  2  0  0  0  0  0  0
  185.5830  178.2540  145.8080 C   0  0  0  0  0  0  0  0  0  0  0  0
  184.3800  178.6600  146.3800 O   0  0  0  0  0  1  0  0  0  0  0  0
  186.5320  177.5620  146.5930 C   0  0  0  0  0  0  0  0  0  0  0  0
  187.1130  178.2530  143.9360 C   0  0  0  0  0  3  0  0  0  0  0  0
  187.7790  177.1710  146.0150 C   0  0  0  0  0  0  0  0  0  0  0  0
  186.1780  177.2550  148.0130 C   0  0  0  0  0  1  0  0  0  0  0  0
  188.0620  177.5780  144.7090 C   0  0  0  0  0  3  0  0  0  0  0  0
  185.8550  178.5340  144.4550 C   0  0  0  0  0  0  0  0  0  0  0  0
  184.8800  179.2670  143.5990 C   0  0  0  0  0  2  0  0  0  0  0  0
  184.0660  178.2910  142.7810 C   0  0  0  0  0  2  0  0  0  0  0  0
  184.6120  178.2180  141.4870 O   0  0  0  0  0  1  0  0  0  0  0  0
  1  2  1  0  0  0  0
  1  3  1  0  0  0  0
  2  3  1  0  0  0  0
  4  1  1  0  0  0  0
  4 12  2  0  0  0  0
  5 11  1  0  0  0  0
  6  5  2  0  0  0  0
  7 12  1  0  0  0  0
  9 14  2  0  0  0  0
 10  8  1  6  0  0  0
 10  4  1  0  0  0  0
 11  7  1  0  0  0  0
 13  9  1  0  0  0  0
 13  8  2  0  0  0  0
 14 10  1  0  0  0  0
 14  5  1  0  0  0  0
 16  8  1  0  0  0  0
 16 15  1  0  0  0  0
 17  9  1  0  0  0  0
 18 25  1  6  0  0  0
 18 22  1  0  0  0  0
 18 19  1  0  0  0  0
 19 21  1  0  0  0  0
 20 23  1  0  0  0  0
 21 23  1  0  0  0  0
 22 27  1  1  0  0  0
 22 20  1  0  0  0  0
 23 24  1  1  0  0  0
 23 17  1  0  0  0  0
 26 27  1  0  0  0  0
 28  1  1  0  0  0  0
 28 37  1  1  0  0  0
 29 30  1  0  0  0  0
 31 36  1  0  0  0  0
 31 32  1  0  0  0  0
 32 34  1  6  0  0  0
 33 30  1  0  0  0  0
 33 28  1  1  0  0  0
 34 35  2  0  0  0  0
 35 33  1  0  0  0  0
 36 32  1  0  0  0  0
 36 29  1  1  0  0  0
 37 38  1  0  0  0  0
 39 38  1  0  0  0  0
 40 41  1  0  0  0  0
 40 42  1  0  0  0  0
 42 45  1  0  0  0  0
 43 47  1  0  0  0  0
 43 46  2  0  0  0  0
 44 42  2  0  0  0  0
 44 39  1  0  0  0  0
 46 44  1  0  0  0  0
 47 40  2  0  0  0  0
 48 47  1  0  0  0  0
 49 48  1  0  0  0  0
 50 49  1  0  0  0  0
M  END
>  <MODEL>
8

>  <REMARK>
 VINA RESULT:      -7.1      2.574      6.580
  Name = 
  13 active torsions:
  status: ('A' for Active; 'I' for Inactive)
    1  A    between atoms: C_3  and  C_6
    2  A    between atoms: C_3  and  C_11
    3  A    between atoms: C_11  and  C_35
    4  A    between atoms: C_11  and  C_41
    5  A    between atoms: C_12  and  C_36
    6  A    between atoms: C_12  and  C_45
    7  A    between atoms: C_16  and  C_42
    8  A    between atoms: C_24  and  C_37
    9  A    between atoms: C_25  and  O_38
   10  A    between atoms: C_26  and  S_31
   11  A    between atoms: C_27  and  S_31
   12  A    between atoms: C_37  and  C_39
   13  A    between atoms: C_39  and  C_41
                            x       y       z     vdW  Elec       q    Type
                         _______ _______ _______ _____ _____    ______ ____

>  <TORSDO>
F 13

$$$$
=
 OpenBabel11042419483D

 50 56  0  0  1  0  0  0  0  0999 V2000
  191.3520  175.7470  146.3880 C   0  0  0  0  0  0  0  0  0  0  0  0
  191.3070  177.0130  147.2150 C   0  0  0  0  0  2  0  0  0  0  0  0
  191.6030  175.6880  147.8880 C   0  0  0  0  0  2  0  0  0  0  0  0
  192.5980  175.3760  145.5970 C   0  0  0  0  0  0  0  0  0  0  0  0
  193.9900  173.2810  143.6990 C   0  0  0  0  0  0  0  0  0  0  0  0
  193.9710  172.2890  142.9210 O   0  0  0  0  0  0  0  0  0  0  0  0
  194.8670  174.3000  145.7490 C   0  0  0  0  0  2  0  0  0  0  0  0
  192.4430  176.5640  143.2900 C   0  0  0  0  0  0  0  0  0  0  0  0
  193.4990  175.1520  142.0390 C   0  0  0  0  0  0  0  0  0  0  0  0
  192.7030  175.4660  144.1030 C   0  0  1  0  0  3  0  0  0  0  0  0
  194.6200  173.1630  144.9360 O   0  0  0  0  0  0  0  0  0  0  0  0
  193.5800  174.8070  146.3190 C   0  0  0  0  0  3  0  0  0  0  0  0
  192.9680  176.3920  142.0640 N   0  0  0  0  0  0  0  0  0  0  0  0
  193.3380  174.5450  143.2800 C   0  0  0  0  0  0  0  0  0  0  0  0
  190.4430  178.0070  143.2690 C   0  0  0  0  0  1  0  0  0  0  0  0
  191.8880  177.8800  143.7100 C   0  0  0  0  0  2  0  0  0  0  0  0
  194.8290  174.7140  140.8900 S   0  0  0  0  0  0  0  0  0  0  0  0
  191.5430  173.8630  137.8610 C   0  0  2  0  0  3  0  0  0  0  0  0
  192.8720  174.3270  137.2860 C   0  0  0  0  0  2  0  0  0  0  0  0
  192.6030  173.4890  140.0620 O   0  0  0  0  0  0  0  0  0  0  0  0
  193.7180  174.9080  138.4090 C   0  0  0  0  0  2  0  0  0  0  0  0
  191.7860  172.9100  139.0430 C   0  0  2  0  0  3  0  0  0  0  0  0
  193.8640  173.9150  139.5600 C   0  0  1  0  0  0  0  0  0  0  0  0
  194.6100  172.8190  139.1180 O   0  0  0  0  0  1  0  0  0  0  0  0
  190.8660  173.1780  136.8600 F   0  0  0  0  0  0  0  0  0  0  0  0
  191.3070  170.7510  139.0100 C   0  0  0  0  0  1  0  0  0  0  0  0
  192.2860  171.6670  138.6150 O   0  0  0  0  0  0  0  0  0  0  0  0
  189.9600  175.2880  145.9110 C   0  0  1  0  0  3  0  0  0  0  0  0
  190.6350  171.7510  144.1910 C   0  0  0  0  0  2  0  0  0  0  0  0
  190.0270  172.7670  145.2170 C   0  0  0  0  0  2  0  0  0  0  0  0
  189.6730  171.5930  141.8120 O   0  0  0  0  0  0  0  0  0  0  0  0
  188.9700  172.3610  142.7540 C   0  0  2  0  0  3  0  0  0  0  0  0
  190.1050  174.2640  144.7630 C   0  0  1  0  0  3  0  0  0  0  0  0
  188.7680  173.8250  142.5960 C   0  0  0  0  0  3  0  0  0  0  0  0
  189.2340  174.6700  143.5570 C   0  0  0  0  0  3  0  0  0  0  0  0
  190.4520  172.2660  142.7730 C   0  0  1  0  0  3  0  0  0  0  0  0
  189.0370  174.8070  147.0490 C   0  0  0  0  0  2  0  0  0  0  0  0
  187.7960  175.6820  147.2470 C   0  0  0  0  0  2  0  0  0  0  0  0
  187.8930  176.9810  146.4480 C   0  0  0  0  0  2  0  0  0  0  0  0
  184.5120  178.4170  145.1850 C   0  0  0  0  0  0  0  0  0  0  0  0
  183.3550  179.0330  145.6560 O   0  0  0  0  0  1  0  0  0  0  0  0
  185.4990  177.9890  146.1000 C   0  0  0  0  0  0  0  0  0  0  0  0
  185.9170  177.7440  143.3360 C   0  0  0  0  0  3  0  0  0  0  0  0
  186.6990  177.3840  145.6160 C   0  0  0  0  0  0  0  0  0  0  0  0
  185.2320  178.1800  147.5590 C   0  0  0  0  0  1  0  0  0  0  0  0
  186.9030  177.3280  144.2350 C   0  0  0  0  0  3  0  0  0  0  0  0
  184.7000  178.2260  143.8020 C   0  0  0  0  0  0  0  0  0  0  0  0
  183.6830  178.6700  142.8080 C   0  0  0  0  0  2  0  0  0  0  0  0
  184.0130  178.1150  141.4410 C   0  0  0  0  0  2  0  0  0  0  0  0
  182.8170  177.9510  140.7180 O   0  0  0  0  0  1  0  0  0  0  0  0
  1  2  1  0  0  0  0
  1  3  1  0  0  0  0
  2  3  1  0  0  0  0
  4 12  2  0  0  0  0
  4  1  1  0  0  0  0
  5 11  1  0  0  0  0
  6  5  2  0  0  0  0
  7 12  1  0  0  0  0
  8 16  1  0  0  0  0
  8 10  1  0  0  0  0
  9 13  1  0  0  0  0
  9 14  2  0  0  0  0
 10 14  1  1  0  0  0
 10  4  1  0  0  0  0
 11  7  1  0  0  0  0
 13  8  2  0  0  0  0
 14  5  1  0  0  0  0
 15 16  1  0  0  0  0
 17  9  1  0  0  0  0
 18 25  1  6  0  0  0
 18 22  1  0  0  0  0
 19 18  1  0  0  0  0
 19 21  1  0  0  0  0
 21 23  1  0  0  0  0
 22 27  1  6  0  0  0
 22 20  1  0  0  0  0
 23 24  1  6  0  0  0
 23 20  1  0  0  0  0
 23 17  1  0  0  0  0
 27 26  1  0  0  0  0
 28  1  1  0  0  0  0
 28 37  1  1  0  0  0
 29 30  1  0  0  0  0
 31 32  1  0  0  0  0
 31 36  1  0  0  0  0
 32 34  1  6  0  0  0
 32 36  1  0  0  0  0
 33 30  1  0  0  0  0
 33 28  1  1  0  0  0
 34 35  2  0  0  0  0
 35 33  1  0  0  0  0
 36 29  1  1  0  0  0
 37 38  1  0  0  0  0
 39 38  1  0  0  0  0
 40 41  1  0  0  0  0
 40 42  1  0  0  0  0
 42 45  1  0  0  0  0
 43 47  1  0  0  0  0
 43 46  2  0  0  0  0
 44 42  2  0  0  0  0
 44 39  1  0  0  0  0
 46 44  1  0  0  0  0
 47 40  2  0  0  0  0
 48 47  1  0  0  0  0
 49 48  1  0  0  0  0
 50 49  1  0  0  0  0
M  END
>  <MODEL>
9

>  <REMARK>
 VINA RESULT:      -7.1      2.377      6.801
  Name = 
  13 active torsions:
  status: ('A' for Active; 'I' for Inactive)
    1  A    between atoms: C_3  and  C_6
    2  A    between atoms: C_3  and  C_11
    3  A    between atoms: C_11  and  C_35
    4  A    between atoms: C_11  and  C_41
    5  A    between atoms: C_12  and  C_36
    6  A    between atoms: C_12  and  C_45
    7  A    between atoms: C_16  and  C_42
    8  A    between atoms: C_24  and  C_37
    9  A    between atoms: C_25  and  O_38
   10  A    between atoms: C_26  and  S_31
   11  A    between atoms: C_27  and  S_31
   12  A    between atoms: C_37  and  C_39
   13  A    between atoms: C_39  and  C_41
                            x       y       z     vdW  Elec       q    Type
                         _______ _______ _______ _____ _____    ______ ____

>  <TORSDO>
F 13

$$$$
