=
 OpenBabel11042416373D

 65 71  0  0  1  0  0  0  0  0999 V2000
  193.7490  169.9160  140.6630 S   0  0  0  0  0  0  0  0  0  0  0  0
  187.7780  174.0580  142.3850 N   0  0  0  0  0  0  0  0  0  0  0  0
  192.7390  173.7210  142.9440 O   0  0  0  0  0  0  0  0  0  0  0  0
  189.9880  173.1000  142.2030 C   0  0  0  0  0  0  0  0  0  0  0  0
  188.4620  177.5600  142.6240 C   0  0  0  0  0  0  0  0  0  0  0  0
  187.7950  178.5970  143.1420 N   0  0  0  0  0  0  0  0  0  0  0  0
  192.0510  174.6370  142.1420 C   0  0  0  0  0  2  0  0  0  0  0  0
  190.7970  171.8350  142.2330 C   0  0  0  0  0  2  0  0  0  0  0  0
  190.5720  174.3970  142.2300 C   0  0  0  0  0  0  0  0  0  0  0  0
  194.0000  173.6560  142.4410 N   0  0  2  0  0  0  0  0  0  0  0  0
  191.7600  171.7470  141.0630 C   0  0  2  0  0  3  0  0  0  0  0  0
  189.7060  175.4900  142.3150 C   0  0  0  0  0  0  0  0  0  0  0  0
  186.5600  178.1140  143.3130 N   0  0  0  0  0  0  0  0  0  0  0  0
  192.5190  170.2040  139.3670 C   0  0  2  0  0  3  0  0  0  0  0  0
  194.0770  172.6410  141.3570 C   0  0  2  0  0  3  0  0  0  0  0  0
  188.5880  172.9660  142.2930 C   0  0  0  0  0  3  0  0  0  0  0  0
  191.2900  170.6940  140.0790 C   0  0  0  0  0  2  0  0  0  0  0  0
  190.0950  177.1540  142.5170 S   0  0  0  0  0  0  0  0  0  0  0  0
  187.6630  176.4960  142.5510 C   0  0  0  0  0  0  0  0  0  0  0  0
  188.3240  175.2960  142.3790 C   0  0  0  0  0  0  0  0  0  0  0  0
  186.4440  176.8180  142.9980 N   0  0  0  0  0  0  0  0  0  0  0  0
  193.1660  171.4060  141.5610 C   0  0  2  0  0  3  0  0  0  0  0  0
  194.8670  173.2930  143.5610 C   0  0  2  0  0  3  0  0  0  0  0  0
  194.0460  172.8000  144.6940 C   0  0  2  0  0  3  0  0  0  0  0  0
  194.5560  174.1100  144.6660 O   0  0  0  0  0  0  0  0  0  0  0  0
  194.8790  171.9740  145.6550 C   0  0  2  0  0  3  0  0  0  0  0  0
  196.2360  172.6200  145.8510 C   0  0  0  0  0  1  0  0  0  0  0  0
  195.0650  170.5790  145.0690 C   0  0  0  0  0  2  0  0  0  0  0  0
  196.1860  169.7970  145.7530 C   0  0  1  0  0  3  0  0  0  0  0  0
  195.6590  168.8730  146.6620 O   0  0  0  0  0  0  0  0  0  0  0  0
  196.6430  168.7440  147.6520 C   0  0  0  0  0  1  0  0  0  0  0  0
  197.0660  169.0950  144.7290 C   0  0  0  0  0  2  0  0  0  0  0  0
  196.9340  169.7750  143.3820 C   0  0  0  0  0  2  0  0  0  0  0  0
  196.7550  168.7690  142.3490 N   0  0  0  0  0  1  0  0  0  0  0  0
  195.5290  172.3130  140.9880 C   0  0  0  0  0  2  0  0  0  0  0  0
  196.0280  173.2490  140.0770 O   0  0  0  0  0  0  0  0  0  0  0  0
  196.0700  175.2370  138.4120 O   0  0  0  0  0  1  0  0  0  0  0  0
  196.3960  172.9550  137.6940 C   0  0  1  0  0  0  0  0  0  0  0  0
  195.4280  174.1190  137.8700 C   0  0  1  0  0  3  0  0  0  0  0  0
  197.8720  173.1740  138.0270 C   0  0  0  0  0  1  0  0  0  0  0  0
  195.4100  172.9340  138.8570 C   0  0  2  0  0  3  0  0  0  0  0  0
  196.0430  171.9720  136.5850 C   0  0  0  0  0  2  0  0  0  0  0  0
  197.1770  171.8180  135.5760 C   0  0  0  0  0  2  0  0  0  0  0  0
  197.6990  169.8350  136.7940 F   0  0  0  0  0  0  0  0  0  0  0  0
  197.6880  170.3850  135.5230 C   0  0  0  0  0  2  0  0  0  0  0  0
  192.2400  169.0180  138.6870 O   0  0  0  0  0  0  0  0  0  0  0  0
  191.5570  169.4260  137.5390 C   0  0  0  0  0  2  0  0  0  0  0  0
  193.0320  169.7020  135.6850 O   0  0  0  0  0  1  0  0  0  0  0  0
  192.4090  170.3920  136.7220 C   0  0  1  0  0  3  0  0  0  0  0  0
  190.9270  171.2200  135.0060 O   0  0  0  0  0  1  0  0  0  0  0  0
  191.6280  171.5850  136.1610 C   0  0  2  0  0  3  0  0  0  0  0  0
  193.0250  172.8270  134.6290 O   0  0  0  0  0  1  0  0  0  0  0  0
  192.4910  172.8300  135.9240 C   0  0  1  0  0  3  0  0  0  0  0  0
  191.4980  174.3340  136.1640 P   0  0  0  0  0  0  0  0  0  0  0  0
  192.5010  175.6150  136.6270 O   0  0  0  0  0  1  0  0  0  0  0  0
  190.7120  174.7260  134.7170 O   0  0  0  0  0  0  0  0  0  0  0  0
  190.4700  174.0920  137.2450 O   0  0  0  0  0  1  0  0  0  0  0  0
  185.4830  178.8950  143.9070 C   0  0  2  0  0  3  0  0  0  0  0  0
  185.6940  179.0150  145.3450 N   0  0  0  0  0  2  0  0  0  0  0  0
  185.3910  177.9590  146.2570 C   0  0  0  0  0  0  0  0  0  0  0  0
  185.0030  176.8370  145.8320 O   0  0  0  0  0  0  0  0  0  0  0  0
  186.8630  178.8810  147.9970 C   0  0  0  0  0  1  0  0  0  0  0  0
  185.5500  178.1800  147.7200 C   0  0  0  0  0  2  0  0  0  0  0  0
  183.8040  178.3440  142.1490 C   0  0  0  0  0  1  0  0  0  0  0  0
  184.1460  178.2340  143.6210 C   0  0  0  0  0  2  0  0  0  0  0  0
  4  9  2  0  0  0  0
  4  8  1  0  0  0  0
  4 16  1  0  0  0  0
  5  6  2  0  0  0  0
  6 13  1  0  0  0  0
  7  9  1  0  0  0  0
  7  3  1  0  0  0  0
  9 12  1  0  0  0  0
 10  3  1  1  0  0  0
 10 23  1  0  0  0  0
 11 17  1  6  0  0  0
 11 22  1  0  0  0  0
 11  8  1  0  0  0  0
 12 20  2  0  0  0  0
 12 18  1  0  0  0  0
 13 58  1  0  0  0  0
 14 46  1  1  0  0  0
 14 17  1  0  0  0  0
 14  1  1  0  0  0  0
 15 35  1  1  0  0  0
 15 22  1  0  0  0  0
 15 10  1  0  0  0  0
 16  2  2  0  0  0  0
 18  5  1  0  0  0  0
 19  5  1  0  0  0  0
 19 21  2  0  0  0  0
 20  2  1  0  0  0  0
 20 19  1  0  0  0  0
 21 13  1  0  0  0  0
 22  1  1  6  0  0  0
 23 25  1  1  0  0  0
 23 24  1  0  0  0  0
 24 26  1  1  0  0  0
 25 24  1  0  0  0  0
 26 27  1  6  0  0  0
 28 26  1  0  0  0  0
 28 29  1  0  0  0  0
 29 32  1  6  0  0  0
 29 30  1  0  0  0  0
 30 31  1  0  0  0  0
 33 32  1  0  0  0  0
 34 33  1  0  0  0  0
 36 35  1  0  0  0  0
 38 39  1  0  0  0  0
 38 40  1  1  0  0  0
 38 41  1  0  0  0  0
 39 37  1  1  0  0  0
 39 41  1  0  0  0  0
 41 36  1  1  0  0  0
 42 38  1  0  0  0  0
 43 42  1  0  0  0  0
 45 43  1  0  0  0  0
 45 44  1  0  0  0  0
 47 46  1  0  0  0  0
 49 48  1  6  0  0  0
 49 47  1  0  0  0  0
 51 50  1  6  0  0  0
 51 49  1  0  0  0  0
 53 52  1  6  0  0  0
 53 51  1  0  0  0  0
 53 54  1  0  0  0  0
 54 55  1  0  0  0  0
 54 57  1  0  0  0  0
 56 54  2  0  0  0  0
 58 65  1  1  0  0  0
 58 59  1  0  0  0  0
 59 60  1  0  0  0  0
 60 63  1  0  0  0  0
 61 60  2  0  0  0  0
 63 62  1  0  0  0  0
 64 65  1  0  0  0  0
M  END
>  <MODEL>
1

>  <REMARK>
 VINA RESULT:      -5.2      0.000      0.000
  Name = 
  23 active torsions:
  status: ('A' for Active; 'I' for Inactive)
    1  A    between atoms: C_1  and  C_58
    2  A    between atoms: C_4  and  C_5
    3  A    between atoms: C_4  and  C_41
    4  A    between atoms: C_5  and  C_32
    5  A    between atoms: C_8  and  O_10
    6  A    between atoms: C_8  and  C_45
    7  A    between atoms: O_10  and  C_65
    8  A    between atoms: P_11  and  C_55
    9  A    between atoms: C_13  and  C_60
   10  A    between atoms: N_15  and  C_44
   11  A    between atoms: C_17  and  N_36
   12  A    between atoms: O_19  and  C_41
   13  A    between atoms: C_22  and  O_24
   14  A    between atoms: C_22  and  C_54
   15  A    between atoms: O_24  and  C_43
   16  A    between atoms: C_27  and  C_52
   17  A    between atoms: C_29  and  C_54
   18  A    between atoms: C_29  and  C_55
   19  A    between atoms: C_37  and  C_51
   20  A    between atoms: C_37  and  C_60
   21  A    between atoms: C_41  and  C_58
   22  A    between atoms: N_42  and  C_44
   23  A    between atoms: C_44  and  C_49
                            x       y       z     vdW  Elec       q    Type
                         _______ _______ _______ _____ _____    ______ ____

>  <TORSDO>
F 23

$$$$
=
 OpenBabel11042416373D

 65 71  0  0  1  0  0  0  0  0999 V2000
  193.6260  170.3610  140.4820 S   0  0  0  0  0  0  0  0  0  0  0  0
  187.3320  173.9450  142.3050 N   0  0  0  0  0  0  0  0  0  0  0  0
  192.3250  174.2630  142.4270 O   0  0  0  0  0  0  0  0  0  0  0  0
  189.6250  173.2380  142.0190 C   0  0  0  0  0  0  0  0  0  0  0  0
  187.5800  177.5060  142.1010 C   0  0  0  0  0  0  0  0  0  0  0  0
  186.8300  178.5110  142.5650 N   0  0  0  0  0  0  0  0  0  0  0  0
  191.4620  174.9900  141.6000 C   0  0  0  0  0  2  0  0  0  0  0  0
  190.5890  172.0900  142.1080 C   0  0  0  0  0  2  0  0  0  0  0  0
  190.0380  174.5890  141.8520 C   0  0  0  0  0  0  0  0  0  0  0  0
  193.5390  174.2880  141.8170 N   0  0  2  0  0  0  0  0  0  0  0  0
  191.4580  171.9790  140.8690 C   0  0  2  0  0  3  0  0  0  0  0  0
  189.0500  175.5750  141.9000 C   0  0  0  0  0  0  0  0  0  0  0  0
  185.6850  177.9090  142.9030 N   0  0  0  0  0  0  0  0  0  0  0  0
  192.2700  170.3460  139.2850 C   0  0  2  0  0  3  0  0  0  0  0  0
  193.6580  173.1680  140.8450 C   0  0  2  0  0  3  0  0  0  0  0  0
  188.2650  172.9520  142.2550 C   0  0  0  0  0  3  0  0  0  0  0  0
  191.0480  170.7690  140.0520 C   0  0  0  0  0  2  0  0  0  0  0  0
  189.2380  177.2850  141.8860 S   0  0  0  0  0  0  0  0  0  0  0  0
  186.9210  176.3540  142.2190 C   0  0  0  0  0  0  0  0  0  0  0  0
  187.7140  175.2280  142.1150 C   0  0  0  0  0  0  0  0  0  0  0  0
  185.7100  176.5810  142.7420 N   0  0  0  0  0  0  0  0  0  0  0  0
  192.9320  171.8670  141.2660 C   0  0  2  0  0  3  0  0  0  0  0  0
  194.5320  174.1640  142.8830 C   0  0  2  0  0  3  0  0  0  0  0  0
  194.0640  174.8830  144.0930 C   0  0  2  0  0  3  0  0  0  0  0  0
  195.0080  175.4470  143.2180 O   0  0  0  0  0  0  0  0  0  0  0  0
  194.7840  174.3900  145.3340 C   0  0  2  0  0  3  0  0  0  0  0  0
  193.9070  173.4110  146.0880 C   0  0  0  0  0  1  0  0  0  0  0  0
  195.0920  175.5850  146.2300 C   0  0  0  0  0  2  0  0  0  0  0  0
  193.8310  176.2360  146.7950 C   0  0  1  0  0  3  0  0  0  0  0  0
  193.7040  177.5510  146.3340 O   0  0  0  0  0  0  0  0  0  0  0  0
  195.0010  177.9240  145.9530 C   0  0  0  0  0  1  0  0  0  0  0  0
  192.5920  175.4260  146.4400 C   0  0  0  0  0  2  0  0  0  0  0  0
  191.3470  176.1680  146.8780 C   0  0  0  0  0  2  0  0  0  0  0  0
  190.6250  175.3670  147.8520 N   0  0  0  0  0  1  0  0  0  0  0  0
  195.1050  172.9730  140.3780 C   0  0  0  0  0  2  0  0  0  0  0  0
  195.4190  173.8750  139.3590 O   0  0  0  0  0  0  0  0  0  0  0  0
  194.9080  175.4070  137.3290 O   0  0  0  0  0  1  0  0  0  0  0  0
  196.3480  173.4770  137.1490 C   0  0  1  0  0  0  0  0  0  0  0  0
  194.9510  174.0570  136.9640 C   0  0  1  0  0  3  0  0  0  0  0  0
  197.4740  174.4090  137.5970 C   0  0  0  0  0  1  0  0  0  0  0  0
  195.2630  173.1470  138.1680 C   0  0  2  0  0  3  0  0  0  0  0  0
  196.6980  172.3070  136.2390 C   0  0  0  0  0  2  0  0  0  0  0  0
  197.9270  171.5480  136.7300 C   0  0  0  0  0  2  0  0  0  0  0  0
  197.4390  169.5190  137.8830 F   0  0  0  0  0  0  0  0  0  0  0  0
  197.6690  170.8720  138.0680 C   0  0  0  0  0  2  0  0  0  0  0  0
  192.0900  169.0640  138.7650 O   0  0  0  0  0  0  0  0  0  0  0  0
  191.8320  169.2700  137.4080 C   0  0  0  0  0  2  0  0  0  0  0  0
  193.9980  169.7900  136.5550 O   0  0  0  0  0  1  0  0  0  0  0  0
  192.7530  170.3460  136.8430 C   0  0  1  0  0  3  0  0  0  0  0  0
  193.0670  170.9090  134.5170 O   0  0  0  0  0  1  0  0  0  0  0  0
  192.1960  171.0510  135.6030 C   0  0  2  0  0  3  0  0  0  0  0  0
  192.1870  173.3080  134.7370 O   0  0  0  0  0  1  0  0  0  0  0  0
  191.8310  172.5210  135.8410 C   0  0  1  0  0  3  0  0  0  0  0  0
  190.0460  172.6810  136.1450 P   0  0  0  0  0  0  0  0  0  0  0  0
  189.2790  171.2020  135.8490 O   0  0  0  0  0  1  0  0  0  0  0  0
  189.7880  173.1390  137.7540 O   0  0  0  0  0  1  0  0  0  0  0  0
  189.4700  173.7320  135.2240 O   0  0  0  0  0  0  0  0  0  0  0  0
  184.5680  178.6230  143.5090 C   0  0  2  0  0  3  0  0  0  0  0  0
  184.4550  178.2610  144.9170 N   0  0  0  0  0  2  0  0  0  0  0  0
  185.2310  178.8920  145.9370 C   0  0  0  0  0  0  0  0  0  0  0  0
  185.9910  179.8590  145.6590 O   0  0  0  0  0  0  0  0  0  0  0  0
  185.8980  177.1220  147.5080 C   0  0  0  0  0  1  0  0  0  0  0  0
  185.1270  178.4150  147.3430 C   0  0  0  0  0  2  0  0  0  0  0  0
  183.5040  178.3270  141.2740 C   0  0  0  0  0  1  0  0  0  0  0  0
  183.2810  178.2910  142.7720 C   0  0  0  0  0  2  0  0  0  0  0  0
  4  8  1  0  0  0  0
  4 16  2  0  0  0  0
  5 19  1  0  0  0  0
  5  6  2  0  0  0  0
  6 13  1  0  0  0  0
  7  9  1  0  0  0  0
  7  3  1  0  0  0  0
  9 12  2  0  0  0  0
  9  4  1  0  0  0  0
 10  3  1  1  0  0  0
 10 23  1  0  0  0  0
 11 17  1  1  0  0  0
 11 22  1  0  0  0  0
 11  8  1  0  0  0  0
 12 20  1  0  0  0  0
 13 58  1  0  0  0  0
 14 46  1  1  0  0  0
 14 17  1  0  0  0  0
 14  1  1  0  0  0  0
 15 35  1  1  0  0  0
 15 22  1  0  0  0  0
 15 10  1  0  0  0  0
 16  2  1  0  0  0  0
 18 12  1  0  0  0  0
 18  5  1  0  0  0  0
 19 21  2  0  0  0  0
 20 19  1  0  0  0  0
 20  2  2  0  0  0  0
 21 13  1  0  0  0  0
 22  1  1  6  0  0  0
 23 25  1  6  0  0  0
 23 24  1  0  0  0  0
 24 26  1  1  0  0  0
 25 24  1  0  0  0  0
 26 27  1  1  0  0  0
 26 28  1  0  0  0  0
 29 28  1  6  0  0  0
 30 29  1  0  0  0  0
 31 30  1  0  0  0  0
 32 29  1  0  0  0  0
 32 33  1  0  0  0  0
 33 34  1  0  0  0  0
 36 35  1  0  0  0  0
 38 40  1  1  0  0  0
 38 41  1  0  0  0  0
 39 38  1  0  0  0  0
 39 37  1  1  0  0  0
 39 41  1  0  0  0  0
 41 36  1  1  0  0  0
 42 43  1  0  0  0  0
 42 38  1  0  0  0  0
 43 45  1  0  0  0  0
 44 45  1  0  0  0  0
 47 46  1  0  0  0  0
 49 48  1  6  0  0  0
 49 47  1  0  0  0  0
 51 50  1  6  0  0  0
 51 53  1  0  0  0  0
 51 49  1  0  0  0  0
 53 52  1  6  0  0  0
 53 54  1  0  0  0  0
 54 56  1  0  0  0  0
 55 54  1  0  0  0  0
 57 54  2  0  0  0  0
 58 65  1  6  0  0  0
 58 59  1  0  0  0  0
 59 60  1  0  0  0  0
 60 63  1  0  0  0  0
 61 60  2  0  0  0  0
 63 62  1  0  0  0  0
 64 65  1  0  0  0  0
M  END
>  <MODEL>
2

>  <REMARK>
 VINA RESULT:      -5.1      2.134      3.138
  Name = 
  23 active torsions:
  status: ('A' for Active; 'I' for Inactive)
    1  A    between atoms: C_1  and  C_58
    2  A    between atoms: C_4  and  C_5
    3  A    between atoms: C_4  and  C_41
    4  A    between atoms: C_5  and  C_32
    5  A    between atoms: C_8  and  O_10
    6  A    between atoms: C_8  and  C_45
    7  A    between atoms: O_10  and  C_65
    8  A    between atoms: P_11  and  C_55
    9  A    between atoms: C_13  and  C_60
   10  A    between atoms: N_15  and  C_44
   11  A    between atoms: C_17  and  N_36
   12  A    between atoms: O_19  and  C_41
   13  A    between atoms: C_22  and  O_24
   14  A    between atoms: C_22  and  C_54
   15  A    between atoms: O_24  and  C_43
   16  A    between atoms: C_27  and  C_52
   17  A    between atoms: C_29  and  C_54
   18  A    between atoms: C_29  and  C_55
   19  A    between atoms: C_37  and  C_51
   20  A    between atoms: C_37  and  C_60
   21  A    between atoms: C_41  and  C_58
   22  A    between atoms: N_42  and  C_44
   23  A    between atoms: C_44  and  C_49
                            x       y       z     vdW  Elec       q    Type
                         _______ _______ _______ _____ _____    ______ ____

>  <TORSDO>
F 23

$$$$
=
 OpenBabel11042416373D

 65 71  0  0  1  0  0  0  0  0999 V2000
  196.4000  173.0360  140.1010 S   0  0  0  0  0  0  0  0  0  0  0  0
  191.1000  176.8110  143.7660 N   0  0  0  0  0  0  0  0  0  0  0  0
  192.0810  174.3450  139.5230 O   0  0  0  0  0  0  0  0  0  0  0  0
  192.4100  175.6030  142.1330 C   0  0  0  0  0  0  0  0  0  0  0  0
  187.7820  175.6440  143.1220 C   0  0  0  0  0  0  0  0  0  0  0  0
  186.5650  176.1580  143.3360 N   0  0  0  0  0  0  0  0  0  0  0  0
  191.2650  173.9080  140.5720 C   0  0  0  0  0  2  0  0  0  0  0  0
  193.7490  175.4780  141.4650 C   0  0  0  0  0  2  0  0  0  0  0  0
  191.2460  174.9260  141.6740 C   0  0  0  0  0  0  0  0  0  0  0  0
  192.4510  173.2260  138.8450 N   0  0  2  0  0  0  0  0  0  0  0  0
  194.2380  174.0420  141.4350 C   0  0  2  0  0  3  0  0  0  0  0  0
  190.0380  175.2180  142.3140 C   0  0  0  0  0  0  0  0  0  0  0  0
  186.8000  177.1570  144.1930 N   0  0  0  0  0  0  0  0  0  0  0  0
  196.2120  172.7200  141.8720 C   0  0  2  0  0  3  0  0  0  0  0  0
  193.6770  172.6340  139.4450 C   0  0  2  0  0  3  0  0  0  0  0  0
  192.3000  176.5470  143.1740 C   0  0  0  0  0  3  0  0  0  0  0  0
  195.3920  173.8630  142.4010 C   0  0  0  0  0  2  0  0  0  0  0  0
  188.4520  174.6930  141.9030 S   0  0  0  0  0  0  0  0  0  0  0  0
  188.6980  176.3530  143.7810 C   0  0  0  0  0  0  0  0  0  0  0  0
  189.9950  176.1470  143.3550 C   0  0  0  0  0  0  0  0  0  0  0  0
  188.0990  177.3360  144.4640 N   0  0  0  0  0  0  0  0  0  0  0  0
  194.6790  173.6640  140.0180 C   0  0  2  0  0  3  0  0  0  0  0  0
  192.6950  173.6470  137.4670 C   0  0  2  0  0  3  0  0  0  0  0  0
  191.4020  173.8790  136.7750 C   0  0  2  0  0  3  0  0  0  0  0  0
  192.1370  172.6950  136.5910 O   0  0  0  0  0  0  0  0  0  0  0  0
  191.5860  174.7610  135.5550 C   0  0  2  0  0  3  0  0  0  0  0  0
  192.0240  176.1490  135.9800 C   0  0  0  0  0  1  0  0  0  0  0  0
  190.2560  174.8570  134.8150 C   0  0  0  0  0  2  0  0  0  0  0  0
  189.2350  175.7250  135.5490 C   0  0  1  0  0  3  0  0  0  0  0  0
  188.9760  176.8980  134.8310 O   0  0  0  0  0  0  0  0  0  0  0  0
  187.5820  176.9300  134.6900 C   0  0  0  0  0  1  0  0  0  0  0  0
  187.9450  174.9560  135.7980 C   0  0  0  0  0  2  0  0  0  0  0  0
  188.0230  174.2320  137.1250 C   0  0  0  0  0  2  0  0  0  0  0  0
  188.3140  175.1870  138.1800 N   0  0  0  0  0  1  0  0  0  0  0  0
  194.3000  171.5720  138.5320 C   0  0  0  0  0  2  0  0  0  0  0  0
  193.6610  170.3410  138.7010 O   0  0  0  0  0  0  0  0  0  0  0  0
  191.5890  168.8110  138.3920 O   0  0  0  0  0  1  0  0  0  0  0  0
  192.4660  169.3580  140.5740 C   0  0  1  0  0  0  0  0  0  0  0  0
  191.4430  169.6690  139.4870 C   0  0  1  0  0  3  0  0  0  0  0  0
  193.4020  168.1660  140.3780 C   0  0  0  0  0  1  0  0  0  0  0  0
  192.6780  170.5720  139.6760 C   0  0  2  0  0  3  0  0  0  0  0  0
  192.0450  169.7210  141.9920 C   0  0  0  0  0  2  0  0  0  0  0  0
  192.0080  171.2310  142.2080 C   0  0  0  0  0  2  0  0  0  0  0  0
  192.6880  172.5550  144.0700 F   0  0  0  0  0  0  0  0  0  0  0  0
  191.7870  171.5820  143.6720 C   0  0  0  0  0  2  0  0  0  0  0  0
  197.4580  172.6920  142.4990 O   0  0  0  0  0  0  0  0  0  0  0  0
  197.8240  171.3440  142.4880 C   0  0  0  0  0  2  0  0  0  0  0  0
  197.5020  171.7760  144.8120 O   0  0  0  0  0  1  0  0  0  0  0  0
  197.9360  170.8060  143.9110 C   0  0  1  0  0  3  0  0  0  0  0  0
  197.7120  168.4640  143.3700 O   0  0  0  0  0  1  0  0  0  0  0  0
  197.1710  169.4990  144.1410 C   0  0  2  0  0  3  0  0  0  0  0  0
  195.1680  168.5440  143.1840 O   0  0  0  0  0  1  0  0  0  0  0  0
  195.6580  169.6240  143.9290 C   0  0  1  0  0  3  0  0  0  0  0  0
  194.8050  169.6870  145.5330 P   0  0  0  0  0  0  0  0  0  0  0  0
  193.3270  168.8700  145.4300 O   0  0  0  0  0  0  0  0  0  0  0  0
  195.7720  168.9580  146.7150 O   0  0  0  0  0  1  0  0  0  0  0  0
  194.5490  171.1290  145.9120 O   0  0  0  0  0  1  0  0  0  0  0  0
  185.7500  178.0420  144.6790 C   0  0  2  0  0  3  0  0  0  0  0  0
  185.2240  178.8380  143.5750 N   0  0  0  0  0  2  0  0  0  0  0  0
  184.7060  178.2490  142.3820 C   0  0  0  0  0  0  0  0  0  0  0  0
  184.6060  176.9970  142.2760 O   0  0  0  0  0  0  0  0  0  0  0  0
  183.5860  178.2900  140.1930 C   0  0  0  0  0  1  0  0  0  0  0  0
  184.2640  179.1220  141.2610 C   0  0  0  0  0  2  0  0  0  0  0  0
  185.7020  178.5790  147.1130 C   0  0  0  0  0  1  0  0  0  0  0  0
  186.2980  178.9470  145.7690 C   0  0  0  0  0  2  0  0  0  0  0  0
  1 14  1  0  0  0  0
  3  7  1  0  0  0  0
  4 16  1  0  0  0  0
  5  6  2  0  0  0  0
  5 19  1  0  0  0  0
  6 13  1  0  0  0  0
  7  9  1  0  0  0  0
  8  4  1  0  0  0  0
  9  4  2  0  0  0  0
  9 12  1  0  0  0  0
 10 15  1  0  0  0  0
 10  3  1  1  0  0  0
 11  8  1  6  0  0  0
 11 17  1  0  0  0  0
 12 20  2  0  0  0  0
 13 21  1  0  0  0  0
 13 58  1  0  0  0  0
 14 17  1  0  0  0  0
 14 46  1  1  0  0  0
 15 35  1  6  0  0  0
 15 22  1  0  0  0  0
 16  2  2  0  0  0  0
 18 12  1  0  0  0  0
 18  5  1  0  0  0  0
 19 21  2  0  0  0  0
 20  2  1  0  0  0  0
 20 19  1  0  0  0  0
 22  1  1  1  0  0  0
 22 11  1  0  0  0  0
 23 25  1  6  0  0  0
 23 10  1  0  0  0  0
 24 26  1  6  0  0  0
 24 23  1  0  0  0  0
 25 24  1  0  0  0  0
 26 27  1  1  0  0  0
 28 26  1  0  0  0  0
 29 28  1  6  0  0  0
 29 32  1  0  0  0  0
 30 29  1  0  0  0  0
 31 30  1  0  0  0  0
 32 33  1  0  0  0  0
 33 34  1  0  0  0  0
 35 36  1  0  0  0  0
 38 40  1  6  0  0  0
 38 42  1  0  0  0  0
 39 37  1  6  0  0  0
 39 41  1  0  0  0  0
 39 38  1  0  0  0  0
 41 36  1  6  0  0  0
 41 38  1  0  0  0  0
 42 43  1  0  0  0  0
 43 45  1  0  0  0  0
 45 44  1  0  0  0  0
 47 46  1  0  0  0  0
 47 49  1  0  0  0  0
 49 51  1  0  0  0  0
 49 48  1  1  0  0  0
 51 50  1  6  0  0  0
 53 52  1  6  0  0  0
 53 51  1  0  0  0  0
 53 54  1  0  0  0  0
 54 57  1  0  0  0  0
 54 56  1  0  0  0  0
 55 54  2  0  0  0  0
 58 65  1  1  0  0  0
 59 58  1  0  0  0  0
 60 59  1  0  0  0  0
 61 60  2  0  0  0  0
 62 63  1  0  0  0  0
 63 60  1  0  0  0  0
 65 64  1  0  0  0  0
M  END
>  <MODEL>
3

>  <REMARK>
 VINA RESULT:      -3.7      3.045      7.880
  Name = 
  23 active torsions:
  status: ('A' for Active; 'I' for Inactive)
    1  A    between atoms: C_1  and  C_58
    2  A    between atoms: C_4  and  C_5
    3  A    between atoms: C_4  and  C_41
    4  A    between atoms: C_5  and  C_32
    5  A    between atoms: C_8  and  O_10
    6  A    between atoms: C_8  and  C_45
    7  A    between atoms: O_10  and  C_65
    8  A    between atoms: P_11  and  C_55
    9  A    between atoms: C_13  and  C_60
   10  A    between atoms: N_15  and  C_44
   11  A    between atoms: C_17  and  N_36
   12  A    between atoms: O_19  and  C_41
   13  A    between atoms: C_22  and  O_24
   14  A    between atoms: C_22  and  C_54
   15  A    between atoms: O_24  and  C_43
   16  A    between atoms: C_27  and  C_52
   17  A    between atoms: C_29  and  C_54
   18  A    between atoms: C_29  and  C_55
   19  A    between atoms: C_37  and  C_51
   20  A    between atoms: C_37  and  C_60
   21  A    between atoms: C_41  and  C_58
   22  A    between atoms: N_42  and  C_44
   23  A    between atoms: C_44  and  C_49
                            x       y       z     vdW  Elec       q    Type
                         _______ _______ _______ _____ _____    ______ ____

>  <TORSDO>
F 23

$$$$
=
 OpenBabel11042416373D

 65 71  0  0  1  0  0  0  0  0999 V2000
  196.6390  172.9680  141.9670 S   0  0  0  0  0  0  0  0  0  0  0  0
  190.9370  177.3840  143.9090 N   0  0  0  0  0  0  0  0  0  0  0  0
  192.6270  174.3380  140.3150 O   0  0  0  0  0  0  0  0  0  0  0  0
  192.4810  175.9230  142.7590 C   0  0  0  0  0  0  0  0  0  0  0  0
  187.7600  176.2580  142.7150 C   0  0  0  0  0  0  0  0  0  0  0  0
  186.5600  176.8380  142.5970 N   0  0  0  0  0  0  0  0  0  0  0  0
  191.5830  174.0750  141.2090 C   0  0  0  0  0  2  0  0  0  0  0  0
  193.9190  175.6630  142.4160 C   0  0  0  0  0  2  0  0  0  0  0  0
  191.3980  175.2320  142.1470 C   0  0  0  0  0  0  0  0  0  0  0  0
  193.0590  173.1260  139.8770 N   0  0  2  0  0  0  0  0  0  0  0  0
  194.3130  174.2190  142.6690 C   0  0  2  0  0  3  0  0  0  0  0  0
  190.1040  175.6490  142.4700 C   0  0  0  0  0  0  0  0  0  0  0  0
  186.6730  177.9340  143.3540 N   0  0  0  0  0  0  0  0  0  0  0  0
  196.0650  172.9000  143.6810 C   0  0  2  0  0  3  0  0  0  0  0  0
  194.0920  172.5770  140.7950 C   0  0  2  0  0  3  0  0  0  0  0  0
  192.2150  177.0010  143.6270 C   0  0  0  0  0  3  0  0  0  0  0  0
  195.2260  174.1320  143.8760 C   0  0  0  0  0  2  0  0  0  0  0  0
  188.6100  175.1290  141.7960 S   0  0  0  0  0  0  0  0  0  0  0  0
  188.5610  177.0170  143.4630 C   0  0  0  0  0  0  0  0  0  0  0  0
  189.9030  176.7100  143.3550 C   0  0  0  0  0  0  0  0  0  0  0  0
  187.8950  178.1030  143.8740 N   0  0  0  0  0  0  0  0  0  0  0  0
  195.0150  173.6400  141.4380 C   0  0  2  0  0  3  0  0  0  0  0  0
  193.6110  173.3500  138.5420 C   0  0  2  0  0  3  0  0  0  0  0  0
  192.5280  173.7520  137.6100 C   0  0  2  0  0  3  0  0  0  0  0  0
  193.0230  172.4370  137.6430 O   0  0  0  0  0  0  0  0  0  0  0  0
  193.0910  174.4530  136.3880 C   0  0  2  0  0  3  0  0  0  0  0  0
  193.3430  175.9150  136.7000 C   0  0  0  0  0  1  0  0  0  0  0  0
  192.0790  174.3480  135.2520 C   0  0  0  0  0  2  0  0  0  0  0  0
  190.6350  174.4570  135.7390 C   0  0  1  0  0  3  0  0  0  0  0  0
  190.1130  175.7250  135.4560 O   0  0  0  0  0  0  0  0  0  0  0  0
  188.7310  175.5250  135.3360 C   0  0  0  0  0  1  0  0  0  0  0  0
  189.7660  173.3730  135.1160 C   0  0  0  0  0  2  0  0  0  0  0  0
  190.6260  172.2020  134.6930 C   0  0  0  0  0  2  0  0  0  0  0  0
  190.5640  171.1650  135.7090 N   0  0  0  0  0  1  0  0  0  0  0  0
  194.8250  171.3810  140.1750 C   0  0  0  0  0  2  0  0  0  0  0  0
  195.8450  171.8150  139.3250 O   0  0  0  0  0  0  0  0  0  0  0  0
  197.9400  170.3600  138.8540 O   0  0  0  0  0  1  0  0  0  0  0  0
  195.6990  169.5460  138.4710 C   0  0  1  0  0  0  0  0  0  0  0  0
  196.9530  170.1810  137.8790 C   0  0  1  0  0  3  0  0  0  0  0  0
  195.7140  169.1300  139.9420 C   0  0  0  0  0  1  0  0  0  0  0  0
  195.7040  171.0390  138.1630 C   0  0  2  0  0  3  0  0  0  0  0  0
  194.8560  168.7310  137.4970 C   0  0  0  0  0  2  0  0  0  0  0  0
  193.5920  168.1860  138.1540 C   0  0  0  0  0  2  0  0  0  0  0  0
  191.5080  168.8100  139.1290 F   0  0  0  0  0  0  0  0  0  0  0  0
  192.5400  169.2710  138.3290 C   0  0  0  0  0  2  0  0  0  0  0  0
  197.1480  172.9130  144.5600 O   0  0  0  0  0  0  0  0  0  0  0  0
  197.8340  171.7270  144.2870 C   0  0  0  0  0  2  0  0  0  0  0  0
  197.4220  170.4890  146.2840 O   0  0  0  0  0  1  0  0  0  0  0  0
  197.1240  170.5370  144.9230 C   0  0  1  0  0  3  0  0  0  0  0  0
  194.9480  170.9220  145.8950 O   0  0  0  0  0  1  0  0  0  0  0  0
  195.6060  170.5380  144.7200 C   0  0  2  0  0  3  0  0  0  0  0  0
  195.2780  168.1710  145.0820 O   0  0  0  0  0  1  0  0  0  0  0  0
  195.0550  169.2160  144.1750 C   0  0  1  0  0  3  0  0  0  0  0  0
  193.2710  169.3660  143.8560 P   0  0  0  0  0  0  0  0  0  0  0  0
  192.7250  170.8870  144.3570 O   0  0  0  0  0  1  0  0  0  0  0  0
  192.9770  169.1770  142.2000 O   0  0  0  0  0  0  0  0  0  0  0  0
  192.5300  168.2940  144.6230 O   0  0  0  0  0  1  0  0  0  0  0  0
  185.6020  178.9130  143.4890 C   0  0  2  0  0  3  0  0  0  0  0  0
  185.4420  179.2810  144.8920 N   0  0  0  0  0  2  0  0  0  0  0  0
  185.3080  178.3090  145.9300 C   0  0  0  0  0  0  0  0  0  0  0  0
  185.4110  177.0790  145.6750 O   0  0  0  0  0  0  0  0  0  0  0  0
  186.3750  179.1010  147.9990 C   0  0  0  0  0  1  0  0  0  0  0  0
  185.0630  178.7560  147.3280 C   0  0  0  0  0  2  0  0  0  0  0  0
  183.1140  179.0520  143.5480 C   0  0  0  0  0  1  0  0  0  0  0  0
  184.3060  178.3410  142.9410 C   0  0  0  0  0  2  0  0  0  0  0  0
  1 14  1  0  0  0  0
  3  7  1  0  0  0  0
  4 16  2  0  0  0  0
  5 19  1  0  0  0  0
  6  5  2  0  0  0  0
  6 13  1  0  0  0  0
  7  9  1  0  0  0  0
  8  4  1  0  0  0  0
  9 12  2  0  0  0  0
  9  4  1  0  0  0  0
 10  3  1  1  0  0  0
 10 15  1  0  0  0  0
 11  8  1  6  0  0  0
 11 17  1  0  0  0  0
 12 20  1  0  0  0  0
 13 58  1  0  0  0  0
 13 21  1  0  0  0  0
 14 17  1  0  0  0  0
 14 46  1  1  0  0  0
 15 35  1  6  0  0  0
 15 22  1  0  0  0  0
 16  2  1  0  0  0  0
 18 12  1  0  0  0  0
 18  5  1  0  0  0  0
 19 21  2  0  0  0  0
 20 19  1  0  0  0  0
 20  2  2  0  0  0  0
 22  1  1  1  0  0  0
 22 11  1  0  0  0  0
 23 25  1  6  0  0  0
 23 10  1  0  0  0  0
 24 26  1  6  0  0  0
 24 25  1  0  0  0  0
 24 23  1  0  0  0  0
 26 27  1  1  0  0  0
 28 29  1  0  0  0  0
 28 26  1  0  0  0  0
 29 32  1  6  0  0  0
 30 29  1  0  0  0  0
 31 30  1  0  0  0  0
 33 32  1  0  0  0  0
 33 34  1  0  0  0  0
 36 35  1  0  0  0  0
 38 40  1  1  0  0  0
 39 41  1  0  0  0  0
 39 38  1  0  0  0  0
 39 37  1  1  0  0  0
 41 38  1  0  0  0  0
 41 36  1  1  0  0  0
 42 43  1  0  0  0  0
 42 38  1  0  0  0  0
 43 45  1  0  0  0  0
 45 44  1  0  0  0  0
 47 46  1  0  0  0  0
 47 49  1  0  0  0  0
 49 48  1  1  0  0  0
 51 49  1  0  0  0  0
 51 50  1  1  0  0  0
 53 51  1  0  0  0  0
 53 52  1  1  0  0  0
 54 53  1  0  0  0  0
 54 55  1  0  0  0  0
 54 57  1  0  0  0  0
 56 54  2  0  0  0  0
 58 65  1  1  0  0  0
 58 59  1  0  0  0  0
 59 60  1  0  0  0  0
 60 63  1  0  0  0  0
 61 60  2  0  0  0  0
 63 62  1  0  0  0  0
 65 64  1  0  0  0  0
M  END
>  <MODEL>
4

>  <REMARK>
 VINA RESULT:      -3.6      2.736      6.921
  Name = 
  23 active torsions:
  status: ('A' for Active; 'I' for Inactive)
    1  A    between atoms: C_1  and  C_58
    2  A    between atoms: C_4  and  C_5
    3  A    between atoms: C_4  and  C_41
    4  A    between atoms: C_5  and  C_32
    5  A    between atoms: C_8  and  O_10
    6  A    between atoms: C_8  and  C_45
    7  A    between atoms: O_10  and  C_65
    8  A    between atoms: P_11  and  C_55
    9  A    between atoms: C_13  and  C_60
   10  A    between atoms: N_15  and  C_44
   11  A    between atoms: C_17  and  N_36
   12  A    between atoms: O_19  and  C_41
   13  A    between atoms: C_22  and  O_24
   14  A    between atoms: C_22  and  C_54
   15  A    between atoms: O_24  and  C_43
   16  A    between atoms: C_27  and  C_52
   17  A    between atoms: C_29  and  C_54
   18  A    between atoms: C_29  and  C_55
   19  A    between atoms: C_37  and  C_51
   20  A    between atoms: C_37  and  C_60
   21  A    between atoms: C_41  and  C_58
   22  A    between atoms: N_42  and  C_44
   23  A    between atoms: C_44  and  C_49
                            x       y       z     vdW  Elec       q    Type
                         _______ _______ _______ _____ _____    ______ ____

>  <TORSDO>
F 23

$$$$
=
 OpenBabel11042416373D

 65 71  0  0  1  0  0  0  0  0999 V2000
  186.1790  178.7710  142.8180 S   0  0  0  0  0  0  0  0  0  0  0  0
  188.5350  173.4690  138.1150 N   0  0  0  0  0  0  0  0  0  0  0  0
  189.2630  175.4290  142.6610 O   0  0  0  0  0  0  0  0  0  0  0  0
  188.2440  174.9980  139.9630 C   0  0  0  0  0  0  0  0  0  0  0  0
  189.6580  170.4870  139.7370 C   0  0  0  0  0  0  0  0  0  0  0  0
  190.3770  169.4330  139.3350 N   0  0  0  0  0  0  0  0  0  0  0  0
  188.6730  174.1950  142.3700 C   0  0  0  0  0  2  0  0  0  0  0  0
  188.0080  176.4250  140.3660 C   0  0  0  0  0  2  0  0  0  0  0  0
  188.6190  173.9820  140.8850 C   0  0  0  0  0  0  0  0  0  0  0  0
  188.8280  175.7690  143.9040 N   0  0  2  0  0  0  0  0  0  0  0  0
  186.9060  176.5500  141.4020 C   0  0  2  0  0  3  0  0  0  0  0  0
  188.9210  172.7210  140.3650 C   0  0  0  0  0  0  0  0  0  0  0  0
  190.3580  169.5380  138.0020 N   0  0  0  0  0  0  0  0  0  0  0  0
  184.9290  177.8460  141.8940 C   0  0  2  0  0  3  0  0  0  0  0  0
  187.5350  176.4980  143.8220 C   0  0  2  0  0  3  0  0  0  0  0  0
  188.2230  174.7110  138.5830 C   0  0  0  0  0  3  0  0  0  0  0  0
  185.6710  177.1670  140.7780 C   0  0  0  0  0  2  0  0  0  0  0  0
  189.5450  171.3430  141.1850 S   0  0  0  0  0  0  0  0  0  0  0  0
  189.2850  171.2120  138.6830 C   0  0  0  0  0  0  0  0  0  0  0  0
  188.8610  172.4900  138.9890 C   0  0  0  0  0  0  0  0  0  0  0  0
  189.7310  170.6350  137.5610 N   0  0  0  0  0  0  0  0  0  0  0  0
  187.3810  177.4060  142.5780 C   0  0  2  0  0  3  0  0  0  0  0  0
  189.8700  176.6150  144.4830 C   0  0  2  0  0  3  0  0  0  0  0  0
  191.0610  175.7930  144.8130 C   0  0  2  0  0  3  0  0  0  0  0  0
  190.1360  176.1810  145.7970 O   0  0  0  0  0  0  0  0  0  0  0  0
  192.3020  176.6550  144.9430 C   0  0  2  0  0  3  0  0  0  0  0  0
  192.4790  177.4990  143.6960 C   0  0  0  0  0  1  0  0  0  0  0  0
  193.5150  175.7470  145.1140 C   0  0  0  0  0  2  0  0  0  0  0  0
  194.2010  175.4270  143.7870 C   0  0  1  0  0  3  0  0  0  0  0  0
  194.9770  176.5100  143.3580 O   0  0  0  0  0  0  0  0  0  0  0  0
  196.0720  176.5350  144.2310 C   0  0  0  0  0  1  0  0  0  0  0  0
  195.0570  174.1730  143.9040 C   0  0  0  0  0  2  0  0  0  0  0  0
  194.6890  173.4120  145.1610 C   0  0  0  0  0  2  0  0  0  0  0  0
  195.8630  172.7240  145.6690 N   0  0  0  0  0  1  0  0  0  0  0  0
  187.1760  177.1680  145.1540 C   0  0  0  0  0  2  0  0  0  0  0  0
  185.8070  177.4450  145.2130 O   0  0  0  0  0  0  0  0  0  0  0  0
  183.6140  177.6550  146.5830 O   0  0  0  0  0  1  0  0  0  0  0  0
  185.7230  178.5020  147.3980 C   0  0  1  0  0  0  0  0  0  0  0  0
  184.4060  178.8030  146.6910 C   0  0  1  0  0  3  0  0  0  0  0  0
  185.9550  177.0940  147.9450 C   0  0  0  0  0  1  0  0  0  0  0  0
  185.7140  178.6750  145.8830 C   0  0  2  0  0  3  0  0  0  0  0  0
  186.3530  179.6770  148.1360 C   0  0  0  0  0  2  0  0  0  0  0  0
  187.6460  179.2820  148.8420 C   0  0  0  0  0  2  0  0  0  0  0  0
  189.9220  178.7120  148.4170 F   0  0  0  0  0  0  0  0  0  0  0  0
  188.6500  178.6750  147.8730 C   0  0  0  0  0  2  0  0  0  0  0  0
  183.9650  178.7120  141.3750 O   0  0  0  0  0  0  0  0  0  0  0  0
  182.7630  178.2730  141.9340 C   0  0  0  0  0  2  0  0  0  0  0  0
  181.8730  177.8060  139.7710 O   0  0  0  0  0  1  0  0  0  0  0  0
  181.6090  178.4830  140.9600 C   0  0  1  0  0  3  0  0  0  0  0  0
  179.6120  177.1660  140.6370 O   0  0  0  0  0  1  0  0  0  0  0  0
  180.2450  178.0560  141.5120 C   0  0  2  0  0  3  0  0  0  0  0  0
  178.2150  179.2750  141.0290 O   0  0  0  0  0  1  0  0  0  0  0  0
  179.3310  179.2310  141.8750 C   0  0  1  0  0  3  0  0  0  0  0  0
  178.7750  179.0820  143.5990 P   0  0  0  0  0  0  0  0  0  0  0  0
  180.1070  179.1700  144.6400 O   0  0  0  0  0  1  0  0  0  0  0  0
  177.6970  180.3360  143.9550 O   0  0  0  0  0  1  0  0  0  0  0  0
  178.0820  177.7520  143.7920 O   0  0  0  0  0  0  0  0  0  0  0  0
  191.0660  168.6120  137.1280 C   0  0  2  0  0  3  0  0  0  0  0  0
  192.3610  168.2760  137.7090 N   0  0  0  0  0  2  0  0  0  0  0  0
  193.5280  169.0710  137.4950 C   0  0  0  0  0  0  0  0  0  0  0  0
  193.4570  170.1550  136.8560 O   0  0  0  0  0  0  0  0  0  0  0  0
  195.8040  168.3400  136.9170 C   0  0  0  0  0  1  0  0  0  0  0  0
  194.8350  168.6230  138.0460 C   0  0  0  0  0  2  0  0  0  0  0  0
  191.5850  168.1660  134.7310 C   0  0  0  0  0  1  0  0  0  0  0  0
  191.2460  169.2320  135.7540 C   0  0  0  0  0  2  0  0  0  0  0  0
  2 16  2  0  0  0  0
  2 20  1  0  0  0  0
  4  8  1  0  0  0  0
  4  9  2  0  0  0  0
  5 18  1  0  0  0  0
  6  5  2  0  0  0  0
  7  3  1  0  0  0  0
  9  7  1  0  0  0  0
 10  3  1  6  0  0  0
 10 23  1  0  0  0  0
 11  8  1  6  0  0  0
 11 22  1  0  0  0  0
 12  9  1  0  0  0  0
 12 18  1  0  0  0  0
 13  6  1  0  0  0  0
 14 46  1  6  0  0  0
 14  1  1  0  0  0  0
 15 10  1  0  0  0  0
 15 35  1  1  0  0  0
 16  4  1  0  0  0  0
 17 11  1  0  0  0  0
 17 14  1  0  0  0  0
 19 20  1  0  0  0  0
 19  5  1  0  0  0  0
 20 12  2  0  0  0  0
 21 13  1  0  0  0  0
 21 19  2  0  0  0  0
 22  1  1  1  0  0  0
 22 15  1  0  0  0  0
 23 24  1  0  0  0  0
 23 25  1  1  0  0  0
 24 26  1  1  0  0  0
 24 25  1  0  0  0  0
 26 27  1  6  0  0  0
 26 28  1  0  0  0  0
 29 32  1  1  0  0  0
 29 28  1  0  0  0  0
 30 29  1  0  0  0  0
 30 31  1  0  0  0  0
 32 33  1  0  0  0  0
 33 34  1  0  0  0  0
 35 36  1  0  0  0  0
 38 40  1  1  0  0  0
 38 42  1  0  0  0  0
 39 37  1  6  0  0  0
 39 38  1  0  0  0  0
 41 36  1  6  0  0  0
 41 39  1  0  0  0  0
 41 38  1  0  0  0  0
 42 43  1  0  0  0  0
 45 44  1  0  0  0  0
 45 43  1  0  0  0  0
 46 47  1  0  0  0  0
 49 48  1  6  0  0  0
 49 51  1  0  0  0  0
 49 47  1  0  0  0  0
 51 50  1  6  0  0  0
 51 53  1  0  0  0  0
 53 52  1  6  0  0  0
 53 54  1  0  0  0  0
 54 57  2  0  0  0  0
 54 56  1  0  0  0  0
 54 55  1  0  0  0  0
 58 65  1  6  0  0  0
 58 59  1  0  0  0  0
 58 13  1  0  0  0  0
 60 59  1  0  0  0  0
 60 63  1  0  0  0  0
 61 60  2  0  0  0  0
 62 63  1  0  0  0  0
 64 65  1  0  0  0  0
M  END
>  <MODEL>
5

>  <REMARK>
 VINA RESULT:      -3.2      4.619     11.519
  Name = 
  23 active torsions:
  status: ('A' for Active; 'I' for Inactive)
    1  A    between atoms: C_1  and  C_58
    2  A    between atoms: C_4  and  C_5
    3  A    between atoms: C_4  and  C_41
    4  A    between atoms: C_5  and  C_32
    5  A    between atoms: C_8  and  O_10
    6  A    between atoms: C_8  and  C_45
    7  A    between atoms: O_10  and  C_65
    8  A    between atoms: P_11  and  C_55
    9  A    between atoms: C_13  and  C_60
   10  A    between atoms: N_15  and  C_44
   11  A    between atoms: C_17  and  N_36
   12  A    between atoms: O_19  and  C_41
   13  A    between atoms: C_22  and  O_24
   14  A    between atoms: C_22  and  C_54
   15  A    between atoms: O_24  and  C_43
   16  A    between atoms: C_27  and  C_52
   17  A    between atoms: C_29  and  C_54
   18  A    between atoms: C_29  and  C_55
   19  A    between atoms: C_37  and  C_51
   20  A    between atoms: C_37  and  C_60
   21  A    between atoms: C_41  and  C_58
   22  A    between atoms: N_42  and  C_44
   23  A    between atoms: C_44  and  C_49
                            x       y       z     vdW  Elec       q    Type
                         _______ _______ _______ _____ _____    ______ ____

>  <TORSDO>
F 23

$$$$
=
 OpenBabel11042416373D

 65 71  0  0  1  0  0  0  0  0999 V2000
  196.4280  172.7170  139.6130 S   0  0  0  0  0  0  0  0  0  0  0  0
  192.2010  176.1640  144.7150 N   0  0  0  0  0  0  0  0  0  0  0  0
  192.2340  174.4340  140.0190 O   0  0  0  0  0  0  0  0  0  0  0  0
  193.1010  175.1730  142.7030 C   0  0  0  0  0  0  0  0  0  0  0  0
  188.7180  175.3880  144.4760 C   0  0  0  0  0  0  0  0  0  0  0  0
  187.6120  175.9460  144.9800 N   0  0  0  0  0  0  0  0  0  0  0  0
  191.5520  173.8800  141.1070 C   0  0  0  0  0  2  0  0  0  0  0  0
  194.2970  175.0680  141.8010 C   0  0  0  0  0  2  0  0  0  0  0  0
  191.8140  174.6810  142.3490 C   0  0  0  0  0  0  0  0  0  0  0  0
  192.3720  173.4310  139.1120 N   0  0  2  0  0  0  0  0  0  0  0  0
  194.6210  173.6290  141.4500 C   0  0  2  0  0  3  0  0  0  0  0  0
  190.7600  174.9440  143.2280 C   0  0  0  0  0  0  0  0  0  0  0  0
  188.0830  176.7540  145.9350 N   0  0  0  0  0  0  0  0  0  0  0  0
  196.4890  172.1030  141.3130 C   0  0  2  0  0  3  0  0  0  0  0  0
  193.6070  172.6480  139.3840 C   0  0  2  0  0  3  0  0  0  0  0  0
  193.2580  175.9200  143.8890 C   0  0  0  0  0  3  0  0  0  0  0  0
  195.8880  173.1910  142.1580 C   0  0  0  0  0  2  0  0  0  0  0  0
  189.0830  174.6240  143.0180 S   0  0  0  0  0  0  0  0  0  0  0  0
  189.7960  175.8950  145.0730 C   0  0  0  0  0  0  0  0  0  0  0  0
  190.9810  175.6710  144.3990 C   0  0  0  0  0  0  0  0  0  0  0  0
  189.4200  176.7820  146.0020 N   0  0  0  0  0  0  0  0  0  0  0  0
  194.7910  173.4790  139.9360 C   0  0  2  0  0  3  0  0  0  0  0  0
  192.4370  174.0730  137.8010 C   0  0  2  0  0  3  0  0  0  0  0  0
  193.7540  173.8040  137.1730 C   0  0  2  0  0  3  0  0  0  0  0  0
  193.4750  175.0260  137.8080 O   0  0  0  0  0  0  0  0  0  0  0  0
  193.6960  174.0110  135.6710 C   0  0  2  0  0  3  0  0  0  0  0  0
  193.1790  172.7560  134.9950 C   0  0  0  0  0  1  0  0  0  0  0  0
  195.1010  174.3150  135.1630 C   0  0  0  0  0  2  0  0  0  0  0  0
  196.1600  174.2010  136.2590 C   0  0  1  0  0  3  0  0  0  0  0  0
  197.1950  173.3490  135.8590 O   0  0  0  0  0  0  0  0  0  0  0  0
  197.7400  173.9560  134.7190 C   0  0  0  0  0  1  0  0  0  0  0  0
  196.7120  175.5710  136.6290 C   0  0  0  0  0  2  0  0  0  0  0  0
  196.9560  176.3850  135.3760 C   0  0  0  0  0  2  0  0  0  0  0  0
  195.7840  177.1970  135.0920 N   0  0  0  0  0  1  0  0  0  0  0  0
  193.9630  171.7240  138.2140 C   0  0  0  0  0  2  0  0  0  0  0  0
  193.4510  170.4410  138.4270 O   0  0  0  0  0  0  0  0  0  0  0  0
  193.2210  168.1800  137.1770 O   0  0  0  0  0  1  0  0  0  0  0  0
  191.3200  169.3100  138.1450 C   0  0  1  0  0  0  0  0  0  0  0  0
  192.1530  169.0390  136.8970 C   0  0  1  0  0  3  0  0  0  0  0  0
  191.6820  168.5830  139.4390 C   0  0  0  0  0  1  0  0  0  0  0  0
  192.2860  170.3800  137.6470 C   0  0  2  0  0  3  0  0  0  0  0  0
  189.8570  169.6530  137.8920 C   0  0  0  0  0  2  0  0  0  0  0  0
  189.5470  171.1110  138.2200 C   0  0  0  0  0  2  0  0  0  0  0  0
  189.2330  171.0830  135.8570 F   0  0  0  0  0  0  0  0  0  0  0  0
  189.2430  171.9140  136.9650 C   0  0  0  0  0  2  0  0  0  0  0  0
  197.8090  171.8670  141.7010 O   0  0  0  0  0  0  0  0  0  0  0  0
  197.9400  170.4770  141.6670 C   0  0  0  0  0  2  0  0  0  0  0  0
  197.5880  170.8880  143.9910 O   0  0  0  0  0  1  0  0  0  0  0  0
  197.6340  169.8750  143.0350 C   0  0  1  0  0  3  0  0  0  0  0  0
  196.2790  168.1660  142.0010 O   0  0  0  0  0  1  0  0  0  0  0  0
  196.3380  169.0580  143.0770 C   0  0  2  0  0  3  0  0  0  0  0  0
  194.1740  169.5870  142.1400 O   0  0  0  0  0  1  0  0  0  0  0  0
  195.0710  169.9160  143.1650 C   0  0  1  0  0  3  0  0  0  0  0  0
  194.2630  169.6740  144.7750 P   0  0  0  0  0  0  0  0  0  0  0  0
  194.7300  168.1860  145.4330 O   0  0  0  0  0  1  0  0  0  0  0  0
  194.7120  170.9220  145.8250 O   0  0  0  0  0  1  0  0  0  0  0  0
  192.7620  169.6860  144.5930 O   0  0  0  0  0  0  0  0  0  0  0  0
  187.2220  177.6150  146.7350 C   0  0  2  0  0  3  0  0  0  0  0  0
  186.4270  178.4700  145.8610 N   0  0  0  0  0  2  0  0  0  0  0  0
  185.0270  178.2740  145.6600 C   0  0  0  0  0  0  0  0  0  0  0  0
  184.4030  177.3920  146.3100 O   0  0  0  0  0  0  0  0  0  0  0  0
  185.1610  180.3050  144.2800 C   0  0  0  0  0  1  0  0  0  0  0  0
  184.2950  179.1310  144.6880 C   0  0  0  0  0  2  0  0  0  0  0  0
  187.1790  179.2090  148.6520 C   0  0  0  0  0  1  0  0  0  0  0  0
  188.0640  178.4580  147.6770 C   0  0  0  0  0  2  0  0  0  0  0  0
  1 14  1  0  0  0  0
  3  7  1  0  0  0  0
  4 16  1  0  0  0  0
  5  6  2  0  0  0  0
  5 19  1  0  0  0  0
  6 13  1  0  0  0  0
  7  9  1  0  0  0  0
  8  4  1  0  0  0  0
  9  4  2  0  0  0  0
  9 12  1  0  0  0  0
 10 15  1  0  0  0  0
 10  3  1  1  0  0  0
 11  8  1  6  0  0  0
 11 17  1  0  0  0  0
 12 20  2  0  0  0  0
 13 21  1  0  0  0  0
 13 58  1  0  0  0  0
 14 46  1  1  0  0  0
 14 17  1  0  0  0  0
 15 35  1  6  0  0  0
 15 22  1  0  0  0  0
 16  2  2  0  0  0  0
 18 12  1  0  0  0  0
 18  5  1  0  0  0  0
 19 21  2  0  0  0  0
 20  2  1  0  0  0  0
 20 19  1  0  0  0  0
 22  1  1  1  0  0  0
 22 11  1  0  0  0  0
 23 25  1  1  0  0  0
 23 10  1  0  0  0  0
 24 26  1  6  0  0  0
 24 23  1  0  0  0  0
 24 25  1  0  0  0  0
 26 27  1  6  0  0  0
 28 26  1  0  0  0  0
 29 28  1  6  0  0  0
 29 32  1  0  0  0  0
 30 29  1  0  0  0  0
 31 30  1  0  0  0  0
 33 32  1  0  0  0  0
 34 33  1  0  0  0  0
 35 36  1  0  0  0  0
 38 40  1  1  0  0  0
 39 37  1  1  0  0  0
 39 41  1  0  0  0  0
 39 38  1  0  0  0  0
 41 38  1  0  0  0  0
 41 36  1  1  0  0  0
 42 38  1  0  0  0  0
 42 43  1  0  0  0  0
 44 45  1  0  0  0  0
 45 43  1  0  0  0  0
 47 46  1  0  0  0  0
 47 49  1  0  0  0  0
 49 51  1  0  0  0  0
 49 48  1  1  0  0  0
 51 50  1  6  0  0  0
 51 53  1  0  0  0  0
 53 52  1  6  0  0  0
 53 54  1  0  0  0  0
 54 55  1  0  0  0  0
 54 56  1  0  0  0  0
 57 54  2  0  0  0  0
 58 65  1  1  0  0  0
 59 58  1  0  0  0  0
 60 59  1  0  0  0  0
 60 61  2  0  0  0  0
 62 63  1  0  0  0  0
 63 60  1  0  0  0  0
 65 64  1  0  0  0  0
M  END
>  <MODEL>
6

>  <REMARK>
 VINA RESULT:      -3.2      3.071      7.074
  Name = 
  23 active torsions:
  status: ('A' for Active; 'I' for Inactive)
    1  A    between atoms: C_1  and  C_58
    2  A    between atoms: C_4  and  C_5
    3  A    between atoms: C_4  and  C_41
    4  A    between atoms: C_5  and  C_32
    5  A    between atoms: C_8  and  O_10
    6  A    between atoms: C_8  and  C_45
    7  A    between atoms: O_10  and  C_65
    8  A    between atoms: P_11  and  C_55
    9  A    between atoms: C_13  and  C_60
   10  A    between atoms: N_15  and  C_44
   11  A    between atoms: C_17  and  N_36
   12  A    between atoms: O_19  and  C_41
   13  A    between atoms: C_22  and  O_24
   14  A    between atoms: C_22  and  C_54
   15  A    between atoms: O_24  and  C_43
   16  A    between atoms: C_27  and  C_52
   17  A    between atoms: C_29  and  C_54
   18  A    between atoms: C_29  and  C_55
   19  A    between atoms: C_37  and  C_51
   20  A    between atoms: C_37  and  C_60
   21  A    between atoms: C_41  and  C_58
   22  A    between atoms: N_42  and  C_44
   23  A    between atoms: C_44  and  C_49
                            x       y       z     vdW  Elec       q    Type
                         _______ _______ _______ _____ _____    ______ ____

>  <TORSDO>
F 23

$$$$
=
 OpenBabel11042416373D

 65 71  0  0  1  0  0  0  0  0999 V2000
  194.1990  171.9400  141.3940 S   0  0  0  0  0  0  0  0  0  0  0  0
  187.2250  174.6020  141.6520 N   0  0  0  0  0  0  0  0  0  0  0  0
  191.9180  175.4560  143.1670 O   0  0  0  0  0  0  0  0  0  0  0  0
  189.5860  174.1860  141.9620 C   0  0  0  0  0  0  0  0  0  0  0  0
  187.0390  178.1710  141.7680 C   0  0  0  0  0  0  0  0  0  0  0  0
  186.0650  179.0350  142.0750 N   0  0  0  0  0  0  0  0  0  0  0  0
  191.2170  176.1640  142.1860 C   0  0  0  0  0  2  0  0  0  0  0  0
  190.6360  173.1480  142.2350 C   0  0  0  0  0  2  0  0  0  0  0  0
  189.8430  175.5840  142.0070 C   0  0  0  0  0  0  0  0  0  0  0  0
  193.2360  175.6760  142.9190 N   0  0  2  0  0  0  0  0  0  0  0  0
  191.8090  173.2600  141.2790 C   0  0  2  0  0  3  0  0  0  0  0  0
  188.7540  176.4450  141.8490 C   0  0  0  0  0  0  0  0  0  0  0  0
  184.9630  178.2790  142.0420 N   0  0  0  0  0  0  0  0  0  0  0  0
  193.2230  171.8980  139.8720 C   0  0  2  0  0  3  0  0  0  0  0  0
  193.7570  174.6810  141.9440 C   0  0  2  0  0  3  0  0  0  0  0  0
  188.2630  173.7280  141.7940 C   0  0  0  0  0  3  0  0  0  0  0  0
  191.7970  172.1030  140.3000 C   0  0  0  0  0  2  0  0  0  0  0  0
  188.7090  178.1580  142.0030 S   0  0  0  0  0  0  0  0  0  0  0  0
  186.5330  176.9470  141.6200 C   0  0  0  0  0  0  0  0  0  0  0  0
  187.4690  175.9320  141.6630 C   0  0  0  0  0  0  0  0  0  0  0  0
  185.2080  176.9850  141.8040 N   0  0  0  0  0  0  0  0  0  0  0  0
  193.1260  173.2730  142.0580 C   0  0  2  0  0  3  0  0  0  0  0  0
  193.9180  175.5550  144.2060 C   0  0  2  0  0  3  0  0  0  0  0  0
  193.1270  176.2340  145.2620 C   0  0  2  0  0  3  0  0  0  0  0  0
  194.2490  176.8420  144.6730 O   0  0  0  0  0  0  0  0  0  0  0  0
  193.5120  175.7330  146.6400 C   0  0  2  0  0  3  0  0  0  0  0  0
  193.2270  174.2480  146.7500 C   0  0  0  0  0  1  0  0  0  0  0  0
  192.6900  176.4820  147.6820 C   0  0  0  0  0  2  0  0  0  0  0  0
  191.3020  175.8750  147.8840 C   0  0  1  0  0  3  0  0  0  0  0  0
  190.4930  176.7330  148.6380 O   0  0  0  0  0  0  0  0  0  0  0  0
  190.5680  177.9680  147.9790 C   0  0  0  0  0  1  0  0  0  0  0  0
  190.6440  175.5610  146.5480 C   0  0  0  0  0  2  0  0  0  0  0  0
  189.5640  174.5170  146.7370 C   0  0  0  0  0  2  0  0  0  0  0  0
  189.2400  173.9200  145.4530 N   0  0  0  0  0  1  0  0  0  0  0  0
  195.2890  174.6960  141.8810 C   0  0  0  0  0  2  0  0  0  0  0  0
  195.8350  174.5310  143.1570 O   0  0  0  0  0  0  0  0  0  0  0  0
  197.3710  174.5560  145.2470 O   0  0  0  0  0  1  0  0  0  0  0  0
  197.1180  172.5930  143.8650 C   0  0  1  0  0  0  0  0  0  0  0  0
  197.9400  173.8340  144.1930 C   0  0  1  0  0  3  0  0  0  0  0  0
  195.9030  172.2690  144.7340 C   0  0  0  0  0  1  0  0  0  0  0  0
  197.0240  173.8120  142.9530 C   0  0  2  0  0  3  0  0  0  0  0  0
  197.8950  171.4370  143.2480 C   0  0  0  0  0  2  0  0  0  0  0  0
  197.0430  170.6300  142.2740 C   0  0  0  0  0  2  0  0  0  0  0  0
  197.5960  170.3940  139.9670 F   0  0  0  0  0  0  0  0  0  0  0  0
  197.8990  169.9240  141.2340 C   0  0  0  0  0  2  0  0  0  0  0  0
  193.3610  170.6630  139.2370 O   0  0  0  0  0  0  0  0  0  0  0  0
  193.5440  170.9820  137.8900 C   0  0  0  0  0  2  0  0  0  0  0  0
  195.3850  169.5530  137.3780 O   0  0  0  0  0  1  0  0  0  0  0  0
  195.0190  170.8910  137.5120 C   0  0  1  0  0  3  0  0  0  0  0  0
  196.7200  171.4420  135.8900 O   0  0  0  0  0  1  0  0  0  0  0  0
  195.3820  171.6610  136.2380 C   0  0  2  0  0  3  0  0  0  0  0  0
  193.7210  173.3620  136.6740 O   0  0  0  0  0  1  0  0  0  0  0  0
  195.0580  173.1580  136.3090 C   0  0  1  0  0  3  0  0  0  0  0  0
  196.1450  173.9750  137.5160 P   0  0  0  0  0  0  0  0  0  0  0  0
  195.3380  175.2870  138.2170 O   0  0  0  0  0  1  0  0  0  0  0  0
  196.5800  172.8700  138.7210 O   0  0  0  0  0  1  0  0  0  0  0  0
  197.3900  174.4740  136.8170 O   0  0  0  0  0  0  0  0  0  0  0  0
  183.6400  178.7990  142.3630 C   0  0  2  0  0  3  0  0  0  0  0  0
  183.3940  178.6730  143.7960 N   0  0  0  0  0  2  0  0  0  0  0  0
  184.2360  179.2800  144.7770 C   0  0  0  0  0  0  0  0  0  0  0  0
  185.1890  180.0280  144.4290 O   0  0  0  0  0  0  0  0  0  0  0  0
  184.5560  177.7040  146.6370 C   0  0  0  0  0  1  0  0  0  0  0  0
  183.9750  179.0390  146.2220 C   0  0  0  0  0  2  0  0  0  0  0  0
  181.3910  178.9410  141.2970 C   0  0  0  0  0  1  0  0  0  0  0  0
  182.5820  178.0460  141.5760 C   0  0  0  0  0  2  0  0  0  0  0  0
  2 20  2  0  0  0  0
  2 16  1  0  0  0  0
  4  9  1  0  0  0  0
  4  8  1  0  0  0  0
  5 18  1  0  0  0  0
  5  6  2  0  0  0  0
  7  3  1  0  0  0  0
  9  7  1  0  0  0  0
 10  3  1  1  0  0  0
 10 23  1  0  0  0  0
 11 17  1  6  0  0  0
 11 22  1  0  0  0  0
 11  8  1  0  0  0  0
 12 18  1  0  0  0  0
 12  9  2  0  0  0  0
 13  6  1  0  0  0  0
 13 58  1  0  0  0  0
 14 46  1  1  0  0  0
 14 17  1  0  0  0  0
 14  1  1  0  0  0  0
 15 35  1  1  0  0  0
 15 22  1  0  0  0  0
 15 10  1  0  0  0  0
 16  4  2  0  0  0  0
 19 20  1  0  0  0  0
 19  5  1  0  0  0  0
 19 21  2  0  0  0  0
 20 12  1  0  0  0  0
 21 13  1  0  0  0  0
 22  1  1  6  0  0  0
 23 25  1  6  0  0  0
 23 24  1  0  0  0  0
 24 26  1  1  0  0  0
 25 24  1  0  0  0  0
 26 27  1  6  0  0  0
 26 28  1  0  0  0  0
 28 29  1  0  0  0  0
 29 32  1  6  0  0  0
 29 30  1  0  0  0  0
 31 30  1  0  0  0  0
 32 33  1  0  0  0  0
 34 33  1  0  0  0  0
 35 36  1  0  0  0  0
 38 39  1  0  0  0  0
 38 40  1  1  0  0  0
 39 37  1  1  0  0  0
 41 36  1  1  0  0  0
 41 38  1  0  0  0  0
 41 39  1  0  0  0  0
 42 38  1  0  0  0  0
 43 42  1  0  0  0  0
 44 45  1  0  0  0  0
 45 43  1  0  0  0  0
 47 46  1  0  0  0  0
 49 48  1  6  0  0  0
 49 47  1  0  0  0  0
 51 50  1  1  0  0  0
 51 53  1  0  0  0  0
 51 49  1  0  0  0  0
 53 52  1  1  0  0  0
 53 54  1  0  0  0  0
 54 55  1  0  0  0  0
 54 56  1  0  0  0  0
 57 54  2  0  0  0  0
 58 65  1  6  0  0  0
 58 59  1  0  0  0  0
 59 60  1  0  0  0  0
 60 63  1  0  0  0  0
 61 60  2  0  0  0  0
 63 62  1  0  0  0  0
 64 65  1  0  0  0  0
M  END
>  <MODEL>
7

>  <REMARK>
 VINA RESULT:      -3.1      2.548      4.568
  Name = 
  23 active torsions:
  status: ('A' for Active; 'I' for Inactive)
    1  A    between atoms: C_1  and  C_58
    2  A    between atoms: C_4  and  C_5
    3  A    between atoms: C_4  and  C_41
    4  A    between atoms: C_5  and  C_32
    5  A    between atoms: C_8  and  O_10
    6  A    between atoms: C_8  and  C_45
    7  A    between atoms: O_10  and  C_65
    8  A    between atoms: P_11  and  C_55
    9  A    between atoms: C_13  and  C_60
   10  A    between atoms: N_15  and  C_44
   11  A    between atoms: C_17  and  N_36
   12  A    between atoms: O_19  and  C_41
   13  A    between atoms: C_22  and  O_24
   14  A    between atoms: C_22  and  C_54
   15  A    between atoms: O_24  and  C_43
   16  A    between atoms: C_27  and  C_52
   17  A    between atoms: C_29  and  C_54
   18  A    between atoms: C_29  and  C_55
   19  A    between atoms: C_37  and  C_51
   20  A    between atoms: C_37  and  C_60
   21  A    between atoms: C_41  and  C_58
   22  A    between atoms: N_42  and  C_44
   23  A    between atoms: C_44  and  C_49
                            x       y       z     vdW  Elec       q    Type
                         _______ _______ _______ _____ _____    ______ ____

>  <TORSDO>
F 23

$$$$
=
 OpenBabel11042416373D

 65 71  0  0  1  0  0  0  0  0999 V2000
  196.4480  172.9400  140.9290 S   0  0  0  0  0  0  0  0  0  0  0  0
  190.5940  176.9720  143.2200 N   0  0  0  0  0  0  0  0  0  0  0  0
  192.2250  173.9580  139.5740 O   0  0  0  0  0  0  0  0  0  0  0  0
  192.1500  175.5980  141.9840 C   0  0  0  0  0  0  0  0  0  0  0  0
  187.4290  175.5780  142.3130 C   0  0  0  0  0  0  0  0  0  0  0  0
  186.1820  176.0630  142.2780 N   0  0  0  0  0  0  0  0  0  0  0  0
  191.2790  173.6440  140.5550 C   0  0  0  0  0  2  0  0  0  0  0  0
  193.5730  175.4360  141.5330 C   0  0  0  0  0  2  0  0  0  0  0  0
  191.0790  174.8100  141.4780 C   0  0  0  0  0  0  0  0  0  0  0  0
  192.7140  172.7700  139.1300 N   0  0  2  0  0  0  0  0  0  0  0  0
  194.0950  174.0340  141.7870 C   0  0  2  0  0  3  0  0  0  0  0  0
  189.7860  175.1390  141.8940 C   0  0  0  0  0  0  0  0  0  0  0  0
  186.2700  177.1860  142.9980 N   0  0  0  0  0  0  0  0  0  0  0  0
  196.0170  172.8790  142.6850 C   0  0  2  0  0  3  0  0  0  0  0  0
  193.8550  172.3260  139.9750 C   0  0  2  0  0  3  0  0  0  0  0  0
  191.8720  176.6780  142.8460 C   0  0  0  0  0  3  0  0  0  0  0  0
  195.1040  174.0500  142.9180 C   0  0  0  0  0  2  0  0  0  0  0  0
  188.2880  174.4890  141.3540 S   0  0  0  0  0  0  0  0  0  0  0  0
  188.2250  176.4160  142.9760 C   0  0  0  0  0  0  0  0  0  0  0  0
  189.5740  176.2080  142.7680 C   0  0  0  0  0  0  0  0  0  0  0  0
  187.5120  177.4600  143.4140 N   0  0  0  0  0  0  0  0  0  0  0  0
  194.7410  173.4730  140.5180 C   0  0  2  0  0  3  0  0  0  0  0  0
  193.1400  172.9950  137.7510 C   0  0  2  0  0  3  0  0  0  0  0  0
  192.0620  173.6800  136.9950 C   0  0  2  0  0  3  0  0  0  0  0  0
  192.2780  172.2950  136.8840 O   0  0  0  0  0  0  0  0  0  0  0  0
  192.6100  174.3600  135.7550 C   0  0  2  0  0  3  0  0  0  0  0  0
  192.1590  173.6150  134.5140 C   0  0  0  0  0  1  0  0  0  0  0  0
  194.1330  174.3510  135.8230 C   0  0  0  0  0  2  0  0  0  0  0  0
  194.7570  175.5980  135.1980 C   0  0  1  0  0  3  0  0  0  0  0  0
  193.7640  176.4830  134.7630 O   0  0  0  0  0  0  0  0  0  0  0  0
  193.9830  177.6560  135.4980 C   0  0  0  0  0  1  0  0  0  0  0  0
  195.6950  176.2890  136.1780 C   0  0  0  0  0  2  0  0  0  0  0  0
  196.8680  175.3860  136.4950 C   0  0  0  0  0  2  0  0  0  0  0  0
  197.8980  175.5610  135.4860 N   0  0  0  0  0  1  0  0  0  0  0  0
  194.6260  171.1710  139.3270 C   0  0  0  0  0  2  0  0  0  0  0  0
  195.6540  171.6590  138.5160 O   0  0  0  0  0  0  0  0  0  0  0  0
  197.7040  172.0160  136.9670 O   0  0  0  0  0  1  0  0  0  0  0  0
  196.6370  169.8640  137.2070 C   0  0  1  0  0  0  0  0  0  0  0  0
  196.7670  171.1490  136.3960 C   0  0  1  0  0  3  0  0  0  0  0  0
  197.5550  169.6630  138.4120 C   0  0  0  0  0  1  0  0  0  0  0  0
  195.5520  170.9300  137.3210 C   0  0  2  0  0  3  0  0  0  0  0  0
  196.1960  168.6360  136.4200 C   0  0  0  0  0  2  0  0  0  0  0  0
  195.8250  168.9820  134.9810 C   0  0  0  0  0  2  0  0  0  0  0  0
  193.4660  168.7510  135.2370 F   0  0  0  0  0  0  0  0  0  0  0  0
  194.5580  168.2620  134.5410 C   0  0  0  0  0  2  0  0  0  0  0  0
  197.1620  172.9990  143.4740 O   0  0  0  0  0  0  0  0  0  0  0  0
  196.9650  174.1750  144.2000 C   0  0  0  0  0  2  0  0  0  0  0  0
  195.8850  173.6170  146.2520 O   0  0  0  0  0  1  0  0  0  0  0  0
  195.6520  174.1170  144.9730 C   0  0  1  0  0  3  0  0  0  0  0  0
  195.7480  176.5020  144.6180 O   0  0  0  0  0  1  0  0  0  0  0  0
  194.9240  175.4620  145.0630 C   0  0  2  0  0  3  0  0  0  0  0  0
  194.5710  177.0930  146.8110 O   0  0  0  0  0  1  0  0  0  0  0  0
  194.3460  175.7580  146.4510 C   0  0  1  0  0  3  0  0  0  0  0  0
  192.5590  175.4230  146.4680 P   0  0  0  0  0  0  0  0  0  0  0  0
  191.7120  176.8010  145.9730 O   0  0  0  0  0  1  0  0  0  0  0  0
  192.2160  174.1420  145.4170 O   0  0  0  0  0  0  0  0  0  0  0  0
  192.1290  175.0520  147.8700 O   0  0  0  0  0  1  0  0  0  0  0  0
  185.1410  178.0860  143.1960 C   0  0  2  0  0  3  0  0  0  0  0  0
  184.6190  177.9340  144.5500 N   0  0  0  0  0  2  0  0  0  0  0  0
  184.9160  178.8590  145.5960 C   0  0  0  0  0  0  0  0  0  0  0  0
  185.5830  179.9020  145.3590 O   0  0  0  0  0  0  0  0  0  0  0  0
  185.5800  178.2570  147.8860 C   0  0  0  0  0  1  0  0  0  0  0  0
  184.4200  178.5960  146.9740 C   0  0  0  0  0  2  0  0  0  0  0  0
  183.0910  178.9520  142.0720 C   0  0  0  0  0  1  0  0  0  0  0  0
  184.0570  177.7890  142.1740 C   0  0  0  0  0  2  0  0  0  0  0  0
  1 14  1  0  0  0  0
  3  7  1  0  0  0  0
  4 16  2  0  0  0  0
  5 19  1  0  0  0  0
  6  5  2  0  0  0  0
  6 13  1  0  0  0  0
  7  9  1  0  0  0  0
  8  4  1  0  0  0  0
  9 12  2  0  0  0  0
  9  4  1  0  0  0  0
 10  3  1  1  0  0  0
 10 15  1  0  0  0  0
 11  8  1  6  0  0  0
 11 17  1  0  0  0  0
 12 20  1  0  0  0  0
 13 58  1  0  0  0  0
 13 21  1  0  0  0  0
 14 17  1  0  0  0  0
 14 46  1  1  0  0  0
 15 35  1  6  0  0  0
 15 22  1  0  0  0  0
 16  2  1  0  0  0  0
 18 12  1  0  0  0  0
 18  5  1  0  0  0  0
 19 21  2  0  0  0  0
 20 19  1  0  0  0  0
 20  2  2  0  0  0  0
 22  1  1  1  0  0  0
 22 11  1  0  0  0  0
 23 25  1  6  0  0  0
 23 10  1  0  0  0  0
 24 26  1  6  0  0  0
 24 23  1  0  0  0  0
 25 24  1  0  0  0  0
 26 27  1  6  0  0  0
 26 28  1  0  0  0  0
 29 28  1  1  0  0  0
 29 32  1  0  0  0  0
 30 29  1  0  0  0  0
 30 31  1  0  0  0  0
 32 33  1  0  0  0  0
 34 33  1  0  0  0  0
 36 35  1  0  0  0  0
 38 41  1  0  0  0  0
 38 40  1  1  0  0  0
 39 37  1  1  0  0  0
 39 38  1  0  0  0  0
 39 41  1  0  0  0  0
 41 36  1  1  0  0  0
 42 38  1  0  0  0  0
 43 42  1  0  0  0  0
 45 43  1  0  0  0  0
 45 44  1  0  0  0  0
 46 47  1  0  0  0  0
 47 49  1  0  0  0  0
 49 51  1  0  0  0  0
 49 48  1  1  0  0  0
 51 50  1  1  0  0  0
 51 53  1  0  0  0  0
 53 54  1  0  0  0  0
 53 52  1  6  0  0  0
 54 57  1  0  0  0  0
 55 54  1  0  0  0  0
 56 54  2  0  0  0  0
 58 65  1  6  0  0  0
 58 59  1  0  0  0  0
 59 60  1  0  0  0  0
 60 63  1  0  0  0  0
 61 60  2  0  0  0  0
 63 62  1  0  0  0  0
 64 65  1  0  0  0  0
M  END
>  <MODEL>
8

>  <REMARK>
 VINA RESULT:      -2.7      2.971      6.968
  Name = 
  23 active torsions:
  status: ('A' for Active; 'I' for Inactive)
    1  A    between atoms: C_1  and  C_58
    2  A    between atoms: C_4  and  C_5
    3  A    between atoms: C_4  and  C_41
    4  A    between atoms: C_5  and  C_32
    5  A    between atoms: C_8  and  O_10
    6  A    between atoms: C_8  and  C_45
    7  A    between atoms: O_10  and  C_65
    8  A    between atoms: P_11  and  C_55
    9  A    between atoms: C_13  and  C_60
   10  A    between atoms: N_15  and  C_44
   11  A    between atoms: C_17  and  N_36
   12  A    between atoms: O_19  and  C_41
   13  A    between atoms: C_22  and  O_24
   14  A    between atoms: C_22  and  C_54
   15  A    between atoms: O_24  and  C_43
   16  A    between atoms: C_27  and  C_52
   17  A    between atoms: C_29  and  C_54
   18  A    between atoms: C_29  and  C_55
   19  A    between atoms: C_37  and  C_51
   20  A    between atoms: C_37  and  C_60
   21  A    between atoms: C_41  and  C_58
   22  A    between atoms: N_42  and  C_44
   23  A    between atoms: C_44  and  C_49
                            x       y       z     vdW  Elec       q    Type
                         _______ _______ _______ _____ _____    ______ ____

>  <TORSDO>
F 23

$$$$
=
 OpenBabel11042416373D

 65 71  0  0  1  0  0  0  0  0999 V2000
  193.7510  170.7370  137.5350 S   0  0  0  0  0  0  0  0  0  0  0  0
  189.1530  173.6620  142.6410 N   0  0  0  0  0  0  0  0  0  0  0  0
  193.9610  173.2590  141.3160 O   0  0  0  0  0  0  0  0  0  0  0  0
  191.0650  172.9190  141.3650 C   0  0  0  0  0  0  0  0  0  0  0  0
  190.2720  176.7820  143.9830 C   0  0  0  0  0  0  0  0  0  0  0  0
  189.9280  177.5010  145.0570 N   0  0  0  0  0  0  0  0  0  0  0  0
  193.1630  174.4030  141.2190 C   0  0  0  0  0  2  0  0  0  0  0  0
  191.6920  171.7730  140.6240 C   0  0  0  0  0  2  0  0  0  0  0  0
  191.7710  174.1080  141.6990 C   0  0  0  0  0  0  0  0  0  0  0  0
  194.9800  173.4370  140.4340 N   0  0  2  0  0  0  0  0  0  0  0  0
  192.2160  172.1930  139.2630 C   0  0  2  0  0  3  0  0  0  0  0  0
  191.1080  175.0490  142.4910 C   0  0  0  0  0  0  0  0  0  0  0  0
  188.7650  176.9570  145.4310 N   0  0  0  0  0  0  0  0  0  0  0  0
  192.2140  171.4920  136.9520 C   0  0  2  0  0  3  0  0  0  0  0  0
  194.5920  172.9520  139.0830 C   0  0  2  0  0  3  0  0  0  0  0  0
  189.7610  172.7220  141.8620 C   0  0  0  0  0  3  0  0  0  0  0  0
  191.3400  171.6190  138.1680 C   0  0  0  0  0  2  0  0  0  0  0  0
  191.7290  176.4970  143.1830 S   0  0  0  0  0  0  0  0  0  0  0  0
  189.3760  175.8180  143.7740 C   0  0  0  0  0  0  0  0  0  0  0  0
  189.8060  174.8090  142.9350 C   0  0  0  0  0  0  0  0  0  0  0  0
  188.4080  175.8980  144.6940 N   0  0  0  0  0  0  0  0  0  0  0  0
  193.6590  171.7170  139.0830 C   0  0  2  0  0  3  0  0  0  0  0  0
  196.1110  172.6730  140.9590 C   0  0  2  0  0  3  0  0  0  0  0  0
  195.9860  172.5360  142.4320 C   0  0  2  0  0  3  0  0  0  0  0  0
  196.8410  173.4870  141.8480 O   0  0  0  0  0  0  0  0  0  0  0  0
  196.8220  171.3790  142.9460 C   0  0  2  0  0  3  0  0  0  0  0  0
  196.3780  170.0870  142.2900 C   0  0  0  0  0  1  0  0  0  0  0  0
  196.6330  171.2700  144.4550 C   0  0  0  0  0  2  0  0  0  0  0  0
  195.8720  170.0090  144.8620 C   0  0  1  0  0  3  0  0  0  0  0  0
  196.2070  169.6300  146.1670 O   0  0  0  0  0  0  0  0  0  0  0  0
  197.6050  169.7160  146.2180 C   0  0  0  0  0  1  0  0  0  0  0  0
  194.3690  170.2140  144.7360 C   0  0  0  0  0  2  0  0  0  0  0  0
  193.6950  168.8990  144.4030 C   0  0  0  0  0  2  0  0  0  0  0  0
  193.2830  168.2430  145.6320 N   0  0  0  0  0  1  0  0  0  0  0  0
  195.8030  172.8410  138.1490 C   0  0  0  0  0  2  0  0  0  0  0  0
  195.7720  173.8480  137.1810 O   0  0  0  0  0  0  0  0  0  0  0  0
  196.8320  174.9340  135.0770 O   0  0  0  0  0  1  0  0  0  0  0  0
  196.5690  172.5440  135.2930 C   0  0  1  0  0  0  0  0  0  0  0  0
  196.0100  173.8520  134.7450 C   0  0  1  0  0  3  0  0  0  0  0  0
  197.9170  172.5680  136.0120 C   0  0  0  0  0  1  0  0  0  0  0  0
  195.3860  173.2010  135.9960 C   0  0  2  0  0  3  0  0  0  0  0  0
  196.1870  171.2920  134.5130 C   0  0  0  0  0  2  0  0  0  0  0  0
  197.1890  170.1600  134.7240 C   0  0  0  0  0  2  0  0  0  0  0  0
  196.4420  168.5350  136.3000 F   0  0  0  0  0  0  0  0  0  0  0  0
  196.4890  168.8280  134.9470 C   0  0  0  0  0  2  0  0  0  0  0  0
  191.5990  170.6780  136.0000 O   0  0  0  0  0  0  0  0  0  0  0  0
  190.7190  171.5290  135.3290 C   0  0  0  0  0  2  0  0  0  0  0  0
  192.2100  173.3380  134.8850 O   0  0  0  0  0  1  0  0  0  0  0  0
  191.0680  172.9880  135.6030 C   0  0  1  0  0  3  0  0  0  0  0  0
  190.4160  175.2780  135.2070 O   0  0  0  0  0  1  0  0  0  0  0  0
  189.9320  173.9670  135.2870 C   0  0  2  0  0  3  0  0  0  0  0  0
  189.1740  173.5120  137.5370 O   0  0  0  0  0  1  0  0  0  0  0  0
  188.7440  173.8650  136.2510 C   0  0  1  0  0  3  0  0  0  0  0  0
  187.8620  175.4530  136.3250 P   0  0  0  0  0  0  0  0  0  0  0  0
  186.6570  175.4950  135.1380 O   0  0  0  0  0  0  0  0  0  0  0  0
  187.1560  175.6350  137.8520 O   0  0  0  0  0  1  0  0  0  0  0  0
  188.8360  176.5830  136.0830 O   0  0  0  0  0  1  0  0  0  0  0  0
  188.0300  177.4010  146.6080 C   0  0  2  0  0  3  0  0  0  0  0  0
  186.7000  177.8560  146.2180 N   0  0  0  0  0  2  0  0  0  0  0  0
  185.6390  178.0240  147.1580 C   0  0  0  0  0  0  0  0  0  0  0  0
  185.8430  177.8620  148.3920 O   0  0  0  0  0  0  0  0  0  0  0  0
  184.2000  178.2430  145.1760 C   0  0  0  0  0  1  0  0  0  0  0  0
  184.2840  178.4090  146.6790 C   0  0  0  0  0  2  0  0  0  0  0  0
  189.7810  177.9480  148.2950 C   0  0  0  0  0  1  0  0  0  0  0  0
  188.7890  178.5190  147.3020 C   0  0  0  0  0  2  0  0  0  0  0  0
  2 20  1  0  0  0  0
  4  9  2  0  0  0  0
  4 16  1  0  0  0  0
  5  6  2  0  0  0  0
  6 13  1  0  0  0  0
  7  3  1  0  0  0  0
  7  9  1  0  0  0  0
  8  4  1  0  0  0  0
  9 12  1  0  0  0  0
 10 23  1  0  0  0  0
 10  3  1  1  0  0  0
 11 17  1  6  0  0  0
 11  8  1  0  0  0  0
 12 20  2  0  0  0  0
 12 18  1  0  0  0  0
 13 58  1  0  0  0  0
 14 46  1  6  0  0  0
 14  1  1  0  0  0  0
 14 17  1  0  0  0  0
 15 35  1  6  0  0  0
 15 10  1  0  0  0  0
 16  2  2  0  0  0  0
 18  5  1  0  0  0  0
 19  5  1  0  0  0  0
 19 21  2  0  0  0  0
 20 19  1  0  0  0  0
 21 13  1  0  0  0  0
 22  1  1  6  0  0  0
 22 15  1  0  0  0  0
 22 11  1  0  0  0  0
 23 25  1  1  0  0  0
 23 24  1  0  0  0  0
 24 26  1  1  0  0  0
 25 24  1  0  0  0  0
 26 27  1  6  0  0  0
 26 28  1  0  0  0  0
 29 28  1  1  0  0  0
 29 30  1  0  0  0  0
 30 31  1  0  0  0  0
 32 29  1  0  0  0  0
 33 32  1  0  0  0  0
 33 34  1  0  0  0  0
 36 35  1  0  0  0  0
 38 41  1  0  0  0  0
 38 40  1  1  0  0  0
 39 37  1  1  0  0  0
 39 38  1  0  0  0  0
 39 41  1  0  0  0  0
 41 36  1  1  0  0  0
 42 43  1  0  0  0  0
 42 38  1  0  0  0  0
 43 45  1  0  0  0  0
 45 44  1  0  0  0  0
 47 49  1  0  0  0  0
 47 46  1  0  0  0  0
 49 48  1  6  0  0  0
 51 50  1  1  0  0  0
 51 49  1  0  0  0  0
 51 53  1  0  0  0  0
 53 54  1  0  0  0  0
 53 52  1  1  0  0  0
 54 56  1  0  0  0  0
 55 54  2  0  0  0  0
 57 54  1  0  0  0  0
 58 65  1  6  0  0  0
 59 58  1  0  0  0  0
 59 60  1  0  0  0  0
 60 61  2  0  0  0  0
 62 63  1  0  0  0  0
 63 60  1  0  0  0  0
 65 64  1  0  0  0  0
M  END
>  <MODEL>
9

>  <REMARK>
 VINA RESULT:      -2.6      2.090      3.152
  Name = 
  23 active torsions:
  status: ('A' for Active; 'I' for Inactive)
    1  A    between atoms: C_1  and  C_58
    2  A    between atoms: C_4  and  C_5
    3  A    between atoms: C_4  and  C_41
    4  A    between atoms: C_5  and  C_32
    5  A    between atoms: C_8  and  O_10
    6  A    between atoms: C_8  and  C_45
    7  A    between atoms: O_10  and  C_65
    8  A    between atoms: P_11  and  C_55
    9  A    between atoms: C_13  and  C_60
   10  A    between atoms: N_15  and  C_44
   11  A    between atoms: C_17  and  N_36
   12  A    between atoms: O_19  and  C_41
   13  A    between atoms: C_22  and  O_24
   14  A    between atoms: C_22  and  C_54
   15  A    between atoms: O_24  and  C_43
   16  A    between atoms: C_27  and  C_52
   17  A    between atoms: C_29  and  C_54
   18  A    between atoms: C_29  and  C_55
   19  A    between atoms: C_37  and  C_51
   20  A    between atoms: C_37  and  C_60
   21  A    between atoms: C_41  and  C_58
   22  A    between atoms: N_42  and  C_44
   23  A    between atoms: C_44  and  C_49
                            x       y       z     vdW  Elec       q    Type
                         _______ _______ _______ _____ _____    ______ ____

>  <TORSDO>
F 23

$$$$
