=
 OpenBabel11042413473D

 30 32  0  0  1  0  0  0  0  0999 V2000
  188.9200  178.0800  143.3790 C   0  0  0  0  0  3  0  0  0  0  0  0
  187.7160  177.6080  143.0380 C   0  0  0  0  0  0  0  0  0  0  0  0
  186.5450  178.1080  143.7030 N   0  0  0  0  0  0  0  0  0  0  0  0
  186.1270  179.3780  143.4760 O   0  0  0  0  0  1  0  0  0  0  0  0
  184.7700  178.5430  147.3510 C   0  0  0  0  0  2  0  0  0  0  0  0
  184.5420  177.9690  145.1500 C   0  0  0  0  0  2  0  0  0  0  0  0
  186.2270  178.9640  147.0720 C   0  0  0  0  0  2  0  0  0  0  0  0
  184.2550  177.5680  146.4670 O   0  0  0  0  0  0  0  0  0  0  0  0
  187.1910  177.8000  146.8210 C   0  0  0  0  0  2  0  0  0  0  0  0
  186.7300  176.7590  145.7850 C   0  0  0  0  0  2  0  0  0  0  0  0
  185.8170  177.2720  144.6550 C   0  0  2  0  0  3  0  0  0  0  0  0
  187.5830  176.5960  141.9390 C   0  0  0  0  0  2  0  0  0  0  0  0
  187.7270  175.2580  142.4850 N   0  0  0  0  0  2  0  0  0  0  0  0
  188.0000  174.3760  141.3650 C   0  0  0  0  0  2  0  0  0  0  0  0
  189.1950  173.5970  141.6340 N   0  0  0  0  0  0  0  0  0  0  0  0
  190.7390  171.9890  140.5370 C   0  0  0  0  0  2  0  0  0  0  0  0
  191.1440  171.8880  141.9390 N   0  0  0  0  0  2  0  0  0  0  0  0
  189.9780  171.5310  142.7510 C   0  0  0  0  0  2  0  0  0  0  0  0
  189.6400  173.0490  140.3510 C   0  0  0  0  0  2  0  0  0  0  0  0
  188.8010  172.4900  142.5080 C   0  0  0  0  0  2  0  0  0  0  0  0
  190.1920  177.6350  142.7310 C   0  0  0  0  0  2  0  0  0  0  0  0
  191.3690  177.9040  143.6480 C   0  0  0  0  0  2  0  0  0  0  0  0
  191.7870  176.6710  144.2980 N   0  0  0  0  0  2  0  0  0  0  0  0
  189.4520  174.7000  147.2270 C   0  0  0  0  0  0  0  0  0  0  0  0
  190.9580  176.4950  146.6170 C   0  0  0  0  0  3  0  0  0  0  0  0
  190.1830  175.8380  147.5780 C   0  0  0  0  0  3  0  0  0  0  0  0
  188.7030  174.0630  148.1570 F   0  0  0  0  0  0  0  0  0  0  0  0
  189.4950  174.2190  145.9150 C   0  0  0  0  0  3  0  0  0  0  0  0
  190.2700  174.8760  144.9540 C   0  0  0  0  0  3  0  0  0  0  0  0
  191.0040  176.0150  145.2990 C   0  0  0  0  0  0  0  0  0  0  0  0
  2  1  2  0  0  0  0
  2  3  1  0  0  0  0
  4  3  1  0  0  0  0
  6  8  1  0  0  0  0
  7  5  1  0  0  0  0
  8  5  1  0  0  0  0
  9  7  1  0  0  0  0
 10  9  1  0  0  0  0
 11  3  1  1  0  0  0
 11  6  1  0  0  0  0
 11 10  1  0  0  0  0
 12 13  1  0  0  0  0
 12  2  1  0  0  0  0
 14 15  1  0  0  0  0
 14 13  1  0  0  0  0
 15 20  1  0  0  0  0
 16 17  1  0  0  0  0
 17 18  1  0  0  0  0
 19 16  1  0  0  0  0
 19 15  1  0  0  0  0
 20 18  1  0  0  0  0
 21  1  1  0  0  0  0
 21 22  1  0  0  0  0
 22 23  1  0  0  0  0
 23 30  1  0  0  0  0
 24 26  1  0  0  0  0
 24 27  1  0  0  0  0
 25 26  2  0  0  0  0
 28 24  2  0  0  0  0
 29 30  2  0  0  0  0
 29 28  1  0  0  0  0
 30 25  1  0  0  0  0
M  END
>  <MODEL>
1

>  <REMARK>
 VINA RESULT:      -6.3      0.000      0.000
  Name = 
  10 active torsions:
  status: ('A' for Active; 'I' for Inactive)
    1  A    between atoms: N_1  and  C_17
    2  A    between atoms: C_2  and  C_19
    3  A    between atoms: C_2  and  N_30
    4  A    between atoms: N_9  and  C_19
    5  A    between atoms: N_9  and  C_27
    6  A    between atoms: N_12  and  C_18
    7  A    between atoms: N_12  and  C_25
    8  A    between atoms: C_14  and  C_16
    9  A    between atoms: C_14  and  C_18
   10  A    between atoms: C_17  and  N_30
                            x       y       z     vdW  Elec       q    Type
                         _______ _______ _______ _____ _____    ______ ____

>  <TORSDO>
F 10

$$$$
=
 OpenBabel11042413473D

 30 32  0  0  1  0  0  0  0  0999 V2000
  188.0570  176.9120  141.9990 C   0  0  0  0  0  3  0  0  0  0  0  0
  189.3180  176.7190  142.4000 C   0  0  0  0  0  0  0  0  0  0  0  0
  189.8500  175.3850  142.4460 N   0  0  0  0  0  0  0  0  0  0  0  0
  191.0780  175.1280  141.9300 O   0  0  0  0  0  1  0  0  0  0  0  0
  189.9910  171.3080  142.5340 C   0  0  0  0  0  2  0  0  0  0  0  0
  189.9610  173.2640  143.7170 C   0  0  0  0  0  2  0  0  0  0  0  0
  190.0530  172.1220  141.2250 C   0  0  0  0  0  2  0  0  0  0  0  0
  189.3920  171.9820  143.6220 O   0  0  0  0  0  0  0  0  0  0  0  0
  188.7490  172.8370  140.8560 C   0  0  0  0  0  2  0  0  0  0  0  0
  188.1050  173.6760  141.9740 C   0  0  0  0  0  2  0  0  0  0  0  0
  189.0640  174.2900  143.0110 C   0  0  2  0  0  3  0  0  0  0  0  0
  190.1870  177.8890  142.7590 C   0  0  0  0  0  2  0  0  0  0  0  0
  190.8500  177.6350  144.0250 N   0  0  0  0  0  2  0  0  0  0  0  0
  189.8500  177.8100  145.0630 C   0  0  0  0  0  2  0  0  0  0  0  0
  190.1820  176.9800  146.2080 N   0  0  0  0  0  0  0  0  0  0  0  0
  191.8380  175.2830  146.9470 C   0  0  0  0  0  2  0  0  0  0  0  0
  190.8220  175.1880  147.9940 N   0  0  0  0  0  2  0  0  0  0  0  0
  189.5240  174.9000  147.3780 C   0  0  0  0  0  2  0  0  0  0  0  0
  191.4930  176.3900  145.9350 C   0  0  0  0  0  2  0  0  0  0  0  0
  189.1850  175.9080  146.2680 C   0  0  0  0  0  2  0  0  0  0  0  0
  187.4230  178.2630  141.9000 C   0  0  0  0  0  2  0  0  0  0  0  0
  185.9380  178.1260  141.6270 C   0  0  0  0  0  2  0  0  0  0  0  0
  185.3360  177.2130  142.5870 N   0  0  0  0  0  2  0  0  0  0  0  0
  184.6920  178.2080  146.6510 C   0  0  0  0  0  0  0  0  0  0  0  0
  184.2650  178.6280  144.3040 C   0  0  0  0  0  3  0  0  0  0  0  0
  184.0580  178.9490  145.6490 C   0  0  0  0  0  3  0  0  0  0  0  0
  184.4920  178.5200  147.9530 F   0  0  0  0  0  0  0  0  0  0  0  0
  185.5330  177.1460  146.3070 C   0  0  0  0  0  3  0  0  0  0  0  0
  185.7410  176.8240  144.9620 C   0  0  0  0  0  3  0  0  0  0  0  0
  185.1090  177.5620  143.9560 C   0  0  0  0  0  0  0  0  0  0  0  0
  1  2  2  0  0  0  0
  2  3  1  0  0  0  0
  2 12  1  0  0  0  0
  4  3  1  0  0  0  0
  5  8  1  0  0  0  0
  7  5  1  0  0  0  0
  8  6  1  0  0  0  0
  9  7  1  0  0  0  0
  9 10  1  0  0  0  0
 10 11  1  0  0  0  0
 11  3  1  6  0  0  0
 11  6  1  0  0  0  0
 12 13  1  0  0  0  0
 13 14  1  0  0  0  0
 14 15  1  0  0  0  0
 15 20  1  0  0  0  0
 16 17  1  0  0  0  0
 18 17  1  0  0  0  0
 19 15  1  0  0  0  0
 19 16  1  0  0  0  0
 20 18  1  0  0  0  0
 21  1  1  0  0  0  0
 22 21  1  0  0  0  0
 22 23  1  0  0  0  0
 23 30  1  0  0  0  0
 24 27  1  0  0  0  0
 25 26  1  0  0  0  0
 26 24  2  0  0  0  0
 28 24  1  0  0  0  0
 29 28  2  0  0  0  0
 30 25  2  0  0  0  0
 30 29  1  0  0  0  0
M  END
>  <MODEL>
2

>  <REMARK>
 VINA RESULT:      -6.3      2.682      6.189
  Name = 
  10 active torsions:
  status: ('A' for Active; 'I' for Inactive)
    1  A    between atoms: N_1  and  C_17
    2  A    between atoms: C_2  and  C_19
    3  A    between atoms: C_2  and  N_30
    4  A    between atoms: N_9  and  C_19
    5  A    between atoms: N_9  and  C_27
    6  A    between atoms: N_12  and  C_18
    7  A    between atoms: N_12  and  C_25
    8  A    between atoms: C_14  and  C_16
    9  A    between atoms: C_14  and  C_18
   10  A    between atoms: C_17  and  N_30
                            x       y       z     vdW  Elec       q    Type
                         _______ _______ _______ _____ _____    ______ ____

>  <TORSDO>
F 10

$$$$
=
 OpenBabel11042413473D

 30 32  0  0  1  0  0  0  0  0999 V2000
  188.9650  177.2430  142.2910 C   0  0  0  0  0  3  0  0  0  0  0  0
  189.2620  176.1090  142.9340 C   0  0  0  0  0  0  0  0  0  0  0  0
  190.3730  176.0810  143.8450 N   0  0  0  0  0  0  0  0  0  0  0  0
  191.4160  175.2440  143.6150 O   0  0  0  0  0  1  0  0  0  0  0  0
  190.8410  175.5890  147.8680 C   0  0  0  0  0  2  0  0  0  0  0  0
  191.5690  176.5960  145.9500 C   0  0  0  0  0  2  0  0  0  0  0  0
  189.8280  174.7770  147.0360 C   0  0  0  0  0  2  0  0  0  0  0  0
  191.2260  176.8210  147.2940 O   0  0  0  0  0  0  0  0  0  0  0  0
  188.6480  175.5910  146.4940 C   0  0  0  0  0  2  0  0  0  0  0  0
  189.0140  176.8950  145.7630 C   0  0  0  0  0  2  0  0  0  0  0  0
  190.3750  176.9200  145.0420 C   0  0  2  0  0  3  0  0  0  0  0  0
  188.4160  174.8850  142.7400 C   0  0  0  0  0  2  0  0  0  0  0  0
  189.0500  174.0000  141.7790 N   0  0  0  0  0  2  0  0  0  0  0  0
  188.0000  173.1610  141.2290 C   0  0  0  0  0  2  0  0  0  0  0  0
  188.2710  172.8910  139.8280 N   0  0  0  0  0  0  0  0  0  0  0  0
  190.1090  172.1640  138.3240 C   0  0  0  0  0  2  0  0  0  0  0  0
  189.1010  172.6230  137.3680 N   0  0  0  0  0  2  0  0  0  0  0  0
  188.7470  174.0110  137.6720 C   0  0  0  0  0  2  0  0  0  0  0  0
  189.5890  172.2570  139.7680 C   0  0  0  0  0  2  0  0  0  0  0  0
  188.3380  174.1840  139.1440 C   0  0  0  0  0  2  0  0  0  0  0  0
  187.8190  177.3740  141.3400 C   0  0  0  0  0  2  0  0  0  0  0  0
  186.7660  178.3030  141.9140 C   0  0  0  0  0  2  0  0  0  0  0  0
  185.8370  177.5510  142.7450 N   0  0  0  0  0  2  0  0  0  0  0  0
  185.4150  178.1560  146.9130 C   0  0  0  0  0  0  0  0  0  0  0  0
  185.8730  179.0470  144.7090 C   0  0  0  0  0  3  0  0  0  0  0  0
  185.7310  179.2380  146.0860 C   0  0  0  0  0  3  0  0  0  0  0  0
  185.2790  178.3400  148.2480 F   0  0  0  0  0  0  0  0  0  0  0  0
  185.2400  176.8830  146.3610 C   0  0  0  0  0  3  0  0  0  0  0  0
  185.3820  176.6920  144.9830 C   0  0  0  0  0  3  0  0  0  0  0  0
  185.6990  177.7710  144.1510 C   0  0  0  0  0  0  0  0  0  0  0  0
  1  2  2  0  0  0  0
  2  3  1  0  0  0  0
  4  3  1  0  0  0  0
  6  8  1  0  0  0  0
  7  5  1  0  0  0  0
  8  5  1  0  0  0  0
  9  7  1  0  0  0  0
 10  9  1  0  0  0  0
 11  3  1  6  0  0  0
 11 10  1  0  0  0  0
 11  6  1  0  0  0  0
 12  2  1  0  0  0  0
 13 12  1  0  0  0  0
 14 13  1  0  0  0  0
 15 14  1  0  0  0  0
 16 19  1  0  0  0  0
 17 18  1  0  0  0  0
 17 16  1  0  0  0  0
 18 20  1  0  0  0  0
 19 15  1  0  0  0  0
 20 15  1  0  0  0  0
 21 22  1  0  0  0  0
 21  1  1  0  0  0  0
 22 23  1  0  0  0  0
 23 30  1  0  0  0  0
 24 27  1  0  0  0  0
 25 26  1  0  0  0  0
 26 24  2  0  0  0  0
 28 24  1  0  0  0  0
 29 28  2  0  0  0  0
 30 25  2  0  0  0  0
 30 29  1  0  0  0  0
M  END
>  <MODEL>
3

>  <REMARK>
 VINA RESULT:      -6.3      2.588      4.689
  Name = 
  10 active torsions:
  status: ('A' for Active; 'I' for Inactive)
    1  A    between atoms: N_1  and  C_17
    2  A    between atoms: C_2  and  C_19
    3  A    between atoms: C_2  and  N_30
    4  A    between atoms: N_9  and  C_19
    5  A    between atoms: N_9  and  C_27
    6  A    between atoms: N_12  and  C_18
    7  A    between atoms: N_12  and  C_25
    8  A    between atoms: C_14  and  C_16
    9  A    between atoms: C_14  and  C_18
   10  A    between atoms: C_17  and  N_30
                            x       y       z     vdW  Elec       q    Type
                         _______ _______ _______ _____ _____    ______ ____

>  <TORSDO>
F 10

$$$$
=
 OpenBabel11042413473D

 30 32  0  0  1  0  0  0  0  0999 V2000
  190.5500  176.2690  146.1080 C   0  0  0  0  0  3  0  0  0  0  0  0
  191.0340  176.5760  144.9010 C   0  0  0  0  0  0  0  0  0  0  0  0
  192.2070  175.9030  144.4150 N   0  0  0  0  0  0  0  0  0  0  0  0
  192.1610  174.5760  144.1400 O   0  0  0  0  0  1  0  0  0  0  0  0
  196.2000  175.0770  144.5430 C   0  0  0  0  0  2  0  0  0  0  0  0
  194.4320  175.8680  143.3310 C   0  0  0  0  0  2  0  0  0  0  0  0
  195.2300  174.7070  145.6830 C   0  0  0  0  0  2  0  0  0  0  0  0
  195.7600  176.1300  143.7090 O   0  0  0  0  0  0  0  0  0  0  0  0
  194.6680  175.9040  146.4580 C   0  0  0  0  0  2  0  0  0  0  0  0
  194.0760  177.0370  145.6020 C   0  0  0  0  0  2  0  0  0  0  0  0
  193.4650  176.6290  144.2480 C   0  0  2  0  0  3  0  0  0  0  0  0
  190.3340  177.5850  144.0390 C   0  0  0  0  0  2  0  0  0  0  0  0
  190.2630  177.0980  142.6730 N   0  0  0  0  0  2  0  0  0  0  0  0
  189.0370  176.3270  142.5680 C   0  0  0  0  0  2  0  0  0  0  0  0
  189.3270  175.0180  142.0100 N   0  0  0  0  0  0  0  0  0  0  0  0
  188.4650  173.4010  140.3330 C   0  0  0  0  0  2  0  0  0  0  0  0
  189.4480  172.5930  141.0540 N   0  0  0  0  0  2  0  0  0  0  0  0
  189.1190  172.5960  142.4810 C   0  0  0  0  0  2  0  0  0  0  0  0
  188.4480  174.8490  140.8520 C   0  0  0  0  0  2  0  0  0  0  0  0
  188.9650  174.0260  143.0250 C   0  0  0  0  0  2  0  0  0  0  0  0
  189.3260  176.9010  146.6900 C   0  0  0  0  0  2  0  0  0  0  0  0
  188.1600  175.9330  146.6340 C   0  0  0  0  0  2  0  0  0  0  0  0
  186.9480  176.5830  147.1120 N   0  0  0  0  0  2  0  0  0  0  0  0
  184.2010  178.5680  144.5750 C   0  0  0  0  0  0  0  0  0  0  0  0
  186.1360  177.1360  144.8470 C   0  0  0  0  0  3  0  0  0  0  0  0
  185.2240  177.7950  144.0170 C   0  0  0  0  0  3  0  0  0  0  0  0
  183.3190  179.2060  143.7720 F   0  0  0  0  0  0  0  0  0  0  0  0
  184.0920  178.6810  145.9650 C   0  0  0  0  0  3  0  0  0  0  0  0
  185.0040  178.0230  146.7950 C   0  0  0  0  0  3  0  0  0  0  0  0
  186.0290  177.2480  146.2420 C   0  0  0  0  0  0  0  0  0  0  0  0
  1 21  1  0  0  0  0
  2  1  2  0  0  0  0
  3  2  1  0  0  0  0
  4  3  1  0  0  0  0
  5  7  1  0  0  0  0
  6  8  1  0  0  0  0
  6 11  1  0  0  0  0
  7  9  1  0  0  0  0
  8  5  1  0  0  0  0
 10  9  1  0  0  0  0
 11  3  1  1  0  0  0
 11 10  1  0  0  0  0
 12  2  1  0  0  0  0
 13 12  1  0  0  0  0
 14 13  1  0  0  0  0
 15 14  1  0  0  0  0
 15 20  1  0  0  0  0
 16 19  1  0  0  0  0
 16 17  1  0  0  0  0
 17 18  1  0  0  0  0
 18 20  1  0  0  0  0
 19 15  1  0  0  0  0
 22 21  1  0  0  0  0
 22 23  1  0  0  0  0
 24 28  1  0  0  0  0
 25 30  2  0  0  0  0
 26 24  2  0  0  0  0
 26 25  1  0  0  0  0
 27 24  1  0  0  0  0
 28 29  2  0  0  0  0
 30 29  1  0  0  0  0
 30 23  1  0  0  0  0
M  END
>  <MODEL>
4

>  <REMARK>
 VINA RESULT:      -6.3      3.537      6.407
  Name = 
  10 active torsions:
  status: ('A' for Active; 'I' for Inactive)
    1  A    between atoms: N_1  and  C_17
    2  A    between atoms: C_2  and  C_19
    3  A    between atoms: C_2  and  N_30
    4  A    between atoms: N_9  and  C_19
    5  A    between atoms: N_9  and  C_27
    6  A    between atoms: N_12  and  C_18
    7  A    between atoms: N_12  and  C_25
    8  A    between atoms: C_14  and  C_16
    9  A    between atoms: C_14  and  C_18
   10  A    between atoms: C_17  and  N_30
                            x       y       z     vdW  Elec       q    Type
                         _______ _______ _______ _____ _____    ______ ____

>  <TORSDO>
F 10

$$$$
=
 OpenBabel11042413473D

 30 32  0  0  1  0  0  0  0  0999 V2000
  189.3790  176.9190  144.5410 C   0  0  0  0  0  3  0  0  0  0  0  0
  189.4960  176.4380  143.3000 C   0  0  0  0  0  0  0  0  0  0  0  0
  188.9090  177.1560  142.2030 N   0  0  0  0  0  0  0  0  0  0  0  0
  189.3310  178.4120  141.9120 O   0  0  0  0  0  1  0  0  0  0  0  0
  185.1650  178.1910  140.9530 C   0  0  0  0  0  2  0  0  0  0  0  0
  187.2830  177.5490  140.3790 C   0  0  0  0  0  2  0  0  0  0  0  0
  185.6070  178.2620  142.4290 C   0  0  0  0  0  2  0  0  0  0  0  0
  185.9180  177.3020  140.1520 O   0  0  0  0  0  0  0  0  0  0  0  0
  185.8460  176.9000  143.0900 C   0  0  0  0  0  2  0  0  0  0  0  0
  186.7490  175.9270  142.3110 C   0  0  0  0  0  2  0  0  0  0  0  0
  187.8310  176.5600  141.4160 C   0  0  2  0  0  3  0  0  0  0  0  0
  190.2730  175.1790  143.0460 C   0  0  0  0  0  2  0  0  0  0  0  0
  191.6030  175.5120  142.5700 N   0  0  0  0  0  2  0  0  0  0  0  0
  192.5020  174.5060  143.1060 C   0  0  0  0  0  2  0  0  0  0  0  0
  193.0930  174.9860  144.3440 N   0  0  0  0  0  0  0  0  0  0  0  0
  194.2990  176.9470  145.2730 C   0  0  0  0  0  2  0  0  0  0  0  0
  194.4710  175.9570  146.3350 N   0  0  0  0  0  2  0  0  0  0  0  0
  195.0980  174.7570  145.7760 C   0  0  0  0  0  2  0  0  0  0  0  0
  193.4260  176.3950  144.1330 C   0  0  0  0  0  2  0  0  0  0  0  0
  194.3320  174.2330  144.5510 C   0  0  0  0  0  2  0  0  0  0  0  0
  189.9710  176.2530  145.7420 C   0  0  0  0  0  2  0  0  0  0  0  0
  188.8890  175.9470  146.7590 C   0  0  0  0  0  2  0  0  0  0  0  0
  188.2790  177.1830  147.2260 N   0  0  0  0  0  2  0  0  0  0  0  0
  184.4180  178.4620  146.0570 C   0  0  0  0  0  0  0  0  0  0  0  0
  185.8680  176.7370  146.9440 C   0  0  0  0  0  3  0  0  0  0  0  0
  184.5960  177.1680  146.5550 C   0  0  0  0  0  3  0  0  0  0  0  0
  183.1860  178.8790  145.6790 F   0  0  0  0  0  0  0  0  0  0  0  0
  185.5130  179.3250  145.9470 C   0  0  0  0  0  3  0  0  0  0  0  0
  186.7850  178.8940  146.3350 C   0  0  0  0  0  3  0  0  0  0  0  0
  186.9690  177.6010  146.8340 C   0  0  0  0  0  0  0  0  0  0  0  0
  1 21  1  0  0  0  0
  2  1  2  0  0  0  0
  3  2  1  0  0  0  0
  4  3  1  0  0  0  0
  5  7  1  0  0  0  0
  6 11  1  0  0  0  0
  7  9  1  0  0  0  0
  8  6  1  0  0  0  0
  8  5  1  0  0  0  0
 10  9  1  0  0  0  0
 11  3  1  1  0  0  0
 11 10  1  0  0  0  0
 12  2  1  0  0  0  0
 13 12  1  0  0  0  0
 13 14  1  0  0  0  0
 14 15  1  0  0  0  0
 15 20  1  0  0  0  0
 16 17  1  0  0  0  0
 18 17  1  0  0  0  0
 19 15  1  0  0  0  0
 19 16  1  0  0  0  0
 20 18  1  0  0  0  0
 21 22  1  0  0  0  0
 22 23  1  0  0  0  0
 24 26  1  0  0  0  0
 26 25  2  0  0  0  0
 27 24  1  0  0  0  0
 28 24  2  0  0  0  0
 28 29  1  0  0  0  0
 29 30  2  0  0  0  0
 30 25  1  0  0  0  0
 30 23  1  0  0  0  0
M  END
>  <MODEL>
5

>  <REMARK>
 VINA RESULT:      -6.2      2.899      5.229
  Name = 
  10 active torsions:
  status: ('A' for Active; 'I' for Inactive)
    1  A    between atoms: N_1  and  C_17
    2  A    between atoms: C_2  and  C_19
    3  A    between atoms: C_2  and  N_30
    4  A    between atoms: N_9  and  C_19
    5  A    between atoms: N_9  and  C_27
    6  A    between atoms: N_12  and  C_18
    7  A    between atoms: N_12  and  C_25
    8  A    between atoms: C_14  and  C_16
    9  A    between atoms: C_14  and  C_18
   10  A    between atoms: C_17  and  N_30
                            x       y       z     vdW  Elec       q    Type
                         _______ _______ _______ _____ _____    ______ ____

>  <TORSDO>
F 10

$$$$
=
 OpenBabel11042413473D

 30 32  0  0  1  0  0  0  0  0999 V2000
  190.7220  174.7670  146.4100 C   0  0  0  0  0  3  0  0  0  0  0  0
  190.9200  174.2450  145.1960 C   0  0  0  0  0  0  0  0  0  0  0  0
  192.2580  173.9680  144.7520 N   0  0  0  0  0  0  0  0  0  0  0  0
  192.9250  172.8920  145.2410 O   0  0  0  0  0  1  0  0  0  0  0  0
  195.9380  175.6740  144.3040 C   0  0  0  0  0  2  0  0  0  0  0  0
  194.3150  174.3270  143.4230 C   0  0  0  0  0  2  0  0  0  0  0  0
  195.1120  175.7880  145.6020 C   0  0  0  0  0  2  0  0  0  0  0  0
  195.1800  175.3990  143.1430 O   0  0  0  0  0  0  0  0  0  0  0  0
  193.8490  176.6460  145.4820 C   0  0  0  0  0  2  0  0  0  0  0  0
  192.9280  176.3190  144.2930 C   0  0  0  0  0  2  0  0  0  0  0  0
  192.9270  174.8580  143.8060 C   0  0  2  0  0  3  0  0  0  0  0  0
  189.7510  173.9080  144.3160 C   0  0  0  0  0  2  0  0  0  0  0  0
  189.6300  174.9000  143.2630 N   0  0  0  0  0  2  0  0  0  0  0  0
  188.5300  174.4760  142.4150 C   0  0  0  0  0  2  0  0  0  0  0  0
  187.8790  175.6390  141.8380 N   0  0  0  0  0  0  0  0  0  0  0  0
  188.0880  178.1110  141.7290 C   0  0  0  0  0  2  0  0  0  0  0  0
  186.7530  177.8970  141.1710 N   0  0  0  0  0  2  0  0  0  0  0  0
  185.9430  177.1520  142.1380 C   0  0  0  0  0  2  0  0  0  0  0  0
  188.7760  176.7750  142.0540 C   0  0  0  0  0  2  0  0  0  0  0  0
  186.6450  175.8630  142.5940 C   0  0  0  0  0  2  0  0  0  0  0  0
  189.3670  175.0700  146.9650 C   0  0  0  0  0  2  0  0  0  0  0  0
  189.1300  176.5680  146.9800 C   0  0  0  0  0  2  0  0  0  0  0  0
  188.4110  176.9720  145.7800 N   0  0  0  0  0  2  0  0  0  0  0  0
  184.4600  178.4890  145.8390 C   0  0  0  0  0  0  0  0  0  0  0  0
  186.0450  176.7650  146.4540 C   0  0  0  0  0  3  0  0  0  0  0  0
  184.7430  177.2740  146.4690 C   0  0  0  0  0  3  0  0  0  0  0  0
  183.1990  178.9820  145.8520 F   0  0  0  0  0  0  0  0  0  0  0  0
  185.4800  179.1960  145.1950 C   0  0  0  0  0  3  0  0  0  0  0  0
  186.7830  178.6870  145.1800 C   0  0  0  0  0  3  0  0  0  0  0  0
  187.0720  177.4710  145.8080 C   0  0  0  0  0  0  0  0  0  0  0  0
  1 21  1  0  0  0  0
  2  1  2  0  0  0  0
  3  2  1  0  0  0  0
  3  4  1  0  0  0  0
  5  7  1  0  0  0  0
  6 11  1  0  0  0  0
  8  6  1  0  0  0  0
  8  5  1  0  0  0  0
  9  7  1  0  0  0  0
 10  9  1  0  0  0  0
 11 10  1  0  0  0  0
 11  3  1  1  0  0  0
 12  2  1  0  0  0  0
 13 12  1  0  0  0  0
 14 13  1  0  0  0  0
 15 19  1  0  0  0  0
 15 14  1  0  0  0  0
 15 20  1  0  0  0  0
 16 19  1  0  0  0  0
 17 16  1  0  0  0  0
 17 18  1  0  0  0  0
 18 20  1  0  0  0  0
 21 22  1  0  0  0  0
 23 30  1  0  0  0  0
 23 22  1  0  0  0  0
 24 27  1  0  0  0  0
 24 26  1  0  0  0  0
 25 26  2  0  0  0  0
 28 24  2  0  0  0  0
 29 28  1  0  0  0  0
 29 30  2  0  0  0  0
 30 25  1  0  0  0  0
M  END
>  <MODEL>
6

>  <REMARK>
 VINA RESULT:      -6.1      3.580      6.662
  Name = 
  10 active torsions:
  status: ('A' for Active; 'I' for Inactive)
    1  A    between atoms: N_1  and  C_17
    2  A    between atoms: C_2  and  C_19
    3  A    between atoms: C_2  and  N_30
    4  A    between atoms: N_9  and  C_19
    5  A    between atoms: N_9  and  C_27
    6  A    between atoms: N_12  and  C_18
    7  A    between atoms: N_12  and  C_25
    8  A    between atoms: C_14  and  C_16
    9  A    between atoms: C_14  and  C_18
   10  A    between atoms: C_17  and  N_30
                            x       y       z     vdW  Elec       q    Type
                         _______ _______ _______ _____ _____    ______ ____

>  <TORSDO>
F 10

$$$$
=
 OpenBabel11042413473D

 30 32  0  0  1  0  0  0  0  0999 V2000
  190.8490  175.1310  145.9590 C   0  0  0  0  0  3  0  0  0  0  0  0
  191.1660  175.5410  144.7270 C   0  0  0  0  0  0  0  0  0  0  0  0
  192.3710  176.2950  144.5200 N   0  0  0  0  0  0  0  0  0  0  0  0
  192.3020  177.5690  144.0600 O   0  0  0  0  0  1  0  0  0  0  0  0
  196.0850  176.3620  142.8310 C   0  0  0  0  0  2  0  0  0  0  0  0
  194.8020  176.7330  144.6860 C   0  0  0  0  0  2  0  0  0  0  0  0
  194.8050  176.0470  142.0310 C   0  0  0  0  0  2  0  0  0  0  0  0
  195.9850  176.1330  144.2220 O   0  0  0  0  0  0  0  0  0  0  0  0
  194.1450  174.7100  142.3820 C   0  0  0  0  0  2  0  0  0  0  0  0
  193.9130  174.4500  143.8810 C   0  0  0  0  0  2  0  0  0  0  0  0
  193.6790  175.6900  144.7640 C   0  0  2  0  0  3  0  0  0  0  0  0
  190.2950  175.1790  143.5610 C   0  0  0  0  0  2  0  0  0  0  0  0
  189.4680  176.3160  143.1960 N   0  0  0  0  0  2  0  0  0  0  0  0
  188.6660  175.9020  142.0590 C   0  0  0  0  0  2  0  0  0  0  0  0
  187.4130  176.6370  142.0490 N   0  0  0  0  0  0  0  0  0  0  0  0
  185.9310  177.9040  140.5100 C   0  0  0  0  0  2  0  0  0  0  0  0
  185.3660  178.2390  141.8170 N   0  0  0  0  0  2  0  0  0  0  0  0
  186.4150  178.8190  142.6590 C   0  0  0  0  0  2  0  0  0  0  0  0
  187.0920  176.9030  140.6460 C   0  0  0  0  0  2  0  0  0  0  0  0
  187.6550  177.9120  142.7280 C   0  0  0  0  0  2  0  0  0  0  0  0
  189.6280  174.3250  146.2690 C   0  0  0  0  0  2  0  0  0  0  0  0
  188.7520  175.0630  147.2640 C   0  0  0  0  0  2  0  0  0  0  0  0
  188.6120  176.4570  146.8680 N   0  0  0  0  0  2  0  0  0  0  0  0
  184.8450  178.3120  146.3370 C   0  0  0  0  0  0  0  0  0  0  0  0
  186.9940  178.2290  147.4490 C   0  0  0  0  0  3  0  0  0  0  0  0
  185.7480  178.8350  147.2670 C   0  0  0  0  0  3  0  0  0  0  0  0
  183.6370  178.8980  146.1610 F   0  0  0  0  0  0  0  0  0  0  0  0
  185.1890  177.1820  145.5890 C   0  0  0  0  0  3  0  0  0  0  0  0
  186.4350  176.5750  145.7720 C   0  0  0  0  0  3  0  0  0  0  0  0
  187.3430  177.0940  146.7000 C   0  0  0  0  0  0  0  0  0  0  0  0
  1 21  1  0  0  0  0
  2  1  2  0  0  0  0
  3  2  1  0  0  0  0
  4  3  1  0  0  0  0
  5  8  1  0  0  0  0
  6 11  1  0  0  0  0
  7  9  1  0  0  0  0
  7  5  1  0  0  0  0
  8  6  1  0  0  0  0
  9 10  1  0  0  0  0
 10 11  1  0  0  0  0
 11  3  1  6  0  0  0
 12  2  1  0  0  0  0
 13 12  1  0  0  0  0
 14 13  1  0  0  0  0
 15 14  1  0  0  0  0
 15 20  1  0  0  0  0
 16 19  1  0  0  0  0
 16 17  1  0  0  0  0
 17 18  1  0  0  0  0
 18 20  1  0  0  0  0
 19 15  1  0  0  0  0
 21 22  1  0  0  0  0
 23 22  1  0  0  0  0
 24 26  1  0  0  0  0
 26 25  2  0  0  0  0
 27 24  1  0  0  0  0
 28 29  1  0  0  0  0
 28 24  2  0  0  0  0
 29 30  2  0  0  0  0
 30 23  1  0  0  0  0
 30 25  1  0  0  0  0
M  END
>  <MODEL>
7

>  <REMARK>
 VINA RESULT:      -6.1      3.424      6.787
  Name = 
  10 active torsions:
  status: ('A' for Active; 'I' for Inactive)
    1  A    between atoms: N_1  and  C_17
    2  A    between atoms: C_2  and  C_19
    3  A    between atoms: C_2  and  N_30
    4  A    between atoms: N_9  and  C_19
    5  A    between atoms: N_9  and  C_27
    6  A    between atoms: N_12  and  C_18
    7  A    between atoms: N_12  and  C_25
    8  A    between atoms: C_14  and  C_16
    9  A    between atoms: C_14  and  C_18
   10  A    between atoms: C_17  and  N_30
                            x       y       z     vdW  Elec       q    Type
                         _______ _______ _______ _____ _____    ______ ____

>  <TORSDO>
F 10

$$$$
=
 OpenBabel11042413473D

 30 32  0  0  1  0  0  0  0  0999 V2000
  188.5410  176.9170  141.9680 C   0  0  0  0  0  3  0  0  0  0  0  0
  189.2170  176.3330  142.9620 C   0  0  0  0  0  0  0  0  0  0  0  0
  189.9470  175.1220  142.7070 N   0  0  0  0  0  0  0  0  0  0  0  0
  191.1090  175.1670  142.0090 O   0  0  0  0  0  1  0  0  0  0  0  0
  190.4190  171.1840  141.7510 C   0  0  0  0  0  2  0  0  0  0  0  0
  190.5620  172.8120  143.3490 C   0  0  0  0  0  2  0  0  0  0  0  0
  190.0600  172.2630  140.7090 C   0  0  0  0  0  2  0  0  0  0  0  0
  190.0890  171.5150  143.0850 O   0  0  0  0  0  0  0  0  0  0  0  0
  188.6540  172.8530  140.8600 C   0  0  0  0  0  2  0  0  0  0  0  0
  188.2760  173.3310  142.2730 C   0  0  0  0  0  2  0  0  0  0  0  0
  189.4310  173.8320  143.1600 C   0  0  2  0  0  3  0  0  0  0  0  0
  189.2490  176.9580  144.3260 C   0  0  0  0  0  2  0  0  0  0  0  0
  190.5990  177.3940  144.6330 N   0  0  0  0  0  2  0  0  0  0  0  0
  191.0790  176.5440  145.7070 C   0  0  0  0  0  2  0  0  0  0  0  0
  192.3510  175.9500  145.3320 N   0  0  0  0  0  0  0  0  0  0  0  0
  194.6690  175.6590  146.1750 C   0  0  0  0  0  2  0  0  0  0  0  0
  194.7990  175.2350  144.7820 N   0  0  0  0  0  2  0  0  0  0  0  0
  194.3410  176.3160  143.9060 C   0  0  0  0  0  2  0  0  0  0  0  0
  193.2100  176.0110  146.5150 C   0  0  0  0  0  2  0  0  0  0  0  0
  192.9290  176.7940  144.2840 C   0  0  0  0  0  2  0  0  0  0  0  0
  187.7690  178.1870  142.1330 C   0  0  0  0  0  2  0  0  0  0  0  0
  186.3760  178.0330  141.5530 C   0  0  0  0  0  2  0  0  0  0  0  0
  185.5650  177.1910  142.4200 N   0  0  0  0  0  2  0  0  0  0  0  0
  184.5170  178.2630  146.3790 C   0  0  0  0  0  0  0  0  0  0  0  0
  184.4070  178.6950  143.9990 C   0  0  0  0  0  3  0  0  0  0  0  0
  184.0660  179.0420  145.3090 C   0  0  0  0  0  3  0  0  0  0  0  0
  184.1880  178.5990  147.6480 F   0  0  0  0  0  0  0  0  0  0  0  0
  185.3110  177.1370  146.1370 C   0  0  0  0  0  3  0  0  0  0  0  0
  185.6520  176.7910  144.8260 C   0  0  0  0  0  3  0  0  0  0  0  0
  185.2040  177.5660  143.7520 C   0  0  0  0  0  0  0  0  0  0  0  0
  1 21  1  0  0  0  0
  1  2  2  0  0  0  0
  2 12  1  0  0  0  0
  3  2  1  0  0  0  0
  4  3  1  0  0  0  0
  5  8  1  0  0  0  0
  7  9  1  0  0  0  0
  7  5  1  0  0  0  0
  8  6  1  0  0  0  0
  9 10  1  0  0  0  0
 10 11  1  0  0  0  0
 11  3  1  6  0  0  0
 11  6  1  0  0  0  0
 12 13  1  0  0  0  0
 13 14  1  0  0  0  0
 15 14  1  0  0  0  0
 15 19  1  0  0  0  0
 16 19  1  0  0  0  0
 17 16  1  0  0  0  0
 18 20  1  0  0  0  0
 18 17  1  0  0  0  0
 20 15  1  0  0  0  0
 22 21  1  0  0  0  0
 22 23  1  0  0  0  0
 23 30  1  0  0  0  0
 24 27  1  0  0  0  0
 25 26  1  0  0  0  0
 26 24  2  0  0  0  0
 28 24  1  0  0  0  0
 29 28  2  0  0  0  0
 30 25  2  0  0  0  0
 30 29  1  0  0  0  0
M  END
>  <MODEL>
8

>  <REMARK>
 VINA RESULT:      -6.0      2.888      6.409
  Name = 
  10 active torsions:
  status: ('A' for Active; 'I' for Inactive)
    1  A    between atoms: N_1  and  C_17
    2  A    between atoms: C_2  and  C_19
    3  A    between atoms: C_2  and  N_30
    4  A    between atoms: N_9  and  C_19
    5  A    between atoms: N_9  and  C_27
    6  A    between atoms: N_12  and  C_18
    7  A    between atoms: N_12  and  C_25
    8  A    between atoms: C_14  and  C_16
    9  A    between atoms: C_14  and  C_18
   10  A    between atoms: C_17  and  N_30
                            x       y       z     vdW  Elec       q    Type
                         _______ _______ _______ _____ _____    ______ ____

>  <TORSDO>
F 10

$$$$
=
 OpenBabel11042413473D

 30 32  0  0  1  0  0  0  0  0999 V2000
  188.4530  177.5690  142.3120 C   0  0  0  0  0  3  0  0  0  0  0  0
  188.7910  176.4890  143.0240 C   0  0  0  0  0  0  0  0  0  0  0  0
  189.7510  176.6130  144.0860 N   0  0  0  0  0  0  0  0  0  0  0  0
  191.0710  176.4370  143.8290 O   0  0  0  0  0  1  0  0  0  0  0  0
  191.1910  176.0930  147.8690 C   0  0  0  0  0  2  0  0  0  0  0  0
  190.4340  177.5460  146.2750 C   0  0  0  0  0  2  0  0  0  0  0  0
  191.0950  174.9460  146.8420 C   0  0  0  0  0  2  0  0  0  0  0  0
  190.3190  177.1780  147.6260 O   0  0  0  0  0  0  0  0  0  0  0  0
  189.6670  174.5140  146.4990 C   0  0  0  0  0  2  0  0  0  0  0  0
  188.6960  175.6470  146.1210 C   0  0  0  0  0  2  0  0  0  0  0  0
  189.3160  176.8890  145.4540 C   0  0  2  0  0  3  0  0  0  0  0  0
  188.1410  175.1650  142.7480 C   0  0  0  0  0  2  0  0  0  0  0  0
  189.1550  174.1290  142.6690 N   0  0  0  0  0  2  0  0  0  0  0  0
  189.5990  174.0840  141.2880 C   0  0  0  0  0  2  0  0  0  0  0  0
  190.4420  172.9180  141.0820 N   0  0  0  0  0  0  0  0  0  0  0  0
  190.9130  171.1510  139.4020 C   0  0  0  0  0  2  0  0  0  0  0  0
  191.6150  170.6420  140.5800 N   0  0  0  0  0  2  0  0  0  0  0  0
  190.6680  170.5300  141.6910 C   0  0  0  0  0  2  0  0  0  0  0  0
  190.2830  172.5260  139.6800 C   0  0  0  0  0  2  0  0  0  0  0  0
  189.9160  171.8490  141.9330 C   0  0  0  0  0  2  0  0  0  0  0  0
  187.4510  177.5420  141.2030 C   0  0  0  0  0  2  0  0  0  0  0  0
  186.1960  178.2890  141.6120 C   0  0  0  0  0  2  0  0  0  0  0  0
  185.3420  177.4270  142.4160 N   0  0  0  0  0  2  0  0  0  0  0  0
  184.5440  178.1720  146.5050 C   0  0  0  0  0  0  0  0  0  0  0  0
  185.5670  176.7980  144.7930 C   0  0  0  0  0  3  0  0  0  0  0  0
  185.2990  177.0530  146.1410 C   0  0  0  0  0  3  0  0  0  0  0  0
  184.2830  178.4170  147.8110 F   0  0  0  0  0  0  0  0  0  0  0  0
  184.0580  179.0370  145.5200 C   0  0  0  0  0  3  0  0  0  0  0  0
  184.3260  178.7820  144.1720 C   0  0  0  0  0  3  0  0  0  0  0  0
  185.0800  177.6650  143.8010 C   0  0  0  0  0  0  0  0  0  0  0  0
  1  2  2  0  0  0  0
  2  3  1  0  0  0  0
  4  3  1  0  0  0  0
  6  8  1  0  0  0  0
  7  5  1  0  0  0  0
  8  5  1  0  0  0  0
  9  7  1  0  0  0  0
 10  9  1  0  0  0  0
 11  3  1  6  0  0  0
 11 10  1  0  0  0  0
 11  6  1  0  0  0  0
 12  2  1  0  0  0  0
 13 12  1  0  0  0  0
 14 13  1  0  0  0  0
 15 14  1  0  0  0  0
 15 20  1  0  0  0  0
 16 19  1  0  0  0  0
 16 17  1  0  0  0  0
 17 18  1  0  0  0  0
 18 20  1  0  0  0  0
 19 15  1  0  0  0  0
 21 22  1  0  0  0  0
 21  1  1  0  0  0  0
 22 23  1  0  0  0  0
 23 30  1  0  0  0  0
 24 27  1  0  0  0  0
 25 26  2  0  0  0  0
 26 24  1  0  0  0  0
 28 24  2  0  0  0  0
 29 28  1  0  0  0  0
 30 29  2  0  0  0  0
 30 25  1  0  0  0  0
M  END
>  <MODEL>
9

>  <REMARK>
 VINA RESULT:      -6.0      2.389      4.603
  Name = 
  10 active torsions:
  status: ('A' for Active; 'I' for Inactive)
    1  A    between atoms: N_1  and  C_17
    2  A    between atoms: C_2  and  C_19
    3  A    between atoms: C_2  and  N_30
    4  A    between atoms: N_9  and  C_19
    5  A    between atoms: N_9  and  C_27
    6  A    between atoms: N_12  and  C_18
    7  A    between atoms: N_12  and  C_25
    8  A    between atoms: C_14  and  C_16
    9  A    between atoms: C_14  and  C_18
   10  A    between atoms: C_17  and  N_30
                            x       y       z     vdW  Elec       q    Type
                         _______ _______ _______ _____ _____    ______ ____

>  <TORSDO>
F 10

$$$$
