=
 OpenBabel11042419113D

 58 62  0  0  1  0  0  0  0  0999 V2000
  187.6040  178.3130  143.6900 C   0  0  0  0  0  3  0  0  0  0  0  0
  188.2490  177.1560  143.4470 C   0  0  0  0  0  0  0  0  0  0  0  0
  188.0610  176.3900  142.1650 C   0  0  0  0  0  2  0  0  0  0  0  0
  189.3490  175.6850  141.7490 C   0  0  0  0  0  2  0  0  0  0  0  0
  189.1020  174.1960  141.5660 C   0  0  0  0  0  2  0  0  0  0  0  0
  189.5440  173.7450  140.1810 C   0  0  2  0  0  3  0  0  0  0  0  0
  188.3780  173.1380  139.4100 C   0  0  0  0  0  1  0  0  0  0  0  0
  190.7520  172.7980  140.2690 C   0  0  2  0  0  3  0  0  0  0  0  0
  192.8700  172.7400  138.7560 C   0  0  1  0  0  3  0  0  0  0  0  0
  191.3600  172.4670  138.8960 C   0  0  2  0  0  3  0  0  0  0  0  0
  191.8520  173.7320  138.2180 C   0  0  0  0  0  2  0  0  0  0  0  0
  195.4540  172.6200  144.4820 C   0  0  1  0  0  3  0  0  0  0  0  0
  196.2240  173.7690  144.2140 O   0  0  0  0  0  0  0  0  0  0  0  0
  194.7660  174.2350  142.3390 C   0  0  0  0  0  0  0  0  0  0  0  0
  194.0250  172.3590  140.9820 C   0  0  0  0  0  3  0  0  0  0  0  0
  194.2400  175.1190  141.3860 C   0  0  0  0  0  3  0  0  0  0  0  0
  193.5520  173.2450  140.0040 C   0  0  0  0  0  0  0  0  0  0  0  0
  194.6200  172.8460  142.1490 C   0  0  0  0  0  0  0  0  0  0  0  0
  195.3520  174.7270  143.6510 C   0  0  2  0  0  3  0  0  0  0  0  0
  195.1420  171.8830  143.1740 C   0  0  0  0  0  2  0  0  0  0  0  0
  193.6400  174.6260  140.2240 C   0  0  0  0  0  3  0  0  0  0  0  0
  197.1170  176.1630  142.5290 N   0  0  0  0  0  1  0  0  0  0  0  0
  196.0800  176.0260  143.4970 C   0  0  0  0  0  0  0  0  0  0  0  0
  195.7640  177.0060  144.2190 O   0  0  0  0  0  0  0  0  0  0  0  0
  196.9430  172.4580  146.3620 O   0  0  0  0  0  1  0  0  0  0  0  0
  196.1880  171.7070  145.4550 C   0  0  0  0  0  2  0  0  0  0  0  0
  190.5250  171.5430  141.1260 C   0  0  0  0  0  2  0  0  0  0  0  0
  190.8110  170.2500  140.3770 C   0  0  0  0  0  1  0  0  0  0  0  0
  186.6770  178.9540  142.7070 C   0  0  0  0  0  2  0  0  0  0  0  0
  184.5000  177.9510  142.1380 C   0  0  1  0  0  3  0  0  0  0  0  0
  185.2470  178.7740  143.1690 C   0  0  1  0  0  3  0  0  0  0  0  0
  184.9910  177.3000  143.4120 C   0  0  0  0  0  2  0  0  0  0  0  0
  182.1760  178.0610  141.1610 C   0  0  0  0  0  0  0  0  0  0  0  0
  182.5930  177.6500  140.0420 O   0  0  0  0  0  0  0  0  0  0  0  0
  183.0770  178.2290  142.2550 N   0  0  0  0  0  2  0  0  0  0  0  0
  180.2850  179.4370  140.2880 C   0  0  0  0  0  2  0  0  0  0  0  0
  179.1180  178.8940  142.9140 C   0  0  1  0  0  3  0  0  0  0  0  0
  179.1100  180.2730  140.8080 C   0  0  2  0  0  3  0  0  0  0  0  0
  180.7380  178.4170  141.3410 C   0  0  2  0  0  3  0  0  0  0  0  0
  180.5150  178.9060  142.6460 O   0  0  0  0  0  0  0  0  0  0  0  0
  178.2510  179.4580  141.7700 C   0  0  0  0  0  2  0  0  0  0  0  0
  177.6920  176.9450  142.2850 C   0  0  0  0  0  1  0  0  0  0  0  0
  178.6350  177.5080  143.3310 C   0  0  0  0  0  2  0  0  0  0  0  0
  178.2630  180.7810  139.6530 C   0  0  0  0  0  2  0  0  0  0  0  0
  179.2690  184.1990  138.7790 O   0  0  0  0  0  0  0  0  0  0  0  0
  177.7520  183.5630  140.3790 O   0  0  0  0  0  1  0  0  0  0  0  0
  178.6660  183.2650  139.3710 C   0  0  0  0  0  0  0  0  0  0  0  0
  178.9210  181.9050  138.9960 N   0  0  0  0  0  2  0  0  0  0  0  0
  189.1730  176.5700  144.4780 C   0  0  2  0  0  3  0  0  0  0  0  0
  188.3650  175.8660  145.5700 C   0  0  0  0  0  2  0  0  0  0  0  0
  189.0620  174.5760  147.5340 C   0  0  0  0  0  2  0  0  0  0  0  0
  189.1310  174.7540  146.2150 C   0  0  0  0  0  0  0  0  0  0  0  0
  190.1850  174.0510  145.4250 C   0  0  0  0  0  2  0  0  0  0  0  0
  189.7070  172.6780  144.9940 C   0  0  0  0  0  1  0  0  0  0  0  0
  190.0920  177.6430  145.0530 C   0  0  0  0  0  2  0  0  0  0  0  0
  191.2480  177.9140  144.1050 C   0  0  0  0  0  2  0  0  0  0  0  0
  192.6560  176.6490  145.7340 C   0  0  0  0  0  1  0  0  0  0  0  0
  192.3250  176.8560  144.2650 C   0  0  0  0  0  2  0  0  0  0  0  0
  2  1  2  0  0  0  0
  2 49  1  0  0  0  0
  3  2  1  0  0  0  0
  4  3  1  0  0  0  0
  5  4  1  0  0  0  0
  6  7  1  1  0  0  0
  6  8  1  0  0  0  0
  6  5  1  0  0  0  0
  8 27  1  6  0  0  0
  9 10  1  0  0  0  0
  9 17  1  1  0  0  0
 10  8  1  1  0  0  0
 11  9  1  0  0  0  0
 11 10  1  0  0  0  0
 12 26  1  1  0  0  0
 13 12  1  0  0  0  0
 14 19  1  0  0  0  0
 15 18  2  0  0  0  0
 16 14  2  0  0  0  0
 17 21  2  0  0  0  0
 17 15  1  0  0  0  0
 18 14  1  0  0  0  0
 18 20  1  0  0  0  0
 19 23  1  6  0  0  0
 19 13  1  0  0  0  0
 20 12  1  0  0  0  0
 21 16  1  0  0  0  0
 22 23  1  0  0  0  0
 23 24  2  0  0  0  0
 26 25  1  0  0  0  0
 28 27  1  0  0  0  0
 29  1  1  0  0  0  0
 30 35  1  1  0  0  0
 30 31  1  0  0  0  0
 30 32  1  0  0  0  0
 31 29  1  6  0  0  0
 31 32  1  0  0  0  0
 33 35  1  0  0  0  0
 34 33  2  0  0  0  0
 36 38  1  0  0  0  0
 36 39  1  0  0  0  0
 37 43  1  6  0  0  0
 38 44  1  6  0  0  0
 38 41  1  0  0  0  0
 39 33  1  1  0  0  0
 39 40  1  0  0  0  0
 40 37  1  0  0  0  0
 41 37  1  0  0  0  0
 42 43  1  0  0  0  0
 45 47  2  0  0  0  0
 47 46  1  0  0  0  0
 48 47  1  0  0  0  0
 48 44  1  0  0  0  0
 49 55  1  1  0  0  0
 49 50  1  0  0  0  0
 50 52  1  0  0  0  0
 52 51  2  0  0  0  0
 53 52  1  0  0  0  0
 54 53  1  0  0  0  0
 56 58  1  0  0  0  0
 56 55  1  0  0  0  0
 58 57  1  0  0  0  0
M  END
>  <MODEL>
1

>  <REMARK>
 VINA RESULT:      -6.7      0.000      0.000
  Name = 
  24 active torsions:
  status: ('A' for Active; 'I' for Inactive)
    1  A    between atoms: C_1  and  C_39
    2  A    between atoms: C_2  and  C_37
    3  A    between atoms: C_2  and  N_56
    4  A    between atoms: C_3  and  C_38
    5  A    between atoms: C_3  and  C_47
    6  A    between atoms: C_4  and  C_33
    7  A    between atoms: C_5  and  C_48
    8  A    between atoms: C_7  and  C_41
    9  A    between atoms: C_12  and  C_55
   10  A    between atoms: C_13  and  C_38
   11  A    between atoms: C_15  and  C_26
   12  A    between atoms: C_15  and  C_28
   13  A    between atoms: C_15  and  C_54
   14  A    between atoms: C_16  and  C_49
   15  A    between atoms: C_17  and  C_28
   16  A    between atoms: C_17  and  C_32
   17  A    between atoms: C_18  and  C_46
   18  A    between atoms: C_19  and  C_38
   19  A    between atoms: C_21  and  N_52
   20  A    between atoms: C_26  and  C_30
   21  A    between atoms: C_30  and  C_44
   22  A    between atoms: C_31  and  C_55
   23  A    between atoms: C_32  and  C_47
   24  A    between atoms: C_33  and  C_54
                            x       y       z     vdW  Elec       q    Type
                         _______ _______ _______ _____ _____    ______ ____

>  <TORSDO>
F 24

$$$$
=
 OpenBabel11042419113D

 58 62  0  0  1  0  0  0  0  0999 V2000
  187.6650  178.5310  143.1570 C   0  0  0  0  0  3  0  0  0  0  0  0
  188.5260  177.4970  143.0950 C   0  0  0  0  0  0  0  0  0  0  0  0
  188.5340  176.5330  141.9380 C   0  0  0  0  0  2  0  0  0  0  0  0
  189.4550  175.3490  142.2130 C   0  0  0  0  0  2  0  0  0  0  0  0
  189.5190  174.4350  140.9990 C   0  0  0  0  0  2  0  0  0  0  0  0
  189.1750  173.0040  141.3860 C   0  0  2  0  0  3  0  0  0  0  0  0
  187.7010  172.8800  141.7550 C   0  0  0  0  0  1  0  0  0  0  0  0
  190.1090  172.4920  142.4960 C   0  0  2  0  0  3  0  0  0  0  0  0
  191.7600  170.5270  142.0610 C   0  0  1  0  0  3  0  0  0  0  0  0
  190.3350  170.9720  142.4410 C   0  0  2  0  0  3  0  0  0  0  0  0
  190.6490  170.5370  141.0230 C   0  0  0  0  0  2  0  0  0  0  0  0
  195.6730  174.3850  139.0160 C   0  0  1  0  0  3  0  0  0  0  0  0
  195.5430  175.3800  140.0050 O   0  0  0  0  0  0  0  0  0  0  0  0
  194.6370  173.6990  141.4910 C   0  0  0  0  0  0  0  0  0  0  0  0
  193.1100  172.0560  140.5540 C   0  0  0  0  0  3  0  0  0  0  0  0
  194.3160  173.2480  142.7800 C   0  0  0  0  0  3  0  0  0  0  0  0
  192.7480  171.6460  141.8450 C   0  0  0  0  0  0  0  0  0  0  0  0
  194.0560  173.0690  140.3730 C   0  0  0  0  0  0  0  0  0  0  0  0
  195.7130  174.7450  141.2550 C   0  0  2  0  0  3  0  0  0  0  0  0
  194.4140  173.5100  138.9850 C   0  0  0  0  0  2  0  0  0  0  0  0
  193.3740  172.2290  142.9540 C   0  0  0  0  0  3  0  0  0  0  0  0
  196.8420  175.8400  143.2440 N   0  0  0  0  0  1  0  0  0  0  0  0
  195.7470  175.7810  142.3340 C   0  0  0  0  0  0  0  0  0  0  0  0
  194.8060  176.6110  142.4300 O   0  0  0  0  0  0  0  0  0  0  0  0
  197.2140  175.5570  137.5910 O   0  0  0  0  0  1  0  0  0  0  0  0
  195.9240  175.0220  137.6560 C   0  0  0  0  0  2  0  0  0  0  0  0
  189.7560  172.9810  143.9090 C   0  0  0  0  0  2  0  0  0  0  0  0
  189.5890  171.8460  144.9080 C   0  0  0  0  0  1  0  0  0  0  0  0
  186.6720  178.8350  142.0810 C   0  0  0  0  0  2  0  0  0  0  0  0
  184.4360  177.8350  141.8070 C   0  0  1  0  0  3  0  0  0  0  0  0
  185.2720  178.7740  142.6550 C   0  0  1  0  0  3  0  0  0  0  0  0
  184.9960  177.3610  143.1300 C   0  0  0  0  0  2  0  0  0  0  0  0
  182.0850  178.0370  140.9120 C   0  0  0  0  0  0  0  0  0  0  0  0
  182.4440  177.5950  139.7840 O   0  0  0  0  0  0  0  0  0  0  0  0
  183.0320  178.1770  141.9720 N   0  0  0  0  0  2  0  0  0  0  0  0
  180.2980  179.6440  140.2400 C   0  0  0  0  0  2  0  0  0  0  0  0
  179.0700  178.8140  142.7610 C   0  0  1  0  0  3  0  0  0  0  0  0
  179.1740  180.4740  140.8720 C   0  0  2  0  0  3  0  0  0  0  0  0
  180.6720  178.4580  141.1390 C   0  0  2  0  0  3  0  0  0  0  0  0
  180.4670  178.7710  142.5000 O   0  0  0  0  0  0  0  0  0  0  0  0
  178.2540  179.5890  141.7080 C   0  0  0  0  0  2  0  0  0  0  0  0
  177.7000  176.9840  141.7590 C   0  0  0  0  0  1  0  0  0  0  0  0
  178.4930  177.4170  142.9760 C   0  0  0  0  0  2  0  0  0  0  0  0
  178.3740  181.1950  139.7990 C   0  0  0  0  0  2  0  0  0  0  0  0
  179.6290  184.3940  138.5160 O   0  0  0  0  0  1  0  0  0  0  0  0
  179.4930  182.4020  137.3870 O   0  0  0  0  0  0  0  0  0  0  0  0
  179.3110  183.1760  138.5300 C   0  0  0  0  0  0  0  0  0  0  0  0
  178.7720  182.5960  139.7250 N   0  0  0  0  0  2  0  0  0  0  0  0
  189.5040  177.2530  144.2090 C   0  0  2  0  0  3  0  0  0  0  0  0
  188.8860  177.6560  145.5500 C   0  0  0  0  0  2  0  0  0  0  0  0
  188.8670  175.4130  146.5390 C   0  0  0  0  0  2  0  0  0  0  0  0
  188.1870  176.5140  146.2190 C   0  0  0  0  0  0  0  0  0  0  0  0
  186.6940  176.5010  146.2510 C   0  0  0  0  0  2  0  0  0  0  0  0
  186.1740  177.3390  147.4030 C   0  0  0  0  0  1  0  0  0  0  0  0
  190.8170  177.9830  143.9460 C   0  0  0  0  0  2  0  0  0  0  0  0
  191.9590  177.3030  144.6820 C   0  0  0  0  0  2  0  0  0  0  0  0
  192.5030  175.0260  145.5530 C   0  0  0  0  0  1  0  0  0  0  0  0
  191.9880  175.8190  144.3620 C   0  0  0  0  0  2  0  0  0  0  0  0
  2  1  2  0  0  0  0
  2 49  1  0  0  0  0
  3  4  1  0  0  0  0
  3  2  1  0  0  0  0
  5  6  1  0  0  0  0
  5  4  1  0  0  0  0
  6  7  1  1  0  0  0
  6  8  1  0  0  0  0
  8 27  1  1  0  0  0
  9 17  1  6  0  0  0
  9 10  1  0  0  0  0
 10  8  1  6  0  0  0
 11  9  1  0  0  0  0
 11 10  1  0  0  0  0
 12 26  1  6  0  0  0
 12 13  1  0  0  0  0
 13 19  1  0  0  0  0
 14 16  1  0  0  0  0
 15 17  2  0  0  0  0
 16 21  2  0  0  0  0
 17 21  1  0  0  0  0
 18 15  1  0  0  0  0
 18 14  2  0  0  0  0
 19 14  1  0  0  0  0
 19 23  1  1  0  0  0
 20 12  1  0  0  0  0
 20 18  1  0  0  0  0
 23 24  2  0  0  0  0
 23 22  1  0  0  0  0
 25 26  1  0  0  0  0
 27 28  1  0  0  0  0
 29  1  1  0  0  0  0
 30 35  1  1  0  0  0
 30 31  1  0  0  0  0
 30 32  1  0  0  0  0
 31 29  1  6  0  0  0
 31 32  1  0  0  0  0
 33 35  1  0  0  0  0
 34 33  2  0  0  0  0
 36 38  1  0  0  0  0
 36 39  1  0  0  0  0
 37 43  1  6  0  0  0
 38 44  1  6  0  0  0
 38 41  1  0  0  0  0
 39 33  1  1  0  0  0
 39 40  1  0  0  0  0
 40 37  1  0  0  0  0
 41 37  1  0  0  0  0
 42 43  1  0  0  0  0
 45 47  1  0  0  0  0
 46 47  2  0  0  0  0
 47 48  1  0  0  0  0
 48 44  1  0  0  0  0
 49 55  1  6  0  0  0
 49 50  1  0  0  0  0
 50 52  1  0  0  0  0
 52 53  1  0  0  0  0
 52 51  2  0  0  0  0
 53 54  1  0  0  0  0
 55 56  1  0  0  0  0
 58 56  1  0  0  0  0
 58 57  1  0  0  0  0
M  END
>  <MODEL>
2

>  <REMARK>
 VINA RESULT:      -6.6      1.637      2.855
  Name = 
  24 active torsions:
  status: ('A' for Active; 'I' for Inactive)
    1  A    between atoms: C_1  and  C_39
    2  A    between atoms: C_2  and  C_37
    3  A    between atoms: C_2  and  N_56
    4  A    between atoms: C_3  and  C_38
    5  A    between atoms: C_3  and  C_47
    6  A    between atoms: C_4  and  C_33
    7  A    between atoms: C_5  and  C_48
    8  A    between atoms: C_7  and  C_41
    9  A    between atoms: C_12  and  C_55
   10  A    between atoms: C_13  and  C_38
   11  A    between atoms: C_15  and  C_26
   12  A    between atoms: C_15  and  C_28
   13  A    between atoms: C_15  and  C_54
   14  A    between atoms: C_16  and  C_49
   15  A    between atoms: C_17  and  C_28
   16  A    between atoms: C_17  and  C_32
   17  A    between atoms: C_18  and  C_46
   18  A    between atoms: C_19  and  C_38
   19  A    between atoms: C_21  and  N_52
   20  A    between atoms: C_26  and  C_30
   21  A    between atoms: C_30  and  C_44
   22  A    between atoms: C_31  and  C_55
   23  A    between atoms: C_32  and  C_47
   24  A    between atoms: C_33  and  C_54
                            x       y       z     vdW  Elec       q    Type
                         _______ _______ _______ _____ _____    ______ ____

>  <TORSDO>
F 24

$$$$
=
 OpenBabel11042419113D

 58 62  0  0  1  0  0  0  0  0999 V2000
  193.8450  174.1540  145.9240 C   0  0  0  0  0  3  0  0  0  0  0  0
  194.5630  173.1120  145.4630 C   0  0  0  0  0  0  0  0  0  0  0  0
  193.9870  171.7240  145.3690 C   0  0  0  0  0  2  0  0  0  0  0  0
  193.4280  171.4510  143.9760 C   0  0  0  0  0  2  0  0  0  0  0  0
  192.6500  170.1450  143.9640 C   0  0  0  0  0  2  0  0  0  0  0  0
  193.3670  169.1010  143.1200 C   0  0  2  0  0  3  0  0  0  0  0  0
  194.2170  168.1860  143.9940 C   0  0  0  0  0  1  0  0  0  0  0  0
  194.1760  169.7630  141.9930 C   0  0  2  0  0  3  0  0  0  0  0  0
  192.8370  169.6920  139.7620 C   0  0  1  0  0  3  0  0  0  0  0  0
  193.9640  169.0940  140.6250 C   0  0  2  0  0  3  0  0  0  0  0  0
  192.6030  168.4260  140.5700 C   0  0  0  0  0  2  0  0  0  0  0  0
  192.1000  175.3220  142.4510 C   0  0  1  0  0  3  0  0  0  0  0  0
  190.7900  175.4480  141.9470 O   0  0  0  0  0  0  0  0  0  0  0  0
  190.7900  173.0660  141.5220 C   0  0  0  0  0  0  0  0  0  0  0  0
  192.8300  172.0650  140.6580 C   0  0  0  0  0  3  0  0  0  0  0  0
  190.1080  171.8650  141.2740 C   0  0  0  0  0  3  0  0  0  0  0  0
  192.1330  170.8860  140.3590 C   0  0  0  0  0  0  0  0  0  0  0  0
  192.1690  173.1470  141.2450 C   0  0  0  0  0  0  0  0  0  0  0  0
  190.1230  174.2350  142.2250 C   0  0  2  0  0  3  0  0  0  0  0  0
  192.9270  174.4090  141.5370 C   0  0  0  0  0  2  0  0  0  0  0  0
  190.7760  170.7840  140.6930 C   0  0  0  0  0  3  0  0  0  0  0  0
  188.2940  175.0960  140.6930 N   0  0  0  0  0  1  0  0  0  0  0  0
  188.6780  174.3710  141.8580 C   0  0  0  0  0  0  0  0  0  0  0  0
  187.8000  173.8290  142.5780 O   0  0  0  0  0  0  0  0  0  0  0  0
  191.8760  177.6010  143.1820 O   0  0  0  0  0  1  0  0  0  0  0  0
  192.7510  176.6930  142.5780 C   0  0  0  0  0  2  0  0  0  0  0  0
  195.6630  169.9830  142.3120 C   0  0  0  0  0  2  0  0  0  0  0  0
  196.5790  169.6500  141.1440 C   0  0  0  0  0  1  0  0  0  0  0  0
  192.4150  174.0390  146.3490 C   0  0  0  0  0  2  0  0  0  0  0  0
  190.7130  175.6920  147.0130 C   0  0  1  0  0  3  0  0  0  0  0  0
  191.6560  175.2690  145.9030 C   0  0  1  0  0  3  0  0  0  0  0  0
  192.0190  176.4280  146.8110 C   0  0  0  0  0  2  0  0  0  0  0  0
  188.2580  176.2160  146.7570 C   0  0  0  0  0  0  0  0  0  0  0  0
  187.9460  175.3000  147.5690 O   0  0  0  0  0  0  0  0  0  0  0  0
  189.6270  176.4690  146.4380 N   0  0  0  0  0  2  0  0  0  0  0  0
  187.2900  176.8980  144.5600 C   0  0  0  0  0  2  0  0  0  0  0  0
  186.0640  179.0310  146.1420 C   0  0  1  0  0  3  0  0  0  0  0  0
  186.7010  178.1380  143.8760 C   0  0  2  0  0  3  0  0  0  0  0  0
  187.1950  177.0200  146.0870 C   0  0  2  0  0  3  0  0  0  0  0  0
  187.2730  178.3700  146.4910 O   0  0  0  0  0  0  0  0  0  0  0  0
  185.5700  178.7300  144.7120 C   0  0  0  0  0  2  0  0  0  0  0  0
  183.6330  178.5640  146.4620 C   0  0  0  0  0  1  0  0  0  0  0  0
  184.9610  178.7690  147.1640 C   0  0  0  0  0  2  0  0  0  0  0  0
  186.1970  177.7910  142.4850 C   0  0  0  0  0  2  0  0  0  0  0  0
  182.7130  178.0900  141.3730 O   0  0  0  0  0  1  0  0  0  0  0  0
  184.6010  178.6580  140.1980 O   0  0  0  0  0  0  0  0  0  0  0  0
  183.9700  178.1630  141.3370 C   0  0  0  0  0  0  0  0  0  0  0  0
  184.7390  177.7420  142.4710 N   0  0  0  0  0  2  0  0  0  0  0  0
  195.9940  173.3000  145.0460 C   0  0  2  0  0  3  0  0  0  0  0  0
  196.1610  172.9560  143.5650 C   0  0  0  0  0  2  0  0  0  0  0  0
  196.2050  175.2640  142.7390 C   0  0  0  0  0  2  0  0  0  0  0  0
  196.7950  174.0700  142.7920 C   0  0  0  0  0  0  0  0  0  0  0  0
  197.9130  173.7520  141.8540 C   0  0  0  0  0  2  0  0  0  0  0  0
  197.3770  173.4040  140.4780 C   0  0  0  0  0  1  0  0  0  0  0  0
  196.9270  172.4780  145.9300 C   0  0  0  0  0  2  0  0  0  0  0  0
  197.4850  171.2950  145.1570 C   0  0  0  0  0  2  0  0  0  0  0  0
  197.9390  168.8640  145.5040 C   0  0  0  0  0  1  0  0  0  0  0  0
  196.9430  169.9920  145.7190 C   0  0  0  0  0  2  0  0  0  0  0  0
  1 29  1  0  0  0  0
  2  1  2  0  0  0  0
  3  2  1  0  0  0  0
  4  3  1  0  0  0  0
  5  4  1  0  0  0  0
  6  5  1  0  0  0  0
  6  7  1  1  0  0  0
  8 27  1  1  0  0  0
  8  6  1  0  0  0  0
  9 17  1  1  0  0  0
  9 11  1  0  0  0  0
  9 10  1  0  0  0  0
 10  8  1  1  0  0  0
 11 10  1  0  0  0  0
 12 26  1  6  0  0  0
 13 19  1  0  0  0  0
 13 12  1  0  0  0  0
 14 19  1  0  0  0  0
 15 18  1  0  0  0  0
 16 14  1  0  0  0  0
 17 15  2  0  0  0  0
 17 21  1  0  0  0  0
 18 14  2  0  0  0  0
 18 20  1  0  0  0  0
 19 23  1  6  0  0  0
 20 12  1  0  0  0  0
 21 16  2  0  0  0  0
 22 23  1  0  0  0  0
 23 24  2  0  0  0  0
 26 25  1  0  0  0  0
 28 27  1  0  0  0  0
 30 35  1  6  0  0  0
 31 29  1  1  0  0  0
 31 32  1  0  0  0  0
 31 30  1  0  0  0  0
 32 30  1  0  0  0  0
 33 34  2  0  0  0  0
 35 33  1  0  0  0  0
 36 39  1  0  0  0  0
 37 40  1  0  0  0  0
 37 43  1  1  0  0  0
 38 44  1  6  0  0  0
 38 36  1  0  0  0  0
 38 41  1  0  0  0  0
 39 40  1  0  0  0  0
 39 33  1  1  0  0  0
 41 37  1  0  0  0  0
 42 43  1  0  0  0  0
 46 47  2  0  0  0  0
 47 45  1  0  0  0  0
 47 48  1  0  0  0  0
 48 44  1  0  0  0  0
 49 50  1  6  0  0  0
 49  2  1  0  0  0  0
 49 55  1  0  0  0  0
 51 52  2  0  0  0  0
 52 50  1  0  0  0  0
 53 52  1  0  0  0  0
 54 53  1  0  0  0  0
 56 58  1  0  0  0  0
 56 55  1  0  0  0  0
 57 58  1  0  0  0  0
M  END
>  <MODEL>
3

>  <REMARK>
 VINA RESULT:      -6.1      3.681      7.336
  Name = 
  24 active torsions:
  status: ('A' for Active; 'I' for Inactive)
    1  A    between atoms: C_1  and  C_39
    2  A    between atoms: C_2  and  C_37
    3  A    between atoms: C_2  and  N_56
    4  A    between atoms: C_3  and  C_38
    5  A    between atoms: C_3  and  C_47
    6  A    between atoms: C_4  and  C_33
    7  A    between atoms: C_5  and  C_48
    8  A    between atoms: C_7  and  C_41
    9  A    between atoms: C_12  and  C_55
   10  A    between atoms: C_13  and  C_38
   11  A    between atoms: C_15  and  C_26
   12  A    between atoms: C_15  and  C_28
   13  A    between atoms: C_15  and  C_54
   14  A    between atoms: C_16  and  C_49
   15  A    between atoms: C_17  and  C_28
   16  A    between atoms: C_17  and  C_32
   17  A    between atoms: C_18  and  C_46
   18  A    between atoms: C_19  and  C_38
   19  A    between atoms: C_21  and  N_52
   20  A    between atoms: C_26  and  C_30
   21  A    between atoms: C_30  and  C_44
   22  A    between atoms: C_31  and  C_55
   23  A    between atoms: C_32  and  C_47
   24  A    between atoms: C_33  and  C_54
                            x       y       z     vdW  Elec       q    Type
                         _______ _______ _______ _____ _____    ______ ____

>  <TORSDO>
F 24

$$$$
=
 OpenBabel11042419113D

 58 62  0  0  1  0  0  0  0  0999 V2000
  191.6350  173.7610  143.9140 C   0  0  0  0  0  3  0  0  0  0  0  0
  192.5000  174.7920  143.8700 C   0  0  0  0  0  0  0  0  0  0  0  0
  192.7010  175.6140  142.6250 C   0  0  0  0  0  2  0  0  0  0  0  0
  193.7920  175.0190  141.7400 C   0  0  0  0  0  2  0  0  0  0  0  0
  194.9230  176.0170  141.5500 C   0  0  0  0  0  2  0  0  0  0  0  0
  196.2690  175.3620  141.8240 C   0  0  2  0  0  3  0  0  0  0  0  0
  197.2870  176.3900  142.3040 C   0  0  0  0  0  1  0  0  0  0  0  0
  196.7580  174.5730  140.5980 C   0  0  2  0  0  3  0  0  0  0  0  0
  197.5910  172.1430  141.0200 C   0  0  1  0  0  3  0  0  0  0  0  0
  197.9390  173.6400  140.9130 C   0  0  2  0  0  3  0  0  0  0  0  0
  197.7520  172.9920  142.2710 C   0  0  0  0  0  2  0  0  0  0  0  0
  192.2410  171.4110  137.8090 C   0  0  1  0  0  3  0  0  0  0  0  0
  191.7700  170.4420  138.7160 O   0  0  0  0  0  0  0  0  0  0  0  0
  193.4380  171.1990  140.2980 C   0  0  0  0  0  0  0  0  0  0  0  0
  195.6420  171.7640  139.4420 C   0  0  0  0  0  3  0  0  0  0  0  0
  193.9340  171.2880  141.6070 C   0  0  0  0  0  3  0  0  0  0  0  0
  196.1480  171.7960  140.7500 C   0  0  0  0  0  0  0  0  0  0  0  0
  194.2930  171.4770  139.2130 C   0  0  0  0  0  0  0  0  0  0  0  0
  191.9650  170.9620  140.0140 C   0  0  2  0  0  3  0  0  0  0  0  0
  193.7750  171.4240  137.8070 C   0  0  0  0  0  2  0  0  0  0  0  0
  195.2820  171.5820  141.8300 C   0  0  0  0  0  3  0  0  0  0  0  0
  191.9410  168.7970  141.3350 N   0  0  0  0  0  1  0  0  0  0  0  0
  191.3330  170.0450  141.0140 C   0  0  0  0  0  0  0  0  0  0  0  0
  190.2630  170.3860  141.5820 O   0  0  0  0  0  0  0  0  0  0  0  0
  192.5990  170.3530  135.6800 O   0  0  0  0  0  1  0  0  0  0  0  0
  191.7010  171.1350  136.4120 C   0  0  0  0  0  2  0  0  0  0  0  0
  197.0040  175.4240  139.3420 C   0  0  0  0  0  2  0  0  0  0  0  0
  195.9940  175.1580  138.2360 C   0  0  0  0  0  1  0  0  0  0  0  0
  190.7790  173.3620  142.7540 C   0  0  0  0  0  2  0  0  0  0  0  0
  189.1040  174.9490  141.8910 C   0  0  1  0  0  3  0  0  0  0  0  0
  189.3790  173.9010  142.9520 C   0  0  1  0  0  3  0  0  0  0  0  0
  188.5410  173.5530  141.7370 C   0  0  0  0  0  2  0  0  0  0  0  0
  187.2910  176.6570  141.4850 C   0  0  0  0  0  0  0  0  0  0  0  0
  187.4920  176.6200  140.2380 O   0  0  0  0  0  0  0  0  0  0  0  0
  188.0590  175.8410  142.3690 N   0  0  0  0  0  2  0  0  0  0  0  0
  186.7090  178.1130  143.4270 C   0  0  0  0  0  2  0  0  0  0  0  0
  184.0060  177.9270  142.3270 C   0  0  1  0  0  3  0  0  0  0  0  0
  185.4930  178.4970  144.2770 C   0  0  2  0  0  3  0  0  0  0  0  0
  186.2710  177.5860  142.0530 C   0  0  2  0  0  3  0  0  0  0  0  0
  185.0160  176.9460  142.1350 O   0  0  0  0  0  0  0  0  0  0  0  0
  184.3500  178.9870  143.3930 C   0  0  0  0  0  2  0  0  0  0  0  0
  182.1550  178.2790  140.6900 C   0  0  0  0  0  1  0  0  0  0  0  0
  183.6040  178.5890  141.0120 C   0  0  0  0  0  2  0  0  0  0  0  0
  185.8660  179.5670  145.2900 C   0  0  0  0  0  2  0  0  0  0  0  0
  185.9180  177.8530  148.5340 O   0  0  0  0  0  1  0  0  0  0  0  0
  187.4040  177.5990  146.8040 O   0  0  0  0  0  0  0  0  0  0  0  0
  186.2710  178.1800  147.3700 C   0  0  0  0  0  0  0  0  0  0  0  0
  185.5000  179.1400  146.6370 N   0  0  0  0  0  2  0  0  0  0  0  0
  193.3260  175.1440  145.0750 C   0  0  2  0  0  3  0  0  0  0  0  0
  193.7940  173.8710  145.7830 C   0  0  0  0  0  2  0  0  0  0  0  0
  196.1020  174.5270  145.2820 C   0  0  0  0  0  2  0  0  0  0  0  0
  195.2230  173.5450  145.4790 C   0  0  0  0  0  0  0  0  0  0  0  0
  195.5810  172.1430  145.1090 C   0  0  0  0  0  2  0  0  0  0  0  0
  196.5690  171.5620  146.1010 C   0  0  0  0  0  1  0  0  0  0  0  0
  192.5500  176.0630  146.0130 C   0  0  0  0  0  2  0  0  0  0  0  0
  191.0680  175.7290  145.9770 C   0  0  0  0  0  2  0  0  0  0  0  0
  189.1890  174.6660  147.2330 C   0  0  0  0  0  1  0  0  0  0  0  0
  190.6130  175.1910  147.3220 C   0  0  0  0  0  2  0  0  0  0  0  0
  2  1  2  0  0  0  0
  2 49  1  0  0  0  0
  3  2  1  0  0  0  0
  4  3  1  0  0  0  0
  5  4  1  0  0  0  0
  5  6  1  0  0  0  0
  6  7  1  6  0  0  0
  8 27  1  6  0  0  0
  8  6  1  0  0  0  0
  9 17  1  6  0  0  0
  9 11  1  0  0  0  0
 10  8  1  6  0  0  0
 10  9  1  0  0  0  0
 10 11  1  0  0  0  0
 12 26  1  6  0  0  0
 12 13  1  0  0  0  0
 13 19  1  0  0  0  0
 14 16  1  0  0  0  0
 15 17  2  0  0  0  0
 16 21  2  0  0  0  0
 17 21  1  0  0  0  0
 18 15  1  0  0  0  0
 18 14  2  0  0  0  0
 19 14  1  0  0  0  0
 19 23  1  1  0  0  0
 20 12  1  0  0  0  0
 20 18  1  0  0  0  0
 23 22  1  0  0  0  0
 23 24  2  0  0  0  0
 25 26  1  0  0  0  0
 28 27  1  0  0  0  0
 29  1  1  0  0  0  0
 30 35  1  1  0  0  0
 30 31  1  0  0  0  0
 31 29  1  6  0  0  0
 32 30  1  0  0  0  0
 32 31  1  0  0  0  0
 33 35  1  0  0  0  0
 34 33  2  0  0  0  0
 36 38  1  0  0  0  0
 37 43  1  6  0  0  0
 37 41  1  0  0  0  0
 38 44  1  1  0  0  0
 39 33  1  1  0  0  0
 39 40  1  0  0  0  0
 39 36  1  0  0  0  0
 40 37  1  0  0  0  0
 41 38  1  0  0  0  0
 42 43  1  0  0  0  0
 44 48  1  0  0  0  0
 46 47  2  0  0  0  0
 47 45  1  0  0  0  0
 48 47  1  0  0  0  0
 49 50  1  1  0  0  0
 49 55  1  0  0  0  0
 51 52  2  0  0  0  0
 52 50  1  0  0  0  0
 53 52  1  0  0  0  0
 53 54  1  0  0  0  0
 56 55  1  0  0  0  0
 56 58  1  0  0  0  0
 57 58  1  0  0  0  0
M  END
>  <MODEL>
4

>  <REMARK>
 VINA RESULT:      -6.0      3.969      6.940
  Name = 
  24 active torsions:
  status: ('A' for Active; 'I' for Inactive)
    1  A    between atoms: C_1  and  C_39
    2  A    between atoms: C_2  and  C_37
    3  A    between atoms: C_2  and  N_56
    4  A    between atoms: C_3  and  C_38
    5  A    between atoms: C_3  and  C_47
    6  A    between atoms: C_4  and  C_33
    7  A    between atoms: C_5  and  C_48
    8  A    between atoms: C_7  and  C_41
    9  A    between atoms: C_12  and  C_55
   10  A    between atoms: C_13  and  C_38
   11  A    between atoms: C_15  and  C_26
   12  A    between atoms: C_15  and  C_28
   13  A    between atoms: C_15  and  C_54
   14  A    between atoms: C_16  and  C_49
   15  A    between atoms: C_17  and  C_28
   16  A    between atoms: C_17  and  C_32
   17  A    between atoms: C_18  and  C_46
   18  A    between atoms: C_19  and  C_38
   19  A    between atoms: C_21  and  N_52
   20  A    between atoms: C_26  and  C_30
   21  A    between atoms: C_30  and  C_44
   22  A    between atoms: C_31  and  C_55
   23  A    between atoms: C_32  and  C_47
   24  A    between atoms: C_33  and  C_54
                            x       y       z     vdW  Elec       q    Type
                         _______ _______ _______ _____ _____    ______ ____

>  <TORSDO>
F 24

$$$$
=
 OpenBabel11042419113D

 58 62  0  0  1  0  0  0  0  0999 V2000
  192.0040  175.0530  142.5890 C   0  0  0  0  0  3  0  0  0  0  0  0
  193.2950  175.2420  142.2550 C   0  0  0  0  0  0  0  0  0  0  0  0
  193.8080  174.9710  140.8650 C   0  0  0  0  0  2  0  0  0  0  0  0
  193.7870  173.4790  140.5500 C   0  0  0  0  0  2  0  0  0  0  0  0
  194.9050  173.1270  139.5810 C   0  0  0  0  0  2  0  0  0  0  0  0
  194.3650  172.9880  138.1650 C   0  0  2  0  0  3  0  0  0  0  0  0
  194.7200  174.2110  137.3260 C   0  0  0  0  0  1  0  0  0  0  0  0
  192.8560  172.6960  138.1760 C   0  0  2  0  0  3  0  0  0  0  0  0
  192.0820  170.2110  138.1520 C   0  0  1  0  0  3  0  0  0  0  0  0
  192.4740  171.4620  137.3430 C   0  0  2  0  0  3  0  0  0  0  0  0
  193.4770  170.3460  137.5630 C   0  0  0  0  0  2  0  0  0  0  0  0
  193.9200  169.6120  144.1300 C   0  0  1  0  0  3  0  0  0  0  0  0
  193.2720  170.8070  144.5020 O   0  0  0  0  0  0  0  0  0  0  0  0
  192.0030  170.6880  142.4450 C   0  0  0  0  0  0  0  0  0  0  0  0
  193.1610  169.9630  140.4350 C   0  0  0  0  0  3  0  0  0  0  0  0
  190.8980  171.0590  141.6640 C   0  0  0  0  0  3  0  0  0  0  0  0
  192.0780  170.3880  139.6510 C   0  0  0  0  0  0  0  0  0  0  0  0
  193.1230  170.1010  141.8250 C   0  0  0  0  0  0  0  0  0  0  0  0
  191.9690  170.7550  143.9620 C   0  0  2  0  0  3  0  0  0  0  0  0
  194.3000  169.6630  142.6450 C   0  0  0  0  0  2  0  0  0  0  0  0
  190.9390  170.9120  140.2750 C   0  0  0  0  0  3  0  0  0  0  0  0
  189.7630  171.8440  144.5800 N   0  0  0  0  0  1  0  0  0  0  0  0
  191.1810  171.9250  144.4620 C   0  0  0  0  0  0  0  0  0  0  0  0
  191.7780  172.9830  144.7930 O   0  0  0  0  0  0  0  0  0  0  0  0
  194.8820  169.7070  146.3300 O   0  0  0  0  0  1  0  0  0  0  0  0
  195.1510  169.3860  144.9970 C   0  0  0  0  0  2  0  0  0  0  0  0
  191.9640  173.9090  137.8680 C   0  0  0  0  0  2  0  0  0  0  0  0
  190.4790  173.6050  137.9950 C   0  0  0  0  0  1  0  0  0  0  0  0
  190.9650  174.5950  141.6160 C   0  0  0  0  0  2  0  0  0  0  0  0
  188.6710  175.4960  141.5720 C   0  0  1  0  0  3  0  0  0  0  0  0
  189.6150  174.5570  142.2990 C   0  0  1  0  0  3  0  0  0  0  0  0
  188.5880  174.0050  141.3300 C   0  0  0  0  0  2  0  0  0  0  0  0
  186.8700  177.1040  142.3030 C   0  0  0  0  0  0  0  0  0  0  0  0
  187.1100  177.8660  141.3250 O   0  0  0  0  0  0  0  0  0  0  0  0
  187.6120  175.8970  142.4830 N   0  0  0  0  0  2  0  0  0  0  0  0
  184.5820  178.0490  142.6270 C   0  0  0  0  0  2  0  0  0  0  0  0
  185.5030  178.4540  145.3730 C   0  0  1  0  0  3  0  0  0  0  0  0
  183.8320  178.9960  143.5700 C   0  0  2  0  0  3  0  0  0  0  0  0
  185.8330  177.4770  143.3090 C   0  0  2  0  0  3  0  0  0  0  0  0
  186.3630  178.3930  144.2420 O   0  0  0  0  0  0  0  0  0  0  0  0
  184.0050  178.5610  145.0220 C   0  0  0  0  0  2  0  0  0  0  0  0
  186.9720  177.5850  147.1930 C   0  0  0  0  0  1  0  0  0  0  0  0
  185.7550  177.2980  146.3370 C   0  0  0  0  0  2  0  0  0  0  0  0
  182.3550  179.0470  143.2120 C   0  0  0  0  0  2  0  0  0  0  0  0
  180.7260  178.0700  140.0740 O   0  0  0  0  0  0  0  0  0  0  0  0
  179.7550  179.0910  141.8840 O   0  0  0  0  0  1  0  0  0  0  0  0
  180.8570  178.5420  141.2330 C   0  0  0  0  0  0  0  0  0  0  0  0
  182.1390  178.5040  141.8750 N   0  0  0  0  0  2  0  0  0  0  0  0
  194.2850  175.7110  143.2820 C   0  0  2  0  0  3  0  0  0  0  0  0
  193.6060  176.6520  144.2790 C   0  0  0  0  0  2  0  0  0  0  0  0
  194.5970  175.4310  146.1590 C   0  0  0  0  0  2  0  0  0  0  0  0
  193.5410  176.0690  145.6560 C   0  0  0  0  0  0  0  0  0  0  0  0
  192.2120  175.9510  146.3270 C   0  0  0  0  0  2  0  0  0  0  0  0
  191.1670  176.7730  145.5980 C   0  0  0  0  0  1  0  0  0  0  0  0
  195.4900  176.3640  142.6140 C   0  0  0  0  0  2  0  0  0  0  0  0
  196.7470  176.1230  143.4330 C   0  0  0  0  0  2  0  0  0  0  0  0
  197.5960  174.8240  141.4760 C   0  0  0  0  0  1  0  0  0  0  0  0
  197.4340  174.8450  142.9870 C   0  0  0  0  0  2  0  0  0  0  0  0
  2  1  2  0  0  0  0
  2 49  1  0  0  0  0
  3  2  1  0  0  0  0
  4  3  1  0  0  0  0
  5  4  1  0  0  0  0
  6  7  1  6  0  0  0
  6  8  1  0  0  0  0
  6  5  1  0  0  0  0
  8 27  1  6  0  0  0
  9 17  1  1  0  0  0
 10 11  1  0  0  0  0
 10  9  1  0  0  0  0
 10  8  1  1  0  0  0
 11  9  1  0  0  0  0
 12 13  1  0  0  0  0
 12 26  1  1  0  0  0
 14 19  1  0  0  0  0
 15 18  2  0  0  0  0
 16 14  2  0  0  0  0
 17 21  2  0  0  0  0
 17 15  1  0  0  0  0
 18 14  1  0  0  0  0
 18 20  1  0  0  0  0
 19 23  1  6  0  0  0
 19 13  1  0  0  0  0
 20 12  1  0  0  0  0
 21 16  1  0  0  0  0
 23 22  1  0  0  0  0
 23 24  2  0  0  0  0
 26 25  1  0  0  0  0
 27 28  1  0  0  0  0
 29  1  1  0  0  0  0
 30 31  1  0  0  0  0
 30 35  1  1  0  0  0
 31 29  1  6  0  0  0
 32 30  1  0  0  0  0
 32 31  1  0  0  0  0
 33 35  1  0  0  0  0
 34 33  2  0  0  0  0
 36 39  1  0  0  0  0
 36 38  1  0  0  0  0
 37 43  1  6  0  0  0
 38 44  1  6  0  0  0
 38 41  1  0  0  0  0
 39 33  1  6  0  0  0
 39 40  1  0  0  0  0
 40 37  1  0  0  0  0
 41 37  1  0  0  0  0
 43 42  1  0  0  0  0
 45 47  2  0  0  0  0
 47 48  1  0  0  0  0
 47 46  1  0  0  0  0
 48 44  1  0  0  0  0
 49 55  1  6  0  0  0
 49 50  1  0  0  0  0
 50 52  1  0  0  0  0
 52 51  2  0  0  0  0
 52 53  1  0  0  0  0
 54 53  1  0  0  0  0
 55 56  1  0  0  0  0
 57 58  1  0  0  0  0
 58 56  1  0  0  0  0
M  END
>  <MODEL>
5

>  <REMARK>
 VINA RESULT:      -6.0      2.780      5.370
  Name = 
  24 active torsions:
  status: ('A' for Active; 'I' for Inactive)
    1  A    between atoms: C_1  and  C_39
    2  A    between atoms: C_2  and  C_37
    3  A    between atoms: C_2  and  N_56
    4  A    between atoms: C_3  and  C_38
    5  A    between atoms: C_3  and  C_47
    6  A    between atoms: C_4  and  C_33
    7  A    between atoms: C_5  and  C_48
    8  A    between atoms: C_7  and  C_41
    9  A    between atoms: C_12  and  C_55
   10  A    between atoms: C_13  and  C_38
   11  A    between atoms: C_15  and  C_26
   12  A    between atoms: C_15  and  C_28
   13  A    between atoms: C_15  and  C_54
   14  A    between atoms: C_16  and  C_49
   15  A    between atoms: C_17  and  C_28
   16  A    between atoms: C_17  and  C_32
   17  A    between atoms: C_18  and  C_46
   18  A    between atoms: C_19  and  C_38
   19  A    between atoms: C_21  and  N_52
   20  A    between atoms: C_26  and  C_30
   21  A    between atoms: C_30  and  C_44
   22  A    between atoms: C_31  and  C_55
   23  A    between atoms: C_32  and  C_47
   24  A    between atoms: C_33  and  C_54
                            x       y       z     vdW  Elec       q    Type
                         _______ _______ _______ _____ _____    ______ ____

>  <TORSDO>
F 24

$$$$
=
 OpenBabel11042419113D

 58 62  0  0  1  0  0  0  0  0999 V2000
  187.1210  175.9510  142.8590 C   0  0  0  0  0  3  0  0  0  0  0  0
  187.1420  176.9860  143.7210 C   0  0  0  0  0  0  0  0  0  0  0  0
  188.2900  177.2150  144.6670 C   0  0  0  0  0  2  0  0  0  0  0  0
  188.2660  176.2120  145.8170 C   0  0  0  0  0  2  0  0  0  0  0  0
  189.4050  175.2150  145.6730 C   0  0  0  0  0  2  0  0  0  0  0  0
  190.6930  175.7840  146.2500 C   0  0  2  0  0  3  0  0  0  0  0  0
  190.4560  177.1670  146.8470 C   0  0  0  0  0  1  0  0  0  0  0  0
  191.8180  175.7770  145.2020 C   0  0  2  0  0  3  0  0  0  0  0  0
  194.3940  176.0090  145.4970 C   0  0  1  0  0  3  0  0  0  0  0  0
  193.0070  176.6730  145.5870 C   0  0  2  0  0  3  0  0  0  0  0  0
  193.6850  176.1420  146.8350 C   0  0  0  0  0  2  0  0  0  0  0  0
  194.7580  171.2290  141.4360 C   0  0  1  0  0  3  0  0  0  0  0  0
  195.1320  170.3280  142.4520 O   0  0  0  0  0  0  0  0  0  0  0  0
  194.3310  171.9280  144.0820 C   0  0  0  0  0  0  0  0  0  0  0  0
  194.7810  174.2820  143.6800 C   0  0  0  0  0  3  0  0  0  0  0  0
  193.8930  172.2430  145.3770 C   0  0  0  0  0  3  0  0  0  0  0  0
  194.3960  174.5870  144.9930 C   0  0  0  0  0  0  0  0  0  0  0  0
  194.7410  172.9630  143.2200 C   0  0  0  0  0  0  0  0  0  0  0  0
  194.2330  170.5180  143.5250 C   0  0  2  0  0  3  0  0  0  0  0  0
  195.1790  172.6530  141.8190 C   0  0  0  0  0  2  0  0  0  0  0  0
  193.9280  173.5650  145.8290 C   0  0  0  0  0  3  0  0  0  0  0  0
  193.4090  168.6720  145.0560 N   0  0  0  0  0  1  0  0  0  0  0  0
  194.4810  169.4750  144.5680 C   0  0  0  0  0  0  0  0  0  0  0  0
  195.6470  169.2980  145.0080 O   0  0  0  0  0  0  0  0  0  0  0  0
  194.4270  170.8370  139.0880 O   0  0  0  0  0  1  0  0  0  0  0  0
  195.3810  170.8180  140.1090 C   0  0  0  0  0  2  0  0  0  0  0  0
  191.3520  176.0120  143.7570 C   0  0  0  0  0  2  0  0  0  0  0  0
  191.6280  177.4240  143.2630 C   0  0  0  0  0  1  0  0  0  0  0  0
  188.2390  174.9640  142.7390 C   0  0  0  0  0  2  0  0  0  0  0  0
  189.2920  173.2810  141.2790 C   0  0  1  0  0  3  0  0  0  0  0  0
  188.2450  174.3760  141.3440 C   0  0  1  0  0  3  0  0  0  0  0  0
  187.8300  172.9190  141.4230 C   0  0  0  0  0  2  0  0  0  0  0  0
  191.0690  172.9600  139.5170 C   0  0  0  0  0  0  0  0  0  0  0  0
  191.9820  172.9770  140.3910 O   0  0  0  0  0  0  0  0  0  0  0  0
  189.7000  173.1010  139.8950 N   0  0  0  0  0  2  0  0  0  0  0  0
  192.6640  173.6560  137.7280 C   0  0  0  0  0  2  0  0  0  0  0  0
  190.5310  172.7540  135.9420 C   0  0  1  0  0  3  0  0  0  0  0  0
  192.6570  174.0670  136.2510 C   0  0  2  0  0  3  0  0  0  0  0  0
  191.4160  172.8320  138.0720 C   0  0  2  0  0  3  0  0  0  0  0  0
  190.3200  173.2170  137.2700 O   0  0  0  0  0  0  0  0  0  0  0  0
  191.9520  173.0140  135.4020 C   0  0  0  0  0  2  0  0  0  0  0  0
  190.7440  170.7190  134.5140 C   0  0  0  0  0  1  0  0  0  0  0  0
  190.1510  171.2840  135.7890 C   0  0  0  0  0  2  0  0  0  0  0  0
  194.0760  174.2790  135.7490 C   0  0  0  0  0  2  0  0  0  0  0  0
  196.8600  175.4860  137.8120 O   0  0  0  0  0  1  0  0  0  0  0  0
  196.3730  176.0800  135.6500 O   0  0  0  0  0  0  0  0  0  0  0  0
  196.1070  175.3570  136.8100 C   0  0  0  0  0  0  0  0  0  0  0  0
  194.9890  174.4620  136.8720 N   0  0  0  0  0  2  0  0  0  0  0  0
  185.9870  177.9450  143.7840 C   0  0  2  0  0  3  0  0  0  0  0  0
  185.8840  178.7340  142.4770 C   0  0  0  0  0  2  0  0  0  0  0  0
  185.0270  178.0060  140.2990 C   0  0  0  0  0  2  0  0  0  0  0  0
  184.7900  178.2250  141.5920 C   0  0  0  0  0  0  0  0  0  0  0  0
  183.3840  178.2540  142.0940 C   0  0  0  0  0  2  0  0  0  0  0  0
  182.4000  178.2030  140.9410 C   0  0  0  0  0  1  0  0  0  0  0  0
  186.1130  178.8640  144.9950 C   0  0  0  0  0  2  0  0  0  0  0  0
  184.8540  178.8000  145.8430 C   0  0  0  0  0  2  0  0  0  0  0  0
  185.9640  177.7730  147.8300 C   0  0  0  0  0  1  0  0  0  0  0  0
  185.1940  178.9770  147.3120 C   0  0  0  0  0  2  0  0  0  0  0  0
  1  2  2  0  0  0  0
  2 49  1  0  0  0  0
  2  3  1  0  0  0  0
  3  4  1  0  0  0  0
  5  4  1  0  0  0  0
  5  6  1  0  0  0  0
  6  7  1  6  0  0  0
  8 27  1  6  0  0  0
  8  6  1  0  0  0  0
  9 17  1  6  0  0  0
  9 10  1  0  0  0  0
  9 11  1  0  0  0  0
 10  8  1  6  0  0  0
 10 11  1  0  0  0  0
 12 26  1  6  0  0  0
 12 20  1  0  0  0  0
 12 13  1  0  0  0  0
 13 19  1  0  0  0  0
 14 16  1  0  0  0  0
 15 17  2  0  0  0  0
 16 21  2  0  0  0  0
 17 21  1  0  0  0  0
 18 15  1  0  0  0  0
 18 14  2  0  0  0  0
 19 14  1  0  0  0  0
 19 23  1  1  0  0  0
 20 18  1  0  0  0  0
 23 24  2  0  0  0  0
 23 22  1  0  0  0  0
 25 26  1  0  0  0  0
 28 27  1  0  0  0  0
 29  1  1  0  0  0  0
 30 35  1  6  0  0  0
 30 31  1  0  0  0  0
 30 32  1  0  0  0  0
 31 32  1  0  0  0  0
 31 29  1  1  0  0  0
 33 35  1  0  0  0  0
 33 34  2  0  0  0  0
 36 39  1  0  0  0  0
 37 43  1  1  0  0  0
 37 40  1  0  0  0  0
 38 44  1  6  0  0  0
 38 36  1  0  0  0  0
 39 33  1  1  0  0  0
 40 39  1  0  0  0  0
 41 37  1  0  0  0  0
 41 38  1  0  0  0  0
 42 43  1  0  0  0  0
 44 48  1  0  0  0  0
 46 47  2  0  0  0  0
 47 48  1  0  0  0  0
 47 45  1  0  0  0  0
 49 50  1  6  0  0  0
 49 55  1  0  0  0  0
 51 52  2  0  0  0  0
 52 53  1  0  0  0  0
 52 50  1  0  0  0  0
 54 53  1  0  0  0  0
 55 56  1  0  0  0  0
 56 58  1  0  0  0  0
 58 57  1  0  0  0  0
M  END
>  <MODEL>
6

>  <REMARK>
 VINA RESULT:      -5.8      4.941      9.661
  Name = 
  24 active torsions:
  status: ('A' for Active; 'I' for Inactive)
    1  A    between atoms: C_1  and  C_39
    2  A    between atoms: C_2  and  C_37
    3  A    between atoms: C_2  and  N_56
    4  A    between atoms: C_3  and  C_38
    5  A    between atoms: C_3  and  C_47
    6  A    between atoms: C_4  and  C_33
    7  A    between atoms: C_5  and  C_48
    8  A    between atoms: C_7  and  C_41
    9  A    between atoms: C_12  and  C_55
   10  A    between atoms: C_13  and  C_38
   11  A    between atoms: C_15  and  C_26
   12  A    between atoms: C_15  and  C_28
   13  A    between atoms: C_15  and  C_54
   14  A    between atoms: C_16  and  C_49
   15  A    between atoms: C_17  and  C_28
   16  A    between atoms: C_17  and  C_32
   17  A    between atoms: C_18  and  C_46
   18  A    between atoms: C_19  and  C_38
   19  A    between atoms: C_21  and  N_52
   20  A    between atoms: C_26  and  C_30
   21  A    between atoms: C_30  and  C_44
   22  A    between atoms: C_31  and  C_55
   23  A    between atoms: C_32  and  C_47
   24  A    between atoms: C_33  and  C_54
                            x       y       z     vdW  Elec       q    Type
                         _______ _______ _______ _____ _____    ______ ____

>  <TORSDO>
F 24

$$$$
=
 OpenBabel11042419113D

 58 62  0  0  1  0  0  0  0  0999 V2000
  191.5250  172.6070  139.0650 C   0  0  0  0  0  3  0  0  0  0  0  0
  192.6590  171.9030  138.8830 C   0  0  0  0  0  0  0  0  0  0  0  0
  193.0860  170.8170  139.8340 C   0  0  0  0  0  2  0  0  0  0  0  0
  194.5090  171.0500  140.3340 C   0  0  0  0  0  2  0  0  0  0  0  0
  194.5030  172.0000  141.5220 C   0  0  0  0  0  2  0  0  0  0  0  0
  195.9200  172.4280  141.8740 C   0  0  2  0  0  3  0  0  0  0  0  0
  196.9380  171.4210  141.3490 C   0  0  0  0  0  1  0  0  0  0  0  0
  196.0620  172.6800  143.3840 C   0  0  2  0  0  3  0  0  0  0  0  0
  197.1010  174.9310  144.1780 C   0  0  1  0  0  3  0  0  0  0  0  0
  197.3300  173.4700  143.7470 C   0  0  2  0  0  3  0  0  0  0  0  0
  197.5460  174.6030  142.7620 C   0  0  0  0  0  2  0  0  0  0  0  0
  191.2160  175.4630  146.3130 C   0  0  1  0  0  3  0  0  0  0  0  0
  191.0220  176.6770  145.6240 O   0  0  0  0  0  0  0  0  0  0  0  0
  192.9560  176.1480  144.2700 C   0  0  0  0  0  0  0  0  0  0  0  0
  194.8700  175.1310  145.3700 C   0  0  0  0  0  3  0  0  0  0  0  0
  193.7300  176.3310  143.1140 C   0  0  0  0  0  3  0  0  0  0  0  0
  195.6570  175.3670  144.2330 C   0  0  0  0  0  0  0  0  0  0  0  0
  193.5250  175.5090  145.3890 C   0  0  0  0  0  0  0  0  0  0  0  0
  191.4740  176.4790  144.3020 C   0  0  2  0  0  3  0  0  0  0  0  0
  192.7050  175.2690  146.6220 C   0  0  0  0  0  2  0  0  0  0  0  0
  195.0730  175.9450  143.0980 C   0  0  0  0  0  3  0  0  0  0  0  0
  191.5340  178.9840  143.9130 N   0  0  0  0  0  1  0  0  0  0  0  0
  191.1420  177.6850  143.4800 C   0  0  0  0  0  0  0  0  0  0  0  0
  190.5230  177.5460  142.3930 O   0  0  0  0  0  0  0  0  0  0  0  0
  189.0530  175.1500  147.3120 O   0  0  0  0  0  1  0  0  0  0  0  0
  190.3900  175.4430  147.5920 C   0  0  0  0  0  2  0  0  0  0  0  0
  195.8770  171.4340  144.2640 C   0  0  0  0  0  2  0  0  0  0  0  0
  194.9630  171.6770  145.4550 C   0  0  0  0  0  1  0  0  0  0  0  0
  190.5800  172.3580  140.1970 C   0  0  0  0  0  2  0  0  0  0  0  0
  189.8910  173.3350  142.3520 C   0  0  1  0  0  3  0  0  0  0  0  0
  190.3200  173.6550  140.9330 C   0  0  1  0  0  3  0  0  0  0  0  0
  191.3100  173.7800  142.0750 C   0  0  0  0  0  2  0  0  0  0  0  0
  187.7310  174.6120  142.6230 C   0  0  0  0  0  0  0  0  0  0  0  0
  187.1050  173.7600  141.9320 O   0  0  0  0  0  0  0  0  0  0  0  0
  189.1280  174.4560  142.8760 N   0  0  0  0  0  2  0  0  0  0  0  0
  186.5190  176.7050  142.0060 C   0  0  0  0  0  2  0  0  0  0  0  0
  187.0920  177.4540  144.7750 C   0  0  1  0  0  3  0  0  0  0  0  0
  186.4010  178.1640  142.4600 C   0  0  2  0  0  3  0  0  0  0  0  0
  187.0260  175.8160  143.1500 C   0  0  2  0  0  3  0  0  0  0  0  0
  187.8740  176.5410  144.0150 O   0  0  0  0  0  0  0  0  0  0  0  0
  186.0580  178.2420  143.9450 C   0  0  0  0  0  2  0  0  0  0  0  0
  185.0310  177.3240  146.1750 C   0  0  0  0  0  1  0  0  0  0  0  0
  186.4270  176.7720  145.9670 C   0  0  0  0  0  2  0  0  0  0  0  0
  185.3490  178.8950  141.6420 C   0  0  0  0  0  2  0  0  0  0  0  0
  182.9640  177.1650  139.4570 O   0  0  0  0  0  0  0  0  0  0  0  0
  182.4890  178.7090  141.0860 O   0  0  0  0  0  1  0  0  0  0  0  0
  183.3890  177.9380  140.3550 C   0  0  0  0  0  0  0  0  0  0  0  0
  184.7960  178.0110  140.6220 N   0  0  0  0  0  2  0  0  0  0  0  0
  193.5600  172.2020  137.7180 C   0  0  2  0  0  3  0  0  0  0  0  0
  194.0520  173.6490  137.7900 C   0  0  0  0  0  2  0  0  0  0  0  0
  196.2740  172.7710  137.2440 C   0  0  0  0  0  2  0  0  0  0  0  0
  195.5460  173.7410  137.7950 C   0  0  0  0  0  0  0  0  0  0  0  0
  196.2030  174.7600  138.6670 C   0  0  0  0  0  2  0  0  0  0  0  0
  197.5740  174.2840  139.1090 C   0  0  0  0  0  1  0  0  0  0  0  0
  192.8560  171.9050  136.3980 C   0  0  0  0  0  2  0  0  0  0  0  0
  193.1390  173.0040  135.3870 C   0  0  0  0  0  2  0  0  0  0  0  0
  190.7410  173.6940  135.5060 C   0  0  0  0  0  1  0  0  0  0  0  0
  191.8900  173.3190  134.5830 C   0  0  0  0  0  2  0  0  0  0  0  0
  1 29  1  0  0  0  0
  2  1  2  0  0  0  0
  2  3  1  0  0  0  0
  3  4  1  0  0  0  0
  4  5  1  0  0  0  0
  5  6  1  0  0  0  0
  6  7  1  1  0  0  0
  6  8  1  0  0  0  0
  8 27  1  1  0  0  0
  9 17  1  6  0  0  0
 10  8  1  6  0  0  0
 10  9  1  0  0  0  0
 11 10  1  0  0  0  0
 11  9  1  0  0  0  0
 12 20  1  0  0  0  0
 12 26  1  1  0  0  0
 13 12  1  0  0  0  0
 14 19  1  0  0  0  0
 14 18  1  0  0  0  0
 15 18  2  0  0  0  0
 16 14  2  0  0  0  0
 17 15  1  0  0  0  0
 18 20  1  0  0  0  0
 19 23  1  6  0  0  0
 19 13  1  0  0  0  0
 21 16  1  0  0  0  0
 21 17  2  0  0  0  0
 23 22  1  0  0  0  0
 24 23  2  0  0  0  0
 25 26  1  0  0  0  0
 27 28  1  0  0  0  0
 30 35  1  1  0  0  0
 31 29  1  6  0  0  0
 31 32  1  0  0  0  0
 31 30  1  0  0  0  0
 32 30  1  0  0  0  0
 33 35  1  0  0  0  0
 34 33  2  0  0  0  0
 36 38  1  0  0  0  0
 36 39  1  0  0  0  0
 37 43  1  1  0  0  0
 38 44  1  6  0  0  0
 38 41  1  0  0  0  0
 39 33  1  6  0  0  0
 39 40  1  0  0  0  0
 40 37  1  0  0  0  0
 41 37  1  0  0  0  0
 43 42  1  0  0  0  0
 45 47  2  0  0  0  0
 47 48  1  0  0  0  0
 47 46  1  0  0  0  0
 48 44  1  0  0  0  0
 49 55  1  6  0  0  0
 49 50  1  0  0  0  0
 49  2  1  0  0  0  0
 50 52  1  0  0  0  0
 51 52  2  0  0  0  0
 52 53  1  0  0  0  0
 53 54  1  0  0  0  0
 56 55  1  0  0  0  0
 58 56  1  0  0  0  0
 58 57  1  0  0  0  0
M  END
>  <MODEL>
7

>  <REMARK>
 VINA RESULT:      -5.7      3.401      7.590
  Name = 
  24 active torsions:
  status: ('A' for Active; 'I' for Inactive)
    1  A    between atoms: C_1  and  C_39
    2  A    between atoms: C_2  and  C_37
    3  A    between atoms: C_2  and  N_56
    4  A    between atoms: C_3  and  C_38
    5  A    between atoms: C_3  and  C_47
    6  A    between atoms: C_4  and  C_33
    7  A    between atoms: C_5  and  C_48
    8  A    between atoms: C_7  and  C_41
    9  A    between atoms: C_12  and  C_55
   10  A    between atoms: C_13  and  C_38
   11  A    between atoms: C_15  and  C_26
   12  A    between atoms: C_15  and  C_28
   13  A    between atoms: C_15  and  C_54
   14  A    between atoms: C_16  and  C_49
   15  A    between atoms: C_17  and  C_28
   16  A    between atoms: C_17  and  C_32
   17  A    between atoms: C_18  and  C_46
   18  A    between atoms: C_19  and  C_38
   19  A    between atoms: C_21  and  N_52
   20  A    between atoms: C_26  and  C_30
   21  A    between atoms: C_30  and  C_44
   22  A    between atoms: C_31  and  C_55
   23  A    between atoms: C_32  and  C_47
   24  A    between atoms: C_33  and  C_54
                            x       y       z     vdW  Elec       q    Type
                         _______ _______ _______ _____ _____    ______ ____

>  <TORSDO>
F 24

$$$$
=
 OpenBabel11042419113D

 58 62  0  0  1  0  0  0  0  0999 V2000
  190.6480  173.4790  143.0580 C   0  0  0  0  0  3  0  0  0  0  0  0
  191.6750  174.3290  143.2510 C   0  0  0  0  0  0  0  0  0  0  0  0
  192.4210  174.9540  142.1030 C   0  0  0  0  0  2  0  0  0  0  0  0
  193.5360  174.0400  141.6060 C   0  0  0  0  0  2  0  0  0  0  0  0
  194.4940  174.8110  140.7120 C   0  0  0  0  0  2  0  0  0  0  0  0
  195.8000  175.0920  141.4420 C   0  0  2  0  0  3  0  0  0  0  0  0
  195.9840  176.5880  141.6700 C   0  0  0  0  0  1  0  0  0  0  0  0
  196.9910  174.4540  140.7070 C   0  0  2  0  0  3  0  0  0  0  0  0
  197.8730  172.1500  141.5370 C   0  0  1  0  0  3  0  0  0  0  0  0
  197.9370  173.6860  141.6440 C   0  0  2  0  0  3  0  0  0  0  0  0
  197.1400  172.8790  142.6520 C   0  0  0  0  0  2  0  0  0  0  0  0
  192.8020  169.3600  139.0940 C   0  0  1  0  0  3  0  0  0  0  0  0
  192.9450  170.0520  137.8760 O   0  0  0  0  0  0  0  0  0  0  0  0
  195.2200  170.5780  138.5110 C   0  0  0  0  0  0  0  0  0  0  0  0
  195.6460  171.1610  140.8320 C   0  0  0  0  0  3  0  0  0  0  0  0
  196.5220  170.9810  138.1810 C   0  0  0  0  0  3  0  0  0  0  0  0
  196.9270  171.6160  140.4890 C   0  0  0  0  0  0  0  0  0  0  0  0
  194.7980  170.6350  139.8540 C   0  0  0  0  0  0  0  0  0  0  0  0
  194.2980  169.9350  137.4900 C   0  0  2  0  0  3  0  0  0  0  0  0
  193.4220  170.1750  140.2360 C   0  0  0  0  0  2  0  0  0  0  0  0
  197.3690  171.5000  139.1650 C   0  0  0  0  0  3  0  0  0  0  0  0
  193.4820  171.3750  135.5680 N   0  0  0  0  0  1  0  0  0  0  0  0
  194.4730  170.5130  136.1210 C   0  0  0  0  0  0  0  0  0  0  0  0
  195.5100  170.2440  135.4590 O   0  0  0  0  0  0  0  0  0  0  0  0
  190.7900  170.0440  140.2170 O   0  0  0  0  0  1  0  0  0  0  0  0
  191.3320  169.0730  139.3700 C   0  0  0  0  0  2  0  0  0  0  0  0
  197.7460  175.4030  139.7630 C   0  0  0  0  0  2  0  0  0  0  0  0
  197.2390  175.3470  138.3300 C   0  0  0  0  0  1  0  0  0  0  0  0
  190.1370  173.1070  141.7020 C   0  0  0  0  0  2  0  0  0  0  0  0
  188.7660  175.1450  141.5040 C   0  0  1  0  0  3  0  0  0  0  0  0
  188.7270  173.6300  141.5340 C   0  0  1  0  0  3  0  0  0  0  0  0
  188.6290  174.3680  140.2130 C   0  0  0  0  0  2  0  0  0  0  0  0
  187.1890  177.0560  141.9810 C   0  0  0  0  0  0  0  0  0  0  0  0
  188.0820  177.9040  141.7000 O   0  0  0  0  0  0  0  0  0  0  0  0
  187.4640  175.6580  141.8980 N   0  0  0  0  0  2  0  0  0  0  0  0
  184.8570  177.5940  141.2740 C   0  0  0  0  0  2  0  0  0  0  0  0
  184.7530  178.9810  143.8460 C   0  0  1  0  0  3  0  0  0  0  0  0
  183.7530  178.6170  141.5650 C   0  0  2  0  0  3  0  0  0  0  0  0
  185.8450  177.5080  142.4450 C   0  0  2  0  0  3  0  0  0  0  0  0
  185.9470  178.7480  143.1110 O   0  0  0  0  0  0  0  0  0  0  0  0
  183.4600  178.6840  143.0610 C   0  0  0  0  0  2  0  0  0  0  0  0
  186.0460  178.5260  145.9320 C   0  0  0  0  0  1  0  0  0  0  0  0
  184.7600  178.2420  145.1820 C   0  0  0  0  0  2  0  0  0  0  0  0
  182.4870  178.2700  140.7990 C   0  0  0  0  0  2  0  0  0  0  0  0
  179.2300  179.1630  142.2300 O   0  0  0  0  0  1  0  0  0  0  0  0
  180.1970  180.0220  140.3350 O   0  0  0  0  0  0  0  0  0  0  0  0
  180.2090  179.1720  141.4390 C   0  0  0  0  0  0  0  0  0  0  0  0
  181.3300  178.3130  141.6850 N   0  0  0  0  0  2  0  0  0  0  0  0
  192.1320  174.6640  144.6430 C   0  0  2  0  0  3  0  0  0  0  0  0
  193.4430  173.9400  144.9550 C   0  0  0  0  0  2  0  0  0  0  0  0
  195.7110  174.4730  145.7180 C   0  0  0  0  0  2  0  0  0  0  0  0
  194.5870  174.8890  145.1350 C   0  0  0  0  0  0  0  0  0  0  0  0
  194.3510  176.3490  144.9330 C   0  0  0  0  0  2  0  0  0  0  0  0
  194.5130  177.1050  146.2370 C   0  0  0  0  0  1  0  0  0  0  0  0
  191.0460  174.3390  145.6630 C   0  0  0  0  0  2  0  0  0  0  0  0
  190.5960  175.6010  146.3800 C   0  0  0  0  0  2  0  0  0  0  0  0
  189.8890  177.5370  144.9690 C   0  0  0  0  0  1  0  0  0  0  0  0
  189.4390  176.2480  145.6390 C   0  0  0  0  0  2  0  0  0  0  0  0
  1  2  2  0  0  0  0
  2 49  1  0  0  0  0
  3  2  1  0  0  0  0
  4  3  1  0  0  0  0
  5  6  1  0  0  0  0
  5  4  1  0  0  0  0
  6  7  1  6  0  0  0
  8 27  1  1  0  0  0
  8  6  1  0  0  0  0
  9 17  1  6  0  0  0
  9 10  1  0  0  0  0
  9 11  1  0  0  0  0
 10  8  1  6  0  0  0
 10 11  1  0  0  0  0
 12 26  1  1  0  0  0
 12 20  1  0  0  0  0
 13 12  1  0  0  0  0
 14 18  1  0  0  0  0
 16 14  2  0  0  0  0
 16 21  1  0  0  0  0
 17 15  1  0  0  0  0
 18 20  1  0  0  0  0
 18 15  2  0  0  0  0
 19 23  1  6  0  0  0
 19 13  1  0  0  0  0
 19 14  1  0  0  0  0
 21 17  2  0  0  0  0
 22 23  1  0  0  0  0
 24 23  2  0  0  0  0
 26 25  1  0  0  0  0
 28 27  1  0  0  0  0
 29  1  1  0  0  0  0
 30 31  1  0  0  0  0
 30 35  1  1  0  0  0
 31 29  1  6  0  0  0
 32 30  1  0  0  0  0
 32 31  1  0  0  0  0
 34 33  2  0  0  0  0
 35 33  1  0  0  0  0
 36 38  1  0  0  0  0
 36 39  1  0  0  0  0
 37 43  1  1  0  0  0
 38 44  1  6  0  0  0
 38 41  1  0  0  0  0
 39 33  1  6  0  0  0
 39 40  1  0  0  0  0
 40 37  1  0  0  0  0
 41 37  1  0  0  0  0
 43 42  1  0  0  0  0
 44 48  1  0  0  0  0
 46 47  2  0  0  0  0
 47 48  1  0  0  0  0
 47 45  1  0  0  0  0
 49 50  1  1  0  0  0
 49 55  1  0  0  0  0
 50 52  1  0  0  0  0
 52 51  2  0  0  0  0
 53 52  1  0  0  0  0
 53 54  1  0  0  0  0
 55 56  1  0  0  0  0
 57 58  1  0  0  0  0
 58 56  1  0  0  0  0
M  END
>  <MODEL>
8

>  <REMARK>
 VINA RESULT:      -5.5      3.318      6.151
  Name = 
  24 active torsions:
  status: ('A' for Active; 'I' for Inactive)
    1  A    between atoms: C_1  and  C_39
    2  A    between atoms: C_2  and  C_37
    3  A    between atoms: C_2  and  N_56
    4  A    between atoms: C_3  and  C_38
    5  A    between atoms: C_3  and  C_47
    6  A    between atoms: C_4  and  C_33
    7  A    between atoms: C_5  and  C_48
    8  A    between atoms: C_7  and  C_41
    9  A    between atoms: C_12  and  C_55
   10  A    between atoms: C_13  and  C_38
   11  A    between atoms: C_15  and  C_26
   12  A    between atoms: C_15  and  C_28
   13  A    between atoms: C_15  and  C_54
   14  A    between atoms: C_16  and  C_49
   15  A    between atoms: C_17  and  C_28
   16  A    between atoms: C_17  and  C_32
   17  A    between atoms: C_18  and  C_46
   18  A    between atoms: C_19  and  C_38
   19  A    between atoms: C_21  and  N_52
   20  A    between atoms: C_26  and  C_30
   21  A    between atoms: C_30  and  C_44
   22  A    between atoms: C_31  and  C_55
   23  A    between atoms: C_32  and  C_47
   24  A    between atoms: C_33  and  C_54
                            x       y       z     vdW  Elec       q    Type
                         _______ _______ _______ _____ _____    ______ ____

>  <TORSDO>
F 24

$$$$
=
 OpenBabel11042419113D

 58 62  0  0  1  0  0  0  0  0999 V2000
  187.4170  178.2000  142.1810 C   0  0  0  0  0  3  0  0  0  0  0  0
  188.1020  177.0730  142.4550 C   0  0  0  0  0  0  0  0  0  0  0  0
  187.8520  175.7860  141.7160 C   0  0  0  0  0  2  0  0  0  0  0  0
  188.7180  174.6560  142.2660 C   0  0  0  0  0  2  0  0  0  0  0  0
  189.4190  173.9270  141.1310 C   0  0  0  0  0  2  0  0  0  0  0  0
  189.6110  172.4570  141.4750 C   0  0  2  0  0  3  0  0  0  0  0  0
  188.7390  172.0590  142.6610 C   0  0  0  0  0  1  0  0  0  0  0  0
  191.0970  172.1300  141.6950 C   0  0  2  0  0  3  0  0  0  0  0  0
  192.3170  170.2230  140.4110 C   0  0  1  0  0  3  0  0  0  0  0  0
  191.4070  170.6280  141.5860 C   0  0  2  0  0  3  0  0  0  0  0  0
  190.8090  170.0580  140.3150 C   0  0  0  0  0  2  0  0  0  0  0  0
  196.0900  174.8400  138.4330 C   0  0  1  0  0  3  0  0  0  0  0  0
  195.5810  174.7640  137.1210 O   0  0  0  0  0  0  0  0  0  0  0  0
  193.6910  173.5290  137.9920 C   0  0  0  0  0  0  0  0  0  0  0  0
  194.1120  171.8790  139.7270 C   0  0  0  0  0  3  0  0  0  0  0  0
  192.3790  173.0490  137.8680 C   0  0  0  0  0  3  0  0  0  0  0  0
  192.8180  171.3650  139.5610 C   0  0  0  0  0  0  0  0  0  0  0  0
  194.5460  172.9620  138.9570 C   0  0  0  0  0  0  0  0  0  0  0  0
  194.1730  174.7480  137.2250 C   0  0  2  0  0  3  0  0  0  0  0  0
  195.9420  173.4840  139.1320 C   0  0  0  0  0  2  0  0  0  0  0  0
  191.9470  171.9710  138.6460 C   0  0  0  0  0  3  0  0  0  0  0  0
  193.9140  173.8700  134.8600 N   0  0  0  0  0  1  0  0  0  0  0  0
  193.5760  174.8310  135.8550 C   0  0  0  0  0  0  0  0  0  0  0  0
  192.7600  175.7510  135.5870 O   0  0  0  0  0  0  0  0  0  0  0  0
  197.9230  175.8140  139.6450 O   0  0  0  0  0  1  0  0  0  0  0  0
  197.5480  175.2800  138.4090 C   0  0  0  0  0  2  0  0  0  0  0  0
  191.7150  172.7660  142.9500 C   0  0  0  0  0  2  0  0  0  0  0  0
  193.2100  172.5130  143.0710 C   0  0  0  0  0  1  0  0  0  0  0  0
  186.3800  178.2850  141.1060 C   0  0  0  0  0  2  0  0  0  0  0  0
  184.2420  177.7090  142.1880 C   0  0  1  0  0  3  0  0  0  0  0  0
  185.1010  178.8520  141.6840 C   0  0  1  0  0  3  0  0  0  0  0  0
  185.0470  178.5360  143.1660 C   0  0  0  0  0  2  0  0  0  0  0  0
  182.0050  178.0560  141.0740 C   0  0  0  0  0  0  0  0  0  0  0  0
  182.4390  177.5860  139.9850 O   0  0  0  0  0  0  0  0  0  0  0  0
  182.8540  178.1410  142.2180 N   0  0  0  0  0  2  0  0  0  0  0  0
  180.3950  179.7680  140.2330 C   0  0  0  0  0  2  0  0  0  0  0  0
  178.8850  179.0370  142.6290 C   0  0  1  0  0  3  0  0  0  0  0  0
  179.2730  180.6730  140.7550 C   0  0  2  0  0  3  0  0  0  0  0  0
  180.6060  178.5680  141.1660 C   0  0  2  0  0  3  0  0  0  0  0  0
  180.2950  178.9040  142.5000 O   0  0  0  0  0  0  0  0  0  0  0  0
  178.2230  179.8550  141.5020 C   0  0  0  0  0  2  0  0  0  0  0  0
  177.9050  177.0790  141.4330 C   0  0  0  0  0  1  0  0  0  0  0  0
  178.2020  177.6820  142.7910 C   0  0  0  0  0  2  0  0  0  0  0  0
  178.6250  181.4350  139.6100 C   0  0  0  0  0  2  0  0  0  0  0  0
  179.8830  184.6830  138.4590 O   0  0  0  0  0  1  0  0  0  0  0  0
  179.5480  182.7960  137.1970 O   0  0  0  0  0  0  0  0  0  0  0  0
  179.5160  183.4790  138.4110 C   0  0  0  0  0  0  0  0  0  0  0  0
  179.0740  182.8230  139.6060 N   0  0  0  0  0  2  0  0  0  0  0  0
  189.1370  177.0590  143.5450 C   0  0  2  0  0  3  0  0  0  0  0  0
  188.5860  177.7330  144.8030 C   0  0  0  0  0  2  0  0  0  0  0  0
  187.4240  177.1220  146.8740 C   0  0  0  0  0  2  0  0  0  0  0  0
  188.1880  176.7400  145.8510 C   0  0  0  0  0  0  0  0  0  0  0  0
  188.8880  175.4220  145.8980 C   0  0  0  0  0  2  0  0  0  0  0  0
  189.8650  175.3730  147.0560 C   0  0  0  0  0  1  0  0  0  0  0  0
  190.4310  177.7120  143.0710 C   0  0  0  0  0  2  0  0  0  0  0  0
  191.5990  176.7530  143.2290 C   0  0  0  0  0  2  0  0  0  0  0  0
  193.4230  175.9970  144.7580 C   0  0  0  0  0  1  0  0  0  0  0  0
  192.3760  177.0670  144.4950 C   0  0  0  0  0  2  0  0  0  0  0  0
  1  2  2  0  0  0  0
  2 49  1  0  0  0  0
  3  4  1  0  0  0  0
  3  2  1  0  0  0  0
  5  6  1  0  0  0  0
  5  4  1  0  0  0  0
  6  8  1  0  0  0  0
  6  7  1  1  0  0  0
  8 27  1  1  0  0  0
  9 17  1  6  0  0  0
  9 10  1  0  0  0  0
 10  8  1  6  0  0  0
 11  9  1  0  0  0  0
 11 10  1  0  0  0  0
 12 26  1  6  0  0  0
 12 20  1  0  0  0  0
 13 19  1  0  0  0  0
 13 12  1  0  0  0  0
 14 18  1  0  0  0  0
 16 14  2  0  0  0  0
 16 21  1  0  0  0  0
 17 15  1  0  0  0  0
 18 20  1  0  0  0  0
 18 15  2  0  0  0  0
 19 23  1  6  0  0  0
 19 14  1  0  0  0  0
 21 17  2  0  0  0  0
 22 23  1  0  0  0  0
 24 23  2  0  0  0  0
 26 25  1  0  0  0  0
 27 28  1  0  0  0  0
 29  1  1  0  0  0  0
 30 35  1  1  0  0  0
 30 32  1  0  0  0  0
 31 29  1  6  0  0  0
 31 30  1  0  0  0  0
 31 32  1  0  0  0  0
 33 35  1  0  0  0  0
 34 33  2  0  0  0  0
 36 38  1  0  0  0  0
 36 39  1  0  0  0  0
 37 43  1  6  0  0  0
 38 44  1  6  0  0  0
 38 41  1  0  0  0  0
 39 33  1  1  0  0  0
 39 40  1  0  0  0  0
 40 37  1  0  0  0  0
 41 37  1  0  0  0  0
 42 43  1  0  0  0  0
 46 47  2  0  0  0  0
 47 45  1  0  0  0  0
 47 48  1  0  0  0  0
 48 44  1  0  0  0  0
 49 55  1  6  0  0  0
 49 50  1  0  0  0  0
 50 52  1  0  0  0  0
 52 53  1  0  0  0  0
 52 51  2  0  0  0  0
 53 54  1  0  0  0  0
 55 56  1  0  0  0  0
 56 58  1  0  0  0  0
 58 57  1  0  0  0  0
M  END
>  <MODEL>
9

>  <REMARK>
 VINA RESULT:      -5.5      2.480      3.549
  Name = 
  24 active torsions:
  status: ('A' for Active; 'I' for Inactive)
    1  A    between atoms: C_1  and  C_39
    2  A    between atoms: C_2  and  C_37
    3  A    between atoms: C_2  and  N_56
    4  A    between atoms: C_3  and  C_38
    5  A    between atoms: C_3  and  C_47
    6  A    between atoms: C_4  and  C_33
    7  A    between atoms: C_5  and  C_48
    8  A    between atoms: C_7  and  C_41
    9  A    between atoms: C_12  and  C_55
   10  A    between atoms: C_13  and  C_38
   11  A    between atoms: C_15  and  C_26
   12  A    between atoms: C_15  and  C_28
   13  A    between atoms: C_15  and  C_54
   14  A    between atoms: C_16  and  C_49
   15  A    between atoms: C_17  and  C_28
   16  A    between atoms: C_17  and  C_32
   17  A    between atoms: C_18  and  C_46
   18  A    between atoms: C_19  and  C_38
   19  A    between atoms: C_21  and  N_52
   20  A    between atoms: C_26  and  C_30
   21  A    between atoms: C_30  and  C_44
   22  A    between atoms: C_31  and  C_55
   23  A    between atoms: C_32  and  C_47
   24  A    between atoms: C_33  and  C_54
                            x       y       z     vdW  Elec       q    Type
                         _______ _______ _______ _____ _____    ______ ____

>  <TORSDO>
F 24

$$$$
