=
 OpenBabel11042419193D

 43 46  0  0  1  0  0  0  0  0999 V2000
  194.9910  174.9260  144.0850 C   0  0  2  0  0  3  0  0  0  0  0  0
  195.1480  172.8280  142.2430 N   0  0  0  0  0  2  0  0  0  0  0  0
  192.6580  174.7470  144.1740 N   0  0  0  0  0  0  0  0  0  0  0  0
  191.4530  173.2830  142.7790 C   0  0  0  0  0  0  0  0  0  0  0  0
  196.1750  173.5450  142.5040 N   0  0  0  0  0  0  0  0  0  0  0  0
  193.8820  173.1330  142.8360 C   0  0  0  0  0  0  0  0  0  0  0  0
  193.8730  173.9580  144.0880 C   0  0  1  0  0  3  0  0  0  0  0  0
  192.7360  172.7570  142.2630 C   0  0  0  0  0  3  0  0  0  0  0  0
  191.4510  174.2650  143.6360 N   0  0  0  0  0  0  0  0  0  0  0  0
  194.5960  176.4530  144.9270 S   0  0  0  0  0  0  0  0  0  0  0  0
  196.1020  174.7040  143.3620 C   0  0  0  0  0  0  0  0  0  0  0  0
  192.8120  176.1280  144.6200 C   0  0  2  0  0  3  0  0  0  0  0  0
  197.2350  175.6690  143.3700 C   0  0  0  0  0  1  0  0  0  0  0  0
  192.0060  176.3690  145.8530 C   0  0  0  0  0  0  0  0  0  0  0  0
  192.5150  176.1880  146.9930 O   0  0  0  0  0  0  0  0  0  0  0  0
  190.6380  176.7640  145.7240 N   0  0  0  0  0  2  0  0  0  0  0  0
  189.7860  177.0410  146.8710 C   0  0  0  0  0  2  0  0  0  0  0  0
  187.4140  176.1070  146.9810 N   0  0  0  0  0  2  0  0  0  0  0  0
  188.8280  175.9130  147.0880 C   0  0  0  0  0  0  0  0  0  0  0  0
  189.2730  174.7770  147.3920 O   0  0  0  0  0  0  0  0  0  0  0  0
  186.8060  177.3790  146.6130 C   0  0  0  0  0  2  0  0  0  0  0  0
  186.9770  179.1690  148.3410 C   0  0  0  0  0  1  0  0  0  0  0  0
  186.1370  178.0230  147.8160 C   0  0  1  0  0  3  0  0  0  0  0  0
  184.8320  178.5240  147.4320 N   0  0  0  0  0  1  0  0  0  0  0  0
  190.1650  172.7900  142.1870 C   0  0  1  0  0  3  0  0  0  0  0  0
  189.1340  172.6910  143.3100 C   0  0  0  0  0  1  0  0  0  0  0  0
  189.6980  173.6640  141.0930 N   0  0  0  0  0  0  0  0  0  0  0  0
  190.0570  173.0270  138.7580 C   0  0  0  0  0  2  0  0  0  0  0  0
  190.2510  171.7990  139.6140 C   0  0  0  0  0  2  0  0  0  0  0  0
  189.1990  172.8280  139.9990 C   0  0  0  0  0  3  0  0  0  0  0  0
  188.5420  174.4180  141.5730 C   0  0  0  0  0  2  0  0  0  0  0  0
  188.4490  175.6220  140.8720 O   0  0  0  0  0  0  0  0  0  0  0  0
  187.8090  176.5000  141.7510 C   0  0  1  0  0  3  0  0  0  0  0  0
  188.8740  178.6320  141.6540 F   0  0  0  0  0  0  0  0  0  0  0  0
  188.8190  177.4580  142.3820 C   0  0  0  0  0  0  0  0  0  0  0  0
  190.0780  176.8830  142.4150 F   0  0  0  0  0  0  0  0  0  0  0  0
  188.4250  177.7560  143.6730 F   0  0  0  0  0  0  0  0  0  0  0  0
  186.8620  177.5760  139.8320 O   0  0  0  0  0  0  0  0  0  0  0  0
  186.7100  177.2350  141.0350 C   0  0  0  0  0  0  0  0  0  0  0  0
  185.4900  177.5590  141.7040 N   0  0  0  0  0  2  0  0  0  0  0  0
  185.2440  177.2100  143.0940 C   0  0  0  0  0  2  0  0  0  0  0  0
  185.6030  179.5890  143.7220 C   0  0  0  0  0  1  0  0  0  0  0  0
  184.6680  178.4030  143.8340 C   0  0  0  0  0  2  0  0  0  0  0  0
  1 11  1  6  0  0  0
  1  7  1  0  0  0  0
  1 10  1  0  0  0  0
  2  5  1  0  0  0  0
  2  6  1  0  0  0  0
  3 12  1  0  0  0  0
  4  9  2  0  0  0  0
  5 11  2  0  0  0  0
  7  6  1  6  0  0  0
  7  3  1  0  0  0  0
  8  4  1  0  0  0  0
  8  6  2  0  0  0  0
  9  3  1  0  0  0  0
 11 13  1  0  0  0  0
 12 10  1  0  0  0  0
 12 14  1  1  0  0  0
 14 15  2  0  0  0  0
 16 14  1  0  0  0  0
 16 17  1  0  0  0  0
 17 19  1  0  0  0  0
 18 19  1  0  0  0  0
 19 20  2  0  0  0  0
 21 18  1  0  0  0  0
 21 23  1  0  0  0  0
 23 22  1  6  0  0  0
 24 23  1  0  0  0  0
 25  4  1  0  0  0  0
 25 26  1  1  0  0  0
 27 31  1  0  0  0  0
 27 25  1  0  0  0  0
 28 29  1  0  0  0  0
 28 30  1  0  0  0  0
 29 30  1  0  0  0  0
 30 27  1  0  0  0  0
 32 31  1  0  0  0  0
 33 32  1  6  0  0  0
 33 35  1  0  0  0  0
 34 35  1  0  0  0  0
 35 36  1  0  0  0  0
 35 37  1  0  0  0  0
 38 39  2  0  0  0  0
 39 40  1  0  0  0  0
 39 33  1  0  0  0  0
 40 41  1  0  0  0  0
 41 43  1  0  0  0  0
 42 43  1  0  0  0  0
M  END
>  <MODEL>
1

>  <REMARK>
 VINA RESULT:      -6.7      0.000      0.000
  Name = 
  15 active torsions:
  status: ('A' for Active; 'I' for Inactive)
    1  A    between atoms: N_1  and  C_42
    2  A    between atoms: C_2  and  C_10
    3  A    between atoms: C_6  and  C_18
    4  A    between atoms: N_7  and  C_35
    5  A    between atoms: N_7  and  C_39
    6  A    between atoms: N_7  and  C_43
    7  A    between atoms: N_9  and  C_17
    8  A    between atoms: C_10  and  N_40
    9  A    between atoms: C_11  and  C_18
   10  A    between atoms: C_12  and  C_42
   11  A    between atoms: C_15  and  C_36
   12  A    between atoms: C_17  and  C_33
   13  A    between atoms: C_18  and  O_32
   14  A    between atoms: C_20  and  C_39
   15  A    between atoms: O_32  and  C_43
                            x       y       z     vdW  Elec       q    Type
                         _______ _______ _______ _____ _____    ______ ____

>  <TORSDO>
F 15

$$$$
=
 OpenBabel11042419193D

 43 46  0  0  1  0  0  0  0  0999 V2000
  190.7990  173.0120  140.1870 C   0  0  0  0  0  0  0  0  0  0  0  0
  188.3450  173.2240  141.5120 N   0  0  0  0  0  0  0  0  0  0  0  0
  191.8680  174.2690  141.8480 N   0  0  0  0  0  0  0  0  0  0  0  0
  190.6890  175.2770  143.6200 C   0  0  0  0  0  0  0  0  0  0  0  0
  188.4080  172.7510  140.3240 N   0  0  0  0  0  0  0  0  0  0  0  0
  189.5230  173.7190  142.1560 C   0  0  0  0  0  0  0  0  0  0  0  0
  190.8540  173.2510  141.6460 C   0  0  1  0  0  3  0  0  0  0  0  0
  189.4530  174.6230  143.1370 C   0  0  0  0  0  3  0  0  0  0  0  0
  191.8010  175.1380  142.9530 N   0  0  0  0  0  0  0  0  0  0  0  0
  192.3480  173.3590  139.3640 S   0  0  0  0  0  0  0  0  0  0  0  0
  189.6380  172.7330  139.5710 C   0  0  0  0  0  0  0  0  0  0  0  0
  192.7970  174.4880  140.7440 C   0  0  2  0  0  3  0  0  0  0  0  0
  189.5840  172.4750  138.1060 C   0  0  0  0  0  1  0  0  0  0  0  0
  194.2020  174.2510  141.1910 C   0  0  0  0  0  0  0  0  0  0  0  0
  194.6380  173.0750  141.3280 O   0  0  0  0  0  0  0  0  0  0  0  0
  195.0290  175.3730  141.5060 N   0  0  0  0  0  2  0  0  0  0  0  0
  196.4150  175.2360  141.9280 C   0  0  0  0  0  2  0  0  0  0  0  0
  196.3450  175.1750  144.4780 N   0  0  0  0  0  2  0  0  0  0  0  0
  196.6160  175.8800  143.2630 C   0  0  0  0  0  0  0  0  0  0  0  0
  197.0110  177.0740  143.3170 O   0  0  0  0  0  0  0  0  0  0  0  0
  195.9070  173.7860  144.5170 C   0  0  0  0  0  2  0  0  0  0  0  0
  194.1030  174.9750  145.7640 C   0  0  0  0  0  1  0  0  0  0  0  0
  194.7120  173.6250  145.4430 C   0  0  1  0  0  3  0  0  0  0  0  0
  193.7140  172.7900  144.8040 N   0  0  0  0  0  1  0  0  0  0  0  0
  190.6140  176.2260  144.7800 C   0  0  1  0  0  3  0  0  0  0  0  0
  191.0160  177.6140  144.2840 C   0  0  0  0  0  1  0  0  0  0  0  0
  189.2720  176.2330  145.3920 N   0  0  0  0  0  0  0  0  0  0  0  0
  189.0540  174.7900  147.3570 C   0  0  0  0  0  2  0  0  0  0  0  0
  190.5050  175.1850  147.2230 C   0  0  0  0  0  2  0  0  0  0  0  0
  189.4150  176.1780  146.8490 C   0  0  0  0  0  3  0  0  0  0  0  0
  188.6450  177.5210  145.1050 C   0  0  0  0  0  2  0  0  0  0  0  0
  187.8140  177.8810  146.1680 O   0  0  0  0  0  0  0  0  0  0  0  0
  186.5280  177.5230  145.7550 C   0  0  1  0  0  3  0  0  0  0  0  0
  185.5430  178.5700  147.6580 F   0  0  0  0  0  0  0  0  0  0  0  0
  185.5990  177.3780  146.9610 C   0  0  0  0  0  0  0  0  0  0  0  0
  186.0500  176.3770  147.8030 F   0  0  0  0  0  0  0  0  0  0  0  0
  184.3270  177.0610  146.5240 F   0  0  0  0  0  0  0  0  0  0  0  0
  185.8950  179.7360  145.0940 O   0  0  0  0  0  0  0  0  0  0  0  0
  186.0080  178.5260  144.7630 C   0  0  0  0  0  0  0  0  0  0  0  0
  185.6330  178.1250  143.4450 N   0  0  0  0  0  2  0  0  0  0  0  0
  185.7240  176.7460  142.9920 C   0  0  0  0  0  2  0  0  0  0  0  0
  187.2270  177.9880  141.4480 C   0  0  0  0  0  1  0  0  0  0  0  0
  186.8050  176.6170  141.9350 C   0  0  0  0  0  2  0  0  0  0  0  0
  2  6  1  0  0  0  0
  3  9  1  0  0  0  0
  4 25  1  0  0  0  0
  5  2  2  0  0  0  0
  6  8  2  0  0  0  0
  7  1  1  6  0  0  0
  7  3  1  0  0  0  0
  7  6  1  0  0  0  0
  8  4  1  0  0  0  0
  9  4  2  0  0  0  0
 10  1  1  0  0  0  0
 10 12  1  0  0  0  0
 11  1  2  0  0  0  0
 11  5  1  0  0  0  0
 12 14  1  1  0  0  0
 12  3  1  0  0  0  0
 13 11  1  0  0  0  0
 14 15  2  0  0  0  0
 14 16  1  0  0  0  0
 16 17  1  0  0  0  0
 17 19  1  0  0  0  0
 18 21  1  0  0  0  0
 19 20  2  0  0  0  0
 19 18  1  0  0  0  0
 21 23  1  0  0  0  0
 23 22  1  6  0  0  0
 24 23  1  0  0  0  0
 25 26  1  6  0  0  0
 25 27  1  0  0  0  0
 27 30  1  0  0  0  0
 29 28  1  0  0  0  0
 30 29  1  0  0  0  0
 30 28  1  0  0  0  0
 31 27  1  0  0  0  0
 31 32  1  0  0  0  0
 33 39  1  6  0  0  0
 33 32  1  0  0  0  0
 33 35  1  0  0  0  0
 35 34  1  0  0  0  0
 35 36  1  0  0  0  0
 37 35  1  0  0  0  0
 39 38  2  0  0  0  0
 40 39  1  0  0  0  0
 41 40  1  0  0  0  0
 42 43  1  0  0  0  0
 43 41  1  0  0  0  0
M  END
>  <MODEL>
2

>  <REMARK>
 VINA RESULT:      -6.6      2.931      6.530
  Name = 
  15 active torsions:
  status: ('A' for Active; 'I' for Inactive)
    1  A    between atoms: N_1  and  C_42
    2  A    between atoms: C_2  and  C_10
    3  A    between atoms: C_6  and  C_18
    4  A    between atoms: N_7  and  C_35
    5  A    between atoms: N_7  and  C_39
    6  A    between atoms: N_7  and  C_43
    7  A    between atoms: N_9  and  C_17
    8  A    between atoms: C_10  and  N_40
    9  A    between atoms: C_11  and  C_18
   10  A    between atoms: C_12  and  C_42
   11  A    between atoms: C_15  and  C_36
   12  A    between atoms: C_17  and  C_33
   13  A    between atoms: C_18  and  O_32
   14  A    between atoms: C_20  and  C_39
   15  A    between atoms: O_32  and  C_43
                            x       y       z     vdW  Elec       q    Type
                         _______ _______ _______ _____ _____    ______ ____

>  <TORSDO>
F 15

$$$$
=
 OpenBabel11042419193D

 43 46  0  0  1  0  0  0  0  0999 V2000
  194.8400  173.1250  144.4790 C   0  0  0  0  0  0  0  0  0  0  0  0
  195.8150  175.7410  144.6500 N   0  0  0  0  0  0  0  0  0  0  0  0
  192.6380  173.8980  144.3000 N   0  0  0  0  0  0  0  0  0  0  0  0
  192.0810  176.1770  144.5060 C   0  0  0  0  0  0  0  0  0  0  0  0
  196.5810  174.7420  144.8820 N   0  0  0  0  0  0  0  0  0  0  0  0
  194.4270  175.5380  144.3680 C   0  0  0  0  0  0  0  0  0  0  0  0
  193.9980  174.1850  143.8840 C   0  0  1  0  0  3  0  0  0  0  0  0
  193.5230  176.4960  144.5920 C   0  0  0  0  0  3  0  0  0  0  0  0
  191.6940  174.9340  144.4300 N   0  0  0  0  0  0  0  0  0  0  0  0
  193.9530  171.5960  144.7490 S   0  0  0  0  0  0  0  0  0  0  0  0
  196.0850  173.3880  144.9140 C   0  0  0  0  0  0  0  0  0  0  0  0
  192.3810  172.5490  144.7930 C   0  0  2  0  0  3  0  0  0  0  0  0
  196.9400  172.3190  145.4980 C   0  0  0  0  0  1  0  0  0  0  0  0
  191.3310  171.8830  143.9670 C   0  0  0  0  0  0  0  0  0  0  0  0
  190.1190  171.9310  144.3150 O   0  0  0  0  0  0  0  0  0  0  0  0
  191.7220  171.1540  142.8020 N   0  0  0  0  0  2  0  0  0  0  0  0
  190.7640  170.4930  141.9270 C   0  0  0  0  0  2  0  0  0  0  0  0
  190.7830  172.0680  139.9190 N   0  0  0  0  0  2  0  0  0  0  0  0
  191.0790  170.7920  140.4950 C   0  0  0  0  0  0  0  0  0  0  0  0
  191.5950  169.8960  139.7780 O   0  0  0  0  0  0  0  0  0  0  0  0
  190.2080  173.1730  140.6740 C   0  0  0  0  0  2  0  0  0  0  0  0
  188.0230  173.4860  141.8350 C   0  0  0  0  0  1  0  0  0  0  0  0
  188.6970  173.2080  140.5070 C   0  0  1  0  0  3  0  0  0  0  0  0
  188.3390  174.2470  139.5620 N   0  0  0  0  0  1  0  0  0  0  0  0
  191.0730  177.2760  144.6730 C   0  0  1  0  0  3  0  0  0  0  0  0
  191.1370  178.1690  143.4350 C   0  0  0  0  0  1  0  0  0  0  0  0
  189.7150  176.7410  144.8900 N   0  0  0  0  0  0  0  0  0  0  0  0
  189.1800  175.8040  147.0870 C   0  0  0  0  0  2  0  0  0  0  0  0
  190.3840  176.7020  147.2400 C   0  0  0  0  0  2  0  0  0  0  0  0
  189.2880  177.0720  146.2510 C   0  0  0  0  0  3  0  0  0  0  0  0
  188.7970  177.4530  144.0050 C   0  0  0  0  0  2  0  0  0  0  0  0
  187.4840  177.2480  144.4350 O   0  0  0  0  0  0  0  0  0  0  0  0
  186.6950  177.9700  143.5350 C   0  0  1  0  0  3  0  0  0  0  0  0
  184.5690  177.4380  142.5930 F   0  0  0  0  0  0  0  0  0  0  0  0
  185.8860  177.0200  142.6510 C   0  0  0  0  0  0  0  0  0  0  0  0
  185.9340  175.7310  143.1520 F   0  0  0  0  0  0  0  0  0  0  0  0
  186.4080  177.0270  141.3710 F   0  0  0  0  0  0  0  0  0  0  0  0
  185.6580  180.1060  143.8510 O   0  0  0  0  0  0  0  0  0  0  0  0
  185.8120  178.9320  144.2810 C   0  0  0  0  0  0  0  0  0  0  0  0
  185.1450  178.5340  145.4790 N   0  0  0  0  0  2  0  0  0  0  0  0
  185.2810  177.2010  146.0440 C   0  0  0  0  0  2  0  0  0  0  0  0
  186.2630  178.6980  147.7710 C   0  0  0  0  0  1  0  0  0  0  0  0
  185.7840  177.2910  147.4730 C   0  0  0  0  0  2  0  0  0  0  0  0
  1 10  1  0  0  0  0
  1 11  2  0  0  0  0
  2  5  2  0  0  0  0
  3  9  1  0  0  0  0
  3 12  1  0  0  0  0
  4  8  1  0  0  0  0
  4 25  1  0  0  0  0
  5 11  1  0  0  0  0
  6  8  2  0  0  0  0
  6  2  1  0  0  0  0
  7  3  1  0  0  0  0
  7  6  1  1  0  0  0
  7  1  1  0  0  0  0
  9  4  2  0  0  0  0
 10 12  1  0  0  0  0
 11 13  1  0  0  0  0
 12 14  1  6  0  0  0
 14 15  2  0  0  0  0
 16 14  1  0  0  0  0
 17 16  1  0  0  0  0
 18 19  1  0  0  0  0
 18 21  1  0  0  0  0
 19 17  1  0  0  0  0
 20 19  2  0  0  0  0
 23 21  1  0  0  0  0
 23 22  1  1  0  0  0
 24 23  1  0  0  0  0
 25 26  1  6  0  0  0
 25 27  1  0  0  0  0
 27 30  1  0  0  0  0
 28 29  1  0  0  0  0
 30 28  1  0  0  0  0
 30 29  1  0  0  0  0
 31 32  1  0  0  0  0
 31 27  1  0  0  0  0
 33 39  1  1  0  0  0
 33 32  1  0  0  0  0
 34 35  1  0  0  0  0
 35 36  1  0  0  0  0
 35 33  1  0  0  0  0
 37 35  1  0  0  0  0
 38 39  2  0  0  0  0
 39 40  1  0  0  0  0
 40 41  1  0  0  0  0
 41 43  1  0  0  0  0
 43 42  1  0  0  0  0
M  END
>  <MODEL>
3

>  <REMARK>
 VINA RESULT:      -6.3      2.492      5.581
  Name = 
  15 active torsions:
  status: ('A' for Active; 'I' for Inactive)
    1  A    between atoms: N_1  and  C_42
    2  A    between atoms: C_2  and  C_10
    3  A    between atoms: C_6  and  C_18
    4  A    between atoms: N_7  and  C_35
    5  A    between atoms: N_7  and  C_39
    6  A    between atoms: N_7  and  C_43
    7  A    between atoms: N_9  and  C_17
    8  A    between atoms: C_10  and  N_40
    9  A    between atoms: C_11  and  C_18
   10  A    between atoms: C_12  and  C_42
   11  A    between atoms: C_15  and  C_36
   12  A    between atoms: C_17  and  C_33
   13  A    between atoms: C_18  and  O_32
   14  A    between atoms: C_20  and  C_39
   15  A    between atoms: O_32  and  C_43
                            x       y       z     vdW  Elec       q    Type
                         _______ _______ _______ _____ _____    ______ ____

>  <TORSDO>
F 15

$$$$
=
 OpenBabel11042419193D

 43 46  0  0  1  0  0  0  0  0999 V2000
  186.1860  178.1070  143.9460 C   0  0  0  0  0  0  0  0  0  0  0  0
  186.4070  177.7630  146.7130 N   0  0  0  0  0  0  0  0  0  0  0  0
  187.7820  176.4390  143.5550 N   0  0  0  0  0  0  0  0  0  0  0  0
  188.9640  175.3920  145.3020 C   0  0  0  0  0  0  0  0  0  0  0  0
  185.7530  178.7500  146.2270 N   0  0  0  0  0  0  0  0  0  0  0  0
  187.0970  176.8560  145.8470 C   0  0  0  0  0  0  0  0  0  0  0  0
  186.6640  176.7870  144.4130 C   0  0  1  0  0  3  0  0  0  0  0  0
  188.1390  176.1410  146.2760 C   0  0  0  0  0  3  0  0  0  0  0  0
  188.8110  175.6020  144.0240 N   0  0  0  0  0  0  0  0  0  0  0  0
  186.5220  178.3990  142.2140 S   0  0  0  0  0  0  0  0  0  0  0  0
  185.7140  179.0210  144.8110 C   0  0  0  0  0  0  0  0  0  0  0  0
  187.8940  177.1790  142.3020 C   0  0  2  0  0  3  0  0  0  0  0  0
  185.2170  180.3430  144.3410 C   0  0  0  0  0  1  0  0  0  0  0  0
  187.8520  176.2440  141.1400 C   0  0  0  0  0  0  0  0  0  0  0  0
  187.1200  176.4980  140.1430 O   0  0  0  0  0  0  0  0  0  0  0  0
  188.6140  175.0360  141.1910 N   0  0  0  0  0  2  0  0  0  0  0  0
  188.6490  174.0790  140.0950 C   0  0  0  0  0  2  0  0  0  0  0  0
  190.3690  172.2440  139.6640 N   0  0  0  0  0  2  0  0  0  0  0  0
  189.3820  172.8430  140.5100 C   0  0  0  0  0  0  0  0  0  0  0  0
  189.1100  172.3070  141.6150 O   0  0  0  0  0  0  0  0  0  0  0  0
  190.7670  172.8030  138.3790 C   0  0  0  0  0  2  0  0  0  0  0  0
  193.1200  172.9800  139.1880 C   0  0  0  0  0  1  0  0  0  0  0  0
  191.9690  173.7210  138.5400 C   0  0  1  0  0  3  0  0  0  0  0  0
  192.3830  174.2060  137.2390 N   0  0  0  0  0  1  0  0  0  0  0  0
  190.0810  174.5210  145.7990 C   0  0  1  0  0  3  0  0  0  0  0  0
  190.0160  173.1930  145.0480 C   0  0  0  0  0  1  0  0  0  0  0  0
  191.3940  175.1750  145.6390 N   0  0  0  0  0  0  0  0  0  0  0  0
  192.2780  176.4550  147.5280 C   0  0  0  0  0  2  0  0  0  0  0  0
  191.2330  175.5030  148.0560 C   0  0  0  0  0  2  0  0  0  0  0  0
  192.1290  175.0760  146.9030 C   0  0  0  0  0  3  0  0  0  0  0  0
  192.1710  174.4060  144.6700 C   0  0  0  0  0  2  0  0  0  0  0  0
  193.4660  174.2180  145.1580 O   0  0  0  0  0  0  0  0  0  0  0  0
  194.2870  174.9350  144.2830 C   0  0  1  0  0  3  0  0  0  0  0  0
  196.5970  175.4980  144.4720 F   0  0  0  0  0  0  0  0  0  0  0  0
  195.3610  175.6970  145.0600 C   0  0  0  0  0  0  0  0  0  0  0  0
  195.4070  175.2660  146.3740 F   0  0  0  0  0  0  0  0  0  0  0  0
  195.0720  177.0480  145.0380 F   0  0  0  0  0  0  0  0  0  0  0  0
  195.2280  172.8440  143.5920 O   0  0  0  0  0  0  0  0  0  0  0  0
  194.8840  174.0090  143.2600 C   0  0  0  0  0  0  0  0  0  0  0  0
  195.0740  174.4340  141.9100 N   0  0  0  0  0  2  0  0  0  0  0  0
  194.7130  175.7670  141.4520 C   0  0  0  0  0  2  0  0  0  0  0  0
  196.9570  175.8340  140.3820 C   0  0  0  0  0  1  0  0  0  0  0  0
  195.9630  176.5970  141.2340 C   0  0  0  0  0  2  0  0  0  0  0  0
  1 11  2  0  0  0  0
  3  9  1  0  0  0  0
  3  7  1  0  0  0  0
  4 25  1  0  0  0  0
  4  8  1  0  0  0  0
  5  2  2  0  0  0  0
  6  8  2  0  0  0  0
  6  2  1  0  0  0  0
  7  1  1  6  0  0  0
  7  6  1  0  0  0  0
  9  4  2  0  0  0  0
 10 12  1  0  0  0  0
 10  1  1  0  0  0  0
 11  5  1  0  0  0  0
 12 14  1  6  0  0  0
 12  3  1  0  0  0  0
 13 11  1  0  0  0  0
 14 16  1  0  0  0  0
 15 14  2  0  0  0  0
 17 19  1  0  0  0  0
 17 16  1  0  0  0  0
 18 19  1  0  0  0  0
 19 20  2  0  0  0  0
 21 23  1  0  0  0  0
 21 18  1  0  0  0  0
 23 22  1  6  0  0  0
 24 23  1  0  0  0  0
 25 26  1  6  0  0  0
 27 25  1  0  0  0  0
 27 30  1  0  0  0  0
 28 29  1  0  0  0  0
 30 28  1  0  0  0  0
 30 29  1  0  0  0  0
 31 32  1  0  0  0  0
 31 27  1  0  0  0  0
 33 39  1  6  0  0  0
 33 35  1  0  0  0  0
 33 32  1  0  0  0  0
 34 35  1  0  0  0  0
 35 36  1  0  0  0  0
 37 35  1  0  0  0  0
 39 38  2  0  0  0  0
 40 39  1  0  0  0  0
 41 40  1  0  0  0  0
 42 43  1  0  0  0  0
 43 41  1  0  0  0  0
M  END
>  <MODEL>
4

>  <REMARK>
 VINA RESULT:      -6.3      3.039      8.692
  Name = 
  15 active torsions:
  status: ('A' for Active; 'I' for Inactive)
    1  A    between atoms: N_1  and  C_42
    2  A    between atoms: C_2  and  C_10
    3  A    between atoms: C_6  and  C_18
    4  A    between atoms: N_7  and  C_35
    5  A    between atoms: N_7  and  C_39
    6  A    between atoms: N_7  and  C_43
    7  A    between atoms: N_9  and  C_17
    8  A    between atoms: C_10  and  N_40
    9  A    between atoms: C_11  and  C_18
   10  A    between atoms: C_12  and  C_42
   11  A    between atoms: C_15  and  C_36
   12  A    between atoms: C_17  and  C_33
   13  A    between atoms: C_18  and  O_32
   14  A    between atoms: C_20  and  C_39
   15  A    between atoms: O_32  and  C_43
                            x       y       z     vdW  Elec       q    Type
                         _______ _______ _______ _____ _____    ______ ____

>  <TORSDO>
F 15

$$$$
=
 OpenBabel11042419193D

 43 46  0  0  1  0  0  0  0  0999 V2000
  194.3690  173.1200  144.5170 C   0  0  0  0  0  0  0  0  0  0  0  0
  195.3090  175.6520  145.2450 N   0  0  0  0  0  0  0  0  0  0  0  0
  192.2230  173.9680  144.1230 N   0  0  0  0  0  0  0  0  0  0  0  0
  191.6440  176.2010  144.5950 C   0  0  0  0  0  0  0  0  0  0  0  0
  196.0270  174.6100  145.4330 N   0  0  0  0  0  0  0  0  0  0  0  0
  193.9820  175.5310  144.7230 C   0  0  0  0  0  0  0  0  0  0  0  0
  193.6320  174.2810  143.9720 C   0  0  1  0  0  3  0  0  0  0  0  0
  193.0560  176.4650  144.9520 C   0  0  0  0  0  3  0  0  0  0  0  0
  191.2720  174.9950  144.2660 N   0  0  0  0  0  0  0  0  0  0  0  0
  193.4490  171.5910  144.4030 S   0  0  0  0  0  0  0  0  0  0  0  0
  195.5310  173.2800  145.1750 C   0  0  0  0  0  0  0  0  0  0  0  0
  191.8900  172.5660  144.3520 C   0  0  2  0  0  3  0  0  0  0  0  0
  196.2830  172.1120  145.7090 C   0  0  0  0  0  1  0  0  0  0  0  0
  190.9820  172.0640  143.2790 C   0  0  0  0  0  0  0  0  0  0  0  0
  189.8440  171.6050  143.5710 O   0  0  0  0  0  0  0  0  0  0  0  0
  191.4380  172.0680  141.9250 N   0  0  0  0  0  2  0  0  0  0  0  0
  190.6120  171.6180  140.8140 C   0  0  0  0  0  2  0  0  0  0  0  0
  190.3640  173.5250  139.1380 N   0  0  0  0  0  2  0  0  0  0  0  0
  189.8490  172.7670  140.2370 C   0  0  0  0  0  0  0  0  0  0  0  0
  188.7430  173.0870  140.7420 O   0  0  0  0  0  0  0  0  0  0  0  0
  191.6230  173.2180  138.4730 C   0  0  0  0  0  2  0  0  0  0  0  0
  193.4030  174.2230  137.0450 C   0  0  0  0  0  1  0  0  0  0  0  0
  191.9310  174.2490  137.4000 C   0  0  1  0  0  3  0  0  0  0  0  0
  191.1470  173.9620  136.2150 N   0  0  0  0  0  1  0  0  0  0  0  0
  190.6240  177.2870  144.7740 C   0  0  1  0  0  3  0  0  0  0  0  0
  190.6700  178.1880  143.5420 C   0  0  0  0  0  1  0  0  0  0  0  0
  189.2730  176.7350  144.9960 N   0  0  0  0  0  0  0  0  0  0  0  0
  188.4930  175.6230  147.0320 C   0  0  0  0  0  2  0  0  0  0  0  0
  189.8620  176.1960  147.3050 C   0  0  0  0  0  2  0  0  0  0  0  0
  188.9000  176.9450  146.3960 C   0  0  0  0  0  3  0  0  0  0  0  0
  188.3240  177.5210  144.2110 C   0  0  0  0  0  2  0  0  0  0  0  0
  187.4870  178.2330  145.0730 O   0  0  0  0  0  0  0  0  0  0  0  0
  186.1930  177.9640  144.6200 C   0  0  1  0  0  3  0  0  0  0  0  0
  183.9750  178.1450  145.4800 F   0  0  0  0  0  0  0  0  0  0  0  0
  185.2520  177.7210  145.8010 C   0  0  0  0  0  0  0  0  0  0  0  0
  185.6910  178.4060  146.9200 F   0  0  0  0  0  0  0  0  0  0  0  0
  185.2120  176.3700  146.0850 F   0  0  0  0  0  0  0  0  0  0  0  0
  185.5690  180.2410  144.2170 O   0  0  0  0  0  0  0  0  0  0  0  0
  185.7120  179.0840  143.7400 C   0  0  0  0  0  0  0  0  0  0  0  0
  185.4090  178.8540  142.3630 N   0  0  0  0  0  2  0  0  0  0  0  0
  185.5380  177.5450  141.7430 C   0  0  0  0  0  2  0  0  0  0  0  0
  186.4780  177.3610  139.4480 C   0  0  0  0  0  1  0  0  0  0  0  0
  186.8110  177.4840  140.9200 C   0  0  0  0  0  2  0  0  0  0  0  0
  1 11  2  0  0  0  0
  2  5  2  0  0  0  0
  3  9  1  0  0  0  0
  3 12  1  0  0  0  0
  4 25  1  0  0  0  0
  4  8  1  0  0  0  0
  6  8  2  0  0  0  0
  6  2  1  0  0  0  0
  7  3  1  0  0  0  0
  7  1  1  1  0  0  0
  7  6  1  0  0  0  0
  9  4  2  0  0  0  0
 10  1  1  0  0  0  0
 11  5  1  0  0  0  0
 11 13  1  0  0  0  0
 12 14  1  6  0  0  0
 12 10  1  0  0  0  0
 14 15  2  0  0  0  0
 16 14  1  0  0  0  0
 17 16  1  0  0  0  0
 18 19  1  0  0  0  0
 19 20  2  0  0  0  0
 19 17  1  0  0  0  0
 21 18  1  0  0  0  0
 23 22  1  6  0  0  0
 23 21  1  0  0  0  0
 24 23  1  0  0  0  0
 25 26  1  6  0  0  0
 25 27  1  0  0  0  0
 27 30  1  0  0  0  0
 28 29  1  0  0  0  0
 30 28  1  0  0  0  0
 30 29  1  0  0  0  0
 31 27  1  0  0  0  0
 31 32  1  0  0  0  0
 33 39  1  1  0  0  0
 33 32  1  0  0  0  0
 33 35  1  0  0  0  0
 34 35  1  0  0  0  0
 35 37  1  0  0  0  0
 35 36  1  0  0  0  0
 39 38  2  0  0  0  0
 40 39  1  0  0  0  0
 41 40  1  0  0  0  0
 42 43  1  0  0  0  0
 43 41  1  0  0  0  0
M  END
>  <MODEL>
5

>  <REMARK>
 VINA RESULT:      -6.2      2.850      6.273
  Name = 
  15 active torsions:
  status: ('A' for Active; 'I' for Inactive)
    1  A    between atoms: N_1  and  C_42
    2  A    between atoms: C_2  and  C_10
    3  A    between atoms: C_6  and  C_18
    4  A    between atoms: N_7  and  C_35
    5  A    between atoms: N_7  and  C_39
    6  A    between atoms: N_7  and  C_43
    7  A    between atoms: N_9  and  C_17
    8  A    between atoms: C_10  and  N_40
    9  A    between atoms: C_11  and  C_18
   10  A    between atoms: C_12  and  C_42
   11  A    between atoms: C_15  and  C_36
   12  A    between atoms: C_17  and  C_33
   13  A    between atoms: C_18  and  O_32
   14  A    between atoms: C_20  and  C_39
   15  A    between atoms: O_32  and  C_43
                            x       y       z     vdW  Elec       q    Type
                         _______ _______ _______ _____ _____    ______ ____

>  <TORSDO>
F 15

$$$$
=
 OpenBabel11042419193D

 43 46  0  0  1  0  0  0  0  0999 V2000
  185.7070  177.3000  144.8900 C   0  0  0  0  0  0  0  0  0  0  0  0
  186.5350  177.7620  147.5210 N   0  0  0  0  0  0  0  0  0  0  0  0
  187.8190  176.4730  144.3120 N   0  0  0  0  0  0  0  0  0  0  0  0
  189.6390  176.5090  145.8050 C   0  0  0  0  0  0  0  0  0  0  0  0
  185.4120  178.2100  147.1020 N   0  0  0  0  0  0  0  0  0  0  0  0
  187.4190  177.0770  146.6290 C   0  0  0  0  0  0  0  0  0  0  0  0
  186.8380  176.4830  145.3810 C   0  0  1  0  0  3  0  0  0  0  0  0
  188.7340  177.0230  146.8570 C   0  0  0  0  0  3  0  0  0  0  0  0
  189.1880  176.3170  144.5970 N   0  0  0  0  0  0  0  0  0  0  0  0
  185.5570  177.2880  143.1080 S   0  0  0  0  0  0  0  0  0  0  0  0
  185.0050  178.0890  145.7220 C   0  0  0  0  0  0  0  0  0  0  0  0
  187.3420  176.8620  142.9880 C   0  0  2  0  0  3  0  0  0  0  0  0
  183.8570  178.8990  145.2340 C   0  0  0  0  0  1  0  0  0  0  0  0
  187.5620  175.7580  142.0090 C   0  0  0  0  0  0  0  0  0  0  0  0
  187.6960  176.0120  140.7800 O   0  0  0  0  0  0  0  0  0  0  0  0
  187.5740  174.4070  142.4760 N   0  0  0  0  0  2  0  0  0  0  0  0
  187.8030  173.2710  141.5950 C   0  0  0  0  0  2  0  0  0  0  0  0
  190.2470  172.6690  141.1780 N   0  0  0  0  0  2  0  0  0  0  0  0
  189.0650  172.5650  141.9780 C   0  0  0  0  0  0  0  0  0  0  0  0
  189.0800  171.8490  143.0120 O   0  0  0  0  0  0  0  0  0  0  0  0
  190.3330  173.4900  139.9790 C   0  0  0  0  0  2  0  0  0  0  0  0
  191.6240  171.5150  139.1710 C   0  0  0  0  0  1  0  0  0  0  0  0
  190.6930  172.6410  138.7700 C   0  0  1  0  0  3  0  0  0  0  0  0
  189.4860  172.0830  138.1950 N   0  0  0  0  0  1  0  0  0  0  0  0
  191.1040  176.3690  146.0990 C   0  0  1  0  0  3  0  0  0  0  0  0
  191.2530  175.6250  147.4250 C   0  0  0  0  0  1  0  0  0  0  0  0
  191.8160  175.6800  145.0050 N   0  0  0  0  0  0  0  0  0  0  0  0
  192.5520  176.7130  142.9120 C   0  0  0  0  0  2  0  0  0  0  0  0
  192.0550  177.8070  143.8260 C   0  0  0  0  0  2  0  0  0  0  0  0
  192.7830  176.6070  144.4120 C   0  0  0  0  0  3  0  0  0  0  0  0
  192.6090  174.5990  145.5850 C   0  0  0  0  0  2  0  0  0  0  0  0
  192.5370  173.4750  144.7590 O   0  0  0  0  0  0  0  0  0  0  0  0
  193.8670  173.1090  144.5360 C   0  0  1  0  0  3  0  0  0  0  0  0
  193.0100  170.8840  144.4560 F   0  0  0  0  0  0  0  0  0  0  0  0
  194.0840  171.6380  144.8920 C   0  0  0  0  0  0  0  0  0  0  0  0
  194.2230  171.4850  146.2600 F   0  0  0  0  0  0  0  0  0  0  0  0
  195.2290  171.1790  144.2680 F   0  0  0  0  0  0  0  0  0  0  0  0
  193.6010  172.8850  142.1660 O   0  0  0  0  0  0  0  0  0  0  0  0
  194.2500  173.4040  143.1120 C   0  0  0  0  0  0  0  0  0  0  0  0
  195.3500  174.2660  142.8150 N   0  0  0  0  0  2  0  0  0  0  0  0
  196.1540  174.8930  143.8510 C   0  0  0  0  0  2  0  0  0  0  0  0
  196.2450  176.5930  142.0380 C   0  0  0  0  0  1  0  0  0  0  0  0
  196.3590  176.3620  143.5310 C   0  0  0  0  0  2  0  0  0  0  0  0
  1 11  2  0  0  0  0
  3  9  1  0  0  0  0
  3  7  1  0  0  0  0
  4 25  1  0  0  0  0
  4  8  1  0  0  0  0
  5  2  2  0  0  0  0
  6  8  2  0  0  0  0
  6  2  1  0  0  0  0
  7  1  1  6  0  0  0
  7  6  1  0  0  0  0
  9  4  2  0  0  0  0
 10  1  1  0  0  0  0
 11  5  1  0  0  0  0
 12 14  1  6  0  0  0
 12 10  1  0  0  0  0
 12  3  1  0  0  0  0
 13 11  1  0  0  0  0
 14 16  1  0  0  0  0
 15 14  2  0  0  0  0
 17 19  1  0  0  0  0
 17 16  1  0  0  0  0
 18 19  1  0  0  0  0
 19 20  2  0  0  0  0
 21 18  1  0  0  0  0
 23 22  1  1  0  0  0
 23 21  1  0  0  0  0
 24 23  1  0  0  0  0
 25 26  1  1  0  0  0
 27 31  1  0  0  0  0
 27 25  1  0  0  0  0
 28 29  1  0  0  0  0
 28 30  1  0  0  0  0
 29 30  1  0  0  0  0
 30 27  1  0  0  0  0
 32 31  1  0  0  0  0
 33 39  1  6  0  0  0
 33 32  1  0  0  0  0
 33 35  1  0  0  0  0
 34 35  1  0  0  0  0
 35 36  1  0  0  0  0
 37 35  1  0  0  0  0
 38 39  2  0  0  0  0
 40 39  1  0  0  0  0
 40 41  1  0  0  0  0
 42 43  1  0  0  0  0
 43 41  1  0  0  0  0
M  END
>  <MODEL>
6

>  <REMARK>
 VINA RESULT:      -6.1      3.114      8.597
  Name = 
  15 active torsions:
  status: ('A' for Active; 'I' for Inactive)
    1  A    between atoms: N_1  and  C_42
    2  A    between atoms: C_2  and  C_10
    3  A    between atoms: C_6  and  C_18
    4  A    between atoms: N_7  and  C_35
    5  A    between atoms: N_7  and  C_39
    6  A    between atoms: N_7  and  C_43
    7  A    between atoms: N_9  and  C_17
    8  A    between atoms: C_10  and  N_40
    9  A    between atoms: C_11  and  C_18
   10  A    between atoms: C_12  and  C_42
   11  A    between atoms: C_15  and  C_36
   12  A    between atoms: C_17  and  C_33
   13  A    between atoms: C_18  and  O_32
   14  A    between atoms: C_20  and  C_39
   15  A    between atoms: O_32  and  C_43
                            x       y       z     vdW  Elec       q    Type
                         _______ _______ _______ _____ _____    ______ ____

>  <TORSDO>
F 15

$$$$
=
 OpenBabel11042419193D

 43 46  0  0  1  0  0  0  0  0999 V2000
  186.2110  177.9540  143.9130 C   0  0  0  0  0  0  0  0  0  0  0  0
  186.5330  177.7180  146.6810 N   0  0  0  0  0  0  0  0  0  0  0  0
  187.8310  176.3090  143.5270 N   0  0  0  0  0  0  0  0  0  0  0  0
  189.0960  175.3540  145.2680 C   0  0  0  0  0  0  0  0  0  0  0  0
  185.8410  178.6720  146.1830 N   0  0  0  0  0  0  0  0  0  0  0  0
  187.2140  176.7950  145.8240 C   0  0  0  0  0  0  0  0  0  0  0  0
  186.7350  176.6630  144.4100 C   0  0  1  0  0  3  0  0  0  0  0  0
  188.2870  176.1200  146.2420 C   0  0  0  0  0  3  0  0  0  0  0  0
  188.8950  175.5120  143.9900 N   0  0  0  0  0  0  0  0  0  0  0  0
  186.4800  178.1900  142.1610 S   0  0  0  0  0  0  0  0  0  0  0  0
  185.7470  178.8890  144.7590 C   0  0  0  0  0  0  0  0  0  0  0  0
  187.8830  177.0040  142.2450 C   0  0  2  0  0  3  0  0  0  0  0  0
  185.2040  180.1820  144.2600 C   0  0  0  0  0  1  0  0  0  0  0  0
  187.8230  176.0250  141.1190 C   0  0  0  0  0  0  0  0  0  0  0  0
  187.3330  176.3630  140.0060 O   0  0  0  0  0  0  0  0  0  0  0  0
  188.2840  174.6900  141.3340 N   0  0  0  0  0  2  0  0  0  0  0  0
  188.2820  173.6780  140.2870 C   0  0  0  0  0  2  0  0  0  0  0  0
  190.4590  172.3880  140.6130 N   0  0  0  0  0  2  0  0  0  0  0  0
  189.6840  173.3460  139.8860 C   0  0  0  0  0  0  0  0  0  0  0  0
  190.1980  173.9360  138.9010 O   0  0  0  0  0  0  0  0  0  0  0  0
  189.9430  171.6390  141.7510 C   0  0  0  0  0  2  0  0  0  0  0  0
  190.9990  169.6140  140.7480 C   0  0  0  0  0  1  0  0  0  0  0  0
  190.8000  170.4120  142.0200 C   0  0  1  0  0  3  0  0  0  0  0  0
  192.0910  170.8270  142.5310 N   0  0  0  0  0  1  0  0  0  0  0  0
  190.2490  174.5260  145.7580 C   0  0  1  0  0  3  0  0  0  0  0  0
  190.2250  173.1930  145.0120 C   0  0  0  0  0  1  0  0  0  0  0  0
  191.5360  175.2270  145.5820 N   0  0  0  0  0  0  0  0  0  0  0  0
  192.7660  176.5170  147.2580 C   0  0  0  0  0  2  0  0  0  0  0  0
  191.5750  175.8840  147.9350 C   0  0  0  0  0  2  0  0  0  0  0  0
  192.3000  175.1340  146.8280 C   0  0  0  0  0  3  0  0  0  0  0  0
  192.3180  174.5020  144.5840 C   0  0  0  0  0  2  0  0  0  0  0  0
  192.9000  175.4120  143.6980 O   0  0  0  0  0  0  0  0  0  0  0  0
  194.1840  174.9130  143.4640 C   0  0  1  0  0  3  0  0  0  0  0  0
  194.2420  176.5510  141.7310 F   0  0  0  0  0  0  0  0  0  0  0  0
  194.6470  175.2680  142.0510 C   0  0  0  0  0  0  0  0  0  0  0  0
  194.1190  174.3800  141.1300 F   0  0  0  0  0  0  0  0  0  0  0  0
  196.0260  175.2120  141.9920 F   0  0  0  0  0  0  0  0  0  0  0  0
  195.2490  176.6630  144.7040 O   0  0  0  0  0  0  0  0  0  0  0  0
  195.1340  175.4240  144.5110 C   0  0  0  0  0  0  0  0  0  0  0  0
  195.9170  174.5200  145.2920 N   0  0  0  0  0  2  0  0  0  0  0  0
  195.8500  173.0780  145.1200 C   0  0  0  0  0  2  0  0  0  0  0  0
  196.5330  170.9140  146.1370 C   0  0  0  0  0  1  0  0  0  0  0  0
  196.8270  172.3980  146.0600 C   0  0  0  0  0  2  0  0  0  0  0  0
  1 11  2  0  0  0  0
  3  9  1  0  0  0  0
  3  7  1  0  0  0  0
  4 25  1  0  0  0  0
  4  8  1  0  0  0  0
  5  2  2  0  0  0  0
  6  8  2  0  0  0  0
  6  2  1  0  0  0  0
  7  1  1  6  0  0  0
  7  6  1  0  0  0  0
  9  4  2  0  0  0  0
 10 12  1  0  0  0  0
 10  1  1  0  0  0  0
 11  5  1  0  0  0  0
 12 14  1  6  0  0  0
 12  3  1  0  0  0  0
 13 11  1  0  0  0  0
 14 16  1  0  0  0  0
 15 14  2  0  0  0  0
 17 16  1  0  0  0  0
 18 21  1  0  0  0  0
 19 17  1  0  0  0  0
 19 18  1  0  0  0  0
 20 19  2  0  0  0  0
 21 23  1  0  0  0  0
 23 22  1  6  0  0  0
 23 24  1  0  0  0  0
 25 26  1  6  0  0  0
 27 25  1  0  0  0  0
 27 30  1  0  0  0  0
 28 29  1  0  0  0  0
 30 28  1  0  0  0  0
 30 29  1  0  0  0  0
 31 27  1  0  0  0  0
 32 31  1  0  0  0  0
 33 32  1  1  0  0  0
 33 39  1  0  0  0  0
 34 35  1  0  0  0  0
 35 33  1  0  0  0  0
 36 35  1  0  0  0  0
 37 35  1  0  0  0  0
 39 38  2  0  0  0  0
 39 40  1  0  0  0  0
 41 40  1  0  0  0  0
 41 43  1  0  0  0  0
 43 42  1  0  0  0  0
M  END
>  <MODEL>
7

>  <REMARK>
 VINA RESULT:      -6.1      2.844      8.674
  Name = 
  15 active torsions:
  status: ('A' for Active; 'I' for Inactive)
    1  A    between atoms: N_1  and  C_42
    2  A    between atoms: C_2  and  C_10
    3  A    between atoms: C_6  and  C_18
    4  A    between atoms: N_7  and  C_35
    5  A    between atoms: N_7  and  C_39
    6  A    between atoms: N_7  and  C_43
    7  A    between atoms: N_9  and  C_17
    8  A    between atoms: C_10  and  N_40
    9  A    between atoms: C_11  and  C_18
   10  A    between atoms: C_12  and  C_42
   11  A    between atoms: C_15  and  C_36
   12  A    between atoms: C_17  and  C_33
   13  A    between atoms: C_18  and  O_32
   14  A    between atoms: C_20  and  C_39
   15  A    between atoms: O_32  and  C_43
                            x       y       z     vdW  Elec       q    Type
                         _______ _______ _______ _____ _____    ______ ____

>  <TORSDO>
F 15

$$$$
=
 OpenBabel11042419193D

 43 46  0  0  1  0  0  0  0  0999 V2000
  195.0400  172.1490  144.9100 C   0  0  0  0  0  0  0  0  0  0  0  0
  196.2080  174.5130  145.8410 N   0  0  0  0  0  0  0  0  0  0  0  0
  193.0080  173.2430  144.5130 N   0  0  0  0  0  0  0  0  0  0  0  0
  192.6460  175.4880  145.1240 C   0  0  0  0  0  0  0  0  0  0  0  0
  196.8070  173.3910  145.9770 N   0  0  0  0  0  0  0  0  0  0  0  0
  194.8950  174.5680  145.2730 C   0  0  0  0  0  0  0  0  0  0  0  0
  194.4470  173.4150  144.4260 C   0  0  1  0  0  3  0  0  0  0  0  0
  194.0630  175.5780  145.5400 C   0  0  0  0  0  3  0  0  0  0  0  0
  192.1640  174.3540  144.6990 N   0  0  0  0  0  0  0  0  0  0  0  0
  193.9710  170.7370  144.6610 S   0  0  0  0  0  0  0  0  0  0  0  0
  196.1860  172.1410  145.6110 C   0  0  0  0  0  0  0  0  0  0  0  0
  192.5240  171.8720  144.6330 C   0  0  2  0  0  3  0  0  0  0  0  0
  196.7930  170.8670  146.0840 C   0  0  0  0  0  1  0  0  0  0  0  0
  191.6100  171.5410  143.5000 C   0  0  0  0  0  0  0  0  0  0  0  0
  191.9670  170.7220  142.6100 O   0  0  0  0  0  0  0  0  0  0  0  0
  190.3440  172.2000  143.4140 N   0  0  0  0  0  2  0  0  0  0  0  0
  189.3820  171.9230  142.3570 C   0  0  0  0  0  2  0  0  0  0  0  0
  189.8150  173.6040  140.4860 N   0  0  0  0  0  2  0  0  0  0  0  0
  189.0490  173.1800  141.6180 C   0  0  0  0  0  0  0  0  0  0  0  0
  188.0890  173.8910  142.0140 O   0  0  0  0  0  0  0  0  0  0  0  0
  190.9280  172.8380  139.9410 C   0  0  0  0  0  2  0  0  0  0  0  0
  189.9020  173.7840  137.8740 C   0  0  0  0  0  1  0  0  0  0  0  0
  191.1560  173.1860  138.4790 C   0  0  1  0  0  3  0  0  0  0  0  0
  192.2410  174.1420  138.3740 N   0  0  0  0  0  1  0  0  0  0  0  0
  191.7370  176.6620  145.3480 C   0  0  1  0  0  3  0  0  0  0  0  0
  192.0220  177.6970  144.2610 C   0  0  0  0  0  1  0  0  0  0  0  0
  190.3180  176.2570  145.3570 N   0  0  0  0  0  0  0  0  0  0  0  0
  188.5630  175.4770  146.8750 C   0  0  0  0  0  2  0  0  0  0  0  0
  189.8880  174.9640  147.3860 C   0  0  0  0  0  2  0  0  0  0  0  0
  189.8130  176.3340  146.7300 C   0  0  0  0  0  3  0  0  0  0  0  0
  189.5560  177.2470  144.6000 C   0  0  0  0  0  2  0  0  0  0  0  0
  188.7020  176.5940  143.7090 O   0  0  0  0  0  0  0  0  0  0  0  0
  187.7370  177.5470  143.3720 C   0  0  1  0  0  3  0  0  0  0  0  0
  187.8860  176.7880  141.1160 F   0  0  0  0  0  0  0  0  0  0  0  0
  187.8540  177.9290  141.8960 C   0  0  0  0  0  0  0  0  0  0  0  0
  189.0050  178.6650  141.6750 F   0  0  0  0  0  0  0  0  0  0  0  0
  186.7570  178.6860  141.5300 F   0  0  0  0  0  0  0  0  0  0  0  0
  185.9310  175.9890  143.1620 O   0  0  0  0  0  0  0  0  0  0  0  0
  186.3660  177.0350  143.7130 C   0  0  0  0  0  0  0  0  0  0  0  0
  185.5400  177.7240  144.6530 N   0  0  0  0  0  2  0  0  0  0  0  0
  185.9660  178.9430  145.3220 C   0  0  0  0  0  2  0  0  0  0  0  0
  185.9700  178.0540  147.6440 C   0  0  0  0  0  1  0  0  0  0  0  0
  185.3200  179.0360  146.6910 C   0  0  0  0  0  2  0  0  0  0  0  0
  1 11  2  0  0  0  0
  2  5  2  0  0  0  0
  3 12  1  0  0  0  0
  3  9  1  0  0  0  0
  4 25  1  0  0  0  0
  4  8  1  0  0  0  0
  6  8  2  0  0  0  0
  6  2  1  0  0  0  0
  7  3  1  0  0  0  0
  7  1  1  1  0  0  0
  7  6  1  0  0  0  0
  9  4  2  0  0  0  0
 10  1  1  0  0  0  0
 11  5  1  0  0  0  0
 11 13  1  0  0  0  0
 12 14  1  6  0  0  0
 12 10  1  0  0  0  0
 15 14  2  0  0  0  0
 16 14  1  0  0  0  0
 17 16  1  0  0  0  0
 18 19  1  0  0  0  0
 19 20  2  0  0  0  0
 19 17  1  0  0  0  0
 21 18  1  0  0  0  0
 23 22  1  1  0  0  0
 23 21  1  0  0  0  0
 24 23  1  0  0  0  0
 25 26  1  6  0  0  0
 25 27  1  0  0  0  0
 27 30  1  0  0  0  0
 28 29  1  0  0  0  0
 30 28  1  0  0  0  0
 30 29  1  0  0  0  0
 31 27  1  0  0  0  0
 32 31  1  0  0  0  0
 33 32  1  6  0  0  0
 33 39  1  0  0  0  0
 34 35  1  0  0  0  0
 35 33  1  0  0  0  0
 36 35  1  0  0  0  0
 37 35  1  0  0  0  0
 38 39  2  0  0  0  0
 39 40  1  0  0  0  0
 40 41  1  0  0  0  0
 41 43  1  0  0  0  0
 43 42  1  0  0  0  0
M  END
>  <MODEL>
8

>  <REMARK>
 VINA RESULT:      -6.1      2.404      5.662
  Name = 
  15 active torsions:
  status: ('A' for Active; 'I' for Inactive)
    1  A    between atoms: N_1  and  C_42
    2  A    between atoms: C_2  and  C_10
    3  A    between atoms: C_6  and  C_18
    4  A    between atoms: N_7  and  C_35
    5  A    between atoms: N_7  and  C_39
    6  A    between atoms: N_7  and  C_43
    7  A    between atoms: N_9  and  C_17
    8  A    between atoms: C_10  and  N_40
    9  A    between atoms: C_11  and  C_18
   10  A    between atoms: C_12  and  C_42
   11  A    between atoms: C_15  and  C_36
   12  A    between atoms: C_17  and  C_33
   13  A    between atoms: C_18  and  O_32
   14  A    between atoms: C_20  and  C_39
   15  A    between atoms: O_32  and  C_43
                            x       y       z     vdW  Elec       q    Type
                         _______ _______ _______ _____ _____    ______ ____

>  <TORSDO>
F 15

$$$$
=
 OpenBabel11042419193D

 43 46  0  0  1  0  0  0  0  0999 V2000
  187.0410  177.4390  144.2240 C   0  0  0  0  0  0  0  0  0  0  0  0
  187.2240  178.0670  146.9430 N   0  0  0  0  0  0  0  0  0  0  0  0
  189.1360  176.3970  144.2660 N   0  0  0  0  0  0  0  0  0  0  0  0
  190.5180  176.4210  146.1720 C   0  0  0  0  0  0  0  0  0  0  0  0
  186.2930  178.5640  146.2200 N   0  0  0  0  0  0  0  0  0  0  0  0
  188.2310  177.2360  146.3560 C   0  0  0  0  0  0  0  0  0  0  0  0
  187.9240  176.5810  145.0430 C   0  0  1  0  0  3  0  0  0  0  0  0
  189.4340  177.0970  146.9180 C   0  0  0  0  0  3  0  0  0  0  0  0
  190.3670  176.1580  144.9040 N   0  0  0  0  0  0  0  0  0  0  0  0
  187.3410  177.2800  142.4690 S   0  0  0  0  0  0  0  0  0  0  0  0
  186.2350  178.3520  144.7930 C   0  0  0  0  0  0  0  0  0  0  0  0
  189.0480  176.7030  142.8420 C   0  0  2  0  0  3  0  0  0  0  0  0
  185.3320  179.2050  143.9730 C   0  0  0  0  0  1  0  0  0  0  0  0
  189.3940  175.5020  142.0270 C   0  0  0  0  0  0  0  0  0  0  0  0
  190.5990  175.1550  141.8830 O   0  0  0  0  0  0  0  0  0  0  0  0
  188.3480  174.7770  141.3770 N   0  0  0  0  0  2  0  0  0  0  0  0
  188.5930  173.5820  140.5820 C   0  0  0  0  0  2  0  0  0  0  0  0
  189.3680  173.1810  138.1840 N   0  0  0  0  0  2  0  0  0  0  0  0
  188.5810  173.9190  139.1250 C   0  0  0  0  0  0  0  0  0  0  0  0
  187.8820  174.8840  138.7220 O   0  0  0  0  0  0  0  0  0  0  0  0
  190.1900  172.0360  138.5520 C   0  0  0  0  0  2  0  0  0  0  0  0
  192.2240  173.0190  139.6100 C   0  0  0  0  0  1  0  0  0  0  0  0
  191.6660  172.3530  138.3690 C   0  0  1  0  0  3  0  0  0  0  0  0
  192.3950  171.1270  138.1140 N   0  0  0  0  0  1  0  0  0  0  0  0
  191.8410  176.1910  146.8430 C   0  0  1  0  0  3  0  0  0  0  0  0
  191.5950  175.3730  148.1100 C   0  0  0  0  0  1  0  0  0  0  0  0
  192.8000  175.5230  145.9410 N   0  0  0  0  0  0  0  0  0  0  0  0
  194.8250  176.7180  145.2610 C   0  0  0  0  0  2  0  0  0  0  0  0
  194.2730  177.3930  146.4930 C   0  0  0  0  0  2  0  0  0  0  0  0
  194.1600  175.8830  146.3470 C   0  0  0  0  0  3  0  0  0  0  0  0
  192.6940  174.0810  146.1480 C   0  0  0  0  0  2  0  0  0  0  0  0
  193.7790  173.4440  145.5430 O   0  0  0  0  0  0  0  0  0  0  0  0
  193.3010  173.0270  144.2980 C   0  0  1  0  0  3  0  0  0  0  0  0
  193.8430  174.4950  142.4970 F   0  0  0  0  0  0  0  0  0  0  0  0
  194.2950  173.3890  143.1930 C   0  0  0  0  0  0  0  0  0  0  0  0
  194.4520  172.3310  142.3160 F   0  0  0  0  0  0  0  0  0  0  0  0
  195.5190  173.6920  143.7590 F   0  0  0  0  0  0  0  0  0  0  0  0
  193.7900  170.7670  144.9240 O   0  0  0  0  0  0  0  0  0  0  0  0
  193.0070  171.5530  144.3270 C   0  0  0  0  0  0  0  0  0  0  0  0
  191.8490  171.0250  143.6790 N   0  0  0  0  0  2  0  0  0  0  0  0
  190.9040  171.8650  142.9590 C   0  0  0  0  0  2  0  0  0  0  0  0
  189.6110  172.6670  144.9260 C   0  0  0  0  0  1  0  0  0  0  0  0
  189.5570  171.8440  143.6550 C   0  0  0  0  0  2  0  0  0  0  0  0
  1 11  2  0  0  0  0
  3  9  1  0  0  0  0
  3  7  1  0  0  0  0
  4 25  1  0  0  0  0
  4  8  1  0  0  0  0
  5  2  2  0  0  0  0
  6  8  2  0  0  0  0
  6  2  1  0  0  0  0
  7  1  1  6  0  0  0
  7  6  1  0  0  0  0
  9  4  2  0  0  0  0
 10 12  1  0  0  0  0
 10  1  1  0  0  0  0
 11  5  1  0  0  0  0
 12 14  1  6  0  0  0
 12  3  1  0  0  0  0
 13 11  1  0  0  0  0
 15 14  2  0  0  0  0
 16 14  1  0  0  0  0
 17 16  1  0  0  0  0
 18 21  1  0  0  0  0
 18 19  1  0  0  0  0
 19 17  1  0  0  0  0
 20 19  2  0  0  0  0
 23 21  1  0  0  0  0
 23 22  1  1  0  0  0
 24 23  1  0  0  0  0
 25 26  1  1  0  0  0
 27 31  1  0  0  0  0
 27 30  1  0  0  0  0
 27 25  1  0  0  0  0
 28 30  1  0  0  0  0
 28 29  1  0  0  0  0
 30 29  1  0  0  0  0
 32 31  1  0  0  0  0
 33 39  1  1  0  0  0
 33 32  1  0  0  0  0
 34 35  1  0  0  0  0
 35 37  1  0  0  0  0
 35 33  1  0  0  0  0
 36 35  1  0  0  0  0
 39 38  2  0  0  0  0
 40 39  1  0  0  0  0
 41 43  1  0  0  0  0
 41 40  1  0  0  0  0
 43 42  1  0  0  0  0
M  END
>  <MODEL>
9

>  <REMARK>
 VINA RESULT:      -6.0      2.954      8.361
  Name = 
  15 active torsions:
  status: ('A' for Active; 'I' for Inactive)
    1  A    between atoms: N_1  and  C_42
    2  A    between atoms: C_2  and  C_10
    3  A    between atoms: C_6  and  C_18
    4  A    between atoms: N_7  and  C_35
    5  A    between atoms: N_7  and  C_39
    6  A    between atoms: N_7  and  C_43
    7  A    between atoms: N_9  and  C_17
    8  A    between atoms: C_10  and  N_40
    9  A    between atoms: C_11  and  C_18
   10  A    between atoms: C_12  and  C_42
   11  A    between atoms: C_15  and  C_36
   12  A    between atoms: C_17  and  C_33
   13  A    between atoms: C_18  and  O_32
   14  A    between atoms: C_20  and  C_39
   15  A    between atoms: O_32  and  C_43
                            x       y       z     vdW  Elec       q    Type
                         _______ _______ _______ _____ _____    ______ ____

>  <TORSDO>
F 15

$$$$
