=
 OpenBabel11042415093D

 27 28  0  0  1  0  0  0  0  0999 V2000
  189.9700  174.9340  147.7260 N   0  0  0  0  0  1  0  0  0  0  0  0
  190.0650  176.0440  145.5230 C   0  0  0  0  0  0  0  0  0  0  0  0
  188.0300  176.9910  144.5790 C   0  0  0  0  0  0  0  0  0  0  0  0
  189.3440  175.6620  146.6730 C   0  0  0  0  0  0  0  0  0  0  0  0
  189.3920  176.6960  144.4780 C   0  0  0  0  0  3  0  0  0  0  0  0
  187.3260  176.6230  145.7340 C   0  0  0  0  0  3  0  0  0  0  0  0
  187.9820  175.9590  146.7720 C   0  0  0  0  0  3  0  0  0  0  0  0
  195.5830  175.0110  144.9900 F   0  0  0  0  0  0  0  0  0  0  0  0
  191.0490  173.4660  144.5430 N   0  0  0  0  0  1  0  0  0  0  0  0
  191.9620  174.5080  144.8800 C   0  0  0  0  0  0  0  0  0  0  0  0
  192.4390  176.7240  145.7480 C   0  0  0  0  0  3  0  0  0  0  0  0
  193.3340  174.2690  144.7580 C   0  0  0  0  0  3  0  0  0  0  0  0
  193.8080  176.4800  145.6250 C   0  0  0  0  0  0  0  0  0  0  0  0
  194.7190  177.4570  146.0010 O   0  0  0  0  0  1  0  0  0  0  0  0
  191.5030  175.7490  145.3680 C   0  0  0  0  0  0  0  0  0  0  0  0
  194.2550  175.2530  145.1210 C   0  0  0  0  0  0  0  0  0  0  0  0
  187.3560  177.7000  143.4430 C   0  0  1  0  0  3  0  0  0  0  0  0
  187.7800  177.1810  142.1000 C   0  0  0  0  0  0  0  0  0  0  0  0
  187.7470  175.8210  141.8220 O   0  0  0  0  0  1  0  0  0  0  0  0
  188.1630  177.9880  141.2140 O   0  0  0  0  0  0  0  0  0  0  0  0
  185.8380  177.8090  143.6250 C   0  0  1  0  0  3  0  0  0  0  0  0
  185.4370  179.2600  143.8520 C   0  0  0  0  0  2  0  0  0  0  0  0
  185.3090  179.5480  145.3350 C   0  0  0  0  0  2  0  0  0  0  0  0
  184.1720  178.7300  145.9090 C   0  0  0  0  0  1  0  0  0  0  0  0
  185.1550  177.2820  142.5220 O   0  0  0  0  0  0  0  0  0  0  0  0
  184.3390  178.3210  142.0710 C   0  0  0  0  0  2  0  0  0  0  0  0
  184.2230  178.2540  140.5640 C   0  0  0  0  0  1  0  0  0  0  0  0
  2  4  1  0  0  0  0
  3  6  2  0  0  0  0
  4  7  2  0  0  0  0
  4  1  1  0  0  0  0
  5  3  1  0  0  0  0
  5  2  2  0  0  0  0
  6  7  1  0  0  0  0
  8 16  1  0  0  0  0
  9 10  1  0  0  0  0
 10 15  1  0  0  0  0
 12 10  2  0  0  0  0
 12 16  1  0  0  0  0
 13 11  1  0  0  0  0
 13 14  1  0  0  0  0
 15  2  1  0  0  0  0
 15 11  2  0  0  0  0
 16 13  2  0  0  0  0
 17 18  1  6  0  0  0
 17 21  1  0  0  0  0
 17  3  1  0  0  0  0
 19 18  1  0  0  0  0
 20 18  2  0  0  0  0
 21 22  1  6  0  0  0
 22 23  1  0  0  0  0
 23 24  1  0  0  0  0
 25 21  1  0  0  0  0
 26 25  1  0  0  0  0
 27 26  1  0  0  0  0
M  END
>  <MODEL>
1

>  <REMARK>
 VINA RESULT:      -6.7      0.000      0.000
  Name = 
  8 active torsions:
  status: ('A' for Active; 'I' for Inactive)
    1  A    between atoms: C_2  and  C_25
    2  A    between atoms: C_4  and  C_10
    3  A    between atoms: C_6  and  O_24
    4  A    between atoms: C_8  and  C_18
    5  A    between atoms: C_10  and  C_13
    6  A    between atoms: C_10  and  C_14
    7  A    between atoms: C_13  and  C_18
    8  A    between atoms: C_13  and  O_24
                            x       y       z     vdW  Elec       q    Type
                         _______ _______ _______ _____ _____    ______ ____

>  <TORSDO>
F 8

$$$$
=
 OpenBabel11042415093D

 27 28  0  0  1  0  0  0  0  0999 V2000
  187.4500  174.8780  142.3260 N   0  0  0  0  0  1  0  0  0  0  0  0
  188.3920  176.3610  144.0600 C   0  0  0  0  0  0  0  0  0  0  0  0
  190.6370  175.9320  144.9020 C   0  0  0  0  0  0  0  0  0  0  0  0
  188.5260  175.2730  143.1730 C   0  0  0  0  0  0  0  0  0  0  0  0
  189.4500  176.6710  144.9280 C   0  0  0  0  0  3  0  0  0  0  0  0
  190.7660  174.8640  144.0040 C   0  0  0  0  0  3  0  0  0  0  0  0
  189.7130  174.5370  143.1480 C   0  0  0  0  0  3  0  0  0  0  0  0
  183.6560  179.3990  144.4270 F   0  0  0  0  0  0  0  0  0  0  0  0
  187.7250  178.3980  142.0640 N   0  0  0  0  0  1  0  0  0  0  0  0
  186.8410  178.1340  143.1510 C   0  0  0  0  0  0  0  0  0  0  0  0
  186.2890  176.9840  145.2160 C   0  0  0  0  0  3  0  0  0  0  0  0
  185.6630  178.8790  143.2600 C   0  0  0  0  0  3  0  0  0  0  0  0
  185.1140  177.7310  145.3210 C   0  0  0  0  0  0  0  0  0  0  0  0
  184.2650  177.5330  146.4010 O   0  0  0  0  0  1  0  0  0  0  0  0
  187.1570  177.1670  144.1290 C   0  0  0  0  0  0  0  0  0  0  0  0
  184.7980  178.6750  144.3370 C   0  0  0  0  0  0  0  0  0  0  0  0
  191.7450  176.3090  145.8380 C   0  0  1  0  0  3  0  0  0  0  0  0
  191.3660  176.1480  147.2820 C   0  0  0  0  0  0  0  0  0  0  0  0
  190.5810  175.0810  147.6950 O   0  0  0  0  0  0  0  0  0  0  0  0
  191.7700  176.9880  148.1280 O   0  0  0  0  0  1  0  0  0  0  0  0
  193.0850  175.6640  145.4650 C   0  0  1  0  0  3  0  0  0  0  0  0
  194.1740  176.7250  145.3790 C   0  0  0  0  0  2  0  0  0  0  0  0
  195.0730  176.4660  144.1860 C   0  0  0  0  0  2  0  0  0  0  0  0
  194.2330  176.0020  143.0150 C   0  0  0  0  0  1  0  0  0  0  0  0
  193.4440  174.6710  146.3830 O   0  0  0  0  0  0  0  0  0  0  0  0
  193.4650  173.4860  145.6450 C   0  0  0  0  0  2  0  0  0  0  0  0
  194.8960  173.0230  145.4740 C   0  0  0  0  0  1  0  0  0  0  0  0
  1  4  1  0  0  0  0
  2 15  1  0  0  0  0
  2  5  1  0  0  0  0
  3  5  2  0  0  0  0
  3 17  1  0  0  0  0
  4  2  2  0  0  0  0
  6  3  1  0  0  0  0
  7  4  1  0  0  0  0
  7  6  2  0  0  0  0
  9 10  1  0  0  0  0
 10 12  2  0  0  0  0
 10 15  1  0  0  0  0
 11 13  1  0  0  0  0
 12 16  1  0  0  0  0
 13 14  1  0  0  0  0
 15 11  2  0  0  0  0
 16  8  1  0  0  0  0
 16 13  2  0  0  0  0
 17 18  1  1  0  0  0
 18 19  2  0  0  0  0
 18 20  1  0  0  0  0
 21 22  1  1  0  0  0
 21 17  1  0  0  0  0
 21 25  1  0  0  0  0
 23 22  1  0  0  0  0
 24 23  1  0  0  0  0
 26 25  1  0  0  0  0
 27 26  1  0  0  0  0
M  END
>  <MODEL>
2

>  <REMARK>
 VINA RESULT:      -6.3      3.672      7.916
  Name = 
  8 active torsions:
  status: ('A' for Active; 'I' for Inactive)
    1  A    between atoms: C_2  and  C_25
    2  A    between atoms: C_4  and  C_10
    3  A    between atoms: C_6  and  O_24
    4  A    between atoms: C_8  and  C_18
    5  A    between atoms: C_10  and  C_13
    6  A    between atoms: C_10  and  C_14
    7  A    between atoms: C_13  and  C_18
    8  A    between atoms: C_13  and  O_24
                            x       y       z     vdW  Elec       q    Type
                         _______ _______ _______ _____ _____    ______ ____

>  <TORSDO>
F 8

$$$$
=
 OpenBabel11042415093D

 27 28  0  0  1  0  0  0  0  0999 V2000
  192.5350  175.7210  142.3980 N   0  0  0  0  0  1  0  0  0  0  0  0
  190.1770  175.2410  142.9500 C   0  0  0  0  0  0  0  0  0  0  0  0
  188.8250  176.9720  144.0010 C   0  0  0  0  0  0  0  0  0  0  0  0
  191.2670  176.1350  142.8980 C   0  0  0  0  0  0  0  0  0  0  0  0
  188.9670  175.6690  143.5160 C   0  0  0  0  0  3  0  0  0  0  0  0
  189.9080  177.8580  143.9280 C   0  0  0  0  0  3  0  0  0  0  0  0
  191.1220  177.4380  143.3820 C   0  0  0  0  0  3  0  0  0  0  0  0
  190.5580  169.9780  140.9610 F   0  0  0  0  0  0  0  0  0  0  0  0
  191.0850  173.0300  144.6430 N   0  0  0  0  0  1  0  0  0  0  0  0
  190.7050  172.7950  143.2880 C   0  0  0  0  0  0  0  0  0  0  0  0
  189.9770  173.5880  141.1130 C   0  0  0  0  0  3  0  0  0  0  0  0
  190.7960  171.4970  142.7760 C   0  0  0  0  0  3  0  0  0  0  0  0
  190.0700  172.2900  140.6060 C   0  0  0  0  0  0  0  0  0  0  0  0
  189.7620  172.0460  139.2750 O   0  0  0  0  0  1  0  0  0  0  0  0
  190.2810  173.8530  142.4570 C   0  0  0  0  0  0  0  0  0  0  0  0
  190.4730  171.2430  141.4420 C   0  0  0  0  0  0  0  0  0  0  0  0
  187.5090  177.3880  144.5850 C   0  0  1  0  0  3  0  0  0  0  0  0
  186.4830  177.7120  143.5370 C   0  0  0  0  0  0  0  0  0  0  0  0
  185.8090  176.7000  142.8680 O   0  0  0  0  0  0  0  0  0  0  0  0
  186.2280  178.9140  143.2670 O   0  0  0  0  0  1  0  0  0  0  0  0
  187.0120  176.4320  145.6760 C   0  0  1  0  0  3  0  0  0  0  0  0
  187.9010  176.5320  146.9080 C   0  0  0  0  0  2  0  0  0  0  0  0
  188.6260  175.2230  147.1460 C   0  0  0  0  0  2  0  0  0  0  0  0
  190.1180  175.4750  147.1970 C   0  0  0  0  0  1  0  0  0  0  0  0
  185.6800  176.6960  146.0140 O   0  0  0  0  0  0  0  0  0  0  0  0
  185.7470  177.6130  147.0640 C   0  0  0  0  0  2  0  0  0  0  0  0
  184.5550  178.5430  146.9990 C   0  0  0  0  0  1  0  0  0  0  0  0
  1  4  1  0  0  0  0
  2  5  1  0  0  0  0
  3 17  1  0  0  0  0
  4  2  2  0  0  0  0
  4  7  1  0  0  0  0
  5  3  2  0  0  0  0
  6  3  1  0  0  0  0
  7  6  2  0  0  0  0
  8 16  1  0  0  0  0
 10  9  1  0  0  0  0
 11 15  1  0  0  0  0
 12 10  1  0  0  0  0
 13 11  2  0  0  0  0
 13 16  1  0  0  0  0
 14 13  1  0  0  0  0
 15  2  1  0  0  0  0
 15 10  2  0  0  0  0
 16 12  2  0  0  0  0
 17 18  1  6  0  0  0
 17 21  1  0  0  0  0
 19 18  2  0  0  0  0
 20 18  1  0  0  0  0
 21 25  1  0  0  0  0
 21 22  1  1  0  0  0
 22 23  1  0  0  0  0
 23 24  1  0  0  0  0
 25 26  1  0  0  0  0
 27 26  1  0  0  0  0
M  END
>  <MODEL>
3

>  <REMARK>
 VINA RESULT:      -6.3      3.216      4.924
  Name = 
  8 active torsions:
  status: ('A' for Active; 'I' for Inactive)
    1  A    between atoms: C_2  and  C_25
    2  A    between atoms: C_4  and  C_10
    3  A    between atoms: C_6  and  O_24
    4  A    between atoms: C_8  and  C_18
    5  A    between atoms: C_10  and  C_13
    6  A    between atoms: C_10  and  C_14
    7  A    between atoms: C_13  and  C_18
    8  A    between atoms: C_13  and  O_24
                            x       y       z     vdW  Elec       q    Type
                         _______ _______ _______ _____ _____    ______ ____

>  <TORSDO>
F 8

$$$$
=
 OpenBabel11042415093D

 27 28  0  0  1  0  0  0  0  0999 V2000
  192.2860  172.9060  143.4150 N   0  0  0  0  0  1  0  0  0  0  0  0
  191.7920  175.3220  143.5380 C   0  0  0  0  0  0  0  0  0  0  0  0
  189.4740  176.0660  143.5080 C   0  0  0  0  0  0  0  0  0  0  0  0
  191.3540  173.9820  143.4870 C   0  0  0  0  0  0  0  0  0  0  0  0
  190.8410  176.3540  143.5340 C   0  0  0  0  0  3  0  0  0  0  0  0
  189.0490  174.7310  143.4750 C   0  0  0  0  0  3  0  0  0  0  0  0
  189.9870  173.6970  143.4610 C   0  0  0  0  0  3  0  0  0  0  0  0
  197.2610  176.6980  143.5150 F   0  0  0  0  0  0  0  0  0  0  0  0
  193.3080  175.5960  146.0280 N   0  0  0  0  0  1  0  0  0  0  0  0
  193.9470  175.7890  144.7680 C   0  0  0  0  0  0  0  0  0  0  0  0
  193.8780  175.9360  142.3460 C   0  0  0  0  0  3  0  0  0  0  0  0
  195.3020  176.1340  144.7420 C   0  0  0  0  0  3  0  0  0  0  0  0
  195.2310  176.2800  142.3260 C   0  0  0  0  0  0  0  0  0  0  0  0
  195.8610  176.5300  141.1150 O   0  0  0  0  0  1  0  0  0  0  0  0
  193.2260  175.6760  143.5610 C   0  0  0  0  0  0  0  0  0  0  0  0
  195.9450  176.3720  143.5260 C   0  0  0  0  0  0  0  0  0  0  0  0
  188.4940  177.2010  143.5190 C   0  0  1  0  0  3  0  0  0  0  0  0
  187.8080  177.3900  142.1970 C   0  0  0  0  0  0  0  0  0  0  0  0
  186.6730  176.6590  141.8760 O   0  0  0  0  0  1  0  0  0  0  0  0
  188.2640  178.2260  141.3740 O   0  0  0  0  0  0  0  0  0  0  0  0
  187.5430  177.1550  144.7200 C   0  0  1  0  0  3  0  0  0  0  0  0
  188.3350  177.1570  146.0210 C   0  0  0  0  0  2  0  0  0  0  0  0
  187.9760  175.9490  146.8620 C   0  0  0  0  0  2  0  0  0  0  0  0
  189.2200  175.1220  147.1110 C   0  0  0  0  0  1  0  0  0  0  0  0
  186.6420  178.2260  144.6960 O   0  0  0  0  0  0  0  0  0  0  0  0
  185.3910  177.6530  144.9290 C   0  0  0  0  0  2  0  0  0  0  0  0
  184.7660  178.2860  146.1530 C   0  0  0  0  0  1  0  0  0  0  0  0
  1  4  1  0  0  0  0
  2 15  1  0  0  0  0
  3 17  1  0  0  0  0
  3  5  2  0  0  0  0
  4  2  2  0  0  0  0
  5  2  1  0  0  0  0
  6  3  1  0  0  0  0
  7  6  2  0  0  0  0
  7  4  1  0  0  0  0
  8 16  1  0  0  0  0
 10  9  1  0  0  0  0
 11 15  1  0  0  0  0
 12 10  1  0  0  0  0
 13 11  2  0  0  0  0
 13 16  1  0  0  0  0
 14 13  1  0  0  0  0
 15 10  2  0  0  0  0
 16 12  2  0  0  0  0
 17 18  1  6  0  0  0
 17 21  1  0  0  0  0
 19 18  1  0  0  0  0
 20 18  2  0  0  0  0
 21 22  1  1  0  0  0
 22 23  1  0  0  0  0
 23 24  1  0  0  0  0
 25 21  1  0  0  0  0
 25 26  1  0  0  0  0
 26 27  1  0  0  0  0
M  END
>  <MODEL>
4

>  <REMARK>
 VINA RESULT:      -6.2      2.078      3.482
  Name = 
  8 active torsions:
  status: ('A' for Active; 'I' for Inactive)
    1  A    between atoms: C_2  and  C_25
    2  A    between atoms: C_4  and  C_10
    3  A    between atoms: C_6  and  O_24
    4  A    between atoms: C_8  and  C_18
    5  A    between atoms: C_10  and  C_13
    6  A    between atoms: C_10  and  C_14
    7  A    between atoms: C_13  and  C_18
    8  A    between atoms: C_13  and  O_24
                            x       y       z     vdW  Elec       q    Type
                         _______ _______ _______ _____ _____    ______ ____

>  <TORSDO>
F 8

$$$$
=
 OpenBabel11042415093D

 27 28  0  0  1  0  0  0  0  0999 V2000
  190.4690  173.3170  142.8930 N   0  0  0  0  0  1  0  0  0  0  0  0
  189.8160  175.5870  143.6120 C   0  0  0  0  0  0  0  0  0  0  0  0
  187.7690  176.5700  142.7350 C   0  0  0  0  0  0  0  0  0  0  0  0
  189.5530  174.4080  142.8840 C   0  0  0  0  0  0  0  0  0  0  0  0
  188.9230  176.6640  143.5180 C   0  0  0  0  0  3  0  0  0  0  0  0
  187.5080  175.3890  142.0280 C   0  0  0  0  0  3  0  0  0  0  0  0
  188.3980  174.3170  142.1020 C   0  0  0  0  0  3  0  0  0  0  0  0
  194.3750  176.1040  146.8910 F   0  0  0  0  0  0  0  0  0  0  0  0
  192.4200  176.3370  142.5010 N   0  0  0  0  0  1  0  0  0  0  0  0
  192.2690  176.1120  143.9010 C   0  0  0  0  0  0  0  0  0  0  0  0
  190.9350  175.4610  145.8220 C   0  0  0  0  0  3  0  0  0  0  0  0
  193.3890  176.2320  144.7300 C   0  0  0  0  0  3  0  0  0  0  0  0
  192.0560  175.5820  146.6450 C   0  0  0  0  0  0  0  0  0  0  0  0
  191.9480  175.3120  148.0020 O   0  0  0  0  0  1  0  0  0  0  0  0
  191.0250  175.7350  144.4480 C   0  0  0  0  0  0  0  0  0  0  0  0
  193.2830  175.9760  146.0980 C   0  0  0  0  0  0  0  0  0  0  0  0
  186.8370  177.7430  142.6750 C   0  0  1  0  0  3  0  0  0  0  0  0
  186.0560  177.8000  141.3940 C   0  0  0  0  0  0  0  0  0  0  0  0
  186.7050  177.8790  140.1700 O   0  0  0  0  0  0  0  0  0  0  0  0
  184.7980  177.7710  141.4310 O   0  0  0  0  0  1  0  0  0  0  0  0
  185.9820  177.8900  143.9390 C   0  0  1  0  0  3  0  0  0  0  0  0
  186.2210  176.7130  144.8750 C   0  0  0  0  0  2  0  0  0  0  0  0
  186.5730  177.2040  146.2650 C   0  0  0  0  0  2  0  0  0  0  0  0
  187.5690  176.2540  146.8970 C   0  0  0  0  0  1  0  0  0  0  0  0
  186.2500  179.0960  144.5960 O   0  0  0  0  0  0  0  0  0  0  0  0
  185.1960  179.9410  144.2430 C   0  0  0  0  0  2  0  0  0  0  0  0
  183.8820  179.3020  144.6380 C   0  0  0  0  0  1  0  0  0  0  0  0
  2 15  1  0  0  0  0
  3  5  2  0  0  0  0
  4  1  1  0  0  0  0
  4  2  2  0  0  0  0
  5  2  1  0  0  0  0
  6  7  2  0  0  0  0
  6  3  1  0  0  0  0
  7  4  1  0  0  0  0
  9 10  1  0  0  0  0
 10 15  2  0  0  0  0
 10 12  1  0  0  0  0
 11 13  2  0  0  0  0
 12 16  2  0  0  0  0
 13 14  1  0  0  0  0
 15 11  1  0  0  0  0
 16 13  1  0  0  0  0
 16  8  1  0  0  0  0
 17 18  1  6  0  0  0
 17  3  1  0  0  0  0
 17 21  1  0  0  0  0
 18 20  1  0  0  0  0
 19 18  2  0  0  0  0
 21 25  1  0  0  0  0
 21 22  1  1  0  0  0
 22 23  1  0  0  0  0
 23 24  1  0  0  0  0
 26 25  1  0  0  0  0
 26 27  1  0  0  0  0
M  END
>  <MODEL>
5

>  <REMARK>
 VINA RESULT:      -6.0      1.911      2.989
  Name = 
  8 active torsions:
  status: ('A' for Active; 'I' for Inactive)
    1  A    between atoms: C_2  and  C_25
    2  A    between atoms: C_4  and  C_10
    3  A    between atoms: C_6  and  O_24
    4  A    between atoms: C_8  and  C_18
    5  A    between atoms: C_10  and  C_13
    6  A    between atoms: C_10  and  C_14
    7  A    between atoms: C_13  and  C_18
    8  A    between atoms: C_13  and  O_24
                            x       y       z     vdW  Elec       q    Type
                         _______ _______ _______ _____ _____    ______ ____

>  <TORSDO>
F 8

$$$$
=
 OpenBabel11042415093D

 27 28  0  0  1  0  0  0  0  0999 V2000
  192.4070  175.7570  142.3940 N   0  0  0  0  0  1  0  0  0  0  0  0
  190.1410  175.1520  143.1650 C   0  0  0  0  0  0  0  0  0  0  0  0
  188.8310  176.7860  144.4080 C   0  0  0  0  0  0  0  0  0  0  0  0
  191.1800  176.0970  143.0340 C   0  0  0  0  0  0  0  0  0  0  0  0
  188.9780  175.5060  143.8660 C   0  0  0  0  0  3  0  0  0  0  0  0
  189.8620  177.7230  144.2560 C   0  0  0  0  0  3  0  0  0  0  0  0
  191.0300  177.3770  143.5750 C   0  0  0  0  0  3  0  0  0  0  0  0
  190.5370  169.9750  140.9660 F   0  0  0  0  0  0  0  0  0  0  0  0
  191.4120  172.9610  144.6350 N   0  0  0  0  0  1  0  0  0  0  0  0
  190.8540  172.7370  143.3420 C   0  0  0  0  0  0  0  0  0  0  0  0
  189.7740  173.5360  141.3210 C   0  0  0  0  0  3  0  0  0  0  0  0
  190.9460  171.4600  142.7790 C   0  0  0  0  0  3  0  0  0  0  0  0
  189.8690  172.2600  140.7630 C   0  0  0  0  0  0  0  0  0  0  0  0
  189.3860  172.0300  139.4820 O   0  0  0  0  0  1  0  0  0  0  0  0
  190.2530  173.7860  142.6160 C   0  0  0  0  0  0  0  0  0  0  0  0
  190.4480  171.2190  141.4970 C   0  0  0  0  0  0  0  0  0  0  0  0
  187.5660  177.1230  145.1370 C   0  0  1  0  0  3  0  0  0  0  0  0
  187.7330  177.1110  146.6290 C   0  0  0  0  0  0  0  0  0  0  0  0
  186.8430  176.4180  147.4370 O   0  0  0  0  0  1  0  0  0  0  0  0
  188.6950  177.7320  147.1510 O   0  0  0  0  0  0  0  0  0  0  0  0
  186.8810  178.3820  144.5910 C   0  0  1  0  0  3  0  0  0  0  0  0
  186.0150  178.0310  143.3890 C   0  0  0  0  0  2  0  0  0  0  0  0
  186.6490  178.5450  142.1110 C   0  0  0  0  0  2  0  0  0  0  0  0
  186.9530  177.3770  141.1960 C   0  0  0  0  0  1  0  0  0  0  0  0
  186.1130  179.0100  145.5780 O   0  0  0  0  0  0  0  0  0  0  0  0
  184.7910  178.6830  145.2700 C   0  0  0  0  0  2  0  0  0  0  0  0
  184.0630  178.2840  146.5360 C   0  0  0  0  0  1  0  0  0  0  0  0
  1  4  1  0  0  0  0
  2  5  1  0  0  0  0
  3 17  1  0  0  0  0
  4  2  2  0  0  0  0
  4  7  1  0  0  0  0
  5  3  2  0  0  0  0
  6  3  1  0  0  0  0
  7  6  2  0  0  0  0
  8 16  1  0  0  0  0
 10  9  1  0  0  0  0
 11 15  1  0  0  0  0
 12 10  1  0  0  0  0
 13 11  2  0  0  0  0
 13 16  1  0  0  0  0
 14 13  1  0  0  0  0
 15  2  1  0  0  0  0
 15 10  2  0  0  0  0
 16 12  2  0  0  0  0
 17 18  1  1  0  0  0
 18 20  2  0  0  0  0
 18 19  1  0  0  0  0
 21 22  1  6  0  0  0
 21 17  1  0  0  0  0
 21 25  1  0  0  0  0
 23 22  1  0  0  0  0
 24 23  1  0  0  0  0
 26 25  1  0  0  0  0
 26 27  1  0  0  0  0
M  END
>  <MODEL>
6

>  <REMARK>
 VINA RESULT:      -5.9      3.345      4.853
  Name = 
  8 active torsions:
  status: ('A' for Active; 'I' for Inactive)
    1  A    between atoms: C_2  and  C_25
    2  A    between atoms: C_4  and  C_10
    3  A    between atoms: C_6  and  O_24
    4  A    between atoms: C_8  and  C_18
    5  A    between atoms: C_10  and  C_13
    6  A    between atoms: C_10  and  C_14
    7  A    between atoms: C_13  and  C_18
    8  A    between atoms: C_13  and  O_24
                            x       y       z     vdW  Elec       q    Type
                         _______ _______ _______ _____ _____    ______ ____

>  <TORSDO>
F 8

$$$$
=
 OpenBabel11042415093D

 27 28  0  0  1  0  0  0  0  0999 V2000
  188.5410  178.6730  142.3690 N   0  0  0  0  0  1  0  0  0  0  0  0
  188.4000  176.9550  144.1360 C   0  0  0  0  0  0  0  0  0  0  0  0
  190.1430  175.2610  144.2900 C   0  0  0  0  0  0  0  0  0  0  0  0
  189.0840  177.5480  143.0540 C   0  0  0  0  0  0  0  0  0  0  0  0
  188.9350  175.8050  144.7360 C   0  0  0  0  0  3  0  0  0  0  0  0
  190.8230  175.8680  143.2260 C   0  0  0  0  0  3  0  0  0  0  0  0
  190.2920  177.0030  142.6120 C   0  0  0  0  0  3  0  0  0  0  0  0
  183.5610  179.0490  146.1330 F   0  0  0  0  0  0  0  0  0  0  0  0
  185.9040  176.7440  142.6200 N   0  0  0  0  0  1  0  0  0  0  0  0
  185.9210  177.3660  143.9030 C   0  0  0  0  0  0  0  0  0  0  0  0
  187.1020  178.1650  145.8670 C   0  0  0  0  0  3  0  0  0  0  0  0
  184.7310  177.8940  144.4130 C   0  0  0  0  0  3  0  0  0  0  0  0
  185.9110  178.6910  146.3720 C   0  0  0  0  0  0  0  0  0  0  0  0
  185.9120  179.3530  147.5920 O   0  0  0  0  0  1  0  0  0  0  0  0
  187.1180  177.4890  144.6370 C   0  0  0  0  0  0  0  0  0  0  0  0
  184.7230  178.5480  145.6470 C   0  0  0  0  0  0  0  0  0  0  0  0
  190.6820  174.0390  144.9700 C   0  0  1  0  0  3  0  0  0  0  0  0
  190.2030  172.7630  144.3390 C   0  0  0  0  0  0  0  0  0  0  0  0
  190.4360  172.5060  142.9960 O   0  0  0  0  0  0  0  0  0  0  0  0
  189.5900  171.9160  145.0380 O   0  0  0  0  0  1  0  0  0  0  0  0
  192.1980  174.1000  145.1930 C   0  0  1  0  0  3  0  0  0  0  0  0
  192.5050  174.6570  146.5760 C   0  0  0  0  0  2  0  0  0  0  0  0
  192.7540  176.1510  146.5020 C   0  0  0  0  0  2  0  0  0  0  0  0
  194.2370  176.4050  146.3270 C   0  0  0  0  0  1  0  0  0  0  0  0
  192.7850  172.8400  145.0340 O   0  0  0  0  0  0  0  0  0  0  0  0
  194.0780  173.0990  144.5730 C   0  0  0  0  0  2  0  0  0  0  0  0
  194.0050  173.8360  143.2540 C   0  0  0  0  0  1  0  0  0  0  0  0
  1  4  1  0  0  0  0
  2 15  1  0  0  0  0
  2  5  1  0  0  0  0
  3  5  2  0  0  0  0
  3 17  1  0  0  0  0
  4  2  2  0  0  0  0
  6  3  1  0  0  0  0
  7  4  1  0  0  0  0
  7  6  2  0  0  0  0
  9 10  1  0  0  0  0
 10 12  2  0  0  0  0
 10 15  1  0  0  0  0
 11 13  1  0  0  0  0
 12 16  1  0  0  0  0
 13 14  1  0  0  0  0
 15 11  2  0  0  0  0
 16  8  1  0  0  0  0
 16 13  2  0  0  0  0
 17 18  1  6  0  0  0
 17 21  1  0  0  0  0
 18 20  1  0  0  0  0
 19 18  2  0  0  0  0
 21 22  1  1  0  0  0
 23 22  1  0  0  0  0
 24 23  1  0  0  0  0
 25 21  1  0  0  0  0
 26 25  1  0  0  0  0
 27 26  1  0  0  0  0
M  END
>  <MODEL>
7

>  <REMARK>
 VINA RESULT:      -5.9      3.911      7.545
  Name = 
  8 active torsions:
  status: ('A' for Active; 'I' for Inactive)
    1  A    between atoms: C_2  and  C_25
    2  A    between atoms: C_4  and  C_10
    3  A    between atoms: C_6  and  O_24
    4  A    between atoms: C_8  and  C_18
    5  A    between atoms: C_10  and  C_13
    6  A    between atoms: C_10  and  C_14
    7  A    between atoms: C_13  and  C_18
    8  A    between atoms: C_13  and  O_24
                            x       y       z     vdW  Elec       q    Type
                         _______ _______ _______ _____ _____    ______ ____

>  <TORSDO>
F 8

$$$$
=
 OpenBabel11042415093D

 27 28  0  0  1  0  0  0  0  0999 V2000
  188.8110  174.5420  142.8980 N   0  0  0  0  0  1  0  0  0  0  0  0
  190.1240  176.0000  144.3970 C   0  0  0  0  0  0  0  0  0  0  0  0
  192.5540  175.9890  144.2400 C   0  0  0  0  0  0  0  0  0  0  0  0
  190.0590  175.0710  143.3380 C   0  0  0  0  0  0  0  0  0  0  0  0
  191.3780  176.4400  144.8460 C   0  0  0  0  0  3  0  0  0  0  0  0
  192.4780  175.0790  143.1770 C   0  0  0  0  0  3  0  0  0  0  0  0
  191.2360  174.6220  142.7330 C   0  0  0  0  0  3  0  0  0  0  0  0
  185.4630  177.9710  146.8850 F   0  0  0  0  0  0  0  0  0  0  0  0
  189.1370  174.8660  146.9110 N   0  0  0  0  0  1  0  0  0  0  0  0
  188.4560  175.9540  146.2910 C   0  0  0  0  0  0  0  0  0  0  0  0
  188.1730  177.5290  144.4660 C   0  0  0  0  0  3  0  0  0  0  0  0
  187.2960  176.4550  146.8920 C   0  0  0  0  0  3  0  0  0  0  0  0
  187.0150  178.0240  145.0690 C   0  0  0  0  0  0  0  0  0  0  0  0
  186.3010  179.0450  144.4570 O   0  0  0  0  0  1  0  0  0  0  0  0
  188.9100  176.5000  145.0730 C   0  0  0  0  0  0  0  0  0  0  0  0
  186.5810  177.4910  146.2880 C   0  0  0  0  0  0  0  0  0  0  0  0
  193.8700  176.4970  144.7450 C   0  0  1  0  0  3  0  0  0  0  0  0
  193.9160  176.6060  146.2420 C   0  0  0  0  0  0  0  0  0  0  0  0
  193.2560  175.6830  147.0410 O   0  0  0  0  0  1  0  0  0  0  0  0
  194.5660  177.5410  146.7780 O   0  0  0  0  0  0  0  0  0  0  0  0
  195.0680  175.7620  144.1310 C   0  0  1  0  0  3  0  0  0  0  0  0
  196.0750  176.7630  143.5820 C   0  0  0  0  0  2  0  0  0  0  0  0
  196.4980  176.3730  142.1790 C   0  0  0  0  0  2  0  0  0  0  0  0
  195.2950  176.4190  141.2610 C   0  0  0  0  0  1  0  0  0  0  0  0
  195.6800  174.9190  145.0660 O   0  0  0  0  0  0  0  0  0  0  0  0
  195.5380  173.6330  144.5410 C   0  0  0  0  0  2  0  0  0  0  0  0
  194.5600  172.8470  145.3870 C   0  0  0  0  0  1  0  0  0  0  0  0
  1  4  1  0  0  0  0
  2  5  1  0  0  0  0
  2 15  1  0  0  0  0
  3 17  1  0  0  0  0
  3  5  2  0  0  0  0
  4  2  2  0  0  0  0
  6  3  1  0  0  0  0
  7  6  2  0  0  0  0
  7  4  1  0  0  0  0
 10 12  1  0  0  0  0
 10  9  1  0  0  0  0
 11 13  2  0  0  0  0
 11 15  1  0  0  0  0
 13 16  1  0  0  0  0
 14 13  1  0  0  0  0
 15 10  2  0  0  0  0
 16  8  1  0  0  0  0
 16 12  2  0  0  0  0
 17 18  1  1  0  0  0
 18 20  2  0  0  0  0
 18 19  1  0  0  0  0
 21 22  1  1  0  0  0
 21 17  1  0  0  0  0
 21 25  1  0  0  0  0
 23 22  1  0  0  0  0
 24 23  1  0  0  0  0
 26 25  1  0  0  0  0
 26 27  1  0  0  0  0
M  END
>  <MODEL>
8

>  <REMARK>
 VINA RESULT:      -5.9      3.097      7.947
  Name = 
  8 active torsions:
  status: ('A' for Active; 'I' for Inactive)
    1  A    between atoms: C_2  and  C_25
    2  A    between atoms: C_4  and  C_10
    3  A    between atoms: C_6  and  O_24
    4  A    between atoms: C_8  and  C_18
    5  A    between atoms: C_10  and  C_13
    6  A    between atoms: C_10  and  C_14
    7  A    between atoms: C_13  and  C_18
    8  A    between atoms: C_13  and  O_24
                            x       y       z     vdW  Elec       q    Type
                         _______ _______ _______ _____ _____    ______ ____

>  <TORSDO>
F 8

$$$$
=
 OpenBabel11042415093D

 27 28  0  0  1  0  0  0  0  0999 V2000
  189.7260  178.2530  144.4680 N   0  0  0  0  0  1  0  0  0  0  0  0
  188.3440  176.3660  143.6750 C   0  0  0  0  0  0  0  0  0  0  0  0
  189.3480  174.6780  142.2360 C   0  0  0  0  0  0  0  0  0  0  0  0
  189.5880  177.0270  143.7540 C   0  0  0  0  0  0  0  0  0  0  0  0
  188.2360  175.2010  142.9020 C   0  0  0  0  0  3  0  0  0  0  0  0
  190.5830  175.3320  142.3350 C   0  0  0  0  0  3  0  0  0  0  0  0
  190.6980  176.5020  143.0880 C   0  0  0  0  0  3  0  0  0  0  0  0
  183.7000  178.3630  146.1750 F   0  0  0  0  0  0  0  0  0  0  0  0
  187.8720  175.9950  146.5410 N   0  0  0  0  0  1  0  0  0  0  0  0
  186.9340  176.7100  145.7410 C   0  0  0  0  0  0  0  0  0  0  0  0
  186.1600  177.5390  143.5940 C   0  0  0  0  0  3  0  0  0  0  0  0
  185.7750  177.2100  146.3420 C   0  0  0  0  0  3  0  0  0  0  0  0
  185.0050  178.0360  144.2000 C   0  0  0  0  0  0  0  0  0  0  0  0
  184.0480  178.6850  143.4310 O   0  0  0  0  0  1  0  0  0  0  0  0
  187.1400  176.8840  144.3560 C   0  0  0  0  0  0  0  0  0  0  0  0
  184.8160  177.8770  145.5770 C   0  0  0  0  0  0  0  0  0  0  0  0
  189.1870  173.4230  141.4330 C   0  0  1  0  0  3  0  0  0  0  0  0
  189.3700  173.6470  139.9600 C   0  0  0  0  0  0  0  0  0  0  0  0
  188.2730  173.7630  139.1180 O   0  0  0  0  0  0  0  0  0  0  0  0
  190.5310  173.7380  139.4840 O   0  0  0  0  0  1  0  0  0  0  0  0
  189.9960  172.2480  141.9950 C   0  0  1  0  0  3  0  0  0  0  0  0
  189.4660  171.8510  143.3660 C   0  0  0  0  0  2  0  0  0  0  0  0
  190.4860  172.1700  144.4410 C   0  0  0  0  0  2  0  0  0  0  0  0
  189.8940  173.1640  145.4170 C   0  0  0  0  0  1  0  0  0  0  0  0
  189.9690  171.1510  141.1260 O   0  0  0  0  0  0  0  0  0  0  0  0
  191.1320  170.4340  141.4120 C   0  0  0  0  0  2  0  0  0  0  0  0
  192.3410  171.3040  141.1460 C   0  0  0  0  0  1  0  0  0  0  0  0
  2  4  1  0  0  0  0
  2 15  1  0  0  0  0
  3  6  2  0  0  0  0
  3  5  1  0  0  0  0
  4  1  1  0  0  0  0
  5  2  2  0  0  0  0
  6  7  1  0  0  0  0
  7  4  2  0  0  0  0
 10 12  1  0  0  0  0
 10  9  1  0  0  0  0
 11 13  2  0  0  0  0
 11 15  1  0  0  0  0
 13 16  1  0  0  0  0
 14 13  1  0  0  0  0
 15 10  2  0  0  0  0
 16  8  1  0  0  0  0
 16 12  2  0  0  0  0
 17 18  1  6  0  0  0
 17 21  1  0  0  0  0
 17  3  1  0  0  0  0
 19 18  2  0  0  0  0
 20 18  1  0  0  0  0
 21 22  1  1  0  0  0
 22 23  1  0  0  0  0
 23 24  1  0  0  0  0
 25 26  1  0  0  0  0
 25 21  1  0  0  0  0
 27 26  1  0  0  0  0
M  END
>  <MODEL>
9

>  <REMARK>
 VINA RESULT:      -5.9      3.907      7.149
  Name = 
  8 active torsions:
  status: ('A' for Active; 'I' for Inactive)
    1  A    between atoms: C_2  and  C_25
    2  A    between atoms: C_4  and  C_10
    3  A    between atoms: C_6  and  O_24
    4  A    between atoms: C_8  and  C_18
    5  A    between atoms: C_10  and  C_13
    6  A    between atoms: C_10  and  C_14
    7  A    between atoms: C_13  and  C_18
    8  A    between atoms: C_13  and  O_24
                            x       y       z     vdW  Elec       q    Type
                         _______ _______ _______ _____ _____    ______ ____

>  <TORSDO>
F 8

$$$$
