=
 OpenBabel11042415103D

 27 31  0  0  1  0  0  0  0  0999 V2000
  189.5900  174.6570  143.6830 N   0  0  0  0  0  0  0  0  0  0  0  0
  189.2500  172.9360  141.8090 C   0  0  1  0  0  3  0  0  0  0  0  0
  188.4180  176.5170  141.8400 C   0  0  2  0  0  3  0  0  0  0  0  0
  186.8150  177.2620  141.3790 S   0  0  0  0  0  0  0  0  0  0  0  0
  189.0490  174.2220  142.4270 C   0  0  0  0  0  0  0  0  0  0  0  0
  189.4670  172.2820  139.6230 N   0  0  0  0  0  0  0  0  0  0  0  0
  187.7700  177.7840  143.7810 C   0  0  0  0  0  2  0  0  0  0  0  0
  190.5280  171.9510  140.2870 C   0  0  0  0  0  3  0  0  0  0  0  0
  186.8380  178.1620  142.9310 C   0  0  2  0  0  3  0  0  0  0  0  0
  189.3940  175.8770  144.0920 C   0  0  0  0  0  0  0  0  0  0  0  0
  188.5120  172.9040  140.5270 C   0  0  2  0  0  3  0  0  0  0  0  0
  188.4670  175.0440  141.5680 C   0  0  0  0  0  0  0  0  0  0  0  0
  190.4500  172.3950  141.6750 C   0  0  0  0  0  2  0  0  0  0  0  0
  188.6280  176.7800  143.2650 N   0  0  0  0  0  0  0  0  0  0  0  0
  188.2640  174.3910  140.2300 C   0  0  0  0  0  2  0  0  0  0  0  0
  189.6330  175.2220  146.4810 C   0  0  0  0  0  2  0  0  0  0  0  0
  189.9100  176.2820  145.4380 C   0  0  1  0  0  3  0  0  0  0  0  0
  191.3470  176.5300  145.3900 N   0  0  0  0  0  2  0  0  0  0  0  0
  190.8240  175.2950  147.3910 C   0  0  0  0  0  2  0  0  0  0  0  0
  191.9420  175.7900  146.4980 C   0  0  2  0  0  3  0  0  0  0  0  0
  192.8860  176.6910  147.2730 C   0  0  0  0  0  2  0  0  0  0  0  0
  194.1220  176.8690  146.5330 N   0  0  0  0  0  2  0  0  0  0  0  0
  194.6670  175.5440  146.3050 C   0  0  0  0  0  1  0  0  0  0  0  0
  185.9030  179.1890  143.2520 N   0  0  0  0  0  2  0  0  0  0  0  0
  185.6680  179.5610  144.5810 N   0  0  0  0  0  2  0  0  0  0  0  0
  184.3460  179.0720  144.9240 C   0  0  0  0  0  2  0  0  0  0  0  0
  184.4330  178.2090  146.1640 C   0  0  0  0  0  1  0  0  0  0  0  0
  1 10  2  0  0  0  0
  2 13  1  6  0  0  0
  2  5  1  0  0  0  0
  3  4  1  1  0  0  0
  3 14  1  0  0  0  0
  4  9  1  0  0  0  0
  5  1  1  0  0  0  0
  6  8  2  0  0  0  0
  6 11  1  0  0  0  0
  8 13  1  0  0  0  0
  9 24  1  1  0  0  0
  9  7  1  0  0  0  0
 11 15  1  6  0  0  0
 11  2  1  0  0  0  0
 12  3  1  0  0  0  0
 12  5  2  0  0  0  0
 14  7  1  0  0  0  0
 14 10  1  0  0  0  0
 15 12  1  0  0  0  0
 16 19  1  0  0  0  0
 17 10  1  6  0  0  0
 17 16  1  0  0  0  0
 18 17  1  0  0  0  0
 18 20  1  0  0  0  0
 20 21  1  1  0  0  0
 20 19  1  0  0  0  0
 22 21  1  0  0  0  0
 23 22  1  0  0  0  0
 24 25  1  0  0  0  0
 25 26  1  0  0  0  0
 26 27  1  0  0  0  0
M  END
>  <MODEL>
1

>  <REMARK>
 VINA RESULT:      -6.4      0.000      0.000
  Name = 
  6 active torsions:
  status: ('A' for Active; 'I' for Inactive)
    1  A    between atoms: N_3  and  C_6
    2  A    between atoms: C_5  and  N_18
    3  A    between atoms: C_6  and  C_19
    4  A    between atoms: C_7  and  C_20
    5  A    between atoms: N_11  and  C_15
    6  A    between atoms: N_11  and  N_18
                            x       y       z     vdW  Elec       q    Type
                         _______ _______ _______ _____ _____    ______ ____

>  <TORSDO>
F 6

$$$$
=
 OpenBabel11042415103D

 27 31  0  0  1  0  0  0  0  0999 V2000
  187.4980  175.8420  143.2050 N   0  0  0  0  0  0  0  0  0  0  0  0
  185.4610  177.0660  144.1740 C   0  0  1  0  0  3  0  0  0  0  0  0
  188.9950  177.3240  145.1530 C   0  0  2  0  0  3  0  0  0  0  0  0
  189.6620  177.1970  146.8490 S   0  0  0  0  0  0  0  0  0  0  0  0
  186.8420  176.6580  144.1850 C   0  0  0  0  0  0  0  0  0  0  0  0
  184.4040  178.9890  144.8350 N   0  0  0  0  0  0  0  0  0  0  0  0
  190.6130  175.5470  145.0250 C   0  0  0  0  0  2  0  0  0  0  0  0
  184.1890  178.7810  143.5750 C   0  0  0  0  0  3  0  0  0  0  0  0
  190.8370  175.9820  146.2470 C   0  0  2  0  0  3  0  0  0  0  0  0
  188.7760  175.6110  143.2950 C   0  0  0  0  0  0  0  0  0  0  0  0
  185.1980  177.8950  145.3710 C   0  0  2  0  0  3  0  0  0  0  0  0
  187.4960  177.3260  145.1240 C   0  0  0  0  0  0  0  0  0  0  0  0
  184.8870  177.5910  143.1030 C   0  0  0  0  0  2  0  0  0  0  0  0
  189.5180  176.1880  144.3910 N   0  0  0  0  0  0  0  0  0  0  0  0
  186.6060  178.3190  145.8170 C   0  0  0  0  0  2  0  0  0  0  0  0
  189.3480  173.2540  142.7390 C   0  0  0  0  0  2  0  0  0  0  0  0
  189.4200  174.6990  142.2980 C   0  0  1  0  0  3  0  0  0  0  0  0
  188.7820  174.8230  140.9920 N   0  0  0  0  0  2  0  0  0  0  0  0
  189.1860  172.4940  141.4550 C   0  0  0  0  0  2  0  0  0  0  0  0
  188.4840  173.4700  140.5350 C   0  0  2  0  0  3  0  0  0  0  0  0
  188.9590  173.2910  139.1050 C   0  0  0  0  0  2  0  0  0  0  0  0
  188.1560  174.1040  138.2090 N   0  0  0  0  0  2  0  0  0  0  0  0
  188.9060  174.2300  136.9730 C   0  0  0  0  0  1  0  0  0  0  0  0
  191.9190  175.4880  147.0320 N   0  0  0  0  0  2  0  0  0  0  0  0
  193.2110  175.3890  146.5000 N   0  0  0  0  0  2  0  0  0  0  0  0
  193.8500  176.6730  146.7170 C   0  0  0  0  0  2  0  0  0  0  0  0
  194.6290  177.0640  145.4790 C   0  0  0  0  0  1  0  0  0  0  0  0
  1 10  2  0  0  0  0
  1  5  1  0  0  0  0
  2 13  1  6  0  0  0
  2  5  1  0  0  0  0
  2 11  1  0  0  0  0
  3 12  1  1  0  0  0
  3  4  1  0  0  0  0
  5 12  2  0  0  0  0
  6 11  1  0  0  0  0
  7  9  1  0  0  0  0
  8  6  2  0  0  0  0
  9  4  1  0  0  0  0
  9 24  1  1  0  0  0
 10 14  1  0  0  0  0
 11 15  1  6  0  0  0
 12 15  1  0  0  0  0
 13  8  1  0  0  0  0
 14  7  1  0  0  0  0
 14  3  1  0  0  0  0
 17 16  1  0  0  0  0
 17 10  1  1  0  0  0
 18 17  1  0  0  0  0
 19 16  1  0  0  0  0
 20 21  1  6  0  0  0
 20 18  1  0  0  0  0
 20 19  1  0  0  0  0
 22 21  1  0  0  0  0
 23 22  1  0  0  0  0
 25 26  1  0  0  0  0
 25 24  1  0  0  0  0
 27 26  1  0  0  0  0
M  END
>  <MODEL>
2

>  <REMARK>
 VINA RESULT:      -6.4      2.048      7.132
  Name = 
  6 active torsions:
  status: ('A' for Active; 'I' for Inactive)
    1  A    between atoms: N_3  and  C_6
    2  A    between atoms: C_5  and  N_18
    3  A    between atoms: C_6  and  C_19
    4  A    between atoms: C_7  and  C_20
    5  A    between atoms: N_11  and  C_15
    6  A    between atoms: N_11  and  N_18
                            x       y       z     vdW  Elec       q    Type
                         _______ _______ _______ _____ _____    ______ ____

>  <TORSDO>
F 6

$$$$
=
 OpenBabel11042415103D

 27 31  0  0  1  0  0  0  0  0999 V2000
  188.3850  177.6200  145.3890 N   0  0  0  0  0  0  0  0  0  0  0  0
  186.2860  178.7700  144.4610 C   0  0  1  0  0  3  0  0  0  0  0  0
  187.9180  175.6740  143.3340 C   0  0  2  0  0  3  0  0  0  0  0  0
  188.3890  175.2600  141.6170 S   0  0  0  0  0  0  0  0  0  0  0  0
  187.3550  177.8050  144.4080 C   0  0  0  0  0  0  0  0  0  0  0  0
  184.1000  178.7040  143.7760 N   0  0  0  0  0  0  0  0  0  0  0  0
  190.2770  175.2130  143.4580 C   0  0  0  0  0  2  0  0  0  0  0  0
  184.1540  178.9300  145.0500 C   0  0  0  0  0  3  0  0  0  0  0  0
  190.0330  174.8590  142.2140 C   0  0  2  0  0  3  0  0  0  0  0  0
  189.2490  176.6560  145.2560 C   0  0  0  0  0  0  0  0  0  0  0  0
  185.4520  178.6250  143.2470 C   0  0  2  0  0  3  0  0  0  0  0  0
  187.1340  176.9490  143.4220 C   0  0  0  0  0  0  0  0  0  0  0  0
  185.5300  178.9300  145.5350 C   0  0  0  0  0  2  0  0  0  0  0  0
  189.1540  175.7800  144.1120 N   0  0  0  0  0  0  0  0  0  0  0  0
  185.8290  177.2260  142.7310 C   0  0  0  0  0  2  0  0  0  0  0  0
  190.5570  175.0920  146.6830 C   0  0  0  0  0  2  0  0  0  0  0  0
  190.3550  176.5300  146.2580 C   0  0  1  0  0  3  0  0  0  0  0  0
  191.6090  177.0390  145.7150 N   0  0  0  0  0  2  0  0  0  0  0  0
  192.0390  174.9880  146.9010 C   0  0  0  0  0  2  0  0  0  0  0  0
  192.6240  176.0210  145.9610 C   0  0  2  0  0  3  0  0  0  0  0  0
  193.8580  176.6590  146.5710 C   0  0  0  0  0  2  0  0  0  0  0  0
  194.6030  177.3760  145.5520 N   0  0  0  0  0  2  0  0  0  0  0  0
  195.0830  176.3830  144.6090 C   0  0  0  0  0  1  0  0  0  0  0  0
  191.0260  174.2350  141.4040 N   0  0  0  0  0  2  0  0  0  0  0  0
  190.7170  173.1210  140.6130 N   0  0  0  0  0  2  0  0  0  0  0  0
  191.3600  171.9780  141.2340 C   0  0  0  0  0  2  0  0  0  0  0  0
  190.3290  171.1660  141.9870 C   0  0  0  0  0  1  0  0  0  0  0  0
  2 13  1  1  0  0  0
  3  4  1  6  0  0  0
  3 12  1  0  0  0  0
  3 14  1  0  0  0  0
  4  9  1  0  0  0  0
  5  2  1  0  0  0  0
  5  1  1  0  0  0  0
  6  8  2  0  0  0  0
  7 14  1  0  0  0  0
  8 13  1  0  0  0  0
  9 24  1  6  0  0  0
  9  7  1  0  0  0  0
 10  1  2  0  0  0  0
 11 15  1  1  0  0  0
 11  6  1  0  0  0  0
 11  2  1  0  0  0  0
 12  5  2  0  0  0  0
 14 10  1  0  0  0  0
 15 12  1  0  0  0  0
 16 19  1  0  0  0  0
 17 10  1  6  0  0  0
 17 16  1  0  0  0  0
 18 20  1  0  0  0  0
 18 17  1  0  0  0  0
 20 21  1  1  0  0  0
 20 19  1  0  0  0  0
 22 21  1  0  0  0  0
 23 22  1  0  0  0  0
 25 26  1  0  0  0  0
 25 24  1  0  0  0  0
 26 27  1  0  0  0  0
M  END
>  <MODEL>
3

>  <REMARK>
 VINA RESULT:      -6.2      1.558      5.624
  Name = 
  6 active torsions:
  status: ('A' for Active; 'I' for Inactive)
    1  A    between atoms: N_3  and  C_6
    2  A    between atoms: C_5  and  N_18
    3  A    between atoms: C_6  and  C_19
    4  A    between atoms: C_7  and  C_20
    5  A    between atoms: N_11  and  C_15
    6  A    between atoms: N_11  and  N_18
                            x       y       z     vdW  Elec       q    Type
                         _______ _______ _______ _____ _____    ______ ____

>  <TORSDO>
F 6

$$$$
=
 OpenBabel11042415103D

 27 31  0  0  1  0  0  0  0  0999 V2000
  189.3460  175.9310  145.3530 N   0  0  0  0  0  0  0  0  0  0  0  0
  191.6620  175.3290  146.2820 C   0  0  1  0  0  3  0  0  0  0  0  0
  190.3990  175.0230  142.8430 C   0  0  2  0  0  3  0  0  0  0  0  0
  190.4950  173.5390  141.7810 S   0  0  0  0  0  0  0  0  0  0  0  0
  190.6420  175.3220  145.2650 C   0  0  0  0  0  0  0  0  0  0  0  0
  193.9490  175.4280  146.1870 N   0  0  0  0  0  0  0  0  0  0  0  0
  188.1140  174.5820  142.2280 C   0  0  0  0  0  2  0  0  0  0  0  0
  193.4940  176.4370  146.8600 C   0  0  0  0  0  3  0  0  0  0  0  0
  188.7360  173.7060  141.4670 C   0  0  2  0  0  3  0  0  0  0  0  0
  188.5460  175.9170  144.3260 C   0  0  0  0  0  0  0  0  0  0  0  0
  192.8380  174.5820  145.7840 C   0  0  2  0  0  3  0  0  0  0  0  0
  191.1460  174.8550  144.1320 C   0  0  0  0  0  0  0  0  0  0  0  0
  192.0360  176.4370  146.9010 C   0  0  0  0  0  2  0  0  0  0  0  0
  188.9820  175.2820  143.1050 N   0  0  0  0  0  0  0  0  0  0  0  0
  192.6110  174.5480  144.2640 C   0  0  0  0  0  2  0  0  0  0  0  0
  186.8290  176.7590  145.9190 C   0  0  0  0  0  2  0  0  0  0  0  0
  187.1740  176.4990  144.4690 C   0  0  1  0  0  3  0  0  0  0  0  0
  187.0610  177.7510  143.7280 N   0  0  0  0  0  2  0  0  0  0  0  0
  185.9890  178.0020  145.8700 C   0  0  0  0  0  2  0  0  0  0  0  0
  186.4800  178.7320  144.6380 C   0  0  2  0  0  3  0  0  0  0  0  0
  185.3350  179.4560  143.9540 C   0  0  0  0  0  2  0  0  0  0  0  0
  184.1380  178.6340  143.9860 N   0  0  0  0  0  2  0  0  0  0  0  0
  183.8280  178.2940  142.6100 C   0  0  0  0  0  1  0  0  0  0  0  0
  188.0400  172.9320  140.4930 N   0  0  0  0  0  2  0  0  0  0  0  0
  188.5330  172.8020  139.1880 N   0  0  0  0  0  2  0  0  0  0  0  0
  188.2860  174.0670  138.5210 C   0  0  0  0  0  2  0  0  0  0  0  0
  188.9460  174.0550  137.1590 C   0  0  0  0  0  1  0  0  0  0  0  0
  2 13  1  6  0  0  0
  3  4  1  6  0  0  0
  3 14  1  0  0  0  0
  3 12  1  0  0  0  0
  5  1  1  0  0  0  0
  5  2  1  0  0  0  0
  6  8  2  0  0  0  0
  7 14  1  0  0  0  0
  8 13  1  0  0  0  0
  9 24  1  1  0  0  0
  9  4  1  0  0  0  0
  9  7  1  0  0  0  0
 10  1  2  0  0  0  0
 11 15  1  6  0  0  0
 11  6  1  0  0  0  0
 11  2  1  0  0  0  0
 12 15  1  0  0  0  0
 12  5  2  0  0  0  0
 14 10  1  0  0  0  0
 17 10  1  1  0  0  0
 17 16  1  0  0  0  0
 18 17  1  0  0  0  0
 18 20  1  0  0  0  0
 19 16  1  0  0  0  0
 20 21  1  6  0  0  0
 20 19  1  0  0  0  0
 21 22  1  0  0  0  0
 23 22  1  0  0  0  0
 25 24  1  0  0  0  0
 26 25  1  0  0  0  0
 27 26  1  0  0  0  0
M  END
>  <MODEL>
4

>  <REMARK>
 VINA RESULT:      -6.2      1.974      6.635
  Name = 
  6 active torsions:
  status: ('A' for Active; 'I' for Inactive)
    1  A    between atoms: N_3  and  C_6
    2  A    between atoms: C_5  and  N_18
    3  A    between atoms: C_6  and  C_19
    4  A    between atoms: C_7  and  C_20
    5  A    between atoms: N_11  and  C_15
    6  A    between atoms: N_11  and  N_18
                            x       y       z     vdW  Elec       q    Type
                         _______ _______ _______ _____ _____    ______ ____

>  <TORSDO>
F 6

$$$$
=
 OpenBabel11042415103D

 27 31  0  0  1  0  0  0  0  0999 V2000
  183.9010  178.2910  143.5590 N   0  0  0  0  0  0  0  0  0  0  0  0
  185.0650  177.6200  145.7460 C   0  0  1  0  0  3  0  0  0  0  0  0
  186.5510  178.3260  142.4580 C   0  0  2  0  0  3  0  0  0  0  0  0
  187.7450  177.2750  141.5600 S   0  0  0  0  0  0  0  0  0  0  0  0
  185.0330  177.8530  144.3250 C   0  0  0  0  0  0  0  0  0  0  0  0
  186.6860  177.9380  147.3350 N   0  0  0  0  0  0  0  0  0  0  0  0
  185.4990  177.9140  140.3330 C   0  0  0  0  0  2  0  0  0  0  0  0
  185.6360  178.6360  147.6330 C   0  0  0  0  0  3  0  0  0  0  0  0
  186.6850  177.3850  140.1160 C   0  0  2  0  0  3  0  0  0  0  0  0
  184.0290  178.5380  142.2880 C   0  0  0  0  0  0  0  0  0  0  0  0
  186.4240  177.1750  146.1260 C   0  0  2  0  0  3  0  0  0  0  0  0
  186.2650  177.8190  143.8400 C   0  0  0  0  0  0  0  0  0  0  0  0
  184.5980  178.4990  146.6180 C   0  0  0  0  0  2  0  0  0  0  0  0
  185.3210  178.3670  141.6650 N   0  0  0  0  0  0  0  0  0  0  0  0
  187.2810  177.6100  144.9260 C   0  0  0  0  0  2  0  0  0  0  0  0
  182.5160  177.9170  140.4120 C   0  0  0  0  0  2  0  0  0  0  0  0
  182.8170  178.9260  141.4990 C   0  0  1  0  0  3  0  0  0  0  0  0
  181.6490  179.0430  142.3650 N   0  0  0  0  0  2  0  0  0  0  0  0
  181.0170  177.9040  140.3400 C   0  0  0  0  0  2  0  0  0  0  0  0
  180.5770  178.2780  141.7390 C   0  0  2  0  0  3  0  0  0  0  0  0
  179.3070  179.1090  141.6950 C   0  0  0  0  0  2  0  0  0  0  0  0
  178.5020  178.8500  142.8760 N   0  0  0  0  0  2  0  0  0  0  0  0
  177.9910  177.4980  142.7440 C   0  0  0  0  0  1  0  0  0  0  0  0
  187.0680  176.9080  138.8290 N   0  0  0  0  0  2  0  0  0  0  0  0
  186.1150  176.4150  137.9280 N   0  0  0  0  0  2  0  0  0  0  0  0
  186.8440  175.6900  136.9050 C   0  0  0  0  0  2  0  0  0  0  0  0
  187.0820  176.5960  135.7170 C   0  0  0  0  0  1  0  0  0  0  0  0
  1  5  1  0  0  0  0
  2 11  1  0  0  0  0
  2 13  1  1  0  0  0
  3  4  1  6  0  0  0
  3 12  1  0  0  0  0
  5  2  1  0  0  0  0
  6  8  2  0  0  0  0
  7 14  1  0  0  0  0
  9 24  1  1  0  0  0
  9  7  1  0  0  0  0
  9  4  1  0  0  0  0
 10  1  2  0  0  0  0
 11 15  1  6  0  0  0
 11  6  1  0  0  0  0
 12  5  2  0  0  0  0
 12 15  1  0  0  0  0
 13  8  1  0  0  0  0
 14 10  1  0  0  0  0
 14  3  1  0  0  0  0
 16 17  1  0  0  0  0
 17 10  1  1  0  0  0
 17 18  1  0  0  0  0
 19 16  1  0  0  0  0
 19 20  1  0  0  0  0
 20 21  1  6  0  0  0
 20 18  1  0  0  0  0
 21 22  1  0  0  0  0
 23 22  1  0  0  0  0
 25 24  1  0  0  0  0
 26 25  1  0  0  0  0
 27 26  1  0  0  0  0
M  END
>  <MODEL>
5

>  <REMARK>
 VINA RESULT:      -6.1      4.470      9.212
  Name = 
  6 active torsions:
  status: ('A' for Active; 'I' for Inactive)
    1  A    between atoms: N_3  and  C_6
    2  A    between atoms: C_5  and  N_18
    3  A    between atoms: C_6  and  C_19
    4  A    between atoms: C_7  and  C_20
    5  A    between atoms: N_11  and  C_15
    6  A    between atoms: N_11  and  N_18
                            x       y       z     vdW  Elec       q    Type
                         _______ _______ _______ _____ _____    ______ ____

>  <TORSDO>
F 6

$$$$
=
 OpenBabel11042415103D

 27 31  0  0  1  0  0  0  0  0999 V2000
  188.4290  175.7830  142.0360 N   0  0  0  0  0  0  0  0  0  0  0  0
  189.2790  174.1750  140.2250 C   0  0  1  0  0  3  0  0  0  0  0  0
  189.6200  173.9330  143.8770 C   0  0  2  0  0  3  0  0  0  0  0  0
  191.1650  173.6260  144.8040 S   0  0  0  0  0  0  0  0  0  0  0  0
  189.2110  174.6720  141.5750 C   0  0  0  0  0  0  0  0  0  0  0  0
  189.4930  172.0650  139.3560 N   0  0  0  0  0  0  0  0  0  0  0  0
  189.7870  175.7970  145.3910 C   0  0  0  0  0  2  0  0  0  0  0  0
  188.3940  172.6040  138.9330 C   0  0  0  0  0  3  0  0  0  0  0  0
  190.7820  175.0520  145.8240 C   0  0  2  0  0  3  0  0  0  0  0  0
  188.3980  176.0790  143.3030 C   0  0  0  0  0  0  0  0  0  0  0  0
  190.2060  173.0220  140.1870 C   0  0  2  0  0  3  0  0  0  0  0  0
  189.8080  173.8190  142.3940 C   0  0  0  0  0  0  0  0  0  0  0  0
  188.1950  173.9320  139.5050 C   0  0  0  0  0  2  0  0  0  0  0  0
  189.1580  175.2770  144.2310 N   0  0  0  0  0  0  0  0  0  0  0  0
  190.3010  172.6030  141.6630 C   0  0  0  0  0  2  0  0  0  0  0  0
  187.2800  178.1820  142.5780 C   0  0  0  0  0  2  0  0  0  0  0  0
  187.6290  177.2860  143.7460 C   0  0  1  0  0  3  0  0  0  0  0  0
  186.3970  176.8970  144.4230 N   0  0  0  0  0  2  0  0  0  0  0  0
  185.9370  178.7410  142.9440 C   0  0  0  0  0  2  0  0  0  0  0  0
  185.3180  177.6730  143.8210 C   0  0  2  0  0  3  0  0  0  0  0  0
  184.4660  178.3020  144.9080 C   0  0  0  0  0  2  0  0  0  0  0  0
  184.8190  177.7450  146.2010 N   0  0  0  0  0  2  0  0  0  0  0  0
  185.2200  178.8590  147.0400 C   0  0  0  0  0  1  0  0  0  0  0  0
  191.5140  175.3880  147.0000 N   0  0  0  0  0  2  0  0  0  0  0  0
  192.4280  176.4490  147.0030 N   0  0  0  0  0  2  0  0  0  0  0  0
  193.6170  175.9760  146.3200 C   0  0  0  0  0  2  0  0  0  0  0  0
  194.5630  177.1360  146.0920 C   0  0  0  0  0  1  0  0  0  0  0  0
  1 10  2  0  0  0  0
  2 13  1  1  0  0  0
  2  5  1  0  0  0  0
  3 12  1  6  0  0  0
  3 14  1  0  0  0  0
  3  4  1  0  0  0  0
  4  9  1  0  0  0  0
  5  1  1  0  0  0  0
  5 12  2  0  0  0  0
  6 11  1  0  0  0  0
  7  9  1  0  0  0  0
  8  6  2  0  0  0  0
  8 13  1  0  0  0  0
  9 24  1  6  0  0  0
 10 14  1  0  0  0  0
 11  2  1  0  0  0  0
 11 15  1  1  0  0  0
 14  7  1  0  0  0  0
 15 12  1  0  0  0  0
 16 19  1  0  0  0  0
 16 17  1  0  0  0  0
 17 10  1  6  0  0  0
 17 18  1  0  0  0  0
 19 20  1  0  0  0  0
 20 18  1  0  0  0  0
 20 21  1  1  0  0  0
 21 22  1  0  0  0  0
 22 23  1  0  0  0  0
 24 25  1  0  0  0  0
 26 25  1  0  0  0  0
 27 26  1  0  0  0  0
M  END
>  <MODEL>
6

>  <REMARK>
 VINA RESULT:      -6.0      1.850      5.823
  Name = 
  6 active torsions:
  status: ('A' for Active; 'I' for Inactive)
    1  A    between atoms: N_3  and  C_6
    2  A    between atoms: C_5  and  N_18
    3  A    between atoms: C_6  and  C_19
    4  A    between atoms: C_7  and  C_20
    5  A    between atoms: N_11  and  C_15
    6  A    between atoms: N_11  and  N_18
                            x       y       z     vdW  Elec       q    Type
                         _______ _______ _______ _____ _____    ______ ____

>  <TORSDO>
F 6

$$$$
=
 OpenBabel11042415103D

 27 31  0  0  1  0  0  0  0  0999 V2000
  190.5040  174.9480  143.3380 N   0  0  0  0  0  0  0  0  0  0  0  0
  190.1700  173.5820  141.1910 C   0  0  1  0  0  3  0  0  0  0  0  0
  188.2360  176.4530  142.4290 C   0  0  2  0  0  3  0  0  0  0  0  0
  186.4180  176.5470  142.5920 S   0  0  0  0  0  0  0  0  0  0  0  0
  189.7620  174.5500  142.1760 C   0  0  0  0  0  0  0  0  0  0  0  0
  189.8650  173.4520  138.9230 N   0  0  0  0  0  0  0  0  0  0  0  0
  187.8730  176.9980  144.7450 C   0  0  0  0  0  2  0  0  0  0  0  0
  191.1310  173.4740  139.1950 C   0  0  0  0  0  3  0  0  0  0  0  0
  186.6450  177.1020  144.2830 C   0  0  2  0  0  3  0  0  0  0  0  0
  190.0520  175.8940  144.1090 C   0  0  0  0  0  0  0  0  0  0  0  0
  189.1090  173.4690  140.1650 C   0  0  2  0  0  3  0  0  0  0  0  0
  188.6870  175.1960  141.7480 C   0  0  0  0  0  0  0  0  0  0  0  0
  191.3670  173.6070  140.6280 C   0  0  0  0  0  2  0  0  0  0  0  0
  188.8000  176.5330  143.7780 N   0  0  0  0  0  0  0  0  0  0  0  0
  188.2900  174.7540  140.3690 C   0  0  0  0  0  2  0  0  0  0  0  0
  190.8250  175.0900  146.3340 C   0  0  0  0  0  2  0  0  0  0  0  0
  190.8120  176.2410  145.3520 C   0  0  1  0  0  3  0  0  0  0  0  0
  192.1890  176.6030  145.0350 N   0  0  0  0  0  2  0  0  0  0  0  0
  192.1730  175.1900  146.9860 C   0  0  0  0  0  2  0  0  0  0  0  0
  193.0470  175.8340  145.9300 C   0  0  2  0  0  3  0  0  0  0  0  0
  194.0740  176.7480  146.5720 C   0  0  0  0  0  2  0  0  0  0  0  0
  194.7880  177.4910  145.5490 N   0  0  0  0  0  2  0  0  0  0  0  0
  195.4870  176.5130  144.7350 C   0  0  0  0  0  1  0  0  0  0  0  0
  185.5780  177.5890  145.0940 N   0  0  0  0  0  2  0  0  0  0  0  0
  185.6100  178.8840  145.6270 N   0  0  0  0  0  2  0  0  0  0  0  0
  185.2070  178.7730  147.0160 C   0  0  0  0  0  2  0  0  0  0  0  0
  186.4330  178.5730  147.8820 C   0  0  0  0  0  1  0  0  0  0  0  0
  1 10  2  0  0  0  0
  2 13  1  6  0  0  0
  2  5  1  0  0  0  0
  3 12  1  1  0  0  0
  3  4  1  0  0  0  0
  3 14  1  0  0  0  0
  4  9  1  0  0  0  0
  5  1  1  0  0  0  0
  6  8  2  0  0  0  0
  6 11  1  0  0  0  0
  8 13  1  0  0  0  0
  9  7  1  0  0  0  0
  9 24  1  1  0  0  0
 11 15  1  6  0  0  0
 11  2  1  0  0  0  0
 12  5  2  0  0  0  0
 14 10  1  0  0  0  0
 14  7  1  0  0  0  0
 15 12  1  0  0  0  0
 16 19  1  0  0  0  0
 17 10  1  6  0  0  0
 17 16  1  0  0  0  0
 18 17  1  0  0  0  0
 18 20  1  0  0  0  0
 20 21  1  1  0  0  0
 20 19  1  0  0  0  0
 22 21  1  0  0  0  0
 23 22  1  0  0  0  0
 24 25  1  0  0  0  0
 25 26  1  0  0  0  0
 26 27  1  0  0  0  0
M  END
>  <MODEL>
7

>  <REMARK>
 VINA RESULT:      -6.0      1.330      1.439
  Name = 
  6 active torsions:
  status: ('A' for Active; 'I' for Inactive)
    1  A    between atoms: N_3  and  C_6
    2  A    between atoms: C_5  and  N_18
    3  A    between atoms: C_6  and  C_19
    4  A    between atoms: C_7  and  C_20
    5  A    between atoms: N_11  and  C_15
    6  A    between atoms: N_11  and  N_18
                            x       y       z     vdW  Elec       q    Type
                         _______ _______ _______ _____ _____    ______ ____

>  <TORSDO>
F 6

$$$$
=
 OpenBabel11042415103D

 27 31  0  0  1  0  0  0  0  0999 V2000
  187.7650  177.0180  144.2960 N   0  0  0  0  0  0  0  0  0  0  0  0
  186.2010  178.5490  145.6370 C   0  0  1  0  0  3  0  0  0  0  0  0
  185.6810  177.0410  142.3250 C   0  0  2  0  0  3  0  0  0  0  0  0
  185.1500  177.9110  140.8080 S   0  0  0  0  0  0  0  0  0  0  0  0
  186.6110  177.8570  144.4410 C   0  0  0  0  0  0  0  0  0  0  0  0
  184.1430  179.0350  146.5210 N   0  0  0  0  0  0  0  0  0  0  0  0
  187.4110  176.5550  140.7240 C   0  0  0  0  0  2  0  0  0  0  0  0
  184.8230  178.3180  147.3590 C   0  0  0  0  0  3  0  0  0  0  0  0
  186.5370  177.1640  139.9490 C   0  0  2  0  0  3  0  0  0  0  0  0
  187.9780  176.3880  143.1770 C   0  0  0  0  0  0  0  0  0  0  0  0
  184.9620  179.3040  145.3500 C   0  0  2  0  0  3  0  0  0  0  0  0
  185.6470  177.9240  143.5350 C   0  0  0  0  0  0  0  0  0  0  0  0
  186.1230  177.9450  146.8110 C   0  0  0  0  0  2  0  0  0  0  0  0
  187.0390  176.5460  142.0920 N   0  0  0  0  0  0  0  0  0  0  0  0
  184.4370  178.6380  144.0670 C   0  0  0  0  0  2  0  0  0  0  0  0
  190.2220  175.8810  144.1280 C   0  0  0  0  0  2  0  0  0  0  0  0
  189.2270  175.5750  143.0300 C   0  0  1  0  0  3  0  0  0  0  0  0
  188.9240  174.1480  143.0560 N   0  0  0  0  0  2  0  0  0  0  0  0
  190.8900  174.5620  144.3840 C   0  0  0  0  0  2  0  0  0  0  0  0
  189.8390  173.5370  144.0140 C   0  0  2  0  0  3  0  0  0  0  0  0
  190.4840  172.3080  143.4000 C   0  0  0  0  0  2  0  0  0  0  0  0
  190.1660  172.2330  141.9860 N   0  0  0  0  0  2  0  0  0  0  0  0
  190.9100  171.1090  141.4500 C   0  0  0  0  0  1  0  0  0  0  0  0
  186.7150  177.2430  138.5370 N   0  0  0  0  0  2  0  0  0  0  0  0
  186.8930  176.0870  137.7660 N   0  0  0  0  0  2  0  0  0  0  0  0
  186.4720  176.4170  136.4170 C   0  0  0  0  0  2  0  0  0  0  0  0
  187.6920  176.6400  135.5490 C   0  0  0  0  0  1  0  0  0  0  0  0
  1  5  1  0  0  0  0
  2 13  1  1  0  0  0
  3  4  1  6  0  0  0
  3 12  1  0  0  0  0
  5  2  1  0  0  0  0
  6  8  2  0  0  0  0
  7 14  1  0  0  0  0
  9 24  1  1  0  0  0
  9  7  1  0  0  0  0
  9  4  1  0  0  0  0
 10  1  2  0  0  0  0
 11 15  1  6  0  0  0
 11  2  1  0  0  0  0
 11  6  1  0  0  0  0
 12 15  1  0  0  0  0
 12  5  2  0  0  0  0
 13  8  1  0  0  0  0
 14  3  1  0  0  0  0
 14 10  1  0  0  0  0
 16 19  1  0  0  0  0
 17 18  1  0  0  0  0
 17 10  1  1  0  0  0
 17 16  1  0  0  0  0
 18 20  1  0  0  0  0
 20 21  1  6  0  0  0
 20 19  1  0  0  0  0
 22 21  1  0  0  0  0
 23 22  1  0  0  0  0
 25 24  1  0  0  0  0
 26 25  1  0  0  0  0
 27 26  1  0  0  0  0
M  END
>  <MODEL>
8

>  <REMARK>
 VINA RESULT:      -5.9      2.628      6.381
  Name = 
  6 active torsions:
  status: ('A' for Active; 'I' for Inactive)
    1  A    between atoms: N_3  and  C_6
    2  A    between atoms: C_5  and  N_18
    3  A    between atoms: C_6  and  C_19
    4  A    between atoms: C_7  and  C_20
    5  A    between atoms: N_11  and  C_15
    6  A    between atoms: N_11  and  N_18
                            x       y       z     vdW  Elec       q    Type
                         _______ _______ _______ _____ _____    ______ ____

>  <TORSDO>
F 6

$$$$
=
 OpenBabel11042415103D

 27 31  0  0  1  0  0  0  0  0999 V2000
  191.9310  176.1080  143.2090 N   0  0  0  0  0  0  0  0  0  0  0  0
  194.3180  176.1720  144.1520 C   0  0  1  0  0  3  0  0  0  0  0  0
  191.1380  175.7000  145.9370 C   0  0  2  0  0  3  0  0  0  0  0  0
  190.5830  176.6110  147.4200 S   0  0  0  0  0  0  0  0  0  0  0  0
  192.8830  176.1770  144.2810 C   0  0  0  0  0  0  0  0  0  0  0  0
  195.9890  175.2820  145.4420 N   0  0  0  0  0  0  0  0  0  0  0  0
  189.0220  176.6480  145.2950 C   0  0  0  0  0  2  0  0  0  0  0  0
  196.0390  174.7780  144.2500 C   0  0  0  0  0  3  0  0  0  0  0  0
  189.0360  176.9500  146.5760 C   0  0  2  0  0  3  0  0  0  0  0  0
  190.6570  176.0420  143.4700 C   0  0  0  0  0  0  0  0  0  0  0  0
  194.9180  176.2630  145.5010 C   0  0  2  0  0  3  0  0  0  0  0  0
  192.5490  176.0330  145.5550 C   0  0  0  0  0  0  0  0  0  0  0  0
  194.9580  175.2820  143.4100 C   0  0  0  0  0  2  0  0  0  0  0  0
  190.2210  176.0390  144.8470 N   0  0  0  0  0  0  0  0  0  0  0  0
  193.7600  175.8540  146.4260 C   0  0  0  0  0  2  0  0  0  0  0  0
  188.6600  174.9360  142.4790 C   0  0  0  0  0  2  0  0  0  0  0  0
  189.6830  176.0410  142.3330 C   0  0  1  0  0  3  0  0  0  0  0  0
  188.9840  177.3180  142.2460 N   0  0  0  0  0  2  0  0  0  0  0  0
  187.4060  175.5310  141.9090 C   0  0  0  0  0  2  0  0  0  0  0  0
  187.5600  177.0170  142.1490 C   0  0  2  0  0  3  0  0  0  0  0  0
  186.9420  177.8090  141.0110 C   0  0  0  0  0  2  0  0  0  0  0  0
  185.5990  178.2280  141.3680 N   0  0  0  0  0  2  0  0  0  0  0  0
  185.6520  178.6660  142.7510 C   0  0  0  0  0  1  0  0  0  0  0  0
  187.9070  177.5340  147.2210 N   0  0  0  0  0  2  0  0  0  0  0  0
  186.6220  177.0040  147.0460 N   0  0  0  0  0  2  0  0  0  0  0  0
  185.7600  178.1130  146.6800 C   0  0  0  0  0  2  0  0  0  0  0  0
  185.9350  179.2380  147.6770 C   0  0  0  0  0  1  0  0  0  0  0  0
  1 10  2  0  0  0  0
  1  5  1  0  0  0  0
  2 13  1  1  0  0  0
  2  5  1  0  0  0  0
  2 11  1  0  0  0  0
  3 12  1  6  0  0  0
  3  4  1  0  0  0  0
  5 12  2  0  0  0  0
  6 11  1  0  0  0  0
  7  9  1  0  0  0  0
  8  6  2  0  0  0  0
  9 24  1  6  0  0  0
  9  4  1  0  0  0  0
 10 14  1  0  0  0  0
 11 15  1  1  0  0  0
 12 15  1  0  0  0  0
 13  8  1  0  0  0  0
 14  7  1  0  0  0  0
 14  3  1  0  0  0  0
 17 16  1  0  0  0  0
 17 10  1  1  0  0  0
 18 17  1  0  0  0  0
 19 20  1  0  0  0  0
 19 16  1  0  0  0  0
 20 21  1  6  0  0  0
 20 18  1  0  0  0  0
 21 22  1  0  0  0  0
 22 23  1  0  0  0  0
 25 24  1  0  0  0  0
 26 25  1  0  0  0  0
 26 27  1  0  0  0  0
M  END
>  <MODEL>
9

>  <REMARK>
 VINA RESULT:      -5.8      2.634      6.039
  Name = 
  6 active torsions:
  status: ('A' for Active; 'I' for Inactive)
    1  A    between atoms: N_3  and  C_6
    2  A    between atoms: C_5  and  N_18
    3  A    between atoms: C_6  and  C_19
    4  A    between atoms: C_7  and  C_20
    5  A    between atoms: N_11  and  C_15
    6  A    between atoms: N_11  and  N_18
                            x       y       z     vdW  Elec       q    Type
                         _______ _______ _______ _____ _____    ______ ____

>  <TORSDO>
F 6

$$$$
