=
 OpenBabel11042417443D

 48 50  0  0  1  0  0  0  0  0999 V2000
  186.9150  176.8360  143.8000 C   0  0  0  0  0  0  0  0  0  0  0  0
  185.0620  177.9970  145.9720 C   0  0  0  0  0  3  0  0  0  0  0  0
  185.4830  176.7300  143.3650 C   0  0  0  0  0  2  0  0  0  0  0  0
  187.2350  177.0250  145.1040 C   0  0  0  0  0  0  0  0  0  0  0  0
  184.5560  178.5610  144.7060 C   0  0  0  0  0  3  0  0  0  0  0  0
  184.7730  178.0410  143.4980 C   0  0  0  0  0  0  0  0  0  0  0  0
  186.2100  177.3280  146.1370 C   0  0  0  0  0  3  0  0  0  0  0  0
  188.9690  177.5670  146.6280 O   0  0  0  0  0  0  0  0  0  0  0  0
  189.5710  176.0470  144.9550 N   0  0  0  0  0  2  0  0  0  0  0  0
  188.6310  176.9180  145.6000 C   0  0  0  0  0  0  0  0  0  0  0  0
  193.6630  175.5000  145.9360 C   0  0  0  0  0  0  0  0  0  0  0  0
  193.2920  176.3420  144.8830 C   0  0  0  0  0  3  0  0  0  0  0  0
  190.9500  175.8470  145.2970 C   0  0  0  0  0  0  0  0  0  0  0  0
  192.6810  174.8260  146.6660 C   0  0  0  0  0  3  0  0  0  0  0  0
  191.3310  174.9990  146.3500 C   0  0  0  0  0  3  0  0  0  0  0  0
  191.9410  176.5180  144.5660 C   0  0  0  0  0  0  0  0  0  0  0  0
  191.5910  177.3660  143.5210 O   0  0  0  0  0  1  0  0  0  0  0  0
  195.1030  175.3030  146.2620 C   0  0  0  0  0  2  0  0  0  0  0  0
  195.6040  174.0030  145.6620 C   0  0  2  0  0  3  0  0  0  0  0  0
  196.9680  173.7450  146.1460 N   0  0  0  0  0  2  0  0  0  0  0  0
  196.7420  174.2740  144.7940 C   0  0  0  0  0  2  0  0  0  0  0  0
  184.2790  178.7390  142.3870 O   0  0  0  0  0  0  0  0  0  0  0  0
  184.0370  178.2010  141.1140 C   0  0  0  0  0  0  0  0  0  0  0  0
  184.9750  177.9090  140.3270 O   0  0  0  0  0  0  0  0  0  0  0  0
  182.6340  177.9340  140.7000 C   0  0  0  0  0  2  0  0  0  0  0  0
  181.6800  178.6280  141.6490 C   0  0  0  0  0  2  0  0  0  0  0  0
  180.2930  178.0420  141.4920 C   0  0  0  0  0  2  0  0  0  0  0  0
  178.5480  178.6480  139.4980 O   0  0  0  0  0  0  0  0  0  0  0  0
  180.1000  180.6150  140.2480 O   0  0  0  0  0  1  0  0  0  0  0  0
  179.1980  179.2630  140.7150 P   0  0  0  0  0  0  0  0  0  0  0  0
  178.0010  179.7340  141.8130 O   0  0  0  0  0  1  0  0  0  0  0  0
  187.9760  176.7130  142.7330 C   0  0  1  0  0  3  0  0  0  0  0  0
  187.8950  175.4130  141.9700 C   0  0  0  0  0  0  0  0  0  0  0  0
  187.2620  174.4340  142.4550 O   0  0  0  0  0  0  0  0  0  0  0  0
  188.6160  175.2540  140.7440 N   0  0  0  0  0  2  0  0  0  0  0  0
  188.0690  174.3010  138.5770 C   0  0  0  0  0  1  0  0  0  0  0  0
  188.5900  174.0210  139.9750 C   0  0  1  0  0  3  0  0  0  0  0  0
  190.3890  172.4630  140.6900 C   0  0  0  0  0  3  0  0  0  0  0  0
  189.9710  173.4530  139.9030 C   0  0  0  0  0  3  0  0  0  0  0  0
  189.5330  171.8800  141.6720 N   0  0  0  0  0  2  0  0  0  0  0  0
  189.7920  172.0570  143.0920 C   0  0  0  0  0  2  0  0  0  0  0  0
  191.2480  171.7560  143.4090 C   0  0  0  0  0  2  0  0  0  0  0  0
  191.9520  172.9470  143.5860 O   0  0  0  0  0  0  0  0  0  0  0  0
  193.2730  172.6260  143.2790 C   0  0  0  0  0  2  0  0  0  0  0  0
  193.8780  173.7040  142.6330 O   0  0  0  0  0  0  0  0  0  0  0  0
  194.1480  173.2370  141.3460 C   0  0  0  0  0  1  0  0  0  0  0  0
  187.9580  177.9150  141.8390 C   0  0  0  0  0  3  0  0  0  0  0  0
  188.9760  178.5610  141.6460 O   0  0  0  0  0  0  0  0  0  0  0  0
  1  4  2  0  0  0  0
  2  7  2  0  0  0  0
  3  6  1  0  0  0  0
  3  1  1  0  0  0  0
  4 10  1  0  0  0  0
  4  7  1  0  0  0  0
  5  2  1  0  0  0  0
  6  5  2  0  0  0  0
  9 13  1  0  0  0  0
  9 10  1  0  0  0  0
 10  8  2  0  0  0  0
 11 18  1  0  0  0  0
 11 14  1  0  0  0  0
 12 11  2  0  0  0  0
 13 15  1  0  0  0  0
 15 14  2  0  0  0  0
 16 12  1  0  0  0  0
 16 13  2  0  0  0  0
 17 16  1  0  0  0  0
 19 20  1  0  0  0  0
 19 18  1  1  0  0  0
 21 19  1  0  0  0  0
 21 20  1  0  0  0  0
 22  6  1  0  0  0  0
 23 22  1  0  0  0  0
 24 23  2  0  0  0  0
 25 23  1  0  0  0  0
 25 26  1  0  0  0  0
 27 26  1  0  0  0  0
 28 30  2  0  0  0  0
 29 30  1  0  0  0  0
 30 27  1  0  0  0  0
 30 31  1  0  0  0  0
 32 47  1  6  0  0  0
 32  1  1  0  0  0  0
 33 34  2  0  0  0  0
 33 32  1  0  0  0  0
 35 33  1  0  0  0  0
 37 36  1  6  0  0  0
 37 35  1  0  0  0  0
 38 40  1  0  0  0  0
 39 37  1  0  0  0  0
 39 38  2  0  0  0  0
 40 41  1  0  0  0  0
 41 42  1  0  0  0  0
 42 43  1  0  0  0  0
 44 43  1  0  0  0  0
 45 44  1  0  0  0  0
 46 45  1  0  0  0  0
 48 47  2  0  0  0  0
M  END
>  <MODEL>
1

>  <REMARK>
 VINA RESULT:      -6.7      0.000      0.000
  Name = 
  21 active torsions:
  status: ('A' for Active; 'I' for Inactive)
    1  A    between atoms: C_1  and  C_19
    2  A    between atoms: C_4  and  N_37
    3  A    between atoms: C_6  and  C_35
    4  A    between atoms: C_7  and  C_12
    5  A    between atoms: C_7  and  O_26
    6  A    between atoms: C_8  and  O_31
    7  A    between atoms: C_8  and  C_33
    8  A    between atoms: C_9  and  C_23
    9  A    between atoms: C_9  and  N_24
   10  A    between atoms: C_10  and  C_35
   11  A    between atoms: O_11  and  C_18
   12  A    between atoms: C_12  and  N_14
   13  A    between atoms: C_13  and  C_19
   14  A    between atoms: N_14  and  C_22
   15  A    between atoms: C_16  and  C_35
   16  A    between atoms: C_18  and  O_26
   17  A    between atoms: C_25  and  C_28
   18  A    between atoms: C_25  and  P_34
   19  A    between atoms: C_28  and  C_33
   20  A    between atoms: O_31  and  C_43
   21  A    between atoms: C_36  and  C_42
                            x       y       z     vdW  Elec       q    Type
                         _______ _______ _______ _____ _____    ______ ____

>  <TORSDO>
F 21

$$$$
=
 OpenBabel11042417443D

 48 50  0  0  1  0  0  0  0  0999 V2000
  187.2180  177.0310  143.2100 C   0  0  0  0  0  0  0  0  0  0  0  0
  185.9400  178.6860  145.4750 C   0  0  0  0  0  3  0  0  0  0  0  0
  185.7230  176.9850  143.1010 C   0  0  0  0  0  2  0  0  0  0  0  0
  187.8200  177.3960  144.3690 C   0  0  0  0  0  0  0  0  0  0  0  0
  185.2050  179.0830  144.2590 C   0  0  0  0  0  3  0  0  0  0  0  0
  185.1290  178.3590  143.1430 C   0  0  0  0  0  0  0  0  0  0  0  0
  187.0600  177.9510  145.5190 C   0  0  0  0  0  3  0  0  0  0  0  0
  190.0320  178.2490  144.4290 O   0  0  0  0  0  0  0  0  0  0  0  0
  189.8320  175.9930  145.0140 N   0  0  0  0  0  2  0  0  0  0  0  0
  189.2820  177.2460  144.5830 C   0  0  0  0  0  0  0  0  0  0  0  0
  193.9110  175.0840  145.7520 C   0  0  0  0  0  0  0  0  0  0  0  0
  193.1470  175.7500  146.7160 C   0  0  0  0  0  3  0  0  0  0  0  0
  191.2140  175.6820  145.2450 C   0  0  0  0  0  0  0  0  0  0  0  0
  193.3320  174.7220  144.5340 C   0  0  0  0  0  3  0  0  0  0  0  0
  191.9900  175.0180  144.2810 C   0  0  0  0  0  3  0  0  0  0  0  0
  191.8030  176.0460  146.4660 C   0  0  0  0  0  0  0  0  0  0  0  0
  191.0560  176.7010  147.4380 O   0  0  0  0  0  1  0  0  0  0  0  0
  195.3460  174.7840  146.0160 C   0  0  0  0  0  2  0  0  0  0  0  0
  195.9750  174.1220  144.8050 C   0  0  2  0  0  3  0  0  0  0  0  0
  197.4050  173.9030  145.0640 N   0  0  0  0  0  2  0  0  0  0  0  0
  196.9620  175.0180  144.2170 C   0  0  0  0  0  2  0  0  0  0  0  0
  184.4460  178.9100  142.0500 O   0  0  0  0  0  0  0  0  0  0  0  0
  183.5930  178.2220  141.1750 C   0  0  0  0  0  0  0  0  0  0  0  0
  183.9970  177.7720  140.0700 O   0  0  0  0  0  0  0  0  0  0  0  0
  182.1830  177.9840  141.5810 C   0  0  0  0  0  2  0  0  0  0  0  0
  181.2540  178.3560  140.4450 C   0  0  0  0  0  2  0  0  0  0  0  0
  180.4970  179.6180  140.8020 C   0  0  0  0  0  2  0  0  0  0  0  0
  178.5830  180.4770  139.0730 O   0  0  0  0  0  0  0  0  0  0  0  0
  177.7200  179.8570  141.4630 O   0  0  0  0  0  1  0  0  0  0  0  0
  178.7880  179.4950  140.2030 P   0  0  0  0  0  0  0  0  0  0  0  0
  178.4930  177.9260  139.6440 O   0  0  0  0  0  1  0  0  0  0  0  0
  188.0170  176.6440  141.9900 C   0  0  1  0  0  3  0  0  0  0  0  0
  188.2940  175.1620  141.9140 C   0  0  0  0  0  0  0  0  0  0  0  0
  187.3840  174.3330  142.1950 O   0  0  0  0  0  0  0  0  0  0  0  0
  189.6140  174.6930  141.6190 N   0  0  0  0  0  2  0  0  0  0  0  0
  189.5710  172.6010  142.8550 C   0  0  0  0  0  1  0  0  0  0  0  0
  189.9460  173.2790  141.5500 C   0  0  1  0  0  3  0  0  0  0  0  0
  189.8070  171.9580  139.4500 C   0  0  0  0  0  3  0  0  0  0  0  0
  189.2030  172.6510  140.4150 C   0  0  0  0  0  3  0  0  0  0  0  0
  191.2220  171.7770  139.4360 N   0  0  0  0  0  2  0  0  0  0  0  0
  192.0550  172.4560  138.4560 C   0  0  0  0  0  2  0  0  0  0  0  0
  192.4710  173.8250  138.9680 C   0  0  0  0  0  2  0  0  0  0  0  0
  193.8340  173.8280  139.2630 O   0  0  0  0  0  0  0  0  0  0  0  0
  193.9450  174.6140  140.4090 C   0  0  0  0  0  2  0  0  0  0  0  0
  194.6520  175.7790  140.1100 O   0  0  0  0  0  0  0  0  0  0  0  0
  194.8950  176.3720  141.3490 C   0  0  0  0  0  1  0  0  0  0  0  0
  187.3660  177.1780  140.7500 C   0  0  0  0  0  3  0  0  0  0  0  0
  187.1740  176.4530  139.7870 O   0  0  0  0  0  0  0  0  0  0  0  0
  1  4  2  0  0  0  0
  2  7  2  0  0  0  0
  3  6  1  0  0  0  0
  3  1  1  0  0  0  0
  4 10  1  0  0  0  0
  4  7  1  0  0  0  0
  5  2  1  0  0  0  0
  6  5  2  0  0  0  0
  8 10  2  0  0  0  0
  9 13  1  0  0  0  0
 10  9  1  0  0  0  0
 11 18  1  0  0  0  0
 11 12  1  0  0  0  0
 13 16  1  0  0  0  0
 14 11  2  0  0  0  0
 15 14  1  0  0  0  0
 15 13  2  0  0  0  0
 16 12  2  0  0  0  0
 16 17  1  0  0  0  0
 19 20  1  0  0  0  0
 19 18  1  1  0  0  0
 21 19  1  0  0  0  0
 21 20  1  0  0  0  0
 22  6  1  0  0  0  0
 23 25  1  0  0  0  0
 23 22  1  0  0  0  0
 24 23  2  0  0  0  0
 26 27  1  0  0  0  0
 26 25  1  0  0  0  0
 28 30  2  0  0  0  0
 30 27  1  0  0  0  0
 30 29  1  0  0  0  0
 31 30  1  0  0  0  0
 32 47  1  6  0  0  0
 32  1  1  0  0  0  0
 33 32  1  0  0  0  0
 33 34  2  0  0  0  0
 35 33  1  0  0  0  0
 37 35  1  0  0  0  0
 37 36  1  1  0  0  0
 38 39  2  0  0  0  0
 39 37  1  0  0  0  0
 40 38  1  0  0  0  0
 41 42  1  0  0  0  0
 41 40  1  0  0  0  0
 42 43  1  0  0  0  0
 43 44  1  0  0  0  0
 45 44  1  0  0  0  0
 45 46  1  0  0  0  0
 48 47  2  0  0  0  0
M  END
>  <MODEL>
2

>  <REMARK>
 VINA RESULT:      -6.1      1.577      2.254
  Name = 
  21 active torsions:
  status: ('A' for Active; 'I' for Inactive)
    1  A    between atoms: C_1  and  C_19
    2  A    between atoms: C_4  and  N_37
    3  A    between atoms: C_6  and  C_35
    4  A    between atoms: C_7  and  C_12
    5  A    between atoms: C_7  and  O_26
    6  A    between atoms: C_8  and  O_31
    7  A    between atoms: C_8  and  C_33
    8  A    between atoms: C_9  and  C_23
    9  A    between atoms: C_9  and  N_24
   10  A    between atoms: C_10  and  C_35
   11  A    between atoms: O_11  and  C_18
   12  A    between atoms: C_12  and  N_14
   13  A    between atoms: C_13  and  C_19
   14  A    between atoms: N_14  and  C_22
   15  A    between atoms: C_16  and  C_35
   16  A    between atoms: C_18  and  O_26
   17  A    between atoms: C_25  and  C_28
   18  A    between atoms: C_25  and  P_34
   19  A    between atoms: C_28  and  C_33
   20  A    between atoms: O_31  and  C_43
   21  A    between atoms: C_36  and  C_42
                            x       y       z     vdW  Elec       q    Type
                         _______ _______ _______ _____ _____    ______ ____

>  <TORSDO>
F 21

$$$$
=
 OpenBabel11042417443D

 48 50  0  0  1  0  0  0  0  0999 V2000
  187.3620  176.6100  142.9680 C   0  0  0  0  0  0  0  0  0  0  0  0
  186.1990  178.2930  145.2740 C   0  0  0  0  0  3  0  0  0  0  0  0
  185.8820  176.3870  143.0730 C   0  0  0  0  0  2  0  0  0  0  0  0
  188.0610  177.1360  144.0040 C   0  0  0  0  0  0  0  0  0  0  0  0
  185.2670  178.5030  144.1490 C   0  0  0  0  0  3  0  0  0  0  0  0
  185.1350  177.6840  143.1050 C   0  0  0  0  0  0  0  0  0  0  0  0
  187.3960  177.6950  145.2100 C   0  0  0  0  0  3  0  0  0  0  0  0
  190.1400  178.2530  143.7670 O   0  0  0  0  0  0  0  0  0  0  0  0
  190.2990  176.0000  144.3760 N   0  0  0  0  0  2  0  0  0  0  0  0
  189.5460  177.1690  144.0210 C   0  0  0  0  0  0  0  0  0  0  0  0
  194.5180  175.5900  144.5650 C   0  0  0  0  0  0  0  0  0  0  0  0
  193.7690  175.7590  145.7330 C   0  0  0  0  0  3  0  0  0  0  0  0
  191.7260  175.8640  144.4210 C   0  0  0  0  0  0  0  0  0  0  0  0
  193.8760  175.5630  143.3240 C   0  0  0  0  0  3  0  0  0  0  0  0
  192.4870  175.6980  143.2520 C   0  0  0  0  0  3  0  0  0  0  0  0
  192.3780  175.8930  145.6630 C   0  0  0  0  0  0  0  0  0  0  0  0
  191.6490  176.0530  146.8360 O   0  0  0  0  0  1  0  0  0  0  0  0
  196.0000  175.4620  144.6410 C   0  0  0  0  0  2  0  0  0  0  0  0
  196.5540  174.9740  143.3160 C   0  0  2  0  0  3  0  0  0  0  0  0
  197.9410  174.5260  143.5100 N   0  0  0  0  0  2  0  0  0  0  0  0
  197.6550  175.8330  142.9020 C   0  0  0  0  0  2  0  0  0  0  0  0
  184.2520  178.0630  142.0840 O   0  0  0  0  0  0  0  0  0  0  0  0
  182.9540  178.5650  142.2570 C   0  0  0  0  0  0  0  0  0  0  0  0
  182.5770  179.0690  143.3490 O   0  0  0  0  0  0  0  0  0  0  0  0
  182.0100  178.5350  141.1090 C   0  0  0  0  0  2  0  0  0  0  0  0
  180.7110  177.8820  141.5330 C   0  0  0  0  0  2  0  0  0  0  0  0
  179.7130  178.9500  141.9290 C   0  0  0  0  0  2  0  0  0  0  0  0
  177.6980  180.3570  140.7680 O   0  0  0  0  0  1  0  0  0  0  0  0
  178.8280  178.5690  139.2310 O   0  0  0  0  0  0  0  0  0  0  0  0
  179.0340  179.7330  140.4400 P   0  0  0  0  0  0  0  0  0  0  0  0
  180.0940  180.9330  139.8940 O   0  0  0  0  0  1  0  0  0  0  0  0
  188.0350  176.2150  141.6770 C   0  0  1  0  0  3  0  0  0  0  0  0
  188.3890  174.7490  141.6220 C   0  0  0  0  0  0  0  0  0  0  0  0
  187.6260  173.8940  142.1530 O   0  0  0  0  0  0  0  0  0  0  0  0
  189.6360  174.3320  141.0560 N   0  0  0  0  0  2  0  0  0  0  0  0
  189.3790  172.2680  139.7990 C   0  0  0  0  0  1  0  0  0  0  0  0
  190.0390  172.9360  140.9910 C   0  0  1  0  0  3  0  0  0  0  0  0
  192.2930  172.2100  141.7430 C   0  0  0  0  0  3  0  0  0  0  0  0
  191.5260  172.8560  140.8660 C   0  0  0  0  0  3  0  0  0  0  0  0
  191.7340  171.5530  142.8800 N   0  0  0  0  0  2  0  0  0  0  0  0
  191.7590  172.1750  144.1940 C   0  0  0  0  0  2  0  0  0  0  0  0
  193.1640  172.1370  144.7740 C   0  0  0  0  0  2  0  0  0  0  0  0
  193.6000  170.8160  144.8790 O   0  0  0  0  0  0  0  0  0  0  0  0
  194.6960  170.8730  145.7360 C   0  0  0  0  0  2  0  0  0  0  0  0
  195.6140  171.8110  145.2620 O   0  0  0  0  0  0  0  0  0  0  0  0
  196.8450  171.1560  145.3110 C   0  0  0  0  0  1  0  0  0  0  0  0
  187.2150  176.6600  140.5040 C   0  0  0  0  0  3  0  0  0  0  0  0
  187.1280  177.8430  140.2200 O   0  0  0  0  0  0  0  0  0  0  0  0
  1  3  1  0  0  0  0
  1  4  2  0  0  0  0
  3  6  1  0  0  0  0
  4 10  1  0  0  0  0
  4  7  1  0  0  0  0
  5  2  1  0  0  0  0
  6  5  2  0  0  0  0
  7  2  2  0  0  0  0
  8 10  2  0  0  0  0
  9 13  1  0  0  0  0
 10  9  1  0  0  0  0
 11 18  1  0  0  0  0
 11 12  1  0  0  0  0
 13 16  1  0  0  0  0
 14 11  2  0  0  0  0
 15 14  1  0  0  0  0
 15 13  2  0  0  0  0
 16 12  2  0  0  0  0
 16 17  1  0  0  0  0
 19 20  1  0  0  0  0
 19 18  1  1  0  0  0
 21 19  1  0  0  0  0
 21 20  1  0  0  0  0
 22 23  1  0  0  0  0
 22  6  1  0  0  0  0
 23 24  2  0  0  0  0
 25 26  1  0  0  0  0
 25 23  1  0  0  0  0
 26 27  1  0  0  0  0
 29 30  2  0  0  0  0
 30 28  1  0  0  0  0
 30 27  1  0  0  0  0
 31 30  1  0  0  0  0
 32 47  1  6  0  0  0
 32  1  1  0  0  0  0
 33 32  1  0  0  0  0
 33 34  2  0  0  0  0
 35 33  1  0  0  0  0
 37 36  1  6  0  0  0
 37 35  1  0  0  0  0
 38 40  1  0  0  0  0
 39 37  1  0  0  0  0
 39 38  2  0  0  0  0
 40 41  1  0  0  0  0
 41 42  1  0  0  0  0
 42 43  1  0  0  0  0
 43 44  1  0  0  0  0
 45 46  1  0  0  0  0
 45 44  1  0  0  0  0
 48 47  2  0  0  0  0
M  END
>  <MODEL>
3

>  <REMARK>
 VINA RESULT:      -5.7      1.685      2.289
  Name = 
  21 active torsions:
  status: ('A' for Active; 'I' for Inactive)
    1  A    between atoms: C_1  and  C_19
    2  A    between atoms: C_4  and  N_37
    3  A    between atoms: C_6  and  C_35
    4  A    between atoms: C_7  and  C_12
    5  A    between atoms: C_7  and  O_26
    6  A    between atoms: C_8  and  O_31
    7  A    between atoms: C_8  and  C_33
    8  A    between atoms: C_9  and  C_23
    9  A    between atoms: C_9  and  N_24
   10  A    between atoms: C_10  and  C_35
   11  A    between atoms: O_11  and  C_18
   12  A    between atoms: C_12  and  N_14
   13  A    between atoms: C_13  and  C_19
   14  A    between atoms: N_14  and  C_22
   15  A    between atoms: C_16  and  C_35
   16  A    between atoms: C_18  and  O_26
   17  A    between atoms: C_25  and  C_28
   18  A    between atoms: C_25  and  P_34
   19  A    between atoms: C_28  and  C_33
   20  A    between atoms: O_31  and  C_43
   21  A    between atoms: C_36  and  C_42
                            x       y       z     vdW  Elec       q    Type
                         _______ _______ _______ _____ _____    ______ ____

>  <TORSDO>
F 21

$$$$
=
 OpenBabel11042417443D

 48 50  0  0  1  0  0  0  0  0999 V2000
  190.0510  173.2620  140.1760 C   0  0  0  0  0  0  0  0  0  0  0  0
  188.8720  174.1330  137.4650 C   0  0  0  0  0  3  0  0  0  0  0  0
  190.6130  172.4130  139.0740 C   0  0  0  0  0  2  0  0  0  0  0  0
  188.9140  173.9770  139.9940 C   0  0  0  0  0  0  0  0  0  0  0  0
  190.3190  173.9840  137.2150 C   0  0  0  0  0  3  0  0  0  0  0  0
  191.1500  173.2530  137.9570 C   0  0  0  0  0  0  0  0  0  0  0  0
  188.2700  174.1190  138.6610 C   0  0  0  0  0  3  0  0  0  0  0  0
  187.5830  173.9510  141.9570 O   0  0  0  0  0  0  0  0  0  0  0  0
  188.2950  176.0740  141.2790 N   0  0  0  0  0  2  0  0  0  0  0  0
  188.2130  174.6500  141.1170 C   0  0  0  0  0  0  0  0  0  0  0  0
  186.3860  178.4350  144.2430 C   0  0  0  0  0  0  0  0  0  0  0  0
  185.8120  178.2860  142.9770 C   0  0  0  0  0  3  0  0  0  0  0  0
  187.6650  176.8720  142.2920 C   0  0  0  0  0  0  0  0  0  0  0  0
  187.6010  177.8100  144.5340 C   0  0  0  0  0  3  0  0  0  0  0  0
  188.2370  177.0310  143.5640 C   0  0  0  0  0  3  0  0  0  0  0  0
  186.4460  177.5050  142.0050 C   0  0  0  0  0  0  0  0  0  0  0  0
  185.8580  177.3620  140.7540 O   0  0  0  0  0  1  0  0  0  0  0  0
  185.7150  179.2790  145.2710 C   0  0  0  0  0  2  0  0  0  0  0  0
  184.4310  178.6200  145.7360 C   0  0  2  0  0  3  0  0  0  0  0  0
  184.4170  178.5730  147.2050 N   0  0  0  0  0  2  0  0  0  0  0  0
  184.7420  177.3730  146.4210 C   0  0  0  0  0  2  0  0  0  0  0  0
  192.5120  173.2700  137.6250 O   0  0  0  0  0  0  0  0  0  0  0  0
  193.2250  172.2350  137.0040 C   0  0  0  0  0  0  0  0  0  0  0  0
  192.9040  171.7960  135.8680 O   0  0  0  0  0  0  0  0  0  0  0  0
  194.4150  171.6660  137.6900 C   0  0  0  0  0  2  0  0  0  0  0  0
  194.6130  172.3550  139.0240 C   0  0  0  0  0  2  0  0  0  0  0  0
  195.9860  172.9920  139.0660 C   0  0  0  0  0  2  0  0  0  0  0  0
  194.6060  175.3330  139.0820 O   0  0  0  0  0  0  0  0  0  0  0  0
  197.2080  175.5810  139.1780 O   0  0  0  0  0  1  0  0  0  0  0  0
  195.8480  174.7000  139.6630 P   0  0  0  0  0  0  0  0  0  0  0  0
  195.7440  174.7060  141.3510 O   0  0  0  0  0  1  0  0  0  0  0  0
  190.7940  173.2760  141.4900 C   0  0  1  0  0  3  0  0  0  0  0  0
  190.8020  171.9310  142.1750 C   0  0  0  0  0  0  0  0  0  0  0  0
  189.9760  171.6870  143.0990 O   0  0  0  0  0  0  0  0  0  0  0  0
  191.8070  170.9650  141.8500 N   0  0  0  0  0  2  0  0  0  0  0  0
  191.0310  168.6670  141.7140 C   0  0  0  0  0  1  0  0  0  0  0  0
  191.8770  169.6610  142.4880 C   0  0  1  0  0  3  0  0  0  0  0  0
  194.0760  169.3470  143.5990 C   0  0  0  0  0  3  0  0  0  0  0  0
  193.2990  169.2030  142.5280 C   0  0  0  0  0  3  0  0  0  0  0  0
  193.5950  169.9640  144.7930 N   0  0  0  0  0  2  0  0  0  0  0  0
  194.2620  171.1250  145.3580 C   0  0  0  0  0  2  0  0  0  0  0  0
  193.6220  172.4070  144.8490 C   0  0  0  0  0  2  0  0  0  0  0  0
  194.0300  173.4860  145.6330 O   0  0  0  0  0  0  0  0  0  0  0  0
  192.9870  174.4050  145.5390 C   0  0  0  0  0  2  0  0  0  0  0  0
  191.8130  173.7450  145.1750 O   0  0  0  0  0  0  0  0  0  0  0  0
  190.9040  174.7670  144.9040 C   0  0  0  0  0  1  0  0  0  0  0  0
  192.1680  173.8430  141.3060 C   0  0  0  0  0  3  0  0  0  0  0  0
  192.3960  175.0150  141.5620 O   0  0  0  0  0  0  0  0  0  0  0  0
  1 32  1  0  0  0  0
  2  7  2  0  0  0  0
  3  1  1  0  0  0  0
  4  1  2  0  0  0  0
  4 10  1  0  0  0  0
  5  2  1  0  0  0  0
  5  6  2  0  0  0  0
  6  3  1  0  0  0  0
  7  4  1  0  0  0  0
  9 13  1  0  0  0  0
 10  9  1  0  0  0  0
 10  8  2  0  0  0  0
 11 14  1  0  0  0  0
 11 18  1  0  0  0  0
 12 11  2  0  0  0  0
 13 15  1  0  0  0  0
 15 14  2  0  0  0  0
 16 13  2  0  0  0  0
 16 12  1  0  0  0  0
 17 16  1  0  0  0  0
 19 18  1  1  0  0  0
 19 21  1  0  0  0  0
 19 20  1  0  0  0  0
 21 20  1  0  0  0  0
 22  6  1  0  0  0  0
 23 22  1  0  0  0  0
 23 25  1  0  0  0  0
 24 23  2  0  0  0  0
 25 26  1  0  0  0  0
 26 27  1  0  0  0  0
 27 30  1  0  0  0  0
 28 30  2  0  0  0  0
 29 30  1  0  0  0  0
 30 31  1  0  0  0  0
 32 47  1  6  0  0  0
 32 33  1  0  0  0  0
 33 34  2  0  0  0  0
 35 33  1  0  0  0  0
 35 37  1  0  0  0  0
 37 36  1  6  0  0  0
 37 39  1  0  0  0  0
 38 40  1  0  0  0  0
 39 38  2  0  0  0  0
 40 41  1  0  0  0  0
 42 41  1  0  0  0  0
 42 43  1  0  0  0  0
 44 43  1  0  0  0  0
 45 44  1  0  0  0  0
 46 45  1  0  0  0  0
 47 48  2  0  0  0  0
M  END
>  <MODEL>
4

>  <REMARK>
 VINA RESULT:      -5.7      3.890      9.320
  Name = 
  21 active torsions:
  status: ('A' for Active; 'I' for Inactive)
    1  A    between atoms: C_1  and  C_19
    2  A    between atoms: C_4  and  N_37
    3  A    between atoms: C_6  and  C_35
    4  A    between atoms: C_7  and  C_12
    5  A    between atoms: C_7  and  O_26
    6  A    between atoms: C_8  and  O_31
    7  A    between atoms: C_8  and  C_33
    8  A    between atoms: C_9  and  C_23
    9  A    between atoms: C_9  and  N_24
   10  A    between atoms: C_10  and  C_35
   11  A    between atoms: O_11  and  C_18
   12  A    between atoms: C_12  and  N_14
   13  A    between atoms: C_13  and  C_19
   14  A    between atoms: N_14  and  C_22
   15  A    between atoms: C_16  and  C_35
   16  A    between atoms: C_18  and  O_26
   17  A    between atoms: C_25  and  C_28
   18  A    between atoms: C_25  and  P_34
   19  A    between atoms: C_28  and  C_33
   20  A    between atoms: O_31  and  C_43
   21  A    between atoms: C_36  and  C_42
                            x       y       z     vdW  Elec       q    Type
                         _______ _______ _______ _____ _____    ______ ____

>  <TORSDO>
F 21

$$$$
=
 OpenBabel11042417443D

 48 50  0  0  1  0  0  0  0  0999 V2000
  190.3970  173.1850  140.1080 C   0  0  0  0  0  0  0  0  0  0  0  0
  189.0380  173.5530  137.3650 C   0  0  0  0  0  3  0  0  0  0  0  0
  191.1490  172.4260  139.0540 C   0  0  0  0  0  2  0  0  0  0  0  0
  189.1190  173.5850  139.8980 C   0  0  0  0  0  0  0  0  0  0  0  0
  190.4770  173.7460  137.1000 C   0  0  0  0  0  3  0  0  0  0  0  0
  191.4630  173.2930  137.8750 C   0  0  0  0  0  0  0  0  0  0  0  0
  188.4590  173.4740  138.5710 C   0  0  0  0  0  3  0  0  0  0  0  0
  187.6210  173.3540  141.7210 O   0  0  0  0  0  0  0  0  0  0  0  0
  188.2450  175.5550  141.2360 N   0  0  0  0  0  2  0  0  0  0  0  0
  188.2750  174.1420  140.9860 C   0  0  0  0  0  0  0  0  0  0  0  0
  186.0070  177.5980  144.2060 C   0  0  0  0  0  0  0  0  0  0  0  0
  187.1870  176.9280  144.5430 C   0  0  0  0  0  3  0  0  0  0  0  0
  187.4740  176.2470  142.2280 C   0  0  0  0  0  0  0  0  0  0  0  0
  185.5550  177.5890  142.8840 C   0  0  0  0  0  3  0  0  0  0  0  0
  186.2850  176.9180  141.8990 C   0  0  0  0  0  3  0  0  0  0  0  0
  187.9200  176.2570  143.5590 C   0  0  0  0  0  0  0  0  0  0  0  0
  189.0950  175.6030  143.9100 O   0  0  0  0  0  1  0  0  0  0  0  0
  185.2200  178.2990  145.2590 C   0  0  0  0  0  2  0  0  0  0  0  0
  185.4820  177.6730  146.6150 C   0  0  2  0  0  3  0  0  0  0  0  0
  184.6180  178.3150  147.6170 N   0  0  0  0  0  2  0  0  0  0  0  0
  186.0390  178.6750  147.5150 C   0  0  0  0  0  2  0  0  0  0  0  0
  192.7790  173.6210  137.5180 O   0  0  0  0  0  0  0  0  0  0  0  0
  193.8820  172.7560  137.5440 C   0  0  0  0  0  0  0  0  0  0  0  0
  193.8810  171.6590  136.9240 O   0  0  0  0  0  0  0  0  0  0  0  0
  195.1010  173.1640  138.2920 C   0  0  0  0  0  2  0  0  0  0  0  0
  195.0010  174.6260  138.6730 C   0  0  0  0  0  2  0  0  0  0  0  0
  196.3780  175.1560  139.0110 C   0  0  0  0  0  2  0  0  0  0  0  0
  197.9400  175.6940  141.1690 O   0  0  0  0  0  0  0  0  0  0  0  0
  195.9120  174.1120  141.6380 O   0  0  0  0  0  1  0  0  0  0  0  0
  196.4950  175.4580  140.7970 P   0  0  0  0  0  0  0  0  0  0  0  0
  195.5810  176.8200  141.2050 O   0  0  0  0  0  1  0  0  0  0  0  0
  191.1150  173.4700  141.4040 C   0  0  1  0  0  3  0  0  0  0  0  0
  191.2780  172.2430  142.2680 C   0  0  0  0  0  0  0  0  0  0  0  0
  190.3350  171.8680  143.0180 O   0  0  0  0  0  0  0  0  0  0  0  0
  192.5350  171.5600  142.3140 N   0  0  0  0  0  2  0  0  0  0  0  0
  192.4710  169.1310  142.3330 C   0  0  0  0  0  1  0  0  0  0  0  0
  192.7580  170.3840  143.1400 C   0  0  1  0  0  3  0  0  0  0  0  0
  194.6040  171.1260  144.6280 C   0  0  0  0  0  3  0  0  0  0  0  0
  194.1740  170.3740  143.6160 C   0  0  0  0  0  3  0  0  0  0  0  0
  193.7260  172.0080  145.3260 N   0  0  0  0  0  2  0  0  0  0  0  0
  193.8110  173.4480  145.1460 C   0  0  0  0  0  2  0  0  0  0  0  0
  192.4560  174.0960  145.3840 C   0  0  0  0  0  2  0  0  0  0  0  0
  192.3410  175.2540  144.6150 O   0  0  0  0  0  0  0  0  0  0  0  0
  192.5070  176.2980  145.5230 C   0  0  0  0  0  2  0  0  0  0  0  0
  193.5700  177.1060  145.1190 O   0  0  0  0  0  0  0  0  0  0  0  0
  194.4750  177.0540  146.1800 C   0  0  0  0  0  1  0  0  0  0  0  0
  192.4120  174.1720  141.1390 C   0  0  0  0  0  3  0  0  0  0  0  0
  192.5870  175.3190  141.5190 O   0  0  0  0  0  0  0  0  0  0  0  0
  1 32  1  0  0  0  0
  2  7  2  0  0  0  0
  3  1  1  0  0  0  0
  4  1  2  0  0  0  0
  4 10  1  0  0  0  0
  5  2  1  0  0  0  0
  5  6  2  0  0  0  0
  6  3  1  0  0  0  0
  7  4  1  0  0  0  0
  9 13  1  0  0  0  0
 10  9  1  0  0  0  0
 10  8  2  0  0  0  0
 11 12  1  0  0  0  0
 11 18  1  0  0  0  0
 13 16  1  0  0  0  0
 14 11  2  0  0  0  0
 15 13  2  0  0  0  0
 15 14  1  0  0  0  0
 16 17  1  0  0  0  0
 16 12  2  0  0  0  0
 19 18  1  6  0  0  0
 19 21  1  0  0  0  0
 19 20  1  0  0  0  0
 21 20  1  0  0  0  0
 22 23  1  0  0  0  0
 22  6  1  0  0  0  0
 23 25  1  0  0  0  0
 24 23  2  0  0  0  0
 25 26  1  0  0  0  0
 26 27  1  0  0  0  0
 27 30  1  0  0  0  0
 30 28  2  0  0  0  0
 30 31  1  0  0  0  0
 30 29  1  0  0  0  0
 32 47  1  6  0  0  0
 32 33  1  0  0  0  0
 33 35  1  0  0  0  0
 33 34  2  0  0  0  0
 35 37  1  0  0  0  0
 37 36  1  6  0  0  0
 37 39  1  0  0  0  0
 38 40  1  0  0  0  0
 39 38  2  0  0  0  0
 41 40  1  0  0  0  0
 41 42  1  0  0  0  0
 43 42  1  0  0  0  0
 43 44  1  0  0  0  0
 45 44  1  0  0  0  0
 45 46  1  0  0  0  0
 47 48  2  0  0  0  0
M  END
>  <MODEL>
5

>  <REMARK>
 VINA RESULT:      -5.6      4.439      9.457
  Name = 
  21 active torsions:
  status: ('A' for Active; 'I' for Inactive)
    1  A    between atoms: C_1  and  C_19
    2  A    between atoms: C_4  and  N_37
    3  A    between atoms: C_6  and  C_35
    4  A    between atoms: C_7  and  C_12
    5  A    between atoms: C_7  and  O_26
    6  A    between atoms: C_8  and  O_31
    7  A    between atoms: C_8  and  C_33
    8  A    between atoms: C_9  and  C_23
    9  A    between atoms: C_9  and  N_24
   10  A    between atoms: C_10  and  C_35
   11  A    between atoms: O_11  and  C_18
   12  A    between atoms: C_12  and  N_14
   13  A    between atoms: C_13  and  C_19
   14  A    between atoms: N_14  and  C_22
   15  A    between atoms: C_16  and  C_35
   16  A    between atoms: C_18  and  O_26
   17  A    between atoms: C_25  and  C_28
   18  A    between atoms: C_25  and  P_34
   19  A    between atoms: C_28  and  C_33
   20  A    between atoms: O_31  and  C_43
   21  A    between atoms: C_36  and  C_42
                            x       y       z     vdW  Elec       q    Type
                         _______ _______ _______ _____ _____    ______ ____

>  <TORSDO>
F 21

$$$$
=
 OpenBabel11042417443D

 48 50  0  0  1  0  0  0  0  0999 V2000
  190.1530  175.4710  142.7770 C   0  0  0  0  0  0  0  0  0  0  0  0
  191.0250  178.3060  143.6180 C   0  0  0  0  0  3  0  0  0  0  0  0
  191.6490  175.5490  142.8510 C   0  0  0  0  0  2  0  0  0  0  0  0
  189.4010  176.5960  142.6900 C   0  0  0  0  0  0  0  0  0  0  0  0
  191.8430  177.4000  144.4470 C   0  0  0  0  0  3  0  0  0  0  0  0
  192.1030  176.1260  144.1560 C   0  0  0  0  0  0  0  0  0  0  0  0
  189.9820  177.9550  142.8550 C   0  0  0  0  0  3  0  0  0  0  0  0
  187.3270  175.4610  142.5060 O   0  0  0  0  0  0  0  0  0  0  0  0
  187.2360  177.7530  142.0520 N   0  0  0  0  0  2  0  0  0  0  0  0
  187.9450  176.5550  142.3980 C   0  0  0  0  0  0  0  0  0  0  0  0
  183.1100  178.1380  141.1390 C   0  0  0  0  0  0  0  0  0  0  0  0
  183.5450  178.1370  142.4670 C   0  0  0  0  0  3  0  0  0  0  0  0
  185.8440  177.8780  141.7250 C   0  0  0  0  0  0  0  0  0  0  0  0
  184.0370  178.0020  140.1020 C   0  0  0  0  0  3  0  0  0  0  0  0
  185.3980  177.8740  140.3940 C   0  0  0  0  0  3  0  0  0  0  0  0
  184.9070  178.0110  142.7610 C   0  0  0  0  0  0  0  0  0  0  0  0
  185.3230  178.0210  144.0870 O   0  0  0  0  0  1  0  0  0  0  0  0
  181.6580  178.2580  140.8290 C   0  0  0  0  0  2  0  0  0  0  0  0
  180.9790  179.1640  141.8380 C   0  0  2  0  0  3  0  0  0  0  0  0
  179.6340  178.6440  142.1240 N   0  0  0  0  0  2  0  0  0  0  0  0
  179.8160  179.7920  141.2240 C   0  0  0  0  0  2  0  0  0  0  0  0
  192.8410  175.3790  145.0860 O   0  0  0  0  0  0  0  0  0  0  0  0
  194.2330  175.2090  145.0900 C   0  0  0  0  0  0  0  0  0  0  0  0
  195.0220  176.1870  144.9950 O   0  0  0  0  0  0  0  0  0  0  0  0
  194.7920  173.8410  145.2500 C   0  0  0  0  0  2  0  0  0  0  0  0
  193.6920  172.8160  145.0720 C   0  0  0  0  0  2  0  0  0  0  0  0
  194.1650  171.4710  145.5810 C   0  0  0  0  0  2  0  0  0  0  0  0
  195.4780  169.7960  143.8910 O   0  0  0  0  0  1  0  0  0  0  0  0
  193.3530  170.9430  142.8850 O   0  0  0  0  0  0  0  0  0  0  0  0
  194.0800  170.2470  144.2450 P   0  0  0  0  0  0  0  0  0  0  0  0
  193.1710  168.9130  144.7510 O   0  0  0  0  0  1  0  0  0  0  0  0
  189.5260  174.0980  142.7920 C   0  0  1  0  0  3  0  0  0  0  0  0
  189.8880  173.2740  141.5800 C   0  0  0  0  0  0  0  0  0  0  0  0
  190.4920  172.1740  141.7210 O   0  0  0  0  0  0  0  0  0  0  0  0
  189.6350  173.7810  140.2660 N   0  0  0  0  0  2  0  0  0  0  0  0
  188.7180  172.7460  138.2680 C   0  0  0  0  0  1  0  0  0  0  0  0
  189.9770  173.0410  139.0620 C   0  0  1  0  0  3  0  0  0  0  0  0
  192.2490  173.7390  138.3390 C   0  0  0  0  0  3  0  0  0  0  0  0
  190.9260  173.8480  138.2360 C   0  0  0  0  0  3  0  0  0  0  0  0
  192.8530  172.8360  139.2650 N   0  0  0  0  0  2  0  0  0  0  0  0
  193.4390  171.5830  138.8160 C   0  0  0  0  0  2  0  0  0  0  0  0
  192.7430  170.4040  139.4760 C   0  0  0  0  0  2  0  0  0  0  0  0
  191.5650  170.1030  138.7920 O   0  0  0  0  0  0  0  0  0  0  0  0
  190.9120  169.1770  139.6030 C   0  0  0  0  0  2  0  0  0  0  0  0
  191.7020  168.8910  140.7170 O   0  0  0  0  0  0  0  0  0  0  0  0
  190.7970  168.4790  141.6950 C   0  0  0  0  0  1  0  0  0  0  0  0
  189.8300  173.4000  144.0830 C   0  0  0  0  0  3  0  0  0  0  0  0
  189.5510  173.9200  145.1510 O   0  0  0  0  0  0  0  0  0  0  0  0
  1 32  1  0  0  0  0
  1  3  1  0  0  0  0
  2  5  1  0  0  0  0
  3  6  1  0  0  0  0
  4  1  2  0  0  0  0
  4  7  1  0  0  0  0
  6  5  2  0  0  0  0
  6 22  1  0  0  0  0
  7  2  2  0  0  0  0
  9 10  1  0  0  0  0
 10  8  2  0  0  0  0
 10  4  1  0  0  0  0
 11 12  1  0  0  0  0
 12 16  2  0  0  0  0
 13  9  1  0  0  0  0
 13 16  1  0  0  0  0
 14 15  1  0  0  0  0
 14 11  2  0  0  0  0
 15 13  2  0  0  0  0
 16 17  1  0  0  0  0
 18 11  1  0  0  0  0
 19 18  1  6  0  0  0
 19 20  1  0  0  0  0
 21 19  1  0  0  0  0
 21 20  1  0  0  0  0
 22 23  1  0  0  0  0
 23 25  1  0  0  0  0
 24 23  2  0  0  0  0
 26 25  1  0  0  0  0
 26 27  1  0  0  0  0
 28 30  1  0  0  0  0
 29 30  2  0  0  0  0
 30 31  1  0  0  0  0
 30 27  1  0  0  0  0
 32 47  1  1  0  0  0
 33 34  2  0  0  0  0
 33 32  1  0  0  0  0
 35 33  1  0  0  0  0
 37 36  1  6  0  0  0
 37 35  1  0  0  0  0
 38 40  1  0  0  0  0
 39 38  2  0  0  0  0
 39 37  1  0  0  0  0
 41 40  1  0  0  0  0
 41 42  1  0  0  0  0
 43 42  1  0  0  0  0
 43 44  1  0  0  0  0
 44 45  1  0  0  0  0
 45 46  1  0  0  0  0
 47 48  2  0  0  0  0
M  END
>  <MODEL>
6

>  <REMARK>
 VINA RESULT:      -5.4      4.003      9.845
  Name = 
  21 active torsions:
  status: ('A' for Active; 'I' for Inactive)
    1  A    between atoms: C_1  and  C_19
    2  A    between atoms: C_4  and  N_37
    3  A    between atoms: C_6  and  C_35
    4  A    between atoms: C_7  and  C_12
    5  A    between atoms: C_7  and  O_26
    6  A    between atoms: C_8  and  O_31
    7  A    between atoms: C_8  and  C_33
    8  A    between atoms: C_9  and  C_23
    9  A    between atoms: C_9  and  N_24
   10  A    between atoms: C_10  and  C_35
   11  A    between atoms: O_11  and  C_18
   12  A    between atoms: C_12  and  N_14
   13  A    between atoms: C_13  and  C_19
   14  A    between atoms: N_14  and  C_22
   15  A    between atoms: C_16  and  C_35
   16  A    between atoms: C_18  and  O_26
   17  A    between atoms: C_25  and  C_28
   18  A    between atoms: C_25  and  P_34
   19  A    between atoms: C_28  and  C_33
   20  A    between atoms: O_31  and  C_43
   21  A    between atoms: C_36  and  C_42
                            x       y       z     vdW  Elec       q    Type
                         _______ _______ _______ _____ _____    ______ ____

>  <TORSDO>
F 21

$$$$
=
 OpenBabel11042417443D

 48 50  0  0  1  0  0  0  0  0999 V2000
  189.7330  175.3320  142.2520 C   0  0  0  0  0  0  0  0  0  0  0  0
  191.0740  177.9910  143.0500 C   0  0  0  0  0  3  0  0  0  0  0  0
  191.2050  175.2710  141.9710 C   0  0  0  0  0  2  0  0  0  0  0  0
  189.1060  176.5220  142.4240 C   0  0  0  0  0  0  0  0  0  0  0  0
  191.9600  176.9440  143.5960 C   0  0  0  0  0  3  0  0  0  0  0  0
  192.0080  175.6840  143.1650 C   0  0  0  0  0  0  0  0  0  0  0  0
  189.8510  177.8030  142.5380 C   0  0  0  0  0  3  0  0  0  0  0  0
  186.9590  175.6950  142.9960 O   0  0  0  0  0  0  0  0  0  0  0  0
  186.9650  177.8240  142.0280 N   0  0  0  0  0  2  0  0  0  0  0  0
  187.6270  176.6360  142.4870 C   0  0  0  0  0  0  0  0  0  0  0  0
  182.7950  178.6060  142.0060 C   0  0  0  0  0  0  0  0  0  0  0  0
  183.5300  178.7090  143.1910 C   0  0  0  0  0  3  0  0  0  0  0  0
  185.5540  178.0800  142.0030 C   0  0  0  0  0  0  0  0  0  0  0  0
  183.4350  178.2340  140.8210 C   0  0  0  0  0  3  0  0  0  0  0  0
  184.8080  177.9740  140.8180 C   0  0  0  0  0  3  0  0  0  0  0  0
  184.9040  178.4500  143.1900 C   0  0  0  0  0  0  0  0  0  0  0  0
  185.6210  178.5650  144.3760 O   0  0  0  0  0  1  0  0  0  0  0  0
  181.3290  178.8680  142.0120 C   0  0  0  0  0  2  0  0  0  0  0  0
  180.6480  178.0730  140.9140 C   0  0  2  0  0  3  0  0  0  0  0  0
  179.7690  178.9670  140.1470 N   0  0  0  0  0  2  0  0  0  0  0  0
  179.2110  178.0490  141.1490 C   0  0  0  0  0  2  0  0  0  0  0  0
  192.8570  174.7930  143.8380 O   0  0  0  0  0  0  0  0  0  0  0  0
  194.1780  175.0500  144.2330 C   0  0  0  0  0  0  0  0  0  0  0  0
  195.0640  175.3950  143.4060 O   0  0  0  0  0  0  0  0  0  0  0  0
  194.5320  174.9500  145.6730 C   0  0  0  0  0  2  0  0  0  0  0  0
  193.2760  175.0290  146.5150 C   0  0  0  0  0  2  0  0  0  0  0  0
  193.0190  176.4690  146.9070 C   0  0  0  0  0  2  0  0  0  0  0  0
  190.4350  177.2880  146.7050 O   0  0  0  0  0  0  0  0  0  0  0  0
  191.4910  177.5320  149.0850 O   0  0  0  0  0  1  0  0  0  0  0  0
  191.3790  176.6110  147.6710 P   0  0  0  0  0  0  0  0  0  0  0  0
  190.7900  175.0710  148.0440 O   0  0  0  0  0  1  0  0  0  0  0  0
  188.9830  174.0240  142.3230 C   0  0  1  0  0  3  0  0  0  0  0  0
  188.4790  173.5620  140.9770 C   0  0  0  0  0  0  0  0  0  0  0  0
  187.7040  172.5680  140.9000 O   0  0  0  0  0  0  0  0  0  0  0  0
  188.9530  174.1860  139.7800 N   0  0  0  0  0  2  0  0  0  0  0  0
  187.8130  174.9270  137.7670 C   0  0  0  0  0  1  0  0  0  0  0  0
  188.5180  173.7730  138.4560 C   0  0  1  0  0  3  0  0  0  0  0  0
  190.1300  172.0840  137.6070 C   0  0  0  0  0  3  0  0  0  0  0  0
  189.7040  173.3450  137.6540 C   0  0  0  0  0  3  0  0  0  0  0  0
  189.4740  171.0480  138.3370 N   0  0  0  0  0  2  0  0  0  0  0  0
  190.2300  169.9650  138.9460 C   0  0  0  0  0  2  0  0  0  0  0  0
  190.9560  170.4570  140.1880 C   0  0  0  0  0  2  0  0  0  0  0  0
  190.6080  169.6680  141.2850 O   0  0  0  0  0  0  0  0  0  0  0  0
  191.5450  169.9930  142.2640 C   0  0  0  0  0  2  0  0  0  0  0  0
  192.8220  169.6430  141.8240 O   0  0  0  0  0  0  0  0  0  0  0  0
  193.3760  168.9250  142.8840 C   0  0  0  0  0  1  0  0  0  0  0  0
  189.8090  172.9870  143.0220 C   0  0  0  0  0  3  0  0  0  0  0  0
  189.3040  172.2460  143.8500 O   0  0  0  0  0  0  0  0  0  0  0  0
  1 32  1  0  0  0  0
  1  4  2  0  0  0  0
  2  5  1  0  0  0  0
  3  1  1  0  0  0  0
  3  6  1  0  0  0  0
  4 10  1  0  0  0  0
  4  7  1  0  0  0  0
  6  5  2  0  0  0  0
  6 22  1  0  0  0  0
  7  2  2  0  0  0  0
  9 10  1  0  0  0  0
 10  8  2  0  0  0  0
 11 18  1  0  0  0  0
 11 12  1  0  0  0  0
 13  9  1  0  0  0  0
 13 16  1  0  0  0  0
 14 11  2  0  0  0  0
 15 14  1  0  0  0  0
 15 13  2  0  0  0  0
 16 12  2  0  0  0  0
 16 17  1  0  0  0  0
 19 21  1  0  0  0  0
 19 18  1  1  0  0  0
 20 19  1  0  0  0  0
 20 21  1  0  0  0  0
 22 23  1  0  0  0  0
 23 25  1  0  0  0  0
 24 23  2  0  0  0  0
 25 26  1  0  0  0  0
 26 27  1  0  0  0  0
 27 30  1  0  0  0  0
 28 30  2  0  0  0  0
 30 31  1  0  0  0  0
 30 29  1  0  0  0  0
 32 47  1  6  0  0  0
 33 32  1  0  0  0  0
 34 33  2  0  0  0  0
 35 33  1  0  0  0  0
 37 36  1  6  0  0  0
 37 35  1  0  0  0  0
 38 39  2  0  0  0  0
 38 40  1  0  0  0  0
 39 37  1  0  0  0  0
 40 41  1  0  0  0  0
 41 42  1  0  0  0  0
 42 43  1  0  0  0  0
 43 44  1  0  0  0  0
 45 44  1  0  0  0  0
 45 46  1  0  0  0  0
 47 48  2  0  0  0  0
M  END
>  <MODEL>
7

>  <REMARK>
 VINA RESULT:      -5.4      3.805      9.144
  Name = 
  21 active torsions:
  status: ('A' for Active; 'I' for Inactive)
    1  A    between atoms: C_1  and  C_19
    2  A    between atoms: C_4  and  N_37
    3  A    between atoms: C_6  and  C_35
    4  A    between atoms: C_7  and  C_12
    5  A    between atoms: C_7  and  O_26
    6  A    between atoms: C_8  and  O_31
    7  A    between atoms: C_8  and  C_33
    8  A    between atoms: C_9  and  C_23
    9  A    between atoms: C_9  and  N_24
   10  A    between atoms: C_10  and  C_35
   11  A    between atoms: O_11  and  C_18
   12  A    between atoms: C_12  and  N_14
   13  A    between atoms: C_13  and  C_19
   14  A    between atoms: N_14  and  C_22
   15  A    between atoms: C_16  and  C_35
   16  A    between atoms: C_18  and  O_26
   17  A    between atoms: C_25  and  C_28
   18  A    between atoms: C_25  and  P_34
   19  A    between atoms: C_28  and  C_33
   20  A    between atoms: O_31  and  C_43
   21  A    between atoms: C_36  and  C_42
                            x       y       z     vdW  Elec       q    Type
                         _______ _______ _______ _____ _____    ______ ____

>  <TORSDO>
F 21

$$$$
=
 OpenBabel11042417443D

 48 50  0  0  1  0  0  0  0  0999 V2000
  190.5650  176.6840  144.9400 C   0  0  0  0  0  0  0  0  0  0  0  0
  190.2040  177.3170  147.9360 C   0  0  0  0  0  3  0  0  0  0  0  0
  191.8950  176.9770  145.5690 C   0  0  0  0  0  2  0  0  0  0  0  0
  189.4120  177.0670  145.5420 C   0  0  0  0  0  0  0  0  0  0  0  0
  191.3470  176.3850  147.8840 C   0  0  0  0  0  3  0  0  0  0  0  0
  192.1050  176.1660  146.8090 C   0  0  0  0  0  0  0  0  0  0  0  0
  189.3800  177.6160  146.9230 C   0  0  0  0  0  3  0  0  0  0  0  0
  187.3410  176.0070  145.0830 O   0  0  0  0  0  0  0  0  0  0  0  0
  187.6650  178.0460  143.9850 N   0  0  0  0  0  2  0  0  0  0  0  0
  188.0970  176.9900  144.8550 C   0  0  0  0  0  0  0  0  0  0  0  0
  184.0730  178.2190  141.7320 C   0  0  0  0  0  0  0  0  0  0  0  0
  185.2900  177.9350  141.1060 C   0  0  0  0  0  3  0  0  0  0  0  0
  186.4410  178.1130  143.2380 C   0  0  0  0  0  0  0  0  0  0  0  0
  184.0380  178.4580  143.1080 C   0  0  0  0  0  3  0  0  0  0  0  0
  185.2160  178.4030  143.8580 C   0  0  0  0  0  3  0  0  0  0  0  0
  186.4700  177.8780  141.8550 C   0  0  0  0  0  0  0  0  0  0  0  0
  187.6700  177.5850  141.2170 O   0  0  0  0  0  1  0  0  0  0  0  0
  182.8200  178.2930  140.9300 C   0  0  0  0  0  2  0  0  0  0  0  0
  181.6530  178.6900  141.8130 C   0  0  2  0  0  3  0  0  0  0  0  0
  180.4560  177.9480  141.3920 N   0  0  0  0  0  2  0  0  0  0  0  0
  180.6370  179.3550  141.0090 C   0  0  0  0  0  2  0  0  0  0  0  0
  193.1120  175.1950  146.9060 O   0  0  0  0  0  0  0  0  0  0  0  0
  194.2950  175.1540  146.1520 C   0  0  0  0  0  0  0  0  0  0  0  0
  194.9420  176.1980  145.8750 O   0  0  0  0  0  0  0  0  0  0  0  0
  194.8170  173.8370  145.7020 C   0  0  0  0  0  2  0  0  0  0  0  0
  194.0100  173.3440  144.5200 C   0  0  0  0  0  2  0  0  0  0  0  0
  193.1620  172.1620  144.9420 C   0  0  0  0  0  2  0  0  0  0  0  0
  194.7720  170.3080  146.1080 O   0  0  0  0  0  1  0  0  0  0  0  0
  195.3230  170.8380  143.6070 O   0  0  0  0  0  0  0  0  0  0  0  0
  194.1240  170.6320  144.7820 P   0  0  0  0  0  0  0  0  0  0  0  0
  193.1030  169.3620  144.3310 O   0  0  0  0  0  1  0  0  0  0  0  0
  190.5660  175.9600  143.6160 C   0  0  1  0  0  3  0  0  0  0  0  0
  191.7590  176.3060  142.7580 C   0  0  0  0  0  0  0  0  0  0  0  0
  191.9470  177.4970  142.3860 O   0  0  0  0  0  0  0  0  0  0  0  0
  192.6250  175.2700  142.2830 N   0  0  0  0  0  2  0  0  0  0  0  0
  194.8850  176.1610  142.2720 C   0  0  0  0  0  1  0  0  0  0  0  0
  193.7790  175.5390  141.4400 C   0  0  1  0  0  3  0  0  0  0  0  0
  193.4600  173.2080  140.6400 C   0  0  0  0  0  3  0  0  0  0  0  0
  194.2550  174.2610  140.8290 C   0  0  0  0  0  3  0  0  0  0  0  0
  192.0860  173.2340  141.0250 N   0  0  0  0  0  2  0  0  0  0  0  0
  191.2560  172.0450  140.9170 C   0  0  0  0  0  2  0  0  0  0  0  0
  189.8400  172.4190  140.5110 C   0  0  0  0  0  2  0  0  0  0  0  0
  189.8730  173.4050  139.5250 O   0  0  0  0  0  0  0  0  0  0  0  0
  189.5800  172.7300  138.3410 C   0  0  0  0  0  2  0  0  0  0  0  0
  188.2870  173.0490  137.9290 O   0  0  0  0  0  0  0  0  0  0  0  0
  188.2050  174.4350  138.0660 C   0  0  0  0  0  1  0  0  0  0  0  0
  190.4080  174.4850  143.8270 C   0  0  0  0  0  3  0  0  0  0  0  0
  189.3420  173.9360  143.6020 O   0  0  0  0  0  0  0  0  0  0  0  0
  1  4  2  0  0  0  0
  1  3  1  0  0  0  0
  3  6  1  0  0  0  0
  4  7  1  0  0  0  0
  5  2  1  0  0  0  0
  6 22  1  0  0  0  0
  6  5  2  0  0  0  0
  7  2  2  0  0  0  0
  9 10  1  0  0  0  0
 10  8  2  0  0  0  0
 10  4  1  0  0  0  0
 11 14  1  0  0  0  0
 12 11  2  0  0  0  0
 12 16  1  0  0  0  0
 13 15  1  0  0  0  0
 13  9  1  0  0  0  0
 14 15  2  0  0  0  0
 16 13  2  0  0  0  0
 17 16  1  0  0  0  0
 18 11  1  0  0  0  0
 19 18  1  6  0  0  0
 20 19  1  0  0  0  0
 21 20  1  0  0  0  0
 21 19  1  0  0  0  0
 23 22  1  0  0  0  0
 24 23  2  0  0  0  0
 25 23  1  0  0  0  0
 26 27  1  0  0  0  0
 26 25  1  0  0  0  0
 29 30  2  0  0  0  0
 30 27  1  0  0  0  0
 30 28  1  0  0  0  0
 31 30  1  0  0  0  0
 32 47  1  1  0  0  0
 32  1  1  0  0  0  0
 33 32  1  0  0  0  0
 34 33  2  0  0  0  0
 35 33  1  0  0  0  0
 37 36  1  1  0  0  0
 37 35  1  0  0  0  0
 38 39  2  0  0  0  0
 38 40  1  0  0  0  0
 39 37  1  0  0  0  0
 41 40  1  0  0  0  0
 42 41  1  0  0  0  0
 43 42  1  0  0  0  0
 44 43  1  0  0  0  0
 45 46  1  0  0  0  0
 45 44  1  0  0  0  0
 48 47  2  0  0  0  0
M  END
>  <MODEL>
8

>  <REMARK>
 VINA RESULT:      -5.3      4.004      9.690
  Name = 
  21 active torsions:
  status: ('A' for Active; 'I' for Inactive)
    1  A    between atoms: C_1  and  C_19
    2  A    between atoms: C_4  and  N_37
    3  A    between atoms: C_6  and  C_35
    4  A    between atoms: C_7  and  C_12
    5  A    between atoms: C_7  and  O_26
    6  A    between atoms: C_8  and  O_31
    7  A    between atoms: C_8  and  C_33
    8  A    between atoms: C_9  and  C_23
    9  A    between atoms: C_9  and  N_24
   10  A    between atoms: C_10  and  C_35
   11  A    between atoms: O_11  and  C_18
   12  A    between atoms: C_12  and  N_14
   13  A    between atoms: C_13  and  C_19
   14  A    between atoms: N_14  and  C_22
   15  A    between atoms: C_16  and  C_35
   16  A    between atoms: C_18  and  O_26
   17  A    between atoms: C_25  and  C_28
   18  A    between atoms: C_25  and  P_34
   19  A    between atoms: C_28  and  C_33
   20  A    between atoms: O_31  and  C_43
   21  A    between atoms: C_36  and  C_42
                            x       y       z     vdW  Elec       q    Type
                         _______ _______ _______ _____ _____    ______ ____

>  <TORSDO>
F 21

$$$$
=
 OpenBabel11042417443D

 48 50  0  0  1  0  0  0  0  0999 V2000
  190.2920  175.5270  142.8990 C   0  0  0  0  0  0  0  0  0  0  0  0
  191.1280  178.3500  143.8150 C   0  0  0  0  0  3  0  0  0  0  0  0
  191.7810  175.5940  143.0680 C   0  0  0  0  0  2  0  0  0  0  0  0
  189.5550  176.6580  142.7730 C   0  0  0  0  0  0  0  0  0  0  0  0
  191.8860  177.4320  144.6870 C   0  0  0  0  0  3  0  0  0  0  0  0
  192.1550  176.1580  144.4030 C   0  0  0  0  0  0  0  0  0  0  0  0
  190.1320  178.0110  142.9850 C   0  0  0  0  0  3  0  0  0  0  0  0
  187.5370  175.5170  142.2740 O   0  0  0  0  0  0  0  0  0  0  0  0
  187.3890  177.8500  142.2060 N   0  0  0  0  0  2  0  0  0  0  0  0
  188.1200  176.6290  142.3900 C   0  0  0  0  0  0  0  0  0  0  0  0
  183.3120  178.2900  141.1160 C   0  0  0  0  0  0  0  0  0  0  0  0
  183.6980  178.3590  142.4580 C   0  0  0  0  0  3  0  0  0  0  0  0
  186.0140  177.9920  141.8200 C   0  0  0  0  0  0  0  0  0  0  0  0
  184.2710  178.0650  140.1260 C   0  0  0  0  0  3  0  0  0  0  0  0
  185.6160  177.9190  140.4750 C   0  0  0  0  0  3  0  0  0  0  0  0
  185.0440  178.2140  142.8100 C   0  0  0  0  0  0  0  0  0  0  0  0
  185.4120  178.2930  144.1480 O   0  0  0  0  0  1  0  0  0  0  0  0
  181.8760  178.4300  140.7460 C   0  0  0  0  0  2  0  0  0  0  0  0
  181.0040  178.3650  141.9850 C   0  0  2  0  0  3  0  0  0  0  0  0
  179.6390  177.9870  141.5950 N   0  0  0  0  0  2  0  0  0  0  0  0
  179.9670  179.3850  141.9050 C   0  0  0  0  0  2  0  0  0  0  0  0
  192.8290  175.3990  145.3710 O   0  0  0  0  0  0  0  0  0  0  0  0
  194.2150  175.3720  145.5830 C   0  0  0  0  0  0  0  0  0  0  0  0
  194.8390  176.3710  146.0310 O   0  0  0  0  0  0  0  0  0  0  0  0
  194.9620  174.1160  145.3060 C   0  0  0  0  0  2  0  0  0  0  0  0
  193.9870  172.9980  145.0040 C   0  0  0  0  0  2  0  0  0  0  0  0
  194.4910  171.7070  145.6140 C   0  0  0  0  0  2  0  0  0  0  0  0
  196.2470  170.7810  143.7580 O   0  0  0  0  0  1  0  0  0  0  0  0
  193.7320  170.6770  143.0500 O   0  0  0  0  0  0  0  0  0  0  0  0
  194.8620  170.5140  144.2980 P   0  0  0  0  0  0  0  0  0  0  0  0
  194.7950  168.9430  144.9190 O   0  0  0  0  0  1  0  0  0  0  0  0
  189.6570  174.1590  142.8630 C   0  0  1  0  0  3  0  0  0  0  0  0
  190.2490  173.2640  141.8020 C   0  0  0  0  0  0  0  0  0  0  0  0
  190.7550  172.1520  142.1220 O   0  0  0  0  0  0  0  0  0  0  0  0
  190.3260  173.7130  140.4450 N   0  0  0  0  0  2  0  0  0  0  0  0
  189.7900  172.2940  138.5470 C   0  0  0  0  0  1  0  0  0  0  0  0
  190.9010  172.9030  139.3830 C   0  0  1  0  0  3  0  0  0  0  0  0
  193.0240  174.0830  138.8620 C   0  0  0  0  0  3  0  0  0  0  0  0
  191.7770  173.7580  138.5260 C   0  0  0  0  0  3  0  0  0  0  0  0
  193.6080  173.6330  140.0850 N   0  0  0  0  0  2  0  0  0  0  0  0
  194.6350  172.6040  140.0910 C   0  0  0  0  0  2  0  0  0  0  0  0
  195.9600  173.1780  140.5650 C   0  0  0  0  0  2  0  0  0  0  0  0
  195.7720  173.9010  141.7430 O   0  0  0  0  0  0  0  0  0  0  0  0
  197.0430  174.3620  142.0820 C   0  0  0  0  0  2  0  0  0  0  0  0
  196.9310  175.4400  142.9590 O   0  0  0  0  0  0  0  0  0  0  0  0
  196.2370  176.4110  142.2370 C   0  0  0  0  0  1  0  0  0  0  0  0
  189.6790  173.5380  144.2270 C   0  0  0  0  0  3  0  0  0  0  0  0
  189.4600  174.2120  145.2200 O   0  0  0  0  0  0  0  0  0  0  0  0
  1  3  1  0  0  0  0
  2  5  1  0  0  0  0
  3  6  1  0  0  0  0
  4  1  2  0  0  0  0
  4  7  1  0  0  0  0
  6  5  2  0  0  0  0
  6 22  1  0  0  0  0
  7  2  2  0  0  0  0
  8 10  2  0  0  0  0
  9 10  1  0  0  0  0
 10  4  1  0  0  0  0
 11 12  1  0  0  0  0
 12 16  2  0  0  0  0
 13  9  1  0  0  0  0
 13 16  1  0  0  0  0
 14 15  1  0  0  0  0
 14 11  2  0  0  0  0
 15 13  2  0  0  0  0
 16 17  1  0  0  0  0
 18 11  1  0  0  0  0
 19 18  1  6  0  0  0
 20 21  1  0  0  0  0
 20 19  1  0  0  0  0
 21 19  1  0  0  0  0
 22 23  1  0  0  0  0
 23 24  2  0  0  0  0
 25 23  1  0  0  0  0
 26 25  1  0  0  0  0
 26 27  1  0  0  0  0
 28 30  1  0  0  0  0
 29 30  2  0  0  0  0
 30 31  1  0  0  0  0
 30 27  1  0  0  0  0
 32  1  1  0  0  0  0
 32 47  1  1  0  0  0
 33 34  2  0  0  0  0
 33 32  1  0  0  0  0
 35 33  1  0  0  0  0
 37 36  1  6  0  0  0
 37 35  1  0  0  0  0
 38 40  1  0  0  0  0
 39 38  2  0  0  0  0
 39 37  1  0  0  0  0
 40 41  1  0  0  0  0
 41 42  1  0  0  0  0
 42 43  1  0  0  0  0
 43 44  1  0  0  0  0
 44 45  1  0  0  0  0
 46 45  1  0  0  0  0
 47 48  2  0  0  0  0
M  END
>  <MODEL>
9

>  <REMARK>
 VINA RESULT:      -5.3      3.984      9.897
  Name = 
  21 active torsions:
  status: ('A' for Active; 'I' for Inactive)
    1  A    between atoms: C_1  and  C_19
    2  A    between atoms: C_4  and  N_37
    3  A    between atoms: C_6  and  C_35
    4  A    between atoms: C_7  and  C_12
    5  A    between atoms: C_7  and  O_26
    6  A    between atoms: C_8  and  O_31
    7  A    between atoms: C_8  and  C_33
    8  A    between atoms: C_9  and  C_23
    9  A    between atoms: C_9  and  N_24
   10  A    between atoms: C_10  and  C_35
   11  A    between atoms: O_11  and  C_18
   12  A    between atoms: C_12  and  N_14
   13  A    between atoms: C_13  and  C_19
   14  A    between atoms: N_14  and  C_22
   15  A    between atoms: C_16  and  C_35
   16  A    between atoms: C_18  and  O_26
   17  A    between atoms: C_25  and  C_28
   18  A    between atoms: C_25  and  P_34
   19  A    between atoms: C_28  and  C_33
   20  A    between atoms: O_31  and  C_43
   21  A    between atoms: C_36  and  C_42
                            x       y       z     vdW  Elec       q    Type
                         _______ _______ _______ _____ _____    ______ ____

>  <TORSDO>
F 21

$$$$
