=
 OpenBabel11042416363D

 32 35  0  0  1  0  0  0  0  0999 V2000
  191.8180  175.4800  147.2090 C   0  0  0  0  0  2  0  0  0  0  0  0
  187.0970  178.0830  144.6820 C   0  0  0  0  0  3  0  0  0  0  0  0
  189.2030  176.9600  144.9210 O   0  0  0  0  0  0  0  0  0  0  0  0
  189.2670  174.9320  146.7900 C   0  0  0  0  0  2  0  0  0  0  0  0
  185.8000  178.3830  145.1120 C   0  0  0  0  0  0  0  0  0  0  0  0
  186.0880  176.8610  146.9760 C   0  0  0  0  0  3  0  0  0  0  0  0
  185.3040  177.7760  146.2710 C   0  0  0  0  0  3  0  0  0  0  0  0
  187.3770  176.5410  146.5410 C   0  0  0  0  0  0  0  0  0  0  0  0
  190.1280  177.2180  147.0790 O   0  0  0  0  0  0  0  0  0  0  0  0
  190.4030  176.9900  145.7090 C   0  0  1  0  0  3  0  0  0  0  0  0
  187.9020  177.1870  145.3950 C   0  0  0  0  0  0  0  0  0  0  0  0
  190.4460  175.8990  146.7080 C   0  0  1  0  0  0  0  0  0  0  0  0
  188.0850  175.5700  147.2610 O   0  0  0  0  0  0  0  0  0  0  0  0
  183.7140  178.9620  143.8990 O   0  0  0  0  0  0  0  0  0  0  0  0
  185.3960  180.4970  144.1110 O   0  0  0  0  0  1  0  0  0  0  0  0
  184.9730  179.3350  144.3540 C   0  0  0  0  0  0  0  0  0  0  0  0
  192.7940  175.2770  146.0500 C   0  0  1  0  0  3  0  0  0  0  0  0
  194.1950  175.7310  146.4290 C   0  0  0  0  0  2  0  0  0  0  0  0
  194.7360  176.7050  145.3970 C   0  0  0  0  0  2  0  0  0  0  0  0
  195.6920  176.0050  144.4980 C   0  0  0  0  0  0  0  0  0  0  0  0
  196.1310  174.8690  144.8180 O   0  0  0  0  0  0  0  0  0  0  0  0
  196.1180  176.6250  143.3260 O   0  0  0  0  0  0  0  0  0  0  0  0
  197.3580  177.1190  143.2240 O   0  0  0  0  0  1  0  0  0  0  0  0
  192.7930  173.8320  145.5360 C   0  0  0  0  0  2  0  0  0  0  0  0
  189.5450  173.5060  142.7370 C   0  0  0  0  0  0  0  0  0  0  0  0
  190.7900  174.1950  142.2430 C   0  0  0  0  0  2  0  0  0  0  0  0
  191.7530  174.4440  143.3770 C   0  0  0  0  0  3  0  0  0  0  0  0
  190.9240  172.3820  144.4630 C   0  0  0  0  0  2  0  0  0  0  0  0
  191.8310  173.5860  144.4090 C   0  0  0  0  0  0  0  0  0  0  0  0
  189.6100  172.6560  143.7750 C   0  0  0  0  0  3  0  0  0  0  0  0
  188.2500  173.7280  142.0310 C   0  0  0  0  0  2  0  0  0  0  0  0
  187.5750  174.7900  142.6040 F   0  0  0  0  0  0  0  0  0  0  0  0
  2  5  2  0  0  0  0
  2 11  1  0  0  0  0
  3 11  1  0  0  0  0
  4 13  1  0  0  0  0
  5  7  1  0  0  0  0
  7  6  2  0  0  0  0
  8  6  1  0  0  0  0
  8 13  1  0  0  0  0
 10  3  1  6  0  0  0
 10 12  1  0  0  0  0
 10  9  1  0  0  0  0
 11  8  2  0  0  0  0
 12  4  1  0  0  0  0
 12  9  1  0  0  0  0
 12  1  1  1  0  0  0
 14 16  2  0  0  0  0
 15 16  1  0  0  0  0
 16  5  1  0  0  0  0
 17 24  1  1  0  0  0
 17 18  1  0  0  0  0
 17  1  1  0  0  0  0
 19 18  1  0  0  0  0
 20 21  2  0  0  0  0
 20 19  1  0  0  0  0
 22 20  1  0  0  0  0
 23 22  1  0  0  0  0
 25 30  2  0  0  0  0
 26 25  1  0  0  0  0
 26 27  1  0  0  0  0
 27 29  2  0  0  0  0
 29 28  1  0  0  0  0
 29 24  1  0  0  0  0
 30 28  1  0  0  0  0
 31 32  1  0  0  0  0
 31 25  1  0  0  0  0
M  END
>  <MODEL>
1

>  <REMARK>
 VINA RESULT:      -7.4      0.000      0.000
  Name = 
  10 active torsions:
  status: ('A' for Active; 'I' for Inactive)
    1  A    between atoms: O_2  and  C_12
    2  A    between atoms: C_4  and  C_5
    3  A    between atoms: C_4  and  C_30
    4  A    between atoms: C_5  and  C_8
    5  A    between atoms: C_5  and  C_15
    6  A    between atoms: C_7  and  C_25
    7  A    between atoms: C_8  and  C_32
    8  A    between atoms: C_12  and  C_32
    9  A    between atoms: C_13  and  C_22
   10  A    between atoms: C_15  and  C_19
                            x       y       z     vdW  Elec       q    Type
                         _______ _______ _______ _____ _____    ______ ____

>  <TORSDO>
F 10

$$$$
=
 OpenBabel11042416363D

 32 35  0  0  1  0  0  0  0  0999 V2000
  192.3340  174.5760  146.5370 C   0  0  0  0  0  2  0  0  0  0  0  0
  187.2470  177.6650  146.7070 C   0  0  0  0  0  3  0  0  0  0  0  0
  189.3830  176.7870  147.3550 O   0  0  0  0  0  0  0  0  0  0  0  0
  191.2890  176.7010  145.3630 C   0  0  0  0  0  2  0  0  0  0  0  0
  186.3180  178.0720  145.7440 C   0  0  0  0  0  0  0  0  0  0  0  0
  187.9370  177.5870  144.0070 C   0  0  0  0  0  3  0  0  0  0  0  0
  186.6660  178.0170  144.3890 C   0  0  0  0  0  3  0  0  0  0  0  0
  188.8780  177.1990  144.9650 C   0  0  0  0  0  0  0  0  0  0  0  0
  189.9430  174.8130  146.1840 O   0  0  0  0  0  0  0  0  0  0  0  0
  190.1280  175.5590  147.3730 C   0  0  1  0  0  3  0  0  0  0  0  0
  188.5160  177.2070  146.3350 C   0  0  0  0  0  0  0  0  0  0  0  0
  191.1580  175.5120  146.3120 C   0  0  1  0  0  0  0  0  0  0  0  0
  190.1540  176.8360  144.5160 O   0  0  0  0  0  0  0  0  0  0  0  0
  184.0910  179.0270  145.2090 O   0  0  0  0  0  0  0  0  0  0  0  0
  184.6400  178.5050  147.3670 O   0  0  0  0  0  1  0  0  0  0  0  0
  184.9850  178.5400  146.1550 C   0  0  0  0  0  0  0  0  0  0  0  0
  193.0550  174.2660  145.2260 C   0  0  1  0  0  3  0  0  0  0  0  0
  194.5630  174.2340  145.4260 C   0  0  0  0  0  2  0  0  0  0  0  0
  195.0250  175.4650  146.1860 C   0  0  0  0  0  2  0  0  0  0  0  0
  195.1090  176.6250  145.2590 C   0  0  0  0  0  0  0  0  0  0  0  0
  194.7660  177.7690  145.6580 O   0  0  0  0  0  0  0  0  0  0  0  0
  195.5380  176.4310  143.9480 O   0  0  0  0  0  0  0  0  0  0  0  0
  196.6430  177.0370  143.4930 O   0  0  0  0  0  1  0  0  0  0  0  0
  192.5480  172.9720  144.5760 C   0  0  0  0  0  2  0  0  0  0  0  0
  189.2300  174.0630  142.0690 C   0  0  0  0  0  0  0  0  0  0  0  0
  190.6050  174.3480  141.5230 C   0  0  0  0  0  2  0  0  0  0  0  0
  191.6590  174.1330  142.5820 C   0  0  0  0  0  3  0  0  0  0  0  0
  190.2390  172.3580  143.5590 C   0  0  0  0  0  2  0  0  0  0  0  0
  191.4980  173.1880  143.5250 C   0  0  0  0  0  0  0  0  0  0  0  0
  189.0600  173.1310  143.0200 C   0  0  0  0  0  3  0  0  0  0  0  0
  188.0510  174.7820  141.5060 C   0  0  0  0  0  2  0  0  0  0  0  0
  187.0410  174.8440  142.4470 F   0  0  0  0  0  0  0  0  0  0  0  0
  3 10  1  0  0  0  0
  4 12  1  0  0  0  0
  5 16  1  0  0  0  0
  5  2  2  0  0  0  0
  6  7  2  0  0  0  0
  6  8  1  0  0  0  0
  7  5  1  0  0  0  0
  8 11  2  0  0  0  0
  9 12  1  0  0  0  0
 10  9  1  6  0  0  0
 11  2  1  0  0  0  0
 11  3  1  0  0  0  0
 12  1  1  1  0  0  0
 12 10  1  0  0  0  0
 13  8  1  0  0  0  0
 13  4  1  0  0  0  0
 14 16  2  0  0  0  0
 16 15  1  0  0  0  0
 17 24  1  1  0  0  0
 17 18  1  0  0  0  0
 17  1  1  0  0  0  0
 18 19  1  0  0  0  0
 20 21  2  0  0  0  0
 20 19  1  0  0  0  0
 22 20  1  0  0  0  0
 23 22  1  0  0  0  0
 25 30  2  0  0  0  0
 26 25  1  0  0  0  0
 26 27  1  0  0  0  0
 27 29  2  0  0  0  0
 29 28  1  0  0  0  0
 29 24  1  0  0  0  0
 30 28  1  0  0  0  0
 31 25  1  0  0  0  0
 31 32  1  0  0  0  0
M  END
>  <MODEL>
2

>  <REMARK>
 VINA RESULT:      -7.3      1.294      1.962
  Name = 
  10 active torsions:
  status: ('A' for Active; 'I' for Inactive)
    1  A    between atoms: O_2  and  C_12
    2  A    between atoms: C_4  and  C_5
    3  A    between atoms: C_4  and  C_30
    4  A    between atoms: C_5  and  C_8
    5  A    between atoms: C_5  and  C_15
    6  A    between atoms: C_7  and  C_25
    7  A    between atoms: C_8  and  C_32
    8  A    between atoms: C_12  and  C_32
    9  A    between atoms: C_13  and  C_22
   10  A    between atoms: C_15  and  C_19
                            x       y       z     vdW  Elec       q    Type
                         _______ _______ _______ _____ _____    ______ ____

>  <TORSDO>
F 10

$$$$
=
 OpenBabel11042416363D

 32 35  0  0  1  0  0  0  0  0999 V2000
  190.9020  175.6780  146.9030 C   0  0  0  0  0  2  0  0  0  0  0  0
  185.9430  178.0140  144.5790 C   0  0  0  0  0  3  0  0  0  0  0  0
  187.6790  177.4980  146.1510 O   0  0  0  0  0  0  0  0  0  0  0  0
  190.2480  177.5420  145.1470 C   0  0  0  0  0  2  0  0  0  0  0  0
  185.4740  178.2130  143.2760 C   0  0  0  0  0  0  0  0  0  0  0  0
  187.7160  177.8400  142.4340 C   0  0  0  0  0  3  0  0  0  0  0  0
  186.3660  178.1110  142.2020 C   0  0  0  0  0  3  0  0  0  0  0  0
  188.1960  177.6610  143.7340 C   0  0  0  0  0  0  0  0  0  0  0  0
  188.8750  175.5450  145.5720 O   0  0  0  0  0  0  0  0  0  0  0  0
  188.4630  176.3940  146.6280 C   0  0  1  0  0  3  0  0  0  0  0  0
  187.2890  177.7160  144.8210 C   0  0  0  0  0  0  0  0  0  0  0  0
  189.8450  176.4180  146.0990 C   0  0  1  0  0  0  0  0  0  0  0  0
  189.5710  177.4520  143.8980 O   0  0  0  0  0  0  0  0  0  0  0  0
  183.4500  178.1570  141.8400 O   0  0  0  0  0  0  0  0  0  0  0  0
  183.3690  179.1000  143.9230 O   0  0  0  0  0  1  0  0  0  0  0  0
  184.0530  178.5150  143.0410 C   0  0  0  0  0  0  0  0  0  0  0  0
  192.1940  175.5130  146.1030 C   0  0  1  0  0  3  0  0  0  0  0  0
  193.3900  176.0330  146.8850 C   0  0  0  0  0  2  0  0  0  0  0  0
  194.6820  175.7250  146.1480 C   0  0  0  0  0  2  0  0  0  0  0  0
  195.0260  176.8530  145.2420 C   0  0  0  0  0  0  0  0  0  0  0  0
  194.9060  178.0390  145.6490 O   0  0  0  0  0  0  0  0  0  0  0  0
  195.4480  176.5910  143.9420 O   0  0  0  0  0  0  0  0  0  0  0  0
  194.8020  175.7010  143.1780 O   0  0  0  0  0  1  0  0  0  0  0  0
  192.4110  174.0670  145.6420 C   0  0  0  0  0  2  0  0  0  0  0  0
  189.3880  173.2310  142.7010 C   0  0  0  0  0  0  0  0  0  0  0  0
  190.5600  174.0590  142.2420 C   0  0  0  0  0  2  0  0  0  0  0  0
  191.4200  174.4670  143.4120 C   0  0  0  0  0  3  0  0  0  0  0  0
  190.8040  172.3520  144.5360 C   0  0  0  0  0  2  0  0  0  0  0  0
  191.5520  173.6610  144.4790 C   0  0  0  0  0  0  0  0  0  0  0  0
  189.5050  172.4310  143.7740 C   0  0  0  0  0  3  0  0  0  0  0  0
  188.1160  173.2600  141.9240 C   0  0  0  0  0  2  0  0  0  0  0  0
  187.7730  174.5650  141.6260 F   0  0  0  0  0  0  0  0  0  0  0  0
  2 11  1  0  0  0  0
  3 10  1  0  0  0  0
  4 12  1  0  0  0  0
  5  2  2  0  0  0  0
  6  8  1  0  0  0  0
  7  6  2  0  0  0  0
  7  5  1  0  0  0  0
  8 13  1  0  0  0  0
  8 11  2  0  0  0  0
  9 12  1  0  0  0  0
 10  9  1  6  0  0  0
 11  3  1  0  0  0  0
 12 10  1  0  0  0  0
 12  1  1  1  0  0  0
 13  4  1  0  0  0  0
 14 16  2  0  0  0  0
 16  5  1  0  0  0  0
 16 15  1  0  0  0  0
 17 24  1  1  0  0  0
 17 18  1  0  0  0  0
 17  1  1  0  0  0  0
 19 18  1  0  0  0  0
 20 21  2  0  0  0  0
 20 19  1  0  0  0  0
 22 20  1  0  0  0  0
 23 22  1  0  0  0  0
 25 30  2  0  0  0  0
 26 25  1  0  0  0  0
 26 27  1  0  0  0  0
 27 29  2  0  0  0  0
 29 28  1  0  0  0  0
 29 24  1  0  0  0  0
 30 28  1  0  0  0  0
 31 25  1  0  0  0  0
 32 31  1  0  0  0  0
M  END
>  <MODEL>
3

>  <REMARK>
 VINA RESULT:      -7.2      1.289      2.132
  Name = 
  10 active torsions:
  status: ('A' for Active; 'I' for Inactive)
    1  A    between atoms: O_2  and  C_12
    2  A    between atoms: C_4  and  C_5
    3  A    between atoms: C_4  and  C_30
    4  A    between atoms: C_5  and  C_8
    5  A    between atoms: C_5  and  C_15
    6  A    between atoms: C_7  and  C_25
    7  A    between atoms: C_8  and  C_32
    8  A    between atoms: C_12  and  C_32
    9  A    between atoms: C_13  and  C_22
   10  A    between atoms: C_15  and  C_19
                            x       y       z     vdW  Elec       q    Type
                         _______ _______ _______ _____ _____    ______ ____

>  <TORSDO>
F 10

$$$$
=
 OpenBabel11042416363D

 32 35  0  0  1  0  0  0  0  0999 V2000
  193.0380  177.1660  144.5690 C   0  0  0  0  0  2  0  0  0  0  0  0
  187.7580  178.0830  141.9760 C   0  0  0  0  0  3  0  0  0  0  0  0
  190.1200  178.1560  142.3860 O   0  0  0  0  0  0  0  0  0  0  0  0
  191.2650  175.7770  143.1860 C   0  0  0  0  0  2  0  0  0  0  0  0
  186.5080  177.4620  142.0590 C   0  0  0  0  0  0  0  0  0  0  0  0
  187.5490  175.5540  143.1320 C   0  0  0  0  0  3  0  0  0  0  0  0
  186.4070  176.1980  142.6520 C   0  0  0  0  0  3  0  0  0  0  0  0
  188.8050  176.1600  143.0330 C   0  0  0  0  0  0  0  0  0  0  0  0
  190.6650  177.6740  144.6330 O   0  0  0  0  0  0  0  0  0  0  0  0
  191.0640  178.3430  143.4510 C   0  0  1  0  0  3  0  0  0  0  0  0
  188.9070  177.4580  142.4770 C   0  0  0  0  0  0  0  0  0  0  0  0
  191.6880  177.0710  143.8790 C   0  0  1  0  0  0  0  0  0  0  0  0
  189.9160  175.4320  143.4790 O   0  0  0  0  0  0  0  0  0  0  0  0
  184.1890  178.3000  142.3410 O   0  0  0  0  0  1  0  0  0  0  0  0
  185.2890  178.5800  140.3560 O   0  0  0  0  0  0  0  0  0  0  0  0
  185.3100  178.1390  141.5360 C   0  0  0  0  0  0  0  0  0  0  0  0
  193.4200  175.8390  145.2260 C   0  0  1  0  0  3  0  0  0  0  0  0
  194.8690  175.4810  144.9310 C   0  0  0  0  0  2  0  0  0  0  0  0
  195.2120  174.1240  145.5210 C   0  0  0  0  0  2  0  0  0  0  0  0
  196.6870  173.9970  145.6630 C   0  0  0  0  0  0  0  0  0  0  0  0
  197.1700  173.4490  146.6890 O   0  0  0  0  0  0  0  0  0  0  0  0
  197.5220  174.5110  144.6750 O   0  0  0  0  0  0  0  0  0  0  0  0
  197.6800  173.8710  143.5100 O   0  0  0  0  0  1  0  0  0  0  0  0
  193.1370  175.8330  146.7330 C   0  0  0  0  0  2  0  0  0  0  0  0
  188.8620  176.1220  147.0860 C   0  0  0  0  0  0  0  0  0  0  0  0
  189.4380  174.7310  147.0300 C   0  0  0  0  0  2  0  0  0  0  0  0
  190.9050  174.7710  146.6790 C   0  0  0  0  0  3  0  0  0  0  0  0
  191.0720  176.9430  147.8520 C   0  0  0  0  0  2  0  0  0  0  0  0
  191.6770  175.7960  147.0790 C   0  0  0  0  0  0  0  0  0  0  0  0
  189.6270  177.1550  147.4730 C   0  0  0  0  0  3  0  0  0  0  0  0
  187.4210  176.3360  146.7660 C   0  0  0  0  0  2  0  0  0  0  0  0
  187.2830  177.3980  145.8920 F   0  0  0  0  0  0  0  0  0  0  0  0
  2  5  2  0  0  0  0
  2 11  1  0  0  0  0
  3 11  1  0  0  0  0
  4 13  1  0  0  0  0
  4 12  1  0  0  0  0
  5  7  1  0  0  0  0
  7  6  2  0  0  0  0
  8  6  1  0  0  0  0
  8 13  1  0  0  0  0
 10  3  1  6  0  0  0
 10 12  1  0  0  0  0
 10  9  1  0  0  0  0
 11  8  2  0  0  0  0
 12  1  1  1  0  0  0
 12  9  1  0  0  0  0
 15 16  2  0  0  0  0
 16  5  1  0  0  0  0
 16 14  1  0  0  0  0
 17  1  1  1  0  0  0
 17 24  1  0  0  0  0
 18 17  1  0  0  0  0
 18 19  1  0  0  0  0
 19 20  1  0  0  0  0
 20 21  2  0  0  0  0
 22 20  1  0  0  0  0
 23 22  1  0  0  0  0
 24 29  1  0  0  0  0
 25 30  2  0  0  0  0
 26 25  1  0  0  0  0
 27 26  1  0  0  0  0
 27 29  2  0  0  0  0
 29 28  1  0  0  0  0
 30 28  1  0  0  0  0
 31 25  1  0  0  0  0
 32 31  1  0  0  0  0
M  END
>  <MODEL>
4

>  <REMARK>
 VINA RESULT:      -7.1      2.360      3.648
  Name = 
  10 active torsions:
  status: ('A' for Active; 'I' for Inactive)
    1  A    between atoms: O_2  and  C_12
    2  A    between atoms: C_4  and  C_5
    3  A    between atoms: C_4  and  C_30
    4  A    between atoms: C_5  and  C_8
    5  A    between atoms: C_5  and  C_15
    6  A    between atoms: C_7  and  C_25
    7  A    between atoms: C_8  and  C_32
    8  A    between atoms: C_12  and  C_32
    9  A    between atoms: C_13  and  C_22
   10  A    between atoms: C_15  and  C_19
                            x       y       z     vdW  Elec       q    Type
                         _______ _______ _______ _____ _____    ______ ____

>  <TORSDO>
F 10

$$$$
=
 OpenBabel11042416363D

 32 35  0  0  1  0  0  0  0  0999 V2000
  188.2600  174.9920  143.7140 C   0  0  0  0  0  2  0  0  0  0  0  0
  194.1730  174.7060  144.3500 C   0  0  0  0  0  3  0  0  0  0  0  0
  192.0090  174.7650  143.3180 O   0  0  0  0  0  0  0  0  0  0  0  0
  190.2450  176.6170  144.3510 C   0  0  0  0  0  2  0  0  0  0  0  0
  195.0630  175.0410  145.3760 C   0  0  0  0  0  0  0  0  0  0  0  0
  193.3150  176.3400  146.4400 C   0  0  0  0  0  3  0  0  0  0  0  0
  194.6220  175.8510  146.4290 C   0  0  0  0  0  3  0  0  0  0  0  0
  192.4260  176.0260  145.4070 C   0  0  0  0  0  0  0  0  0  0  0  0
  190.2730  174.2010  144.8170 O   0  0  0  0  0  0  0  0  0  0  0  0
  190.6860  174.2270  143.4630 C   0  0  1  0  0  3  0  0  0  0  0  0
  192.8520  175.1680  144.3640 C   0  0  0  0  0  0  0  0  0  0  0  0
  189.7340  175.2190  144.0090 C   0  0  1  0  0  0  0  0  0  0  0  0
  191.1490  176.6000  145.4500 O   0  0  0  0  0  0  0  0  0  0  0  0
  196.8900  173.6630  146.3360 O   0  0  0  0  0  1  0  0  0  0  0  0
  197.2370  174.8880  144.4360 O   0  0  0  0  0  0  0  0  0  0  0  0
  196.4450  174.5360  145.3500 C   0  0  0  0  0  0  0  0  0  0  0  0
  187.6110  176.2480  143.1320 C   0  0  1  0  0  3  0  0  0  0  0  0
  187.8620  176.3500  141.6360 C   0  0  0  0  0  2  0  0  0  0  0  0
  187.5210  177.7420  141.1330 C   0  0  0  0  0  2  0  0  0  0  0  0
  186.4380  177.6580  140.1180 C   0  0  0  0  0  0  0  0  0  0  0  0
  185.2400  177.8270  140.4670 O   0  0  0  0  0  0  0  0  0  0  0  0
  186.7540  177.3640  138.7940 O   0  0  0  0  0  0  0  0  0  0  0  0
  186.8710  176.0940  138.3840 O   0  0  0  0  0  1  0  0  0  0  0  0
  186.1150  176.3320  143.4570 C   0  0  0  0  0  2  0  0  0  0  0  0
  185.9080  178.8710  146.9210 C   0  0  0  0  0  0  0  0  0  0  0  0
  185.5530  179.5060  145.6020 C   0  0  0  0  0  2  0  0  0  0  0  0
  185.8840  178.5830  144.4550 C   0  0  0  0  0  3  0  0  0  0  0  0
  185.3880  176.6590  145.9290 C   0  0  0  0  0  2  0  0  0  0  0  0
  185.7890  177.2500  144.6000 C   0  0  0  0  0  0  0  0  0  0  0  0
  185.8280  177.5390  147.0730 C   0  0  0  0  0  3  0  0  0  0  0  0
  186.2920  179.7340  148.0740 C   0  0  0  0  0  2  0  0  0  0  0  0
  187.4520  179.2580  148.6570 F   0  0  0  0  0  0  0  0  0  0  0  0
  2 11  2  0  0  0  0
  2  5  1  0  0  0  0
  3 11  1  0  0  0  0
  4 13  1  0  0  0  0
  5  7  2  0  0  0  0
  7  6  1  0  0  0  0
  8 13  1  0  0  0  0
  8  6  2  0  0  0  0
 10  3  1  1  0  0  0
 10 12  1  0  0  0  0
 10  9  1  0  0  0  0
 11  8  1  0  0  0  0
 12  1  1  6  0  0  0
 12  4  1  0  0  0  0
 12  9  1  0  0  0  0
 15 16  2  0  0  0  0
 16  5  1  0  0  0  0
 16 14  1  0  0  0  0
 17 18  1  6  0  0  0
 17 24  1  0  0  0  0
 17  1  1  0  0  0  0
 19 18  1  0  0  0  0
 20 21  2  0  0  0  0
 20 19  1  0  0  0  0
 22 20  1  0  0  0  0
 23 22  1  0  0  0  0
 24 29  1  0  0  0  0
 25 30  2  0  0  0  0
 25 31  1  0  0  0  0
 26 25  1  0  0  0  0
 27 29  2  0  0  0  0
 27 26  1  0  0  0  0
 28 30  1  0  0  0  0
 29 28  1  0  0  0  0
 31 32  1  0  0  0  0
M  END
>  <MODEL>
5

>  <REMARK>
 VINA RESULT:      -7.1      2.999      8.251
  Name = 
  10 active torsions:
  status: ('A' for Active; 'I' for Inactive)
    1  A    between atoms: O_2  and  C_12
    2  A    between atoms: C_4  and  C_5
    3  A    between atoms: C_4  and  C_30
    4  A    between atoms: C_5  and  C_8
    5  A    between atoms: C_5  and  C_15
    6  A    between atoms: C_7  and  C_25
    7  A    between atoms: C_8  and  C_32
    8  A    between atoms: C_12  and  C_32
    9  A    between atoms: C_13  and  C_22
   10  A    between atoms: C_15  and  C_19
                            x       y       z     vdW  Elec       q    Type
                         _______ _______ _______ _____ _____    ______ ____

>  <TORSDO>
F 10

$$$$
=
 OpenBabel11042416363D

 32 35  0  0  1  0  0  0  0  0999 V2000
  189.5580  175.5450  144.8830 C   0  0  0  0  0  2  0  0  0  0  0  0
  194.4690  172.1840  145.0930 C   0  0  0  0  0  3  0  0  0  0  0  0
  192.2860  172.9640  144.4770 O   0  0  0  0  0  0  0  0  0  0  0  0
  192.0650  175.6810  144.0570 C   0  0  0  0  0  2  0  0  0  0  0  0
  195.7820  172.3990  145.5240 C   0  0  0  0  0  0  0  0  0  0  0  0
  195.3750  174.7880  145.5090 C   0  0  0  0  0  3  0  0  0  0  0  0
  196.2270  173.7080  145.7440 C   0  0  0  0  0  3  0  0  0  0  0  0
  194.0680  174.5820  145.0580 C   0  0  0  0  0  0  0  0  0  0  0  0
  191.3710  174.4490  146.0700 O   0  0  0  0  0  0  0  0  0  0  0  0
  191.0870  173.5030  145.0550 C   0  0  1  0  0  3  0  0  0  0  0  0
  193.5970  173.2580  144.8790 C   0  0  0  0  0  0  0  0  0  0  0  0
  190.9600  174.9600  144.8250 C   0  0  1  0  0  0  0  0  0  0  0  0
  193.2880  175.7130  144.7850 O   0  0  0  0  0  0  0  0  0  0  0  0
  197.9410  171.2270  145.1700 O   0  0  0  0  0  0  0  0  0  0  0  0
  196.3160  170.2920  146.4810 O   0  0  0  0  0  1  0  0  0  0  0  0
  196.6800  171.2560  145.7540 C   0  0  0  0  0  0  0  0  0  0  0  0
  189.5830  177.0010  145.3470 C   0  0  1  0  0  3  0  0  0  0  0  0
  188.8170  177.8940  144.3840 C   0  0  0  0  0  2  0  0  0  0  0  0
  188.4060  177.1150  143.1470 C   0  0  0  0  0  2  0  0  0  0  0  0
  187.3770  177.8770  142.3920 C   0  0  0  0  0  0  0  0  0  0  0  0
  187.5590  178.1340  141.1720 O   0  0  0  0  0  0  0  0  0  0  0  0
  186.2330  178.3260  143.0460 O   0  0  0  0  0  0  0  0  0  0  0  0
  186.0510  179.6310  143.2890 O   0  0  0  0  0  1  0  0  0  0  0  0
  189.0750  177.1610  146.7860 C   0  0  0  0  0  2  0  0  0  0  0  0
  184.9390  178.2880  146.4610 C   0  0  0  0  0  0  0  0  0  0  0  0
  185.2390  176.8130  146.4010 C   0  0  0  0  0  2  0  0  0  0  0  0
  186.7240  176.5700  146.2960 C   0  0  0  0  0  3  0  0  0  0  0  0
  187.0990  178.6200  147.6300 C   0  0  0  0  0  2  0  0  0  0  0  0
  187.5970  177.4040  146.8870 C   0  0  0  0  0  0  0  0  0  0  0  0
  185.8100  179.1320  147.0380 C   0  0  0  0  0  3  0  0  0  0  0  0
  183.6430  178.7980  145.9280 C   0  0  0  0  0  2  0  0  0  0  0  0
  183.6540  178.7630  144.5460 F   0  0  0  0  0  0  0  0  0  0  0  0
  1 17  1  0  0  0  0
  2  5  1  0  0  0  0
  3 11  1  0  0  0  0
  4 13  1  0  0  0  0
  4 12  1  0  0  0  0
  5  7  2  0  0  0  0
  5 16  1  0  0  0  0
  6  7  1  0  0  0  0
  8  6  2  0  0  0  0
 10  3  1  6  0  0  0
 10  9  1  0  0  0  0
 11  8  1  0  0  0  0
 11  2  2  0  0  0  0
 12  1  1  6  0  0  0
 12 10  1  0  0  0  0
 12  9  1  0  0  0  0
 13  8  1  0  0  0  0
 14 16  2  0  0  0  0
 16 15  1  0  0  0  0
 17 18  1  6  0  0  0
 17 24  1  0  0  0  0
 19 18  1  0  0  0  0
 20 22  1  0  0  0  0
 20 19  1  0  0  0  0
 21 20  2  0  0  0  0
 22 23  1  0  0  0  0
 24 29  1  0  0  0  0
 25 30  2  0  0  0  0
 26 25  1  0  0  0  0
 27 26  1  0  0  0  0
 27 29  2  0  0  0  0
 29 28  1  0  0  0  0
 30 28  1  0  0  0  0
 31 25  1  0  0  0  0
 32 31  1  0  0  0  0
M  END
>  <MODEL>
6

>  <REMARK>
 VINA RESULT:      -6.7      2.688      8.502
  Name = 
  10 active torsions:
  status: ('A' for Active; 'I' for Inactive)
    1  A    between atoms: O_2  and  C_12
    2  A    between atoms: C_4  and  C_5
    3  A    between atoms: C_4  and  C_30
    4  A    between atoms: C_5  and  C_8
    5  A    between atoms: C_5  and  C_15
    6  A    between atoms: C_7  and  C_25
    7  A    between atoms: C_8  and  C_32
    8  A    between atoms: C_12  and  C_32
    9  A    between atoms: C_13  and  C_22
   10  A    between atoms: C_15  and  C_19
                            x       y       z     vdW  Elec       q    Type
                         _______ _______ _______ _____ _____    ______ ____

>  <TORSDO>
F 10

$$$$
=
 OpenBabel11042416363D

 32 35  0  0  1  0  0  0  0  0999 V2000
  192.6440  176.3880  144.2540 C   0  0  0  0  0  2  0  0  0  0  0  0
  186.8370  177.7020  144.2940 C   0  0  0  0  0  3  0  0  0  0  0  0
  189.0100  177.0820  143.4920 O   0  0  0  0  0  0  0  0  0  0  0  0
  190.3860  175.2730  145.0550 C   0  0  0  0  0  2  0  0  0  0  0  0
  185.8530  177.7500  145.2870 C   0  0  0  0  0  0  0  0  0  0  0  0
  187.3030  176.4810  146.7570 C   0  0  0  0  0  3  0  0  0  0  0  0
  186.0980  177.1460  146.5260 C   0  0  0  0  0  3  0  0  0  0  0  0
  188.2830  176.4120  145.7630 C   0  0  0  0  0  0  0  0  0  0  0  0
  190.7370  177.7060  144.9780 O   0  0  0  0  0  0  0  0  0  0  0  0
  190.3950  177.4330  143.6310 C   0  0  1  0  0  3  0  0  0  0  0  0
  188.0600  177.0610  144.5230 C   0  0  0  0  0  0  0  0  0  0  0  0
  191.1400  176.4600  144.4620 C   0  0  1  0  0  0  0  0  0  0  0  0
  189.4430  175.6770  146.0410 O   0  0  0  0  0  0  0  0  0  0  0  0
  184.2340  178.8170  143.7380 O   0  0  0  0  0  0  0  0  0  0  0  0
  183.7860  178.6920  145.9780 O   0  0  0  0  0  1  0  0  0  0  0  0
  184.5780  178.4380  145.0310 C   0  0  0  0  0  0  0  0  0  0  0  0
  193.1390  174.9420  144.2780 C   0  0  1  0  0  3  0  0  0  0  0  0
  193.6520  174.5180  142.9110 C   0  0  0  0  0  2  0  0  0  0  0  0
  194.0890  175.7300  142.1070 C   0  0  0  0  0  2  0  0  0  0  0  0
  195.5610  175.6930  141.9020 C   0  0  0  0  0  0  0  0  0  0  0  0
  196.0830  174.7190  141.2970 O   0  0  0  0  0  0  0  0  0  0  0  0
  196.3540  176.7200  142.4060 O   0  0  0  0  0  0  0  0  0  0  0  0
  196.3980  176.9690  143.7210 O   0  0  0  0  0  1  0  0  0  0  0  0
  194.1900  174.7060  145.3700 C   0  0  0  0  0  2  0  0  0  0  0  0
  196.2330  170.9620  145.9100 C   0  0  0  0  0  0  0  0  0  0  0  0
  194.7920  170.8830  145.4760 C   0  0  0  0  0  2  0  0  0  0  0  0
  194.1360  172.2400  145.5460 C   0  0  0  0  0  3  0  0  0  0  0  0
  196.3190  173.2660  145.0000 C   0  0  0  0  0  2  0  0  0  0  0  0
  194.8440  173.3560  145.3040 C   0  0  0  0  0  0  0  0  0  0  0  0
  196.9470  172.0770  145.6840 C   0  0  0  0  0  3  0  0  0  0  0  0
  196.8790  169.7730  146.5380 C   0  0  0  0  0  2  0  0  0  0  0  0
  196.1640  169.3810  147.6540 F   0  0  0  0  0  0  0  0  0  0  0  0
  1 17  1  0  0  0  0
  2 11  2  0  0  0  0
  2  5  1  0  0  0  0
  3 11  1  0  0  0  0
  4 13  1  0  0  0  0
  5  7  2  0  0  0  0
  7  6  1  0  0  0  0
  8 13  1  0  0  0  0
  8  6  2  0  0  0  0
 10  3  1  1  0  0  0
 10 12  1  0  0  0  0
 10  9  1  0  0  0  0
 11  8  1  0  0  0  0
 12  1  1  6  0  0  0
 12  9  1  0  0  0  0
 12  4  1  0  0  0  0
 14 16  2  0  0  0  0
 16  5  1  0  0  0  0
 16 15  1  0  0  0  0
 17 18  1  6  0  0  0
 17 24  1  0  0  0  0
 19 18  1  0  0  0  0
 20 19  1  0  0  0  0
 20 22  1  0  0  0  0
 21 20  2  0  0  0  0
 22 23  1  0  0  0  0
 25 31  1  0  0  0  0
 26 27  1  0  0  0  0
 26 25  1  0  0  0  0
 28 29  1  0  0  0  0
 28 30  1  0  0  0  0
 29 24  1  0  0  0  0
 29 27  2  0  0  0  0
 30 25  2  0  0  0  0
 31 32  1  0  0  0  0
M  END
>  <MODEL>
7

>  <REMARK>
 VINA RESULT:      -6.7      3.039      4.172
  Name = 
  10 active torsions:
  status: ('A' for Active; 'I' for Inactive)
    1  A    between atoms: O_2  and  C_12
    2  A    between atoms: C_4  and  C_5
    3  A    between atoms: C_4  and  C_30
    4  A    between atoms: C_5  and  C_8
    5  A    between atoms: C_5  and  C_15
    6  A    between atoms: C_7  and  C_25
    7  A    between atoms: C_8  and  C_32
    8  A    between atoms: C_12  and  C_32
    9  A    between atoms: C_13  and  C_22
   10  A    between atoms: C_15  and  C_19
                            x       y       z     vdW  Elec       q    Type
                         _______ _______ _______ _____ _____    ______ ____

>  <TORSDO>
F 10

$$$$
=
 OpenBabel11042416363D

 32 35  0  0  1  0  0  0  0  0999 V2000
  190.7730  176.3810  146.6300 C   0  0  0  0  0  2  0  0  0  0  0  0
  185.9530  178.1090  143.5910 C   0  0  0  0  0  3  0  0  0  0  0  0
  187.5650  177.9140  145.3560 O   0  0  0  0  0  0  0  0  0  0  0  0
  190.2070  177.9310  144.5650 C   0  0  0  0  0  2  0  0  0  0  0  0
  185.5910  178.0900  142.2400 C   0  0  0  0  0  0  0  0  0  0  0  0
  187.9090  177.7040  141.6450 C   0  0  0  0  0  3  0  0  0  0  0  0
  186.5750  177.8730  141.2690 C   0  0  0  0  0  3  0  0  0  0  0  0
  188.2810  177.7420  142.9920 C   0  0  0  0  0  0  0  0  0  0  0  0
  188.8740  175.9570  145.1770 O   0  0  0  0  0  0  0  0  0  0  0  0
  188.3430  176.9320  146.0560 C   0  0  1  0  0  3  0  0  0  0  0  0
  187.2830  177.9140  143.9820 C   0  0  0  0  0  0  0  0  0  0  0  0
  189.7640  176.9420  145.6410 C   0  0  1  0  0  0  0  0  0  0  0  0
  189.6440  177.6260  143.2940 O   0  0  0  0  0  0  0  0  0  0  0  0
  183.8240  178.2770  140.5070 O   0  0  0  0  0  0  0  0  0  0  0  0
  183.2970  178.4640  142.7250 O   0  0  0  0  0  1  0  0  0  0  0  0
  184.1860  178.2860  141.8490 C   0  0  0  0  0  0  0  0  0  0  0  0
  192.0310  175.8850  145.9180 C   0  0  1  0  0  3  0  0  0  0  0  0
  193.2860  176.3520  146.6380 C   0  0  0  0  0  2  0  0  0  0  0  0
  194.1760  177.1450  145.6960 C   0  0  0  0  0  2  0  0  0  0  0  0
  195.1620  176.2370  145.0530 C   0  0  0  0  0  0  0  0  0  0  0  0
  195.6570  175.2850  145.7130 O   0  0  0  0  0  0  0  0  0  0  0  0
  195.5540  176.4640  143.7360 O   0  0  0  0  0  0  0  0  0  0  0  0
  196.8090  176.8340  143.4490 O   0  0  0  0  0  1  0  0  0  0  0  0
  192.0280  174.3630  145.7260 C   0  0  0  0  0  2  0  0  0  0  0  0
  191.1190  172.7470  141.8470 C   0  0  0  0  0  0  0  0  0  0  0  0
  190.2170  172.3250  142.9780 C   0  0  0  0  0  2  0  0  0  0  0  0
  190.7750  172.7730  144.3060 C   0  0  0  0  0  3  0  0  0  0  0  0
  191.7480  174.7450  143.1720 C   0  0  0  0  0  2  0  0  0  0  0  0
  191.4760  173.9160  144.4030 C   0  0  0  0  0  0  0  0  0  0  0  0
  191.8330  173.8800  141.9390 C   0  0  0  0  0  3  0  0  0  0  0  0
  191.1690  171.9280  140.6010 C   0  0  0  0  0  2  0  0  0  0  0  0
  190.0180  171.1720  140.4850 F   0  0  0  0  0  0  0  0  0  0  0  0
  2 11  1  0  0  0  0
  3 10  1  0  0  0  0
  4 12  1  0  0  0  0
  5  2  2  0  0  0  0
  6  8  1  0  0  0  0
  7  6  2  0  0  0  0
  7  5  1  0  0  0  0
  8 13  1  0  0  0  0
  8 11  2  0  0  0  0
  9 12  1  0  0  0  0
 10  9  1  6  0  0  0
 11  3  1  0  0  0  0
 12 10  1  0  0  0  0
 12  1  1  1  0  0  0
 13  4  1  0  0  0  0
 14 16  2  0  0  0  0
 16  5  1  0  0  0  0
 16 15  1  0  0  0  0
 17 24  1  1  0  0  0
 17  1  1  0  0  0  0
 17 18  1  0  0  0  0
 19 18  1  0  0  0  0
 20 19  1  0  0  0  0
 20 21  2  0  0  0  0
 22 20  1  0  0  0  0
 23 22  1  0  0  0  0
 25 30  2  0  0  0  0
 25 26  1  0  0  0  0
 26 27  1  0  0  0  0
 27 29  2  0  0  0  0
 28 29  1  0  0  0  0
 29 24  1  0  0  0  0
 30 28  1  0  0  0  0
 31 25  1  0  0  0  0
 32 31  1  0  0  0  0
M  END
>  <MODEL>
8

>  <REMARK>
 VINA RESULT:      -6.6      1.877      2.795
  Name = 
  10 active torsions:
  status: ('A' for Active; 'I' for Inactive)
    1  A    between atoms: O_2  and  C_12
    2  A    between atoms: C_4  and  C_5
    3  A    between atoms: C_4  and  C_30
    4  A    between atoms: C_5  and  C_8
    5  A    between atoms: C_5  and  C_15
    6  A    between atoms: C_7  and  C_25
    7  A    between atoms: C_8  and  C_32
    8  A    between atoms: C_12  and  C_32
    9  A    between atoms: C_13  and  C_22
   10  A    between atoms: C_15  and  C_19
                            x       y       z     vdW  Elec       q    Type
                         _______ _______ _______ _____ _____    ______ ____

>  <TORSDO>
F 10

$$$$
=
 OpenBabel11042416363D

 32 35  0  0  1  0  0  0  0  0999 V2000
  192.6000  176.6020  142.8590 C   0  0  0  0  0  2  0  0  0  0  0  0
  187.1800  178.0040  144.8850 C   0  0  0  0  0  3  0  0  0  0  0  0
  188.9990  177.6190  143.3700 O   0  0  0  0  0  0  0  0  0  0  0  0
  190.4950  175.3530  143.8550 C   0  0  0  0  0  2  0  0  0  0  0  0
  186.4840  177.7490  146.0720 C   0  0  0  0  0  0  0  0  0  0  0  0
  188.0930  176.0210  146.6200 C   0  0  0  0  0  3  0  0  0  0  0  0
  186.9550  176.7620  146.9450 C   0  0  0  0  0  3  0  0  0  0  0  0
  188.7810  176.2560  145.4260 C   0  0  0  0  0  0  0  0  0  0  0  0
  191.1010  177.6620  144.4470 O   0  0  0  0  0  0  0  0  0  0  0  0
  190.4070  177.8620  143.2290 C   0  0  1  0  0  3  0  0  0  0  0  0
  188.3370  177.2860  144.5610 C   0  0  0  0  0  0  0  0  0  0  0  0
  191.2140  176.6470  143.4800 C   0  0  1  0  0  0  0  0  0  0  0  0
  189.8790  175.4360  145.1350 O   0  0  0  0  0  0  0  0  0  0  0  0
  184.0980  178.3160  145.6910 O   0  0  0  0  0  0  0  0  0  0  0  0
  185.2950  179.3790  147.3240 O   0  0  0  0  0  1  0  0  0  0  0  0
  185.2760  178.5220  146.4000 C   0  0  0  0  0  0  0  0  0  0  0  0
  193.3960  175.3990  143.3640 C   0  0  1  0  0  3  0  0  0  0  0  0
  194.2640  174.8150  142.2590 C   0  0  0  0  0  2  0  0  0  0  0  0
  193.9230  173.3530  142.0310 C   0  0  0  0  0  2  0  0  0  0  0  0
  192.5720  173.2420  141.4180 C   0  0  0  0  0  0  0  0  0  0  0  0
  192.2700  173.9700  140.4350 O   0  0  0  0  0  0  0  0  0  0  0  0
  191.6420  172.3550  141.9550 O   0  0  0  0  0  0  0  0  0  0  0  0
  191.6530  172.0590  143.2610 O   0  0  0  0  0  1  0  0  0  0  0  0
  194.2240  175.7310  144.6110 C   0  0  0  0  0  2  0  0  0  0  0  0
  196.0640  172.0220  145.7700 C   0  0  0  0  0  0  0  0  0  0  0  0
  196.8190  173.2810  146.1110 C   0  0  0  0  0  2  0  0  0  0  0  0
  196.1850  174.4820  145.4550 C   0  0  0  0  0  3  0  0  0  0  0  0
  193.9850  173.3680  145.6630 C   0  0  0  0  0  2  0  0  0  0  0  0
  194.8550  174.5340  145.2610 C   0  0  0  0  0  0  0  0  0  0  0  0
  194.7380  172.0640  145.5630 C   0  0  0  0  0  3  0  0  0  0  0  0
  196.7880  170.7190  145.7230 C   0  0  0  0  0  2  0  0  0  0  0  0
  196.6100  170.0350  146.9100 F   0  0  0  0  0  0  0  0  0  0  0  0
  1 17  1  0  0  0  0
  2  5  1  0  0  0  0
  3 11  1  0  0  0  0
  4 13  1  0  0  0  0
  5 16  1  0  0  0  0
  5  7  2  0  0  0  0
  6  7  1  0  0  0  0
  8  6  2  0  0  0  0
 10  3  1  1  0  0  0
 10 12  1  0  0  0  0
 10  9  1  0  0  0  0
 11  2  2  0  0  0  0
 11  8  1  0  0  0  0
 12  1  1  6  0  0  0
 12  4  1  0  0  0  0
 12  9  1  0  0  0  0
 13  8  1  0  0  0  0
 14 16  2  0  0  0  0
 16 15  1  0  0  0  0
 17 18  1  6  0  0  0
 17 24  1  0  0  0  0
 19 18  1  0  0  0  0
 20 22  1  0  0  0  0
 20 19  1  0  0  0  0
 21 20  2  0  0  0  0
 22 23  1  0  0  0  0
 24 29  1  0  0  0  0
 25 26  1  0  0  0  0
 27 26  1  0  0  0  0
 29 27  2  0  0  0  0
 29 28  1  0  0  0  0
 30 28  1  0  0  0  0
 30 25  2  0  0  0  0
 31 25  1  0  0  0  0
 31 32  1  0  0  0  0
M  END
>  <MODEL>
9

>  <REMARK>
 VINA RESULT:      -6.6      3.361      4.744
  Name = 
  10 active torsions:
  status: ('A' for Active; 'I' for Inactive)
    1  A    between atoms: O_2  and  C_12
    2  A    between atoms: C_4  and  C_5
    3  A    between atoms: C_4  and  C_30
    4  A    between atoms: C_5  and  C_8
    5  A    between atoms: C_5  and  C_15
    6  A    between atoms: C_7  and  C_25
    7  A    between atoms: C_8  and  C_32
    8  A    between atoms: C_12  and  C_32
    9  A    between atoms: C_13  and  C_22
   10  A    between atoms: C_15  and  C_19
                            x       y       z     vdW  Elec       q    Type
                         _______ _______ _______ _____ _____    ______ ____

>  <TORSDO>
F 10

$$$$
