=
 OpenBabel11042418253D

 28 31  0  0  1  0  0  0  0  0999 V2000
  184.4700  178.6540  146.4060 C   0  0  0  0  0  3  0  0  0  0  0  0
  184.2510  178.1630  144.0260 N   0  0  0  0  0  2  0  0  0  0  0  0
  186.4290  177.9160  147.6110 C   0  0  0  0  0  3  0  0  0  0  0  0
  186.9280  177.3470  146.4310 C   0  0  0  0  0  0  0  0  0  0  0  0
  185.1970  178.5690  147.5940 C   0  0  0  0  0  3  0  0  0  0  0  0
  184.9910  178.0790  145.2460 C   0  0  0  0  0  0  0  0  0  0  0  0
  186.1960  177.4430  145.2850 N   0  0  0  0  0  0  0  0  0  0  0  0
  189.3070  177.1510  145.6670 C   0  0  0  0  0  3  0  0  0  0  0  0
  188.2310  176.6500  146.4150 C   0  0  0  0  0  0  0  0  0  0  0  0
  189.6360  174.8050  147.1440 C   0  0  0  0  0  3  0  0  0  0  0  0
  191.9210  174.6250  146.3940 O   0  0  0  0  0  0  0  0  0  0  0  0
  194.0910  174.3860  145.6950 O   0  0  0  0  0  0  0  0  0  0  0  0
  190.5420  176.4900  145.6550 C   0  0  0  0  0  0  0  0  0  0  0  0
  190.7040  175.3100  146.3970 C   0  0  0  0  0  0  0  0  0  0  0  0
  191.6730  177.0170  144.8710 C   0  0  0  0  0  0  0  0  0  0  0  0
  188.4090  175.4710  147.1550 C   0  0  0  0  0  3  0  0  0  0  0  0
  193.0240  176.3650  144.9160 C   0  0  0  0  0  2  0  0  0  0  0  0
  191.5240  178.0450  144.1600 O   0  0  0  0  0  0  0  0  0  0  0  0
  193.0380  175.0740  145.6810 C   0  0  0  0  0  0  0  0  0  0  0  0
  184.7370  177.6220  142.7630 C   0  0  0  0  0  2  0  0  0  0  0  0
  187.0910  175.7830  142.4460 C   0  0  0  0  0  2  0  0  0  0  0  0
  189.4130  176.4040  142.0450 C   0  0  0  0  0  2  0  0  0  0  0  0
  186.1140  178.1260  142.4740 C   0  0  0  0  0  0  0  0  0  0  0  0
  188.8980  174.2140  143.1100 C   0  0  0  0  0  1  0  0  0  0  0  0
  188.5570  177.6560  142.0030 C   0  0  0  0  0  2  0  0  0  0  0  0
  188.4500  175.2240  142.0740 C   0  0  1  0  0  3  0  0  0  0  0  0
  187.2120  177.2200  142.3130 N   0  0  0  0  0  0  0  0  0  0  0  0
  186.2970  179.3670  142.3530 O   0  0  0  0  0  0  0  0  0  0  0  0
  1  5  2  0  0  0  0
  2  6  1  0  0  0  0
  4  3  2  0  0  0  0
  5  3  1  0  0  0  0
  6  7  2  0  0  0  0
  6  1  1  0  0  0  0
  7  4  1  0  0  0  0
  8  9  1  0  0  0  0
  9  4  1  0  0  0  0
  9 16  2  0  0  0  0
 10 16  1  0  0  0  0
 11 14  1  0  0  0  0
 13  8  2  0  0  0  0
 13 14  1  0  0  0  0
 14 10  2  0  0  0  0
 15 17  1  0  0  0  0
 15 13  1  0  0  0  0
 17 19  1  0  0  0  0
 18 15  2  0  0  0  0
 19 12  2  0  0  0  0
 19 11  1  0  0  0  0
 20  2  1  0  0  0  0
 22 26  1  0  0  0  0
 23 20  1  0  0  0  0
 25 22  1  0  0  0  0
 25 27  1  0  0  0  0
 26 21  1  0  0  0  0
 26 24  1  1  0  0  0
 27 21  1  0  0  0  0
 27 23  1  0  0  0  0
 28 23  2  0  0  0  0
M  END
>  <MODEL>
1

>  <REMARK>
 VINA RESULT:      -8.4      0.000      0.000
  Name = 
  3 active torsions:
  status: ('A' for Active; 'I' for Inactive)
    1  A    between atoms: N_5  and  C_24
    2  A    between atoms: C_6  and  C_14
    3  A    between atoms: C_7  and  C_24
                            x       y       z     vdW  Elec       q    Type
                         _______ _______ _______ _____ _____    ______ ____

>  <TORSDO>
F 3

$$$$
=
 OpenBabel11042418253D

 28 31  0  0  1  0  0  0  0  0999 V2000
  192.4250  176.3950  147.0950 C   0  0  0  0  0  3  0  0  0  0  0  0
  193.1920  175.8520  144.8430 N   0  0  0  0  0  2  0  0  0  0  0  0
  190.1200  177.0120  147.4640 C   0  0  0  0  0  3  0  0  0  0  0  0
  189.8700  176.8580  146.0930 C   0  0  0  0  0  0  0  0  0  0  0  0
  191.4020  176.7790  147.9620 C   0  0  0  0  0  3  0  0  0  0  0  0
  192.1480  176.2480  145.7350 C   0  0  0  0  0  0  0  0  0  0  0  0
  190.8890  176.4820  145.2690 N   0  0  0  0  0  0  0  0  0  0  0  0
  188.3490  177.4290  144.1840 C   0  0  0  0  0  3  0  0  0  0  0  0
  188.5220  177.0940  145.5350 C   0  0  0  0  0  0  0  0  0  0  0  0
  186.1130  177.2080  145.8400 C   0  0  0  0  0  3  0  0  0  0  0  0
  184.6630  177.7690  143.9960 O   0  0  0  0  0  0  0  0  0  0  0  0
  183.2360  178.3210  142.2890 O   0  0  0  0  0  0  0  0  0  0  0  0
  187.0700  177.6520  143.6570 C   0  0  0  0  0  0  0  0  0  0  0  0
  185.9480  177.5420  144.4920 C   0  0  0  0  0  0  0  0  0  0  0  0
  186.8880  178.0020  142.2380 C   0  0  0  0  0  0  0  0  0  0  0  0
  187.3900  176.9850  146.3580 C   0  0  0  0  0  3  0  0  0  0  0  0
  185.5200  178.1600  141.6420 C   0  0  0  0  0  2  0  0  0  0  0  0
  187.8920  178.1550  141.4920 O   0  0  0  0  0  0  0  0  0  0  0  0
  184.4170  178.0940  142.6580 C   0  0  0  0  0  0  0  0  0  0  0  0
  192.9820  175.6420  143.4170 C   0  0  0  0  0  2  0  0  0  0  0  0
  190.3670  174.8360  142.1770 C   0  0  0  0  0  2  0  0  0  0  0  0
  189.5770  172.5760  141.7210 C   0  0  0  0  0  2  0  0  0  0  0  0
  192.6300  174.2140  143.1460 C   0  0  0  0  0  0  0  0  0  0  0  0
  187.9260  174.4150  142.0130 C   0  0  0  0  0  1  0  0  0  0  0  0
  191.0050  172.5040  142.2280 C   0  0  0  0  0  2  0  0  0  0  0  0
  189.2870  174.0490  141.4610 C   0  0  1  0  0  3  0  0  0  0  0  0
  191.3800  173.8670  142.5380 N   0  0  0  0  0  0  0  0  0  0  0  0
  193.4610  173.3140  143.4410 O   0  0  0  0  0  0  0  0  0  0  0  0
  1  5  2  0  0  0  0
  2  6  1  0  0  0  0
  3  5  1  0  0  0  0
  4  3  2  0  0  0  0
  6  1  1  0  0  0  0
  7  6  2  0  0  0  0
  7  4  1  0  0  0  0
  8  9  1  0  0  0  0
  9  4  1  0  0  0  0
  9 16  2  0  0  0  0
 10 16  1  0  0  0  0
 11 14  1  0  0  0  0
 12 19  2  0  0  0  0
 13  8  2  0  0  0  0
 13 14  1  0  0  0  0
 14 10  2  0  0  0  0
 15 13  1  0  0  0  0
 17 15  1  0  0  0  0
 17 19  1  0  0  0  0
 18 15  2  0  0  0  0
 19 11  1  0  0  0  0
 20  2  1  0  0  0  0
 21 27  1  0  0  0  0
 22 25  1  0  0  0  0
 23 20  1  0  0  0  0
 23 28  2  0  0  0  0
 25 27  1  0  0  0  0
 26 22  1  0  0  0  0
 26 24  1  1  0  0  0
 26 21  1  0  0  0  0
 27 23  1  0  0  0  0
M  END
>  <MODEL>
2

>  <REMARK>
 VINA RESULT:      -8.1      2.591      6.307
  Name = 
  3 active torsions:
  status: ('A' for Active; 'I' for Inactive)
    1  A    between atoms: N_5  and  C_24
    2  A    between atoms: C_6  and  C_14
    3  A    between atoms: C_7  and  C_24
                            x       y       z     vdW  Elec       q    Type
                         _______ _______ _______ _____ _____    ______ ____

>  <TORSDO>
F 3

$$$$
=
 OpenBabel11042418253D

 28 31  0  0  1  0  0  0  0  0999 V2000
  192.5600  176.0070  146.9740 C   0  0  0  0  0  3  0  0  0  0  0  0
  193.3440  175.4100  144.7420 N   0  0  0  0  0  2  0  0  0  0  0  0
  190.3560  176.9530  147.2620 C   0  0  0  0  0  3  0  0  0  0  0  0
  190.1510  176.8700  145.8760 C   0  0  0  0  0  0  0  0  0  0  0  0
  191.5650  176.5200  147.8070 C   0  0  0  0  0  3  0  0  0  0  0  0
  192.3290  175.9360  145.5990 C   0  0  0  0  0  0  0  0  0  0  0  0
  191.1420  176.3660  145.0870 N   0  0  0  0  0  0  0  0  0  0  0  0
  187.7450  177.5460  146.0600 C   0  0  0  0  0  3  0  0  0  0  0  0
  188.8810  177.3180  145.2690 C   0  0  0  0  0  0  0  0  0  0  0  0
  187.5990  177.9430  143.3000 C   0  0  0  0  0  3  0  0  0  0  0  0
  185.2820  178.5820  143.4900 O   0  0  0  0  0  0  0  0  0  0  0  0
  183.0700  179.1740  143.6030 O   0  0  0  0  0  0  0  0  0  0  0  0
  186.5420  177.9720  145.4810 C   0  0  0  0  0  0  0  0  0  0  0  0
  186.4710  178.1690  144.0930 C   0  0  0  0  0  0  0  0  0  0  0  0
  185.3490  178.2140  146.3110 C   0  0  0  0  0  0  0  0  0  0  0  0
  188.7960  177.5220  143.8830 C   0  0  0  0  0  3  0  0  0  0  0  0
  184.0800  178.7500  145.7160 C   0  0  0  0  0  2  0  0  0  0  0  0
  185.3860  177.9900  147.5500 O   0  0  0  0  0  0  0  0  0  0  0  0
  184.1160  178.8400  144.2180 C   0  0  0  0  0  0  0  0  0  0  0  0
  193.1730  175.2680  143.3020 C   0  0  0  0  0  2  0  0  0  0  0  0
  190.4620  174.6740  142.1510 C   0  0  0  0  0  2  0  0  0  0  0  0
  189.5320  172.4900  141.6010 C   0  0  0  0  0  2  0  0  0  0  0  0
  192.7330  173.8790  142.9640 C   0  0  0  0  0  0  0  0  0  0  0  0
  187.9970  174.3870  142.0880 C   0  0  0  0  0  1  0  0  0  0  0  0
  190.9770  172.3140  142.0290 C   0  0  0  0  0  2  0  0  0  0  0  0
  189.3090  173.9890  141.4450 C   0  0  1  0  0  3  0  0  0  0  0  0
  191.4380  173.6340  142.4020 N   0  0  0  0  0  0  0  0  0  0  0  0
  193.5280  172.9210  143.1620 O   0  0  0  0  0  0  0  0  0  0  0  0
  1  5  2  0  0  0  0
  2  6  1  0  0  0  0
  3  5  1  0  0  0  0
  4  3  2  0  0  0  0
  6  1  1  0  0  0  0
  7  6  2  0  0  0  0
  7  4  1  0  0  0  0
  9  4  1  0  0  0  0
  9  8  2  0  0  0  0
 10 16  2  0  0  0  0
 10 14  1  0  0  0  0
 11 14  1  0  0  0  0
 11 19  1  0  0  0  0
 12 19  2  0  0  0  0
 13  8  1  0  0  0  0
 13 15  1  0  0  0  0
 14 13  2  0  0  0  0
 15 18  2  0  0  0  0
 16  9  1  0  0  0  0
 17 15  1  0  0  0  0
 19 17  1  0  0  0  0
 20  2  1  0  0  0  0
 21 27  1  0  0  0  0
 22 25  1  0  0  0  0
 23 28  2  0  0  0  0
 23 20  1  0  0  0  0
 25 27  1  0  0  0  0
 26 22  1  0  0  0  0
 26 24  1  1  0  0  0
 26 21  1  0  0  0  0
 27 23  1  0  0  0  0
M  END
>  <MODEL>
3

>  <REMARK>
 VINA RESULT:      -7.9      2.781      6.659
  Name = 
  3 active torsions:
  status: ('A' for Active; 'I' for Inactive)
    1  A    between atoms: N_5  and  C_24
    2  A    between atoms: C_6  and  C_14
    3  A    between atoms: C_7  and  C_24
                            x       y       z     vdW  Elec       q    Type
                         _______ _______ _______ _____ _____    ______ ____

>  <TORSDO>
F 3

$$$$
=
 OpenBabel11042418253D

 28 31  0  0  1  0  0  0  0  0999 V2000
  192.0950  176.4070  147.2470 C   0  0  0  0  0  3  0  0  0  0  0  0
  193.7630  176.1920  145.4790 N   0  0  0  0  0  2  0  0  0  0  0  0
  189.8190  176.9870  146.6890 C   0  0  0  0  0  3  0  0  0  0  0  0
  190.1740  177.0380  145.3330 C   0  0  0  0  0  0  0  0  0  0  0  0
  190.7840  176.6710  147.6440 C   0  0  0  0  0  3  0  0  0  0  0  0
  192.4220  176.4640  145.8910 C   0  0  0  0  0  0  0  0  0  0  0  0
  191.4630  176.7770  144.9740 N   0  0  0  0  0  0  0  0  0  0  0  0
  187.8050  177.4060  144.6040 C   0  0  0  0  0  3  0  0  0  0  0  0
  189.1740  177.3680  144.2970 C   0  0  0  0  0  0  0  0  0  0  0  0
  188.6450  177.9580  141.9990 C   0  0  0  0  0  3  0  0  0  0  0  0
  186.3600  178.2990  141.3090 O   0  0  0  0  0  0  0  0  0  0  0  0
  184.2070  178.6130  140.5870 O   0  0  0  0  0  0  0  0  0  0  0  0
  186.8580  177.7200  143.6200 C   0  0  0  0  0  0  0  0  0  0  0  0
  187.2830  177.9950  142.3110 C   0  0  0  0  0  0  0  0  0  0  0  0
  185.4210  177.7630  143.9410 C   0  0  0  0  0  0  0  0  0  0  0  0
  189.5840  177.6480  142.9850 C   0  0  0  0  0  3  0  0  0  0  0  0
  184.4050  178.1790  142.9190 C   0  0  0  0  0  2  0  0  0  0  0  0
  185.0240  177.4660  145.0990 O   0  0  0  0  0  0  0  0  0  0  0  0
  184.9830  178.3680  141.5460 C   0  0  0  0  0  0  0  0  0  0  0  0
  194.1810  176.1960  144.0830 C   0  0  0  0  0  2  0  0  0  0  0  0
  195.5460  173.5770  144.6360 C   0  0  0  0  0  2  0  0  0  0  0  0
  197.9390  173.1160  144.5960 C   0  0  0  0  0  2  0  0  0  0  0  0
  195.6640  176.0280  143.9830 C   0  0  0  0  0  0  0  0  0  0  0  0
  196.4370  171.6750  145.9610 C   0  0  0  0  0  1  0  0  0  0  0  0
  197.7060  174.5390  144.1240 C   0  0  0  0  0  2  0  0  0  0  0  0
  196.5680  172.4570  144.6700 C   0  0  1  0  0  3  0  0  0  0  0  0
  196.2810  174.7600  144.2380 N   0  0  0  0  0  0  0  0  0  0  0  0
  196.3690  177.0180  143.6480 O   0  0  0  0  0  0  0  0  0  0  0  0
  1  5  2  0  0  0  0
  2  6  1  0  0  0  0
  3  5  1  0  0  0  0
  4  3  2  0  0  0  0
  6  1  1  0  0  0  0
  7  4  1  0  0  0  0
  7  6  2  0  0  0  0
  9  8  1  0  0  0  0
  9  4  1  0  0  0  0
 10 14  2  0  0  0  0
 10 16  1  0  0  0  0
 11 19  1  0  0  0  0
 11 14  1  0  0  0  0
 12 19  2  0  0  0  0
 13 15  1  0  0  0  0
 13  8  2  0  0  0  0
 14 13  1  0  0  0  0
 15 18  2  0  0  0  0
 16  9  2  0  0  0  0
 17 15  1  0  0  0  0
 19 17  1  0  0  0  0
 20  2  1  0  0  0  0
 21 26  1  0  0  0  0
 22 26  1  0  0  0  0
 23 20  1  0  0  0  0
 23 27  1  0  0  0  0
 25 27  1  0  0  0  0
 25 22  1  0  0  0  0
 26 24  1  1  0  0  0
 27 21  1  0  0  0  0
 28 23  2  0  0  0  0
M  END
>  <MODEL>
4

>  <REMARK>
 VINA RESULT:      -7.8      3.552      7.825
  Name = 
  3 active torsions:
  status: ('A' for Active; 'I' for Inactive)
    1  A    between atoms: N_5  and  C_24
    2  A    between atoms: C_6  and  C_14
    3  A    between atoms: C_7  and  C_24
                            x       y       z     vdW  Elec       q    Type
                         _______ _______ _______ _____ _____    ______ ____

>  <TORSDO>
F 3

$$$$
=
 OpenBabel11042418253D

 28 31  0  0  1  0  0  0  0  0999 V2000
  191.9600  176.3950  147.3160 C   0  0  0  0  0  3  0  0  0  0  0  0
  193.6700  176.2110  145.5840 N   0  0  0  0  0  2  0  0  0  0  0  0
  189.6910  176.9550  146.7110 C   0  0  0  0  0  3  0  0  0  0  0  0
  190.0770  177.0200  145.3640 C   0  0  0  0  0  0  0  0  0  0  0  0
  190.6380  176.6420  147.6850 C   0  0  0  0  0  3  0  0  0  0  0  0
  192.3170  176.4650  145.9680 C   0  0  0  0  0  0  0  0  0  0  0  0
  191.3770  176.7750  145.0320 N   0  0  0  0  0  0  0  0  0  0  0  0
  187.7240  177.4110  144.5930 C   0  0  0  0  0  3  0  0  0  0  0  0
  189.0960  177.3460  144.3070 C   0  0  0  0  0  0  0  0  0  0  0  0
  188.6100  177.9040  141.9920 C   0  0  0  0  0  3  0  0  0  0  0  0
  186.3410  178.2680  141.2630 O   0  0  0  0  0  0  0  0  0  0  0  0
  184.2030  178.6010  140.5040 O   0  0  0  0  0  0  0  0  0  0  0  0
  186.7960  177.7210  143.5900 C   0  0  0  0  0  0  0  0  0  0  0  0
  187.2440  177.9670  142.2830 C   0  0  0  0  0  0  0  0  0  0  0  0
  185.3560  177.7920  143.8900 C   0  0  0  0  0  0  0  0  0  0  0  0
  189.5300  177.5970  142.9970 C   0  0  0  0  0  3  0  0  0  0  0  0
  184.3610  178.2050  142.8460 C   0  0  0  0  0  2  0  0  0  0  0  0
  184.9380  177.5210  145.0470 O   0  0  0  0  0  0  0  0  0  0  0  0
  184.9620  178.3610  141.4790 C   0  0  0  0  0  0  0  0  0  0  0  0
  194.1200  176.2300  144.1990 C   0  0  0  0  0  2  0  0  0  0  0  0
  195.5950  176.0560  141.5870 C   0  0  0  0  0  2  0  0  0  0  0  0
  197.7320  174.9660  141.1620 C   0  0  0  0  0  2  0  0  0  0  0  0
  195.4550  175.5680  144.0750 C   0  0  0  0  0  0  0  0  0  0  0  0
  196.1280  175.2880  139.2870 C   0  0  0  0  0  1  0  0  0  0  0  0
  197.4440  174.9150  142.6500 C   0  0  0  0  0  2  0  0  0  0  0  0
  196.6920  175.8970  140.5530 C   0  0  1  0  0  3  0  0  0  0  0  0
  196.1380  175.5160  142.8160 N   0  0  0  0  0  0  0  0  0  0  0  0
  195.9870  175.0690  145.1030 O   0  0  0  0  0  0  0  0  0  0  0  0
  1  5  2  0  0  0  0
  2  6  1  0  0  0  0
  3  5  1  0  0  0  0
  4  3  2  0  0  0  0
  6  1  1  0  0  0  0
  7  4  1  0  0  0  0
  7  6  2  0  0  0  0
  9  8  1  0  0  0  0
  9  4  1  0  0  0  0
 10 14  2  0  0  0  0
 10 16  1  0  0  0  0
 11 19  1  0  0  0  0
 11 14  1  0  0  0  0
 12 19  2  0  0  0  0
 13 15  1  0  0  0  0
 13  8  2  0  0  0  0
 14 13  1  0  0  0  0
 15 18  2  0  0  0  0
 16  9  2  0  0  0  0
 17 15  1  0  0  0  0
 19 17  1  0  0  0  0
 20  2  1  0  0  0  0
 21 27  1  0  0  0  0
 22 25  1  0  0  0  0
 23 20  1  0  0  0  0
 23 28  2  0  0  0  0
 25 27  1  0  0  0  0
 26 24  1  6  0  0  0
 26 22  1  0  0  0  0
 26 21  1  0  0  0  0
 27 23  1  0  0  0  0
M  END
>  <MODEL>
5

>  <REMARK>
 VINA RESULT:      -7.6      3.692      7.702
  Name = 
  3 active torsions:
  status: ('A' for Active; 'I' for Inactive)
    1  A    between atoms: N_5  and  C_24
    2  A    between atoms: C_6  and  C_14
    3  A    between atoms: C_7  and  C_24
                            x       y       z     vdW  Elec       q    Type
                         _______ _______ _______ _____ _____    ______ ____

>  <TORSDO>
F 3

$$$$
=
 OpenBabel11042418253D

 28 31  0  0  1  0  0  0  0  0999 V2000
  183.8580  178.7470  143.6980 C   0  0  0  0  0  3  0  0  0  0  0  0
  184.1740  178.2650  146.0690 N   0  0  0  0  0  2  0  0  0  0  0  0
  185.4750  177.9630  142.0850 C   0  0  0  0  0  3  0  0  0  0  0  0
  186.2190  177.3870  143.1260 C   0  0  0  0  0  0  0  0  0  0  0  0
  184.2940  178.6440  142.3770 C   0  0  0  0  0  3  0  0  0  0  0  0
  184.6170  178.1640  144.7140 C   0  0  0  0  0  0  0  0  0  0  0  0
  185.7690  177.5050  144.4080 N   0  0  0  0  0  0  0  0  0  0  0  0
  188.7210  177.2510  143.0900 C   0  0  0  0  0  3  0  0  0  0  0  0
  187.4730  176.6560  142.8500 C   0  0  0  0  0  0  0  0  0  0  0  0
  188.6110  174.6530  142.0740 C   0  0  0  0  0  3  0  0  0  0  0  0
  191.0190  174.5400  142.0360 O   0  0  0  0  0  0  0  0  0  0  0  0
  193.3050  174.3820  141.9530 O   0  0  0  0  0  0  0  0  0  0  0  0
  189.9090  176.5560  142.8290 C   0  0  0  0  0  0  0  0  0  0  0  0
  189.8510  175.2510  142.3160 C   0  0  0  0  0  0  0  0  0  0  0  0
  191.2200  177.1790  143.0830 C   0  0  0  0  0  0  0  0  0  0  0  0
  187.4300  175.3500  142.3400 C   0  0  0  0  0  3  0  0  0  0  0  0
  192.4970  176.4160  142.8870 C   0  0  0  0  0  2  0  0  0  0  0  0
  191.2850  178.3680  143.4930 O   0  0  0  0  0  0  0  0  0  0  0  0
  192.2950  175.0660  142.2630 C   0  0  0  0  0  0  0  0  0  0  0  0
  184.8860  177.6570  147.1850 C   0  0  0  0  0  2  0  0  0  0  0  0
  187.4790  176.2070  146.7350 C   0  0  0  0  0  2  0  0  0  0  0  0
  189.7340  177.0720  147.0570 C   0  0  0  0  0  2  0  0  0  0  0  0
  186.2150  178.3150  147.3760 C   0  0  0  0  0  0  0  0  0  0  0  0
  189.3360  174.6170  147.1660 C   0  0  0  0  0  1  0  0  0  0  0  0
  188.7420  178.1980  147.2780 C   0  0  0  0  0  2  0  0  0  0  0  0
  188.9420  175.9070  146.4770 C   0  0  1  0  0  3  0  0  0  0  0  0
  187.4330  177.5980  147.1380 N   0  0  0  0  0  0  0  0  0  0  0  0
  186.2530  179.5230  147.7330 O   0  0  0  0  0  0  0  0  0  0  0  0
  1  6  1  0  0  0  0
  2 20  1  0  0  0  0
  3  5  1  0  0  0  0
  3  4  2  0  0  0  0
  4  7  1  0  0  0  0
  5  1  2  0  0  0  0
  6  2  1  0  0  0  0
  7  6  2  0  0  0  0
  9  8  1  0  0  0  0
  9  4  1  0  0  0  0
 10 14  2  0  0  0  0
 10 16  1  0  0  0  0
 11 19  1  0  0  0  0
 11 14  1  0  0  0  0
 12 19  2  0  0  0  0
 13 15  1  0  0  0  0
 13  8  2  0  0  0  0
 14 13  1  0  0  0  0
 15 18  2  0  0  0  0
 16  9  2  0  0  0  0
 17 15  1  0  0  0  0
 19 17  1  0  0  0  0
 20 23  1  0  0  0  0
 21 27  1  0  0  0  0
 22 25  1  0  0  0  0
 23 28  2  0  0  0  0
 26 21  1  0  0  0  0
 26 22  1  0  0  0  0
 26 24  1  1  0  0  0
 27 25  1  0  0  0  0
 27 23  1  0  0  0  0
M  END
>  <MODEL>
6

>  <REMARK>
 VINA RESULT:      -7.6      1.996      3.972
  Name = 
  3 active torsions:
  status: ('A' for Active; 'I' for Inactive)
    1  A    between atoms: N_5  and  C_24
    2  A    between atoms: C_6  and  C_14
    3  A    between atoms: C_7  and  C_24
                            x       y       z     vdW  Elec       q    Type
                         _______ _______ _______ _____ _____    ______ ____

>  <TORSDO>
F 3

$$$$
=
 OpenBabel11042418253D

 28 31  0  0  1  0  0  0  0  0999 V2000
  191.1040  173.7560  140.8940 C   0  0  0  0  0  3  0  0  0  0  0  0
  192.6720  175.1150  142.1780 N   0  0  0  0  0  2  0  0  0  0  0  0
  188.7330  174.1850  141.0510 C   0  0  0  0  0  3  0  0  0  0  0  0
  188.9910  175.2250  141.9550 C   0  0  0  0  0  0  0  0  0  0  0  0
  189.7950  173.4510  140.5220 C   0  0  0  0  0  3  0  0  0  0  0  0
  191.3330  174.7970  141.7950 C   0  0  0  0  0  0  0  0  0  0  0  0
  190.2810  175.5000  142.3020 N   0  0  0  0  0  0  0  0  0  0  0  0
  187.6530  176.0350  143.9140 C   0  0  0  0  0  3  0  0  0  0  0  0
  187.8880  176.0230  142.5310 C   0  0  0  0  0  0  0  0  0  0  0  0
  186.0110  177.5370  142.2290 C   0  0  0  0  0  3  0  0  0  0  0  0
  184.7270  178.3000  144.1220 O   0  0  0  0  0  0  0  0  0  0  0  0
  183.4530  179.0410  145.8790 O   0  0  0  0  0  0  0  0  0  0  0  0
  186.6070  176.7930  144.4580 C   0  0  0  0  0  0  0  0  0  0  0  0
  185.7820  177.5450  143.6080 C   0  0  0  0  0  0  0  0  0  0  0  0
  186.3610  176.8080  145.9100 C   0  0  0  0  0  0  0  0  0  0  0  0
  187.0570  176.7820  141.6940 C   0  0  0  0  0  3  0  0  0  0  0  0
  185.3000  177.6790  146.5120 C   0  0  0  0  0  2  0  0  0  0  0  0
  187.0620  176.0940  146.6760 O   0  0  0  0  0  0  0  0  0  0  0  0
  184.4430  178.3680  145.4900 C   0  0  0  0  0  0  0  0  0  0  0  0
  193.0020  176.2070  143.0850 C   0  0  0  0  0  2  0  0  0  0  0  0
  191.1460  176.4860  145.4310 C   0  0  0  0  0  2  0  0  0  0  0  0
  191.5350  175.7550  147.7230 C   0  0  0  0  0  2  0  0  0  0  0  0
  193.3390  175.6740  144.4410 C   0  0  0  0  0  0  0  0  0  0  0  0
  189.9210  177.5980  147.2830 C   0  0  0  0  0  1  0  0  0  0  0  0
  192.6880  175.2860  146.8570 C   0  0  0  0  0  2  0  0  0  0  0  0
  190.4680  176.2810  146.7720 C   0  0  1  0  0  3  0  0  0  0  0  0
  192.4230  175.8110  145.5350 N   0  0  0  0  0  0  0  0  0  0  0  0
  194.4380  175.0800  144.6080 O   0  0  0  0  0  0  0  0  0  0  0  0
  1  6  1  0  0  0  0
  2 20  1  0  0  0  0
  3  4  2  0  0  0  0
  4  7  1  0  0  0  0
  4  9  1  0  0  0  0
  5  1  2  0  0  0  0
  5  3  1  0  0  0  0
  6  2  1  0  0  0  0
  6  7  2  0  0  0  0
  8 13  1  0  0  0  0
  9  8  2  0  0  0  0
 10 14  1  0  0  0  0
 11 19  1  0  0  0  0
 13 15  1  0  0  0  0
 14 11  1  0  0  0  0
 14 13  2  0  0  0  0
 15 17  1  0  0  0  0
 15 18  2  0  0  0  0
 16 10  2  0  0  0  0
 16  9  1  0  0  0  0
 19 12  2  0  0  0  0
 19 17  1  0  0  0  0
 20 23  1  0  0  0  0
 21 27  1  0  0  0  0
 21 26  1  0  0  0  0
 23 28  2  0  0  0  0
 23 27  1  0  0  0  0
 25 22  1  0  0  0  0
 26 24  1  1  0  0  0
 26 22  1  0  0  0  0
 27 25  1  0  0  0  0
M  END
>  <MODEL>
7

>  <REMARK>
 VINA RESULT:      -7.5      2.637      7.219
  Name = 
  3 active torsions:
  status: ('A' for Active; 'I' for Inactive)
    1  A    between atoms: N_5  and  C_24
    2  A    between atoms: C_6  and  C_14
    3  A    between atoms: C_7  and  C_24
                            x       y       z     vdW  Elec       q    Type
                         _______ _______ _______ _____ _____    ______ ____

>  <TORSDO>
F 3

$$$$
=
 OpenBabel11042418253D

 28 31  0  0  1  0  0  0  0  0999 V2000
  190.0170  172.0100  140.5660 C   0  0  0  0  0  3  0  0  0  0  0  0
  190.6070  171.6860  142.9120 N   0  0  0  0  0  2  0  0  0  0  0  0
  188.6820  173.9130  139.9130 C   0  0  0  0  0  3  0  0  0  0  0  0
  188.6310  174.3240  141.2540 C   0  0  0  0  0  0  0  0  0  0  0  0
  189.3770  172.7530  139.5740 C   0  0  0  0  0  3  0  0  0  0  0  0
  189.9510  172.4420  141.8920 C   0  0  0  0  0  0  0  0  0  0  0  0
  189.2650  173.5780  142.2020 N   0  0  0  0  0  0  0  0  0  0  0  0
  187.6700  175.8490  142.9960 C   0  0  0  0  0  3  0  0  0  0  0  0
  187.9060  175.5510  141.6450 C   0  0  0  0  0  0  0  0  0  0  0  0
  186.7520  177.5980  141.0230 C   0  0  0  0  0  3  0  0  0  0  0  0
  185.8240  179.0500  142.7100 O   0  0  0  0  0  0  0  0  0  0  0  0
  184.9000  180.4580  144.2650 O   0  0  0  0  0  0  0  0  0  0  0  0
  186.9830  177.0130  143.3640 C   0  0  0  0  0  0  0  0  0  0  0  0
  186.5210  177.8890  142.3710 C   0  0  0  0  0  0  0  0  0  0  0  0
  186.7380  177.3280  144.7820 C   0  0  0  0  0  0  0  0  0  0  0  0
  187.4410  176.4380  140.6630 C   0  0  0  0  0  3  0  0  0  0  0  0
  186.0780  178.6110  145.1940 C   0  0  0  0  0  2  0  0  0  0  0  0
  187.1010  176.5220  145.6800 O   0  0  0  0  0  0  0  0  0  0  0  0
  185.5650  179.4160  144.0350 C   0  0  0  0  0  0  0  0  0  0  0  0
  190.6170  172.0840  144.3140 C   0  0  0  0  0  2  0  0  0  0  0  0
  190.6290  174.9650  145.1670 C   0  0  0  0  0  2  0  0  0  0  0  0
  192.5680  176.3530  145.6680 C   0  0  0  0  0  2  0  0  0  0  0  0
  191.8790  172.8180  144.6380 C   0  0  0  0  0  0  0  0  0  0  0  0
  190.4400  177.4320  144.9590 C   0  0  0  0  0  1  0  0  0  0  0  0
  193.0360  174.9330  145.4110 C   0  0  0  0  0  2  0  0  0  0  0  0
  191.0490  176.2970  145.7570 C   0  0  1  0  0  3  0  0  0  0  0  0
  191.8470  174.1880  145.0570 N   0  0  0  0  0  0  0  0  0  0  0  0
  192.9780  172.2080  144.5570 O   0  0  0  0  0  0  0  0  0  0  0  0
  1  6  1  0  0  0  0
  2 20  1  0  0  0  0
  3  4  2  0  0  0  0
  4  9  1  0  0  0  0
  4  7  1  0  0  0  0
  5  3  1  0  0  0  0
  5  1  2  0  0  0  0
  6  7  2  0  0  0  0
  6  2  1  0  0  0  0
  8 13  1  0  0  0  0
  9  8  2  0  0  0  0
 10 14  1  0  0  0  0
 11 19  1  0  0  0  0
 13 15  1  0  0  0  0
 14 11  1  0  0  0  0
 14 13  2  0  0  0  0
 15 17  1  0  0  0  0
 15 18  2  0  0  0  0
 16 10  2  0  0  0  0
 16  9  1  0  0  0  0
 19 12  2  0  0  0  0
 19 17  1  0  0  0  0
 20 23  1  0  0  0  0
 21 26  1  0  0  0  0
 22 26  1  0  0  0  0
 23 27  1  0  0  0  0
 25 22  1  0  0  0  0
 26 24  1  6  0  0  0
 27 21  1  0  0  0  0
 27 25  1  0  0  0  0
 28 23  2  0  0  0  0
M  END
>  <MODEL>
8

>  <REMARK>
 VINA RESULT:      -7.4      2.744      7.287
  Name = 
  3 active torsions:
  status: ('A' for Active; 'I' for Inactive)
    1  A    between atoms: N_5  and  C_24
    2  A    between atoms: C_6  and  C_14
    3  A    between atoms: C_7  and  C_24
                            x       y       z     vdW  Elec       q    Type
                         _______ _______ _______ _____ _____    ______ ____

>  <TORSDO>
F 3

$$$$
=
 OpenBabel11042418253D

 28 31  0  0  1  0  0  0  0  0999 V2000
  184.8170  177.3380  146.1940 C   0  0  0  0  0  3  0  0  0  0  0  0
  184.4650  178.4340  144.0420 N   0  0  0  0  0  2  0  0  0  0  0  0
  187.0490  176.7250  146.8810 C   0  0  0  0  0  3  0  0  0  0  0  0
  187.5510  177.2480  145.6800 C   0  0  0  0  0  0  0  0  0  0  0  0
  185.6780  176.7720  147.1330 C   0  0  0  0  0  3  0  0  0  0  0  0
  185.3430  177.8510  145.0070 C   0  0  0  0  0  0  0  0  0  0  0  0
  186.6850  177.7940  144.7790 N   0  0  0  0  0  0  0  0  0  0  0  0
  189.8940  176.5540  146.2370 C   0  0  0  0  0  3  0  0  0  0  0  0
  188.9980  177.2160  145.3840 C   0  0  0  0  0  0  0  0  0  0  0  0
  190.8640  177.8300  143.9510 C   0  0  0  0  0  3  0  0  0  0  0  0
  193.1140  177.1630  144.5050 O   0  0  0  0  0  0  0  0  0  0  0  0
  195.2770  176.5800  144.9910 O   0  0  0  0  0  0  0  0  0  0  0  0
  191.2660  176.5240  145.9540 C   0  0  0  0  0  0  0  0  0  0  0  0
  191.7510  177.1680  144.8050 C   0  0  0  0  0  0  0  0  0  0  0  0
  192.2070  175.8260  146.8480 C   0  0  0  0  0  0  0  0  0  0  0  0
  189.4970  177.8530  144.2380 C   0  0  0  0  0  3  0  0  0  0  0  0
  193.6640  175.7150  146.5120 C   0  0  0  0  0  2  0  0  0  0  0  0
  191.7890  175.2910  147.9090 O   0  0  0  0  0  0  0  0  0  0  0  0
  194.0610  176.5120  145.3040 C   0  0  0  0  0  0  0  0  0  0  0  0
  184.9330  179.0230  142.7950 C   0  0  0  0  0  2  0  0  0  0  0  0
  182.0060  179.0910  142.1230 C   0  0  0  0  0  2  0  0  0  0  0  0
  180.8730  177.9160  140.3140 C   0  0  0  0  0  2  0  0  0  0  0  0
  184.3620  178.2890  141.6240 C   0  0  0  0  0  0  0  0  0  0  0  0
  179.5810  178.5980  142.3280 C   0  0  0  0  0  1  0  0  0  0  0  0
  182.3670  177.6890  140.1850 C   0  0  0  0  0  2  0  0  0  0  0  0
  180.6900  178.9930  141.3760 C   0  0  1  0  0  3  0  0  0  0  0  0
  182.9630  178.3560  141.3230 N   0  0  0  0  0  0  0  0  0  0  0  0
  185.1360  177.6210  140.8860 O   0  0  0  0  0  0  0  0  0  0  0  0
  1  5  2  0  0  0  0
  2  6  1  0  0  0  0
  3  5  1  0  0  0  0
  4  3  2  0  0  0  0
  6  1  1  0  0  0  0
  7  6  2  0  0  0  0
  7  4  1  0  0  0  0
  9  4  1  0  0  0  0
  9  8  2  0  0  0  0
 10 16  2  0  0  0  0
 10 14  1  0  0  0  0
 11 14  1  0  0  0  0
 11 19  1  0  0  0  0
 12 19  2  0  0  0  0
 13  8  1  0  0  0  0
 13 15  1  0  0  0  0
 14 13  2  0  0  0  0
 15 18  2  0  0  0  0
 16  9  1  0  0  0  0
 17 15  1  0  0  0  0
 19 17  1  0  0  0  0
 20  2  1  0  0  0  0
 22 26  1  0  0  0  0
 23 20  1  0  0  0  0
 25 22  1  0  0  0  0
 25 27  1  0  0  0  0
 26 21  1  0  0  0  0
 26 24  1  1  0  0  0
 27 23  1  0  0  0  0
 27 21  1  0  0  0  0
 28 23  2  0  0  0  0
M  END
>  <MODEL>
9

>  <REMARK>
 VINA RESULT:      -7.4      2.247      4.140
  Name = 
  3 active torsions:
  status: ('A' for Active; 'I' for Inactive)
    1  A    between atoms: N_5  and  C_24
    2  A    between atoms: C_6  and  C_14
    3  A    between atoms: C_7  and  C_24
                            x       y       z     vdW  Elec       q    Type
                         _______ _______ _______ _____ _____    ______ ____

>  <TORSDO>
F 3

$$$$
