=
 OpenBabel11042417113D

 38 41  0  0  1  0  0  0  0  0999 V2000
  194.8580  176.3430  144.1910 C   0  0  0  0  0  2  0  0  0  0  0  0
  192.3730  176.6490  144.0070 C   0  0  1  0  0  3  0  0  0  0  0  0
  184.8070  177.1700  146.3100 C   0  0  0  0  0  1  0  0  0  0  0  0
  189.9710  177.3080  144.2720 O   0  0  0  0  0  0  0  0  0  0  0  0
  186.1640  176.9990  145.8150 N   0  0  0  0  0  0  0  0  0  0  0  0
  186.4630  177.2890  144.4180 C   0  0  0  0  0  2  0  0  0  0  0  0
  188.8970  177.7010  145.1220 C   0  0  1  0  0  3  0  0  0  0  0  0
  189.4210  174.9550  147.6370 O   0  0  0  0  0  1  0  0  0  0  0  0
  189.6200  175.8750  146.6100 C   0  0  0  0  0  0  0  0  0  0  0  0
  190.9500  175.9560  145.9590 C   0  0  0  0  0  0  0  0  0  0  0  0
  186.9580  176.0310  147.7920 O   0  0  0  0  0  0  0  0  0  0  0  0
  193.5020  175.7870  144.6000 C   0  0  2  0  0  3  0  0  0  0  0  0
  187.6840  178.2050  144.3190 C   0  0  0  0  0  2  0  0  0  0  0  0
  187.2180  176.5260  146.6610 C   0  0  0  0  0  0  0  0  0  0  0  0
  192.0910  175.1650  146.5350 C   0  0  0  0  0  2  0  0  0  0  0  0
  192.1230  176.2550  142.5620 C   0  0  0  0  0  1  0  0  0  0  0  0
  191.0740  176.6100  144.7830 C   0  0  0  0  0  0  0  0  0  0  0  0
  193.4300  175.7550  146.1190 C   0  0  0  0  0  2  0  0  0  0  0  0
  188.6070  176.6460  146.1700 C   0  0  0  0  0  0  0  0  0  0  0  0
  195.6430  175.3150  143.3920 C   0  0  2  0  0  3  0  0  0  0  0  0
  194.4690  173.8270  141.7150 C   0  0  0  0  0  0  0  0  0  0  0  0
  194.9090  174.5040  140.7470 O   0  0  0  0  0  0  0  0  0  0  0  0
  194.7750  174.1930  143.0620 N   0  0  0  0  0  2  0  0  0  0  0  0
  193.6490  172.6140  141.4550 C   0  0  0  0  0  2  0  0  0  0  0  0
  192.4190  172.6460  142.2940 C   0  0  0  0  0  3  0  0  0  0  0  0
  191.2230  172.5260  141.7250 C   0  0  0  0  0  3  0  0  0  0  0  0
  189.9670  172.5510  142.5430 C   0  0  1  0  0  3  0  0  0  0  0  0
  190.2890  173.1460  143.9120 C   0  0  0  0  0  2  0  0  0  0  0  0
  189.6910  172.2920  145.0130 C   0  0  0  0  0  1  0  0  0  0  0  0
  188.8880  173.3860  141.8350 C   0  0  1  0  0  3  0  0  0  0  0  0
  188.7870  174.7120  142.4050 N   0  0  0  0  0  0  0  0  0  0  0  0
  188.5130  175.6560  141.7270 O   0  0  0  0  0  0  0  0  0  0  0  0
  188.4000  172.9230  139.5680 O   0  0  0  0  0  0  0  0  0  0  0  0
  189.1420  173.4820  140.3590 C   0  0  0  0  0  3  0  0  0  0  0  0
  196.7240  174.8640  144.1540 O   0  0  0  0  0  0  0  0  0  0  0  0
  196.2850  173.6690  144.7280 C   0  0  0  0  0  3  0  0  0  0  0  0
  197.4820  172.7850  145.0170 C   0  0  0  0  0  2  0  0  0  0  0  0
  196.8310  173.5680  146.1380 C   0  0  0  0  0  2  0  0  0  0  0  0
  2 16  1  6  0  0  0
  2 12  1  0  0  0  0
  2 17  1  0  0  0  0
  4 17  1  0  0  0  0
  4  7  1  0  0  0  0
  5  3  1  0  0  0  0
  5 14  1  0  0  0  0
  6  5  1  0  0  0  0
  7 13  1  6  0  0  0
  7 19  1  0  0  0  0
  9  8  1  0  0  0  0
 10 15  1  0  0  0  0
 10  9  1  0  0  0  0
 12  1  1  1  0  0  0
 12 18  1  0  0  0  0
 13  6  1  0  0  0  0
 14 11  2  0  0  0  0
 17 10  2  0  0  0  0
 18 15  1  0  0  0  0
 19  9  2  0  0  0  0
 19 14  1  0  0  0  0
 20 35  1  0  0  0  0
 20  1  1  1  0  0  0
 21 23  1  0  0  0  0
 22 21  2  0  0  0  0
 23 20  1  0  0  0  0
 24 21  1  0  0  0  0
 24 25  1  0  0  0  0
 26 25  2  0  0  0  0
 27 26  1  6  0  0  0
 27 28  1  0  0  0  0
 28 29  1  0  0  0  0
 30 34  1  6  0  0  0
 30 31  1  0  0  0  0
 30 27  1  0  0  0  0
 32 31  2  0  0  0  0
 33 34  2  0  0  0  0
 35 36  1  0  0  0  0
 36 37  1  0  0  0  0
 36 38  1  0  0  0  0
 37 38  1  0  0  0  0
M  END
>  <MODEL>
1

>  <REMARK>
 VINA RESULT:      -6.1      0.000      0.000
  Name = 
  12 active torsions:
  status: ('A' for Active; 'I' for Inactive)
    1  A    between atoms: C_1  and  O_27
    2  A    between atoms: C_3  and  C_28
    3  A    between atoms: C_6  and  C_20
    4  A    between atoms: C_6  and  C_22
    5  A    between atoms: C_7  and  C_12
    6  A    between atoms: N_9  and  C_30
    7  A    between atoms: C_12  and  C_18
    8  A    between atoms: C_22  and  O_27
    9  A    between atoms: C_22  and  N_38
   10  A    between atoms: C_28  and  C_30
   11  A    between atoms: C_28  and  C_31
   12  A    between atoms: C_30  and  C_33
                            x       y       z     vdW  Elec       q    Type
                         _______ _______ _______ _____ _____    ______ ____

>  <TORSDO>
F 12

$$$$
=
 OpenBabel11042417113D

 38 41  0  0  1  0  0  0  0  0999 V2000
  188.4510  177.5510  146.1410 C   0  0  0  0  0  2  0  0  0  0  0  0
  190.6180  176.2870  146.0740 C   0  0  1  0  0  3  0  0  0  0  0  0
  197.9320  174.2870  143.7630 C   0  0  0  0  0  1  0  0  0  0  0  0
  193.0130  175.5520  146.0080 O   0  0  0  0  0  0  0  0  0  0  0  0
  196.5600  174.5500  144.1700 N   0  0  0  0  0  0  0  0  0  0  0  0
  196.0000  173.8420  145.3150 C   0  0  0  0  0  2  0  0  0  0  0  0
  194.3550  175.7930  145.5950 C   0  0  1  0  0  3  0  0  0  0  0  0
  193.4890  176.5600  142.0180 O   0  0  0  0  0  1  0  0  0  0  0  0
  193.4060  176.3630  143.3950 C   0  0  0  0  0  0  0  0  0  0  0  0
  192.1200  176.6200  144.0860 C   0  0  0  0  0  0  0  0  0  0  0  0
  196.0830  175.9130  142.3290 O   0  0  0  0  0  0  0  0  0  0  0  0
  189.4740  176.8830  145.2350 C   0  0  2  0  0  3  0  0  0  0  0  0
  195.3460  174.8340  146.2790 C   0  0  0  0  0  2  0  0  0  0  0  0
  195.7300  175.4730  143.4570 C   0  0  0  0  0  0  0  0  0  0  0  0
  190.9920  177.2460  143.3140 C   0  0  0  0  0  2  0  0  0  0  0  0
  190.2030  174.9380  146.6350 C   0  0  0  0  0  1  0  0  0  0  0  0
  191.9360  176.1540  145.3410 C   0  0  0  0  0  0  0  0  0  0  0  0
  189.9960  177.9160  144.2480 C   0  0  0  0  0  2  0  0  0  0  0  0
  194.4610  175.8930  144.0880 C   0  0  0  0  0  0  0  0  0  0  0  0
  187.0380  177.2990  145.6380 C   0  0  2  0  0  3  0  0  0  0  0  0
  186.7020  177.1030  143.1370 C   0  0  0  0  0  0  0  0  0  0  0  0
  186.2350  178.2720  143.0690 O   0  0  0  0  0  0  0  0  0  0  0  0
  187.0960  176.5460  144.3930 N   0  0  0  0  0  2  0  0  0  0  0  0
  186.8760  176.3040  141.8950 C   0  0  0  0  0  2  0  0  0  0  0  0
  187.8170  175.1780  142.1470 C   0  0  0  0  0  3  0  0  0  0  0  0
  188.7480  174.8750  141.2450 C   0  0  0  0  0  3  0  0  0  0  0  0
  189.7120  173.7490  141.4720 C   0  0  1  0  0  3  0  0  0  0  0  0
  189.7860  173.4650  142.9700 C   0  0  0  0  0  2  0  0  0  0  0  0
  191.2070  173.1230  143.3730 C   0  0  0  0  0  1  0  0  0  0  0  0
  189.2540  172.4960  140.7090 C   0  0  1  0  0  3  0  0  0  0  0  0
  188.2280  172.8140  139.7390 N   0  0  0  0  0  0  0  0  0  0  0  0
  188.4080  172.6430  138.5710 O   0  0  0  0  0  0  0  0  0  0  0  0
  191.4680  172.3860  139.8870 O   0  0  0  0  0  0  0  0  0  0  0  0
  190.4030  171.8090  140.0300 C   0  0  0  0  0  3  0  0  0  0  0  0
  186.4000  178.5220  145.4180 O   0  0  0  0  0  0  0  0  0  0  0  0
  185.5240  178.6690  146.4960 C   0  0  0  0  0  3  0  0  0  0  0  0
  184.1130  178.8480  145.9710 C   0  0  0  0  0  2  0  0  0  0  0  0
  184.5550  177.5030  146.5070 C   0  0  0  0  0  2  0  0  0  0  0  0
  2 16  1  6  0  0  0
  3  5  1  0  0  0  0
  5  6  1  0  0  0  0
  6 13  1  0  0  0  0
  7  4  1  0  0  0  0
  7 13  1  6  0  0  0
  8  9  1  0  0  0  0
  9 10  1  0  0  0  0
  9 19  2  0  0  0  0
 10 17  2  0  0  0  0
 11 14  2  0  0  0  0
 12  2  1  0  0  0  0
 12  1  1  1  0  0  0
 14 19  1  0  0  0  0
 14  5  1  0  0  0  0
 15 10  1  0  0  0  0
 15 18  1  0  0  0  0
 17  4  1  0  0  0  0
 17  2  1  0  0  0  0
 18 12  1  0  0  0  0
 19  7  1  0  0  0  0
 20  1  1  6  0  0  0
 21 23  1  0  0  0  0
 22 21  2  0  0  0  0
 23 20  1  0  0  0  0
 24 25  1  0  0  0  0
 24 21  1  0  0  0  0
 26 25  2  0  0  0  0
 27 26  1  1  0  0  0
 27 28  1  0  0  0  0
 28 29  1  0  0  0  0
 30 34  1  6  0  0  0
 30 27  1  0  0  0  0
 31 30  1  0  0  0  0
 32 31  2  0  0  0  0
 33 34  2  0  0  0  0
 35 20  1  0  0  0  0
 35 36  1  0  0  0  0
 36 38  1  0  0  0  0
 37 36  1  0  0  0  0
 37 38  1  0  0  0  0
M  END
>  <MODEL>
2

>  <REMARK>
 VINA RESULT:      -6.0      1.946      7.432
  Name = 
  12 active torsions:
  status: ('A' for Active; 'I' for Inactive)
    1  A    between atoms: C_1  and  O_27
    2  A    between atoms: C_3  and  C_28
    3  A    between atoms: C_6  and  C_20
    4  A    between atoms: C_6  and  C_22
    5  A    between atoms: C_7  and  C_12
    6  A    between atoms: N_9  and  C_30
    7  A    between atoms: C_12  and  C_18
    8  A    between atoms: C_22  and  O_27
    9  A    between atoms: C_22  and  N_38
   10  A    between atoms: C_28  and  C_30
   11  A    between atoms: C_28  and  C_31
   12  A    between atoms: C_30  and  C_33
                            x       y       z     vdW  Elec       q    Type
                         _______ _______ _______ _____ _____    ______ ____

>  <TORSDO>
F 12

$$$$
=
 OpenBabel11042417113D

 38 41  0  0  1  0  0  0  0  0999 V2000
  193.2110  173.9510  145.8370 C   0  0  0  0  0  2  0  0  0  0  0  0
  190.9380  174.5240  144.9410 C   0  0  1  0  0  3  0  0  0  0  0  0
  184.2890  178.6800  143.7810 C   0  0  0  0  0  1  0  0  0  0  0  0
  188.9110  175.6060  143.9410 O   0  0  0  0  0  0  0  0  0  0  0  0
  185.4460  177.8330  144.0220 N   0  0  0  0  0  0  0  0  0  0  0  0
  185.6200  176.6120  143.2440 C   0  0  0  0  0  2  0  0  0  0  0  0
  188.1370  176.7820  143.7180 C   0  0  1  0  0  3  0  0  0  0  0  0
  188.1480  177.8970  147.3090 O   0  0  0  0  0  1  0  0  0  0  0  0
  188.4720  177.2640  146.1110 C   0  0  0  0  0  0  0  0  0  0  0  0
  189.6580  176.3760  146.0590 C   0  0  0  0  0  0  0  0  0  0  0  0
  186.1770  179.0490  145.8830 O   0  0  0  0  0  0  0  0  0  0  0  0
  191.8220  174.4550  146.1990 C   0  0  2  0  0  3  0  0  0  0  0  0
  187.0360  176.5520  142.6680 C   0  0  0  0  0  2  0  0  0  0  0  0
  186.4140  178.1520  145.0280 C   0  0  0  0  0  0  0  0  0  0  0  0
  190.5740  176.3160  147.2500 C   0  0  0  0  0  2  0  0  0  0  0  0
  190.3790  173.1480  144.6230 C   0  0  0  0  0  1  0  0  0  0  0  0
  189.8100  175.5310  145.0150 C   0  0  0  0  0  0  0  0  0  0  0  0
  191.9570  175.8220  146.8510 C   0  0  0  0  0  2  0  0  0  0  0  0
  187.6900  177.4070  145.0230 C   0  0  0  0  0  0  0  0  0  0  0  0
  194.0110  175.0350  145.1320 C   0  0  2  0  0  3  0  0  0  0  0  0
  193.5830  175.5890  142.7000 C   0  0  0  0  0  0  0  0  0  0  0  0
  192.9780  176.6510  143.0080 O   0  0  0  0  0  0  0  0  0  0  0  0
  194.0990  174.7230  143.7120 N   0  0  0  0  0  2  0  0  0  0  0  0
  193.7930  175.2470  141.2680 C   0  0  0  0  0  2  0  0  0  0  0  0
  192.8020  174.2190  140.8440 C   0  0  0  0  0  3  0  0  0  0  0  0
  191.5460  174.2870  141.2790 C   0  0  0  0  0  3  0  0  0  0  0  0
  190.5260  173.2690  140.8670 C   0  0  1  0  0  3  0  0  0  0  0  0
  189.1590  173.9460  140.8080 C   0  0  0  0  0  2  0  0  0  0  0  0
  188.1230  173.1110  141.5350 C   0  0  0  0  0  1  0  0  0  0  0  0
  190.8920  172.6730  139.4990 C   0  0  1  0  0  3  0  0  0  0  0  0
  190.6180  171.2530  139.4510 N   0  0  0  0  0  0  0  0  0  0  0  0
  190.7030  170.5750  140.4300 O   0  0  0  0  0  0  0  0  0  0  0  0
  190.7940  174.0380  137.5700 O   0  0  0  0  0  0  0  0  0  0  0  0
  190.1730  173.3700  138.3810 C   0  0  0  0  0  3  0  0  0  0  0  0
  195.2950  175.0940  145.6810 O   0  0  0  0  0  0  0  0  0  0  0  0
  195.9250  173.9260  145.2450 C   0  0  0  0  0  3  0  0  0  0  0  0
  197.4030  174.2020  145.0450 C   0  0  0  0  0  2  0  0  0  0  0  0
  196.9290  173.4860  146.2920 C   0  0  0  0  0  2  0  0  0  0  0  0
  2 16  1  1  0  0  0
  2 17  1  0  0  0  0
  2 12  1  0  0  0  0
  3  5  1  0  0  0  0
  4 17  1  0  0  0  0
  5 14  1  0  0  0  0
  6  5  1  0  0  0  0
  7 13  1  6  0  0  0
  7  4  1  0  0  0  0
  7 19  1  0  0  0  0
  9  8  1  0  0  0  0
 10  9  1  0  0  0  0
 10 15  1  0  0  0  0
 12  1  1  6  0  0  0
 12 18  1  0  0  0  0
 13  6  1  0  0  0  0
 14 11  2  0  0  0  0
 17 10  2  0  0  0  0
 18 15  1  0  0  0  0
 19 14  1  0  0  0  0
 19  9  2  0  0  0  0
 20 35  1  0  0  0  0
 20  1  1  1  0  0  0
 21 22  2  0  0  0  0
 21 23  1  0  0  0  0
 23 20  1  0  0  0  0
 24 21  1  0  0  0  0
 25 24  1  0  0  0  0
 25 26  2  0  0  0  0
 27 28  1  6  0  0  0
 27 26  1  0  0  0  0
 28 29  1  0  0  0  0
 30 34  1  6  0  0  0
 30 27  1  0  0  0  0
 31 30  1  0  0  0  0
 31 32  2  0  0  0  0
 33 34  2  0  0  0  0
 36 35  1  0  0  0  0
 36 38  1  0  0  0  0
 37 36  1  0  0  0  0
 37 38  1  0  0  0  0
M  END
>  <MODEL>
3

>  <REMARK>
 VINA RESULT:      -5.9      1.984      2.712
  Name = 
  12 active torsions:
  status: ('A' for Active; 'I' for Inactive)
    1  A    between atoms: C_1  and  O_27
    2  A    between atoms: C_3  and  C_28
    3  A    between atoms: C_6  and  C_20
    4  A    between atoms: C_6  and  C_22
    5  A    between atoms: C_7  and  C_12
    6  A    between atoms: N_9  and  C_30
    7  A    between atoms: C_12  and  C_18
    8  A    between atoms: C_22  and  O_27
    9  A    between atoms: C_22  and  N_38
   10  A    between atoms: C_28  and  C_30
   11  A    between atoms: C_28  and  C_31
   12  A    between atoms: C_30  and  C_33
                            x       y       z     vdW  Elec       q    Type
                         _______ _______ _______ _____ _____    ______ ____

>  <TORSDO>
F 12

$$$$
=
 OpenBabel11042417113D

 38 41  0  0  1  0  0  0  0  0999 V2000
  193.6500  175.0620  145.5250 C   0  0  0  0  0  2  0  0  0  0  0  0
  191.4310  175.9580  146.2800 C   0  0  1  0  0  3  0  0  0  0  0  0
  184.0230  178.7290  145.7600 C   0  0  0  0  0  1  0  0  0  0  0  0
  189.0060  176.4560  146.6720 O   0  0  0  0  0  0  0  0  0  0  0  0
  185.4070  178.3090  145.9140 N   0  0  0  0  0  0  0  0  0  0  0  0
  185.9440  178.0740  147.2480 C   0  0  0  0  0  2  0  0  0  0  0  0
  187.6730  176.5100  146.1730 C   0  0  1  0  0  3  0  0  0  0  0  0
  188.5460  178.4010  143.0430 O   0  0  0  0  0  1  0  0  0  0  0  0
  188.6300  177.6160  144.1910 C   0  0  0  0  0  0  0  0  0  0  0  0
  189.9310  177.0050  144.5560 C   0  0  0  0  0  0  0  0  0  0  0  0
  185.9290  178.5720  143.6470 O   0  0  0  0  0  0  0  0  0  0  0  0
  192.5940  176.1300  145.2870 C   0  0  2  0  0  3  0  0  0  0  0  0
  186.6470  176.7160  147.3020 C   0  0  0  0  0  2  0  0  0  0  0  0
  186.2710  178.1440  144.7840 C   0  0  0  0  0  0  0  0  0  0  0  0
  191.0800  177.1100  143.5920 C   0  0  0  0  0  2  0  0  0  0  0  0
  191.7920  176.5840  147.6160 C   0  0  0  0  0  1  0  0  0  0  0  0
  190.1030  176.5040  145.8000 C   0  0  0  0  0  0  0  0  0  0  0  0
  192.1100  176.0200  143.8490 C   0  0  0  0  0  2  0  0  0  0  0  0
  187.5610  177.4540  144.9940 C   0  0  0  0  0  0  0  0  0  0  0  0
  194.4920  174.8470  144.2770 C   0  0  2  0  0  3  0  0  0  0  0  0
  193.9630  173.5090  142.1960 C   0  0  0  0  0  0  0  0  0  0  0  0
  194.1870  174.5020  141.4530 O   0  0  0  0  0  0  0  0  0  0  0  0
  194.0700  173.6210  143.6160 N   0  0  0  0  0  2  0  0  0  0  0  0
  193.6140  172.1970  141.5890 C   0  0  0  0  0  2  0  0  0  0  0  0
  192.1390  172.0010  141.6230 C   0  0  0  0  0  3  0  0  0  0  0  0
  191.3630  172.8970  142.2270 C   0  0  0  0  0  3  0  0  0  0  0  0
  189.8740  172.7280  142.2750 C   0  0  1  0  0  3  0  0  0  0  0  0
  189.3770  173.1730  143.6480 C   0  0  0  0  0  2  0  0  0  0  0  0
  190.4060  172.8500  144.7140 C   0  0  0  0  0  1  0  0  0  0  0  0
  189.2090  173.5600  141.1670 C   0  0  1  0  0  3  0  0  0  0  0  0
  188.2700  172.7670  140.4030 N   0  0  0  0  0  0  0  0  0  0  0  0
  188.1310  172.9360  139.2290 O   0  0  0  0  0  0  0  0  0  0  0  0
  188.2370  175.7090  140.9900 O   0  0  0  0  0  0  0  0  0  0  0  0
  188.5210  174.7740  141.7210 C   0  0  0  0  0  3  0  0  0  0  0  0
  195.8380  174.7470  144.6380 O   0  0  0  0  0  0  0  0  0  0  0  0
  195.9770  173.4560  145.1510 C   0  0  0  0  0  3  0  0  0  0  0  0
  197.4000  172.9820  144.9300 C   0  0  0  0  0  2  0  0  0  0  0  0
  196.9730  173.4820  146.2940 C   0  0  0  0  0  2  0  0  0  0  0  0
  2 16  1  1  0  0  0
  3  5  1  0  0  0  0
  5  6  1  0  0  0  0
  6 13  1  0  0  0  0
  7  4  1  0  0  0  0
  7 13  1  1  0  0  0
  8  9  1  0  0  0  0
  9 10  1  0  0  0  0
  9 19  2  0  0  0  0
 10 17  2  0  0  0  0
 11 14  2  0  0  0  0
 12  1  1  1  0  0  0
 12  2  1  0  0  0  0
 14 19  1  0  0  0  0
 14  5  1  0  0  0  0
 15 18  1  0  0  0  0
 15 10  1  0  0  0  0
 17  2  1  0  0  0  0
 17  4  1  0  0  0  0
 18 12  1  0  0  0  0
 19  7  1  0  0  0  0
 20 35  1  0  0  0  0
 20  1  1  1  0  0  0
 21 23  1  0  0  0  0
 22 21  2  0  0  0  0
 23 20  1  0  0  0  0
 24 25  1  0  0  0  0
 24 21  1  0  0  0  0
 25 26  2  0  0  0  0
 27 26  1  1  0  0  0
 27 28  1  0  0  0  0
 28 29  1  0  0  0  0
 30 34  1  1  0  0  0
 30 27  1  0  0  0  0
 31 30  1  0  0  0  0
 32 31  2  0  0  0  0
 33 34  2  0  0  0  0
 35 36  1  0  0  0  0
 36 38  1  0  0  0  0
 37 36  1  0  0  0  0
 37 38  1  0  0  0  0
M  END
>  <MODEL>
4

>  <REMARK>
 VINA RESULT:      -5.8      1.365      2.449
  Name = 
  12 active torsions:
  status: ('A' for Active; 'I' for Inactive)
    1  A    between atoms: C_1  and  O_27
    2  A    between atoms: C_3  and  C_28
    3  A    between atoms: C_6  and  C_20
    4  A    between atoms: C_6  and  C_22
    5  A    between atoms: C_7  and  C_12
    6  A    between atoms: N_9  and  C_30
    7  A    between atoms: C_12  and  C_18
    8  A    between atoms: C_22  and  O_27
    9  A    between atoms: C_22  and  N_38
   10  A    between atoms: C_28  and  C_30
   11  A    between atoms: C_28  and  C_31
   12  A    between atoms: C_30  and  C_33
                            x       y       z     vdW  Elec       q    Type
                         _______ _______ _______ _____ _____    ______ ____

>  <TORSDO>
F 12

$$$$
=
 OpenBabel11042417113D

 38 41  0  0  1  0  0  0  0  0999 V2000
  195.4830  176.6130  144.3570 C   0  0  0  0  0  2  0  0  0  0  0  0
  192.9930  176.7760  144.0860 C   0  0  1  0  0  3  0  0  0  0  0  0
  185.3270  176.7300  146.0990 C   0  0  0  0  0  1  0  0  0  0  0  0
  190.5450  177.2750  144.2800 O   0  0  0  0  0  0  0  0  0  0  0  0
  186.7090  176.6650  145.6530 N   0  0  0  0  0  0  0  0  0  0  0  0
  187.0420  177.0360  144.2830 C   0  0  0  0  0  2  0  0  0  0  0  0
  189.4170  177.5620  145.1030 C   0  0  1  0  0  3  0  0  0  0  0  0
  190.0160  174.7420  147.5170 O   0  0  0  0  0  1  0  0  0  0  0  0
  190.1960  175.7180  146.5380 C   0  0  0  0  0  0  0  0  0  0  0  0
  191.5420  175.9090  145.9460 C   0  0  0  0  0  0  0  0  0  0  0  0
  187.4870  175.6580  147.6170 O   0  0  0  0  0  0  0  0  0  0  0  0
  194.1500  175.9580  144.6860 C   0  0  2  0  0  3  0  0  0  0  0  0
  188.2070  178.0280  144.2730 C   0  0  0  0  0  2  0  0  0  0  0  0
  187.7580  176.2190  146.5200 C   0  0  0  0  0  0  0  0  0  0  0  0
  192.7080  175.1650  146.5340 C   0  0  0  0  0  2  0  0  0  0  0  0
  192.8230  176.4340  142.6160 C   0  0  0  0  0  1  0  0  0  0  0  0
  191.6700  176.6230  144.8050 C   0  0  0  0  0  0  0  0  0  0  0  0
  194.0220  175.8530  146.1980 C   0  0  0  0  0  2  0  0  0  0  0  0
  189.1550  176.4450  146.0910 C   0  0  0  0  0  0  0  0  0  0  0  0
  196.4470  175.6020  143.7560 C   0  0  2  0  0  3  0  0  0  0  0  0
  195.8460  174.8520  141.4150 C   0  0  0  0  0  0  0  0  0  0  0  0
  196.5560  175.7580  140.9010 O   0  0  0  0  0  0  0  0  0  0  0  0
  195.7260  174.7360  142.8340 N   0  0  0  0  0  2  0  0  0  0  0  0
  195.1500  173.8720  140.5390 C   0  0  0  0  0  2  0  0  0  0  0  0
  194.2190  173.0410  141.3510 C   0  0  0  0  0  3  0  0  0  0  0  0
  192.9370  173.3830  141.4490 C   0  0  0  0  0  3  0  0  0  0  0  0
  191.9740  172.5640  142.2560 C   0  0  1  0  0  3  0  0  0  0  0  0
  192.1680  172.9000  143.7330 C   0  0  0  0  0  2  0  0  0  0  0  0
  192.9010  171.7760  144.4390 C   0  0  0  0  0  1  0  0  0  0  0  0
  190.5300  172.8590  141.8220 C   0  0  1  0  0  3  0  0  0  0  0  0
  189.6420  171.7700  142.1660 N   0  0  0  0  0  0  0  0  0  0  0  0
  190.0430  170.6480  142.2450 O   0  0  0  0  0  0  0  0  0  0  0  0
  189.1480  174.1200  143.2680 O   0  0  0  0  0  0  0  0  0  0  0  0
  190.0230  174.1400  142.4180 C   0  0  0  0  0  3  0  0  0  0  0  0
  197.0090  174.8340  144.7800 O   0  0  0  0  0  0  0  0  0  0  0  0
  196.5440  173.5380  144.5530 C   0  0  0  0  0  3  0  0  0  0  0  0
  197.5370  172.5450  145.1230 C   0  0  0  0  0  2  0  0  0  0  0  0
  196.2700  172.8700  145.8850 C   0  0  0  0  0  2  0  0  0  0  0  0
  2 16  1  6  0  0  0
  2 12  1  0  0  0  0
  2 17  1  0  0  0  0
  4 17  1  0  0  0  0
  4  7  1  0  0  0  0
  5  3  1  0  0  0  0
  5 14  1  0  0  0  0
  6  5  1  0  0  0  0
  7 13  1  6  0  0  0
  7 19  1  0  0  0  0
  9  8  1  0  0  0  0
 10 15  1  0  0  0  0
 10  9  1  0  0  0  0
 12  1  1  1  0  0  0
 12 18  1  0  0  0  0
 13  6  1  0  0  0  0
 14 11  2  0  0  0  0
 17 10  2  0  0  0  0
 18 15  1  0  0  0  0
 19 14  1  0  0  0  0
 19  9  2  0  0  0  0
 20  1  1  1  0  0  0
 20 35  1  0  0  0  0
 21 23  1  0  0  0  0
 22 21  2  0  0  0  0
 23 20  1  0  0  0  0
 24 25  1  0  0  0  0
 24 21  1  0  0  0  0
 25 26  2  0  0  0  0
 27 26  1  6  0  0  0
 27 28  1  0  0  0  0
 28 29  1  0  0  0  0
 30 31  1  0  0  0  0
 30 27  1  0  0  0  0
 30 34  1  1  0  0  0
 31 32  2  0  0  0  0
 34 33  2  0  0  0  0
 36 35  1  0  0  0  0
 36 37  1  0  0  0  0
 36 38  1  0  0  0  0
 37 38  1  0  0  0  0
M  END
>  <MODEL>
5

>  <REMARK>
 VINA RESULT:      -5.7      1.321      1.710
  Name = 
  12 active torsions:
  status: ('A' for Active; 'I' for Inactive)
    1  A    between atoms: C_1  and  O_27
    2  A    between atoms: C_3  and  C_28
    3  A    between atoms: C_6  and  C_20
    4  A    between atoms: C_6  and  C_22
    5  A    between atoms: C_7  and  C_12
    6  A    between atoms: N_9  and  C_30
    7  A    between atoms: C_12  and  C_18
    8  A    between atoms: C_22  and  O_27
    9  A    between atoms: C_22  and  N_38
   10  A    between atoms: C_28  and  C_30
   11  A    between atoms: C_28  and  C_31
   12  A    between atoms: C_30  and  C_33
                            x       y       z     vdW  Elec       q    Type
                         _______ _______ _______ _____ _____    ______ ____

>  <TORSDO>
F 12

$$$$
=
 OpenBabel11042417113D

 38 41  0  0  1  0  0  0  0  0999 V2000
  187.4000  176.5140  144.7220 C   0  0  0  0  0  2  0  0  0  0  0  0
  187.8720  176.0680  142.2980 C   0  0  1  0  0  3  0  0  0  0  0  0
  190.6610  172.3420  135.8820 C   0  0  0  0  0  1  0  0  0  0  0  0
  188.1620  175.0930  140.0080 O   0  0  0  0  0  0  0  0  0  0  0  0
  190.2000  173.1150  137.0240 N   0  0  0  0  0  0  0  0  0  0  0  0
  189.3680  174.2920  136.8090 C   0  0  0  0  0  2  0  0  0  0  0  0
  188.4580  173.9660  139.1870 C   0  0  1  0  0  3  0  0  0  0  0  0
  191.5710  172.9810  141.0500 O   0  0  0  0  0  1  0  0  0  0  0  0
  190.3430  173.5480  140.7160 C   0  0  0  0  0  0  0  0  0  0  0  0
  189.6160  174.3490  141.7310 C   0  0  0  0  0  0  0  0  0  0  0  0
  191.4750  171.9170  138.5790 O   0  0  0  0  0  0  0  0  0  0  0  0
  188.4700  176.1200  143.7150 C   0  0  2  0  0  3  0  0  0  0  0  0
  188.1310  174.2350  137.7070 C   0  0  0  0  0  2  0  0  0  0  0  0
  190.5660  172.7660  138.3640 C   0  0  0  0  0  0  0  0  0  0  0  0
  190.1410  174.3880  143.1390 C   0  0  0  0  0  2  0  0  0  0  0  0
  187.8050  177.4670  141.7110 C   0  0  0  0  0  1  0  0  0  0  0  0
  188.5950  175.1440  141.3400 C   0  0  0  0  0  0  0  0  0  0  0  0
  189.0430  174.7710  144.1200 C   0  0  0  0  0  2  0  0  0  0  0  0
  189.8410  173.4200  139.4730 C   0  0  0  0  0  0  0  0  0  0  0  0
  187.9740  177.4330  145.7880 C   0  0  2  0  0  3  0  0  0  0  0  0
  190.2870  176.8790  146.6540 C   0  0  0  0  0  0  0  0  0  0  0  0
  190.8220  177.7050  145.8650 O   0  0  0  0  0  0  0  0  0  0  0  0
  188.8730  176.6750  146.6470 N   0  0  0  0  0  2  0  0  0  0  0  0
  191.1290  176.1320  147.6250 C   0  0  0  0  0  2  0  0  0  0  0  0
  192.4030  175.7180  146.9730 C   0  0  0  0  0  3  0  0  0  0  0  0
  192.4240  174.6550  146.1720 C   0  0  0  0  0  3  0  0  0  0  0  0
  193.6900  174.2150  145.5000 C   0  0  1  0  0  3  0  0  0  0  0  0
  193.4220  172.9030  144.7660 C   0  0  0  0  0  2  0  0  0  0  0  0
  194.3060  171.8000  145.3160 C   0  0  0  0  0  1  0  0  0  0  0  0
  194.1720  175.2930  144.5160 C   0  0  1  0  0  3  0  0  0  0  0  0
  195.5550  175.6450  144.7550 N   0  0  0  0  0  0  0  0  0  0  0  0
  196.3530  174.8220  145.0900 O   0  0  0  0  0  0  0  0  0  0  0  0
  193.4000  175.5770  142.2990 O   0  0  0  0  0  0  0  0  0  0  0  0
  193.9930  174.8620  143.0900 C   0  0  0  0  0  3  0  0  0  0  0  0
  186.9310  177.9650  146.5510 O   0  0  0  0  0  0  0  0  0  0  0  0
  185.8180  177.9360  145.7080 C   0  0  0  0  0  3  0  0  0  0  0  0
  184.5990  178.4080  146.4760 C   0  0  0  0  0  2  0  0  0  0  0  0
  185.3030  179.3490  145.5210 C   0  0  0  0  0  2  0  0  0  0  0  0
  2 16  1  6  0  0  0
  2 12  1  0  0  0  0
  3  5  1  0  0  0  0
  4 17  1  0  0  0  0
  5 14  1  0  0  0  0
  6  5  1  0  0  0  0
  6 13  1  0  0  0  0
  7 13  1  6  0  0  0
  7 19  1  0  0  0  0
  7  4  1  0  0  0  0
  9  8  1  0  0  0  0
  9 10  1  0  0  0  0
 10 15  1  0  0  0  0
 12 18  1  0  0  0  0
 12  1  1  1  0  0  0
 14 11  2  0  0  0  0
 14 19  1  0  0  0  0
 15 18  1  0  0  0  0
 17 10  2  0  0  0  0
 17  2  1  0  0  0  0
 19  9  2  0  0  0  0
 20  1  1  6  0  0  0
 20 35  1  0  0  0  0
 20 23  1  0  0  0  0
 21 24  1  0  0  0  0
 22 21  2  0  0  0  0
 23 21  1  0  0  0  0
 25 24  1  0  0  0  0
 26 25  2  0  0  0  0
 27 28  1  6  0  0  0
 27 26  1  0  0  0  0
 28 29  1  0  0  0  0
 30 34  1  6  0  0  0
 30 31  1  0  0  0  0
 30 27  1  0  0  0  0
 31 32  2  0  0  0  0
 33 34  2  0  0  0  0
 36 37  1  0  0  0  0
 36 35  1  0  0  0  0
 38 36  1  0  0  0  0
 38 37  1  0  0  0  0
M  END
>  <MODEL>
6

>  <REMARK>
 VINA RESULT:      -5.6      2.390      7.784
  Name = 
  12 active torsions:
  status: ('A' for Active; 'I' for Inactive)
    1  A    between atoms: C_1  and  O_27
    2  A    between atoms: C_3  and  C_28
    3  A    between atoms: C_6  and  C_20
    4  A    between atoms: C_6  and  C_22
    5  A    between atoms: C_7  and  C_12
    6  A    between atoms: N_9  and  C_30
    7  A    between atoms: C_12  and  C_18
    8  A    between atoms: C_22  and  O_27
    9  A    between atoms: C_22  and  N_38
   10  A    between atoms: C_28  and  C_30
   11  A    between atoms: C_28  and  C_31
   12  A    between atoms: C_30  and  C_33
                            x       y       z     vdW  Elec       q    Type
                         _______ _______ _______ _____ _____    ______ ____

>  <TORSDO>
F 12

$$$$
=
 OpenBabel11042417113D

 38 41  0  0  1  0  0  0  0  0999 V2000
  193.6030  175.1580  145.0330 C   0  0  0  0  0  2  0  0  0  0  0  0
  191.4280  176.0450  145.9190 C   0  0  1  0  0  3  0  0  0  0  0  0
  183.9570  178.6910  145.8540 C   0  0  0  0  0  1  0  0  0  0  0  0
  189.0310  176.5200  146.4710 O   0  0  0  0  0  0  0  0  0  0  0  0
  185.3560  178.2970  145.9200 N   0  0  0  0  0  0  0  0  0  0  0  0
  185.9910  178.1110  147.2190 C   0  0  0  0  0  2  0  0  0  0  0  0
  187.6640  176.5400  146.0680 C   0  0  1  0  0  3  0  0  0  0  0  0
  188.2780  178.3450  142.8280 O   0  0  0  0  0  1  0  0  0  0  0  0
  188.4580  177.5970  143.9900 C   0  0  0  0  0  0  0  0  0  0  0  0
  189.7920  177.0160  144.2780 C   0  0  0  0  0  0  0  0  0  0  0  0
  185.7090  178.4960  143.6150 O   0  0  0  0  0  0  0  0  0  0  0  0
  192.5140  176.2030  144.8400 C   0  0  2  0  0  3  0  0  0  0  0  0
  186.7190  176.7660  147.2620 C   0  0  0  0  0  2  0  0  0  0  0  0
  186.1390  178.1090  144.7360 C   0  0  0  0  0  0  0  0  0  0  0  0
  190.8660  177.1070  143.2300 C   0  0  0  0  0  2  0  0  0  0  0  0
  191.8750  176.7170  147.2060 C   0  0  0  0  0  1  0  0  0  0  0  0
  190.0610  176.5570  145.5200 C   0  0  0  0  0  0  0  0  0  0  0  0
  191.9300  176.0410  143.4450 C   0  0  0  0  0  2  0  0  0  0  0  0
  187.4520  177.4440  144.8730 C   0  0  0  0  0  0  0  0  0  0  0  0
  194.7400  175.3750  144.0470 C   0  0  2  0  0  3  0  0  0  0  0  0
  194.7050  174.7070  141.6070 C   0  0  0  0  0  0  0  0  0  0  0  0
  194.7590  175.9110  141.2360 O   0  0  0  0  0  0  0  0  0  0  0  0
  194.6650  174.3720  142.9950 N   0  0  0  0  0  2  0  0  0  0  0  0
  194.7170  173.6210  140.5910 C   0  0  0  0  0  2  0  0  0  0  0  0
  193.4430  172.8530  140.6590 C   0  0  0  0  0  3  0  0  0  0  0  0
  192.2770  173.4890  140.5680 C   0  0  0  0  0  3  0  0  0  0  0  0
  190.9780  172.7420  140.6300 C   0  0  1  0  0  3  0  0  0  0  0  0
  190.7540  172.2740  142.0660 C   0  0  0  0  0  2  0  0  0  0  0  0
  190.4450  170.7890  142.0950 C   0  0  0  0  0  1  0  0  0  0  0  0
  189.8230  173.6470  140.1720 C   0  0  1  0  0  3  0  0  0  0  0  0
  188.8880  172.9260  139.3360 N   0  0  0  0  0  0  0  0  0  0  0  0
  189.1520  171.8440  138.9060 O   0  0  0  0  0  0  0  0  0  0  0  0
  188.5420  175.3350  141.2210 O   0  0  0  0  0  0  0  0  0  0  0  0
  189.1010  174.2570  141.3380 C   0  0  0  0  0  3  0  0  0  0  0  0
  195.9610  175.2620  144.7180 O   0  0  0  0  0  0  0  0  0  0  0  0
  196.1830  173.8890  144.8320 C   0  0  0  0  0  3  0  0  0  0  0  0
  197.6750  173.6270  144.8900 C   0  0  0  0  0  2  0  0  0  0  0  0
  196.8530  173.6040  146.1610 C   0  0  0  0  0  2  0  0  0  0  0  0
  2 16  1  1  0  0  0
  3  5  1  0  0  0  0
  5  6  1  0  0  0  0
  6 13  1  0  0  0  0
  7  4  1  0  0  0  0
  7 13  1  1  0  0  0
  8  9  1  0  0  0  0
  9 10  1  0  0  0  0
  9 19  2  0  0  0  0
 10 17  2  0  0  0  0
 11 14  2  0  0  0  0
 12  1  1  1  0  0  0
 12  2  1  0  0  0  0
 14 19  1  0  0  0  0
 14  5  1  0  0  0  0
 15 18  1  0  0  0  0
 15 10  1  0  0  0  0
 17  2  1  0  0  0  0
 17  4  1  0  0  0  0
 18 12  1  0  0  0  0
 19  7  1  0  0  0  0
 20 35  1  0  0  0  0
 20  1  1  1  0  0  0
 21 23  1  0  0  0  0
 22 21  2  0  0  0  0
 23 20  1  0  0  0  0
 24 25  1  0  0  0  0
 24 21  1  0  0  0  0
 26 25  2  0  0  0  0
 27 26  1  1  0  0  0
 27 28  1  0  0  0  0
 28 29  1  0  0  0  0
 30 27  1  0  0  0  0
 30 34  1  1  0  0  0
 31 30  1  0  0  0  0
 32 31  2  0  0  0  0
 33 34  2  0  0  0  0
 35 36  1  0  0  0  0
 36 37  1  0  0  0  0
 36 38  1  0  0  0  0
 37 38  1  0  0  0  0
M  END
>  <MODEL>
7

>  <REMARK>
 VINA RESULT:      -5.5      1.515      2.664
  Name = 
  12 active torsions:
  status: ('A' for Active; 'I' for Inactive)
    1  A    between atoms: C_1  and  O_27
    2  A    between atoms: C_3  and  C_28
    3  A    between atoms: C_6  and  C_20
    4  A    between atoms: C_6  and  C_22
    5  A    between atoms: C_7  and  C_12
    6  A    between atoms: N_9  and  C_30
    7  A    between atoms: C_12  and  C_18
    8  A    between atoms: C_22  and  O_27
    9  A    between atoms: C_22  and  N_38
   10  A    between atoms: C_28  and  C_30
   11  A    between atoms: C_28  and  C_31
   12  A    between atoms: C_30  and  C_33
                            x       y       z     vdW  Elec       q    Type
                         _______ _______ _______ _____ _____    ______ ____

>  <TORSDO>
F 12

$$$$
=
 OpenBabel11042417113D

 38 41  0  0  1  0  0  0  0  0999 V2000
  188.3640  176.5350  146.8480 C   0  0  0  0  0  2  0  0  0  0  0  0
  190.8100  175.9870  146.7170 C   0  0  1  0  0  3  0  0  0  0  0  0
  197.4750  172.5180  144.1920 C   0  0  0  0  0  1  0  0  0  0  0  0
  193.1700  175.5110  146.0200 O   0  0  0  0  0  0  0  0  0  0  0  0
  196.2780  173.1220  144.7570 N   0  0  0  0  0  0  0  0  0  0  0  0
  196.4060  174.1750  145.7560 C   0  0  0  0  0  2  0  0  0  0  0  0
  194.0780  174.9960  145.0510 C   0  0  1  0  0  3  0  0  0  0  0  0
  192.2570  171.7450  144.5550 O   0  0  0  0  0  1  0  0  0  0  0  0
  192.5610  173.0630  144.8900 C   0  0  0  0  0  0  0  0  0  0  0  0
  191.4940  173.9340  145.4390 C   0  0  0  0  0  0  0  0  0  0  0  0
  194.8100  171.6290  143.7100 O   0  0  0  0  0  0  0  0  0  0  0  0
  189.3840  175.4100  146.7660 C   0  0  2  0  0  3  0  0  0  0  0  0
  195.5350  175.3740  145.3740 C   0  0  0  0  0  2  0  0  0  0  0  0
  194.9670  172.6910  144.3740 C   0  0  0  0  0  0  0  0  0  0  0  0
  190.0790  173.4250  145.4610 C   0  0  0  0  0  2  0  0  0  0  0  0
  191.2770  176.3370  148.1190 C   0  0  0  0  0  1  0  0  0  0  0  0
  191.8310  175.0950  146.0430 C   0  0  0  0  0  0  0  0  0  0  0  0
  189.0860  174.5760  145.5300 C   0  0  0  0  0  2  0  0  0  0  0  0
  193.8180  173.5310  144.7710 C   0  0  0  0  0  0  0  0  0  0  0  0
  187.2410  176.3200  145.8470 C   0  0  2  0  0  3  0  0  0  0  0  0
  186.9300  176.5620  143.3470 C   0  0  0  0  0  0  0  0  0  0  0  0
  185.9460  175.7740  143.3540 O   0  0  0  0  0  0  0  0  0  0  0  0
  187.6380  176.8560  144.5520 N   0  0  0  0  0  2  0  0  0  0  0  0
  187.3410  177.2200  142.0780 C   0  0  0  0  0  2  0  0  0  0  0  0
  188.1080  176.2600  141.2370 C   0  0  0  0  0  3  0  0  0  0  0  0
  188.9660  175.4160  141.8060 C   0  0  0  0  0  3  0  0  0  0  0  0
  189.7510  174.4360  140.9860 C   0  0  1  0  0  3  0  0  0  0  0  0
  191.1520  174.3160  141.5800 C   0  0  0  0  0  2  0  0  0  0  0  0
  191.4990  175.5610  142.3720 C   0  0  0  0  0  1  0  0  0  0  0  0
  189.0490  173.0690  140.9780 C   0  0  1  0  0  3  0  0  0  0  0  0
  188.1840  172.9130  142.1270 N   0  0  0  0  0  0  0  0  0  0  0  0
  187.0680  172.5050  142.0090 O   0  0  0  0  0  0  0  0  0  0  0  0
  188.7160  172.1550  138.8230 O   0  0  0  0  0  0  0  0  0  0  0  0
  188.2660  172.8540  139.7160 C   0  0  0  0  0  3  0  0  0  0  0  0
  186.0910  176.9760  146.2940 O   0  0  0  0  0  0  0  0  0  0  0  0
  186.4360  178.3290  146.3200 C   0  0  0  0  0  3  0  0  0  0  0  0
  185.2480  179.1550  145.8690 C   0  0  0  0  0  2  0  0  0  0  0  0
  185.5730  179.0400  147.3430 C   0  0  0  0  0  2  0  0  0  0  0  0
  2 12  1  0  0  0  0
  2 16  1  1  0  0  0
  3  5  1  0  0  0  0
  4 17  1  0  0  0  0
  5  6  1  0  0  0  0
  7 13  1  1  0  0  0
  7  4  1  0  0  0  0
  8  9  1  0  0  0  0
  9 10  1  0  0  0  0
 10 15  1  0  0  0  0
 10 17  2  0  0  0  0
 11 14  2  0  0  0  0
 12  1  1  6  0  0  0
 13  6  1  0  0  0  0
 14  5  1  0  0  0  0
 14 19  1  0  0  0  0
 15 18  1  0  0  0  0
 17  2  1  0  0  0  0
 18 12  1  0  0  0  0
 19  9  2  0  0  0  0
 19  7  1  0  0  0  0
 20 35  1  0  0  0  0
 20  1  1  1  0  0  0
 21 22  2  0  0  0  0
 21 23  1  0  0  0  0
 23 20  1  0  0  0  0
 24 21  1  0  0  0  0
 25 26  2  0  0  0  0
 25 24  1  0  0  0  0
 27 28  1  1  0  0  0
 27 26  1  0  0  0  0
 28 29  1  0  0  0  0
 30 34  1  6  0  0  0
 30 27  1  0  0  0  0
 30 31  1  0  0  0  0
 32 31  2  0  0  0  0
 33 34  2  0  0  0  0
 35 36  1  0  0  0  0
 36 38  1  0  0  0  0
 37 36  1  0  0  0  0
 37 38  1  0  0  0  0
M  END
>  <MODEL>
8

>  <REMARK>
 VINA RESULT:      -5.4      2.127      7.253
  Name = 
  12 active torsions:
  status: ('A' for Active; 'I' for Inactive)
    1  A    between atoms: C_1  and  O_27
    2  A    between atoms: C_3  and  C_28
    3  A    between atoms: C_6  and  C_20
    4  A    between atoms: C_6  and  C_22
    5  A    between atoms: C_7  and  C_12
    6  A    between atoms: N_9  and  C_30
    7  A    between atoms: C_12  and  C_18
    8  A    between atoms: C_22  and  O_27
    9  A    between atoms: C_22  and  N_38
   10  A    between atoms: C_28  and  C_30
   11  A    between atoms: C_28  and  C_31
   12  A    between atoms: C_30  and  C_33
                            x       y       z     vdW  Elec       q    Type
                         _______ _______ _______ _____ _____    ______ ____

>  <TORSDO>
F 12

$$$$
=
 OpenBabel11042417113D

 38 41  0  0  1  0  0  0  0  0999 V2000
  192.1800  173.3970  145.1000 C   0  0  0  0  0  2  0  0  0  0  0  0
  190.1170  174.4880  144.1760 C   0  0  1  0  0  3  0  0  0  0  0  0
  183.7180  179.1570  143.9180 C   0  0  0  0  0  1  0  0  0  0  0  0
  188.3010  176.0570  143.4560 O   0  0  0  0  0  0  0  0  0  0  0  0
  184.8270  178.2170  143.9370 N   0  0  0  0  0  0  0  0  0  0  0  0
  185.1890  177.5050  142.7180 C   0  0  0  0  0  2  0  0  0  0  0  0
  187.5540  177.2490  143.6820 C   0  0  1  0  0  3  0  0  0  0  0  0
  186.8130  176.5170  147.2950 O   0  0  0  0  0  1  0  0  0  0  0  0
  187.3880  176.5090  146.0260 C   0  0  0  0  0  0  0  0  0  0  0  0
  188.5860  175.6700  145.7800 C   0  0  0  0  0  0  0  0  0  0  0  0
  185.1350  178.3460  146.2540 O   0  0  0  0  0  0  0  0  0  0  0  0
  190.7330  173.7660  145.3880 C   0  0  2  0  0  3  0  0  0  0  0  0
  186.6930  177.6250  142.4630 C   0  0  0  0  0  2  0  0  0  0  0  0
  185.5640  177.9490  145.1360 C   0  0  0  0  0  0  0  0  0  0  0  0
  189.2460  174.9860  146.9450 C   0  0  0  0  0  2  0  0  0  0  0  0
  189.6740  173.4720  143.1370 C   0  0  0  0  0  1  0  0  0  0  0  0
  188.9680  175.4160  144.5090 C   0  0  0  0  0  0  0  0  0  0  0  0
  190.6940  174.6440  146.6290 C   0  0  0  0  0  2  0  0  0  0  0  0
  186.8370  177.2080  145.0150 C   0  0  0  0  0  0  0  0  0  0  0  0
  192.9300  174.5790  144.5060 C   0  0  2  0  0  3  0  0  0  0  0  0
  193.1030  174.9640  142.0110 C   0  0  0  0  0  0  0  0  0  0  0  0
  192.3160  175.9480  142.0690 O   0  0  0  0  0  0  0  0  0  0  0  0
  193.4290  174.2200  143.1860 N   0  0  0  0  0  2  0  0  0  0  0  0
  193.7250  174.5920  140.7120 C   0  0  0  0  0  2  0  0  0  0  0  0
  192.6710  174.1520  139.7560 C   0  0  0  0  0  3  0  0  0  0  0  0
  191.9430  173.0710  140.0210 C   0  0  0  0  0  3  0  0  0  0  0  0
  190.8730  172.6050  139.0780 C   0  0  1  0  0  3  0  0  0  0  0  0
  190.0770  171.4930  139.7560 C   0  0  0  0  0  2  0  0  0  0  0  0
  190.9140  170.8220  140.8290 C   0  0  0  0  0  1  0  0  0  0  0  0
  189.9500  173.7750  138.7030 C   0  0  1  0  0  3  0  0  0  0  0  0
  189.6650  173.7880  137.2840 N   0  0  0  0  0  0  0  0  0  0  0  0
  188.8090  174.4880  136.8330 O   0  0  0  0  0  0  0  0  0  0  0  0
  188.3120  174.7150  140.1260 O   0  0  0  0  0  0  0  0  0  0  0  0
  188.6670  173.7420  139.4810 C   0  0  0  0  0  3  0  0  0  0  0  0
  194.0020  174.9130  145.3390 O   0  0  0  0  0  0  0  0  0  0  0  0
  193.5700  176.0360  146.0460 C   0  0  0  0  0  3  0  0  0  0  0  0
  194.5900  177.1470  145.8870 C   0  0  0  0  0  2  0  0  0  0  0  0
  193.3160  177.1680  145.0700 C   0  0  0  0  0  2  0  0  0  0  0  0
  2 16  1  6  0  0  0
  2 17  1  0  0  0  0
  2 12  1  0  0  0  0
  3  5  1  0  0  0  0
  4  7  1  0  0  0  0
  4 17  1  0  0  0  0
  5 14  1  0  0  0  0
  6  5  1  0  0  0  0
  7 13  1  6  0  0  0
  7 19  1  0  0  0  0
  9  8  1  0  0  0  0
 10  9  1  0  0  0  0
 10 15  1  0  0  0  0
 12  1  1  6  0  0  0
 12 18  1  0  0  0  0
 13  6  1  0  0  0  0
 14 11  2  0  0  0  0
 17 10  2  0  0  0  0
 18 15  1  0  0  0  0
 19 14  1  0  0  0  0
 19  9  2  0  0  0  0
 20  1  1  1  0  0  0
 20 35  1  0  0  0  0
 21 22  2  0  0  0  0
 21 23  1  0  0  0  0
 23 20  1  0  0  0  0
 24 21  1  0  0  0  0
 25 26  2  0  0  0  0
 25 24  1  0  0  0  0
 27 28  1  1  0  0  0
 27 26  1  0  0  0  0
 28 29  1  0  0  0  0
 30 27  1  0  0  0  0
 30 34  1  1  0  0  0
 31 30  1  0  0  0  0
 32 31  2  0  0  0  0
 34 33  2  0  0  0  0
 35 36  1  0  0  0  0
 37 36  1  0  0  0  0
 38 37  1  0  0  0  0
 38 36  1  0  0  0  0
M  END
>  <MODEL>
9

>  <REMARK>
 VINA RESULT:      -5.4      2.238      3.239
  Name = 
  12 active torsions:
  status: ('A' for Active; 'I' for Inactive)
    1  A    between atoms: C_1  and  O_27
    2  A    between atoms: C_3  and  C_28
    3  A    between atoms: C_6  and  C_20
    4  A    between atoms: C_6  and  C_22
    5  A    between atoms: C_7  and  C_12
    6  A    between atoms: N_9  and  C_30
    7  A    between atoms: C_12  and  C_18
    8  A    between atoms: C_22  and  O_27
    9  A    between atoms: C_22  and  N_38
   10  A    between atoms: C_28  and  C_30
   11  A    between atoms: C_28  and  C_31
   12  A    between atoms: C_30  and  C_33
                            x       y       z     vdW  Elec       q    Type
                         _______ _______ _______ _____ _____    ______ ____

>  <TORSDO>
F 12

$$$$
