=
 OpenBabel11042417373D

 33 35  0  0  1  0  0  0  0  0999 V2000
  189.3760  174.9090  147.5010 C   0  0  0  0  0  3  0  0  0  0  0  0
  187.3000  178.0570  144.2440 C   0  0  1  0  0  3  0  0  0  0  0  0
  190.2090  175.6560  144.6210 C   0  0  0  0  0  2  0  0  0  0  0  0
  185.1800  177.1170  145.0780 N   0  0  0  0  0  2  0  0  0  0  0  0
  191.1570  175.3140  145.7460 C   0  0  0  0  0  0  0  0  0  0  0  0
  185.8820  178.3520  144.7510 C   0  0  0  0  0  2  0  0  0  0  0  0
  185.2160  176.9120  146.5270 C   0  0  0  0  0  2  0  0  0  0  0  0
  188.4620  175.6740  146.9810 C   0  0  0  0  0  0  0  0  0  0  0  0
  188.0450  176.8700  144.9190 C   0  0  1  0  0  3  0  0  0  0  0  0
  186.5990  177.1800  147.1360 C   0  0  0  0  0  2  0  0  0  0  0  0
  189.5630  177.0330  144.7670 C   0  0  0  0  0  2  0  0  0  0  0  0
  190.7530  174.9070  146.9640 C   0  0  0  0  0  3  0  0  0  0  0  0
  187.6840  176.5110  146.3560 C   0  0  0  0  0  0  0  0  0  0  0  0
  186.4170  178.9040  142.1280 O   0  0  0  0  0  1  0  0  0  0  0  0
  187.2380  177.9300  142.7170 C   0  0  2  0  0  3  0  0  0  0  0  0
  186.9300  176.5640  142.2700 N   0  0  0  0  0  2  0  0  0  0  0  0
  187.5700  176.2480  140.9950 C   0  0  0  0  0  2  0  0  0  0  0  0
  189.6010  173.2770  140.1070 N   0  0  0  0  0  0  0  0  0  0  0  0
  189.5810  172.5210  141.2400 C   0  0  0  0  0  0  0  0  0  0  0  0
  188.8720  172.9820  142.3530 C   0  0  0  0  0  3  0  0  0  0  0  0
  188.2490  174.9290  141.0910 C   0  0  0  0  0  0  0  0  0  0  0  0
  188.2020  174.2000  142.2760 C   0  0  0  0  0  3  0  0  0  0  0  0
  188.9580  174.4450  140.0360 N   0  0  0  0  0  0  0  0  0  0  0  0
  190.4130  170.6160  142.3810 O   0  0  0  0  0  0  0  0  0  0  0  0
  190.8780  170.6860  140.1080 N   0  0  0  0  0  1  0  0  0  0  0  0
  190.3030  171.2380  141.2890 C   0  0  0  0  0  0  0  0  0  0  0  0
  192.6260  175.2040  145.4450 C   0  0  1  0  0  3  0  0  0  0  0  0
  192.9880  173.8130  145.0240 C   0  0  0  0  0  0  0  0  0  0  0  0
  193.7030  173.0810  145.7600 O   0  0  0  0  0  1  0  0  0  0  0  0
  192.5600  173.3400  143.7920 O   0  0  0  0  0  0  0  0  0  0  0  0
  193.0880  176.2280  144.4130 C   0  0  0  0  0  2  0  0  0  0  0  0
  195.7080  176.2910  144.2740 N   0  0  0  0  0  0  0  0  0  0  0  0
  194.5530  176.2620  144.3360 C   0  0  0  0  0  0  0  0  0  0  0  0
  2 15  1  6  0  0  0
  2  6  1  0  0  0  0
  2  9  1  0  0  0  0
  3 11  1  0  0  0  0
  3  5  1  0  0  0  0
  4  7  1  0  0  0  0
  5 12  2  0  0  0  0
  6  4  1  0  0  0  0
  7 10  1  0  0  0  0
  8  1  2  0  0  0  0
  9 11  1  1  0  0  0
  9 13  1  0  0  0  0
 12  1  1  0  0  0  0
 13  8  2  0  0  0  0
 13 10  1  0  0  0  0
 15 14  1  1  0  0  0
 16 15  1  0  0  0  0
 17 21  1  0  0  0  0
 17 16  1  0  0  0  0
 18 19  1  0  0  0  0
 19 26  1  0  0  0  0
 19 20  2  0  0  0  0
 21 22  2  0  0  0  0
 22 20  1  0  0  0  0
 23 18  2  0  0  0  0
 23 21  1  0  0  0  0
 25 26  1  0  0  0  0
 26 24  2  0  0  0  0
 27 31  1  6  0  0  0
 27  5  1  0  0  0  0
 28 27  1  0  0  0  0
 28 29  1  0  0  0  0
 30 28  2  0  0  0  0
 32 33  3  0  0  0  0
 33 31  1  0  0  0  0
M  END
>  <MODEL>
1

>  <REMARK>
 VINA RESULT:      -7.1      0.000      0.000
  Name = 
  9 active torsions:
  status: ('A' for Active; 'I' for Inactive)
    1  A    between atoms: C_3  and  C_18
    2  A    between atoms: C_5  and  C_6
    3  A    between atoms: C_5  and  C_13
    4  A    between atoms: C_5  and  C_15
    5  A    between atoms: C_11  and  C_25
    6  A    between atoms: C_13  and  C_20
    7  A    between atoms: C_14  and  N_16
    8  A    between atoms: C_14  and  C_28
    9  A    between atoms: N_16  and  C_18
                            x       y       z     vdW  Elec       q    Type
                         _______ _______ _______ _____ _____    ______ ____

>  <TORSDO>
F 9

$$$$
=
 OpenBabel11042417373D

 33 35  0  0  1  0  0  0  0  0999 V2000
  189.5320  174.8750  147.2430 C   0  0  0  0  0  3  0  0  0  0  0  0
  187.3240  177.9320  143.9860 C   0  0  1  0  0  3  0  0  0  0  0  0
  190.1830  175.4600  144.2790 C   0  0  0  0  0  2  0  0  0  0  0  0
  185.2410  177.1000  145.0070 N   0  0  0  0  0  2  0  0  0  0  0  0
  191.1970  175.1410  145.3520 C   0  0  0  0  0  0  0  0  0  0  0  0
  185.9540  178.2950  144.5740 C   0  0  0  0  0  2  0  0  0  0  0  0
  185.3730  176.9620  146.4590 C   0  0  0  0  0  2  0  0  0  0  0  0
  188.6060  175.6440  146.7500 C   0  0  0  0  0  0  0  0  0  0  0  0
  188.0810  176.7540  144.6650 C   0  0  1  0  0  3  0  0  0  0  0  0
  186.8020  177.2140  146.9580 C   0  0  0  0  0  2  0  0  0  0  0  0
  189.5880  176.8630  144.4020 C   0  0  0  0  0  2  0  0  0  0  0  0
  190.8670  174.8040  146.6130 C   0  0  0  0  0  3  0  0  0  0  0  0
  187.8110  176.4750  146.1390 C   0  0  0  0  0  0  0  0  0  0  0  0
  186.2020  178.6080  141.9220 O   0  0  0  0  0  1  0  0  0  0  0  0
  187.1520  177.7360  142.4740 C   0  0  2  0  0  3  0  0  0  0  0  0
  186.9350  176.3310  142.1030 N   0  0  0  0  0  2  0  0  0  0  0  0
  187.7740  175.9260  140.9770 C   0  0  0  0  0  2  0  0  0  0  0  0
  190.4260  173.3470  141.2090 N   0  0  0  0  0  0  0  0  0  0  0  0
  189.8570  172.3630  141.9600 C   0  0  0  0  0  0  0  0  0  0  0  0
  188.5460  172.5290  142.4150 C   0  0  0  0  0  3  0  0  0  0  0  0
  188.4810  174.6610  141.3110 C   0  0  0  0  0  0  0  0  0  0  0  0
  187.8530  173.6920  142.0880 C   0  0  0  0  0  3  0  0  0  0  0  0
  189.7600  174.4610  140.8960 N   0  0  0  0  0  0  0  0  0  0  0  0
  190.4520  170.0950  141.6140 O   0  0  0  0  0  0  0  0  0  0  0  0
  191.5490  171.1460  143.3680 N   0  0  0  0  0  1  0  0  0  0  0  0
  190.6180  171.1470  142.2900 C   0  0  0  0  0  0  0  0  0  0  0  0
  192.6370  174.9700  144.9580 C   0  0  1  0  0  3  0  0  0  0  0  0
  193.1720  176.2110  144.3110 C   0  0  0  0  0  0  0  0  0  0  0  0
  193.2380  177.2950  144.9520 O   0  0  0  0  0  1  0  0  0  0  0  0
  193.5650  176.1720  142.9820 O   0  0  0  0  0  0  0  0  0  0  0  0
  193.5150  174.5390  146.1290 C   0  0  0  0  0  2  0  0  0  0  0  0
  195.9700  174.0740  145.3270 N   0  0  0  0  0  0  0  0  0  0  0  0
  194.8870  174.2780  145.6800 C   0  0  0  0  0  0  0  0  0  0  0  0
  2 15  1  6  0  0  0
  2  6  1  0  0  0  0
  2  9  1  0  0  0  0
  3 11  1  0  0  0  0
  3  5  1  0  0  0  0
  4  7  1  0  0  0  0
  5 12  2  0  0  0  0
  6  4  1  0  0  0  0
  7 10  1  0  0  0  0
  8  1  2  0  0  0  0
  9 11  1  1  0  0  0
  9 13  1  0  0  0  0
 12  1  1  0  0  0  0
 13  8  2  0  0  0  0
 13 10  1  0  0  0  0
 15 14  1  1  0  0  0
 16 15  1  0  0  0  0
 17 21  1  0  0  0  0
 17 16  1  0  0  0  0
 18 19  1  0  0  0  0
 19 26  1  0  0  0  0
 19 20  2  0  0  0  0
 21 22  2  0  0  0  0
 22 20  1  0  0  0  0
 23 18  2  0  0  0  0
 23 21  1  0  0  0  0
 24 26  2  0  0  0  0
 26 25  1  0  0  0  0
 27  5  1  0  0  0  0
 27 31  1  1  0  0  0
 28 29  1  0  0  0  0
 28 27  1  0  0  0  0
 30 28  2  0  0  0  0
 32 33  3  0  0  0  0
 33 31  1  0  0  0  0
M  END
>  <MODEL>
2

>  <REMARK>
 VINA RESULT:      -7.1      1.340      1.483
  Name = 
  9 active torsions:
  status: ('A' for Active; 'I' for Inactive)
    1  A    between atoms: C_3  and  C_18
    2  A    between atoms: C_5  and  C_6
    3  A    between atoms: C_5  and  C_13
    4  A    between atoms: C_5  and  C_15
    5  A    between atoms: C_11  and  C_25
    6  A    between atoms: C_13  and  C_20
    7  A    between atoms: C_14  and  N_16
    8  A    between atoms: C_14  and  C_28
    9  A    between atoms: N_16  and  C_18
                            x       y       z     vdW  Elec       q    Type
                         _______ _______ _______ _____ _____    ______ ____

>  <TORSDO>
F 9

$$$$
=
 OpenBabel11042417373D

 33 35  0  0  1  0  0  0  0  0999 V2000
  186.5220  177.5650  140.6030 C   0  0  0  0  0  3  0  0  0  0  0  0
  185.7330  176.8220  145.4660 C   0  0  1  0  0  3  0  0  0  0  0  0
  188.1570  175.9650  142.6810 C   0  0  0  0  0  2  0  0  0  0  0  0
  185.0860  179.1990  145.4630 N   0  0  0  0  0  2  0  0  0  0  0  0
  188.0050  175.6050  141.2220 C   0  0  0  0  0  0  0  0  0  0  0  0
  184.7040  177.8670  145.9160 C   0  0  0  0  0  2  0  0  0  0  0  0
  184.3080  179.5420  144.2700 C   0  0  0  0  0  2  0  0  0  0  0  0
  186.0110  177.7570  141.7830 C   0  0  0  0  0  0  0  0  0  0  0  0
  186.3730  177.0350  144.0640 C   0  0  1  0  0  3  0  0  0  0  0  0
  184.2260  178.3930  143.2570 C   0  0  0  0  0  2  0  0  0  0  0  0
  186.8970  175.7050  143.5060 C   0  0  0  0  0  2  0  0  0  0  0  0
  187.3580  176.3760  140.3280 C   0  0  0  0  0  3  0  0  0  0  0  0
  185.5670  177.7810  143.0070 C   0  0  0  0  0  0  0  0  0  0  0  0
  186.2320  176.8740  147.8590 O   0  0  0  0  0  1  0  0  0  0  0  0
  186.7770  176.6770  146.5810 C   0  0  2  0  0  3  0  0  0  0  0  0
  187.9860  177.4760  146.3370 N   0  0  0  0  0  2  0  0  0  0  0  0
  189.1930  176.8020  146.8100 C   0  0  0  0  0  2  0  0  0  0  0  0
  191.3350  175.0660  144.3330 N   0  0  0  0  0  0  0  0  0  0  0  0
  191.7660  176.0680  143.5170 C   0  0  0  0  0  0  0  0  0  0  0  0
  191.3530  177.3780  143.7750 C   0  0  0  0  0  3  0  0  0  0  0  0
  190.1140  176.5670  145.6660 C   0  0  0  0  0  0  0  0  0  0  0  0
  190.5160  177.6280  144.8600 C   0  0  0  0  0  3  0  0  0  0  0  0
  190.5330  175.3070  145.3720 N   0  0  0  0  0  0  0  0  0  0  0  0
  193.6720  176.4770  142.1680 O   0  0  0  0  0  0  0  0  0  0  0  0
  192.3600  174.6820  141.5040 N   0  0  0  0  0  1  0  0  0  0  0  0
  192.6480  175.7700  142.3770 C   0  0  0  0  0  0  0  0  0  0  0  0
  188.7940  174.4490  140.6760 C   0  0  1  0  0  3  0  0  0  0  0  0
  188.6260  173.2290  141.5290 C   0  0  0  0  0  0  0  0  0  0  0  0
  187.4880  172.7160  141.7040 O   0  0  0  0  0  0  0  0  0  0  0  0
  189.7330  172.6810  142.1610 O   0  0  0  0  0  1  0  0  0  0  0  0
  188.4570  174.1490  139.2180 C   0  0  0  0  0  2  0  0  0  0  0  0
  190.4680  172.9570  138.0250 N   0  0  0  0  0  0  0  0  0  0  0  0
  189.5810  173.4820  138.5520 C   0  0  0  0  0  0  0  0  0  0  0  0
  1  8  2  0  0  0  0
  2  6  1  0  0  0  0
  2 15  1  1  0  0  0
  3 11  1  0  0  0  0
  4  6  1  0  0  0  0
  5  3  1  0  0  0  0
  7  4  1  0  0  0  0
  8 13  2  0  0  0  0
  9 11  1  6  0  0  0
  9  2  1  0  0  0  0
 10  7  1  0  0  0  0
 12  1  1  0  0  0  0
 12  5  2  0  0  0  0
 13 10  1  0  0  0  0
 13  9  1  0  0  0  0
 15 14  1  1  0  0  0
 16 15  1  0  0  0  0
 16 17  1  0  0  0  0
 18 23  1  0  0  0  0
 19 20  1  0  0  0  0
 19 18  2  0  0  0  0
 20 22  2  0  0  0  0
 21 17  1  0  0  0  0
 22 21  1  0  0  0  0
 23 21  2  0  0  0  0
 24 26  2  0  0  0  0
 25 26  1  0  0  0  0
 26 19  1  0  0  0  0
 27 31  1  6  0  0  0
 27  5  1  0  0  0  0
 27 28  1  0  0  0  0
 28 29  2  0  0  0  0
 28 30  1  0  0  0  0
 32 33  3  0  0  0  0
 33 31  1  0  0  0  0
M  END
>  <MODEL>
3

>  <REMARK>
 VINA RESULT:      -7.0      2.525      5.410
  Name = 
  9 active torsions:
  status: ('A' for Active; 'I' for Inactive)
    1  A    between atoms: C_3  and  C_18
    2  A    between atoms: C_5  and  C_6
    3  A    between atoms: C_5  and  C_13
    4  A    between atoms: C_5  and  C_15
    5  A    between atoms: C_11  and  C_25
    6  A    between atoms: C_13  and  C_20
    7  A    between atoms: C_14  and  N_16
    8  A    between atoms: C_14  and  C_28
    9  A    between atoms: N_16  and  C_18
                            x       y       z     vdW  Elec       q    Type
                         _______ _______ _______ _____ _____    ______ ____

>  <TORSDO>
F 9

$$$$
=
 OpenBabel11042417373D

 33 35  0  0  1  0  0  0  0  0999 V2000
  186.7700  176.8150  146.9260 C   0  0  0  0  0  3  0  0  0  0  0  0
  191.1060  175.7420  144.7180 C   0  0  1  0  0  3  0  0  0  0  0  0
  187.9400  177.7690  144.2290 C   0  0  0  0  0  2  0  0  0  0  0  0
  192.0240  175.9490  146.9950 N   0  0  0  0  0  2  0  0  0  0  0  0
  186.4770  177.5260  144.5120 C   0  0  0  0  0  0  0  0  0  0  0  0
  192.0130  175.1270  145.7920 C   0  0  0  0  0  2  0  0  0  0  0  0
  191.1290  175.3560  147.9910 C   0  0  0  0  0  2  0  0  0  0  0  0
  187.9920  176.3820  146.8170 C   0  0  0  0  0  0  0  0  0  0  0  0
  189.8090  176.4380  145.2200 C   0  0  1  0  0  3  0  0  0  0  0  0
  189.7900  174.9000  147.3970 C   0  0  0  0  0  2  0  0  0  0  0  0
  188.7570  176.4830  144.1030 C   0  0  0  0  0  2  0  0  0  0  0  0
  185.9960  177.1960  145.7250 C   0  0  0  0  0  3  0  0  0  0  0  0
  189.1870  175.9540  146.5250 C   0  0  0  0  0  0  0  0  0  0  0  0
  191.5420  177.9920  143.8670 O   0  0  0  0  0  1  0  0  0  0  0  0
  191.9690  176.6550  143.8370 C   0  0  2  0  0  3  0  0  0  0  0  0
  192.1460  176.1330  142.4750 N   0  0  0  0  0  2  0  0  0  0  0  0
  193.5230  176.2750  142.0090 C   0  0  0  0  0  2  0  0  0  0  0  0
  196.1580  175.2280  144.3980 N   0  0  0  0  0  0  0  0  0  0  0  0
  196.0570  173.8700  144.4170 C   0  0  0  0  0  0  0  0  0  0  0  0
  195.0950  173.2490  143.6150 C   0  0  0  0  0  3  0  0  0  0  0  0
  194.4180  175.4150  142.8280 C   0  0  0  0  0  0  0  0  0  0  0  0
  194.2660  174.0320  142.8150 C   0  0  0  0  0  3  0  0  0  0  0  0
  195.3620  175.9770  143.6300 N   0  0  0  0  0  0  0  0  0  0  0  0
  197.5220  172.0490  144.8120 O   0  0  0  0  0  0  0  0  0  0  0  0
  197.1710  173.4460  146.6320 N   0  0  0  0  0  1  0  0  0  0  0  0
  196.9470  173.0710  145.2750 C   0  0  0  0  0  0  0  0  0  0  0  0
  185.4680  177.8790  143.4550 C   0  0  1  0  0  3  0  0  0  0  0  0
  184.7090  179.1160  143.8240 C   0  0  0  0  0  0  0  0  0  0  0  0
  185.3140  180.1870  144.0990 O   0  0  0  0  0  1  0  0  0  0  0  0
  183.3240  179.0700  143.8970 O   0  0  0  0  0  0  0  0  0  0  0  0
  186.0970  178.0130  142.0710 C   0  0  0  0  0  2  0  0  0  0  0  0
  184.2440  178.1600  140.2180 N   0  0  0  0  0  0  0  0  0  0  0  0
  185.0600  178.0950  141.0360 C   0  0  0  0  0  0  0  0  0  0  0  0
  2 15  1  1  0  0  0
  2  9  1  0  0  0  0
  2  6  1  0  0  0  0
  3  5  1  0  0  0  0
  4  7  1  0  0  0  0
  5 12  2  0  0  0  0
  6  4  1  0  0  0  0
  8  1  2  0  0  0  0
  9 11  1  6  0  0  0
  9 13  1  0  0  0  0
 10  7  1  0  0  0  0
 11  3  1  0  0  0  0
 12  1  1  0  0  0  0
 13  8  2  0  0  0  0
 13 10  1  0  0  0  0
 15 14  1  6  0  0  0
 16 15  1  0  0  0  0
 17 16  1  0  0  0  0
 17 21  1  0  0  0  0
 18 19  1  0  0  0  0
 19 26  1  0  0  0  0
 20 19  2  0  0  0  0
 21 23  1  0  0  0  0
 22 21  2  0  0  0  0
 22 20  1  0  0  0  0
 23 18  2  0  0  0  0
 24 26  2  0  0  0  0
 26 25  1  0  0  0  0
 27 31  1  6  0  0  0
 27 28  1  0  0  0  0
 27  5  1  0  0  0  0
 28 30  2  0  0  0  0
 28 29  1  0  0  0  0
 32 33  3  0  0  0  0
 33 31  1  0  0  0  0
M  END
>  <MODEL>
4

>  <REMARK>
 VINA RESULT:      -6.9      3.173      6.970
  Name = 
  9 active torsions:
  status: ('A' for Active; 'I' for Inactive)
    1  A    between atoms: C_3  and  C_18
    2  A    between atoms: C_5  and  C_6
    3  A    between atoms: C_5  and  C_13
    4  A    between atoms: C_5  and  C_15
    5  A    between atoms: C_11  and  C_25
    6  A    between atoms: C_13  and  C_20
    7  A    between atoms: C_14  and  N_16
    8  A    between atoms: C_14  and  C_28
    9  A    between atoms: N_16  and  C_18
                            x       y       z     vdW  Elec       q    Type
                         _______ _______ _______ _____ _____    ______ ____

>  <TORSDO>
F 9

$$$$
=
 OpenBabel11042417373D

 33 35  0  0  1  0  0  0  0  0999 V2000
  186.8430  176.8210  146.9380 C   0  0  0  0  0  3  0  0  0  0  0  0
  191.2700  175.8540  144.8650 C   0  0  1  0  0  3  0  0  0  0  0  0
  188.1110  177.8770  144.3240 C   0  0  0  0  0  2  0  0  0  0  0  0
  192.0970  175.9860  147.1830 N   0  0  0  0  0  2  0  0  0  0  0  0
  186.6390  177.6150  144.5400 C   0  0  0  0  0  0  0  0  0  0  0  0
  192.1390  175.2070  145.9520 C   0  0  0  0  0  2  0  0  0  0  0  0
  191.1680  175.3520  148.1210 C   0  0  0  0  0  2  0  0  0  0  0  0
  188.0710  176.4000  146.8620 C   0  0  0  0  0  0  0  0  0  0  0  0
  189.9490  176.5230  145.3400 C   0  0  1  0  0  3  0  0  0  0  0  0
  189.8560  174.9100  147.4600 C   0  0  0  0  0  2  0  0  0  0  0  0
  188.9410  176.6020  144.1860 C   0  0  0  0  0  2  0  0  0  0  0  0
  186.1140  177.2400  145.7220 C   0  0  0  0  0  3  0  0  0  0  0  0
  189.2800  175.9890  146.6020 C   0  0  0  0  0  0  0  0  0  0  0  0
  191.6990  178.1280  144.0800 O   0  0  0  0  0  1  0  0  0  0  0  0
  192.1600  176.8030  144.0520 C   0  0  2  0  0  3  0  0  0  0  0  0
  192.4270  176.3110  142.6940 N   0  0  0  0  0  2  0  0  0  0  0  0
  192.4990  174.8520  142.6450 C   0  0  0  0  0  2  0  0  0  0  0  0
  191.5300  173.4080  139.3710 N   0  0  0  0  0  0  0  0  0  0  0  0
  190.1710  173.3430  139.4350 C   0  0  0  0  0  0  0  0  0  0  0  0
  189.5230  173.7930  140.5890 C   0  0  0  0  0  3  0  0  0  0  0  0
  191.6660  174.3490  141.5210 C   0  0  0  0  0  0  0  0  0  0  0  0
  190.2810  174.2980  141.6430 C   0  0  0  0  0  3  0  0  0  0  0  0
  192.2550  173.8930  140.3830 N   0  0  0  0  0  0  0  0  0  0  0  0
  189.7990  171.7650  137.7060 O   0  0  0  0  0  0  0  0  0  0  0  0
  188.1980  173.4360  137.8780 N   0  0  0  0  0  1  0  0  0  0  0  0
  189.4000  172.8010  138.3040 C   0  0  0  0  0  0  0  0  0  0  0  0
  185.6700  177.9990  143.4580 C   0  0  1  0  0  3  0  0  0  0  0  0
  184.8010  179.1410  143.8900 C   0  0  0  0  0  0  0  0  0  0  0  0
  183.5450  179.0320  143.8880 O   0  0  0  0  0  0  0  0  0  0  0  0
  185.3880  180.3420  144.2600 O   0  0  0  0  0  1  0  0  0  0  0  0
  186.3660  178.3090  142.1360 C   0  0  0  0  0  2  0  0  0  0  0  0
  184.6460  178.2710  140.1530 N   0  0  0  0  0  0  0  0  0  0  0  0
  185.4050  178.2880  141.0270 C   0  0  0  0  0  0  0  0  0  0  0  0
  2 15  1  1  0  0  0
  2  9  1  0  0  0  0
  2  6  1  0  0  0  0
  3  5  1  0  0  0  0
  4  7  1  0  0  0  0
  5 12  2  0  0  0  0
  6  4  1  0  0  0  0
  8  1  2  0  0  0  0
  9 11  1  6  0  0  0
  9 13  1  0  0  0  0
 10  7  1  0  0  0  0
 11  3  1  0  0  0  0
 12  1  1  0  0  0  0
 13  8  2  0  0  0  0
 13 10  1  0  0  0  0
 15 14  1  6  0  0  0
 16 15  1  0  0  0  0
 17 16  1  0  0  0  0
 18 19  2  0  0  0  0
 18 23  1  0  0  0  0
 19 20  1  0  0  0  0
 20 22  2  0  0  0  0
 21 22  1  0  0  0  0
 21 17  1  0  0  0  0
 23 21  2  0  0  0  0
 24 26  2  0  0  0  0
 25 26  1  0  0  0  0
 26 19  1  0  0  0  0
 27 31  1  6  0  0  0
 27 28  1  0  0  0  0
 27  5  1  0  0  0  0
 28 30  1  0  0  0  0
 29 28  2  0  0  0  0
 32 33  3  0  0  0  0
 33 31  1  0  0  0  0
M  END
>  <MODEL>
5

>  <REMARK>
 VINA RESULT:      -6.7      2.521      5.972
  Name = 
  9 active torsions:
  status: ('A' for Active; 'I' for Inactive)
    1  A    between atoms: C_3  and  C_18
    2  A    between atoms: C_5  and  C_6
    3  A    between atoms: C_5  and  C_13
    4  A    between atoms: C_5  and  C_15
    5  A    between atoms: C_11  and  C_25
    6  A    between atoms: C_13  and  C_20
    7  A    between atoms: C_14  and  N_16
    8  A    between atoms: C_14  and  C_28
    9  A    between atoms: N_16  and  C_18
                            x       y       z     vdW  Elec       q    Type
                         _______ _______ _______ _____ _____    ______ ____

>  <TORSDO>
F 9

$$$$
=
 OpenBabel11042417373D

 33 35  0  0  1  0  0  0  0  0999 V2000
  192.8640  174.0340  141.3570 C   0  0  0  0  0  3  0  0  0  0  0  0
  192.7780  176.6060  145.6240 C   0  0  1  0  0  3  0  0  0  0  0  0
  190.5420  174.5920  143.3190 C   0  0  0  0  0  2  0  0  0  0  0  0
  194.9530  175.5190  146.0250 N   0  0  0  0  0  2  0  0  0  0  0  0
  190.4100  174.4660  141.8200 C   0  0  0  0  0  0  0  0  0  0  0  0
  194.2360  176.7880  146.0640 C   0  0  0  0  0  2  0  0  0  0  0  0
  195.7570  175.4590  144.8020 C   0  0  0  0  0  2  0  0  0  0  0  0
  193.3330  174.6400  142.4080 C   0  0  0  0  0  0  0  0  0  0  0  0
  192.5200  175.5790  144.4840 C   0  0  1  0  0  3  0  0  0  0  0  0
  194.9940  175.9370  143.5590 C   0  0  0  0  0  2  0  0  0  0  0  0
  191.2020  175.8960  143.7650 C   0  0  0  0  0  2  0  0  0  0  0  0
  191.4310  174.1350  141.0070 C   0  0  0  0  0  3  0  0  0  0  0  0
  193.6340  175.3220  143.4770 C   0  0  0  0  0  0  0  0  0  0  0  0
  191.8100  174.9570  147.1460 O   0  0  0  0  0  1  0  0  0  0  0  0
  191.9380  176.3280  146.8770 C   0  0  2  0  0  3  0  0  0  0  0  0
  190.6520  177.0400  146.8710 N   0  0  0  0  0  2  0  0  0  0  0  0
  189.5270  176.1410  147.1170 C   0  0  0  0  0  2  0  0  0  0  0  0
  185.9800  176.9070  146.3590 N   0  0  0  0  0  0  0  0  0  0  0  0
  186.0450  177.6450  145.2170 C   0  0  0  0  0  0  0  0  0  0  0  0
  187.2950  177.9110  144.6500 C   0  0  0  0  0  3  0  0  0  0  0  0
  188.3160  176.6560  146.4250 C   0  0  0  0  0  0  0  0  0  0  0  0
  188.4410  177.4120  145.2630 C   0  0  0  0  0  3  0  0  0  0  0  0
  187.0810  176.4290  146.9460 N   0  0  0  0  0  0  0  0  0  0  0  0
  183.9060  178.6630  145.3110 O   0  0  0  0  0  0  0  0  0  0  0  0
  184.6370  178.0990  143.1820 N   0  0  0  0  0  1  0  0  0  0  0  0
  184.8140  178.1600  144.5940 C   0  0  0  0  0  0  0  0  0  0  0  0
  189.0370  174.4920  141.2100 C   0  0  1  0  0  3  0  0  0  0  0  0
  188.4950  173.1060  141.0390 C   0  0  0  0  0  0  0  0  0  0  0  0
  188.0390  172.7250  139.9280 O   0  0  0  0  0  0  0  0  0  0  0  0
  188.4650  172.2470  142.1270 O   0  0  0  0  0  1  0  0  0  0  0  0
  188.0660  175.3670  141.9970 C   0  0  0  0  0  2  0  0  0  0  0  0
  187.2680  177.4040  140.5460 N   0  0  0  0  0  0  0  0  0  0  0  0
  187.6210  176.5060  141.1870 C   0  0  0  0  0  0  0  0  0  0  0  0
  1  8  2  0  0  0  0
  2  6  1  0  0  0  0
  2 15  1  1  0  0  0
  3 11  1  0  0  0  0
  4  6  1  0  0  0  0
  5  3  1  0  0  0  0
  7  4  1  0  0  0  0
  8 13  2  0  0  0  0
  9 11  1  6  0  0  0
  9  2  1  0  0  0  0
 10  7  1  0  0  0  0
 12  1  1  0  0  0  0
 12  5  2  0  0  0  0
 13 10  1  0  0  0  0
 13  9  1  0  0  0  0
 15 14  1  6  0  0  0
 16 15  1  0  0  0  0
 16 17  1  0  0  0  0
 18 23  1  0  0  0  0
 19 18  2  0  0  0  0
 20 19  1  0  0  0  0
 20 22  2  0  0  0  0
 21 23  2  0  0  0  0
 21 17  1  0  0  0  0
 22 21  1  0  0  0  0
 25 26  1  0  0  0  0
 26 19  1  0  0  0  0
 26 24  2  0  0  0  0
 27  5  1  0  0  0  0
 27 31  1  1  0  0  0
 28 27  1  0  0  0  0
 28 30  1  0  0  0  0
 29 28  2  0  0  0  0
 32 33  3  0  0  0  0
 33 31  1  0  0  0  0
M  END
>  <MODEL>
6

>  <REMARK>
 VINA RESULT:      -6.6      2.421      7.215
  Name = 
  9 active torsions:
  status: ('A' for Active; 'I' for Inactive)
    1  A    between atoms: C_3  and  C_18
    2  A    between atoms: C_5  and  C_6
    3  A    between atoms: C_5  and  C_13
    4  A    between atoms: C_5  and  C_15
    5  A    between atoms: C_11  and  C_25
    6  A    between atoms: C_13  and  C_20
    7  A    between atoms: C_14  and  N_16
    8  A    between atoms: C_14  and  C_28
    9  A    between atoms: N_16  and  C_18
                            x       y       z     vdW  Elec       q    Type
                         _______ _______ _______ _____ _____    ______ ____

>  <TORSDO>
F 9

$$$$
=
 OpenBabel11042417373D

 33 35  0  0  1  0  0  0  0  0999 V2000
  190.9800  175.3450  147.5800 C   0  0  0  0  0  3  0  0  0  0  0  0
  188.3650  177.5420  143.9520 C   0  0  1  0  0  3  0  0  0  0  0  0
  191.4200  175.3700  144.5210 C   0  0  0  0  0  2  0  0  0  0  0  0
  186.4130  176.7960  145.2570 N   0  0  0  0  0  2  0  0  0  0  0  0
  192.5130  175.3370  145.5630 C   0  0  0  0  0  0  0  0  0  0  0  0
  187.0060  177.9250  144.5510 C   0  0  0  0  0  2  0  0  0  0  0  0
  186.6350  176.9580  146.6960 C   0  0  0  0  0  2  0  0  0  0  0  0
  189.9720  175.9380  147.0120 C   0  0  0  0  0  0  0  0  0  0  0  0
  189.2480  176.5750  144.7930 C   0  0  1  0  0  3  0  0  0  0  0  0
  188.0650  177.3980  147.0350 C   0  0  0  0  0  2  0  0  0  0  0  0
  190.7260  176.7270  144.4100 C   0  0  0  0  0  2  0  0  0  0  0  0
  192.2800  175.2370  146.8850 C   0  0  0  0  0  3  0  0  0  0  0  0
  189.0820  176.5780  146.3080 C   0  0  0  0  0  0  0  0  0  0  0  0
  187.3010  177.8970  141.7800 O   0  0  0  0  0  1  0  0  0  0  0  0
  188.1260  177.0380  142.5220 C   0  0  2  0  0  3  0  0  0  0  0  0
  187.6930  175.6350  142.4780 N   0  0  0  0  0  2  0  0  0  0  0  0
  188.2020  174.9420  141.2960 C   0  0  0  0  0  2  0  0  0  0  0  0
  189.5760  171.8370  142.7830 N   0  0  0  0  0  0  0  0  0  0  0  0
  190.8960  171.8730  142.4480 C   0  0  0  0  0  0  0  0  0  0  0  0
  191.3790  172.9560  141.7090 C   0  0  0  0  0  3  0  0  0  0  0  0
  189.1650  173.8880  141.7120 C   0  0  0  0  0  0  0  0  0  0  0  0
  190.5030  173.9720  141.3360 C   0  0  0  0  0  3  0  0  0  0  0  0
  188.7370  172.8120  142.4240 N   0  0  0  0  0  0  0  0  0  0  0  0
  191.9330  169.7670  142.1210 O   0  0  0  0  0  0  0  0  0  0  0  0
  192.5210  170.8620  144.0810 N   0  0  0  0  0  1  0  0  0  0  0  0
  191.7960  170.7820  142.8570 C   0  0  0  0  0  0  0  0  0  0  0  0
  193.9380  175.1850  145.1100 C   0  0  1  0  0  3  0  0  0  0  0  0
  194.4070  176.4080  144.3820 C   0  0  0  0  0  0  0  0  0  0  0  0
  194.4960  176.4150  143.1250 O   0  0  0  0  0  0  0  0  0  0  0  0
  194.7820  177.5310  145.1060 O   0  0  0  0  0  1  0  0  0  0  0  0
  194.8800  174.8350  146.2580 C   0  0  0  0  0  2  0  0  0  0  0  0
  197.1530  173.8950  145.3420 N   0  0  0  0  0  0  0  0  0  0  0  0
  196.1510  174.3110  145.7460 C   0  0  0  0  0  0  0  0  0  0  0  0
  2 15  1  6  0  0  0
  2  6  1  0  0  0  0
  2  9  1  0  0  0  0
  3  5  1  0  0  0  0
  4  7  1  0  0  0  0
  5 12  2  0  0  0  0
  6  4  1  0  0  0  0
  7 10  1  0  0  0  0
  8  1  2  0  0  0  0
  9 11  1  1  0  0  0
  9 13  1  0  0  0  0
 11  3  1  0  0  0  0
 12  1  1  0  0  0  0
 13  8  2  0  0  0  0
 13 10  1  0  0  0  0
 15 14  1  1  0  0  0
 16 15  1  0  0  0  0
 17 21  1  0  0  0  0
 17 16  1  0  0  0  0
 19 18  1  0  0  0  0
 19 26  1  0  0  0  0
 20 19  2  0  0  0  0
 21 23  1  0  0  0  0
 22 20  1  0  0  0  0
 22 21  2  0  0  0  0
 23 18  2  0  0  0  0
 24 26  2  0  0  0  0
 26 25  1  0  0  0  0
 27  5  1  0  0  0  0
 27 31  1  1  0  0  0
 28 30  1  0  0  0  0
 28 27  1  0  0  0  0
 29 28  2  0  0  0  0
 32 33  3  0  0  0  0
 33 31  1  0  0  0  0
M  END
>  <MODEL>
7

>  <REMARK>
 VINA RESULT:      -6.4      1.998      2.303
  Name = 
  9 active torsions:
  status: ('A' for Active; 'I' for Inactive)
    1  A    between atoms: C_3  and  C_18
    2  A    between atoms: C_5  and  C_6
    3  A    between atoms: C_5  and  C_13
    4  A    between atoms: C_5  and  C_15
    5  A    between atoms: C_11  and  C_25
    6  A    between atoms: C_13  and  C_20
    7  A    between atoms: C_14  and  N_16
    8  A    between atoms: C_14  and  C_28
    9  A    between atoms: N_16  and  C_18
                            x       y       z     vdW  Elec       q    Type
                         _______ _______ _______ _____ _____    ______ ____

>  <TORSDO>
F 9

$$$$
=
 OpenBabel11042417373D

 33 35  0  0  1  0  0  0  0  0999 V2000
  191.3460  178.0290  144.0190 C   0  0  0  0  0  3  0  0  0  0  0  0
  193.7150  173.9900  145.7220 C   0  0  1  0  0  3  0  0  0  0  0  0
  190.2960  175.1810  144.6000 C   0  0  0  0  0  2  0  0  0  0  0  0
  195.5190  174.7270  144.2140 N   0  0  0  0  0  2  0  0  0  0  0  0
  189.5100  176.4580  144.7820 C   0  0  0  0  0  0  0  0  0  0  0  0
  195.2180  174.2530  145.5590 C   0  0  0  0  0  2  0  0  0  0  0  0
  195.6820  176.1820  144.2430 C   0  0  0  0  0  2  0  0  0  0  0  0
  192.3500  177.2610  144.3250 C   0  0  0  0  0  0  0  0  0  0  0  0
  192.7550  174.9700  144.9880 C   0  0  1  0  0  3  0  0  0  0  0  0
  194.6020  176.8900  145.0710 C   0  0  0  0  0  2  0  0  0  0  0  0
  191.3760  174.9750  145.6610 C   0  0  0  0  0  2  0  0  0  0  0  0
  189.9720  177.6730  144.4340 C   0  0  0  0  0  3  0  0  0  0  0  0
  193.2330  176.3940  144.7310 C   0  0  0  0  0  0  0  0  0  0  0  0
  194.4890  171.6720  145.7820 O   0  0  0  0  0  1  0  0  0  0  0  0
  193.4520  172.5210  145.3670 C   0  0  2  0  0  3  0  0  0  0  0  0
  193.0770  172.3330  143.9590 N   0  0  0  0  0  2  0  0  0  0  0  0
  191.8670  171.5260  143.8170 C   0  0  0  0  0  2  0  0  0  0  0  0
  190.7230  173.3200  140.7820 N   0  0  0  0  0  0  0  0  0  0  0  0
  189.3660  173.2320  140.8460 C   0  0  0  0  0  0  0  0  0  0  0  0
  188.7780  172.5670  141.9250 C   0  0  0  0  0  3  0  0  0  0  0  0
  190.9750  172.1390  142.7970 C   0  0  0  0  0  0  0  0  0  0  0  0
  189.5930  172.0120  142.9090 C   0  0  0  0  0  3  0  0  0  0  0  0
  191.5030  172.7880  141.7260 N   0  0  0  0  0  0  0  0  0  0  0  0
  188.1040  175.0070  139.9100 O   0  0  0  0  0  0  0  0  0  0  0  0
  188.2070  173.0820  138.6180 N   0  0  0  0  0  1  0  0  0  0  0  0
  188.5330  173.8280  139.7880 C   0  0  0  0  0  0  0  0  0  0  0  0
  188.0590  176.3660  145.1630 C   0  0  1  0  0  3  0  0  0  0  0  0
  187.8910  176.3410  146.6510 C   0  0  0  0  0  0  0  0  0  0  0  0
  188.2480  175.3370  147.3240 O   0  0  0  0  0  1  0  0  0  0  0  0
  187.3030  177.4240  147.2890 O   0  0  0  0  0  0  0  0  0  0  0  0
  187.2200  177.4740  144.5340 C   0  0  0  0  0  2  0  0  0  0  0  0
  186.2040  176.6830  142.2470 N   0  0  0  0  0  0  0  0  0  0  0  0
  186.6520  177.0330  143.2550 C   0  0  0  0  0  0  0  0  0  0  0  0
  1  8  2  0  0  0  0
  1 12  1  0  0  0  0
  2 15  1  6  0  0  0
  3  5  1  0  0  0  0
  3 11  1  0  0  0  0
  4  7  1  0  0  0  0
  4  6  1  0  0  0  0
  5 27  1  0  0  0  0
  6  2  1  0  0  0  0
  7 10  1  0  0  0  0
  8 13  2  0  0  0  0
  9 11  1  1  0  0  0
  9  2  1  0  0  0  0
 12  5  2  0  0  0  0
 13  9  1  0  0  0  0
 13 10  1  0  0  0  0
 15 14  1  6  0  0  0
 16 15  1  0  0  0  0
 17 16  1  0  0  0  0
 18 19  2  0  0  0  0
 18 23  1  0  0  0  0
 19 20  1  0  0  0  0
 20 22  2  0  0  0  0
 21 22  1  0  0  0  0
 21 17  1  0  0  0  0
 23 21  2  0  0  0  0
 25 26  1  0  0  0  0
 26 24  2  0  0  0  0
 26 19  1  0  0  0  0
 27 31  1  1  0  0  0
 27 28  1  0  0  0  0
 28 30  2  0  0  0  0
 28 29  1  0  0  0  0
 32 33  3  0  0  0  0
 33 31  1  0  0  0  0
M  END
>  <MODEL>
8

>  <REMARK>
 VINA RESULT:      -6.4      2.247      6.411
  Name = 
  9 active torsions:
  status: ('A' for Active; 'I' for Inactive)
    1  A    between atoms: C_3  and  C_18
    2  A    between atoms: C_5  and  C_6
    3  A    between atoms: C_5  and  C_13
    4  A    between atoms: C_5  and  C_15
    5  A    between atoms: C_11  and  C_25
    6  A    between atoms: C_13  and  C_20
    7  A    between atoms: C_14  and  N_16
    8  A    between atoms: C_14  and  C_28
    9  A    between atoms: N_16  and  C_18
                            x       y       z     vdW  Elec       q    Type
                         _______ _______ _______ _____ _____    ______ ____

>  <TORSDO>
F 9

$$$$
=
 OpenBabel11042417373D

 33 35  0  0  1  0  0  0  0  0999 V2000
  189.1150  174.9680  147.2380 C   0  0  0  0  0  3  0  0  0  0  0  0
  186.7310  178.0780  144.1600 C   0  0  1  0  0  3  0  0  0  0  0  0
  189.3120  175.3010  144.1720 C   0  0  0  0  0  2  0  0  0  0  0  0
  184.7750  177.5610  145.5660 N   0  0  0  0  0  2  0  0  0  0  0  0
  190.4530  174.9230  145.0870 C   0  0  0  0  0  0  0  0  0  0  0  0
  185.5290  178.6360  144.9330 C   0  0  0  0  0  2  0  0  0  0  0  0
  185.1360  177.4910  146.9840 C   0  0  0  0  0  2  0  0  0  0  0  0
  188.2080  175.8130  146.8440 C   0  0  0  0  0  0  0  0  0  0  0  0
  187.4600  176.8580  144.7950 C   0  0  1  0  0  3  0  0  0  0  0  0
  186.6480  177.5980  147.2230 C   0  0  0  0  0  2  0  0  0  0  0  0
  188.9030  176.7690  144.2830 C   0  0  0  0  0  2  0  0  0  0  0  0
  190.3080  174.7010  146.4060 C   0  0  0  0  0  3  0  0  0  0  0  0
  187.4150  176.6980  146.3100 C   0  0  0  0  0  0  0  0  0  0  0  0
  186.8700  178.7090  141.8020 O   0  0  0  0  0  1  0  0  0  0  0  0
  186.2850  177.8180  142.7150 C   0  0  2  0  0  3  0  0  0  0  0  0
  184.8250  177.7240  142.5780 N   0  0  0  0  0  2  0  0  0  0  0  0
  184.3810  178.0360  141.2220 C   0  0  0  0  0  2  0  0  0  0  0  0
  180.8340  178.0890  140.1440 N   0  0  0  0  0  0  0  0  0  0  0  0
  180.1840  178.6560  141.1980 C   0  0  0  0  0  0  0  0  0  0  0  0
  180.9210  179.0520  142.3180 C   0  0  0  0  0  3  0  0  0  0  0  0
  182.9140  178.2830  141.2210 C   0  0  0  0  0  0  0  0  0  0  0  0
  182.3000  178.8600  142.3290 C   0  0  0  0  0  3  0  0  0  0  0  0
  182.1570  177.9060  140.1560 N   0  0  0  0  0  0  0  0  0  0  0  0
  178.0870  178.6090  140.0930 O   0  0  0  0  0  0  0  0  0  0  0  0
  178.0180  179.2860  142.3110 N   0  0  0  0  0  1  0  0  0  0  0  0
  178.7240  178.8440  141.1560 C   0  0  0  0  0  0  0  0  0  0  0  0
  191.7770  174.5590  144.4780 C   0  0  1  0  0  3  0  0  0  0  0  0
  192.5720  175.7820  144.1390 C   0  0  0  0  0  0  0  0  0  0  0  0
  193.1470  175.8890  143.0230 O   0  0  0  0  0  0  0  0  0  0  0  0
  192.7050  176.7910  145.0810 O   0  0  0  0  0  1  0  0  0  0  0  0
  192.5820  173.6080  145.3590 C   0  0  0  0  0  2  0  0  0  0  0  0
  194.1770  172.1190  143.9010 N   0  0  0  0  0  0  0  0  0  0  0  0
  193.4740  172.7750  144.5450 C   0  0  0  0  0  0  0  0  0  0  0  0
  2 15  1  6  0  0  0
  2  9  1  0  0  0  0
  2  6  1  0  0  0  0
  3 11  1  0  0  0  0
  3  5  1  0  0  0  0
  4  7  1  0  0  0  0
  5 12  2  0  0  0  0
  6  4  1  0  0  0  0
  7 10  1  0  0  0  0
  8  1  2  0  0  0  0
  9 11  1  1  0  0  0
  9 13  1  0  0  0  0
 12  1  1  0  0  0  0
 13  8  2  0  0  0  0
 13 10  1  0  0  0  0
 15 14  1  6  0  0  0
 16 15  1  0  0  0  0
 17 16  1  0  0  0  0
 18 23  2  0  0  0  0
 18 19  1  0  0  0  0
 19 20  2  0  0  0  0
 20 22  1  0  0  0  0
 21 17  1  0  0  0  0
 21 22  2  0  0  0  0
 23 21  1  0  0  0  0
 24 26  2  0  0  0  0
 26 19  1  0  0  0  0
 26 25  1  0  0  0  0
 27  5  1  0  0  0  0
 27 31  1  1  0  0  0
 28 27  1  0  0  0  0
 28 30  1  0  0  0  0
 29 28  2  0  0  0  0
 32 33  3  0  0  0  0
 33 31  1  0  0  0  0
M  END
>  <MODEL>
9

>  <REMARK>
 VINA RESULT:      -6.3      3.733      6.135
  Name = 
  9 active torsions:
  status: ('A' for Active; 'I' for Inactive)
    1  A    between atoms: C_3  and  C_18
    2  A    between atoms: C_5  and  C_6
    3  A    between atoms: C_5  and  C_13
    4  A    between atoms: C_5  and  C_15
    5  A    between atoms: C_11  and  C_25
    6  A    between atoms: C_13  and  C_20
    7  A    between atoms: C_14  and  N_16
    8  A    between atoms: C_14  and  C_28
    9  A    between atoms: N_16  and  C_18
                            x       y       z     vdW  Elec       q    Type
                         _______ _______ _______ _____ _____    ______ ____

>  <TORSDO>
F 9

$$$$
