=
 OpenBabel11042417483D

 25 28  0  0  1  0  0  0  0  0999 V2000
  187.7700  175.9170  141.3440 C   0  0  0  0  0  2  0  0  0  0  0  0
  184.9790  178.2520  146.7580 C   0  0  0  0  0  0  0  0  0  0  0  0
  189.2300  176.5620  144.9060 N   0  0  0  0  0  2  0  0  0  0  0  0
  186.5350  177.7870  144.4630 C   0  0  0  0  0  0  0  0  0  0  0  0
  188.2930  176.7430  145.9210 N   0  0  0  0  0  0  0  0  0  0  0  0
  191.6180  176.7360  142.7670 C   0  0  0  0  0  3  0  0  0  0  0  0
  191.0580  175.1380  147.4330 C   0  0  0  0  0  0  0  0  0  0  0  0
  189.7790  175.0590  146.6850 C   0  0  2  0  0  3  0  0  0  0  0  0
  187.0280  177.4080  145.7430 C   0  0  0  0  0  0  0  0  0  0  0  0
  184.2310  178.4800  147.8650 F   0  0  0  0  0  0  0  0  0  0  0  0
  187.3090  177.5360  143.1980 C   0  0  1  0  0  3  0  0  0  0  0  0
  185.2620  178.3720  144.3650 C   0  0  0  0  0  3  0  0  0  0  0  0
  188.6790  174.7080  141.5410 C   0  0  0  0  0  2  0  0  0  0  0  0
  191.1240  175.3020  148.6400 O   0  0  0  0  0  0  0  0  0  0  0  0
  192.5040  175.0170  146.3850 S   0  0  0  0  0  0  0  0  0  0  0  0
  186.9180  176.2000  142.5740 C   0  0  0  0  0  2  0  0  0  0  0  0
  190.1610  175.6070  145.3660 C   0  0  2  0  0  3  0  0  0  0  0  0
  187.1250  178.5800  142.2860 O   0  0  0  0  0  1  0  0  0  0  0  0
  189.8340  174.9930  142.4920 C   0  0  0  0  0  2  0  0  0  0  0  0
  191.4590  175.6250  145.0560 C   0  0  1  0  0  3  0  0  0  0  0  0
  192.0520  176.4830  144.0120 C   0  0  0  0  0  3  0  0  0  0  0  0
  184.4910  178.6070  145.5030 C   0  0  0  0  0  3  0  0  0  0  0  0
  186.2320  177.6520  146.8740 C   0  0  0  0  0  3  0  0  0  0  0  0
  190.5250  176.1690  142.0950 O   0  0  0  0  0  0  0  0  0  0  0  0
  188.6820  176.0310  147.1400 C   0  0  0  0  0  2  0  0  0  0  0  0
  1 13  1  0  0  0  0
  1 16  1  0  0  0  0
  2 23  1  0  0  0  0
  2 10  1  0  0  0  0
  3  5  1  0  0  0  0
  4  9  1  0  0  0  0
  5 25  1  0  0  0  0
  6 21  2  0  0  0  0
  7 14  2  0  0  0  0
  8 25  1  1  0  0  0
  8  7  1  0  0  0  0
  9  5  1  0  0  0  0
  9 23  2  0  0  0  0
 11 18  1  6  0  0  0
 11  4  1  0  0  0  0
 12  4  2  0  0  0  0
 12 22  1  0  0  0  0
 13 19  1  0  0  0  0
 15  7  1  0  0  0  0
 16 11  1  0  0  0  0
 17  3  1  1  0  0  0
 17  8  1  0  0  0  0
 20 21  1  1  0  0  0
 20 17  1  0  0  0  0
 20 15  1  0  0  0  0
 22  2  2  0  0  0  0
 24 19  1  0  0  0  0
 24  6  1  0  0  0  0
M  END
>  <MODEL>
1

>  <REMARK>
 VINA RESULT:      -8.4      0.000      0.000
  Name = 
  0 active torsions:
  status: ('A' for Active; 'I' for Inactive)
                            x       y       z     vdW  Elec       q    Type
                         _______ _______ _______ _____ _____    ______ ____

>  <TORSDO>
F 0

$$$$
=
 OpenBabel11042417483D

 25 28  0  0  1  0  0  0  0  0999 V2000
  186.6980  176.8030  147.5620 C   0  0  0  0  0  2  0  0  0  0  0  0
  192.0100  175.2860  144.0910 C   0  0  0  0  0  0  0  0  0  0  0  0
  187.6100  177.5070  143.8320 N   0  0  0  0  0  2  0  0  0  0  0  0
  189.9170  176.5480  145.4810 C   0  0  0  0  0  0  0  0  0  0  0  0
  188.6640  176.7580  143.3140 N   0  0  0  0  0  0  0  0  0  0  0  0
  185.5440  179.7550  144.8290 C   0  0  0  0  0  3  0  0  0  0  0  0
  186.4350  177.2800  140.6190 C   0  0  0  0  0  0  0  0  0  0  0  0
  186.8560  176.4890  141.8020 C   0  0  2  0  0  3  0  0  0  0  0  0
  189.8230  176.3620  144.0730 C   0  0  0  0  0  0  0  0  0  0  0  0
  193.0200  174.6820  143.4210 F   0  0  0  0  0  0  0  0  0  0  0  0
  188.8160  177.1880  146.2820 C   0  0  1  0  0  3  0  0  0  0  0  0
  191.0510  176.0750  146.1600 C   0  0  0  0  0  3  0  0  0  0  0  0
  185.3640  176.5750  146.8570 C   0  0  0  0  0  2  0  0  0  0  0  0
  186.9570  177.1810  139.5200 O   0  0  0  0  0  0  0  0  0  0  0  0
  185.1120  178.4340  140.9690 S   0  0  0  0  0  0  0  0  0  0  0  0
  187.8550  176.1370  146.8280 C   0  0  0  0  0  2  0  0  0  0  0  0
  186.5430  177.4120  142.9140 C   0  0  2  0  0  3  0  0  0  0  0  0
  189.3410  177.9650  147.3190 O   0  0  0  0  0  1  0  0  0  0  0  0
  185.2390  177.3760  145.5670 C   0  0  0  0  0  2  0  0  0  0  0  0
  185.6780  178.3990  142.6740 C   0  0  1  0  0  3  0  0  0  0  0  0
  185.5640  179.6210  143.4940 C   0  0  0  0  0  3  0  0  0  0  0  0
  192.0920  175.4530  145.4720 C   0  0  0  0  0  3  0  0  0  0  0  0
  190.8820  175.7300  143.4020 C   0  0  0  0  0  3  0  0  0  0  0  0
  185.5330  178.7450  145.8040 O   0  0  0  0  0  0  0  0  0  0  0  0
  188.3700  176.2860  141.9600 C   0  0  0  0  0  2  0  0  0  0  0  0
  2 22  1  0  0  0  0
  4 12  1  0  0  0  0
  4 11  1  0  0  0  0
  5  3  1  0  0  0  0
  5  9  1  0  0  0  0
  6 24  1  0  0  0  0
  7 15  1  0  0  0  0
  7  8  1  0  0  0  0
  8 25  1  6  0  0  0
  8 17  1  0  0  0  0
  9  4  2  0  0  0  0
 10  2  1  0  0  0  0
 11 16  1  0  0  0  0
 11 18  1  1  0  0  0
 13  1  1  0  0  0  0
 14  7  2  0  0  0  0
 15 20  1  0  0  0  0
 16  1  1  0  0  0  0
 17  3  1  6  0  0  0
 19 24  1  0  0  0  0
 19 13  1  0  0  0  0
 20 17  1  0  0  0  0
 20 21  1  6  0  0  0
 21  6  2  0  0  0  0
 22 12  2  0  0  0  0
 23  9  1  0  0  0  0
 23  2  2  0  0  0  0
 25  5  1  0  0  0  0
M  END
>  <MODEL>
2

>  <REMARK>
 VINA RESULT:      -8.3      3.405      6.611
  Name = 
  0 active torsions:
  status: ('A' for Active; 'I' for Inactive)
                            x       y       z     vdW  Elec       q    Type
                         _______ _______ _______ _____ _____    ______ ____

>  <TORSDO>
F 0

$$$$
=
 OpenBabel11042417483D

 25 28  0  0  1  0  0  0  0  0999 V2000
  190.7950  176.7680  144.8820 C   0  0  0  0  0  2  0  0  0  0  0  0
  184.8540  178.1290  147.2080 C   0  0  0  0  0  0  0  0  0  0  0  0
  187.3020  176.7820  143.1390 N   0  0  0  0  0  2  0  0  0  0  0  0
  187.1650  176.9500  146.1250 C   0  0  0  0  0  0  0  0  0  0  0  0
  186.2850  177.4430  143.8240 N   0  0  0  0  0  0  0  0  0  0  0  0
  189.2250  174.7400  141.5750 C   0  0  0  0  0  3  0  0  0  0  0  0
  185.6010  177.9180  140.3880 C   0  0  0  0  0  0  0  0  0  0  0  0
  186.2950  178.3410  141.6290 C   0  0  2  0  0  3  0  0  0  0  0  0
  186.1570  177.4610  145.2600 C   0  0  0  0  0  0  0  0  0  0  0  0
  183.7380  178.6930  147.7290 F   0  0  0  0  0  0  0  0  0  0  0  0
  188.4360  176.3370  145.6030 C   0  0  1  0  0  3  0  0  0  0  0  0
  186.9970  177.0630  147.5140 C   0  0  0  0  0  3  0  0  0  0  0  0
  191.1200  177.3660  143.5160 C   0  0  0  0  0  2  0  0  0  0  0  0
  184.4310  178.1740  140.1480 O   0  0  0  0  0  0  0  0  0  0  0  0
  186.6310  176.9500  139.2900 S   0  0  0  0  0  0  0  0  0  0  0  0
  189.5410  177.3810  145.4920 C   0  0  0  0  0  2  0  0  0  0  0  0
  187.2840  177.2570  141.8110 C   0  0  2  0  0  3  0  0  0  0  0  0
  188.8420  175.2710  146.4110 O   0  0  0  0  0  1  0  0  0  0  0  0
  190.1540  176.9090  142.4310 C   0  0  0  0  0  2  0  0  0  0  0  0
  187.5810  176.5060  140.7490 C   0  0  1  0  0  3  0  0  0  0  0  0
  188.1970  175.1670  140.8240 C   0  0  0  0  0  3  0  0  0  0  0  0
  185.8490  177.6440  148.0530 C   0  0  0  0  0  3  0  0  0  0  0  0
  185.0110  178.0440  145.8250 C   0  0  0  0  0  3  0  0  0  0  0  0
  190.0510  175.4920  142.4240 O   0  0  0  0  0  0  0  0  0  0  0  0
  185.4670  178.2500  142.9180 C   0  0  0  0  0  2  0  0  0  0  0  0
  1 16  1  0  0  0  0
  2 10  1  0  0  0  0
  2 22  1  0  0  0  0
  3  5  1  0  0  0  0
  4 12  1  0  0  0  0
  5  9  1  0  0  0  0
  6 24  1  0  0  0  0
  7  8  1  0  0  0  0
  8 17  1  0  0  0  0
  8 25  1  1  0  0  0
  9 23  1  0  0  0  0
  9  4  2  0  0  0  0
 11  4  1  0  0  0  0
 11 18  1  1  0  0  0
 12 22  2  0  0  0  0
 13  1  1  0  0  0  0
 14  7  2  0  0  0  0
 15  7  1  0  0  0  0
 15 20  1  0  0  0  0
 16 11  1  0  0  0  0
 17  3  1  1  0  0  0
 19 13  1  0  0  0  0
 20 21  1  1  0  0  0
 20 17  1  0  0  0  0
 21  6  2  0  0  0  0
 23  2  2  0  0  0  0
 24 19  1  0  0  0  0
 25  5  1  0  0  0  0
M  END
>  <MODEL>
3

>  <REMARK>
 VINA RESULT:      -8.2      2.558      5.005
  Name = 
  0 active torsions:
  status: ('A' for Active; 'I' for Inactive)
                            x       y       z     vdW  Elec       q    Type
                         _______ _______ _______ _____ _____    ______ ____

>  <TORSDO>
F 0

$$$$
=
 OpenBabel11042417483D

 25 28  0  0  1  0  0  0  0  0999 V2000
  190.0730  176.6420  146.7580 C   0  0  0  0  0  2  0  0  0  0  0  0
  184.3780  178.4070  144.1120 C   0  0  0  0  0  0  0  0  0  0  0  0
  188.1870  175.3100  143.6100 N   0  0  0  0  0  2  0  0  0  0  0  0
  186.5250  177.0860  145.3550 C   0  0  0  0  0  0  0  0  0  0  0  0
  187.1670  176.1250  143.1250 N   0  0  0  0  0  0  0  0  0  0  0  0
  190.0610  172.9680  144.7560 C   0  0  0  0  0  3  0  0  0  0  0  0
  188.5690  174.5410  140.2910 C   0  0  0  0  0  0  0  0  0  0  0  0
  188.5730  175.6530  141.2740 C   0  0  2  0  0  3  0  0  0  0  0  0
  186.3020  176.9200  143.9600 C   0  0  0  0  0  0  0  0  0  0  0  0
  183.3400  179.0410  143.5130 F   0  0  0  0  0  0  0  0  0  0  0  0
  187.6760  176.4290  146.0690 C   0  0  1  0  0  3  0  0  0  0  0  0
  185.6760  177.9300  146.0890 C   0  0  0  0  0  3  0  0  0  0  0  0
  191.2160  176.4160  145.7720 C   0  0  0  0  0  2  0  0  0  0  0  0
  187.8170  174.4930  139.3300 O   0  0  0  0  0  0  0  0  0  0  0  0
  189.7430  173.2470  140.6760 S   0  0  0  0  0  0  0  0  0  0  0  0
  188.8900  177.3500  146.1110 C   0  0  0  0  0  2  0  0  0  0  0  0
  189.0020  174.9650  142.5110 C   0  0  2  0  0  3  0  0  0  0  0  0
  187.3040  176.0400  147.3590 O   0  0  0  0  0  1  0  0  0  0  0  0
  190.9000  175.3330  144.7480 C   0  0  0  0  0  2  0  0  0  0  0  0
  189.6200  173.7900  142.3830 C   0  0  1  0  0  3  0  0  0  0  0  0
  189.7390  172.7930  143.4650 C   0  0  0  0  0  3  0  0  0  0  0  0
  184.6080  178.5830  145.4740 C   0  0  0  0  0  3  0  0  0  0  0  0
  185.2220  177.5900  143.3620 C   0  0  0  0  0  3  0  0  0  0  0  0
  190.4640  174.1480  145.3990 O   0  0  0  0  0  0  0  0  0  0  0  0
  187.1930  176.2010  141.6630 C   0  0  0  0  0  2  0  0  0  0  0  0
  2 22  1  0  0  0  0
  4 11  1  0  0  0  0
  4 12  1  0  0  0  0
  5  3  1  0  0  0  0
  5  9  1  0  0  0  0
  6 24  1  0  0  0  0
  7 15  1  0  0  0  0
  7  8  1  0  0  0  0
  8 25  1  1  0  0  0
  8 17  1  0  0  0  0
  9  4  2  0  0  0  0
 10  2  1  0  0  0  0
 11 16  1  0  0  0  0
 11 18  1  1  0  0  0
 13  1  1  0  0  0  0
 14  7  2  0  0  0  0
 15 20  1  0  0  0  0
 16  1  1  0  0  0  0
 17  3  1  1  0  0  0
 19 24  1  0  0  0  0
 19 13  1  0  0  0  0
 20 17  1  0  0  0  0
 20 21  1  1  0  0  0
 21  6  2  0  0  0  0
 22 12  2  0  0  0  0
 23  9  1  0  0  0  0
 23  2  2  0  0  0  0
 25  5  1  0  0  0  0
M  END
>  <MODEL>
4

>  <REMARK>
 VINA RESULT:      -7.9      2.511      4.616
  Name = 
  0 active torsions:
  status: ('A' for Active; 'I' for Inactive)
                            x       y       z     vdW  Elec       q    Type
                         _______ _______ _______ _____ _____    ______ ____

>  <TORSDO>
F 0

$$$$
=
 OpenBabel11042417483D

 25 28  0  0  1  0  0  0  0  0999 V2000
  186.3220  177.3440  147.3980 C   0  0  0  0  0  2  0  0  0  0  0  0
  192.1330  174.6210  146.2270 C   0  0  0  0  0  0  0  0  0  0  0  0
  188.2400  176.7360  144.0520 N   0  0  0  0  0  2  0  0  0  0  0  0
  189.9150  176.3270  146.5000 C   0  0  0  0  0  0  0  0  0  0  0  0
  189.2970  175.8310  144.1160 N   0  0  0  0  0  0  0  0  0  0  0  0
  186.2660  179.2390  143.6670 C   0  0  0  0  0  3  0  0  0  0  0  0
  187.9150  175.4770  140.8800 C   0  0  0  0  0  0  0  0  0  0  0  0
  187.9220  175.1180  142.3200 C   0  0  2  0  0  3  0  0  0  0  0  0
  190.1670  175.6830  145.2560 C   0  0  0  0  0  0  0  0  0  0  0  0
  193.2050  173.8020  146.0940 F   0  0  0  0  0  0  0  0  0  0  0  0
  188.7280  177.2260  146.7140 C   0  0  1  0  0  3  0  0  0  0  0  0
  190.7730  176.0800  147.5840 C   0  0  0  0  0  3  0  0  0  0  0  0
  185.1970  176.9270  146.4550 C   0  0  0  0  0  2  0  0  0  0  0  0
  188.6880  175.0030  140.0630 O   0  0  0  0  0  0  0  0  0  0  0  0
  186.6910  176.7140  140.4620 S   0  0  0  0  0  0  0  0  0  0  0  0
  187.5430  176.4430  147.2680 C   0  0  0  0  0  2  0  0  0  0  0  0
  187.4420  176.3660  142.9500 C   0  0  2  0  0  3  0  0  0  0  0  0
  189.0560  178.2910  147.5580 O   0  0  0  0  0  1  0  0  0  0  0  0
  185.5040  177.2530  144.9980 C   0  0  0  0  0  2  0  0  0  0  0  0
  186.7910  177.2380  142.1780 C   0  0  1  0  0  3  0  0  0  0  0  0
  186.6130  178.6660  142.5040 C   0  0  0  0  0  3  0  0  0  0  0  0
  191.8760  175.2380  147.4490 C   0  0  0  0  0  3  0  0  0  0  0  0
  191.2820  174.8370  145.1440 C   0  0  0  0  0  3  0  0  0  0  0  0
  185.8850  178.6140  144.8650 O   0  0  0  0  0  0  0  0  0  0  0  0
  189.3090  174.9410  142.9540 C   0  0  0  0  0  2  0  0  0  0  0  0
  2 22  1  0  0  0  0
  3  5  1  0  0  0  0
  4 11  1  0  0  0  0
  4 12  1  0  0  0  0
  5  9  1  0  0  0  0
  6 24  1  0  0  0  0
  7  8  1  0  0  0  0
  8 17  1  0  0  0  0
  8 25  1  1  0  0  0
  9  4  2  0  0  0  0
 10  2  1  0  0  0  0
 11 16  1  0  0  0  0
 11 18  1  1  0  0  0
 13  1  1  0  0  0  0
 14  7  2  0  0  0  0
 15  7  1  0  0  0  0
 15 20  1  0  0  0  0
 16  1  1  0  0  0  0
 17  3  1  6  0  0  0
 19 13  1  0  0  0  0
 20 21  1  6  0  0  0
 20 17  1  0  0  0  0
 21  6  2  0  0  0  0
 22 12  2  0  0  0  0
 23  9  1  0  0  0  0
 23  2  2  0  0  0  0
 24 19  1  0  0  0  0
 25  5  1  0  0  0  0
M  END
>  <MODEL>
5

>  <REMARK>
 VINA RESULT:      -7.6      3.142      6.133
  Name = 
  0 active torsions:
  status: ('A' for Active; 'I' for Inactive)
                            x       y       z     vdW  Elec       q    Type
                         _______ _______ _______ _____ _____    ______ ____

>  <TORSDO>
F 0

$$$$
=
 OpenBabel11042417483D

 25 28  0  0  1  0  0  0  0  0999 V2000
  188.5040  175.2430  140.7690 C   0  0  0  0  0  2  0  0  0  0  0  0
  182.9970  178.5060  142.0240 C   0  0  0  0  0  0  0  0  0  0  0  0
  187.5090  177.5310  143.7700 N   0  0  0  0  0  2  0  0  0  0  0  0
  185.6260  177.6930  141.4490 C   0  0  0  0  0  0  0  0  0  0  0  0
  186.1480  177.7990  143.9030 N   0  0  0  0  0  0  0  0  0  0  0  0
  190.7040  177.5790  143.4550 C   0  0  0  0  0  3  0  0  0  0  0  0
  187.4410  177.7100  147.1930 C   0  0  0  0  0  0  0  0  0  0  0  0
  186.8760  177.0050  146.0170 C   0  0  2  0  0  3  0  0  0  0  0  0
  185.2450  177.9650  142.7930 C   0  0  0  0  0  0  0  0  0  0  0  0
  181.7300  178.9010  142.3010 F   0  0  0  0  0  0  0  0  0  0  0  0
  187.0090  177.2260  141.0840 C   0  0  1  0  0  3  0  0  0  0  0  0
  184.6700  177.8160  140.4280 C   0  0  0  0  0  3  0  0  0  0  0  0
  189.1140  174.5000  141.9540 C   0  0  0  0  0  2  0  0  0  0  0  0
  186.7630  178.3170  148.0070 O   0  0  0  0  0  0  0  0  0  0  0  0
  189.2270  177.6290  147.2820 S   0  0  0  0  0  0  0  0  0  0  0  0
  187.0800  175.7040  141.0520 C   0  0  0  0  0  2  0  0  0  0  0  0
  187.9760  177.1170  145.0350 C   0  0  2  0  0  3  0  0  0  0  0  0
  187.4100  177.7660  139.8590 O   0  0  0  0  0  1  0  0  0  0  0  0
  189.4570  175.4280  143.1120 C   0  0  0  0  0  2  0  0  0  0  0  0
  189.1970  177.3870  145.5020 C   0  0  1  0  0  3  0  0  0  0  0  0
  190.2960  177.9330  144.6840 C   0  0  0  0  0  3  0  0  0  0  0  0
  183.3660  178.2230  140.7110 C   0  0  0  0  0  3  0  0  0  0  0  0
  183.9260  178.3710  143.0540 C   0  0  0  0  0  3  0  0  0  0  0  0
  190.2420  176.5200  142.6570 O   0  0  0  0  0  0  0  0  0  0  0  0
  185.7230  177.7230  145.3020 C   0  0  0  0  0  2  0  0  0  0  0  0
  1 16  1  0  0  0  0
  1 13  1  0  0  0  0
  2 10  1  0  0  0  0
  2 23  1  0  0  0  0
  3  5  1  0  0  0  0
  4  9  1  0  0  0  0
  5 25  1  0  0  0  0
  6 21  2  0  0  0  0
  7 15  1  0  0  0  0
  7 14  2  0  0  0  0
  8 25  1  6  0  0  0
  8  7  1  0  0  0  0
  9 23  2  0  0  0  0
  9  5  1  0  0  0  0
 11 18  1  6  0  0  0
 11  4  1  0  0  0  0
 12 22  1  0  0  0  0
 12  4  2  0  0  0  0
 13 19  1  0  0  0  0
 16 11  1  0  0  0  0
 17  3  1  6  0  0  0
 17 20  1  0  0  0  0
 17  8  1  0  0  0  0
 20 21  1  6  0  0  0
 20 15  1  0  0  0  0
 22  2  2  0  0  0  0
 24 19  1  0  0  0  0
 24  6  1  0  0  0  0
M  END
>  <MODEL>
6

>  <REMARK>
 VINA RESULT:      -7.2      2.676      3.442
  Name = 
  0 active torsions:
  status: ('A' for Active; 'I' for Inactive)
                            x       y       z     vdW  Elec       q    Type
                         _______ _______ _______ _____ _____    ______ ____

>  <TORSDO>
F 0

$$$$
=
 OpenBabel11042417483D

 25 28  0  0  1  0  0  0  0  0999 V2000
  188.4250  173.2390  141.1910 C   0  0  0  0  0  2  0  0  0  0  0  0
  186.4600  178.3310  144.7630 C   0  0  0  0  0  0  0  0  0  0  0  0
  190.4200  175.6630  143.5120 N   0  0  0  0  0  2  0  0  0  0  0  0
  187.6390  176.5880  142.8990 C   0  0  0  0  0  0  0  0  0  0  0  0
  189.6540  176.4270  144.3900 N   0  0  0  0  0  0  0  0  0  0  0  0
  192.4170  174.4910  141.2870 C   0  0  0  0  0  3  0  0  0  0  0  0
  192.6940  175.7740  146.0750 C   0  0  0  0  0  0  0  0  0  0  0  0
  191.3140  175.3660  145.7110 C   0  0  2  0  0  3  0  0  0  0  0  0
  188.3500  176.9530  144.0770 C   0  0  0  0  0  0  0  0  0  0  0  0
  185.8940  179.1750  145.6600 F   0  0  0  0  0  0  0  0  0  0  0  0
  188.2060  175.6350  141.8810 C   0  0  1  0  0  3  0  0  0  0  0  0
  186.3440  177.0900  142.6970 C   0  0  0  0  0  3  0  0  0  0  0  0
  189.4050  172.2910  141.8770 C   0  0  0  0  0  2  0  0  0  0  0  0
  192.9490  176.5750  146.9600 O   0  0  0  0  0  0  0  0  0  0  0  0
  193.9530  175.0130  145.0560 S   0  0  0  0  0  0  0  0  0  0  0  0
  187.7750  174.2030  142.1750 C   0  0  0  0  0  2  0  0  0  0  0  0
  191.4530  175.0710  144.2680 C   0  0  2  0  0  3  0  0  0  0  0  0
  187.8320  176.0090  140.5870 O   0  0  0  0  0  1  0  0  0  0  0  0
  190.6870  172.9900  142.3130 C   0  0  0  0  0  2  0  0  0  0  0  0
  192.6810  174.8420  143.7990 C   0  0  1  0  0  3  0  0  0  0  0  0
  193.0580  174.9450  142.3760 C   0  0  0  0  0  3  0  0  0  0  0  0
  185.7590  177.9590  143.6190 C   0  0  0  0  0  3  0  0  0  0  0  0
  187.7400  177.8260  144.9920 C   0  0  0  0  0  3  0  0  0  0  0  0
  191.2530  173.7090  141.2270 O   0  0  0  0  0  0  0  0  0  0  0  0
  190.2660  176.4880  145.7180 C   0  0  0  0  0  2  0  0  0  0  0  0
  1 13  1  0  0  0  0
  1 16  1  0  0  0  0
  2 23  1  0  0  0  0
  2 10  1  0  0  0  0
  3  5  1  0  0  0  0
  4  9  1  0  0  0  0
  5 25  1  0  0  0  0
  6 21  2  0  0  0  0
  7 14  2  0  0  0  0
  8 25  1  6  0  0  0
  8  7  1  0  0  0  0
  9  5  1  0  0  0  0
  9 23  2  0  0  0  0
 11 18  1  6  0  0  0
 11 16  1  0  0  0  0
 11  4  1  0  0  0  0
 12  4  2  0  0  0  0
 12 22  1  0  0  0  0
 13 19  1  0  0  0  0
 15  7  1  0  0  0  0
 17  3  1  6  0  0  0
 17  8  1  0  0  0  0
 20 21  1  6  0  0  0
 20 17  1  0  0  0  0
 20 15  1  0  0  0  0
 22  2  2  0  0  0  0
 24  6  1  0  0  0  0
 24 19  1  0  0  0  0
M  END
>  <MODEL>
7

>  <REMARK>
 VINA RESULT:      -7.1      1.867      2.386
  Name = 
  0 active torsions:
  status: ('A' for Active; 'I' for Inactive)
                            x       y       z     vdW  Elec       q    Type
                         _______ _______ _______ _____ _____    ______ ____

>  <TORSDO>
F 0

$$$$
=
 OpenBabel11042417483D

 25 28  0  0  1  0  0  0  0  0999 V2000
  190.8170  175.6210  147.7050 C   0  0  0  0  0  2  0  0  0  0  0  0
  195.8350  173.8580  143.9270 C   0  0  0  0  0  0  0  0  0  0  0  0
  191.1380  175.3720  143.8230 N   0  0  0  0  0  2  0  0  0  0  0  0
  193.7540  175.1920  145.2670 C   0  0  0  0  0  0  0  0  0  0  0  0
  192.2270  174.6420  143.3500 N   0  0  0  0  0  0  0  0  0  0  0  0
  188.8780  177.5410  144.5320 C   0  0  0  0  0  3  0  0  0  0  0  0
  189.6280  174.1260  141.0080 C   0  0  0  0  0  0  0  0  0  0  0  0
  190.3130  173.7500  142.2700 C   0  0  2  0  0  3  0  0  0  0  0  0
  193.5180  174.6150  143.9880 C   0  0  0  0  0  0  0  0  0  0  0  0
  196.8380  173.2190  143.2800 F   0  0  0  0  0  0  0  0  0  0  0  0
  192.6710  175.8910  146.0450 C   0  0  1  0  0  3  0  0  0  0  0  0
  195.0240  175.0660  145.8530 C   0  0  0  0  0  3  0  0  0  0  0  0
  189.4600  175.0470  147.3080 C   0  0  0  0  0  2  0  0  0  0  0  0
  190.0200  173.7910  139.9020 O   0  0  0  0  0  0  0  0  0  0  0  0
  188.1910  175.1620  141.2610 S   0  0  0  0  0  0  0  0  0  0  0  0
  191.9660  174.9240  146.9890 C   0  0  0  0  0  2  0  0  0  0  0  0
  189.9950  174.8980  143.1450 C   0  0  2  0  0  3  0  0  0  0  0  0
  193.1900  176.9810  146.7500 O   0  0  0  0  0  1  0  0  0  0  0  0
  189.0500  175.4390  145.8940 C   0  0  0  0  0  2  0  0  0  0  0  0
  188.9610  175.6690  142.8030 C   0  0  1  0  0  3  0  0  0  0  0  0
  188.7550  177.0460  143.2900 C   0  0  0  0  0  3  0  0  0  0  0  0
  196.0580  174.4090  145.1870 C   0  0  0  0  0  3  0  0  0  0  0  0
  194.5750  173.9550  143.3390 C   0  0  0  0  0  3  0  0  0  0  0  0
  189.1480  176.8460  145.7210 O   0  0  0  0  0  0  0  0  0  0  0  0
  191.8470  173.7830  142.2280 C   0  0  0  0  0  2  0  0  0  0  0  0
  2 22  1  0  0  0  0
  4 12  1  0  0  0  0
  4 11  1  0  0  0  0
  5  3  1  0  0  0  0
  5  9  1  0  0  0  0
  6 24  1  0  0  0  0
  7 15  1  0  0  0  0
  7  8  1  0  0  0  0
  8 25  1  6  0  0  0
  8 17  1  0  0  0  0
  9  4  2  0  0  0  0
 10  2  1  0  0  0  0
 11 18  1  1  0  0  0
 11 16  1  0  0  0  0
 13  1  1  0  0  0  0
 14  7  2  0  0  0  0
 15 20  1  0  0  0  0
 16  1  1  0  0  0  0
 17  3  1  6  0  0  0
 19 13  1  0  0  0  0
 20 17  1  0  0  0  0
 20 21  1  6  0  0  0
 21  6  2  0  0  0  0
 22 12  2  0  0  0  0
 23  2  2  0  0  0  0
 23  9  1  0  0  0  0
 24 19  1  0  0  0  0
 25  5  1  0  0  0  0
M  END
>  <MODEL>
8

>  <REMARK>
 VINA RESULT:      -6.9      4.109      7.431
  Name = 
  0 active torsions:
  status: ('A' for Active; 'I' for Inactive)
                            x       y       z     vdW  Elec       q    Type
                         _______ _______ _______ _____ _____    ______ ____

>  <TORSDO>
F 0

$$$$
=
 OpenBabel11042417483D

 25 28  0  0  1  0  0  0  0  0999 V2000
  191.1700  175.4540  147.7900 C   0  0  0  0  0  2  0  0  0  0  0  0
  195.1100  174.4800  142.6830 C   0  0  0  0  0  0  0  0  0  0  0  0
  190.5450  175.8580  143.9580 N   0  0  0  0  0  2  0  0  0  0  0  0
  193.4290  175.5150  144.6840 C   0  0  0  0  0  0  0  0  0  0  0  0
  191.4800  175.2470  143.1240 N   0  0  0  0  0  0  0  0  0  0  0  0
  188.5500  177.8160  145.5380 C   0  0  0  0  0  3  0  0  0  0  0  0
  188.3880  175.0510  141.4180 C   0  0  0  0  0  0  0  0  0  0  0  0
  189.3510  174.4920  142.3990 C   0  0  2  0  0  3  0  0  0  0  0  0
  192.8860  175.1510  143.4210 C   0  0  0  0  0  0  0  0  0  0  0  0
  195.9210  173.9850  141.7170 F   0  0  0  0  0  0  0  0  0  0  0  0
  192.5740  176.0460  145.8030 C   0  0  1  0  0  3  0  0  0  0  0  0
  194.8010  175.3300  144.9200 C   0  0  0  0  0  3  0  0  0  0  0  0
  189.7500  174.9160  147.6380 C   0  0  0  0  0  2  0  0  0  0  0  0
  188.4990  174.9150  140.2100 O   0  0  0  0  0  0  0  0  0  0  0  0
  187.0670  175.9910  142.1760 S   0  0  0  0  0  0  0  0  0  0  0  0
  192.1040  174.9160  146.7140 C   0  0  0  0  0  2  0  0  0  0  0  0
  189.2670  175.4710  143.5040 C   0  0  2  0  0  3  0  0  0  0  0  0
  193.2610  177.0190  146.5360 O   0  0  0  0  0  1  0  0  0  0  0  0
  189.0180  175.5240  146.4490 C   0  0  0  0  0  2  0  0  0  0  0  0
  188.1910  176.2580  143.5520 C   0  0  1  0  0  3  0  0  0  0  0  0
  188.1260  177.5300  144.2970 C   0  0  0  0  0  3  0  0  0  0  0  0
  195.6370  174.8210  143.9260 C   0  0  0  0  0  3  0  0  0  0  0  0
  193.7470  174.6370  142.4370 C   0  0  0  0  0  3  0  0  0  0  0  0
  189.0890  176.9420  146.4950 O   0  0  0  0  0  0  0  0  0  0  0  0
  190.8310  174.5740  141.9980 C   0  0  0  0  0  2  0  0  0  0  0  0
  2 22  1  0  0  0  0
  4 12  1  0  0  0  0
  4 11  1  0  0  0  0
  5  9  1  0  0  0  0
  5  3  1  0  0  0  0
  6 24  1  0  0  0  0
  7 15  1  0  0  0  0
  7  8  1  0  0  0  0
  8 25  1  6  0  0  0
  8 17  1  0  0  0  0
  9  4  2  0  0  0  0
 10  2  1  0  0  0  0
 11 18  1  1  0  0  0
 11 16  1  0  0  0  0
 13  1  1  0  0  0  0
 14  7  2  0  0  0  0
 15 20  1  0  0  0  0
 16  1  1  0  0  0  0
 17 20  1  0  0  0  0
 17  3  1  6  0  0  0
 19 24  1  0  0  0  0
 19 13  1  0  0  0  0
 20 21  1  6  0  0  0
 21  6  2  0  0  0  0
 22 12  2  0  0  0  0
 23  2  2  0  0  0  0
 23  9  1  0  0  0  0
 25  5  1  0  0  0  0
M  END
>  <MODEL>
9

>  <REMARK>
 VINA RESULT:      -6.8      3.835      7.269
  Name = 
  0 active torsions:
  status: ('A' for Active; 'I' for Inactive)
                            x       y       z     vdW  Elec       q    Type
                         _______ _______ _______ _____ _____    ______ ____

>  <TORSDO>
F 0

$$$$
