=
 OpenBabel11042418103D

 40 43  0  0  1  0  0  0  0  0999 V2000
  187.3680  176.0590  140.6670 N   0  0  0  0  0  0  0  0  0  0  0  0
  188.3160  175.1880  140.8710 C   0  0  0  0  0  0  0  0  0  0  0  0
  185.9620  177.8280  141.4230 C   0  0  0  0  0  2  0  0  0  0  0  0
  188.9190  175.0230  142.2120 C   0  0  0  0  0  0  0  0  0  0  0  0
  187.2900  176.6710  143.1380 C   0  0  1  0  0  3  0  0  0  0  0  0
  188.4600  175.7260  143.2550 C   0  0  0  0  0  3  0  0  0  0  0  0
  186.8400  176.8790  141.7130 C   0  0  0  0  0  0  0  0  0  0  0  0
  186.2330  176.3460  144.0240 O   0  0  0  0  0  0  0  0  0  0  0  0
  184.8590  178.5120  146.2510 C   0  0  1  0  0  3  0  0  0  0  0  0
  185.7220  179.2580  145.2620 C   0  0  0  0  0  2  0  0  0  0  0  0
  183.5140  178.7720  145.9980 O   0  0  0  0  0  1  0  0  0  0  0  0
  186.9370  178.3820  145.0630 C   0  0  0  0  0  2  0  0  0  0  0  0
  186.4630  176.9560  145.2720 C   0  0  1  0  0  3  0  0  0  0  0  0
  185.1520  177.0410  146.0370 C   0  0  0  0  0  2  0  0  0  0  0  0
  188.7930  174.4020  139.8160 O   0  0  0  0  0  0  0  0  0  0  0  0
  188.1770  174.3720  138.5320 C   0  0  0  0  0  2  0  0  0  0  0  0
  189.0330  172.1420  138.3210 O   0  0  0  0  0  1  0  0  0  0  0  0
  188.8590  173.3480  137.6350 C   0  0  2  0  0  3  0  0  0  0  0  0
  190.2130  173.8220  135.6630 N   0  0  0  0  0  1  0  0  0  0  0  0
  190.1910  173.8800  137.1140 C   0  0  2  0  0  3  0  0  0  0  0  0
  191.3770  173.1110  137.6750 C   0  0  0  0  0  1  0  0  0  0  0  0
  190.0200  174.1200  142.3680 N   0  0  0  0  0  2  0  0  0  0  0  0
  191.1250  172.3770  143.6220 C   0  0  0  0  0  0  0  0  0  0  0  0
  191.5430  172.9940  144.6920 N   0  0  0  0  0  0  0  0  0  0  0  0
  193.0380  171.6460  142.3710 N   0  0  0  0  0  1  0  0  0  0  0  0
  190.7500  170.3050  142.0020 S   0  0  0  0  0  0  0  0  0  0  0  0
  191.8700  171.2030  143.1110 C   0  0  2  0  0  3  0  0  0  0  0  0
  189.7690  171.8040  141.6860 C   0  0  0  0  0  2  0  0  0  0  0  0
  189.8920  172.7550  142.8660 C   0  0  2  0  0  3  0  0  0  0  0  0
  189.7250  173.9500  145.8360 O   0  0  0  0  0  0  0  0  0  0  0  0
  190.8910  174.0760  145.3750 C   0  0  0  0  0  0  0  0  0  0  0  0
  191.6150  175.3690  145.5810 C   0  0  2  0  0  3  0  0  0  0  0  0
  191.0470  176.6350  147.5830 N   0  0  0  0  0  1  0  0  0  0  0  0
  190.6870  176.4050  146.1940 C   0  0  0  0  0  2  0  0  0  0  0  0
  192.1270  175.8680  144.3110 N   0  0  0  0  0  2  0  0  0  0  0  0
  194.4770  176.7630  145.2420 S   0  0  0  0  0  0  0  0  0  0  0  0
  193.5080  176.1610  144.0610 C   0  0  0  0  0  0  0  0  0  0  0  0
  193.4180  175.0100  141.9930 O   0  0  0  0  0  0  0  0  0  0  0  0
  194.0310  176.0860  142.6640 C   0  0  2  0  0  3  0  0  0  0  0  0
  194.7330  174.8020  142.4410 C   0  0  0  0  0  2  0  0  0  0  0  0
  1  2  2  0  0  0  0
  1  7  1  0  0  0  0
  2  4  1  0  0  0  0
  3  7  2  0  0  0  0
  4 22  1  0  0  0  0
  4  6  2  0  0  0  0
  5  6  1  0  0  0  0
  5  8  1  1  0  0  0
  7  5  1  0  0  0  0
  9 11  1  6  0  0  0
 10  9  1  0  0  0  0
 12 10  1  0  0  0  0
 12 13  1  0  0  0  0
 13  8  1  6  0  0  0
 13 14  1  0  0  0  0
 14  9  1  0  0  0  0
 15  2  1  0  0  0  0
 16 15  1  0  0  0  0
 18 17  1  1  0  0  0
 18 16  1  0  0  0  0
 19 20  1  0  0  0  0
 20 18  1  0  0  0  0
 20 21  1  1  0  0  0
 23 24  2  0  0  0  0
 24 31  1  0  0  0  0
 26 27  1  0  0  0  0
 27 25  1  6  0  0  0
 27 23  1  0  0  0  0
 28 26  1  0  0  0  0
 28 29  1  0  0  0  0
 29 22  1  6  0  0  0
 29 23  1  0  0  0  0
 31 32  1  0  0  0  0
 31 30  2  0  0  0  0
 32 34  1  6  0  0  0
 34 33  1  0  0  0  0
 35 32  1  0  0  0  0
 37 35  1  0  0  0  0
 37 36  2  0  0  0  0
 38 40  1  0  0  0  0
 38 39  1  0  0  0  0
 39 37  1  1  0  0  0
 40 39  1  0  0  0  0
M  END
>  <MODEL>
1

>  <REMARK>
 VINA RESULT:      -6.1      0.000      0.000
  Name = 
  14 active torsions:
  status: ('A' for Active; 'I' for Inactive)
    1  A    between atoms: N_4  and  C_22
    2  A    between atoms: C_6  and  O_31
    3  A    between atoms: C_14  and  C_34
    4  A    between atoms: C_16  and  C_35
    5  A    between atoms: O_17  and  C_32
    6  A    between atoms: O_17  and  C_33
    7  A    between atoms: C_18  and  N_36
    8  A    between atoms: C_22  and  C_27
    9  A    between atoms: C_23  and  C_27
   10  A    between atoms: C_26  and  O_31
   11  A    between atoms: C_26  and  C_35
   12  A    between atoms: C_27  and  N_39
   13  A    between atoms: C_29  and  N_36
   14  A    between atoms: C_34  and  N_39
                            x       y       z     vdW  Elec       q    Type
                         _______ _______ _______ _____ _____    ______ ____

>  <TORSDO>
F 14

$$$$
=
 OpenBabel11042418103D

 40 43  0  0  1  0  0  0  0  0999 V2000
  191.1910  176.8930  145.3990 N   0  0  0  0  0  0  0  0  0  0  0  0
  191.2710  176.2510  144.2680 C   0  0  0  0  0  0  0  0  0  0  0  0
  190.0020  177.5000  147.3740 C   0  0  0  0  0  2  0  0  0  0  0  0
  190.1140  175.4950  143.7400 C   0  0  0  0  0  0  0  0  0  0  0  0
  188.7210  176.3170  145.6400 C   0  0  1  0  0  3  0  0  0  0  0  0
  188.9430  175.5070  144.3870 C   0  0  0  0  0  2  0  0  0  0  0  0
  189.9900  176.9310  146.1760 C   0  0  0  0  0  0  0  0  0  0  0  0
  187.6540  177.2400  145.5150 O   0  0  0  0  0  0  0  0  0  0  0  0
  184.4240  177.9840  146.2570 C   0  0  1  0  0  3  0  0  0  0  0  0
  185.3470  178.5750  147.2960 C   0  0  0  0  0  2  0  0  0  0  0  0
  183.9010  178.9970  145.4550 O   0  0  0  0  0  1  0  0  0  0  0  0
  186.3990  177.5170  147.5330 C   0  0  0  0  0  2  0  0  0  0  0  0
  186.5350  176.7620  146.2230 C   0  0  1  0  0  3  0  0  0  0  0  0
  185.2750  177.0500  145.4220 C   0  0  0  0  0  2  0  0  0  0  0  0
  192.4660  176.2510  143.5380 O   0  0  0  0  0  0  0  0  0  0  0  0
  193.7470  176.3700  144.1490 C   0  0  0  0  0  2  0  0  0  0  0  0
  194.5840  174.7920  142.5500 O   0  0  0  0  0  1  0  0  0  0  0  0
  194.8480  176.0230  143.1560 C   0  0  2  0  0  3  0  0  0  0  0  0
  197.1300  176.8830  143.1170 N   0  0  0  0  0  1  0  0  0  0  0  0
  196.2140  176.0170  143.8380 C   0  0  2  0  0  3  0  0  0  0  0  0
  196.8020  174.6180  143.9350 C   0  0  0  0  0  1  0  0  0  0  0  0
  190.2780  174.7300  142.5400 N   0  0  0  0  0  0  0  0  0  0  0  0
  189.7480  172.6710  141.3950 C   0  0  0  0  0  0  0  0  0  0  0  0
  190.2860  171.7570  142.1530 N   0  0  0  0  0  0  0  0  0  0  0  0
  190.8850  172.6700  139.2820 N   0  0  0  0  0  1  0  0  0  0  0  0
  188.3780  173.6100  139.3220 S   0  0  0  0  0  0  0  0  0  0  0  0
  189.6110  172.4330  139.9390 C   0  0  2  0  0  3  0  0  0  0  0  0
  188.6870  174.7480  140.7080 C   0  0  0  0  0  2  0  0  0  0  0  0
  189.2090  173.9690  141.9040 C   0  0  2  0  0  3  0  0  0  0  0  0
  189.4000  171.9910  144.3190 O   0  0  0  0  0  0  0  0  0  0  0  0
  190.4020  171.7800  143.5850 C   0  0  0  0  0  0  0  0  0  0  0  0
  191.7270  171.5150  144.2270 C   0  0  2  0  0  3  0  0  0  0  0  0
  193.6820  172.5590  145.2410 N   0  0  0  0  0  1  0  0  0  0  0  0
  192.4310  172.8230  144.5510 C   0  0  0  0  0  2  0  0  0  0  0  0
  192.5670  170.7180  143.3430 N   0  0  0  0  0  2  0  0  0  0  0  0
  191.9690  168.3740  142.1880 S   0  0  0  0  0  0  0  0  0  0  0  0
  192.6390  169.2870  143.3770 C   0  0  0  0  0  0  0  0  0  0  0  0
  194.2450  169.3600  145.1160 O   0  0  0  0  0  0  0  0  0  0  0  0
  193.1730  168.6100  144.5960 C   0  0  2  0  0  3  0  0  0  0  0  0
  194.5820  168.2060  144.3890 C   0  0  0  0  0  2  0  0  0  0  0  0
  1  7  1  0  0  0  0
  2  1  2  0  0  0  0
  4  2  1  0  0  0  0
  4  6  1  0  0  0  0
  5  8  1  6  0  0  0
  5  7  1  0  0  0  0
  6  5  1  0  0  0  0
  7  3  2  0  0  0  0
  9 11  1  6  0  0  0
  9 10  1  0  0  0  0
 10 12  1  0  0  0  0
 13  8  1  6  0  0  0
 13 12  1  0  0  0  0
 14 13  1  0  0  0  0
 14  9  1  0  0  0  0
 15 16  1  0  0  0  0
 15  2  1  0  0  0  0
 18 17  1  1  0  0  0
 18 20  1  0  0  0  0
 18 16  1  0  0  0  0
 19 20  1  0  0  0  0
 20 21  1  6  0  0  0
 22  4  2  0  0  0  0
 23 29  1  0  0  0  0
 23 24  2  0  0  0  0
 24 31  1  0  0  0  0
 26 27  1  0  0  0  0
 26 28  1  0  0  0  0
 27 25  1  6  0  0  0
 27 23  1  0  0  0  0
 28 29  1  0  0  0  0
 29 22  1  6  0  0  0
 31 32  1  0  0  0  0
 31 30  2  0  0  0  0
 32 34  1  6  0  0  0
 34 33  1  0  0  0  0
 35 37  1  0  0  0  0
 35 32  1  0  0  0  0
 36 37  2  0  0  0  0
 39 37  1  6  0  0  0
 39 38  1  0  0  0  0
 40 39  1  0  0  0  0
 40 38  1  0  0  0  0
M  END
>  <MODEL>
2

>  <REMARK>
 VINA RESULT:      -6.0      2.737      5.357
  Name = 
  14 active torsions:
  status: ('A' for Active; 'I' for Inactive)
    1  A    between atoms: N_4  and  C_22
    2  A    between atoms: C_6  and  O_31
    3  A    between atoms: C_14  and  C_34
    4  A    between atoms: C_16  and  C_35
    5  A    between atoms: O_17  and  C_32
    6  A    between atoms: O_17  and  C_33
    7  A    between atoms: C_18  and  N_36
    8  A    between atoms: C_22  and  C_27
    9  A    between atoms: C_23  and  C_27
   10  A    between atoms: C_26  and  O_31
   11  A    between atoms: C_26  and  C_35
   12  A    between atoms: C_27  and  N_39
   13  A    between atoms: C_29  and  N_36
   14  A    between atoms: C_34  and  N_39
                            x       y       z     vdW  Elec       q    Type
                         _______ _______ _______ _____ _____    ______ ____

>  <TORSDO>
F 14

$$$$
=
 OpenBabel11042418103D

 40 43  0  0  1  0  0  0  0  0999 V2000
  188.0060  175.6510  141.1150 N   0  0  0  0  0  0  0  0  0  0  0  0
  188.9200  175.5470  142.0370 C   0  0  0  0  0  0  0  0  0  0  0  0
  186.6380  176.9650  139.6710 C   0  0  0  0  0  2  0  0  0  0  0  0
  189.4860  176.7510  142.6840 C   0  0  0  0  0  0  0  0  0  0  0  0
  187.8870  178.1790  141.4070 C   0  0  1  0  0  3  0  0  0  0  0  0
  189.0250  177.9690  142.3750 C   0  0  0  0  0  3  0  0  0  0  0  0
  187.4790  176.9130  140.6950 C   0  0  0  0  0  0  0  0  0  0  0  0
  186.8000  178.8820  141.9810 O   0  0  0  0  0  0  0  0  0  0  0  0
  184.0080  178.4820  143.8750 C   0  0  1  0  0  3  0  0  0  0  0  0
  184.9050  179.5320  144.4840 C   0  0  0  0  0  2  0  0  0  0  0  0
  182.8830  179.0840  143.3170 O   0  0  0  0  0  1  0  0  0  0  0  0
  186.3070  178.9950  144.3200 C   0  0  0  0  0  2  0  0  0  0  0  0
  186.2840  178.1430  143.0630 C   0  0  1  0  0  3  0  0  0  0  0  0
  184.8260  177.8090  142.7910 C   0  0  0  0  0  2  0  0  0  0  0  0
  189.3970  174.2880  142.4210 O   0  0  0  0  0  0  0  0  0  0  0  0
  188.7260  173.0740  142.0980 C   0  0  0  0  0  2  0  0  0  0  0  0
  190.9240  172.1950  141.7190 O   0  0  0  0  0  1  0  0  0  0  0  0
  189.6130  172.1850  141.2360 C   0  0  2  0  0  3  0  0  0  0  0  0
  188.1910  172.5970  139.2970 N   0  0  0  0  0  1  0  0  0  0  0  0
  189.5630  172.6190  139.7730 C   0  0  2  0  0  3  0  0  0  0  0  0
  190.4270  171.7400  138.8830 C   0  0  0  0  0  1  0  0  0  0  0  0
  190.5540  176.5920  143.6260 N   0  0  0  0  0  2  0  0  0  0  0  0
  190.9820  175.4290  145.6980 C   0  0  0  0  0  0  0  0  0  0  0  0
  192.2420  175.1090  145.6100 N   0  0  0  0  0  0  0  0  0  0  0  0
  189.6850  173.4100  145.7110 N   0  0  0  0  0  1  0  0  0  0  0  0
  188.5860  175.5760  146.8380 S   0  0  0  0  0  0  0  0  0  0  0  0
  190.0600  174.5790  146.4870 C   0  0  2  0  0  3  0  0  0  0  0  0
  188.8970  176.6440  145.3980 C   0  0  0  0  0  2  0  0  0  0  0  0
  190.3820  176.6470  145.0730 C   0  0  2  0  0  3  0  0  0  0  0  0
  193.4170  177.1030  145.1930 O   0  0  0  0  0  0  0  0  0  0  0  0
  193.2840  175.8690  144.9770 C   0  0  0  0  0  0  0  0  0  0  0  0
  194.2580  175.1840  144.0710 C   0  0  2  0  0  3  0  0  0  0  0  0
  195.8420  173.9780  145.4760 N   0  0  0  0  0  1  0  0  0  0  0  0
  194.6590  173.8350  144.6450 C   0  0  0  0  0  2  0  0  0  0  0  0
  195.4470  176.0070  143.8920 N   0  0  0  0  0  2  0  0  0  0  0  0
  195.2890  176.4160  141.2470 S   0  0  0  0  0  0  0  0  0  0  0  0
  196.1250  176.1790  142.6400 C   0  0  0  0  0  0  0  0  0  0  0  0
  197.9390  175.4360  141.3100 O   0  0  0  0  0  0  0  0  0  0  0  0
  197.6010  175.9630  142.5720 C   0  0  2  0  0  3  0  0  0  0  0  0
  197.9060  174.5260  142.3800 C   0  0  0  0  0  2  0  0  0  0  0  0
  1  2  2  0  0  0  0
  2 15  1  0  0  0  0
  2  4  1  0  0  0  0
  3  7  2  0  0  0  0
  4 22  1  0  0  0  0
  5  8  1  1  0  0  0
  5  6  1  0  0  0  0
  6  4  2  0  0  0  0
  7  1  1  0  0  0  0
  7  5  1  0  0  0  0
  9 11  1  6  0  0  0
  9 10  1  0  0  0  0
 12 10  1  0  0  0  0
 13  8  1  6  0  0  0
 13 12  1  0  0  0  0
 14 13  1  0  0  0  0
 14  9  1  0  0  0  0
 16 15  1  0  0  0  0
 18 17  1  1  0  0  0
 18 16  1  0  0  0  0
 19 20  1  0  0  0  0
 20 21  1  6  0  0  0
 20 18  1  0  0  0  0
 23 27  1  0  0  0  0
 24 23  2  0  0  0  0
 27 25  1  6  0  0  0
 27 26  1  0  0  0  0
 28 26  1  0  0  0  0
 29 22  1  6  0  0  0
 29 28  1  0  0  0  0
 29 23  1  0  0  0  0
 31 30  2  0  0  0  0
 31 24  1  0  0  0  0
 32 34  1  1  0  0  0
 32 31  1  0  0  0  0
 34 33  1  0  0  0  0
 35 32  1  0  0  0  0
 36 37  2  0  0  0  0
 37 35  1  0  0  0  0
 38 40  1  0  0  0  0
 38 39  1  0  0  0  0
 39 37  1  6  0  0  0
 40 39  1  0  0  0  0
M  END
>  <MODEL>
3

>  <REMARK>
 VINA RESULT:      -5.9      2.696      3.634
  Name = 
  14 active torsions:
  status: ('A' for Active; 'I' for Inactive)
    1  A    between atoms: N_4  and  C_22
    2  A    between atoms: C_6  and  O_31
    3  A    between atoms: C_14  and  C_34
    4  A    between atoms: C_16  and  C_35
    5  A    between atoms: O_17  and  C_32
    6  A    between atoms: O_17  and  C_33
    7  A    between atoms: C_18  and  N_36
    8  A    between atoms: C_22  and  C_27
    9  A    between atoms: C_23  and  C_27
   10  A    between atoms: C_26  and  O_31
   11  A    between atoms: C_26  and  C_35
   12  A    between atoms: C_27  and  N_39
   13  A    between atoms: C_29  and  N_36
   14  A    between atoms: C_34  and  N_39
                            x       y       z     vdW  Elec       q    Type
                         _______ _______ _______ _____ _____    ______ ____

>  <TORSDO>
F 14

$$$$
=
 OpenBabel11042418103D

 40 43  0  0  1  0  0  0  0  0999 V2000
  187.5570  176.0690  140.8970 N   0  0  0  0  0  0  0  0  0  0  0  0
  188.4100  175.3510  141.5710 C   0  0  0  0  0  0  0  0  0  0  0  0
  186.1100  177.9530  140.7020 C   0  0  0  0  0  2  0  0  0  0  0  0
  188.7390  175.6820  142.9750 C   0  0  0  0  0  0  0  0  0  0  0  0
  187.0350  177.5040  142.9360 C   0  0  1  0  0  3  0  0  0  0  0  0
  188.1200  176.6920  143.5970 C   0  0  0  0  0  3  0  0  0  0  0  0
  186.8750  177.1890  141.4690 C   0  0  0  0  0  0  0  0  0  0  0  0
  185.8160  177.4810  143.6560 O   0  0  0  0  0  0  0  0  0  0  0  0
  185.2610  178.9420  146.6730 C   0  0  1  0  0  3  0  0  0  0  0  0
  183.9490  178.5800  146.0190 C   0  0  0  0  0  2  0  0  0  0  0  0
  185.5090  178.0870  147.7440 O   0  0  0  0  0  1  0  0  0  0  0  0
  184.1310  178.9200  144.5590 C   0  0  0  0  0  2  0  0  0  0  0  0
  185.6090  178.7330  144.2670 C   0  0  1  0  0  3  0  0  0  0  0  0
  186.3240  178.7600  145.6080 C   0  0  0  0  0  2  0  0  0  0  0  0
  189.0450  174.2580  140.9690 O   0  0  0  0  0  0  0  0  0  0  0  0
  188.3720  173.0400  140.6680 C   0  0  0  0  0  2  0  0  0  0  0  0
  189.2120  171.6020  138.9440 O   0  0  0  0  0  1  0  0  0  0  0  0
  188.4400  172.7440  139.1770 C   0  0  2  0  0  3  0  0  0  0  0  0
  187.9300  174.5580  137.6280 N   0  0  0  0  0  1  0  0  0  0  0  0
  188.9890  173.9430  138.4080 C   0  0  2  0  0  3  0  0  0  0  0  0
  190.1420  173.5610  137.4930 C   0  0  0  0  0  1  0  0  0  0  0  0
  189.7500  174.9200  143.6460 N   0  0  0  0  0  2  0  0  0  0  0  0
  191.9350  174.0750  144.2290 C   0  0  0  0  0  0  0  0  0  0  0  0
  191.7570  172.7850  144.2790 N   0  0  0  0  0  0  0  0  0  0  0  0
  192.4790  174.8510  146.4350 N   0  0  0  0  0  1  0  0  0  0  0  0
  193.3080  176.3450  144.3730 S   0  0  0  0  0  0  0  0  0  0  0  0
  192.9740  174.7070  145.0770 C   0  0  2  0  0  3  0  0  0  0  0  0
  191.6690  176.4050  143.5870 C   0  0  0  0  0  2  0  0  0  0  0  0
  191.1720  174.9920  143.3290 C   0  0  2  0  0  3  0  0  0  0  0  0
  189.7010  171.7320  143.8340 O   0  0  0  0  0  0  0  0  0  0  0  0
  190.8730  172.0030  143.4590 C   0  0  0  0  0  0  0  0  0  0  0  0
  191.3310  171.5270  142.1160 C   0  0  2  0  0  3  0  0  0  0  0  0
  191.6300  169.1110  142.2090 N   0  0  0  0  0  1  0  0  0  0  0  0
  190.7250  170.1700  141.7990 C   0  0  0  0  0  2  0  0  0  0  0  0
  192.7850  171.4280  142.0850 N   0  0  0  0  0  2  0  0  0  0  0  0
  193.1370  172.3340  139.5860 S   0  0  0  0  0  0  0  0  0  0  0  0
  193.6160  172.1160  141.1400 C   0  0  0  0  0  0  0  0  0  0  0  0
  195.0500  172.7960  142.8990 O   0  0  0  0  0  0  0  0  0  0  0  0
  195.0120  172.4830  141.5260 C   0  0  2  0  0  3  0  0  0  0  0  0
  195.0650  173.8820  142.0090 C   0  0  0  0  0  2  0  0  0  0  0  0
  1  7  1  0  0  0  0
  1  2  2  0  0  0  0
  2  4  1  0  0  0  0
  3  7  2  0  0  0  0
  4  6  2  0  0  0  0
  4 22  1  0  0  0  0
  5  6  1  0  0  0  0
  5  8  1  1  0  0  0
  7  5  1  0  0  0  0
  9 11  1  1  0  0  0
 10  9  1  0  0  0  0
 12 10  1  0  0  0  0
 13  8  1  1  0  0  0
 13 12  1  0  0  0  0
 13 14  1  0  0  0  0
 14  9  1  0  0  0  0
 15  2  1  0  0  0  0
 16 15  1  0  0  0  0
 18 17  1  1  0  0  0
 18 16  1  0  0  0  0
 19 20  1  0  0  0  0
 20 21  1  6  0  0  0
 20 18  1  0  0  0  0
 23 24  2  0  0  0  0
 23 27  1  0  0  0  0
 26 27  1  0  0  0  0
 27 25  1  1  0  0  0
 28 26  1  0  0  0  0
 29 28  1  0  0  0  0
 29 22  1  1  0  0  0
 29 23  1  0  0  0  0
 31 30  2  0  0  0  0
 31 24  1  0  0  0  0
 32 34  1  1  0  0  0
 32 31  1  0  0  0  0
 34 33  1  0  0  0  0
 35 32  1  0  0  0  0
 36 37  2  0  0  0  0
 37 35  1  0  0  0  0
 39 37  1  1  0  0  0
 39 40  1  0  0  0  0
 39 38  1  0  0  0  0
 40 38  1  0  0  0  0
M  END
>  <MODEL>
4

>  <REMARK>
 VINA RESULT:      -5.8      1.771      3.580
  Name = 
  14 active torsions:
  status: ('A' for Active; 'I' for Inactive)
    1  A    between atoms: N_4  and  C_22
    2  A    between atoms: C_6  and  O_31
    3  A    between atoms: C_14  and  C_34
    4  A    between atoms: C_16  and  C_35
    5  A    between atoms: O_17  and  C_32
    6  A    between atoms: O_17  and  C_33
    7  A    between atoms: C_18  and  N_36
    8  A    between atoms: C_22  and  C_27
    9  A    between atoms: C_23  and  C_27
   10  A    between atoms: C_26  and  O_31
   11  A    between atoms: C_26  and  C_35
   12  A    between atoms: C_27  and  N_39
   13  A    between atoms: C_29  and  N_36
   14  A    between atoms: C_34  and  N_39
                            x       y       z     vdW  Elec       q    Type
                         _______ _______ _______ _____ _____    ______ ____

>  <TORSDO>
F 14

$$$$
=
 OpenBabel11042418103D

 40 43  0  0  1  0  0  0  0  0999 V2000
  187.9710  175.7840  141.1360 N   0  0  0  0  0  0  0  0  0  0  0  0
  188.9100  175.6470  142.0290 C   0  0  0  0  0  0  0  0  0  0  0  0
  186.5670  177.1480  139.7770 C   0  0  0  0  0  2  0  0  0  0  0  0
  189.4950  176.8280  142.7020 C   0  0  0  0  0  0  0  0  0  0  0  0
  187.8640  178.3000  141.5190 C   0  0  1  0  0  3  0  0  0  0  0  0
  189.0270  178.0560  142.4480 C   0  0  0  0  0  3  0  0  0  0  0  0
  187.4350  177.0600  140.7740 C   0  0  0  0  0  0  0  0  0  0  0  0
  186.7940  178.9830  142.1470 O   0  0  0  0  0  0  0  0  0  0  0  0
  184.0280  178.4640  144.0500 C   0  0  1  0  0  3  0  0  0  0  0  0
  184.9000  179.5270  144.6750 C   0  0  0  0  0  2  0  0  0  0  0  0
  182.8820  179.0450  143.5130 O   0  0  0  0  0  1  0  0  0  0  0  0
  186.3150  179.0330  144.4900 C   0  0  0  0  0  2  0  0  0  0  0  0
  186.3070  178.2070  143.2160 C   0  0  1  0  0  3  0  0  0  0  0  0
  184.8570  177.8370  142.9470 C   0  0  0  0  0  2  0  0  0  0  0  0
  189.3960  174.3760  142.3550 O   0  0  0  0  0  0  0  0  0  0  0  0
  190.2710  173.6390  141.5070 C   0  0  0  0  0  2  0  0  0  0  0  0
  190.4770  171.2510  141.5010 O   0  0  0  0  0  1  0  0  0  0  0  0
  189.6460  172.3070  141.1180 C   0  0  2  0  0  3  0  0  0  0  0  0
  190.0250  171.1220  139.0200 N   0  0  0  0  0  1  0  0  0  0  0  0
  189.3520  172.2600  139.6210 C   0  0  2  0  0  3  0  0  0  0  0  0
  189.7740  173.5370  138.9110 C   0  0  0  0  0  1  0  0  0  0  0  0
  190.5880  176.6350  143.6080 N   0  0  0  0  0  2  0  0  0  0  0  0
  191.0520  175.4580  145.6650 C   0  0  0  0  0  0  0  0  0  0  0  0
  192.3000  175.1050  145.5350 N   0  0  0  0  0  0  0  0  0  0  0  0
  189.7030  173.4740  145.7180 N   0  0  0  0  0  1  0  0  0  0  0  0
  188.7000  175.6670  146.8820 S   0  0  0  0  0  0  0  0  0  0  0  0
  190.1340  174.6310  146.4820 C   0  0  2  0  0  3  0  0  0  0  0  0
  188.9920  176.7290  145.4340 C   0  0  0  0  0  2  0  0  0  0  0  0
  190.4650  176.6920  145.0610 C   0  0  2  0  0  3  0  0  0  0  0  0
  193.7020  176.9750  145.2740 O   0  0  0  0  0  0  0  0  0  0  0  0
  193.3400  175.8380  144.8690 C   0  0  0  0  0  0  0  0  0  0  0  0
  194.0400  175.2330  143.6930 C   0  0  2  0  0  3  0  0  0  0  0  0
  195.4980  176.4040  142.1320 N   0  0  0  0  0  1  0  0  0  0  0  0
  194.1180  176.2320  142.5510 C   0  0  0  0  0  2  0  0  0  0  0  0
  193.3350  174.0380  143.2460 N   0  0  0  0  0  2  0  0  0  0  0  0
  194.9180  172.6270  141.6060 S   0  0  0  0  0  0  0  0  0  0  0  0
  193.9770  172.7930  142.9410 C   0  0  0  0  0  0  0  0  0  0  0  0
  192.5780  171.8780  144.6190 O   0  0  0  0  0  0  0  0  0  0  0  0
  193.6450  171.5820  143.7480 C   0  0  2  0  0  3  0  0  0  0  0  0
  193.8620  171.8440  145.1890 C   0  0  0  0  0  2  0  0  0  0  0  0
  1  2  2  0  0  0  0
  2 15  1  0  0  0  0
  2  4  1  0  0  0  0
  3  7  2  0  0  0  0
  4 22  1  0  0  0  0
  5  8  1  1  0  0  0
  5  6  1  0  0  0  0
  6  4  2  0  0  0  0
  7  1  1  0  0  0  0
  7  5  1  0  0  0  0
  9 11  1  6  0  0  0
  9 10  1  0  0  0  0
 12 10  1  0  0  0  0
 13  8  1  6  0  0  0
 13 12  1  0  0  0  0
 14 13  1  0  0  0  0
 14  9  1  0  0  0  0
 16 15  1  0  0  0  0
 18 17  1  6  0  0  0
 18 16  1  0  0  0  0
 19 20  1  0  0  0  0
 20 21  1  6  0  0  0
 20 18  1  0  0  0  0
 23 27  1  0  0  0  0
 24 23  2  0  0  0  0
 27 25  1  6  0  0  0
 27 26  1  0  0  0  0
 28 26  1  0  0  0  0
 29 22  1  6  0  0  0
 29 28  1  0  0  0  0
 29 23  1  0  0  0  0
 31 30  2  0  0  0  0
 31 24  1  0  0  0  0
 32 34  1  6  0  0  0
 32 31  1  0  0  0  0
 33 34  1  0  0  0  0
 35 32  1  0  0  0  0
 36 37  2  0  0  0  0
 37 35  1  0  0  0  0
 38 40  1  0  0  0  0
 39 37  1  6  0  0  0
 39 38  1  0  0  0  0
 39 40  1  0  0  0  0
M  END
>  <MODEL>
5

>  <REMARK>
 VINA RESULT:      -5.7      2.477      3.756
  Name = 
  14 active torsions:
  status: ('A' for Active; 'I' for Inactive)
    1  A    between atoms: N_4  and  C_22
    2  A    between atoms: C_6  and  O_31
    3  A    between atoms: C_14  and  C_34
    4  A    between atoms: C_16  and  C_35
    5  A    between atoms: O_17  and  C_32
    6  A    between atoms: O_17  and  C_33
    7  A    between atoms: C_18  and  N_36
    8  A    between atoms: C_22  and  C_27
    9  A    between atoms: C_23  and  C_27
   10  A    between atoms: C_26  and  O_31
   11  A    between atoms: C_26  and  C_35
   12  A    between atoms: C_27  and  N_39
   13  A    between atoms: C_29  and  N_36
   14  A    between atoms: C_34  and  N_39
                            x       y       z     vdW  Elec       q    Type
                         _______ _______ _______ _____ _____    ______ ____

>  <TORSDO>
F 14

$$$$
=
 OpenBabel11042418103D

 40 43  0  0  1  0  0  0  0  0999 V2000
  191.5860  176.9750  145.6300 N   0  0  0  0  0  0  0  0  0  0  0  0
  191.8460  176.4540  144.4640 C   0  0  0  0  0  0  0  0  0  0  0  0
  190.0730  177.4680  147.4040 C   0  0  0  0  0  2  0  0  0  0  0  0
  190.7700  175.8640  143.6380 C   0  0  0  0  0  0  0  0  0  0  0  0
  189.0850  176.5970  145.3270 C   0  0  1  0  0  3  0  0  0  0  0  0
  189.4970  175.9100  144.0490 C   0  0  0  0  0  3  0  0  0  0  0  0
  190.2610  177.0350  146.1650 C   0  0  0  0  0  0  0  0  0  0  0  0
  188.1270  177.6190  145.1170 O   0  0  0  0  0  0  0  0  0  0  0  0
  184.7950  178.1250  144.6920 C   0  0  1  0  0  3  0  0  0  0  0  0
  185.3260  179.0310  145.7760 C   0  0  0  0  0  2  0  0  0  0  0  0
  184.4990  178.8700  143.5520 O   0  0  0  0  0  1  0  0  0  0  0  0
  186.3010  178.1810  146.5560 C   0  0  0  0  0  2  0  0  0  0  0  0
  186.8670  177.1790  145.5660 C   0  0  1  0  0  3  0  0  0  0  0  0
  185.9030  177.1360  144.3910 C   0  0  0  0  0  2  0  0  0  0  0  0
  193.1590  176.4280  143.9790 O   0  0  0  0  0  0  0  0  0  0  0  0
  194.3010  176.4580  144.8300 C   0  0  0  0  0  2  0  0  0  0  0  0
  195.2560  175.9110  142.7010 O   0  0  0  0  0  1  0  0  0  0  0  0
  195.5700  176.1910  144.0340 C   0  0  2  0  0  3  0  0  0  0  0  0
  196.7840  174.1140  143.6300 N   0  0  0  0  0  1  0  0  0  0  0  0
  196.3770  175.0550  144.6580 C   0  0  2  0  0  3  0  0  0  0  0  0
  195.5980  174.3240  145.7400 C   0  0  0  0  0  1  0  0  0  0  0  0
  191.1180  175.2210  142.4060 N   0  0  0  0  0  2  0  0  0  0  0  0
  190.1370  173.0270  142.6350 C   0  0  0  0  0  0  0  0  0  0  0  0
  188.9990  173.1380  142.0080 N   0  0  0  0  0  0  0  0  0  0  0  0
  189.6880  172.6410  144.9610 N   0  0  0  0  0  1  0  0  0  0  0  0
  192.0410  171.7880  144.0120 S   0  0  0  0  0  0  0  0  0  0  0  0
  190.2680  172.0700  143.7580 C   0  0  2  0  0  3  0  0  0  0  0  0
  192.4620  173.3850  143.2490 C   0  0  0  0  0  2  0  0  0  0  0  0
  191.3690  173.7910  142.2740 C   0  0  2  0  0  3  0  0  0  0  0  0
  188.1810  175.0660  140.9380 O   0  0  0  0  0  0  0  0  0  0  0  0
  188.7290  173.9340  140.8440 C   0  0  0  0  0  0  0  0  0  0  0  0
  189.1330  173.4360  139.4920 C   0  0  2  0  0  3  0  0  0  0  0  0
  188.9330  174.1840  137.1820 N   0  0  0  0  0  1  0  0  0  0  0  0
  188.2040  173.9890  138.4240 C   0  0  0  0  0  2  0  0  0  0  0  0
  189.0970  171.9790  139.4600 N   0  0  0  0  0  2  0  0  0  0  0  0
  190.0670  170.4810  137.4590 S   0  0  0  0  0  0  0  0  0  0  0  0
  190.1580  171.1610  138.9500 C   0  0  0  0  0  0  0  0  0  0  0  0
  191.5370  169.3960  139.7210 O   0  0  0  0  0  0  0  0  0  0  0  0
  191.2820  170.7740  139.8550 C   0  0  2  0  0  3  0  0  0  0  0  0
  190.8220  169.7930  140.8630 C   0  0  0  0  0  2  0  0  0  0  0  0
  1  7  1  0  0  0  0
  2  1  2  0  0  0  0
  4  6  2  0  0  0  0
  4  2  1  0  0  0  0
  5  8  1  6  0  0  0
  5  7  1  0  0  0  0
  6  5  1  0  0  0  0
  7  3  2  0  0  0  0
  9 11  1  6  0  0  0
  9 10  1  0  0  0  0
 10 12  1  0  0  0  0
 13  8  1  6  0  0  0
 13 12  1  0  0  0  0
 14  9  1  0  0  0  0
 14 13  1  0  0  0  0
 15  2  1  0  0  0  0
 15 16  1  0  0  0  0
 18 17  1  6  0  0  0
 18 20  1  0  0  0  0
 18 16  1  0  0  0  0
 19 20  1  0  0  0  0
 20 21  1  1  0  0  0
 22  4  1  0  0  0  0
 23 27  1  0  0  0  0
 24 23  2  0  0  0  0
 27 26  1  0  0  0  0
 27 25  1  1  0  0  0
 28 26  1  0  0  0  0
 29 22  1  1  0  0  0
 29 23  1  0  0  0  0
 29 28  1  0  0  0  0
 31 30  2  0  0  0  0
 31 24  1  0  0  0  0
 32 34  1  6  0  0  0
 32 31  1  0  0  0  0
 33 34  1  0  0  0  0
 35 32  1  0  0  0  0
 36 37  2  0  0  0  0
 37 35  1  0  0  0  0
 38 39  1  0  0  0  0
 38 40  1  0  0  0  0
 39 37  1  6  0  0  0
 39 40  1  0  0  0  0
M  END
>  <MODEL>
6

>  <REMARK>
 VINA RESULT:      -5.7      2.316      6.085
  Name = 
  14 active torsions:
  status: ('A' for Active; 'I' for Inactive)
    1  A    between atoms: N_4  and  C_22
    2  A    between atoms: C_6  and  O_31
    3  A    between atoms: C_14  and  C_34
    4  A    between atoms: C_16  and  C_35
    5  A    between atoms: O_17  and  C_32
    6  A    between atoms: O_17  and  C_33
    7  A    between atoms: C_18  and  N_36
    8  A    between atoms: C_22  and  C_27
    9  A    between atoms: C_23  and  C_27
   10  A    between atoms: C_26  and  O_31
   11  A    between atoms: C_26  and  C_35
   12  A    between atoms: C_27  and  N_39
   13  A    between atoms: C_29  and  N_36
   14  A    between atoms: C_34  and  N_39
                            x       y       z     vdW  Elec       q    Type
                         _______ _______ _______ _____ _____    ______ ____

>  <TORSDO>
F 14

$$$$
=
 OpenBabel11042418103D

 40 43  0  0  1  0  0  0  0  0999 V2000
  193.6730  175.0220  141.5610 N   0  0  0  0  0  0  0  0  0  0  0  0
  193.0080  175.5840  142.5310 C   0  0  0  0  0  0  0  0  0  0  0  0
  193.7580  173.6660  139.6030 C   0  0  0  0  0  2  0  0  0  0  0  0
  191.5630  175.3250  142.7120 C   0  0  0  0  0  0  0  0  0  0  0  0
  191.6340  173.6750  140.8410 C   0  0  1  0  0  3  0  0  0  0  0  0
  190.9230  174.4600  141.9150 C   0  0  0  0  0  3  0  0  0  0  0  0
  193.0630  174.1130  140.6390 C   0  0  0  0  0  0  0  0  0  0  0  0
  191.4870  172.2750  140.9970 O   0  0  0  0  0  0  0  0  0  0  0  0
  190.6750  170.7100  138.0930 C   0  0  1  0  0  3  0  0  0  0  0  0
  190.7490  172.2030  137.8780 C   0  0  0  0  0  2  0  0  0  0  0  0
  191.7650  170.0880  137.4880 O   0  0  0  0  0  1  0  0  0  0  0  0
  190.1180  172.8080  139.1090 C   0  0  0  0  0  2  0  0  0  0  0  0
  190.3850  171.8320  140.2400 C   0  0  1  0  0  3  0  0  0  0  0  0
  190.7260  170.4990  139.5930 C   0  0  0  0  0  2  0  0  0  0  0  0
  193.6520  176.4590  143.4140 O   0  0  0  0  0  0  0  0  0  0  0  0
  194.8120  176.0970  144.1560 C   0  0  0  0  0  2  0  0  0  0  0  0
  194.8250  175.6410  146.5090 O   0  0  0  0  0  1  0  0  0  0  0  0
  194.4550  175.1200  145.2670 C   0  0  2  0  0  3  0  0  0  0  0  0
  194.2020  172.7000  145.4370 N   0  0  0  0  0  1  0  0  0  0  0  0
  195.1050  173.7600  145.0260 C   0  0  2  0  0  3  0  0  0  0  0  0
  196.4280  173.6170  145.7600 C   0  0  0  0  0  1  0  0  0  0  0  0
  190.8570  176.0350  143.7360 N   0  0  0  0  0  2  0  0  0  0  0  0
  188.9470  176.5930  145.1040 C   0  0  0  0  0  0  0  0  0  0  0  0
  188.3490  177.5290  144.4210 N   0  0  0  0  0  0  0  0  0  0  0  0
  189.7440  177.5440  147.1580 N   0  0  0  0  0  1  0  0  0  0  0  0
  189.2920  174.9050  147.1260 S   0  0  0  0  0  0  0  0  0  0  0  0
  188.8320  176.5720  146.5810 C   0  0  2  0  0  3  0  0  0  0  0  0
  190.2740  174.6220  145.6210 C   0  0  0  0  0  2  0  0  0  0  0  0
  189.7370  175.4830  144.4890 C   0  0  2  0  0  3  0  0  0  0  0  0
  189.1990  178.1750  142.3250 O   0  0  0  0  0  0  0  0  0  0  0  0
  188.2730  177.6390  142.9910 C   0  0  0  0  0  0  0  0  0  0  0  0
  187.0910  177.0780  142.2640 C   0  0  2  0  0  3  0  0  0  0  0  0
  186.6910  177.1850  139.8630 N   0  0  0  0  0  1  0  0  0  0  0  0
  187.5050  176.5650  140.8950 C   0  0  0  0  0  2  0  0  0  0  0  0
  186.0620  178.0990  142.1090 N   0  0  0  0  0  2  0  0  0  0  0  0
  183.3900  178.2900  142.0180 S   0  0  0  0  0  0  0  0  0  0  0  0
  184.8130  178.0930  142.8120 C   0  0  0  0  0  0  0  0  0  0  0  0
  183.8840  179.0310  144.7790 O   0  0  0  0  0  0  0  0  0  0  0  0
  184.8140  178.0850  144.3060 C   0  0  2  0  0  3  0  0  0  0  0  0
  185.2370  179.4030  144.8300 C   0  0  0  0  0  2  0  0  0  0  0  0
  1  2  2  0  0  0  0
  2  4  1  0  0  0  0
  2 15  1  0  0  0  0
  3  7  2  0  0  0  0
  4 22  1  0  0  0  0
  5  8  1  1  0  0  0
  5  6  1  0  0  0  0
  6  4  2  0  0  0  0
  7  5  1  0  0  0  0
  7  1  1  0  0  0  0
  9 11  1  6  0  0  0
  9 14  1  0  0  0  0
 10  9  1  0  0  0  0
 10 12  1  0  0  0  0
 12 13  1  0  0  0  0
 13  8  1  6  0  0  0
 14 13  1  0  0  0  0
 15 16  1  0  0  0  0
 16 18  1  0  0  0  0
 18 17  1  1  0  0  0
 20 18  1  0  0  0  0
 20 19  1  0  0  0  0
 20 21  1  1  0  0  0
 23 27  1  0  0  0  0
 24 23  2  0  0  0  0
 27 26  1  0  0  0  0
 27 25  1  1  0  0  0
 28 26  1  0  0  0  0
 29 22  1  1  0  0  0
 29 23  1  0  0  0  0
 29 28  1  0  0  0  0
 30 31  2  0  0  0  0
 31 24  1  0  0  0  0
 32 34  1  6  0  0  0
 32 31  1  0  0  0  0
 33 34  1  0  0  0  0
 35 32  1  0  0  0  0
 35 37  1  0  0  0  0
 36 37  2  0  0  0  0
 38 40  1  0  0  0  0
 39 37  1  6  0  0  0
 39 38  1  0  0  0  0
 39 40  1  0  0  0  0
M  END
>  <MODEL>
7

>  <REMARK>
 VINA RESULT:      -5.6      3.074      8.273
  Name = 
  14 active torsions:
  status: ('A' for Active; 'I' for Inactive)
    1  A    between atoms: N_4  and  C_22
    2  A    between atoms: C_6  and  O_31
    3  A    between atoms: C_14  and  C_34
    4  A    between atoms: C_16  and  C_35
    5  A    between atoms: O_17  and  C_32
    6  A    between atoms: O_17  and  C_33
    7  A    between atoms: C_18  and  N_36
    8  A    between atoms: C_22  and  C_27
    9  A    between atoms: C_23  and  C_27
   10  A    between atoms: C_26  and  O_31
   11  A    between atoms: C_26  and  C_35
   12  A    between atoms: C_27  and  N_39
   13  A    between atoms: C_29  and  N_36
   14  A    between atoms: C_34  and  N_39
                            x       y       z     vdW  Elec       q    Type
                         _______ _______ _______ _____ _____    ______ ____

>  <TORSDO>
F 14

$$$$
=
 OpenBabel11042418103D

 40 43  0  0  1  0  0  0  0  0999 V2000
  187.6100  175.9820  141.8250 N   0  0  0  0  0  0  0  0  0  0  0  0
  188.8910  175.8840  142.0430 C   0  0  0  0  0  0  0  0  0  0  0  0
  185.5830  177.2360  141.8290 C   0  0  0  0  0  2  0  0  0  0  0  0
  189.6440  177.0000  142.6560 C   0  0  0  0  0  0  0  0  0  0  0  0
  187.5140  178.2660  142.9480 C   0  0  1  0  0  3  0  0  0  0  0  0
  189.0110  178.1100  143.0530 C   0  0  0  0  0  3  0  0  0  0  0  0
  186.8570  177.1450  142.1830 C   0  0  0  0  0  0  0  0  0  0  0  0
  186.9020  178.5340  144.1980 O   0  0  0  0  0  0  0  0  0  0  0  0
  185.2020  177.2950  146.8650 C   0  0  1  0  0  3  0  0  0  0  0  0
  186.6870  177.2680  147.1350 C   0  0  0  0  0  2  0  0  0  0  0  0
  184.5980  178.2880  147.6330 O   0  0  0  0  0  1  0  0  0  0  0  0
  187.3150  176.8360  145.8310 C   0  0  0  0  0  2  0  0  0  0  0  0
  186.3920  177.3370  144.7350 C   0  0  1  0  0  3  0  0  0  0  0  0
  185.0490  177.6150  145.3920 C   0  0  0  0  0  2  0  0  0  0  0  0
  189.5810  174.7210  141.6840 O   0  0  0  0  0  0  0  0  0  0  0  0
  189.1050  173.8100  140.6990 C   0  0  0  0  0  2  0  0  0  0  0  0
  188.4420  172.2940  142.4340 O   0  0  0  0  0  1  0  0  0  0  0  0
  189.1410  172.3820  141.2270 C   0  0  2  0  0  3  0  0  0  0  0  0
  191.2440  171.8810  140.0970 N   0  0  0  0  0  1  0  0  0  0  0  0
  190.5790  171.8960  141.3880 C   0  0  2  0  0  3  0  0  0  0  0  0
  190.6510  170.5130  142.0160 C   0  0  0  0  0  1  0  0  0  0  0  0
  191.0650  176.8810  142.7920 N   0  0  0  0  0  2  0  0  0  0  0  0
  191.9150  175.1100  144.1950 C   0  0  0  0  0  0  0  0  0  0  0  0
  192.5960  174.3680  143.3660 N   0  0  0  0  0  0  0  0  0  0  0  0
  190.0530  173.8300  145.0050 N   0  0  0  0  0  1  0  0  0  0  0  0
  190.9220  175.8380  146.5490 S   0  0  0  0  0  0  0  0  0  0  0  0
  191.2870  174.4940  145.3880 C   0  0  2  0  0  3  0  0  0  0  0  0
  190.8800  177.0640  145.2050 C   0  0  0  0  0  2  0  0  0  0  0  0
  191.7440  176.5870  144.0490 C   0  0  2  0  0  3  0  0  0  0  0  0
  192.8970  174.6910  141.0560 O   0  0  0  0  0  0  0  0  0  0  0  0
  193.3480  174.8140  142.2260 C   0  0  0  0  0  0  0  0  0  0  0  0
  194.6780  175.4700  142.4240 C   0  0  2  0  0  3  0  0  0  0  0  0
  196.4220  176.4090  141.0060 N   0  0  0  0  0  1  0  0  0  0  0  0
  194.9920  176.3930  141.2590 C   0  0  0  0  0  2  0  0  0  0  0  0
  195.7250  174.4640  142.5410 N   0  0  0  0  0  2  0  0  0  0  0  0
  196.1380  172.2800  144.0410 S   0  0  0  0  0  0  0  0  0  0  0  0
  196.1630  173.9010  143.7860 C   0  0  0  0  0  0  0  0  0  0  0  0
  196.4150  174.0860  146.1340 O   0  0  0  0  0  0  0  0  0  0  0  0
  196.4800  174.8100  144.9280 C   0  0  2  0  0  3  0  0  0  0  0  0
  195.3200  174.9170  145.8420 C   0  0  0  0  0  2  0  0  0  0  0  0
  1  2  2  0  0  0  0
  1  7  1  0  0  0  0
  2  4  1  0  0  0  0
  3  7  2  0  0  0  0
  4 22  1  0  0  0  0
  4  6  2  0  0  0  0
  5  6  1  0  0  0  0
  5  8  1  1  0  0  0
  7  5  1  0  0  0  0
  9 10  1  0  0  0  0
  9 11  1  1  0  0  0
 12 10  1  0  0  0  0
 13  8  1  1  0  0  0
 13 14  1  0  0  0  0
 13 12  1  0  0  0  0
 14  9  1  0  0  0  0
 15  2  1  0  0  0  0
 16 18  1  0  0  0  0
 16 15  1  0  0  0  0
 18 20  1  0  0  0  0
 18 17  1  1  0  0  0
 19 20  1  0  0  0  0
 20 21  1  6  0  0  0
 23 27  1  0  0  0  0
 24 23  2  0  0  0  0
 27 25  1  6  0  0  0
 27 26  1  0  0  0  0
 28 26  1  0  0  0  0
 29 22  1  6  0  0  0
 29 23  1  0  0  0  0
 29 28  1  0  0  0  0
 30 31  2  0  0  0  0
 31 32  1  0  0  0  0
 31 24  1  0  0  0  0
 32 34  1  6  0  0  0
 32 35  1  0  0  0  0
 33 34  1  0  0  0  0
 35 37  1  0  0  0  0
 37 36  2  0  0  0  0
 39 37  1  6  0  0  0
 39 40  1  0  0  0  0
 39 38  1  0  0  0  0
 40 38  1  0  0  0  0
M  END
>  <MODEL>
8

>  <REMARK>
 VINA RESULT:      -5.6      2.462      3.930
  Name = 
  14 active torsions:
  status: ('A' for Active; 'I' for Inactive)
    1  A    between atoms: N_4  and  C_22
    2  A    between atoms: C_6  and  O_31
    3  A    between atoms: C_14  and  C_34
    4  A    between atoms: C_16  and  C_35
    5  A    between atoms: O_17  and  C_32
    6  A    between atoms: O_17  and  C_33
    7  A    between atoms: C_18  and  N_36
    8  A    between atoms: C_22  and  C_27
    9  A    between atoms: C_23  and  C_27
   10  A    between atoms: C_26  and  O_31
   11  A    between atoms: C_26  and  C_35
   12  A    between atoms: C_27  and  N_39
   13  A    between atoms: C_29  and  N_36
   14  A    between atoms: C_34  and  N_39
                            x       y       z     vdW  Elec       q    Type
                         _______ _______ _______ _____ _____    ______ ____

>  <TORSDO>
F 14

$$$$
=
 OpenBabel11042418103D

 40 43  0  0  1  0  0  0  0  0999 V2000
  192.4900  176.4120  146.5430 N   0  0  0  0  0  0  0  0  0  0  0  0
  192.9430  175.8510  145.4570 C   0  0  0  0  0  0  0  0  0  0  0  0
  190.6880  177.0450  147.9690 C   0  0  0  0  0  2  0  0  0  0  0  0
  192.0160  175.3270  144.4310 C   0  0  0  0  0  0  0  0  0  0  0  0
  190.0820  176.2100  145.7370 C   0  0  1  0  0  3  0  0  0  0  0  0
  190.6930  175.4720  144.5720 C   0  0  0  0  0  3  0  0  0  0  0  0
  191.0910  176.5770  146.7960 C   0  0  0  0  0  0  0  0  0  0  0  0
  189.2650  177.2940  145.3320 O   0  0  0  0  0  0  0  0  0  0  0  0
  186.0450  178.3570  145.1260 C   0  0  1  0  0  3  0  0  0  0  0  0
  186.3790  177.9780  146.5490 C   0  0  0  0  0  2  0  0  0  0  0  0
  185.9360  179.7410  145.0160 O   0  0  0  0  0  1  0  0  0  0  0  0
  187.2200  176.7280  146.4360 C   0  0  0  0  0  2  0  0  0  0  0  0
  187.9530  176.8350  145.1110 C   0  0  1  0  0  3  0  0  0  0  0  0
  187.1980  177.8600  144.2780 C   0  0  0  0  0  2  0  0  0  0  0  0
  194.3210  175.7220  145.2510 O   0  0  0  0  0  0  0  0  0  0  0  0
  195.1260  174.7860  145.9620 C   0  0  0  0  0  2  0  0  0  0  0  0
  196.5630  175.4220  144.1510 O   0  0  0  0  0  1  0  0  0  0  0  0
  196.4330  174.5340  145.2230 C   0  0  2  0  0  3  0  0  0  0  0  0
  195.2800  172.7000  144.1030 N   0  0  0  0  0  1  0  0  0  0  0  0
  196.5210  173.0860  144.7500 C   0  0  2  0  0  3  0  0  0  0  0  0
  196.8240  172.1260  145.8890 C   0  0  0  0  0  1  0  0  0  0  0  0
  192.5580  174.6380  143.2980 N   0  0  0  0  0  2  0  0  0  0  0  0
  192.7440  174.1620  140.9380 C   0  0  0  0  0  0  0  0  0  0  0  0
  191.7620  173.3340  140.7190 N   0  0  0  0  0  0  0  0  0  0  0  0
  194.8120  173.0030  140.5630 N   0  0  0  0  0  1  0  0  0  0  0  0
  194.8390  175.6680  140.3050 S   0  0  0  0  0  0  0  0  0  0  0  0
  193.9670  174.0910  140.1040 C   0  0  2  0  0  3  0  0  0  0  0  0
  194.0500  175.9640  141.9180 C   0  0  0  0  0  2  0  0  0  0  0  0
  192.7170  175.2360  141.9770 C   0  0  2  0  0  3  0  0  0  0  0  0
  190.2830  172.7010  142.4340 O   0  0  0  0  0  0  0  0  0  0  0  0
  190.4760  173.3300  141.3590 C   0  0  0  0  0  0  0  0  0  0  0  0
  189.3480  174.1130  140.7660 C   0  0  2  0  0  3  0  0  0  0  0  0
  187.8010  175.9150  141.3130 N   0  0  0  0  0  1  0  0  0  0  0  0
  188.5390  174.7900  141.8610 C   0  0  0  0  0  2  0  0  0  0  0  0
  188.4780  173.2380  139.9910 N   0  0  0  0  0  2  0  0  0  0  0  0
  189.4590  171.2810  138.4440 S   0  0  0  0  0  0  0  0  0  0  0  0
  188.7860  172.7600  138.6750 C   0  0  0  0  0  0  0  0  0  0  0  0
  189.3080  173.1290  136.3940 O   0  0  0  0  0  0  0  0  0  0  0  0
  188.6570  173.6870  137.5110 C   0  0  2  0  0  3  0  0  0  0  0  0
  189.9920  174.1540  137.0710 C   0  0  0  0  0  2  0  0  0  0  0  0
  1  7  1  0  0  0  0
  2  1  2  0  0  0  0
  4  6  2  0  0  0  0
  4  2  1  0  0  0  0
  5  8  1  6  0  0  0
  5  7  1  0  0  0  0
  6  5  1  0  0  0  0
  7  3  2  0  0  0  0
  9 11  1  1  0  0  0
  9 10  1  0  0  0  0
 12 10  1  0  0  0  0
 13  8  1  1  0  0  0
 13 12  1  0  0  0  0
 14 13  1  0  0  0  0
 14  9  1  0  0  0  0
 15  2  1  0  0  0  0
 15 16  1  0  0  0  0
 18 17  1  6  0  0  0
 18 16  1  0  0  0  0
 19 20  1  0  0  0  0
 20 18  1  0  0  0  0
 20 21  1  1  0  0  0
 22  4  1  0  0  0  0
 23 29  1  0  0  0  0
 24 23  2  0  0  0  0
 24 31  1  0  0  0  0
 26 28  1  0  0  0  0
 27 26  1  0  0  0  0
 27 25  1  1  0  0  0
 27 23  1  0  0  0  0
 28 29  1  0  0  0  0
 29 22  1  1  0  0  0
 31 30  2  0  0  0  0
 32 31  1  0  0  0  0
 32 34  1  1  0  0  0
 33 34  1  0  0  0  0
 35 32  1  0  0  0  0
 36 37  2  0  0  0  0
 37 35  1  0  0  0  0
 38 40  1  0  0  0  0
 38 39  1  0  0  0  0
 39 37  1  1  0  0  0
 40 39  1  0  0  0  0
M  END
>  <MODEL>
9

>  <REMARK>
 VINA RESULT:      -5.5      2.446      6.402
  Name = 
  14 active torsions:
  status: ('A' for Active; 'I' for Inactive)
    1  A    between atoms: N_4  and  C_22
    2  A    between atoms: C_6  and  O_31
    3  A    between atoms: C_14  and  C_34
    4  A    between atoms: C_16  and  C_35
    5  A    between atoms: O_17  and  C_32
    6  A    between atoms: O_17  and  C_33
    7  A    between atoms: C_18  and  N_36
    8  A    between atoms: C_22  and  C_27
    9  A    between atoms: C_23  and  C_27
   10  A    between atoms: C_26  and  O_31
   11  A    between atoms: C_26  and  C_35
   12  A    between atoms: C_27  and  N_39
   13  A    between atoms: C_29  and  N_36
   14  A    between atoms: C_34  and  N_39
                            x       y       z     vdW  Elec       q    Type
                         _______ _______ _______ _____ _____    ______ ____

>  <TORSDO>
F 14

$$$$
