=
 OpenBabel11042419323D

 32 35  0  0  1  0  0  0  0  0999 V2000
  189.3140  176.9110  143.1030 C   0  0  0  0  0  0  0  0  0  0  0  0
  194.1760  174.6530  144.9730 C   0  0  0  0  0  0  0  0  0  0  0  0
  192.2610  176.6770  144.3720 C   0  0  0  0  0  0  0  0  0  0  0  0
  193.0990  170.5140  144.5100 C   0  0  0  0  0  1  0  0  0  0  0  0
  193.1610  174.3160  143.9090 C   0  0  1  0  0  3  0  0  0  0  0  0
  193.5520  171.9340  144.5220 C   0  0  0  0  0  0  0  0  0  0  0  0
  195.1080  173.6080  145.4140 C   0  0  0  0  0  3  0  0  0  0  0  0
  191.4470  177.8640  144.1030 C   0  0  0  0  0  3  0  0  0  0  0  0
  192.7480  172.8640  143.9940 C   0  0  0  0  0  3  0  0  0  0  0  0
  190.2320  177.9600  143.5750 C   0  0  0  0  0  2  0  0  0  0  0  0
  190.8960  174.9150  143.2310 C   0  0  0  0  0  3  0  0  0  0  0  0
  194.2710  175.8530  145.4570 N   0  0  0  0  0  0  0  0  0  0  0  0
  193.3530  176.8980  145.1110 C   0  0  0  0  0  2  0  0  0  0  0  0
  194.8360  172.3170  145.1720 C   0  0  0  0  0  0  0  0  0  0  0  0
  189.6430  175.6250  142.9580 C   0  0  0  0  0  3  0  0  0  0  0  0
  192.0140  175.3070  143.8490 C   0  0  0  0  0  0  0  0  0  0  0  0
  186.7630  176.9310  143.4290 C   0  0  1  0  0  3  0  0  0  0  0  0
  186.1470  178.1390  141.6050 C   0  0  1  0  0  3  0  0  0  0  0  0
  185.6670  177.2600  142.6020 O   0  0  0  0  0  0  0  0  0  0  0  0
  187.6510  178.0240  141.5350 C   0  0  0  0  0  2  0  0  0  0  0  0
  187.9800  177.3140  142.7370 N   0  0  0  0  0  0  0  0  0  0  0  0
  185.5680  177.7940  140.3180 N   0  0  0  0  0  2  0  0  0  0  0  0
  184.1790  178.2170  140.3460 C   0  0  0  0  0  1  0  0  0  0  0  0
  186.6590  177.6780  144.7530 C   0  0  0  0  0  2  0  0  0  0  0  0
  186.0630  176.7850  145.8280 C   0  0  0  0  0  2  0  0  0  0  0  0
  186.8720  176.9000  147.1050 C   0  0  2  0  0  3  0  0  0  0  0  0
  186.5310  178.0820  147.7630 O   0  0  0  0  0  1  0  0  0  0  0  0
  188.3580  176.9120  146.7820 C   0  0  0  0  0  2  0  0  0  0  0  0
  189.0080  175.2150  146.7530 S   0  0  0  0  0  0  0  0  0  0  0  0
  190.5990  175.7290  147.4620 C   0  0  0  0  0  1  0  0  0  0  0  0
  197.0080  171.5090  145.7410 O   0  0  0  0  0  0  0  0  0  0  0  0
  195.7760  171.2760  145.6130 C   0  0  0  0  0  3  0  0  0  0  0  0
  1 10  1  0  0  0  0
  2  7  1  0  0  0  0
  2 12  2  0  0  0  0
  3 13  1  0  0  0  0
  4  6  1  0  0  0  0
  5  9  1  1  0  0  0
  5  2  1  0  0  0  0
  6 14  1  0  0  0  0
  8  3  2  0  0  0  0
  9  6  2  0  0  0  0
 10  8  1  0  0  0  0
 11 16  2  0  0  0  0
 13 12  1  0  0  0  0
 14  7  2  0  0  0  0
 14 32  1  0  0  0  0
 15  1  2  0  0  0  0
 15 11  1  0  0  0  0
 16  5  1  0  0  0  0
 16  3  1  0  0  0  0
 17 24  1  1  0  0  0
 18 22  1  6  0  0  0
 18 19  1  0  0  0  0
 19 17  1  0  0  0  0
 20 18  1  0  0  0  0
 20 21  1  0  0  0  0
 21  1  1  0  0  0  0
 21 17  1  0  0  0  0
 22 23  1  0  0  0  0
 24 25  1  0  0  0  0
 25 26  1  0  0  0  0
 26 27  1  6  0  0  0
 28 26  1  0  0  0  0
 29 28  1  0  0  0  0
 29 30  1  0  0  0  0
 32 31  2  0  0  0  0
M  END
>  <MODEL>
1

>  <REMARK>
 VINA RESULT:      -6.8      0.000      0.000
  Name = 
  8 active torsions:
  status: ('A' for Active; 'I' for Inactive)
    1  A    between atoms: C_1  and  N_25
    2  A    between atoms: C_5  and  C_31
    3  A    between atoms: S_7  and  C_17
    4  A    between atoms: C_9  and  N_27
    5  A    between atoms: C_14  and  C_28
    6  A    between atoms: C_16  and  C_17
    7  A    between atoms: C_16  and  C_20
    8  A    between atoms: C_20  and  C_31
                            x       y       z     vdW  Elec       q    Type
                         _______ _______ _______ _____ _____    ______ ____

>  <TORSDO>
F 8

$$$$
=
 OpenBabel11042419323D

 32 35  0  0  1  0  0  0  0  0999 V2000
  187.6580  176.4610  142.6110 C   0  0  0  0  0  0  0  0  0  0  0  0
  192.3980  173.8510  144.3280 C   0  0  0  0  0  0  0  0  0  0  0  0
  189.8380  174.1490  143.1110 C   0  0  0  0  0  0  0  0  0  0  0  0
  194.4810  177.3320  145.7590 C   0  0  0  0  0  1  0  0  0  0  0  0
  191.5610  175.0090  144.8110 C   0  0  1  0  0  3  0  0  0  0  0  0
  193.7160  176.0980  145.4250 C   0  0  0  0  0  0  0  0  0  0  0  0
  193.7730  173.7190  144.8260 C   0  0  0  0  0  3  0  0  0  0  0  0
  188.5190  174.0730  142.4800 C   0  0  0  0  0  3  0  0  0  0  0  0
  192.4230  176.2170  145.1010 C   0  0  0  0  0  3  0  0  0  0  0  0
  187.6180  175.0280  142.2780 C   0  0  0  0  0  3  0  0  0  0  0  0
  189.7760  176.4760  144.0320 C   0  0  0  0  0  3  0  0  0  0  0  0
  191.9080  172.9510  143.5330 N   0  0  0  0  0  0  0  0  0  0  0  0
  190.5950  173.0560  142.9660 C   0  0  0  0  0  2  0  0  0  0  0  0
  194.3930  174.7720  145.3800 C   0  0  0  0  0  0  0  0  0  0  0  0
  188.5900  177.0350  143.3750 C   0  0  0  0  0  2  0  0  0  0  0  0
  190.3550  175.2770  143.9300 C   0  0  0  0  0  0  0  0  0  0  0  0
  185.6320  178.0150  142.9170 C   0  0  1  0  0  3  0  0  0  0  0  0
  185.0370  178.3120  140.7450 C   0  0  1  0  0  3  0  0  0  0  0  0
  184.5830  178.4420  142.0770 O   0  0  0  0  0  0  0  0  0  0  0  0
  186.2260  177.3830  140.7230 C   0  0  0  0  0  2  0  0  0  0  0  0
  186.5910  177.2880  142.1070 N   0  0  0  0  0  0  0  0  0  0  0  0
  183.9780  177.7740  139.9090 N   0  0  0  0  0  2  0  0  0  0  0  0
  182.7160  178.1200  140.5390 C   0  0  0  0  0  1  0  0  0  0  0  0
  186.3040  179.2190  143.5650 C   0  0  0  0  0  2  0  0  0  0  0  0
  185.3940  179.8470  144.6080 C   0  0  0  0  0  2  0  0  0  0  0  0
  185.0160  178.8170  145.6540 C   0  0  2  0  0  3  0  0  0  0  0  0
  183.6330  178.8300  145.8350 O   0  0  0  0  0  1  0  0  0  0  0  0
  185.7020  179.1360  146.9730 C   0  0  0  0  0  2  0  0  0  0  0  0
  186.0560  177.6040  147.8840 S   0  0  0  0  0  0  0  0  0  0  0  0
  186.5080  176.7140  146.3680 C   0  0  0  0  0  1  0  0  0  0  0  0
  196.7150  174.2930  145.1220 O   0  0  0  0  0  0  0  0  0  0  0  0
  195.7680  174.6320  145.8810 C   0  0  0  0  0  3  0  0  0  0  0  0
  1 15  1  0  0  0  0
  2  5  1  0  0  0  0
  2  7  1  0  0  0  0
  3 16  1  0  0  0  0
  5  9  1  6  0  0  0
  6  4  1  0  0  0  0
  7 14  2  0  0  0  0
  8  3  2  0  0  0  0
  9  6  2  0  0  0  0
 10  8  1  0  0  0  0
 10  1  2  0  0  0  0
 12  2  2  0  0  0  0
 13  3  1  0  0  0  0
 13 12  1  0  0  0  0
 14  6  1  0  0  0  0
 14 32  1  0  0  0  0
 15 11  1  0  0  0  0
 16 11  2  0  0  0  0
 16  5  1  0  0  0  0
 17 24  1  6  0  0  0
 18 22  1  6  0  0  0
 18 19  1  0  0  0  0
 19 17  1  0  0  0  0
 20 18  1  0  0  0  0
 20 21  1  0  0  0  0
 21  1  1  0  0  0  0
 21 17  1  0  0  0  0
 22 23  1  0  0  0  0
 24 25  1  0  0  0  0
 25 26  1  0  0  0  0
 26 27  1  1  0  0  0
 26 28  1  0  0  0  0
 28 29  1  0  0  0  0
 30 29  1  0  0  0  0
 31 32  2  0  0  0  0
M  END
>  <MODEL>
2

>  <REMARK>
 VINA RESULT:      -6.8      2.027      3.227
  Name = 
  8 active torsions:
  status: ('A' for Active; 'I' for Inactive)
    1  A    between atoms: C_1  and  N_25
    2  A    between atoms: C_5  and  C_31
    3  A    between atoms: S_7  and  C_17
    4  A    between atoms: C_9  and  N_27
    5  A    between atoms: C_14  and  C_28
    6  A    between atoms: C_16  and  C_17
    7  A    between atoms: C_16  and  C_20
    8  A    between atoms: C_20  and  C_31
                            x       y       z     vdW  Elec       q    Type
                         _______ _______ _______ _____ _____    ______ ____

>  <TORSDO>
F 8

$$$$
=
 OpenBabel11042419323D

 32 35  0  0  1  0  0  0  0  0999 V2000
  191.2680  175.5840  145.1320 C   0  0  0  0  0  0  0  0  0  0  0  0
  196.0790  172.6230  145.6960 C   0  0  0  0  0  0  0  0  0  0  0  0
  194.3940  174.9120  145.4840 C   0  0  0  0  0  0  0  0  0  0  0  0
  194.3110  168.7140  146.0070 C   0  0  0  0  0  1  0  0  0  0  0  0
  194.7460  172.4110  145.0230 C   0  0  1  0  0  3  0  0  0  0  0  0
  194.9510  170.0330  145.7350 C   0  0  0  0  0  0  0  0  0  0  0  0
  196.9360  171.4580  145.9460 C   0  0  0  0  0  3  0  0  0  0  0  0
  193.7220  176.2060  145.3480 C   0  0  0  0  0  3  0  0  0  0  0  0
  194.1700  171.0590  145.3770 C   0  0  0  0  0  3  0  0  0  0  0  0
  192.4320  176.4820  145.1970 C   0  0  0  0  0  2  0  0  0  0  0  0
  192.4980  173.3540  144.9900 C   0  0  0  0  0  3  0  0  0  0  0  0
  196.4960  173.8130  146.0020 N   0  0  0  0  0  0  0  0  0  0  0  0
  195.6820  174.9810  145.8390 C   0  0  0  0  0  2  0  0  0  0  0  0
  196.4150  170.2230  145.9310 C   0  0  0  0  0  0  0  0  0  0  0  0
  191.3420  174.2550  145.0300 C   0  0  0  0  0  3  0  0  0  0  0  0
  193.7970  173.5800  145.2030 C   0  0  0  0  0  0  0  0  0  0  0  0
  189.5640  177.3470  144.3560 C   0  0  1  0  0  3  0  0  0  0  0  0
  187.8010  176.7930  145.6780 C   0  0  1  0  0  3  0  0  0  0  0  0
  188.3330  177.8160  144.8620 O   0  0  0  0  0  0  0  0  0  0  0  0
  188.9080  175.8350  146.0450 C   0  0  0  0  0  2  0  0  0  0  0  0
  189.9610  176.1920  145.1390 N   0  0  0  0  0  0  0  0  0  0  0  0
  187.2270  177.3650  146.8830 N   0  0  0  0  0  2  0  0  0  0  0  0
  185.7950  177.1260  146.8330 C   0  0  0  0  0  1  0  0  0  0  0  0
  189.4110  176.9570  142.8910 C   0  0  0  0  0  2  0  0  0  0  0  0
  188.4610  177.9050  142.1790 C   0  0  0  0  0  2  0  0  0  0  0  0
  187.4040  177.1160  141.4310 C   0  0  2  0  0  3  0  0  0  0  0  0
  187.0360  177.8150  140.2800 O   0  0  0  0  0  1  0  0  0  0  0  0
  186.1820  176.9140  142.3130 C   0  0  0  0  0  2  0  0  0  0  0  0
  185.4770  178.5210  142.7870 S   0  0  0  0  0  0  0  0  0  0  0  0
  183.8980  178.1570  141.9680 C   0  0  0  0  0  1  0  0  0  0  0  0
  197.6290  168.7320  147.3450 O   0  0  0  0  0  0  0  0  0  0  0  0
  197.2800  169.0590  146.1790 C   0  0  0  0  0  3  0  0  0  0  0  0
  1 21  1  0  0  0  0
  1 10  1  0  0  0  0
  2  7  1  0  0  0  0
  2 12  2  0  0  0  0
  3 13  1  0  0  0  0
  5 16  1  0  0  0  0
  5  9  1  1  0  0  0
  5  2  1  0  0  0  0
  6 14  1  0  0  0  0
  6  4  1  0  0  0  0
  8  3  2  0  0  0  0
  9  6  2  0  0  0  0
 10  8  1  0  0  0  0
 11 15  1  0  0  0  0
 11 16  2  0  0  0  0
 13 12  1  0  0  0  0
 14  7  2  0  0  0  0
 14 32  1  0  0  0  0
 15  1  2  0  0  0  0
 16  3  1  0  0  0  0
 17 24  1  6  0  0  0
 17 19  1  0  0  0  0
 17 21  1  0  0  0  0
 18 20  1  0  0  0  0
 18 22  1  1  0  0  0
 19 18  1  0  0  0  0
 21 20  1  0  0  0  0
 23 22  1  0  0  0  0
 25 24  1  0  0  0  0
 26 27  1  6  0  0  0
 26 25  1  0  0  0  0
 26 28  1  0  0  0  0
 28 29  1  0  0  0  0
 30 29  1  0  0  0  0
 32 31  2  0  0  0  0
M  END
>  <MODEL>
3

>  <REMARK>
 VINA RESULT:      -6.7      2.371      4.295
  Name = 
  8 active torsions:
  status: ('A' for Active; 'I' for Inactive)
    1  A    between atoms: C_1  and  N_25
    2  A    between atoms: C_5  and  C_31
    3  A    between atoms: S_7  and  C_17
    4  A    between atoms: C_9  and  N_27
    5  A    between atoms: C_14  and  C_28
    6  A    between atoms: C_16  and  C_17
    7  A    between atoms: C_16  and  C_20
    8  A    between atoms: C_20  and  C_31
                            x       y       z     vdW  Elec       q    Type
                         _______ _______ _______ _____ _____    ______ ____

>  <TORSDO>
F 8

$$$$
=
 OpenBabel11042419323D

 32 35  0  0  1  0  0  0  0  0999 V2000
  187.3240  177.2360  141.8950 C   0  0  0  0  0  0  0  0  0  0  0  0
  192.1940  174.4650  142.8130 C   0  0  0  0  0  0  0  0  0  0  0  0
  190.3970  176.6720  142.6650 C   0  0  0  0  0  0  0  0  0  0  0  0
  190.6990  170.4740  142.2310 C   0  0  0  0  0  1  0  0  0  0  0  0
  191.0050  174.2970  141.9000 C   0  0  1  0  0  3  0  0  0  0  0  0
  191.2720  171.8490  142.2720 C   0  0  0  0  0  0  0  0  0  0  0  0
  193.0860  173.3180  143.0270 C   0  0  0  0  0  3  0  0  0  0  0  0
  189.6600  177.9360  142.6120 C   0  0  0  0  0  3  0  0  0  0  0  0
  190.4830  172.8790  141.9450 C   0  0  0  0  0  3  0  0  0  0  0  0
  188.3920  178.1690  142.2890 C   0  0  0  0  0  2  0  0  0  0  0  0
  188.7260  175.1210  141.6300 C   0  0  0  0  0  3  0  0  0  0  0  0
  192.4660  175.6090  143.3600 N   0  0  0  0  0  0  0  0  0  0  0  0
  191.6030  176.7470  143.2380 C   0  0  0  0  0  2  0  0  0  0  0  0
  192.6680  172.0770  142.7390 C   0  0  0  0  0  0  0  0  0  0  0  0
  187.5140  175.9460  141.6090 C   0  0  0  0  0  3  0  0  0  0  0  0
  189.9540  175.3740  142.0910 C   0  0  0  0  0  0  0  0  0  0  0  0
  185.0810  178.0260  142.8720 C   0  0  1  0  0  3  0  0  0  0  0  0
  183.9560  178.4760  140.9490 C   0  0  1  0  0  3  0  0  0  0  0  0
  183.7940  178.2430  142.3340 O   0  0  0  0  0  0  0  0  0  0  0  0
  185.3130  177.9710  140.5240 C   0  0  0  0  0  2  0  0  0  0  0  0
  185.9910  177.7690  141.7720 N   0  0  0  0  0  0  0  0  0  0  0  0
  182.9190  177.7840  140.2040 N   0  0  0  0  0  2  0  0  0  0  0  0
  181.6430  178.3140  140.6520 C   0  0  0  0  0  1  0  0  0  0  0  0
  185.5360  179.2560  143.6480 C   0  0  0  0  0  2  0  0  0  0  0  0
  185.9860  178.8730  145.0470 C   0  0  0  0  0  2  0  0  0  0  0  0
  185.2410  177.6360  145.5110 C   0  0  2  0  0  3  0  0  0  0  0  0
  184.1100  178.0230  146.2310 O   0  0  0  0  0  1  0  0  0  0  0  0
  186.1390  176.7880  146.3970 C   0  0  0  0  0  2  0  0  0  0  0  0
  187.7600  176.5550  145.6080 S   0  0  0  0  0  0  0  0  0  0  0  0
  188.3900  175.5860  147.0080 C   0  0  0  0  0  1  0  0  0  0  0  0
  193.8720  170.5400  144.1100 O   0  0  0  0  0  0  0  0  0  0  0  0
  193.5680  170.9340  142.9520 C   0  0  0  0  0  3  0  0  0  0  0  0
  1 10  1  0  0  0  0
  2  7  1  0  0  0  0
  2 12  2  0  0  0  0
  3 13  1  0  0  0  0
  4  6  1  0  0  0  0
  5  9  1  1  0  0  0
  5 16  1  0  0  0  0
  5  2  1  0  0  0  0
  6 14  1  0  0  0  0
  8  3  2  0  0  0  0
  9  6  2  0  0  0  0
 10  8  1  0  0  0  0
 11 16  2  0  0  0  0
 13 12  1  0  0  0  0
 14 32  1  0  0  0  0
 14  7  2  0  0  0  0
 15 11  1  0  0  0  0
 15  1  2  0  0  0  0
 16  3  1  0  0  0  0
 17 24  1  6  0  0  0
 18 22  1  6  0  0  0
 18 19  1  0  0  0  0
 19 17  1  0  0  0  0
 20 18  1  0  0  0  0
 20 21  1  0  0  0  0
 21  1  1  0  0  0  0
 21 17  1  0  0  0  0
 22 23  1  0  0  0  0
 24 25  1  0  0  0  0
 25 26  1  0  0  0  0
 26 27  1  1  0  0  0
 26 28  1  0  0  0  0
 29 28  1  0  0  0  0
 29 30  1  0  0  0  0
 32 31  2  0  0  0  0
M  END
>  <MODEL>
4

>  <REMARK>
 VINA RESULT:      -6.6      1.988      2.680
  Name = 
  8 active torsions:
  status: ('A' for Active; 'I' for Inactive)
    1  A    between atoms: C_1  and  N_25
    2  A    between atoms: C_5  and  C_31
    3  A    between atoms: S_7  and  C_17
    4  A    between atoms: C_9  and  N_27
    5  A    between atoms: C_14  and  C_28
    6  A    between atoms: C_16  and  C_17
    7  A    between atoms: C_16  and  C_20
    8  A    between atoms: C_20  and  C_31
                            x       y       z     vdW  Elec       q    Type
                         _______ _______ _______ _____ _____    ______ ____

>  <TORSDO>
F 8

$$$$
=
 OpenBabel11042419323D

 32 35  0  0  1  0  0  0  0  0999 V2000
  191.0840  176.1230  143.9190 C   0  0  0  0  0  0  0  0  0  0  0  0
  195.6970  173.2500  145.5620 C   0  0  0  0  0  0  0  0  0  0  0  0
  194.0510  175.5080  144.9980 C   0  0  0  0  0  0  0  0  0  0  0  0
  194.0110  169.2980  145.3610 C   0  0  0  0  0  1  0  0  0  0  0  0
  194.5700  173.0270  144.5850 C   0  0  1  0  0  3  0  0  0  0  0  0
  194.6620  170.6360  145.2770 C   0  0  0  0  0  0  0  0  0  0  0  0
  196.5000  172.0970  145.9880 C   0  0  0  0  0  3  0  0  0  0  0  0
  193.3980  176.7910  144.7310 C   0  0  0  0  0  3  0  0  0  0  0  0
  193.9620  171.6540  144.7630 C   0  0  0  0  0  3  0  0  0  0  0  0
  192.1740  177.0430  144.2800 C   0  0  0  0  0  2  0  0  0  0  0  0
  192.3710  173.9240  144.0310 C   0  0  0  0  0  3  0  0  0  0  0  0
  195.9960  174.4400  145.9840 N   0  0  0  0  0  0  0  0  0  0  0  0
  195.2140  175.5950  145.6530 C   0  0  0  0  0  2  0  0  0  0  0  0
  196.0310  170.8520  145.8230 C   0  0  0  0  0  0  0  0  0  0  0  0
  191.2160  174.7990  143.8110 C   0  0  0  0  0  3  0  0  0  0  0  0
  193.5750  174.1710  144.5550 C   0  0  0  0  0  0  0  0  0  0  0  0
  188.5690  176.4410  144.3490 C   0  0  1  0  0  3  0  0  0  0  0  0
  188.0430  177.7950  142.6010 C   0  0  1  0  0  3  0  0  0  0  0  0
  187.4930  176.9380  143.5820 O   0  0  0  0  0  0  0  0  0  0  0  0
  189.5170  177.4990  142.4650 C   0  0  0  0  0  2  0  0  0  0  0  0
  189.7980  176.7020  143.6230 N   0  0  0  0  0  0  0  0  0  0  0  0
  187.3790  177.5810  141.3270 N   0  0  0  0  0  2  0  0  0  0  0  0
  187.6840  176.2250  140.9060 C   0  0  0  0  0  1  0  0  0  0  0  0
  188.6060  177.1360  145.7050 C   0  0  0  0  0  2  0  0  0  0  0  0
  187.4930  176.6230  146.6030 C   0  0  0  0  0  2  0  0  0  0  0  0
  186.4460  177.7020  146.7980 C   0  0  2  0  0  3  0  0  0  0  0  0
  186.3180  177.9790  148.1600 O   0  0  0  0  0  1  0  0  0  0  0  0
  185.1070  177.2360  146.2490 C   0  0  0  0  0  2  0  0  0  0  0  0
  184.0960  178.6660  145.7620 S   0  0  0  0  0  0  0  0  0  0  0  0
  185.4830  179.4490  144.8910 C   0  0  0  0  0  1  0  0  0  0  0  0
  196.8200  169.2800  147.4360 O   0  0  0  0  0  0  0  0  0  0  0  0
  196.8420  169.7010  146.2480 C   0  0  0  0  0  3  0  0  0  0  0  0
  1 10  1  0  0  0  0
  2 12  2  0  0  0  0
  2  7  1  0  0  0  0
  3 13  1  0  0  0  0
  5  9  1  1  0  0  0
  5  2  1  0  0  0  0
  6  4  1  0  0  0  0
  6 14  1  0  0  0  0
  8  3  2  0  0  0  0
  9  6  2  0  0  0  0
 10  8  1  0  0  0  0
 11 16  2  0  0  0  0
 13 12  1  0  0  0  0
 14  7  2  0  0  0  0
 14 32  1  0  0  0  0
 15  1  2  0  0  0  0
 15 11  1  0  0  0  0
 16  5  1  0  0  0  0
 16  3  1  0  0  0  0
 17 24  1  1  0  0  0
 18 22  1  6  0  0  0
 18 19  1  0  0  0  0
 19 17  1  0  0  0  0
 20 18  1  0  0  0  0
 20 21  1  0  0  0  0
 21  1  1  0  0  0  0
 21 17  1  0  0  0  0
 23 22  1  0  0  0  0
 24 25  1  0  0  0  0
 25 26  1  0  0  0  0
 26 27  1  1  0  0  0
 28 26  1  0  0  0  0
 29 28  1  0  0  0  0
 30 29  1  0  0  0  0
 32 31  2  0  0  0  0
M  END
>  <MODEL>
5

>  <REMARK>
 VINA RESULT:      -6.6      1.928      2.672
  Name = 
  8 active torsions:
  status: ('A' for Active; 'I' for Inactive)
    1  A    between atoms: C_1  and  N_25
    2  A    between atoms: C_5  and  C_31
    3  A    between atoms: S_7  and  C_17
    4  A    between atoms: C_9  and  N_27
    5  A    between atoms: C_14  and  C_28
    6  A    between atoms: C_16  and  C_17
    7  A    between atoms: C_16  and  C_20
    8  A    between atoms: C_20  and  C_31
                            x       y       z     vdW  Elec       q    Type
                         _______ _______ _______ _____ _____    ______ ____

>  <TORSDO>
F 8

$$$$
=
 OpenBabel11042419323D

 32 35  0  0  1  0  0  0  0  0999 V2000
  192.5190  174.9810  144.5300 C   0  0  0  0  0  0  0  0  0  0  0  0
  187.7460  178.0240  144.0930 C   0  0  0  0  0  0  0  0  0  0  0  0
  190.2350  176.8840  143.3010 C   0  0  0  0  0  0  0  0  0  0  0  0
  185.9830  176.8630  147.8410 C   0  0  0  0  0  1  0  0  0  0  0  0
  188.6840  177.6290  145.2070 C   0  0  1  0  0  3  0  0  0  0  0  0
  186.6460  177.4060  146.6220 C   0  0  0  0  0  0  0  0  0  0  0  0
  186.4000  178.4990  144.4400 C   0  0  0  0  0  3  0  0  0  0  0  0
  191.5030  176.4420  142.7160 C   0  0  0  0  0  3  0  0  0  0  0  0
  187.9200  177.0710  146.3860 C   0  0  0  0  0  3  0  0  0  0  0  0
  192.4480  175.6600  143.2260 C   0  0  0  0  0  3  0  0  0  0  0  0
  190.5030  176.0680  145.6520 C   0  0  0  0  0  3  0  0  0  0  0  0
  188.1260  178.0010  142.8530 N   0  0  0  0  0  0  0  0  0  0  0  0
  189.4030  177.4910  142.4480 C   0  0  0  0  0  2  0  0  0  0  0  0
  185.8860  178.2410  145.6510 C   0  0  0  0  0  0  0  0  0  0  0  0
  191.6760  175.1960  145.5430 C   0  0  0  0  0  2  0  0  0  0  0  0
  189.8440  176.7760  144.7310 C   0  0  0  0  0  0  0  0  0  0  0  0
  193.4610  172.6860  145.2070 C   0  0  1  0  0  3  0  0  0  0  0  0
  195.6860  173.1030  145.0030 C   0  0  1  0  0  3  0  0  0  0  0  0
  194.7420  172.2140  145.5660 O   0  0  0  0  0  0  0  0  0  0  0  0
  194.9900  174.3950  144.6510 C   0  0  0  0  0  2  0  0  0  0  0  0
  193.6010  174.0510  144.7340 N   0  0  0  0  0  0  0  0  0  0  0  0
  196.7520  173.3630  145.9540 N   0  0  0  0  0  2  0  0  0  0  0  0
  197.8310  174.0050  145.2250 C   0  0  0  0  0  1  0  0  0  0  0  0
  192.8730  171.8110  144.1070 C   0  0  0  0  0  2  0  0  0  0  0  0
  191.3600  171.7350  144.2320 C   0  0  0  0  0  2  0  0  0  0  0  0
  190.7130  172.0580  142.8990 C   0  0  2  0  0  3  0  0  0  0  0  0
  191.6910  172.4980  142.0060 O   0  0  0  0  0  1  0  0  0  0  0  0
  189.6650  173.1450  143.0780 C   0  0  0  0  0  2  0  0  0  0  0  0
  188.2640  172.8570  141.9560 S   0  0  0  0  0  0  0  0  0  0  0  0
  188.7670  174.2090  140.8540 C   0  0  0  0  0  1  0  0  0  0  0  0
  183.7090  179.0480  145.1020 O   0  0  0  0  0  0  0  0  0  0  0  0
  184.5390  178.7230  145.9920 C   0  0  0  0  0  3  0  0  0  0  0  0
  1 21  1  0  0  0  0
  1 15  1  0  0  0  0
  2  7  1  0  0  0  0
  2  5  1  0  0  0  0
  3 16  1  0  0  0  0
  5  9  1  1  0  0  0
  6  4  1  0  0  0  0
  7 14  2  0  0  0  0
  8 10  1  0  0  0  0
  8  3  2  0  0  0  0
  9  6  2  0  0  0  0
 10  1  2  0  0  0  0
 12  2  2  0  0  0  0
 13 12  1  0  0  0  0
 13  3  1  0  0  0  0
 14 32  1  0  0  0  0
 14  6  1  0  0  0  0
 15 11  1  0  0  0  0
 16  5  1  0  0  0  0
 16 11  2  0  0  0  0
 17 24  1  6  0  0  0
 17 19  1  0  0  0  0
 18 19  1  0  0  0  0
 18 22  1  1  0  0  0
 20 21  1  0  0  0  0
 20 18  1  0  0  0  0
 21 17  1  0  0  0  0
 23 22  1  0  0  0  0
 24 25  1  0  0  0  0
 26 27  1  6  0  0  0
 26 28  1  0  0  0  0
 26 25  1  0  0  0  0
 29 28  1  0  0  0  0
 30 29  1  0  0  0  0
 31 32  2  0  0  0  0
M  END
>  <MODEL>
6

>  <REMARK>
 VINA RESULT:      -6.6      2.316      8.488
  Name = 
  8 active torsions:
  status: ('A' for Active; 'I' for Inactive)
    1  A    between atoms: C_1  and  N_25
    2  A    between atoms: C_5  and  C_31
    3  A    between atoms: S_7  and  C_17
    4  A    between atoms: C_9  and  N_27
    5  A    between atoms: C_14  and  C_28
    6  A    between atoms: C_16  and  C_17
    7  A    between atoms: C_16  and  C_20
    8  A    between atoms: C_20  and  C_31
                            x       y       z     vdW  Elec       q    Type
                         _______ _______ _______ _____ _____    ______ ____

>  <TORSDO>
F 8

$$$$
=
 OpenBabel11042419323D

 32 35  0  0  1  0  0  0  0  0999 V2000
  193.2280  175.6240  144.7470 C   0  0  0  0  0  0  0  0  0  0  0  0
  188.0140  177.4740  146.0200 C   0  0  0  0  0  0  0  0  0  0  0  0
  190.6770  176.5650  146.4670 C   0  0  0  0  0  0  0  0  0  0  0  0
  186.6980  178.2830  142.0060 C   0  0  0  0  0  1  0  0  0  0  0  0
  188.6370  176.6640  144.9110 C   0  0  1  0  0  3  0  0  0  0  0  0
  187.0710  177.8550  143.3840 C   0  0  0  0  0  0  0  0  0  0  0  0
  186.6920  178.0750  145.7980 C   0  0  0  0  0  3  0  0  0  0  0  0
  191.9830  176.0760  146.9160 C   0  0  0  0  0  3  0  0  0  0  0  0
  188.2180  177.1890  143.5560 C   0  0  0  0  0  3  0  0  0  0  0  0
  193.0340  175.6840  146.2040 C   0  0  0  0  0  2  0  0  0  0  0  0
  190.8350  176.1100  144.0100 C   0  0  0  0  0  3  0  0  0  0  0  0
  188.5970  177.5980  147.1720 N   0  0  0  0  0  0  0  0  0  0  0  0
  189.9110  177.0860  147.4300 C   0  0  0  0  0  2  0  0  0  0  0  0
  186.2230  178.2260  144.5510 C   0  0  0  0  0  0  0  0  0  0  0  0
  192.2580  175.7990  143.8460 C   0  0  0  0  0  3  0  0  0  0  0  0
  190.1310  176.4670  145.0880 C   0  0  0  0  0  0  0  0  0  0  0  0
  195.6860  174.9550  145.0950 C   0  0  1  0  0  3  0  0  0  0  0  0
  196.4310  175.0820  142.9520 C   0  0  1  0  0  3  0  0  0  0  0  0
  196.8500  175.0340  144.3010 O   0  0  0  0  0  0  0  0  0  0  0  0
  194.9760  175.4780  142.9060 C   0  0  0  0  0  2  0  0  0  0  0  0
  194.5510  175.3150  144.2660 N   0  0  0  0  0  0  0  0  0  0  0  0
  197.2270  176.0510  142.2180 N   0  0  0  0  0  2  0  0  0  0  0  0
  196.3450  176.6910  141.2590 C   0  0  0  0  0  1  0  0  0  0  0  0
  195.5140  173.5380  145.6280 C   0  0  0  0  0  2  0  0  0  0  0  0
  196.8370  172.9890  146.1340 C   0  0  0  0  0  2  0  0  0  0  0  0
  197.0910  171.6170  145.5410 C   0  0  2  0  0  3  0  0  0  0  0  0
  197.7590  171.7570  144.3240 O   0  0  0  0  0  1  0  0  0  0  0  0
  195.7730  170.8940  145.3150 C   0  0  0  0  0  2  0  0  0  0  0  0
  195.9970  169.1020  145.5130 S   0  0  0  0  0  0  0  0  0  0  0  0
  196.4490  169.2730  147.2630 C   0  0  0  0  0  1  0  0  0  0  0  0
  184.0360  178.8710  145.2540 O   0  0  0  0  0  0  0  0  0  0  0  0
  184.8970  178.8250  144.3350 C   0  0  0  0  0  3  0  0  0  0  0  0
  1 10  1  0  0  0  0
  2 12  2  0  0  0  0
  3  8  2  0  0  0  0
  3 13  1  0  0  0  0
  4  6  1  0  0  0  0
  5  9  1  6  0  0  0
  5 16  1  0  0  0  0
  5  2  1  0  0  0  0
  6  9  2  0  0  0  0
  6 14  1  0  0  0  0
  7  2  1  0  0  0  0
 10  8  1  0  0  0  0
 11 16  2  0  0  0  0
 12 13  1  0  0  0  0
 14  7  2  0  0  0  0
 15 11  1  0  0  0  0
 15  1  2  0  0  0  0
 16  3  1  0  0  0  0
 17 24  1  6  0  0  0
 18 22  1  6  0  0  0
 18 19  1  0  0  0  0
 19 17  1  0  0  0  0
 20 18  1  0  0  0  0
 20 21  1  0  0  0  0
 21  1  1  0  0  0  0
 21 17  1  0  0  0  0
 23 22  1  0  0  0  0
 24 25  1  0  0  0  0
 26 27  1  6  0  0  0
 26 25  1  0  0  0  0
 28 29  1  0  0  0  0
 28 26  1  0  0  0  0
 29 30  1  0  0  0  0
 32 14  1  0  0  0  0
 32 31  2  0  0  0  0
M  END
>  <MODEL>
7

>  <REMARK>
 VINA RESULT:      -6.5      2.853      8.956
  Name = 
  8 active torsions:
  status: ('A' for Active; 'I' for Inactive)
    1  A    between atoms: C_1  and  N_25
    2  A    between atoms: C_5  and  C_31
    3  A    between atoms: S_7  and  C_17
    4  A    between atoms: C_9  and  N_27
    5  A    between atoms: C_14  and  C_28
    6  A    between atoms: C_16  and  C_17
    7  A    between atoms: C_16  and  C_20
    8  A    between atoms: C_20  and  C_31
                            x       y       z     vdW  Elec       q    Type
                         _______ _______ _______ _____ _____    ______ ____

>  <TORSDO>
F 8

$$$$
=
 OpenBabel11042419323D

 32 35  0  0  1  0  0  0  0  0999 V2000
  193.0030  175.2120  144.4990 C   0  0  0  0  0  0  0  0  0  0  0  0
  187.9990  177.5050  145.8880 C   0  0  0  0  0  0  0  0  0  0  0  0
  190.5690  176.3360  146.2770 C   0  0  0  0  0  0  0  0  0  0  0  0
  186.7290  178.5560  141.9150 C   0  0  0  0  0  1  0  0  0  0  0  0
  188.5330  176.6750  144.7480 C   0  0  1  0  0  3  0  0  0  0  0  0
  187.0720  178.0540  143.2760 C   0  0  0  0  0  0  0  0  0  0  0  0
  186.7390  178.2340  145.6990 C   0  0  0  0  0  3  0  0  0  0  0  0
  191.8270  175.7140  146.6950 C   0  0  0  0  0  3  0  0  0  0  0  0
  188.1530  177.2770  143.4150 C   0  0  0  0  0  3  0  0  0  0  0  0
  192.8290  175.2450  145.9600 C   0  0  0  0  0  2  0  0  0  0  0  0
  190.6600  175.9440  143.8060 C   0  0  0  0  0  3  0  0  0  0  0  0
  188.6020  177.5390  147.0370 N   0  0  0  0  0  0  0  0  0  0  0  0
  189.8640  176.8990  147.2640 C   0  0  0  0  0  2  0  0  0  0  0  0
  186.2740  178.4670  144.4630 C   0  0  0  0  0  0  0  0  0  0  0  0
  192.0460  175.5040  143.6160 C   0  0  0  0  0  3  0  0  0  0  0  0
  190.0030  176.3320  144.9020 C   0  0  0  0  0  0  0  0  0  0  0  0
  194.9730  173.5660  144.3470 C   0  0  1  0  0  3  0  0  0  0  0  0
  196.3620  174.7450  142.9900 C   0  0  1  0  0  3  0  0  0  0  0  0
  196.3080  173.6660  143.9000 O   0  0  0  0  0  0  0  0  0  0  0  0
  195.1460  175.6160  143.1910 C   0  0  0  0  0  2  0  0  0  0  0  0
  194.2870  174.7950  143.9940 N   0  0  0  0  0  0  0  0  0  0  0  0
  197.5660  175.5260  143.2160 N   0  0  0  0  0  2  0  0  0  0  0  0
  197.1910  176.9270  143.1390 C   0  0  0  0  0  1  0  0  0  0  0  0
  194.2890  172.3780  143.6810 C   0  0  0  0  0  2  0  0  0  0  0  0
  193.4450  171.6110  144.6860 C   0  0  0  0  0  2  0  0  0  0  0  0
  192.1570  171.1470  144.0350 C   0  0  2  0  0  3  0  0  0  0  0  0
  192.2980  169.8210  143.6270 O   0  0  0  0  0  1  0  0  0  0  0  0
  191.8390  172.0170  142.8280 C   0  0  0  0  0  2  0  0  0  0  0  0
  190.0410  172.1350  142.5950 S   0  0  0  0  0  0  0  0  0  0  0  0
  189.7410  172.2910  144.3780 C   0  0  0  0  0  1  0  0  0  0  0  0
  183.9300  178.5910  144.0380 O   0  0  0  0  0  0  0  0  0  0  0  0
  185.0090  179.1950  144.2810 C   0  0  0  0  0  3  0  0  0  0  0  0
  1 10  1  0  0  0  0
  2 12  2  0  0  0  0
  3  8  2  0  0  0  0
  3 13  1  0  0  0  0
  4  6  1  0  0  0  0
  5  9  1  6  0  0  0
  5 16  1  0  0  0  0
  5  2  1  0  0  0  0
  6  9  2  0  0  0  0
  6 14  1  0  0  0  0
  7  2  1  0  0  0  0
 10  8  1  0  0  0  0
 11 16  2  0  0  0  0
 12 13  1  0  0  0  0
 14  7  2  0  0  0  0
 15 11  1  0  0  0  0
 15  1  2  0  0  0  0
 16  3  1  0  0  0  0
 17 24  1  6  0  0  0
 18 20  1  0  0  0  0
 18 22  1  1  0  0  0
 18 19  1  0  0  0  0
 19 17  1  0  0  0  0
 20 21  1  0  0  0  0
 21 17  1  0  0  0  0
 21  1  1  0  0  0  0
 23 22  1  0  0  0  0
 24 25  1  0  0  0  0
 26 27  1  6  0  0  0
 26 25  1  0  0  0  0
 28 26  1  0  0  0  0
 29 28  1  0  0  0  0
 29 30  1  0  0  0  0
 31 32  2  0  0  0  0
 32 14  1  0  0  0  0
M  END
>  <MODEL>
8

>  <REMARK>
 VINA RESULT:      -6.3      2.491      8.433
  Name = 
  8 active torsions:
  status: ('A' for Active; 'I' for Inactive)
    1  A    between atoms: C_1  and  N_25
    2  A    between atoms: C_5  and  C_31
    3  A    between atoms: S_7  and  C_17
    4  A    between atoms: C_9  and  N_27
    5  A    between atoms: C_14  and  C_28
    6  A    between atoms: C_16  and  C_17
    7  A    between atoms: C_16  and  C_20
    8  A    between atoms: C_20  and  C_31
                            x       y       z     vdW  Elec       q    Type
                         _______ _______ _______ _____ _____    ______ ____

>  <TORSDO>
F 8

$$$$
=
 OpenBabel11042419323D

 32 35  0  0  1  0  0  0  0  0999 V2000
  192.1790  175.3140  143.2020 C   0  0  0  0  0  0  0  0  0  0  0  0
  187.4850  176.3730  146.2150 C   0  0  0  0  0  0  0  0  0  0  0  0
  190.0080  175.2120  145.5740 C   0  0  0  0  0  0  0  0  0  0  0  0
  185.8850  179.4800  143.7070 C   0  0  0  0  0  1  0  0  0  0  0  0
  187.8510  176.3400  144.7520 C   0  0  1  0  0  3  0  0  0  0  0  0
  186.3330  178.2980  144.4960 C   0  0  0  0  0  0  0  0  0  0  0  0
  186.2570  177.0700  146.6190 C   0  0  0  0  0  3  0  0  0  0  0  0
  191.2620  174.4730  145.4180 C   0  0  0  0  0  3  0  0  0  0  0  0
  187.3750  177.5880  144.0460 C   0  0  0  0  0  3  0  0  0  0  0  0
  192.1560  174.5120  144.4360 C   0  0  0  0  0  2  0  0  0  0  0  0
  189.8250  176.2900  143.3210 C   0  0  0  0  0  3  0  0  0  0  0  0
  188.2010  175.7550  147.1030 N   0  0  0  0  0  0  0  0  0  0  0  0
  189.4400  175.1100  146.7800 C   0  0  0  0  0  2  0  0  0  0  0  0
  185.6850  177.9590  145.7930 C   0  0  0  0  0  0  0  0  0  0  0  0
  191.1560  176.0480  142.7570 C   0  0  0  0  0  3  0  0  0  0  0  0
  189.3060  175.9830  144.5130 C   0  0  0  0  0  0  0  0  0  0  0  0
  193.9320  174.0800  141.7830 C   0  0  1  0  0  3  0  0  0  0  0  0
  195.3810  175.7840  141.3840 C   0  0  1  0  0  3  0  0  0  0  0  0
  195.2450  174.3770  141.3620 O   0  0  0  0  0  0  0  0  0  0  0  0
  194.2860  176.3660  142.2440 C   0  0  0  0  0  2  0  0  0  0  0  0
  193.3780  175.2680  142.4040 N   0  0  0  0  0  0  0  0  0  0  0  0
  196.6780  176.1500  141.9260 N   0  0  0  0  0  2  0  0  0  0  0  0
  196.4540  176.6640  143.2660 C   0  0  0  0  0  1  0  0  0  0  0  0
  193.0810  173.6720  140.5860 C   0  0  0  0  0  2  0  0  0  0  0  0
  192.7790  172.1840  140.6220 C   0  0  0  0  0  2  0  0  0  0  0  0
  191.7950  171.8810  141.7360 C   0  0  2  0  0  3  0  0  0  0  0  0
  191.6180  170.5010  141.8320 O   0  0  0  0  0  1  0  0  0  0  0  0
  190.4580  172.5440  141.4450 C   0  0  0  0  0  2  0  0  0  0  0  0
  189.3300  172.3260  142.8530 S   0  0  0  0  0  0  0  0  0  0  0  0
  187.9860  173.2130  142.0140 C   0  0  0  0  0  1  0  0  0  0  0  0
  184.0720  178.6650  147.4030 O   0  0  0  0  0  0  0  0  0  0  0  0
  184.4530  178.6500  146.2020 C   0  0  0  0  0  3  0  0  0  0  0  0
  1 10  1  0  0  0  0
  2  7  1  0  0  0  0
  2 12  2  0  0  0  0
  3 13  1  0  0  0  0
  4  6  1  0  0  0  0
  5  9  1  1  0  0  0
  5  2  1  0  0  0  0
  6 14  1  0  0  0  0
  8  3  2  0  0  0  0
  9  6  2  0  0  0  0
 10  8  1  0  0  0  0
 11 16  2  0  0  0  0
 13 12  1  0  0  0  0
 14 32  1  0  0  0  0
 14  7  2  0  0  0  0
 15  1  2  0  0  0  0
 15 11  1  0  0  0  0
 16  5  1  0  0  0  0
 16  3  1  0  0  0  0
 17 24  1  6  0  0  0
 17 21  1  0  0  0  0
 18 22  1  1  0  0  0
 18 20  1  0  0  0  0
 19 18  1  0  0  0  0
 19 17  1  0  0  0  0
 20 21  1  0  0  0  0
 21  1  1  0  0  0  0
 22 23  1  0  0  0  0
 24 25  1  0  0  0  0
 25 26  1  0  0  0  0
 26 27  1  6  0  0  0
 28 26  1  0  0  0  0
 28 29  1  0  0  0  0
 30 29  1  0  0  0  0
 32 31  2  0  0  0  0
M  END
>  <MODEL>
9

>  <REMARK>
 VINA RESULT:      -6.3      3.122      8.299
  Name = 
  8 active torsions:
  status: ('A' for Active; 'I' for Inactive)
    1  A    between atoms: C_1  and  N_25
    2  A    between atoms: C_5  and  C_31
    3  A    between atoms: S_7  and  C_17
    4  A    between atoms: C_9  and  N_27
    5  A    between atoms: C_14  and  C_28
    6  A    between atoms: C_16  and  C_17
    7  A    between atoms: C_16  and  C_20
    8  A    between atoms: C_20  and  C_31
                            x       y       z     vdW  Elec       q    Type
                         _______ _______ _______ _____ _____    ______ ____

>  <TORSDO>
F 8

$$$$
