=
 OpenBabel11042414243D

 48 52  0  0  1  0  0  0  0  0999 V2000
  193.2160  174.7340  145.3990 C   0  0  1  0  0  3  0  0  0  0  0  0
  190.7440  175.1530  144.8810 C   0  0  0  0  0  0  0  0  0  0  0  0
  188.7680  175.9480  146.6310 C   0  0  0  0  0  0  0  0  0  0  0  0
  188.5050  175.9030  145.2890 C   0  0  0  0  0  0  0  0  0  0  0  0
  190.0040  175.5980  147.1690 C   0  0  0  0  0  3  0  0  0  0  0  0
  189.4690  175.4840  144.3550 C   0  0  0  0  0  0  0  0  0  0  0  0
  187.7000  176.3660  147.2550 O   0  0  0  0  0  0  0  0  0  0  0  0
  186.7980  176.5800  146.3110 C   0  0  0  0  0  0  0  0  0  0  0  0
  190.9950  175.2000  146.2550 C   0  0  0  0  0  0  0  0  0  0  0  0
  187.2430  176.3050  145.0570 N   0  0  0  0  0  0  0  0  0  0  0  0
  192.3640  174.8320  146.6660 C   0  0  0  0  0  2  0  0  0  0  0  0
  192.1590  174.6950  143.8980 S   0  0  0  0  0  0  0  0  0  0  0  0
  194.2090  175.8560  145.3380 C   0  0  0  0  0  0  0  0  0  0  0  0
  195.5970  175.5950  145.5390 N   0  0  0  0  0  2  0  0  0  0  0  0
  193.8030  177.0790  145.2370 N   0  0  0  0  0  2  0  0  0  0  0  0
  196.0730  174.2900  145.7170 N   0  0  0  0  0  2  0  0  0  0  0  0
  197.2770  175.2110  143.8340 C   0  0  0  0  0  1  0  0  0  0  0  0
  197.2850  174.1660  144.9290 C   0  0  2  0  0  3  0  0  0  0  0  0
  197.3450  172.8370  144.3270 N   0  0  0  0  0  2  0  0  0  0  0  0
  196.2440  170.8070  145.0890 N   0  0  0  0  0  0  0  0  0  0  0  0
  194.9350  170.1950  145.3160 C   0  0  0  0  0  2  0  0  0  0  0  0
  194.2040  169.9880  143.9970 C   0  0  1  0  0  3  0  0  0  0  0  0
  192.8640  169.3370  144.2600 C   0  0  0  0  0  1  0  0  0  0  0  0
  195.3260  172.0410  143.1390 C   0  0  0  0  0  2  0  0  0  0  0  0
  193.9890  171.3370  143.3280 C   0  0  0  0  0  2  0  0  0  0  0  0
  196.7820  170.9970  146.3190 O   0  0  0  0  0  1  0  0  0  0  0  0
  196.0620  172.1350  144.4810 C   0  0  2  0  0  3  0  0  0  0  0  0
  187.8750  174.7460  142.5850 C   0  0  0  0  0  2  0  0  0  0  0  0
  189.1810  175.4650  142.8760 C   0  0  2  0  0  3  0  0  0  0  0  0
  189.1850  174.0390  142.3490 C   0  0  2  0  0  3  0  0  0  0  0  0
  189.4860  174.0620  140.8640 C   0  0  0  0  0  2  0  0  0  0  0  0
  190.3300  172.0750  139.2530 O   0  0  0  0  0  0  0  0  0  0  0  0
  190.9540  171.9330  141.6220 O   0  0  0  0  0  0  0  0  0  0  0  0
  190.7450  172.8670  140.4620 S   0  0  0  0  0  0  0  0  0  0  0  0
  192.2650  173.7180  140.1150 C   0  0  0  0  0  1  0  0  0  0  0  0
  185.4210  177.0650  146.5950 C   0  0  0  0  0  2  0  0  0  0  0  0
  185.8410  179.3400  147.0220 O   0  0  0  0  0  0  0  0  0  0  0  0
  185.3010  178.5230  146.2920 C   0  0  0  0  0  0  0  0  0  0  0  0
  184.5430  178.9750  145.0830 C   0  0  0  0  0  2  0  0  0  0  0  0
  185.4120  179.8530  144.1920 C   0  0  0  0  0  2  0  0  0  0  0  0
  186.9870  178.6310  142.8870 O   0  0  0  0  0  1  0  0  0  0  0  0
  185.6990  179.1730  142.8570 C   0  0  1  0  0  3  0  0  0  0  0  0
  185.3100  176.8280  142.5480 O   0  0  0  0  0  1  0  0  0  0  0  0
  184.6740  178.0760  142.5880 C   0  0  2  0  0  3  0  0  0  0  0  0
  182.7970  178.0670  141.3460 O   0  0  0  0  0  0  0  0  0  0  0  0
  183.9830  178.3280  141.2830 C   0  0  0  0  0  2  0  0  0  0  0  0
  182.5340  178.1670  140.7240 C   0  0  0  0  0  2  0  0  0  0  0  0
  181.4880  178.6570  141.6750 O   0  0  0  0  0  1  0  0  0  0  0  0
  1 13  1  6  0  0  0
  1 11  1  0  0  0  0
  2  9  1  0  0  0  0
  3  5  1  0  0  0  0
  3  7  1  0  0  0  0
  4  3  2  0  0  0  0
  6  2  2  0  0  0  0
  6  4  1  0  0  0  0
  8 36  1  0  0  0  0
  8  7  1  0  0  0  0
  9 11  1  0  0  0  0
  9  5  2  0  0  0  0
 10  4  1  0  0  0  0
 10  8  2  0  0  0  0
 12  2  1  0  0  0  0
 12  1  1  0  0  0  0
 13 14  1  0  0  0  0
 14 16  1  0  0  0  0
 15 13  2  0  0  0  0
 18 17  1  6  0  0  0
 18 16  1  0  0  0  0
 19 18  1  0  0  0  0
 20 21  1  0  0  0  0
 20 26  1  0  0  0  0
 22 23  1  1  0  0  0
 22 21  1  0  0  0  0
 24 25  1  0  0  0  0
 24 27  1  0  0  0  0
 25 22  1  0  0  0  0
 27 19  1  6  0  0  0
 27 20  1  0  0  0  0
 28 29  1  0  0  0  0
 29  6  1  1  0  0  0
 30 31  1  6  0  0  0
 30 28  1  0  0  0  0
 30 29  1  0  0  0  0
 32 34  2  0  0  0  0
 34 31  1  0  0  0  0
 34 33  2  0  0  0  0
 35 34  1  0  0  0  0
 38 36  1  0  0  0  0
 38 37  2  0  0  0  0
 39 38  1  0  0  0  0
 40 39  1  0  0  0  0
 42 41  1  1  0  0  0
 42 40  1  0  0  0  0
 44 43  1  6  0  0  0
 44 42  1  0  0  0  0
 46 45  1  0  0  0  0
 46 44  1  0  0  0  0
 47 45  1  0  0  0  0
 47 48  1  0  0  0  0
M  END
>  <MODEL>
1

>  <REMARK>
 VINA RESULT:      -7.6      0.000      0.000
  Name = 
  16 active torsions:
  status: ('A' for Active; 'I' for Inactive)
    1  A    between atoms: C_3  and  C_24
    2  A    between atoms: C_10  and  C_19
    3  A    between atoms: C_10  and  C_46
    4  A    between atoms: C_13  and  C_34
    5  A    between atoms: C_14  and  C_43
    6  A    between atoms: C_18  and  C_34
    7  A    between atoms: C_18  and  C_44
    8  A    between atoms: S_22  and  C_28
    9  A    between atoms: C_28  and  C_47
   10  A    between atoms: N_29  and  N_30
   11  A    between atoms: N_29  and  C_33
   12  A    between atoms: C_33  and  N_45
   13  A    between atoms: C_36  and  C_37
   14  A    between atoms: C_36  and  C_46
   15  A    between atoms: C_37  and  C_44
   16  A    between atoms: C_42  and  N_45
                            x       y       z     vdW  Elec       q    Type
                         _______ _______ _______ _____ _____    ______ ____

>  <TORSDO>
F 16

$$$$
=
 OpenBabel11042414243D

 48 52  0  0  1  0  0  0  0  0999 V2000
  193.9440  174.6340  144.8780 C   0  0  1  0  0  3  0  0  0  0  0  0
  191.4300  175.0420  144.6220 C   0  0  0  0  0  0  0  0  0  0  0  0
  189.6240  175.7220  146.5920 C   0  0  0  0  0  0  0  0  0  0  0  0
  189.2340  175.7390  145.2810 C   0  0  0  0  0  0  0  0  0  0  0  0
  190.9100  175.3640  146.9900 C   0  0  0  0  0  3  0  0  0  0  0  0
  190.1060  175.3800  144.2390 C   0  0  0  0  0  0  0  0  0  0  0  0
  188.6180  176.0930  147.3360 O   0  0  0  0  0  0  0  0  0  0  0  0
  187.6270  176.3400  146.4940 C   0  0  0  0  0  0  0  0  0  0  0  0
  191.8110  175.0260  145.9660 C   0  0  0  0  0  0  0  0  0  0  0  0
  187.9500  176.1340  145.1910 N   0  0  0  0  0  0  0  0  0  0  0  0
  193.2180  174.6580  146.2250 C   0  0  0  0  0  2  0  0  0  0  0  0
  192.7470  174.6540  143.4860 S   0  0  0  0  0  0  0  0  0  0  0  0
  194.9150  175.7720  144.7790 C   0  0  0  0  0  0  0  0  0  0  0  0
  196.2530  175.5360  144.3440 N   0  0  0  0  0  2  0  0  0  0  0  0
  194.5890  176.9460  145.2110 N   0  0  0  0  0  2  0  0  0  0  0  0
  196.6680  174.2640  143.9280 N   0  0  0  0  0  2  0  0  0  0  0  0
  197.9410  175.6880  142.4480 C   0  0  0  0  0  1  0  0  0  0  0  0
  197.1600  174.3980  142.5690 C   0  0  2  0  0  3  0  0  0  0  0  0
  196.0330  174.4270  141.6400 N   0  0  0  0  0  2  0  0  0  0  0  0
  195.6470  173.4420  139.4510 N   0  0  0  0  0  0  0  0  0  0  0  0
  195.6930  172.1860  138.7020 C   0  0  0  0  0  2  0  0  0  0  0  0
  194.6450  171.2130  139.2250 C   0  0  1  0  0  3  0  0  0  0  0  0
  194.7020  169.9320  138.4210 C   0  0  0  0  0  1  0  0  0  0  0  0
  194.9650  172.2000  141.4890 C   0  0  0  0  0  2  0  0  0  0  0  0
  194.9320  170.9070  140.6870 C   0  0  0  0  0  2  0  0  0  0  0  0
  196.6460  174.2090  138.9490 O   0  0  0  0  0  1  0  0  0  0  0  0
  195.9640  173.1790  140.8640 C   0  0  2  0  0  3  0  0  0  0  0  0
  188.3070  174.7990  142.6130 C   0  0  0  0  0  2  0  0  0  0  0  0
  189.6770  175.4300  142.7950 C   0  0  2  0  0  3  0  0  0  0  0  0
  189.5420  174.0250  142.2290 C   0  0  2  0  0  3  0  0  0  0  0  0
  189.7000  174.0810  140.7230 C   0  0  0  0  0  2  0  0  0  0  0  0
  192.2450  173.7150  139.9200 O   0  0  0  0  0  0  0  0  0  0  0  0
  190.5400  172.2570  138.9270 O   0  0  0  0  0  0  0  0  0  0  0  0
  190.9730  172.9570  140.1840 S   0  0  0  0  0  0  0  0  0  0  0  0
  191.2600  171.7510  141.4560 C   0  0  0  0  0  1  0  0  0  0  0  0
  186.2780  176.7900  146.9340 C   0  0  0  0  0  2  0  0  0  0  0  0
  186.8680  178.7340  148.1200 O   0  0  0  0  0  0  0  0  0  0  0  0
  186.2650  178.2660  147.1680 C   0  0  0  0  0  0  0  0  0  0  0  0
  185.5350  179.1670  146.2200 C   0  0  0  0  0  2  0  0  0  0  0  0
  184.6820  178.3600  145.2500 C   0  0  0  0  0  2  0  0  0  0  0  0
  185.5920  180.0520  143.8400 O   0  0  0  0  0  1  0  0  0  0  0  0
  184.6990  178.9760  143.8550 C   0  0  1  0  0  3  0  0  0  0  0  0
  185.3560  176.7080  143.4470 O   0  0  0  0  0  1  0  0  0  0  0  0
  185.1120  177.9360  142.8190 C   0  0  2  0  0  3  0  0  0  0  0  0
  186.6400  177.6350  141.1940 O   0  0  0  0  0  0  0  0  0  0  0  0
  186.3490  178.3870  142.1040 C   0  0  0  0  0  2  0  0  0  0  0  0
  187.2230  177.8620  140.9210 C   0  0  0  0  0  2  0  0  0  0  0  0
  186.4190  177.5560  139.6980 O   0  0  0  0  0  1  0  0  0  0  0  0
  1 13  1  6  0  0  0
  1 11  1  0  0  0  0
  2  9  1  0  0  0  0
  3  5  1  0  0  0  0
  3  7  1  0  0  0  0
  4  3  2  0  0  0  0
  6  2  2  0  0  0  0
  6  4  1  0  0  0  0
  8 36  1  0  0  0  0
  8  7  1  0  0  0  0
  9 11  1  0  0  0  0
  9  5  2  0  0  0  0
 10  4  1  0  0  0  0
 10  8  2  0  0  0  0
 12  2  1  0  0  0  0
 12  1  1  0  0  0  0
 13 15  2  0  0  0  0
 14 13  1  0  0  0  0
 16 14  1  0  0  0  0
 18 17  1  1  0  0  0
 18 16  1  0  0  0  0
 19 18  1  0  0  0  0
 20 27  1  0  0  0  0
 21 22  1  0  0  0  0
 21 20  1  0  0  0  0
 22 23  1  6  0  0  0
 22 25  1  0  0  0  0
 25 24  1  0  0  0  0
 26 20  1  0  0  0  0
 27 24  1  0  0  0  0
 27 19  1  1  0  0  0
 28 29  1  0  0  0  0
 29  6  1  1  0  0  0
 30 31  1  6  0  0  0
 30 28  1  0  0  0  0
 30 29  1  0  0  0  0
 32 34  2  0  0  0  0
 33 34  2  0  0  0  0
 34 31  1  0  0  0  0
 34 35  1  0  0  0  0
 36 38  1  0  0  0  0
 38 37  2  0  0  0  0
 39 38  1  0  0  0  0
 40 39  1  0  0  0  0
 42 41  1  1  0  0  0
 42 40  1  0  0  0  0
 44 43  1  1  0  0  0
 44 42  1  0  0  0  0
 45 46  1  0  0  0  0
 46 44  1  0  0  0  0
 47 45  1  0  0  0  0
 48 47  1  0  0  0  0
M  END
>  <MODEL>
2

>  <REMARK>
 VINA RESULT:      -7.1      2.259      2.846
  Name = 
  16 active torsions:
  status: ('A' for Active; 'I' for Inactive)
    1  A    between atoms: C_3  and  C_24
    2  A    between atoms: C_10  and  C_19
    3  A    between atoms: C_10  and  C_46
    4  A    between atoms: C_13  and  C_34
    5  A    between atoms: C_14  and  C_43
    6  A    between atoms: C_18  and  C_34
    7  A    between atoms: C_18  and  C_44
    8  A    between atoms: S_22  and  C_28
    9  A    between atoms: C_28  and  C_47
   10  A    between atoms: N_29  and  N_30
   11  A    between atoms: N_29  and  C_33
   12  A    between atoms: C_33  and  N_45
   13  A    between atoms: C_36  and  C_37
   14  A    between atoms: C_36  and  C_46
   15  A    between atoms: C_37  and  C_44
   16  A    between atoms: C_42  and  N_45
                            x       y       z     vdW  Elec       q    Type
                         _______ _______ _______ _____ _____    ______ ____

>  <TORSDO>
F 16

$$$$
=
 OpenBabel11042414243D

 48 52  0  0  1  0  0  0  0  0999 V2000
  193.8870  175.1710  144.9120 C   0  0  1  0  0  3  0  0  0  0  0  0
  191.3440  175.3900  144.7190 C   0  0  0  0  0  0  0  0  0  0  0  0
  189.5410  175.9230  146.7360 C   0  0  0  0  0  0  0  0  0  0  0  0
  189.1180  175.9170  145.4340 C   0  0  0  0  0  0  0  0  0  0  0  0
  190.8590  175.6610  147.1010 C   0  0  0  0  0  3  0  0  0  0  0  0
  189.9900  175.6300  144.3700 C   0  0  0  0  0  0  0  0  0  0  0  0
  188.5280  176.2140  147.5060 O   0  0  0  0  0  0  0  0  0  0  0  0
  187.5010  176.3900  146.6900 C   0  0  0  0  0  0  0  0  0  0  0  0
  191.7580  175.3960  146.0530 C   0  0  0  0  0  0  0  0  0  0  0  0
  187.8070  176.2150  145.3780 N   0  0  0  0  0  0  0  0  0  0  0  0
  193.1940  175.1330  146.2760 C   0  0  0  0  0  2  0  0  0  0  0  0
  192.6590  175.1070  143.5490 S   0  0  0  0  0  0  0  0  0  0  0  0
  194.7680  176.3780  144.7970 C   0  0  0  0  0  0  0  0  0  0  0  0
  196.0150  176.2920  144.1110 N   0  0  0  0  0  2  0  0  0  0  0  0
  194.4680  177.4650  145.4290 N   0  0  0  0  0  2  0  0  0  0  0  0
  196.4100  175.1130  143.4670 N   0  0  0  0  0  2  0  0  0  0  0  0
  196.3580  176.8150  141.7520 C   0  0  0  0  0  1  0  0  0  0  0  0
  196.9580  175.4920  142.1780 C   0  0  2  0  0  3  0  0  0  0  0  0
  196.6310  174.4720  141.1850 N   0  0  0  0  0  2  0  0  0  0  0  0
  195.4720  174.5410  139.0490 N   0  0  0  0  0  0  0  0  0  0  0  0
  195.4360  175.2180  137.7530 C   0  0  0  0  0  2  0  0  0  0  0  0
  196.6980  174.9160  136.9560 C   0  0  1  0  0  3  0  0  0  0  0  0
  196.6250  175.6120  135.6140 C   0  0  0  0  0  1  0  0  0  0  0  0
  197.9410  174.7950  139.1120 C   0  0  0  0  0  2  0  0  0  0  0  0
  197.9080  175.4240  137.7250 C   0  0  0  0  0  2  0  0  0  0  0  0
  194.3410  174.9170  139.6940 O   0  0  0  0  0  1  0  0  0  0  0  0
  196.6110  175.0460  139.8310 C   0  0  2  0  0  3  0  0  0  0  0  0
  188.1810  174.9570  142.7900 C   0  0  0  0  0  2  0  0  0  0  0  0
  189.5230  175.6540  142.9360 C   0  0  2  0  0  3  0  0  0  0  0  0
  189.4420  174.2420  142.3770 C   0  0  2  0  0  3  0  0  0  0  0  0
  189.5610  174.3020  140.8670 C   0  0  0  0  0  2  0  0  0  0  0  0
  188.4860  172.3500  139.3540 O   0  0  0  0  0  0  0  0  0  0  0  0
  189.8180  171.6540  141.2940 O   0  0  0  0  0  0  0  0  0  0  0  0
  189.7000  172.6620  140.1850 S   0  0  0  0  0  0  0  0  0  0  0  0
  191.1500  172.5800  139.1620 C   0  0  0  0  0  1  0  0  0  0  0  0
  186.1340  176.7360  147.1640 C   0  0  0  0  0  2  0  0  0  0  0  0
  186.1530  179.0790  146.9520 O   0  0  0  0  0  0  0  0  0  0  0  0
  185.6770  178.0250  146.5620 C   0  0  0  0  0  0  0  0  0  0  0  0
  184.6560  178.0170  145.4670 C   0  0  0  0  0  2  0  0  0  0  0  0
  185.2970  178.3300  144.1220 C   0  0  0  0  0  2  0  0  0  0  0  0
  183.1690  178.8810  143.2020 O   0  0  0  0  0  1  0  0  0  0  0  0
  184.3140  178.1110  142.9770 C   0  0  1  0  0  3  0  0  0  0  0  0
  184.1450  178.0660  140.5860 O   0  0  0  0  0  1  0  0  0  0  0  0
  184.9520  178.4970  141.6460 C   0  0  2  0  0  3  0  0  0  0  0  0
  186.6340  177.7240  140.3660 O   0  0  0  0  0  0  0  0  0  0  0  0
  186.3090  177.8730  141.5280 C   0  0  0  0  0  2  0  0  0  0  0  0
  187.2400  177.4090  140.3630 C   0  0  0  0  0  2  0  0  0  0  0  0
  186.4910  177.1310  139.0980 O   0  0  0  0  0  1  0  0  0  0  0  0
  1 13  1  1  0  0  0
  1 11  1  0  0  0  0
  2  9  1  0  0  0  0
  3  5  1  0  0  0  0
  3  7  1  0  0  0  0
  4  3  2  0  0  0  0
  6  2  2  0  0  0  0
  6  4  1  0  0  0  0
  8 36  1  0  0  0  0
  8  7  1  0  0  0  0
  9 11  1  0  0  0  0
  9  5  2  0  0  0  0
 10  4  1  0  0  0  0
 10  8  2  0  0  0  0
 12  2  1  0  0  0  0
 12  1  1  0  0  0  0
 13 15  2  0  0  0  0
 14 13  1  0  0  0  0
 16 14  1  0  0  0  0
 18 17  1  6  0  0  0
 18 16  1  0  0  0  0
 19 18  1  0  0  0  0
 20 26  1  0  0  0  0
 20 27  1  0  0  0  0
 21 20  1  0  0  0  0
 22 23  1  6  0  0  0
 22 25  1  0  0  0  0
 22 21  1  0  0  0  0
 24 27  1  0  0  0  0
 25 24  1  0  0  0  0
 27 19  1  1  0  0  0
 28 29  1  0  0  0  0
 29  6  1  1  0  0  0
 30 31  1  6  0  0  0
 30 28  1  0  0  0  0
 30 29  1  0  0  0  0
 32 34  2  0  0  0  0
 34 31  1  0  0  0  0
 34 33  2  0  0  0  0
 35 34  1  0  0  0  0
 38 37  2  0  0  0  0
 38 36  1  0  0  0  0
 39 38  1  0  0  0  0
 40 39  1  0  0  0  0
 42 41  1  1  0  0  0
 42 40  1  0  0  0  0
 44 43  1  6  0  0  0
 44 42  1  0  0  0  0
 45 46  1  0  0  0  0
 46 44  1  0  0  0  0
 47 45  1  0  0  0  0
 48 47  1  0  0  0  0
M  END
>  <MODEL>
3

>  <REMARK>
 VINA RESULT:      -6.9      2.608      3.815
  Name = 
  16 active torsions:
  status: ('A' for Active; 'I' for Inactive)
    1  A    between atoms: C_3  and  C_24
    2  A    between atoms: C_10  and  C_19
    3  A    between atoms: C_10  and  C_46
    4  A    between atoms: C_13  and  C_34
    5  A    between atoms: C_14  and  C_43
    6  A    between atoms: C_18  and  C_34
    7  A    between atoms: C_18  and  C_44
    8  A    between atoms: S_22  and  C_28
    9  A    between atoms: C_28  and  C_47
   10  A    between atoms: N_29  and  N_30
   11  A    between atoms: N_29  and  C_33
   12  A    between atoms: C_33  and  N_45
   13  A    between atoms: C_36  and  C_37
   14  A    between atoms: C_36  and  C_46
   15  A    between atoms: C_37  and  C_44
   16  A    between atoms: C_42  and  N_45
                            x       y       z     vdW  Elec       q    Type
                         _______ _______ _______ _____ _____    ______ ____

>  <TORSDO>
F 16

$$$$
=
 OpenBabel11042414243D

 48 52  0  0  1  0  0  0  0  0999 V2000
  193.6910  175.5730  145.1320 C   0  0  1  0  0  3  0  0  0  0  0  0
  191.4240  175.4050  143.9550 C   0  0  0  0  0  0  0  0  0  0  0  0
  189.9230  177.4590  142.8900 C   0  0  0  0  0  0  0  0  0  0  0  0
  189.5520  176.1610  142.6650 C   0  0  0  0  0  0  0  0  0  0  0  0
  191.0370  177.8010  143.6520 C   0  0  0  0  0  3  0  0  0  0  0  0
  190.2670  175.0780  143.2020 C   0  0  0  0  0  0  0  0  0  0  0  0
  189.0820  178.2490  142.2800 O   0  0  0  0  0  0  0  0  0  0  0  0
  188.2130  177.4500  141.6840 C   0  0  0  0  0  0  0  0  0  0  0  0
  191.7870  176.7360  144.1800 C   0  0  0  0  0  0  0  0  0  0  0  0
  188.4520  176.1290  141.8900 N   0  0  0  0  0  0  0  0  0  0  0  0
  193.0130  176.9360  144.9790 C   0  0  0  0  0  2  0  0  0  0  0  0
  192.5530  174.2150  144.6510 S   0  0  0  0  0  0  0  0  0  0  0  0
  194.9650  175.5230  144.3440 C   0  0  0  0  0  0  0  0  0  0  0  0
  195.9700  174.5640  144.6680 N   0  0  0  0  0  2  0  0  0  0  0  0
  195.2180  176.4280  143.4570 N   0  0  0  0  0  2  0  0  0  0  0  0
  195.7640  173.6050  145.6680 N   0  0  0  0  0  2  0  0  0  0  0  0
  196.6940  171.4030  146.0230 C   0  0  0  0  0  1  0  0  0  0  0  0
  195.9560  172.3020  145.0560 C   0  0  2  0  0  3  0  0  0  0  0  0
  196.7410  172.4450  143.8330 N   0  0  0  0  0  2  0  0  0  0  0  0
  195.8210  172.8630  141.6220 N   0  0  0  0  0  0  0  0  0  0  0  0
  195.2060  172.2160  140.4630 C   0  0  0  0  0  2  0  0  0  0  0  0
  193.8370  171.6560  140.8270 C   0  0  1  0  0  3  0  0  0  0  0  0
  193.2170  171.0110  139.6070 C   0  0  0  0  0  1  0  0  0  0  0  0
  194.7040  171.2330  143.1240 C   0  0  0  0  0  2  0  0  0  0  0  0
  193.9990  170.6150  141.9240 C   0  0  0  0  0  2  0  0  0  0  0  0
  197.0460  173.2740  141.2090 O   0  0  0  0  0  1  0  0  0  0  0  0
  196.0290  171.8660  142.6840 C   0  0  2  0  0  3  0  0  0  0  0  0
  191.0850  172.7400  142.9100 C   0  0  0  0  0  2  0  0  0  0  0  0
  189.8690  173.6500  142.9240 C   0  0  2  0  0  3  0  0  0  0  0  0
  190.4650  173.1770  141.6070 C   0  0  2  0  0  3  0  0  0  0  0  0
  189.6240  172.0380  141.0660 C   0  0  0  0  0  2  0  0  0  0  0  0
  187.9630  172.6860  139.0470 O   0  0  0  0  0  0  0  0  0  0  0  0
  189.6040  170.9130  138.6180 O   0  0  0  0  0  0  0  0  0  0  0  0
  189.3700  172.2260  139.3120 S   0  0  0  0  0  0  0  0  0  0  0  0
  190.5130  173.4320  138.6850 C   0  0  0  0  0  1  0  0  0  0  0  0
  187.0700  177.9500  140.8720 C   0  0  0  0  0  2  0  0  0  0  0  0
  184.7800  177.7660  141.3780 O   0  0  0  0  0  0  0  0  0  0  0  0
  185.8710  178.1800  141.7340 C   0  0  0  0  0  0  0  0  0  0  0  0
  186.0180  178.8940  143.0420 C   0  0  0  0  0  2  0  0  0  0  0  0
  185.6370  177.9870  144.2040 C   0  0  0  0  0  2  0  0  0  0  0  0
  185.9920  179.0320  146.3160 O   0  0  0  0  0  1  0  0  0  0  0  0
  186.5840  178.1740  145.3850 C   0  0  1  0  0  3  0  0  0  0  0  0
  186.0500  176.6210  147.1300 O   0  0  0  0  0  1  0  0  0  0  0  0
  186.8970  176.8300  146.0340 C   0  0  2  0  0  3  0  0  0  0  0  0
  188.7440  175.6630  146.5770 O   0  0  0  0  0  0  0  0  0  0  0  0
  188.3240  176.8010  146.4920 C   0  0  0  0  0  2  0  0  0  0  0  0
  189.3820  175.7000  146.8180 C   0  0  0  0  0  2  0  0  0  0  0  0
  188.8110  174.5630  147.6050 O   0  0  0  0  0  1  0  0  0  0  0  0
  1 13  1  6  0  0  0
  2  9  1  0  0  0  0
  2 12  1  0  0  0  0
  3  5  1  0  0  0  0
  4  3  2  0  0  0  0
  4  6  1  0  0  0  0
  5  9  2  0  0  0  0
  6  2  2  0  0  0  0
  7  3  1  0  0  0  0
  8 10  2  0  0  0  0
  8  7  1  0  0  0  0
  9 11  1  0  0  0  0
 10  4  1  0  0  0  0
 11  1  1  0  0  0  0
 12  1  1  0  0  0  0
 13 14  1  0  0  0  0
 14 16  1  0  0  0  0
 15 13  2  0  0  0  0
 18 16  1  0  0  0  0
 18 17  1  1  0  0  0
 19 18  1  0  0  0  0
 20 27  1  0  0  0  0
 21 22  1  0  0  0  0
 21 20  1  0  0  0  0
 22 23  1  6  0  0  0
 22 25  1  0  0  0  0
 25 24  1  0  0  0  0
 26 20  1  0  0  0  0
 27 24  1  0  0  0  0
 27 19  1  1  0  0  0
 28 29  1  0  0  0  0
 29  6  1  6  0  0  0
 30 31  1  1  0  0  0
 30 28  1  0  0  0  0
 30 29  1  0  0  0  0
 32 34  2  0  0  0  0
 33 34  2  0  0  0  0
 34 31  1  0  0  0  0
 35 34  1  0  0  0  0
 36  8  1  0  0  0  0
 36 38  1  0  0  0  0
 37 38  2  0  0  0  0
 38 39  1  0  0  0  0
 39 40  1  0  0  0  0
 40 42  1  0  0  0  0
 42 44  1  0  0  0  0
 42 41  1  1  0  0  0
 44 46  1  0  0  0  0
 44 43  1  1  0  0  0
 45 47  1  0  0  0  0
 46 45  1  0  0  0  0
 47 48  1  0  0  0  0
M  END
>  <MODEL>
4

>  <REMARK>
 VINA RESULT:      -6.8      1.982      4.118
  Name = 
  16 active torsions:
  status: ('A' for Active; 'I' for Inactive)
    1  A    between atoms: C_3  and  C_24
    2  A    between atoms: C_10  and  C_19
    3  A    between atoms: C_10  and  C_46
    4  A    between atoms: C_13  and  C_34
    5  A    between atoms: C_14  and  C_43
    6  A    between atoms: C_18  and  C_34
    7  A    between atoms: C_18  and  C_44
    8  A    between atoms: S_22  and  C_28
    9  A    between atoms: C_28  and  C_47
   10  A    between atoms: N_29  and  N_30
   11  A    between atoms: N_29  and  C_33
   12  A    between atoms: C_33  and  N_45
   13  A    between atoms: C_36  and  C_37
   14  A    between atoms: C_36  and  C_46
   15  A    between atoms: C_37  and  C_44
   16  A    between atoms: C_42  and  N_45
                            x       y       z     vdW  Elec       q    Type
                         _______ _______ _______ _____ _____    ______ ____

>  <TORSDO>
F 16

$$$$
=
 OpenBabel11042414243D

 48 52  0  0  1  0  0  0  0  0999 V2000
  189.1300  176.2640  145.4310 C   0  0  1  0  0  3  0  0  0  0  0  0
  191.2740  174.9980  144.8350 C   0  0  0  0  0  0  0  0  0  0  0  0
  193.8040  175.3950  145.8570 C   0  0  0  0  0  0  0  0  0  0  0  0
  193.5600  174.3160  145.0520 C   0  0  0  0  0  0  0  0  0  0  0  0
  192.8210  176.3260  146.1850 C   0  0  0  0  0  3  0  0  0  0  0  0
  192.2960  174.0780  144.4870 C   0  0  0  0  0  0  0  0  0  0  0  0
  195.0540  175.3680  146.2310 O   0  0  0  0  0  0  0  0  0  0  0  0
  195.5680  174.2850  145.6710 C   0  0  0  0  0  0  0  0  0  0  0  0
  191.5400  176.0980  145.6550 C   0  0  0  0  0  0  0  0  0  0  0  0
  194.6820  173.5850  144.9170 N   0  0  0  0  0  0  0  0  0  0  0  0
  190.3860  176.9750  145.9390 C   0  0  0  0  0  2  0  0  0  0  0  0
  189.5690  174.8580  144.3350 S   0  0  0  0  0  0  0  0  0  0  0  0
  188.2730  175.8160  146.5760 C   0  0  0  0  0  0  0  0  0  0  0  0
  186.9100  176.2290  146.6550 N   0  0  0  0  0  2  0  0  0  0  0  0
  188.7950  175.1680  147.5650 N   0  0  0  0  0  2  0  0  0  0  0  0
  186.3210  176.9880  145.6360 N   0  0  0  0  0  2  0  0  0  0  0  0
  184.9800  178.4610  147.0050 C   0  0  0  0  0  1  0  0  0  0  0  0
  186.2080  178.3490  146.1280 C   0  0  2  0  0  3  0  0  0  0  0  0
  186.0820  179.2690  145.0010 N   0  0  0  0  0  2  0  0  0  0  0  0
  186.2650  178.8560  142.6120 N   0  0  0  0  0  0  0  0  0  0  0  0
  185.7030  178.0790  141.5070 C   0  0  0  0  0  2  0  0  0  0  0  0
  184.2660  178.5020  141.2320 C   0  0  1  0  0  3  0  0  0  0  0  0
  183.7180  177.6970  140.0730 C   0  0  0  0  0  1  0  0  0  0  0  0
  184.0200  178.9790  143.6640 C   0  0  0  0  0  2  0  0  0  0  0  0
  183.4240  178.2440  142.4710 C   0  0  0  0  0  2  0  0  0  0  0  0
  187.5150  178.3680  142.8090 O   0  0  0  0  0  1  0  0  0  0  0  0
  185.4930  178.5910  143.8360 C   0  0  2  0  0  3  0  0  0  0  0  0
  193.1500  172.6580  142.6240 C   0  0  0  0  0  2  0  0  0  0  0  0
  192.0290  172.8700  143.6260 C   0  0  2  0  0  3  0  0  0  0  0  0
  191.8540  173.2790  142.1720 C   0  0  2  0  0  3  0  0  0  0  0  0
  191.0340  172.2230  141.4570 C   0  0  0  0  0  2  0  0  0  0  0  0
  189.6040  171.8130  139.2110 O   0  0  0  0  0  0  0  0  0  0  0  0
  191.2710  173.6140  139.1610 O   0  0  0  0  0  0  0  0  0  0  0  0
  190.2500  172.9100  140.0120 S   0  0  0  0  0  0  0  0  0  0  0  0
  189.0110  174.0750  140.5220 C   0  0  0  0  0  1  0  0  0  0  0  0
  196.9890  173.8770  145.8410 C   0  0  0  0  0  2  0  0  0  0  0  0
  197.6090  173.8990  143.5720 O   0  0  0  0  0  0  0  0  0  0  0  0
  197.5080  173.2390  144.5930 C   0  0  0  0  0  0  0  0  0  0  0  0
  197.9250  171.8010  144.6080 C   0  0  0  0  0  2  0  0  0  0  0  0
  197.1140  171.0080  145.6250 C   0  0  0  0  0  2  0  0  0  0  0  0
  197.5180  168.9440  146.7450 O   0  0  0  0  0  1  0  0  0  0  0  0
  197.3550  169.5100  145.4770 C   0  0  1  0  0  3  0  0  0  0  0  0
  196.4970  168.6690  143.4030 O   0  0  0  0  0  1  0  0  0  0  0  0
  196.1830  168.8510  144.7560 C   0  0  2  0  0  3  0  0  0  0  0  0
  193.9490  169.0860  144.6140 O   0  0  0  0  0  0  0  0  0  0  0  0
  194.9600  169.7090  144.8750 C   0  0  0  0  0  2  0  0  0  0  0  0
  193.4260  169.5240  144.6510 C   0  0  0  0  0  2  0  0  0  0  0  0
  193.0770  168.1660  144.1290 O   0  0  0  0  0  1  0  0  0  0  0  0
  1 11  1  0  0  0  0
  1 13  1  1  0  0  0
  2  9  1  0  0  0  0
  3  5  1  0  0  0  0
  3  7  1  0  0  0  0
  4  3  2  0  0  0  0
  6  2  2  0  0  0  0
  6  4  1  0  0  0  0
  8 36  1  0  0  0  0
  8  7  1  0  0  0  0
  9 11  1  0  0  0  0
  9  5  2  0  0  0  0
 10  4  1  0  0  0  0
 10  8  2  0  0  0  0
 12  2  1  0  0  0  0
 12  1  1  0  0  0  0
 13 14  1  0  0  0  0
 13 15  2  0  0  0  0
 16 18  1  0  0  0  0
 16 14  1  0  0  0  0
 18 17  1  1  0  0  0
 19 18  1  0  0  0  0
 20 26  1  0  0  0  0
 20 27  1  0  0  0  0
 21 20  1  0  0  0  0
 22 23  1  6  0  0  0
 22 21  1  0  0  0  0
 22 25  1  0  0  0  0
 24 27  1  0  0  0  0
 25 24  1  0  0  0  0
 27 19  1  1  0  0  0
 28 29  1  0  0  0  0
 29  6  1  1  0  0  0
 30 31  1  6  0  0  0
 30 28  1  0  0  0  0
 30 29  1  0  0  0  0
 32 34  2  0  0  0  0
 33 34  2  0  0  0  0
 34 35  1  0  0  0  0
 34 31  1  0  0  0  0
 37 38  2  0  0  0  0
 38 39  1  0  0  0  0
 38 36  1  0  0  0  0
 39 40  1  0  0  0  0
 42 40  1  0  0  0  0
 42 41  1  1  0  0  0
 44 43  1  6  0  0  0
 44 46  1  0  0  0  0
 44 42  1  0  0  0  0
 45 47  1  0  0  0  0
 45 46  1  0  0  0  0
 48 47  1  0  0  0  0
M  END
>  <MODEL>
5

>  <REMARK>
 VINA RESULT:      -6.7      2.256     10.365
  Name = 
  16 active torsions:
  status: ('A' for Active; 'I' for Inactive)
    1  A    between atoms: C_3  and  C_24
    2  A    between atoms: C_10  and  C_19
    3  A    between atoms: C_10  and  C_46
    4  A    between atoms: C_13  and  C_34
    5  A    between atoms: C_14  and  C_43
    6  A    between atoms: C_18  and  C_34
    7  A    between atoms: C_18  and  C_44
    8  A    between atoms: S_22  and  C_28
    9  A    between atoms: C_28  and  C_47
   10  A    between atoms: N_29  and  N_30
   11  A    between atoms: N_29  and  C_33
   12  A    between atoms: C_33  and  N_45
   13  A    between atoms: C_36  and  C_37
   14  A    between atoms: C_36  and  C_46
   15  A    between atoms: C_37  and  C_44
   16  A    between atoms: C_42  and  N_45
                            x       y       z     vdW  Elec       q    Type
                         _______ _______ _______ _____ _____    ______ ____

>  <TORSDO>
F 16

$$$$
=
 OpenBabel11042414243D

 48 52  0  0  1  0  0  0  0  0999 V2000
  193.9290  175.9500  145.8730 C   0  0  1  0  0  3  0  0  0  0  0  0
  191.5430  176.7950  145.4860 C   0  0  0  0  0  0  0  0  0  0  0  0
  190.3960  177.5700  143.1020 C   0  0  0  0  0  0  0  0  0  0  0  0
  189.6170  177.4490  144.2200 C   0  0  0  0  0  0  0  0  0  0  0  0
  191.7680  177.3240  143.1090 C   0  0  0  0  0  3  0  0  0  0  0  0
  190.1540  177.0800  145.4650 C   0  0  0  0  0  0  0  0  0  0  0  0
  189.6410  177.9270  142.0990 O   0  0  0  0  0  0  0  0  0  0  0  0
  188.4170  178.0190  142.5920 C   0  0  0  0  0  0  0  0  0  0  0  0
  192.3260  176.9270  144.3360 C   0  0  0  0  0  0  0  0  0  0  0  0
  188.3370  177.7340  143.9180 N   0  0  0  0  0  0  0  0  0  0  0  0
  193.7570  176.5980  144.4970 C   0  0  0  0  0  2  0  0  0  0  0  0
  192.4380  176.2080  146.9120 S   0  0  0  0  0  0  0  0  0  0  0  0
  194.2530  174.4920  145.7360 C   0  0  0  0  0  0  0  0  0  0  0  0
  195.5340  174.0850  145.2600 N   0  0  0  0  0  2  0  0  0  0  0  0
  193.3350  173.6010  145.9200 N   0  0  0  0  0  2  0  0  0  0  0  0
  196.5390  175.0220  144.9850 N   0  0  0  0  0  2  0  0  0  0  0  0
  197.8160  175.8800  143.1210 C   0  0  0  0  0  1  0  0  0  0  0  0
  197.1100  174.6720  143.6980 C   0  0  2  0  0  3  0  0  0  0  0  0
  196.0470  174.2530  142.7870 N   0  0  0  0  0  2  0  0  0  0  0  0
  195.3190  174.9500  140.5750 N   0  0  0  0  0  0  0  0  0  0  0  0
  195.7890  175.2440  139.2210 C   0  0  0  0  0  2  0  0  0  0  0  0
  196.3140  173.9810  138.5510 C   0  0  1  0  0  3  0  0  0  0  0  0
  196.7750  174.3110  137.1480 C   0  0  0  0  0  1  0  0  0  0  0  0
  197.0550  173.1890  140.7940 C   0  0  0  0  0  2  0  0  0  0  0  0
  197.4860  173.4400  139.3550 C   0  0  0  0  0  2  0  0  0  0  0  0
  194.9280  176.1390  141.0970 O   0  0  0  0  0  1  0  0  0  0  0  0
  196.4460  174.4640  141.3870 C   0  0  2  0  0  3  0  0  0  0  0  0
  188.8870  175.4680  146.8840 C   0  0  0  0  0  2  0  0  0  0  0  0
  189.2840  176.9210  146.6860 C   0  0  2  0  0  3  0  0  0  0  0  0
  187.8960  176.4380  146.2930 C   0  0  2  0  0  3  0  0  0  0  0  0
  186.9100  176.8400  147.3720 C   0  0  0  0  0  2  0  0  0  0  0  0
  186.3310  179.3470  146.5740 O   0  0  0  0  0  0  0  0  0  0  0  0
  184.5340  178.0780  147.6600 O   0  0  0  0  0  0  0  0  0  0  0  0
  185.7090  177.9870  146.7260 S   0  0  0  0  0  0  0  0  0  0  0  0
  185.1520  177.4130  145.1400 C   0  0  0  0  0  1  0  0  0  0  0  0
  187.2360  178.4100  141.7740 C   0  0  0  0  0  2  0  0  0  0  0  0
  186.2050  177.4950  139.8680 O   0  0  0  0  0  0  0  0  0  0  0  0
  186.7880  177.2710  140.9170 C   0  0  0  0  0  0  0  0  0  0  0  0
  187.0790  175.8620  141.3330 C   0  0  0  0  0  2  0  0  0  0  0  0
  188.0520  175.1990  140.3680 C   0  0  0  0  0  2  0  0  0  0  0  0
  188.2000  172.8580  139.9430 O   0  0  0  0  0  1  0  0  0  0  0  0
  188.5070  173.8400  140.8900 C   0  0  1  0  0  3  0  0  0  0  0  0
  190.6870  173.1880  140.1370 O   0  0  0  0  0  1  0  0  0  0  0  0
  190.0080  173.8510  141.1660 C   0  0  2  0  0  3  0  0  0  0  0  0
  190.2670  173.9620  143.3990 O   0  0  0  0  0  0  0  0  0  0  0  0
  190.2940  173.1750  142.4730 C   0  0  0  0  0  2  0  0  0  0  0  0
  190.4330  173.6160  143.9640 C   0  0  0  0  0  2  0  0  0  0  0  0
  189.7210  172.6990  144.9080 O   0  0  0  0  0  1  0  0  0  0  0  0
  1 13  1  6  0  0  0
  1 12  1  0  0  0  0
  2 12  1  0  0  0  0
  3  5  2  0  0  0  0
  3  4  1  0  0  0  0
  4  6  2  0  0  0  0
  5  9  1  0  0  0  0
  6  2  1  0  0  0  0
  7  8  1  0  0  0  0
  7  3  1  0  0  0  0
  8 10  2  0  0  0  0
  9 11  1  0  0  0  0
  9  2  2  0  0  0  0
 10  4  1  0  0  0  0
 11  1  1  0  0  0  0
 13 15  2  0  0  0  0
 14 13  1  0  0  0  0
 16 14  1  0  0  0  0
 18 17  1  6  0  0  0
 18 16  1  0  0  0  0
 19 18  1  0  0  0  0
 20 26  1  0  0  0  0
 20 27  1  0  0  0  0
 21 20  1  0  0  0  0
 22 23  1  6  0  0  0
 22 21  1  0  0  0  0
 22 25  1  0  0  0  0
 24 27  1  0  0  0  0
 25 24  1  0  0  0  0
 27 19  1  1  0  0  0
 29  6  1  6  0  0  0
 29 28  1  0  0  0  0
 30 29  1  0  0  0  0
 30 28  1  0  0  0  0
 30 31  1  1  0  0  0
 32 34  2  0  0  0  0
 34 31  1  0  0  0  0
 34 33  2  0  0  0  0
 35 34  1  0  0  0  0
 36  8  1  0  0  0  0
 37 38  2  0  0  0  0
 38 39  1  0  0  0  0
 38 36  1  0  0  0  0
 40 42  1  0  0  0  0
 40 39  1  0  0  0  0
 42 41  1  6  0  0  0
 42 44  1  0  0  0  0
 44 43  1  6  0  0  0
 44 46  1  0  0  0  0
 45 47  1  0  0  0  0
 46 45  1  0  0  0  0
 47 48  1  0  0  0  0
M  END
>  <MODEL>
6

>  <REMARK>
 VINA RESULT:      -6.6      2.987      6.091
  Name = 
  16 active torsions:
  status: ('A' for Active; 'I' for Inactive)
    1  A    between atoms: C_3  and  C_24
    2  A    between atoms: C_10  and  C_19
    3  A    between atoms: C_10  and  C_46
    4  A    between atoms: C_13  and  C_34
    5  A    between atoms: C_14  and  C_43
    6  A    between atoms: C_18  and  C_34
    7  A    between atoms: C_18  and  C_44
    8  A    between atoms: S_22  and  C_28
    9  A    between atoms: C_28  and  C_47
   10  A    between atoms: N_29  and  N_30
   11  A    between atoms: N_29  and  C_33
   12  A    between atoms: C_33  and  N_45
   13  A    between atoms: C_36  and  C_37
   14  A    between atoms: C_36  and  C_46
   15  A    between atoms: C_37  and  C_44
   16  A    between atoms: C_42  and  N_45
                            x       y       z     vdW  Elec       q    Type
                         _______ _______ _______ _____ _____    ______ ____

>  <TORSDO>
F 16

$$$$
=
 OpenBabel11042414243D

 48 52  0  0  1  0  0  0  0  0999 V2000
  189.1260  176.5230  145.1300 C   0  0  1  0  0  3  0  0  0  0  0  0
  191.1730  175.3620  144.1190 C   0  0  0  0  0  0  0  0  0  0  0  0
  193.8300  175.9700  144.5350 C   0  0  0  0  0  0  0  0  0  0  0  0
  193.4940  174.8360  143.8460 C   0  0  0  0  0  0  0  0  0  0  0  0
  192.8790  176.8540  145.0390 C   0  0  0  0  0  3  0  0  0  0  0  0
  192.1570  174.4910  143.5860 C   0  0  0  0  0  0  0  0  0  0  0  0
  195.1310  176.0400  144.6220 O   0  0  0  0  0  0  0  0  0  0  0  0
  195.5860  174.9630  144.0020 C   0  0  0  0  0  0  0  0  0  0  0  0
  191.5320  176.5190  144.8170 C   0  0  0  0  0  0  0  0  0  0  0  0
  194.6090  174.1710  143.4910 N   0  0  0  0  0  0  0  0  0  0  0  0
  190.4090  177.3360  145.3190 C   0  0  0  0  0  2  0  0  0  0  0  0
  189.4140  175.0910  144.0180 S   0  0  0  0  0  0  0  0  0  0  0  0
  188.5780  176.0830  146.4540 C   0  0  0  0  0  0  0  0  0  0  0  0
  187.6750  176.9240  147.1700 N   0  0  0  0  0  2  0  0  0  0  0  0
  189.0200  175.0070  147.0170 N   0  0  0  0  0  2  0  0  0  0  0  0
  187.2200  178.1320  146.6250 N   0  0  0  0  0  2  0  0  0  0  0  0
  185.5090  177.2230  148.0690 C   0  0  0  0  0  1  0  0  0  0  0  0
  185.8750  178.3470  147.1250 C   0  0  2  0  0  3  0  0  0  0  0  0
  184.9340  178.3660  146.0090 N   0  0  0  0  0  2  0  0  0  0  0  0
  185.2300  179.2020  143.7450 N   0  0  0  0  0  0  0  0  0  0  0  0
  186.0300  179.0470  142.5300 C   0  0  0  0  0  2  0  0  0  0  0  0
  185.7840  177.6840  141.8970 C   0  0  1  0  0  3  0  0  0  0  0  0
  186.6080  177.5600  140.6340 C   0  0  0  0  0  1  0  0  0  0  0  0
  185.4330  176.7680  144.1870 C   0  0  0  0  0  2  0  0  0  0  0  0
  186.1930  176.5970  142.8790 C   0  0  0  0  0  2  0  0  0  0  0  0
  185.5610  180.4140  144.2550 O   0  0  0  0  0  1  0  0  0  0  0  0
  185.6370  178.1870  144.7290 C   0  0  2  0  0  3  0  0  0  0  0  0
  192.6370  173.0650  141.5980 C   0  0  0  0  0  2  0  0  0  0  0  0
  191.7950  173.2250  142.8520 C   0  0  2  0  0  3  0  0  0  0  0  0
  191.2140  173.5490  141.4850 C   0  0  2  0  0  3  0  0  0  0  0  0
  190.3440  172.3930  141.0320 C   0  0  0  0  0  2  0  0  0  0  0  0
  187.7910  172.6210  141.8610 O   0  0  0  0  0  0  0  0  0  0  0  0
  188.1590  172.2800  139.4590 O   0  0  0  0  0  0  0  0  0  0  0  0
  188.6850  172.9510  140.6980 S   0  0  0  0  0  0  0  0  0  0  0  0
  188.7030  174.7090  140.4490 C   0  0  0  0  0  1  0  0  0  0  0  0
  197.0350  174.6540  143.8650 C   0  0  0  0  0  2  0  0  0  0  0  0
  197.5880  176.1550  142.1400 O   0  0  0  0  0  0  0  0  0  0  0  0
  197.5190  174.9880  142.4920 C   0  0  0  0  0  0  0  0  0  0  0  0
  197.9400  173.8930  141.5610 C   0  0  0  0  0  2  0  0  0  0  0  0
  197.8710  174.3530  140.1110 C   0  0  0  0  0  2  0  0  0  0  0  0
  195.6850  175.1280  139.5660 O   0  0  0  0  0  1  0  0  0  0  0  0
  196.5230  174.0120  139.4870 C   0  0  1  0  0  3  0  0  0  0  0  0
  197.7620  172.6840  137.9230 O   0  0  0  0  0  1  0  0  0  0  0  0
  196.7020  173.5920  138.0310 C   0  0  2  0  0  3  0  0  0  0  0  0
  196.1430  174.9360  136.3140 O   0  0  0  0  0  0  0  0  0  0  0  0
  196.9830  174.7940  137.1810 C   0  0  0  0  0  2  0  0  0  0  0  0
  196.3300  175.4740  135.9360 C   0  0  0  0  0  2  0  0  0  0  0  0
  196.9310  176.8080  135.6230 O   0  0  0  0  0  1  0  0  0  0  0  0
  1 11  1  0  0  0  0
  1 13  1  1  0  0  0
  2  9  1  0  0  0  0
  3  7  1  0  0  0  0
  3  5  1  0  0  0  0
  4  3  2  0  0  0  0
  6  4  1  0  0  0  0
  6  2  2  0  0  0  0
  8  7  1  0  0  0  0
  9  5  2  0  0  0  0
  9 11  1  0  0  0  0
 10  4  1  0  0  0  0
 10  8  2  0  0  0  0
 12  2  1  0  0  0  0
 12  1  1  0  0  0  0
 13 15  2  0  0  0  0
 13 14  1  0  0  0  0
 16 18  1  0  0  0  0
 16 14  1  0  0  0  0
 18 17  1  1  0  0  0
 19 18  1  0  0  0  0
 20 26  1  0  0  0  0
 20 27  1  0  0  0  0
 21 20  1  0  0  0  0
 22 23  1  6  0  0  0
 22 21  1  0  0  0  0
 22 25  1  0  0  0  0
 24 27  1  0  0  0  0
 25 24  1  0  0  0  0
 27 19  1  1  0  0  0
 28 29  1  0  0  0  0
 29  6  1  1  0  0  0
 30 31  1  6  0  0  0
 30 28  1  0  0  0  0
 30 29  1  0  0  0  0
 33 34  2  0  0  0  0
 34 31  1  0  0  0  0
 34 32  2  0  0  0  0
 35 34  1  0  0  0  0
 36  8  1  0  0  0  0
 37 38  2  0  0  0  0
 38 36  1  0  0  0  0
 39 38  1  0  0  0  0
 40 39  1  0  0  0  0
 42 41  1  6  0  0  0
 42 40  1  0  0  0  0
 44 43  1  1  0  0  0
 44 42  1  0  0  0  0
 45 46  1  0  0  0  0
 46 44  1  0  0  0  0
 47 45  1  0  0  0  0
 48 47  1  0  0  0  0
M  END
>  <MODEL>
7

>  <REMARK>
 VINA RESULT:      -6.5      3.497      9.998
  Name = 
  16 active torsions:
  status: ('A' for Active; 'I' for Inactive)
    1  A    between atoms: C_3  and  C_24
    2  A    between atoms: C_10  and  C_19
    3  A    between atoms: C_10  and  C_46
    4  A    between atoms: C_13  and  C_34
    5  A    between atoms: C_14  and  C_43
    6  A    between atoms: C_18  and  C_34
    7  A    between atoms: C_18  and  C_44
    8  A    between atoms: S_22  and  C_28
    9  A    between atoms: C_28  and  C_47
   10  A    between atoms: N_29  and  N_30
   11  A    between atoms: N_29  and  C_33
   12  A    between atoms: C_33  and  N_45
   13  A    between atoms: C_36  and  C_37
   14  A    between atoms: C_36  and  C_46
   15  A    between atoms: C_37  and  C_44
   16  A    between atoms: C_42  and  N_45
                            x       y       z     vdW  Elec       q    Type
                         _______ _______ _______ _____ _____    ______ ____

>  <TORSDO>
F 16

$$$$
=
 OpenBabel11042414243D

 48 52  0  0  1  0  0  0  0  0999 V2000
  190.1420  177.1460  146.1880 C   0  0  1  0  0  3  0  0  0  0  0  0
  192.1290  176.2860  144.8210 C   0  0  0  0  0  0  0  0  0  0  0  0
  194.4720  175.1810  145.7650 C   0  0  0  0  0  0  0  0  0  0  0  0
  194.2040  175.1570  144.4240 C   0  0  0  0  0  0  0  0  0  0  0  0
  193.6070  175.7550  146.6950 C   0  0  0  0  0  3  0  0  0  0  0  0
  193.0370  175.7240  143.8860 C   0  0  0  0  0  0  0  0  0  0  0  0
  195.6170  174.5910  145.9780 O   0  0  0  0  0  0  0  0  0  0  0  0
  196.0430  174.2050  144.7860 C   0  0  0  0  0  0  0  0  0  0  0  0
  192.4190  176.3070  146.1880 C   0  0  0  0  0  0  0  0  0  0  0  0
  195.2020  174.5330  143.7710 N   0  0  0  0  0  0  0  0  0  0  0  0
  191.3870  176.9200  147.0490 C   0  0  0  0  0  2  0  0  0  0  0  0
  190.5370  176.9710  144.4030 S   0  0  0  0  0  0  0  0  0  0  0  0
  189.0390  176.2180  146.5960 C   0  0  0  0  0  0  0  0  0  0  0  0
  187.6810  176.6510  146.5390 N   0  0  0  0  0  2  0  0  0  0  0  0
  189.3140  175.0720  147.1270 N   0  0  0  0  0  2  0  0  0  0  0  0
  187.3410  177.9120  146.0310 N   0  0  0  0  0  2  0  0  0  0  0  0
  184.9700  177.9920  146.4900 C   0  0  0  0  0  1  0  0  0  0  0  0
  186.0270  177.7900  145.4270 C   0  0  2  0  0  3  0  0  0  0  0  0
  185.8770  176.4590  144.8440 N   0  0  0  0  0  2  0  0  0  0  0  0
  187.2640  176.3530  142.8500 N   0  0  0  0  0  0  0  0  0  0  0  0
  187.2210  176.3210  141.3890 C   0  0  0  0  0  2  0  0  0  0  0  0
  186.6930  177.6400  140.8410 C   0  0  1  0  0  3  0  0  0  0  0  0
  186.6770  177.5870  139.3290 C   0  0  0  0  0  1  0  0  0  0  0  0
  185.2700  177.8310  142.8770 C   0  0  0  0  0  2  0  0  0  0  0  0
  185.2790  177.8650  141.3540 C   0  0  0  0  0  2  0  0  0  0  0  0
  187.6910  175.1240  143.2340 O   0  0  0  0  0  1  0  0  0  0  0  0
  185.9000  176.5260  143.3750 C   0  0  2  0  0  3  0  0  0  0  0  0
  191.2520  175.4470  142.1670 C   0  0  0  0  0  2  0  0  0  0  0  0
  192.7350  175.6670  142.4100 C   0  0  2  0  0  3  0  0  0  0  0  0
  192.2100  174.2920  142.0260 C   0  0  2  0  0  3  0  0  0  0  0  0
  192.4730  174.0580  140.5520 C   0  0  0  0  0  2  0  0  0  0  0  0
  190.1270  173.7570  139.2630 O   0  0  0  0  0  0  0  0  0  0  0  0
  190.7030  172.0630  140.9420 O   0  0  0  0  0  0  0  0  0  0  0  0
  191.2500  172.9590  139.8650 S   0  0  0  0  0  0  0  0  0  0  0  0
  192.0070  171.9630  138.6040 C   0  0  0  0  0  1  0  0  0  0  0  0
  197.3290  173.4870  144.5740 C   0  0  0  0  0  2  0  0  0  0  0  0
  197.1490  171.4720  143.3750 O   0  0  0  0  0  0  0  0  0  0  0  0
  197.1010  172.0150  144.4670 C   0  0  0  0  0  0  0  0  0  0  0  0
  196.8400  171.2070  145.7010 C   0  0  0  0  0  2  0  0  0  0  0  0
  197.3250  169.7740  145.5270 C   0  0  0  0  0  2  0  0  0  0  0  0
  197.0700  168.8770  147.7210 O   0  0  0  0  0  1  0  0  0  0  0  0
  196.5480  168.8160  146.4250 C   0  0  1  0  0  3  0  0  0  0  0  0
  194.5530  169.0420  147.7330 O   0  0  0  0  0  1  0  0  0  0  0  0
  195.0670  169.1820  146.4380 C   0  0  2  0  0  3  0  0  0  0  0  0
  194.1170  168.8310  144.4280 O   0  0  0  0  0  0  0  0  0  0  0  0
  194.3110  168.2900  145.5000 C   0  0  0  0  0  2  0  0  0  0  0  0
  193.7440  168.4020  144.0490 C   0  0  0  0  0  2  0  0  0  0  0  0
  192.8350  169.5770  143.8710 O   0  0  0  0  0  1  0  0  0  0  0  0
  1 13  1  1  0  0  0
  1 11  1  0  0  0  0
  2  9  1  0  0  0  0
  3  7  1  0  0  0  0
  3  5  1  0  0  0  0
  4  3  2  0  0  0  0
  6  4  1  0  0  0  0
  6  2  2  0  0  0  0
  8  7  1  0  0  0  0
  9  5  2  0  0  0  0
  9 11  1  0  0  0  0
 10  4  1  0  0  0  0
 10  8  2  0  0  0  0
 12  2  1  0  0  0  0
 12  1  1  0  0  0  0
 13 15  2  0  0  0  0
 14 13  1  0  0  0  0
 16 14  1  0  0  0  0
 18 16  1  0  0  0  0
 18 17  1  1  0  0  0
 19 18  1  0  0  0  0
 20 26  1  0  0  0  0
 20 27  1  0  0  0  0
 21 20  1  0  0  0  0
 22 23  1  6  0  0  0
 22 25  1  0  0  0  0
 22 21  1  0  0  0  0
 24 27  1  0  0  0  0
 25 24  1  0  0  0  0
 27 19  1  1  0  0  0
 28 29  1  0  0  0  0
 29  6  1  1  0  0  0
 30 31  1  6  0  0  0
 30 28  1  0  0  0  0
 30 29  1  0  0  0  0
 32 34  2  0  0  0  0
 34 31  1  0  0  0  0
 34 33  2  0  0  0  0
 35 34  1  0  0  0  0
 36  8  1  0  0  0  0
 37 38  2  0  0  0  0
 38 36  1  0  0  0  0
 38 39  1  0  0  0  0
 40 39  1  0  0  0  0
 40 42  1  0  0  0  0
 42 44  1  0  0  0  0
 42 41  1  1  0  0  0
 44 43  1  1  0  0  0
 45 46  1  0  0  0  0
 46 44  1  0  0  0  0
 47 45  1  0  0  0  0
 48 47  1  0  0  0  0
M  END
>  <MODEL>
8

>  <REMARK>
 VINA RESULT:      -6.5      2.601      9.980
  Name = 
  16 active torsions:
  status: ('A' for Active; 'I' for Inactive)
    1  A    between atoms: C_3  and  C_24
    2  A    between atoms: C_10  and  C_19
    3  A    between atoms: C_10  and  C_46
    4  A    between atoms: C_13  and  C_34
    5  A    between atoms: C_14  and  C_43
    6  A    between atoms: C_18  and  C_34
    7  A    between atoms: C_18  and  C_44
    8  A    between atoms: S_22  and  C_28
    9  A    between atoms: C_28  and  C_47
   10  A    between atoms: N_29  and  N_30
   11  A    between atoms: N_29  and  C_33
   12  A    between atoms: C_33  and  N_45
   13  A    between atoms: C_36  and  C_37
   14  A    between atoms: C_36  and  C_46
   15  A    between atoms: C_37  and  C_44
   16  A    between atoms: C_42  and  N_45
                            x       y       z     vdW  Elec       q    Type
                         _______ _______ _______ _____ _____    ______ ____

>  <TORSDO>
F 16

$$$$
=
 OpenBabel11042414243D

 48 52  0  0  1  0  0  0  0  0999 V2000
  194.0190  174.5370  144.0350 C   0  0  1  0  0  3  0  0  0  0  0  0
  191.4740  174.7830  144.1590 C   0  0  0  0  0  0  0  0  0  0  0  0
  189.9620  175.5720  146.3260 C   0  0  0  0  0  0  0  0  0  0  0  0
  189.3680  175.4300  145.1020 C   0  0  0  0  0  0  0  0  0  0  0  0
  191.3160  175.3250  146.5390 C   0  0  0  0  0  3  0  0  0  0  0  0
  190.0860  175.0090  143.9700 C   0  0  0  0  0  0  0  0  0  0  0  0
  189.0630  175.9660  147.1870 O   0  0  0  0  0  0  0  0  0  0  0  0
  187.9370  176.0700  146.5010 C   0  0  0  0  0  0  0  0  0  0  0  0
  192.0650  174.9290  145.4180 C   0  0  0  0  0  0  0  0  0  0  0  0
  188.0620  175.7450  145.1880 N   0  0  0  0  0  0  0  0  0  0  0  0
  193.5160  174.6640  145.4750 C   0  0  0  0  0  2  0  0  0  0  0  0
  192.6180  174.3470  142.8640 S   0  0  0  0  0  0  0  0  0  0  0  0
  194.8810  175.7070  143.6680 C   0  0  0  0  0  0  0  0  0  0  0  0
  195.6600  175.6760  142.4730 N   0  0  0  0  0  2  0  0  0  0  0  0
  195.0290  176.6910  144.4930 N   0  0  0  0  0  2  0  0  0  0  0  0
  195.5800  174.5980  141.5820 N   0  0  0  0  0  2  0  0  0  0  0  0
  197.7780  174.5260  140.5810 C   0  0  0  0  0  1  0  0  0  0  0  0
  196.8610  173.9170  141.6190 C   0  0  2  0  0  3  0  0  0  0  0  0
  196.6710  172.4990  141.3230 N   0  0  0  0  0  2  0  0  0  0  0  0
  195.4470  171.2420  143.0060 N   0  0  0  0  0  0  0  0  0  0  0  0
  195.6080  170.3600  144.1620 C   0  0  0  0  0  2  0  0  0  0  0  0
  196.2540  171.1080  145.3200 C   0  0  1  0  0  3  0  0  0  0  0  0
  196.3900  170.1770  146.5060 C   0  0  0  0  0  1  0  0  0  0  0  0
  197.5150  172.4570  143.6480 C   0  0  0  0  0  2  0  0  0  0  0  0
  197.6320  171.5920  144.8960 C   0  0  0  0  0  2  0  0  0  0  0  0
  194.9200  170.4720  142.0230 O   0  0  0  0  0  1  0  0  0  0  0  0
  196.7710  171.6920  142.5480 C   0  0  2  0  0  3  0  0  0  0  0  0
  188.6190  173.6030  142.5250 C   0  0  0  0  0  2  0  0  0  0  0  0
  189.4300  174.8840  142.6180 C   0  0  2  0  0  3  0  0  0  0  0  0
  189.9750  173.6770  141.8710 C   0  0  2  0  0  3  0  0  0  0  0  0
  189.7840  173.8900  140.3820 C   0  0  0  0  0  2  0  0  0  0  0  0
  192.1610  173.0280  139.4550 O   0  0  0  0  0  0  0  0  0  0  0  0
  190.1990  172.6330  138.0350 O   0  0  0  0  0  0  0  0  0  0  0  0
  190.6990  172.6770  139.4520 S   0  0  0  0  0  0  0  0  0  0  0  0
  190.4750  171.0810  140.2000 C   0  0  0  0  0  1  0  0  0  0  0  0
  186.6470  176.4930  147.1120 C   0  0  0  0  0  2  0  0  0  0  0  0
  187.4610  178.5740  147.8480 O   0  0  0  0  0  0  0  0  0  0  0  0
  186.5860  177.9810  147.2380 C   0  0  0  0  0  0  0  0  0  0  0  0
  185.4670  178.7400  146.5940 C   0  0  0  0  0  2  0  0  0  0  0  0
  185.8830  179.2710  145.2290 C   0  0  0  0  0  2  0  0  0  0  0  0
  184.0620  178.3000  144.0360 O   0  0  0  0  0  1  0  0  0  0  0  0
  185.4580  178.3210  144.1140 C   0  0  1  0  0  3  0  0  0  0  0  0
  185.0950  178.6390  141.7660 O   0  0  0  0  0  1  0  0  0  0  0  0
  186.0520  178.7660  142.7810 C   0  0  2  0  0  3  0  0  0  0  0  0
  188.0710  178.5590  141.8100 O   0  0  0  0  0  0  0  0  0  0  0  0
  187.2490  177.9300  142.4470 C   0  0  0  0  0  2  0  0  0  0  0  0
  188.5800  178.1300  141.6550 C   0  0  0  0  0  2  0  0  0  0  0  0
  189.7700  178.2820  142.5500 O   0  0  0  0  0  1  0  0  0  0  0  0
  1 13  1  6  0  0  0
  1 11  1  0  0  0  0
  2  9  1  0  0  0  0
  3  5  1  0  0  0  0
  3  7  1  0  0  0  0
  4 10  1  0  0  0  0
  4  3  2  0  0  0  0
  6  2  2  0  0  0  0
  6  4  1  0  0  0  0
  8 36  1  0  0  0  0
  8  7  1  0  0  0  0
  9 11  1  0  0  0  0
  9  5  2  0  0  0  0
 10  8  2  0  0  0  0
 12  1  1  0  0  0  0
 12  2  1  0  0  0  0
 13 15  2  0  0  0  0
 14 13  1  0  0  0  0
 16 18  1  0  0  0  0
 16 14  1  0  0  0  0
 18 17  1  6  0  0  0
 19 18  1  0  0  0  0
 20 21  1  0  0  0  0
 21 22  1  0  0  0  0
 22 23  1  1  0  0  0
 24 25  1  0  0  0  0
 25 22  1  0  0  0  0
 26 20  1  0  0  0  0
 27 19  1  6  0  0  0
 27 20  1  0  0  0  0
 27 24  1  0  0  0  0
 28 29  1  0  0  0  0
 29  6  1  1  0  0  0
 30 31  1  6  0  0  0
 30 28  1  0  0  0  0
 30 29  1  0  0  0  0
 33 34  2  0  0  0  0
 34 32  2  0  0  0  0
 34 35  1  0  0  0  0
 34 31  1  0  0  0  0
 36 38  1  0  0  0  0
 38 37  2  0  0  0  0
 39 38  1  0  0  0  0
 40 39  1  0  0  0  0
 42 41  1  6  0  0  0
 42 40  1  0  0  0  0
 44 43  1  6  0  0  0
 44 42  1  0  0  0  0
 45 46  1  0  0  0  0
 46 44  1  0  0  0  0
 47 45  1  0  0  0  0
 47 48  1  0  0  0  0
M  END
>  <MODEL>
9

>  <REMARK>
 VINA RESULT:      -6.3      1.900      2.804
  Name = 
  16 active torsions:
  status: ('A' for Active; 'I' for Inactive)
    1  A    between atoms: C_3  and  C_24
    2  A    between atoms: C_10  and  C_19
    3  A    between atoms: C_10  and  C_46
    4  A    between atoms: C_13  and  C_34
    5  A    between atoms: C_14  and  C_43
    6  A    between atoms: C_18  and  C_34
    7  A    between atoms: C_18  and  C_44
    8  A    between atoms: S_22  and  C_28
    9  A    between atoms: C_28  and  C_47
   10  A    between atoms: N_29  and  N_30
   11  A    between atoms: N_29  and  C_33
   12  A    between atoms: C_33  and  N_45
   13  A    between atoms: C_36  and  C_37
   14  A    between atoms: C_36  and  C_46
   15  A    between atoms: C_37  and  C_44
   16  A    between atoms: C_42  and  N_45
                            x       y       z     vdW  Elec       q    Type
                         _______ _______ _______ _____ _____    ______ ____

>  <TORSDO>
F 16

$$$$
