=
 OpenBabel11042419453D

 50 53  0  0  1  0  0  0  0  0999 V2000
  191.5900  174.9770  143.7840 C   0  0  1  0  0  3  0  0  0  0  0  0
  192.2860  174.1070  141.6430 O   0  0  0  0  0  1  0  0  0  0  0  0
  192.1570  175.1830  142.5280 C   0  0  1  0  0  0  0  0  0  0  0  0
  190.7290  175.5700  142.6970 N   0  0  0  0  0  0  0  0  0  0  0  0
  187.3230  176.0430  141.2430 C   0  0  0  0  0  3  0  0  0  0  0  0
  189.3290  177.5560  142.4640 C   0  0  0  0  0  3  0  0  0  0  0  0
  189.5510  176.2000  142.2030 C   0  0  0  0  0  0  0  0  0  0  0  0
  187.1120  177.4110  141.4860 C   0  0  0  0  0  0  0  0  0  0  0  0
  188.1230  178.1610  142.0960 C   0  0  0  0  0  3  0  0  0  0  0  0
  188.5480  175.4320  141.5830 C   0  0  0  0  0  0  0  0  0  0  0  0
  188.7310  174.0130  141.4550 N   0  0  0  0  0  0  0  0  0  0  0  0
  188.0500  172.6290  139.4740 O   0  0  0  0  0  0  0  0  0  0  0  0
  188.3820  173.3210  140.4420 C   0  0  0  0  0  0  0  0  0  0  0  0
  185.8850  178.0140  141.1910 O   0  0  0  0  0  0  0  0  0  0  0  0
  184.7430  177.7950  142.0080 C   0  0  0  0  0  2  0  0  0  0  0  0
  185.3660  180.6880  144.3640 O   0  0  0  0  0  0  0  0  0  0  0  0
  184.9630  178.3450  143.3340 N   0  0  0  0  0  0  0  0  0  0  0  0
  185.0990  178.1350  144.7180 N   0  0  0  0  0  0  0  0  0  0  0  0
  185.2070  179.4480  144.1910 C   0  0  0  0  0  0  0  0  0  0  0  0
  185.0070  177.2410  145.8250 C   0  0  0  0  0  3  0  0  0  0  0  0
  186.0800  177.0060  146.5880 C   0  0  0  0  0  3  0  0  0  0  0  0
  187.4370  177.5220  146.1880 C   0  0  0  0  0  2  0  0  0  0  0  0
  188.4260  176.3740  145.9550 C   0  0  0  0  0  3  0  0  0  0  0  0
  189.7280  176.8750  145.9350 O   0  0  0  0  0  1  0  0  0  0  0  0
  188.3130  175.3930  146.9520 O   0  0  0  0  0  1  0  0  0  0  0  0
  191.2250  173.5120  144.0390 C   0  0  2  0  0  3  0  0  0  0  0  0
  189.9650  173.3930  144.6190 O   0  0  0  0  0  1  0  0  0  0  0  0
  192.2630  172.8510  144.9370 C   0  0  0  0  0  2  0  0  0  0  0  0
  193.1370  171.8320  144.1930 C   0  0  1  0  0  3  0  0  0  0  0  0
  194.2820  171.4250  145.0030 N   0  0  0  0  0  1  0  0  0  0  0  0
  192.7420  169.4470  144.3480 O   0  0  0  0  0  1  0  0  0  0  0  0
  192.3240  170.6240  143.7160 C   0  0  2  0  0  3  0  0  0  0  0  0
  192.3820  170.4650  142.1910 C   0  0  2  0  0  3  0  0  0  0  0  0
  190.0270  170.8270  142.2540 O   0  0  0  0  0  1  0  0  0  0  0  0
  190.7800  169.6220  140.4620 O   0  0  0  0  0  0  0  0  0  0  0  0
  191.0010  170.3220  141.6380 C   0  0  0  0  0  0  0  0  0  0  0  0
  194.2660  169.8670  141.1590 C   0  0  0  0  0  1  0  0  0  0  0  0
  193.1570  169.3480  141.8400 O   0  0  0  0  0  0  0  0  0  0  0  0
  193.0880  176.3750  142.2910 C   0  0  0  0  0  2  0  0  0  0  0  0
  194.7520  175.9250  141.6650 S   0  0  0  0  0  0  0  0  0  0  0  0
  196.6080  173.8880  144.7000 C   0  0  0  0  0  0  0  0  0  0  0  0
  194.6900  176.0410  146.7080 O   0  0  0  0  0  0  0  0  0  0  0  0
  196.0790  174.5010  145.7910 N   0  0  0  0  0  0  0  0  0  0  0  0
  197.5630  172.8430  144.8770 N   0  0  0  0  0  1  0  0  0  0  0  0
  196.2180  174.2840  143.4080 C   0  0  2  0  0  3  0  0  0  0  0  0
  195.2870  175.3320  143.2740 C   0  0  0  0  0  0  0  0  0  0  0  0
  194.7680  175.9460  144.4120 C   0  0  0  0  0  3  0  0  0  0  0  0
  195.1720  175.5100  145.6760 C   0  0  0  0  0  0  0  0  0  0  0  0
  197.9380  174.1490  141.7300 N   0  0  0  0  0  1  0  0  0  0  0  0
  196.7100  173.5340  142.2050 C   0  0  0  0  0  2  0  0  0  0  0  0
  1 26  1  6  0  0  0
  3  2  1  6  0  0  0
  3  4  1  0  0  0  0
  3  1  1  0  0  0  0
  4  1  1  0  0  0  0
  5  8  2  0  0  0  0
  5 10  1  0  0  0  0
  7  6  1  0  0  0  0
  7  4  1  0  0  0  0
  8  9  1  0  0  0  0
  9  6  2  0  0  0  0
 10  7  2  0  0  0  0
 11 10  1  0  0  0  0
 12 13  2  0  0  0  0
 13 11  2  0  0  0  0
 14  8  1  0  0  0  0
 14 15  1  0  0  0  0
 15 17  1  0  0  0  0
 17 19  1  0  0  0  0
 17 18  1  0  0  0  0
 18 20  1  0  0  0  0
 19 16  2  0  0  0  0
 19 18  1  0  0  0  0
 20 21  2  0  0  0  0
 22 21  1  0  0  0  0
 23 22  1  0  0  0  0
 23 25  1  0  0  0  0
 24 23  1  0  0  0  0
 26 27  1  1  0  0  0
 26 28  1  0  0  0  0
 29 28  1  0  0  0  0
 29 30  1  1  0  0  0
 32 29  1  0  0  0  0
 32 31  1  1  0  0  0
 33 36  1  1  0  0  0
 33 32  1  0  0  0  0
 35 36  2  0  0  0  0
 36 34  1  0  0  0  0
 37 38  1  0  0  0  0
 38 33  1  0  0  0  0
 39  3  1  0  0  0  0
 40 39  1  0  0  0  0
 40 46  1  0  0  0  0
 41 44  1  0  0  0  0
 41 43  2  0  0  0  0
 45 50  1  1  0  0  0
 45 41  1  0  0  0  0
 46 45  1  0  0  0  0
 46 47  2  0  0  0  0
 47 48  1  0  0  0  0
 48 43  1  0  0  0  0
 48 42  2  0  0  0  0
 49 50  1  0  0  0  0
M  END
>  <MODEL>
1

>  <REMARK>
 VINA RESULT:      -6.2      0.000      0.000
  Name = 
  19 active torsions:
  status: ('A' for Active; 'I' for Inactive)
    1  A    between atoms: C_1  and  C_2
    2  A    between atoms: C_1  and  C_14
    3  A    between atoms: C_2  and  C_31
    4  A    between atoms: C_3  and  C_22
    5  A    between atoms: S_4  and  C_36
    6  A    between atoms: S_4  and  C_40
    7  A    between atoms: C_5  and  C_14
    8  A    between atoms: O_6  and  C_15
    9  A    between atoms: O_6  and  C_34
   10  A    between atoms: N_7  and  C_50
   11  A    between atoms: C_15  and  N_42
   12  A    between atoms: C_16  and  C_31
   13  A    between atoms: C_16  and  O_32
   14  A    between atoms: C_16  and  C_41
   15  A    between atoms: C_22  and  C_37
   16  A    between atoms: C_25  and  C_33
   17  A    between atoms: C_28  and  N_49
   18  A    between atoms: C_29  and  N_43
   19  A    between atoms: C_40  and  C_48
                            x       y       z     vdW  Elec       q    Type
                         _______ _______ _______ _____ _____    ______ ____

>  <TORSDO>
F 19

$$$$
=
 OpenBabel11042419453D

 50 53  0  0  1  0  0  0  0  0999 V2000
  190.1500  176.0380  142.5370 C   0  0  1  0  0  3  0  0  0  0  0  0
  189.3550  174.8760  144.4970 O   0  0  0  0  0  1  0  0  0  0  0  0
  190.4020  175.4700  143.7840 C   0  0  1  0  0  0  0  0  0  0  0  0
  190.7630  174.6610  142.5870 N   0  0  0  0  0  0  0  0  0  0  0  0
  191.3440  171.1620  141.4210 C   0  0  0  0  0  3  0  0  0  0  0  0
  192.5150  173.6890  141.1930 C   0  0  0  0  0  3  0  0  0  0  0  0
  191.3900  173.5210  142.0080 C   0  0  0  0  0  0  0  0  0  0  0  0
  192.4880  171.3300  140.6210 C   0  0  0  0  0  0  0  0  0  0  0  0
  193.0680  172.5980  140.5150 C   0  0  0  0  0  3  0  0  0  0  0  0
  190.7970  172.2500  142.1320 C   0  0  0  0  0  0  0  0  0  0  0  0
  189.5610  172.1220  142.8510 N   0  0  0  0  0  0  0  0  0  0  0  0
  187.2760  172.5570  141.9080 O   0  0  0  0  0  0  0  0  0  0  0  0
  188.4050  172.3450  142.3600 C   0  0  0  0  0  0  0  0  0  0  0  0
  193.0110  170.2650  139.8800 O   0  0  0  0  0  0  0  0  0  0  0  0
  193.2570  170.3920  138.4860 C   0  0  0  0  0  2  0  0  0  0  0  0
  191.2170  169.8230  135.3530 O   0  0  0  0  0  0  0  0  0  0  0  0
  192.0030  170.3940  137.7540 N   0  0  0  0  0  0  0  0  0  0  0  0
  190.6170  170.6320  137.7400 N   0  0  0  0  0  0  0  0  0  0  0  0
  191.2670  170.1820  136.5620 C   0  0  0  0  0  0  0  0  0  0  0  0
  189.4310  170.9380  138.4690 C   0  0  0  0  0  3  0  0  0  0  0  0
  189.0880  172.2120  138.6900 C   0  0  0  0  0  3  0  0  0  0  0  0
  190.0340  173.3330  138.3470 C   0  0  0  0  0  2  0  0  0  0  0  0
  189.5060  174.1710  137.1770 C   0  0  0  0  0  3  0  0  0  0  0  0
  189.6730  173.4660  135.9840 O   0  0  0  0  0  1  0  0  0  0  0  0
  188.1520  174.4950  137.3490 O   0  0  0  0  0  1  0  0  0  0  0  0
  188.6720  175.9700  142.1390 C   0  0  2  0  0  3  0  0  0  0  0  0
  188.5140  175.4720  140.8500 O   0  0  0  0  0  1  0  0  0  0  0  0
  188.0290  177.3480  142.2350 C   0  0  0  0  0  2  0  0  0  0  0  0
  186.7730  177.3630  143.1180 C   0  0  1  0  0  3  0  0  0  0  0  0
  186.2750  176.0100  143.3530 N   0  0  0  0  0  1  0  0  0  0  0  0
  187.8790  177.4080  145.2730 O   0  0  0  0  0  1  0  0  0  0  0  0
  187.0110  178.1140  144.4320 C   0  0  2  0  0  3  0  0  0  0  0  0
  185.6940  178.4230  145.1570 C   0  0  2  0  0  3  0  0  0  0  0  0
  185.3780  180.5310  144.0920 O   0  0  0  0  0  1  0  0  0  0  0  0
  183.6080  179.0910  143.9460 O   0  0  0  0  0  0  0  0  0  0  0  0
  184.8910  179.4040  144.3660 C   0  0  0  0  0  0  0  0  0  0  0  0
  184.9040  178.4480  147.2420 C   0  0  0  0  0  1  0  0  0  0  0  0
  185.9450  178.9340  146.4410 O   0  0  0  0  0  0  0  0  0  0  0  0
  191.6140  175.9210  144.6030 C   0  0  0  0  0  2  0  0  0  0  0  0
  191.8170  175.0440  146.2010 S   0  0  0  0  0  0  0  0  0  0  0  0
  195.5980  173.7580  145.2740 C   0  0  0  0  0  0  0  0  0  0  0  0
  193.8490  171.0250  143.9260 O   0  0  0  0  0  0  0  0  0  0  0  0
  195.3320  172.5710  144.6680 N   0  0  0  0  0  0  0  0  0  0  0  0
  196.9520  174.1800  145.4260 N   0  0  0  0  0  1  0  0  0  0  0  0
  194.5460  174.5610  145.7500 C   0  0  2  0  0  3  0  0  0  0  0  0
  193.2230  174.1020  145.5990 C   0  0  0  0  0  0  0  0  0  0  0  0
  192.9830  172.8760  144.9800 C   0  0  0  0  0  3  0  0  0  0  0  0
  194.0580  172.1190  144.5080 C   0  0  0  0  0  0  0  0  0  0  0  0
  194.9250  176.8790  145.2240 N   0  0  0  0  0  1  0  0  0  0  0  0
  194.8260  175.9230  146.3140 C   0  0  0  0  0  2  0  0  0  0  0  0
  1 26  1  6  0  0  0
  1  4  1  0  0  0  0
  1  3  1  0  0  0  0
  3  2  1  1  0  0  0
  3 39  1  0  0  0  0
  4  3  1  0  0  0  0
  5 10  1  0  0  0  0
  6  7  1  0  0  0  0
  7 10  2  0  0  0  0
  7  4  1  0  0  0  0
  8  5  2  0  0  0  0
  9  8  1  0  0  0  0
  9  6  2  0  0  0  0
 10 11  1  0  0  0  0
 12 13  2  0  0  0  0
 13 11  2  0  0  0  0
 14  8  1  0  0  0  0
 15 14  1  0  0  0  0
 16 19  2  0  0  0  0
 17 15  1  0  0  0  0
 18 17  1  0  0  0  0
 18 20  1  0  0  0  0
 19 18  1  0  0  0  0
 19 17  1  0  0  0  0
 20 21  2  0  0  0  0
 22 21  1  0  0  0  0
 23 25  1  0  0  0  0
 23 22  1  0  0  0  0
 24 23  1  0  0  0  0
 26 27  1  6  0  0  0
 26 28  1  0  0  0  0
 28 29  1  0  0  0  0
 29 30  1  1  0  0  0
 29 32  1  0  0  0  0
 32 33  1  0  0  0  0
 32 31  1  1  0  0  0
 33 36  1  6  0  0  0
 33 38  1  0  0  0  0
 34 36  1  0  0  0  0
 35 36  2  0  0  0  0
 38 37  1  0  0  0  0
 39 40  1  0  0  0  0
 41 44  1  0  0  0  0
 41 45  1  0  0  0  0
 42 48  2  0  0  0  0
 43 41  2  0  0  0  0
 45 50  1  6  0  0  0
 46 45  1  0  0  0  0
 46 40  1  0  0  0  0
 47 46  2  0  0  0  0
 48 43  1  0  0  0  0
 48 47  1  0  0  0  0
 49 50  1  0  0  0  0
M  END
>  <MODEL>
2

>  <REMARK>
 VINA RESULT:      -5.8      2.607      8.082
  Name = 
  19 active torsions:
  status: ('A' for Active; 'I' for Inactive)
    1  A    between atoms: C_1  and  C_2
    2  A    between atoms: C_1  and  C_14
    3  A    between atoms: C_2  and  C_31
    4  A    between atoms: C_3  and  C_22
    5  A    between atoms: S_4  and  C_36
    6  A    between atoms: S_4  and  C_40
    7  A    between atoms: C_5  and  C_14
    8  A    between atoms: O_6  and  C_15
    9  A    between atoms: O_6  and  C_34
   10  A    between atoms: N_7  and  C_50
   11  A    between atoms: C_15  and  N_42
   12  A    between atoms: C_16  and  C_31
   13  A    between atoms: C_16  and  O_32
   14  A    between atoms: C_16  and  C_41
   15  A    between atoms: C_22  and  C_37
   16  A    between atoms: C_25  and  C_33
   17  A    between atoms: C_28  and  N_49
   18  A    between atoms: C_29  and  N_43
   19  A    between atoms: C_40  and  C_48
                            x       y       z     vdW  Elec       q    Type
                         _______ _______ _______ _____ _____    ______ ____

>  <TORSDO>
F 19

$$$$
=
 OpenBabel11042419453D

 50 53  0  0  1  0  0  0  0  0999 V2000
  190.2060  176.6020  145.7990 C   0  0  1  0  0  3  0  0  0  0  0  0
  191.5210  175.3580  147.3940 O   0  0  0  0  0  1  0  0  0  0  0  0
  191.4090  175.9960  146.1550 C   0  0  1  0  0  0  0  0  0  0  0  0
  190.5150  175.2360  145.2390 N   0  0  0  0  0  0  0  0  0  0  0  0
  190.5850  173.0340  142.2230 C   0  0  0  0  0  3  0  0  0  0  0  0
  189.7920  172.9290  144.9000 C   0  0  0  0  0  3  0  0  0  0  0  0
  190.2820  174.1290  144.3740 C   0  0  0  0  0  0  0  0  0  0  0  0
  190.0720  171.8370  142.7510 C   0  0  0  0  0  0  0  0  0  0  0  0
  189.6750  171.7950  144.0920 C   0  0  0  0  0  3  0  0  0  0  0  0
  190.6780  174.1920  143.0240 C   0  0  0  0  0  0  0  0  0  0  0  0
  191.3140  175.3830  142.5370 N   0  0  0  0  0  0  0  0  0  0  0  0
  193.5390  175.4780  141.3790 O   0  0  0  0  0  0  0  0  0  0  0  0
  192.4450  175.4190  141.9490 C   0  0  0  0  0  0  0  0  0  0  0  0
  190.0160  170.6740  141.9750 O   0  0  0  0  0  0  0  0  0  0  0  0
  191.1600  170.2030  141.2750 C   0  0  0  0  0  2  0  0  0  0  0  0
  189.7680  169.2770  137.8830 O   0  0  0  0  0  0  0  0  0  0  0  0
  191.0020  170.4260  139.8490 N   0  0  0  0  0  0  0  0  0  0  0  0
  191.2920  171.2010  138.7120 N   0  0  0  0  0  0  0  0  0  0  0  0
  190.4750  170.0480  138.5890 C   0  0  0  0  0  0  0  0  0  0  0  0
  191.8610  172.3890  138.1660 C   0  0  0  0  0  3  0  0  0  0  0  0
  191.2000  173.5480  138.2460 C   0  0  0  0  0  3  0  0  0  0  0  0
  189.7760  173.5900  138.7350 C   0  0  0  0  0  2  0  0  0  0  0  0
  188.7980  173.8650  137.5870 C   0  0  0  0  0  3  0  0  0  0  0  0
  187.7450  174.6540  138.0490 O   0  0  0  0  0  1  0  0  0  0  0  0
  189.4360  174.5090  136.5160 O   0  0  0  0  0  1  0  0  0  0  0  0
  189.1480  176.5190  146.9040 C   0  0  2  0  0  3  0  0  0  0  0  0
  188.3780  175.3660  146.7870 O   0  0  0  0  0  1  0  0  0  0  0  0
  188.2410  177.7420  146.8680 C   0  0  0  0  0  2  0  0  0  0  0  0
  186.9130  177.4820  146.1430 C   0  0  1  0  0  3  0  0  0  0  0  0
  185.7810  177.5770  147.0610 N   0  0  0  0  0  1  0  0  0  0  0  0
  185.8190  179.4250  145.1970 O   0  0  0  0  0  1  0  0  0  0  0  0
  186.7370  178.4030  144.9310 C   0  0  2  0  0  3  0  0  0  0  0  0
  186.3210  177.6210  143.6780 C   0  0  2  0  0  3  0  0  0  0  0  0
  188.5730  177.4910  142.9080 O   0  0  0  0  0  1  0  0  0  0  0  0
  187.4010  175.5300  142.8260 O   0  0  0  0  0  0  0  0  0  0  0  0
  187.4940  176.8800  143.1230 C   0  0  0  0  0  0  0  0  0  0  0  0
  184.6110  177.8840  142.2710 C   0  0  0  0  0  1  0  0  0  0  0  0
  185.7980  178.4890  142.7050 O   0  0  0  0  0  0  0  0  0  0  0  0
  192.7180  176.4420  145.4970 C   0  0  0  0  0  2  0  0  0  0  0  0
  194.2260  176.0440  146.4630 S   0  0  0  0  0  0  0  0  0  0  0  0
  195.9360  173.7980  143.4910 C   0  0  0  0  0  0  0  0  0  0  0  0
  196.9260  176.9520  142.2990 O   0  0  0  0  0  0  0  0  0  0  0  0
  196.4880  174.7650  142.7140 N   0  0  0  0  0  0  0  0  0  0  0  0
  196.0640  172.4300  143.1050 N   0  0  0  0  0  1  0  0  0  0  0  0
  195.2410  174.1430  144.6640 C   0  0  2  0  0  3  0  0  0  0  0  0
  195.1200  175.5050  145.0010 C   0  0  0  0  0  0  0  0  0  0  0  0
  195.6910  176.4750  144.1790 C   0  0  0  0  0  3  0  0  0  0  0  0
  196.3850  176.0850  143.0320 C   0  0  0  0  0  0  0  0  0  0  0  0
  193.3990  172.6760  145.1600 N   0  0  0  0  0  1  0  0  0  0  0  0
  194.7300  173.0750  145.5850 C   0  0  0  0  0  2  0  0  0  0  0  0
  1  3  1  0  0  0  0
  1 26  1  1  0  0  0
  3  2  1  1  0  0  0
  4  1  1  0  0  0  0
  4  3  1  0  0  0  0
  5  8  2  0  0  0  0
  5 10  1  0  0  0  0
  7  6  1  0  0  0  0
  7  4  1  0  0  0  0
  8  9  1  0  0  0  0
  9  6  2  0  0  0  0
 10  7  2  0  0  0  0
 11 10  1  0  0  0  0
 12 13  2  0  0  0  0
 13 11  2  0  0  0  0
 14  8  1  0  0  0  0
 15 14  1  0  0  0  0
 16 19  2  0  0  0  0
 17 15  1  0  0  0  0
 18 17  1  0  0  0  0
 19 18  1  0  0  0  0
 19 17  1  0  0  0  0
 20 21  2  0  0  0  0
 20 18  1  0  0  0  0
 21 22  1  0  0  0  0
 23 24  1  0  0  0  0
 23 22  1  0  0  0  0
 25 23  1  0  0  0  0
 26 27  1  6  0  0  0
 28 26  1  0  0  0  0
 29 28  1  0  0  0  0
 29 30  1  1  0  0  0
 32 31  1  1  0  0  0
 32 29  1  0  0  0  0
 33 38  1  6  0  0  0
 33 32  1  0  0  0  0
 34 36  1  0  0  0  0
 35 36  2  0  0  0  0
 36 33  1  0  0  0  0
 37 38  1  0  0  0  0
 39  3  1  0  0  0  0
 39 40  1  0  0  0  0
 41 45  1  0  0  0  0
 42 48  2  0  0  0  0
 43 48  1  0  0  0  0
 43 41  2  0  0  0  0
 44 41  1  0  0  0  0
 45 46  1  0  0  0  0
 45 50  1  1  0  0  0
 46 40  1  0  0  0  0
 47 46  2  0  0  0  0
 48 47  1  0  0  0  0
 49 50  1  0  0  0  0
M  END
>  <MODEL>
3

>  <REMARK>
 VINA RESULT:      -5.8      2.432      7.486
  Name = 
  19 active torsions:
  status: ('A' for Active; 'I' for Inactive)
    1  A    between atoms: C_1  and  C_2
    2  A    between atoms: C_1  and  C_14
    3  A    between atoms: C_2  and  C_31
    4  A    between atoms: C_3  and  C_22
    5  A    between atoms: S_4  and  C_36
    6  A    between atoms: S_4  and  C_40
    7  A    between atoms: C_5  and  C_14
    8  A    between atoms: O_6  and  C_15
    9  A    between atoms: O_6  and  C_34
   10  A    between atoms: N_7  and  C_50
   11  A    between atoms: C_15  and  N_42
   12  A    between atoms: C_16  and  C_31
   13  A    between atoms: C_16  and  O_32
   14  A    between atoms: C_16  and  C_41
   15  A    between atoms: C_22  and  C_37
   16  A    between atoms: C_25  and  C_33
   17  A    between atoms: C_28  and  N_49
   18  A    between atoms: C_29  and  N_43
   19  A    between atoms: C_40  and  C_48
                            x       y       z     vdW  Elec       q    Type
                         _______ _______ _______ _____ _____    ______ ____

>  <TORSDO>
F 19

$$$$
=
 OpenBabel11042419453D

 50 53  0  0  1  0  0  0  0  0999 V2000
  189.6790  175.8590  145.0080 C   0  0  1  0  0  3  0  0  0  0  0  0
  189.5750  175.1840  142.6930 O   0  0  0  0  0  1  0  0  0  0  0  0
  189.8280  174.8740  144.0330 C   0  0  1  0  0  0  0  0  0  0  0  0
  191.0680  175.5430  144.5130 N   0  0  0  0  0  0  0  0  0  0  0  0
  194.5770  175.4080  145.7840 C   0  0  0  0  0  3  0  0  0  0  0  0
  193.2140  175.7260  143.3650 C   0  0  0  0  0  3  0  0  0  0  0  0
  192.4890  175.6310  144.5580 C   0  0  0  0  0  0  0  0  0  0  0  0
  195.3030  175.5270  144.5860 C   0  0  0  0  0  0  0  0  0  0  0  0
  194.6120  175.6880  143.3810 C   0  0  0  0  0  3  0  0  0  0  0  0
  193.1680  175.4770  145.7810 C   0  0  0  0  0  0  0  0  0  0  0  0
  192.4100  175.2340  146.9760 N   0  0  0  0  0  0  0  0  0  0  0  0
  191.3790  177.0010  148.4310 O   0  0  0  0  0  0  0  0  0  0  0  0
  191.8900  176.1410  147.7070 C   0  0  0  0  0  0  0  0  0  0  0  0
  196.6980  175.4180  144.5760 O   0  0  0  0  0  0  0  0  0  0  0  0
  197.3750  174.7550  143.5170 C   0  0  0  0  0  2  0  0  0  0  0  0
  197.2850  171.6010  145.6010 O   0  0  0  0  0  0  0  0  0  0  0  0
  197.2430  173.3160  143.6610 N   0  0  0  0  0  0  0  0  0  0  0  0
  197.0470  172.0590  143.0630 N   0  0  0  0  0  0  0  0  0  0  0  0
  197.2250  172.1500  144.4670 C   0  0  0  0  0  0  0  0  0  0  0  0
  196.7260  171.3070  141.8940 C   0  0  0  0  0  3  0  0  0  0  0  0
  195.7040  171.6800  141.1160 C   0  0  0  0  0  3  0  0  0  0  0  0
  194.7630  172.7720  141.5540 C   0  0  0  0  0  2  0  0  0  0  0  0
  193.6530  173.0000  140.5210 C   0  0  0  0  0  3  0  0  0  0  0  0
  193.7350  174.3030  140.0280 O   0  0  0  0  0  1  0  0  0  0  0  0
  193.7460  172.0870  139.4600 O   0  0  0  0  0  1  0  0  0  0  0  0
  189.1790  177.1890  144.4370 C   0  0  2  0  0  3  0  0  0  0  0  0
  190.1100  178.2060  144.6230 O   0  0  0  0  0  1  0  0  0  0  0  0
  187.8570  177.5850  145.0820 C   0  0  0  0  0  2  0  0  0  0  0  0
  186.6390  177.2390  144.2140 C   0  0  1  0  0  3  0  0  0  0  0  0
  185.4920  176.8650  145.0370 N   0  0  0  0  0  1  0  0  0  0  0  0
  185.2010  179.1190  143.7000 O   0  0  0  0  0  1  0  0  0  0  0  0
  186.2920  178.3720  143.2430 C   0  0  2  0  0  3  0  0  0  0  0  0
  186.0280  177.8460  141.8260 C   0  0  2  0  0  3  0  0  0  0  0  0
  187.3730  176.4290  140.4610 O   0  0  0  0  0  0  0  0  0  0  0  0
  188.4560  178.2330  141.3560 O   0  0  0  0  0  1  0  0  0  0  0  0
  187.3160  177.4650  141.1720 C   0  0  0  0  0  0  0  0  0  0  0  0
  184.2290  178.1730  140.5480 C   0  0  0  0  0  1  0  0  0  0  0  0
  185.3670  178.8160  141.0540 O   0  0  0  0  0  0  0  0  0  0  0  0
  189.7460  173.3940  144.4170 C   0  0  0  0  0  2  0  0  0  0  0  0
  189.6380  172.2450  142.9910 S   0  0  0  0  0  0  0  0  0  0  0  0
  192.9710  169.8580  143.0020 C   0  0  0  0  0  0  0  0  0  0  0  0
  193.9570  172.0210  145.5890 O   0  0  0  0  0  0  0  0  0  0  0  0
  193.7070  170.4370  143.9860 N   0  0  0  0  0  0  0  0  0  0  0  0
  193.4950  168.7280  142.3060 N   0  0  0  0  0  1  0  0  0  0  0  0
  191.7050  170.3720  142.6700 C   0  0  2  0  0  3  0  0  0  0  0  0
  191.2300  171.5010  143.3650 C   0  0  0  0  0  0  0  0  0  0  0  0
  192.0120  172.0770  144.3650 C   0  0  0  0  0  3  0  0  0  0  0  0
  193.2570  171.5240  144.6720 C   0  0  0  0  0  0  0  0  0  0  0  0
  191.0410  170.2700  140.3590 N   0  0  0  0  0  1  0  0  0  0  0  0
  190.8400  169.6690  141.6660 C   0  0  0  0  0  2  0  0  0  0  0  0
  1 26  1  6  0  0  0
  3  2  1  6  0  0  0
  3 39  1  0  0  0  0
  3  4  1  0  0  0  0
  3  1  1  0  0  0  0
  4  7  1  0  0  0  0
  4  1  1  0  0  0  0
  6  9  2  0  0  0  0
  6  7  1  0  0  0  0
  7 10  2  0  0  0  0
  8  5  2  0  0  0  0
  9  8  1  0  0  0  0
 10  5  1  0  0  0  0
 10 11  1  0  0  0  0
 11 13  2  0  0  0  0
 13 12  2  0  0  0  0
 14  8  1  0  0  0  0
 15 17  1  0  0  0  0
 15 14  1  0  0  0  0
 17 19  1  0  0  0  0
 18 17  1  0  0  0  0
 18 19  1  0  0  0  0
 19 16  2  0  0  0  0
 20 18  1  0  0  0  0
 21 22  1  0  0  0  0
 21 20  2  0  0  0  0
 23 22  1  0  0  0  0
 24 23  1  0  0  0  0
 25 23  1  0  0  0  0
 26 27  1  1  0  0  0
 26 28  1  0  0  0  0
 29 30  1  1  0  0  0
 29 28  1  0  0  0  0
 32 31  1  1  0  0  0
 32 29  1  0  0  0  0
 33 38  1  6  0  0  0
 33 32  1  0  0  0  0
 34 36  2  0  0  0  0
 36 35  1  0  0  0  0
 36 33  1  0  0  0  0
 37 38  1  0  0  0  0
 40 46  1  0  0  0  0
 40 39  1  0  0  0  0
 41 43  2  0  0  0  0
 43 48  1  0  0  0  0
 44 41  1  0  0  0  0
 45 50  1  1  0  0  0
 45 41  1  0  0  0  0
 45 46  1  0  0  0  0
 46 47  2  0  0  0  0
 47 48  1  0  0  0  0
 48 42  2  0  0  0  0
 49 50  1  0  0  0  0
M  END
>  <MODEL>
4

>  <REMARK>
 VINA RESULT:      -5.7      2.404      8.715
  Name = 
  19 active torsions:
  status: ('A' for Active; 'I' for Inactive)
    1  A    between atoms: C_1  and  C_2
    2  A    between atoms: C_1  and  C_14
    3  A    between atoms: C_2  and  C_31
    4  A    between atoms: C_3  and  C_22
    5  A    between atoms: S_4  and  C_36
    6  A    between atoms: S_4  and  C_40
    7  A    between atoms: C_5  and  C_14
    8  A    between atoms: O_6  and  C_15
    9  A    between atoms: O_6  and  C_34
   10  A    between atoms: N_7  and  C_50
   11  A    between atoms: C_15  and  N_42
   12  A    between atoms: C_16  and  C_31
   13  A    between atoms: C_16  and  O_32
   14  A    between atoms: C_16  and  C_41
   15  A    between atoms: C_22  and  C_37
   16  A    between atoms: C_25  and  C_33
   17  A    between atoms: C_28  and  N_49
   18  A    between atoms: C_29  and  N_43
   19  A    between atoms: C_40  and  C_48
                            x       y       z     vdW  Elec       q    Type
                         _______ _______ _______ _____ _____    ______ ____

>  <TORSDO>
F 19

$$$$
=
 OpenBabel11042419453D

 50 53  0  0  1  0  0  0  0  0999 V2000
  189.8000  174.8810  144.0790 C   0  0  1  0  0  3  0  0  0  0  0  0
  189.2960  177.1590  143.4630 O   0  0  0  0  0  1  0  0  0  0  0  0
  189.4400  175.8130  143.1090 C   0  0  1  0  0  0  0  0  0  0  0  0
  190.8690  175.3980  143.1500 N   0  0  0  0  0  0  0  0  0  0  0  0
  194.5430  175.9270  142.7360 C   0  0  0  0  0  3  0  0  0  0  0  0
  192.4390  174.6060  141.4570 C   0  0  0  0  0  3  0  0  0  0  0  0
  192.1740  175.3970  142.5800 C   0  0  0  0  0  0  0  0  0  0  0  0
  194.8010  175.1490  141.5930 C   0  0  0  0  0  0  0  0  0  0  0  0
  193.7400  174.4940  140.9590 C   0  0  0  0  0  3  0  0  0  0  0  0
  193.2280  176.0700  143.2270 C   0  0  0  0  0  0  0  0  0  0  0  0
  192.9660  176.7570  144.4600 N   0  0  0  0  0  0  0  0  0  0  0  0
  194.6260  177.1140  146.3090 O   0  0  0  0  0  0  0  0  0  0  0  0
  193.8190  176.9330  145.3930 C   0  0  0  0  0  0  0  0  0  0  0  0
  196.1070  174.9690  141.1260 O   0  0  0  0  0  0  0  0  0  0  0  0
  197.1490  174.5550  141.9990 C   0  0  0  0  0  2  0  0  0  0  0  0
  195.9830  171.0370  141.2470 O   0  0  0  0  0  0  0  0  0  0  0  0
  196.9800  173.1570  142.3520 N   0  0  0  0  0  0  0  0  0  0  0  0
  197.1580  172.1200  143.2860 N   0  0  0  0  0  0  0  0  0  0  0  0
  196.5230  171.8500  142.0470 C   0  0  0  0  0  0  0  0  0  0  0  0
  197.7330  171.6780  144.5130 C   0  0  0  0  0  3  0  0  0  0  0  0
  196.9960  171.6510  145.6280 C   0  0  0  0  0  3  0  0  0  0  0  0
  195.6190  172.2610  145.6550 C   0  0  0  0  0  2  0  0  0  0  0  0
  194.5310  171.1840  145.7340 C   0  0  0  0  0  3  0  0  0  0  0  0
  194.0570  170.9030  144.4520 O   0  0  0  0  0  1  0  0  0  0  0  0
  195.0180  170.0080  146.3250 O   0  0  0  0  0  1  0  0  0  0  0  0
  189.9360  175.4970  145.4750 C   0  0  2  0  0  3  0  0  0  0  0  0
  190.7850  174.7470  146.2830 O   0  0  0  0  0  1  0  0  0  0  0  0
  188.5720  175.6160  146.1420 C   0  0  0  0  0  2  0  0  0  0  0  0
  188.4400  176.8710  147.0160 C   0  0  1  0  0  3  0  0  0  0  0  0
  189.5990  177.7470  146.8640 N   0  0  0  0  0  1  0  0  0  0  0  0
  186.5130  178.0110  147.9410 O   0  0  0  0  0  1  0  0  0  0  0  0
  187.1290  177.6170  146.7480 C   0  0  2  0  0  3  0  0  0  0  0  0
  186.1640  176.7830  145.8940 C   0  0  2  0  0  3  0  0  0  0  0  0
  185.7350  176.5780  143.5600 O   0  0  0  0  0  0  0  0  0  0  0  0
  186.5110  178.6210  144.2310 O   0  0  0  0  0  1  0  0  0  0  0  0
  186.1180  177.3190  144.5010 C   0  0  0  0  0  0  0  0  0  0  0  0
  184.3160  178.0170  146.0740 C   0  0  0  0  0  1  0  0  0  0  0  0
  184.8760  176.7910  146.4550 O   0  0  0  0  0  0  0  0  0  0  0  0
  188.7100  175.3610  141.8410 C   0  0  0  0  0  2  0  0  0  0  0  0
  188.0680  173.6440  141.9080 S   0  0  0  0  0  0  0  0  0  0  0  0
  190.9590  171.5150  139.9290 C   0  0  0  0  0  0  0  0  0  0  0  0
  190.4340  173.9630  137.4630 O   0  0  0  0  0  0  0  0  0  0  0  0
  191.0580  172.2190  138.7710 N   0  0  0  0  0  0  0  0  0  0  0  0
  191.7690  170.3560  140.1170 N   0  0  0  0  0  1  0  0  0  0  0  0
  190.0610  171.9250  140.9300 C   0  0  2  0  0  3  0  0  0  0  0  0
  189.2640  173.0630  140.7000 C   0  0  0  0  0  0  0  0  0  0  0  0
  189.3840  173.7590  139.4980 C   0  0  0  0  0  3  0  0  0  0  0  0
  190.3000  173.3250  138.5380 C   0  0  0  0  0  0  0  0  0  0  0  0
  191.0390  171.8000  143.1260 N   0  0  0  0  0  1  0  0  0  0  0  0
  190.0290  171.2210  142.2550 C   0  0  0  0  0  2  0  0  0  0  0  0
  1 26  1  1  0  0  0
  3  4  1  0  0  0  0
  3  2  1  1  0  0  0
  3  1  1  0  0  0  0
  4  1  1  0  0  0  0
  5 10  1  0  0  0  0
  6  7  1  0  0  0  0
  7  4  1  0  0  0  0
  7 10  2  0  0  0  0
  8  5  2  0  0  0  0
  9  6  2  0  0  0  0
  9  8  1  0  0  0  0
 10 11  1  0  0  0  0
 11 13  2  0  0  0  0
 13 12  2  0  0  0  0
 14  8  1  0  0  0  0
 14 15  1  0  0  0  0
 15 17  1  0  0  0  0
 16 19  2  0  0  0  0
 17 18  1  0  0  0  0
 18 20  1  0  0  0  0
 19 17  1  0  0  0  0
 19 18  1  0  0  0  0
 20 21  2  0  0  0  0
 21 22  1  0  0  0  0
 22 23  1  0  0  0  0
 23 25  1  0  0  0  0
 24 23  1  0  0  0  0
 26 28  1  0  0  0  0
 26 27  1  1  0  0  0
 28 29  1  0  0  0  0
 29 30  1  6  0  0  0
 32 29  1  0  0  0  0
 32 31  1  1  0  0  0
 33 36  1  6  0  0  0
 33 38  1  0  0  0  0
 33 32  1  0  0  0  0
 34 36  2  0  0  0  0
 35 36  1  0  0  0  0
 37 38  1  0  0  0  0
 39 40  1  0  0  0  0
 39  3  1  0  0  0  0
 41 44  1  0  0  0  0
 41 45  1  0  0  0  0
 42 48  2  0  0  0  0
 43 41  2  0  0  0  0
 45 50  1  1  0  0  0
 46 45  1  0  0  0  0
 46 40  1  0  0  0  0
 47 46  2  0  0  0  0
 48 43  1  0  0  0  0
 48 47  1  0  0  0  0
 50 49  1  0  0  0  0
M  END
>  <MODEL>
5

>  <REMARK>
 VINA RESULT:      -5.6      2.737      8.829
  Name = 
  19 active torsions:
  status: ('A' for Active; 'I' for Inactive)
    1  A    between atoms: C_1  and  C_2
    2  A    between atoms: C_1  and  C_14
    3  A    between atoms: C_2  and  C_31
    4  A    between atoms: C_3  and  C_22
    5  A    between atoms: S_4  and  C_36
    6  A    between atoms: S_4  and  C_40
    7  A    between atoms: C_5  and  C_14
    8  A    between atoms: O_6  and  C_15
    9  A    between atoms: O_6  and  C_34
   10  A    between atoms: N_7  and  C_50
   11  A    between atoms: C_15  and  N_42
   12  A    between atoms: C_16  and  C_31
   13  A    between atoms: C_16  and  O_32
   14  A    between atoms: C_16  and  C_41
   15  A    between atoms: C_22  and  C_37
   16  A    between atoms: C_25  and  C_33
   17  A    between atoms: C_28  and  N_49
   18  A    between atoms: C_29  and  N_43
   19  A    between atoms: C_40  and  C_48
                            x       y       z     vdW  Elec       q    Type
                         _______ _______ _______ _____ _____    ______ ____

>  <TORSDO>
F 19

$$$$
=
 OpenBabel11042419453D

 50 53  0  0  1  0  0  0  0  0999 V2000
  189.6590  176.5000  142.4090 C   0  0  1  0  0  3  0  0  0  0  0  0
  189.0410  175.2590  144.3840 O   0  0  0  0  0  1  0  0  0  0  0  0
  189.9860  176.0010  143.6680 C   0  0  1  0  0  0  0  0  0  0  0  0
  190.4850  175.2410  142.4900 N   0  0  0  0  0  0  0  0  0  0  0  0
  191.6490  171.8560  141.4250 C   0  0  0  0  0  3  0  0  0  0  0  0
  192.3630  174.5380  141.0980 C   0  0  0  0  0  3  0  0  0  0  0  0
  191.2930  174.2070  141.9360 C   0  0  0  0  0  0  0  0  0  0  0  0
  192.7380  172.1920  140.6010 C   0  0  0  0  0  0  0  0  0  0  0  0
  193.0890  173.5370  140.4450 C   0  0  0  0  0  3  0  0  0  0  0  0
  190.9310  172.8580  142.1110 C   0  0  0  0  0  0  0  0  0  0  0  0
  189.7440  172.5430  142.8540 N   0  0  0  0  0  0  0  0  0  0  0  0
  187.4340  172.3410  141.8930 O   0  0  0  0  0  0  0  0  0  0  0  0
  188.5750  172.4420  142.3540 C   0  0  0  0  0  0  0  0  0  0  0  0
  193.4290  171.2080  139.8850 O   0  0  0  0  0  0  0  0  0  0  0  0
  194.8490  171.1670  139.8770 C   0  0  0  0  0  2  0  0  0  0  0  0
  194.8170  169.3790  143.2100 O   0  0  0  0  0  0  0  0  0  0  0  0
  195.3520  170.9530  141.2230 N   0  0  0  0  0  0  0  0  0  0  0  0
  196.2540  171.3060  142.2420 N   0  0  0  0  0  0  0  0  0  0  0  0
  195.3090  170.2720  142.4650 C   0  0  0  0  0  0  0  0  0  0  0  0
  197.3980  172.0560  142.6440 C   0  0  0  0  0  3  0  0  0  0  0  0
  197.3330  173.3890  142.7220 C   0  0  0  0  0  3  0  0  0  0  0  0
  196.1270  174.1320  142.2090 C   0  0  0  0  0  2  0  0  0  0  0  0
  196.4950  175.0610  141.0470 C   0  0  0  0  0  3  0  0  0  0  0  0
  196.4940  174.3390  139.8530 O   0  0  0  0  0  1  0  0  0  0  0  0
  195.5990  176.1370  140.9500 O   0  0  0  0  0  1  0  0  0  0  0  0
  188.2160  176.1890  142.0020 C   0  0  2  0  0  3  0  0  0  0  0  0
  188.1690  175.3850  140.8660 O   0  0  0  0  0  1  0  0  0  0  0  0
  187.4430  177.4760  141.7470 C   0  0  0  0  0  2  0  0  0  0  0  0
  186.9340  178.1350  143.0370 C   0  0  1  0  0  3  0  0  0  0  0  0
  186.3170  179.4290  142.7630 N   0  0  0  0  0  1  0  0  0  0  0  0
  184.6510  177.4720  143.5000 O   0  0  0  0  0  1  0  0  0  0  0  0
  185.9890  177.2110  143.8130 C   0  0  2  0  0  3  0  0  0  0  0  0
  186.2150  177.3080  145.3280 C   0  0  2  0  0  3  0  0  0  0  0  0
  185.2440  179.4030  145.9160 O   0  0  0  0  0  0  0  0  0  0  0  0
  184.0670  177.5620  146.5870 O   0  0  0  0  0  1  0  0  0  0  0  0
  185.1500  178.1500  145.9520 C   0  0  0  0  0  0  0  0  0  0  0  0
  187.8060  177.3950  146.8880 C   0  0  0  0  0  1  0  0  0  0  0  0
  187.4800  177.8530  145.6050 O   0  0  0  0  0  0  0  0  0  0  0  0
  191.1020  176.6550  144.4890 C   0  0  0  0  0  2  0  0  0  0  0  0
  191.2000  176.0810  146.2280 S   0  0  0  0  0  0  0  0  0  0  0  0
  194.8450  174.2640  145.7660 C   0  0  0  0  0  0  0  0  0  0  0  0
  192.8650  171.6030  144.6050 O   0  0  0  0  0  0  0  0  0  0  0  0
  194.4750  173.0490  145.2820 N   0  0  0  0  0  0  0  0  0  0  0  0
  196.2280  174.5420  145.9780 N   0  0  0  0  0  1  0  0  0  0  0  0
  193.8720  175.2340  146.0590 C   0  0  2  0  0  3  0  0  0  0  0  0
  192.5150  174.9160  145.8550 C   0  0  0  0  0  0  0  0  0  0  0  0
  192.1670  173.6580  145.3640 C   0  0  0  0  0  3  0  0  0  0  0  0
  193.1680  172.7300  145.0720 C   0  0  0  0  0  0  0  0  0  0  0  0
  194.5710  177.4090  145.3010 N   0  0  0  0  0  1  0  0  0  0  0  0
  194.2800  176.6150  146.4830 C   0  0  0  0  0  2  0  0  0  0  0  0
  1 26  1  6  0  0  0
  1  4  1  0  0  0  0
  1  3  1  0  0  0  0
  3  2  1  1  0  0  0
  3 39  1  0  0  0  0
  4  3  1  0  0  0  0
  5 10  1  0  0  0  0
  6  7  1  0  0  0  0
  7 10  2  0  0  0  0
  7  4  1  0  0  0  0
  8  5  2  0  0  0  0
  9  8  1  0  0  0  0
  9  6  2  0  0  0  0
 10 11  1  0  0  0  0
 12 13  2  0  0  0  0
 13 11  2  0  0  0  0
 14  8  1  0  0  0  0
 15 14  1  0  0  0  0
 15 17  1  0  0  0  0
 17 18  1  0  0  0  0
 17 19  1  0  0  0  0
 18 19  1  0  0  0  0
 18 20  1  0  0  0  0
 19 16  2  0  0  0  0
 20 21  2  0  0  0  0
 22 21  1  0  0  0  0
 23 22  1  0  0  0  0
 24 23  1  0  0  0  0
 25 23  1  0  0  0  0
 26 27  1  6  0  0  0
 28 26  1  0  0  0  0
 28 29  1  0  0  0  0
 29 30  1  6  0  0  0
 29 32  1  0  0  0  0
 32 31  1  1  0  0  0
 32 33  1  0  0  0  0
 33 38  1  6  0  0  0
 33 36  1  0  0  0  0
 34 36  2  0  0  0  0
 36 35  1  0  0  0  0
 38 37  1  0  0  0  0
 39 40  1  0  0  0  0
 41 44  1  0  0  0  0
 41 45  1  0  0  0  0
 42 48  2  0  0  0  0
 43 41  2  0  0  0  0
 45 50  1  6  0  0  0
 46 45  1  0  0  0  0
 46 40  1  0  0  0  0
 47 46  2  0  0  0  0
 48 43  1  0  0  0  0
 48 47  1  0  0  0  0
 49 50  1  0  0  0  0
M  END
>  <MODEL>
6

>  <REMARK>
 VINA RESULT:      -5.5      2.301      8.250
  Name = 
  19 active torsions:
  status: ('A' for Active; 'I' for Inactive)
    1  A    between atoms: C_1  and  C_2
    2  A    between atoms: C_1  and  C_14
    3  A    between atoms: C_2  and  C_31
    4  A    between atoms: C_3  and  C_22
    5  A    between atoms: S_4  and  C_36
    6  A    between atoms: S_4  and  C_40
    7  A    between atoms: C_5  and  C_14
    8  A    between atoms: O_6  and  C_15
    9  A    between atoms: O_6  and  C_34
   10  A    between atoms: N_7  and  C_50
   11  A    between atoms: C_15  and  N_42
   12  A    between atoms: C_16  and  C_31
   13  A    between atoms: C_16  and  O_32
   14  A    between atoms: C_16  and  C_41
   15  A    between atoms: C_22  and  C_37
   16  A    between atoms: C_25  and  C_33
   17  A    between atoms: C_28  and  N_49
   18  A    between atoms: C_29  and  N_43
   19  A    between atoms: C_40  and  C_48
                            x       y       z     vdW  Elec       q    Type
                         _______ _______ _______ _____ _____    ______ ____

>  <TORSDO>
F 19

$$$$
=
 OpenBabel11042419453D

 50 53  0  0  1  0  0  0  0  0999 V2000
  188.3150  175.4690  142.6450 C   0  0  1  0  0  3  0  0  0  0  0  0
  189.7050  177.3960  142.2200 O   0  0  0  0  0  1  0  0  0  0  0  0
  188.7980  176.7150  143.0400 C   0  0  1  0  0  0  0  0  0  0  0  0
  187.4430  176.6800  142.4250 N   0  0  0  0  0  0  0  0  0  0  0  0
  184.6840  178.1870  140.4100 C   0  0  0  0  0  3  0  0  0  0  0  0
  185.2190  177.4660  143.0560 C   0  0  0  0  0  3  0  0  0  0  0  0
  186.2200  177.3270  142.0880 C   0  0  0  0  0  0  0  0  0  0  0  0
  183.6890  178.3470  141.3910 C   0  0  0  0  0  0  0  0  0  0  0  0
  183.9670  177.9840  142.7120 C   0  0  0  0  0  3  0  0  0  0  0  0
  185.9600  177.6940  140.7540 C   0  0  0  0  0  0  0  0  0  0  0  0
  186.9430  177.4090  139.7460 N   0  0  0  0  0  0  0  0  0  0  0  0
  186.5060  176.2160  137.5810 O   0  0  0  0  0  0  0  0  0  0  0  0
  186.7080  176.8030  138.6490 C   0  0  0  0  0  0  0  0  0  0  0  0
  182.4080  178.7960  141.0500 O   0  0  0  0  0  0  0  0  0  0  0  0
  181.2550  178.2950  141.7120 C   0  0  0  0  0  2  0  0  0  0  0  0
  178.9430  177.1360  138.9530 O   0  0  0  0  0  0  0  0  0  0  0  0
  180.0840  178.4550  140.8680 N   0  0  0  0  0  0  0  0  0  0  0  0
  178.9580  179.2130  140.5010 N   0  0  0  0  0  0  0  0  0  0  0  0
  179.2420  178.0000  139.8220 C   0  0  0  0  0  0  0  0  0  0  0  0
  178.0960  180.3160  140.7730 C   0  0  0  0  0  3  0  0  0  0  0  0
  178.3120  181.4970  140.1840 C   0  0  0  0  0  3  0  0  0  0  0  0
  179.5640  181.7400  139.3830 C   0  0  0  0  0  2  0  0  0  0  0  0
  179.4160  182.9640  138.4720 C   0  0  0  0  0  3  0  0  0  0  0  0
  178.6980  182.6120  137.3280 O   0  0  0  0  0  1  0  0  0  0  0  0
  178.7660  184.0170  139.1320 O   0  0  0  0  0  1  0  0  0  0  0  0
  188.9270  174.9840  141.3280 C   0  0  2  0  0  3  0  0  0  0  0  0
  187.9790  174.3540  140.5270 O   0  0  0  0  0  1  0  0  0  0  0  0
  190.0830  174.0290  141.5960 C   0  0  0  0  0  2  0  0  0  0  0  0
  190.0910  172.8180  140.6520 C   0  0  1  0  0  3  0  0  0  0  0  0
  191.2070  172.8860  139.7130 N   0  0  0  0  0  1  0  0  0  0  0  0
  189.6350  171.6740  142.7370 O   0  0  0  0  0  1  0  0  0  0  0  0
  190.0810  171.4950  141.4230 C   0  0  2  0  0  3  0  0  0  0  0  0
  191.4580  170.8180  141.4110 C   0  0  2  0  0  3  0  0  0  0  0  0
  191.6580  168.9580  139.9360 O   0  0  0  0  0  0  0  0  0  0  0  0
  190.7910  168.4780  141.9960 O   0  0  0  0  0  1  0  0  0  0  0  0
  191.3150  169.3700  141.0740 C   0  0  0  0  0  0  0  0  0  0  0  0
  193.4500  171.1200  142.3680 C   0  0  0  0  0  1  0  0  0  0  0  0
  192.0890  170.9600  142.6590 O   0  0  0  0  0  0  0  0  0  0  0  0
  188.7870  177.1110  144.5190 C   0  0  0  0  0  2  0  0  0  0  0  0
  188.7140  175.6950  145.6820 S   0  0  0  0  0  0  0  0  0  0  0  0
  192.5870  176.2910  146.8860 C   0  0  0  0  0  0  0  0  0  0  0  0
  191.0440  178.3010  149.3200 O   0  0  0  0  0  0  0  0  0  0  0  0
  192.4100  177.1310  147.9390 N   0  0  0  0  0  0  0  0  0  0  0  0
  193.9090  175.9040  146.5120 N   0  0  0  0  0  1  0  0  0  0  0  0
  191.4770  175.8120  146.1690 C   0  0  2  0  0  3  0  0  0  0  0  0
  190.1890  176.2310  146.5560 C   0  0  0  0  0  0  0  0  0  0  0  0
  190.0410  177.1000  147.6360 C   0  0  0  0  0  3  0  0  0  0  0  0
  191.1710  177.5390  148.3290 C   0  0  0  0  0  0  0  0  0  0  0  0
  192.0980  175.4660  143.8690 N   0  0  0  0  0  1  0  0  0  0  0  0
  191.6580  174.7950  145.0810 C   0  0  0  0  0  2  0  0  0  0  0  0
  1 26  1  6  0  0  0
  1  3  1  0  0  0  0
  3  2  1  6  0  0  0
  3 39  1  0  0  0  0
  4  1  1  0  0  0  0
  4  3  1  0  0  0  0
  5 10  2  0  0  0  0
  5  8  1  0  0  0  0
  7  4  1  0  0  0  0
  7  6  2  0  0  0  0
  8  9  2  0  0  0  0
  9  6  1  0  0  0  0
 10  7  1  0  0  0  0
 11 10  1  0  0  0  0
 12 13  2  0  0  0  0
 13 11  2  0  0  0  0
 14  8  1  0  0  0  0
 14 15  1  0  0  0  0
 16 19  2  0  0  0  0
 17 15  1  0  0  0  0
 18 20  1  0  0  0  0
 18 17  1  0  0  0  0
 19 18  1  0  0  0  0
 19 17  1  0  0  0  0
 21 20  2  0  0  0  0
 22 21  1  0  0  0  0
 23 25  1  0  0  0  0
 23 22  1  0  0  0  0
 24 23  1  0  0  0  0
 26 27  1  6  0  0  0
 26 28  1  0  0  0  0
 29 30  1  1  0  0  0
 29 32  1  0  0  0  0
 29 28  1  0  0  0  0
 32 31  1  1  0  0  0
 33 36  1  1  0  0  0
 33 32  1  0  0  0  0
 33 38  1  0  0  0  0
 34 36  2  0  0  0  0
 36 35  1  0  0  0  0
 37 38  1  0  0  0  0
 39 40  1  0  0  0  0
 40 46  1  0  0  0  0
 41 43  2  0  0  0  0
 43 48  1  0  0  0  0
 44 41  1  0  0  0  0
 45 50  1  1  0  0  0
 45 46  1  0  0  0  0
 45 41  1  0  0  0  0
 46 47  2  0  0  0  0
 47 48  1  0  0  0  0
 48 42  2  0  0  0  0
 49 50  1  0  0  0  0
M  END
>  <MODEL>
7

>  <REMARK>
 VINA RESULT:      -5.4      4.124      6.277
  Name = 
  19 active torsions:
  status: ('A' for Active; 'I' for Inactive)
    1  A    between atoms: C_1  and  C_2
    2  A    between atoms: C_1  and  C_14
    3  A    between atoms: C_2  and  C_31
    4  A    between atoms: C_3  and  C_22
    5  A    between atoms: S_4  and  C_36
    6  A    between atoms: S_4  and  C_40
    7  A    between atoms: C_5  and  C_14
    8  A    between atoms: O_6  and  C_15
    9  A    between atoms: O_6  and  C_34
   10  A    between atoms: N_7  and  C_50
   11  A    between atoms: C_15  and  N_42
   12  A    between atoms: C_16  and  C_31
   13  A    between atoms: C_16  and  O_32
   14  A    between atoms: C_16  and  C_41
   15  A    between atoms: C_22  and  C_37
   16  A    between atoms: C_25  and  C_33
   17  A    between atoms: C_28  and  N_49
   18  A    between atoms: C_29  and  N_43
   19  A    between atoms: C_40  and  C_48
                            x       y       z     vdW  Elec       q    Type
                         _______ _______ _______ _____ _____    ______ ____

>  <TORSDO>
F 19

$$$$
=
 OpenBabel11042419453D

 50 53  0  0  1  0  0  0  0  0999 V2000
  189.7250  174.6920  141.8220 C   0  0  1  0  0  3  0  0  0  0  0  0
  190.2710  173.7760  143.9870 O   0  0  0  0  0  1  0  0  0  0  0  0
  190.6560  174.4690  142.8340 C   0  0  1  0  0  0  0  0  0  0  0  0
  190.7090  173.5610  141.6550 N   0  0  0  0  0  0  0  0  0  0  0  0
  192.1710  171.6540  138.7970 C   0  0  0  0  0  3  0  0  0  0  0  0
  192.0830  171.5450  141.5880 C   0  0  0  0  0  3  0  0  0  0  0  0
  191.3570  172.5330  140.9140 C   0  0  0  0  0  0  0  0  0  0  0  0
  192.8800  170.6480  139.4770 C   0  0  0  0  0  0  0  0  0  0  0  0
  192.8280  170.6010  140.8740 C   0  0  0  0  0  3  0  0  0  0  0  0
  191.3920  172.5910  139.5070 C   0  0  0  0  0  0  0  0  0  0  0  0
  190.7640  173.6950  138.8380 N   0  0  0  0  0  0  0  0  0  0  0  0
  188.6130  173.5840  137.5470 O   0  0  0  0  0  0  0  0  0  0  0  0
  189.6700  173.6270  138.1860 C   0  0  0  0  0  0  0  0  0  0  0  0
  193.6880  169.7420  138.7830 O   0  0  0  0  0  0  0  0  0  0  0  0
  195.1020  169.7690  138.9130 C   0  0  0  0  0  2  0  0  0  0  0  0
  195.4430  172.6920  136.5370 O   0  0  0  0  0  0  0  0  0  0  0  0
  195.6120  171.0820  138.5600 N   0  0  0  0  0  0  0  0  0  0  0  0
  196.3770  172.2100  138.9050 N   0  0  0  0  0  0  0  0  0  0  0  0
  195.7300  172.1570  137.6440 C   0  0  0  0  0  0  0  0  0  0  0  0
  197.1100  172.9210  139.9000 C   0  0  0  0  0  3  0  0  0  0  0  0
  196.4650  173.5510  140.8880 C   0  0  0  0  0  3  0  0  0  0  0  0
  194.9650  173.6860  140.8630 C   0  0  0  0  0  2  0  0  0  0  0  0
  194.5340  175.0500  140.3130 C   0  0  0  0  0  3  0  0  0  0  0  0
  195.6260  175.9200  140.3130 O   0  0  0  0  0  1  0  0  0  0  0  0
  194.0190  174.9380  139.0130 O   0  0  0  0  0  1  0  0  0  0  0  0
  188.3310  174.1640  142.1690 C   0  0  2  0  0  3  0  0  0  0  0  0
  187.8420  173.3220  141.1750 O   0  0  0  0  0  1  0  0  0  0  0  0
  187.3590  175.3180  142.3810 C   0  0  0  0  0  2  0  0  0  0  0  0
  187.8440  176.6320  141.7520 C   0  0  1  0  0  3  0  0  0  0  0  0
  187.0580  176.9750  140.5700 N   0  0  0  0  0  1  0  0  0  0  0  0
  189.1220  177.9080  143.3650 O   0  0  0  0  0  1  0  0  0  0  0  0
  187.8630  177.7770  142.7700 C   0  0  2  0  0  3  0  0  0  0  0  0
  186.7780  177.6050  143.8410 C   0  0  2  0  0  3  0  0  0  0  0  0
  184.6250  177.9620  142.8830 O   0  0  0  0  0  0  0  0  0  0  0  0
  185.5630  179.7930  143.8810 O   0  0  0  0  0  1  0  0  0  0  0  0
  185.5950  178.4570  143.5130 C   0  0  0  0  0  0  0  0  0  0  0  0
  186.6290  177.0830  146.0040 C   0  0  0  0  0  1  0  0  0  0  0  0
  187.2770  177.9450  145.1090 O   0  0  0  0  0  0  0  0  0  0  0  0
  191.8850  175.3740  142.9620 C   0  0  0  0  0  2  0  0  0  0  0  0
  192.2520  175.9170  144.6750 S   0  0  0  0  0  0  0  0  0  0  0  0
  195.8780  174.0100  144.8180 C   0  0  0  0  0  0  0  0  0  0  0  0
  196.9740  176.9470  143.2300 O   0  0  0  0  0  0  0  0  0  0  0  0
  196.6810  174.9260  144.2160 N   0  0  0  0  0  0  0  0  0  0  0  0
  196.4350  172.7750  145.2640 N   0  0  0  0  0  1  0  0  0  0  0  0
  194.5090  174.2780  144.9930 C   0  0  2  0  0  3  0  0  0  0  0  0
  193.9920  175.5000  144.5220 C   0  0  0  0  0  0  0  0  0  0  0  0
  194.8410  176.4160  143.9030 C   0  0  0  0  0  3  0  0  0  0  0  0
  196.1970  176.1150  143.7630 C   0  0  0  0  0  0  0  0  0  0  0  0
  193.1780  172.2770  144.8610 N   0  0  0  0  0  1  0  0  0  0  0  0
  193.6410  173.3220  145.7590 C   0  0  0  0  0  2  0  0  0  0  0  0
  1 26  1  1  0  0  0
  1  3  1  0  0  0  0
  3 39  1  0  0  0  0
  3  2  1  1  0  0  0
  4  1  1  0  0  0  0
  4  3  1  0  0  0  0
  5  8  2  0  0  0  0
  5 10  1  0  0  0  0
  7  6  1  0  0  0  0
  7  4  1  0  0  0  0
  8  9  1  0  0  0  0
  9  6  2  0  0  0  0
 10  7  2  0  0  0  0
 11 10  1  0  0  0  0
 12 13  2  0  0  0  0
 13 11  2  0  0  0  0
 14 15  1  0  0  0  0
 14  8  1  0  0  0  0
 16 19  2  0  0  0  0
 17 18  1  0  0  0  0
 17 15  1  0  0  0  0
 18 20  1  0  0  0  0
 19 17  1  0  0  0  0
 19 18  1  0  0  0  0
 20 21  2  0  0  0  0
 22 21  1  0  0  0  0
 23 24  1  0  0  0  0
 23 22  1  0  0  0  0
 25 23  1  0  0  0  0
 26 27  1  6  0  0  0
 26 28  1  0  0  0  0
 29 30  1  6  0  0  0
 29 28  1  0  0  0  0
 29 32  1  0  0  0  0
 32 31  1  1  0  0  0
 32 33  1  0  0  0  0
 33 36  1  6  0  0  0
 33 38  1  0  0  0  0
 34 36  2  0  0  0  0
 36 35  1  0  0  0  0
 38 37  1  0  0  0  0
 39 40  1  0  0  0  0
 41 45  1  0  0  0  0
 41 44  1  0  0  0  0
 42 48  2  0  0  0  0
 43 41  2  0  0  0  0
 45 50  1  1  0  0  0
 46 40  1  0  0  0  0
 46 45  1  0  0  0  0
 47 46  2  0  0  0  0
 48 47  1  0  0  0  0
 48 43  1  0  0  0  0
 49 50  1  0  0  0  0
M  END
>  <MODEL>
8

>  <REMARK>
 VINA RESULT:      -5.4      2.552      8.150
  Name = 
  19 active torsions:
  status: ('A' for Active; 'I' for Inactive)
    1  A    between atoms: C_1  and  C_2
    2  A    between atoms: C_1  and  C_14
    3  A    between atoms: C_2  and  C_31
    4  A    between atoms: C_3  and  C_22
    5  A    between atoms: S_4  and  C_36
    6  A    between atoms: S_4  and  C_40
    7  A    between atoms: C_5  and  C_14
    8  A    between atoms: O_6  and  C_15
    9  A    between atoms: O_6  and  C_34
   10  A    between atoms: N_7  and  C_50
   11  A    between atoms: C_15  and  N_42
   12  A    between atoms: C_16  and  C_31
   13  A    between atoms: C_16  and  O_32
   14  A    between atoms: C_16  and  C_41
   15  A    between atoms: C_22  and  C_37
   16  A    between atoms: C_25  and  C_33
   17  A    between atoms: C_28  and  N_49
   18  A    between atoms: C_29  and  N_43
   19  A    between atoms: C_40  and  C_48
                            x       y       z     vdW  Elec       q    Type
                         _______ _______ _______ _____ _____    ______ ____

>  <TORSDO>
F 19

$$$$
=
 OpenBabel11042419453D

 50 53  0  0  1  0  0  0  0  0999 V2000
  188.4350  173.9370  142.0710 C   0  0  1  0  0  3  0  0  0  0  0  0
  188.7610  175.1160  139.9900 O   0  0  0  0  0  1  0  0  0  0  0  0
  188.6590  173.9120  140.6960 C   0  0  1  0  0  0  0  0  0  0  0  0
  189.8410  173.7060  141.5770 N   0  0  0  0  0  0  0  0  0  0  0  0
  192.9550  171.6810  141.9580 C   0  0  0  0  0  3  0  0  0  0  0  0
  192.1980  174.3420  141.5680 C   0  0  0  0  0  3  0  0  0  0  0  0
  191.2130  173.3640  141.7480 C   0  0  0  0  0  0  0  0  0  0  0  0
  193.9420  172.6700  141.8010 C   0  0  0  0  0  0  0  0  0  0  0  0
  193.5530  173.9990  141.6080 C   0  0  0  0  0  3  0  0  0  0  0  0
  191.5870  172.0220  141.9510 C   0  0  0  0  0  0  0  0  0  0  0  0
  190.5680  171.0110  141.9860 N   0  0  0  0  0  0  0  0  0  0  0  0
  190.9280  168.5650  141.5490 O   0  0  0  0  0  0  0  0  0  0  0  0
  190.7630  169.7700  141.7630 C   0  0  0  0  0  0  0  0  0  0  0  0
  195.2990  172.3330  141.7650 O   0  0  0  0  0  0  0  0  0  0  0  0
  195.9390  171.7420  142.8880 C   0  0  0  0  0  2  0  0  0  0  0  0
  197.0820  172.7860  146.3390 O   0  0  0  0  0  0  0  0  0  0  0  0
  196.1930  172.7460  143.9060 N   0  0  0  0  0  0  0  0  0  0  0  0
  196.1740  174.0970  144.2960 N   0  0  0  0  0  0  0  0  0  0  0  0
  196.6170  173.1060  145.2100 C   0  0  0  0  0  0  0  0  0  0  0  0
  195.9950  175.4630  143.9310 C   0  0  0  0  0  3  0  0  0  0  0  0
  195.2500  176.2700  144.6950 C   0  0  0  0  0  3  0  0  0  0  0  0
  194.4370  175.7150  145.8350 C   0  0  0  0  0  2  0  0  0  0  0  0
  192.9660  175.5420  145.4400 C   0  0  0  0  0  3  0  0  0  0  0  0
  192.6550  176.4180  144.3990 O   0  0  0  0  0  1  0  0  0  0  0  0
  192.6940  174.2230  145.0450 O   0  0  0  0  0  1  0  0  0  0  0  0
  188.2690  175.3570  142.6210 C   0  0  2  0  0  3  0  0  0  0  0  0
  188.5620  175.4140  143.9810 O   0  0  0  0  0  1  0  0  0  0  0  0
  186.8520  175.8600  142.3840 C   0  0  0  0  0  2  0  0  0  0  0  0
  186.5720  177.2060  143.0670 C   0  0  1  0  0  3  0  0  0  0  0  0
  186.6800  178.3140  142.1210 N   0  0  0  0  0  1  0  0  0  0  0  0
  184.3110  178.0710  143.1620 O   0  0  0  0  0  1  0  0  0  0  0  0
  185.2190  177.2090  143.7870 C   0  0  2  0  0  3  0  0  0  0  0  0
  185.3650  177.5660  145.2720 C   0  0  2  0  0  3  0  0  0  0  0  0
  183.7660  179.0900  146.1660 O   0  0  0  0  0  1  0  0  0  0  0  0
  185.5060  180.0540  145.0370 O   0  0  0  0  0  0  0  0  0  0  0  0
  184.8370  178.9410  145.5230 C   0  0  0  0  0  0  0  0  0  0  0  0
  186.6970  176.8050  146.8910 C   0  0  0  0  0  1  0  0  0  0  0  0
  186.7110  177.4900  145.6680 O   0  0  0  0  0  0  0  0  0  0  0  0
  188.2850  172.6730  139.8780 C   0  0  0  0  0  2  0  0  0  0  0  0
  188.5940  172.8310  138.0770 S   0  0  0  0  0  0  0  0  0  0  0  0
  192.3420  171.1810  138.2630 C   0  0  0  0  0  0  0  0  0  0  0  0
  190.5300  168.1730  138.1330 O   0  0  0  0  0  0  0  0  0  0  0  0
  192.0480  169.8550  138.2430 N   0  0  0  0  0  0  0  0  0  0  0  0
  193.7040  171.5950  138.3540 N   0  0  0  0  0  1  0  0  0  0  0  0
  191.3120  172.1350  138.2000 C   0  0  2  0  0  3  0  0  0  0  0  0
  189.9780  171.6870  138.1310 C   0  0  0  0  0  0  0  0  0  0  0  0
  189.7080  170.3200  138.1200 C   0  0  0  0  0  3  0  0  0  0  0  0
  190.7640  169.4070  138.1690 C   0  0  0  0  0  0  0  0  0  0  0  0
  191.7710  173.9650  136.7060 N   0  0  0  0  0  1  0  0  0  0  0  0
  191.6360  173.5970  138.1050 C   0  0  0  0  0  2  0  0  0  0  0  0
  1 26  1  1  0  0  0
  3  2  1  6  0  0  0
  3  4  1  0  0  0  0
  3  1  1  0  0  0  0
  4  7  1  0  0  0  0
  4  1  1  0  0  0  0
  6  9  2  0  0  0  0
  6  7  1  0  0  0  0
  7 10  2  0  0  0  0
  8  5  2  0  0  0  0
  9  8  1  0  0  0  0
 10  5  1  0  0  0  0
 10 11  1  0  0  0  0
 12 13  2  0  0  0  0
 13 11  2  0  0  0  0
 14  8  1  0  0  0  0
 14 15  1  0  0  0  0
 15 17  1  0  0  0  0
 17 18  1  0  0  0  0
 17 19  1  0  0  0  0
 18 19  1  0  0  0  0
 19 16  2  0  0  0  0
 20 18  1  0  0  0  0
 20 21  2  0  0  0  0
 21 22  1  0  0  0  0
 23 22  1  0  0  0  0
 24 23  1  0  0  0  0
 25 23  1  0  0  0  0
 26 27  1  1  0  0  0
 28 26  1  0  0  0  0
 28 29  1  0  0  0  0
 29 30  1  6  0  0  0
 29 32  1  0  0  0  0
 32 31  1  6  0  0  0
 32 33  1  0  0  0  0
 33 36  1  6  0  0  0
 33 38  1  0  0  0  0
 35 36  2  0  0  0  0
 36 34  1  0  0  0  0
 38 37  1  0  0  0  0
 39  3  1  0  0  0  0
 40 46  1  0  0  0  0
 40 39  1  0  0  0  0
 41 44  1  0  0  0  0
 42 48  2  0  0  0  0
 43 41  2  0  0  0  0
 45 50  1  6  0  0  0
 45 41  1  0  0  0  0
 46 45  1  0  0  0  0
 47 46  2  0  0  0  0
 47 48  1  0  0  0  0
 48 43  1  0  0  0  0
 49 50  1  0  0  0  0
M  END
>  <MODEL>
9

>  <REMARK>
 VINA RESULT:      -5.4      2.891      8.719
  Name = 
  19 active torsions:
  status: ('A' for Active; 'I' for Inactive)
    1  A    between atoms: C_1  and  C_2
    2  A    between atoms: C_1  and  C_14
    3  A    between atoms: C_2  and  C_31
    4  A    between atoms: C_3  and  C_22
    5  A    between atoms: S_4  and  C_36
    6  A    between atoms: S_4  and  C_40
    7  A    between atoms: C_5  and  C_14
    8  A    between atoms: O_6  and  C_15
    9  A    between atoms: O_6  and  C_34
   10  A    between atoms: N_7  and  C_50
   11  A    between atoms: C_15  and  N_42
   12  A    between atoms: C_16  and  C_31
   13  A    between atoms: C_16  and  O_32
   14  A    between atoms: C_16  and  C_41
   15  A    between atoms: C_22  and  C_37
   16  A    between atoms: C_25  and  C_33
   17  A    between atoms: C_28  and  N_49
   18  A    between atoms: C_29  and  N_43
   19  A    between atoms: C_40  and  C_48
                            x       y       z     vdW  Elec       q    Type
                         _______ _______ _______ _____ _____    ______ ____

>  <TORSDO>
F 19

$$$$
