=
 OpenBabel11042415393D

 46 48  0  0  1  0  0  0  0  0999 V2000
  191.0640  178.3050  144.0490 F   0  0  0  0  0  0  0  0  0  0  0  0
  191.5260  177.0300  143.9470 C   0  0  0  0  0  0  0  0  0  0  0  0
  192.2320  176.6890  142.8640 C   0  0  0  0  0  3  0  0  0  0  0  0
  192.0370  176.5040  146.3110 C   0  0  0  0  0  2  0  0  0  0  0  0
  189.8140  176.0170  145.4420 C   0  0  2  0  0  3  0  0  0  0  0  0
  191.2890  176.0630  145.0700 C   0  0  1  0  0  3  0  0  0  0  0  0
  191.1590  176.0920  147.4680 C   0  0  1  0  0  3  0  0  0  0  0  0
  191.3440  177.0470  148.6280 C   0  0  0  0  0  1  0  0  0  0  0  0
  189.7360  176.1700  146.9510 C   0  0  0  0  0  2  0  0  0  0  0  0
  189.2110  174.6840  145.0360 C   0  0  0  0  0  2  0  0  0  0  0  0
  190.1200  173.9480  144.2690 O   0  0  0  0  0  0  0  0  0  0  0  0
  188.8340  172.4200  143.1750 O   0  0  0  0  0  1  0  0  0  0  0  0
  189.4450  173.6700  143.0790 C   0  0  1  0  0  3  0  0  0  0  0  0
  188.4310  174.6870  142.8320 N   0  0  0  0  0  2  0  0  0  0  0  0
  188.8840  175.5060  141.7160 C   0  0  0  0  0  2  0  0  0  0  0  0
  187.2340  176.6370  140.4250 O   0  0  0  0  0  0  0  0  0  0  0  0
  187.8220  177.6830  142.4260 N   0  0  0  0  0  2  0  0  0  0  0  0
  187.9270  176.6220  141.4760 C   0  0  0  0  0  0  0  0  0  0  0  0
  186.9560  178.7120  142.2480 O   0  0  0  0  0  0  0  0  0  0  0  0
  185.5320  180.0390  144.0120 O   0  0  0  0  0  1  0  0  0  0  0  0
  185.8930  178.6390  143.5690 P   0  0  1  0  0  0  0  0  0  0  0  0
  184.4900  177.8030  143.1280 O   0  0  0  0  0  0  0  0  0  0  0  0
  186.6690  177.8100  144.8630 O   0  0  0  0  0  0  0  0  0  0  0  0
  186.0570  177.5800  146.0990 C   0  0  0  0  0  0  0  0  0  0  0  0
  185.3130  176.5740  146.2360 O   0  0  0  0  0  0  0  0  0  0  0  0
  186.2570  178.4890  147.2650 C   0  0  0  0  0  1  0  0  0  0  0  0
  192.7980  175.3160  142.6600 C   0  0  0  0  0  2  0  0  0  0  0  0
  193.1390  174.4410  140.3360 C   0  0  0  0  0  0  0  0  0  0  0  0
  191.8510  173.8170  140.3790 N   0  0  0  0  0  2  0  0  0  0  0  0
  193.9000  174.2500  139.3470 O   0  0  0  0  0  0  0  0  0  0  0  0
  193.5670  175.2760  141.4240 N   0  0  0  0  0  0  0  0  0  0  0  0
  189.4870  172.6380  137.6990 C   0  0  2  0  0  3  0  0  0  0  0  0
  189.9560  173.1820  138.9900 C   0  0  1  0  0  3  0  0  0  0  0  0
  189.2080  171.9030  138.9630 N   0  0  2  0  0  0  0  0  0  0  0  0
  191.4010  172.8750  139.3670 C   0  0  2  0  0  3  0  0  0  0  0  0
  191.3720  171.4840  139.9360 C   0  0  0  0  0  2  0  0  0  0  0  0
  190.1800  170.8480  139.2690 C   0  0  0  0  0  2  0  0  0  0  0  0
  191.2760  173.0290  136.1490 O   0  0  0  0  0  1  0  0  0  0  0  0
  189.8930  171.1460  135.7380 C   0  0  0  0  0  1  0  0  0  0  0  0
  190.5610  172.0160  136.7860 C   0  0  2  0  0  3  0  0  0  0  0  0
  194.8560  175.9590  141.3810 C   0  0  0  0  0  2  0  0  0  0  0  0
  195.8240  175.3350  142.3780 C   0  0  0  0  0  2  0  0  0  0  0  0
  196.1820  176.2670  143.3930 O   0  0  0  0  0  0  0  0  0  0  0  0
  195.1860  177.3910  145.2010 C   0  0  0  0  0  2  0  0  0  0  0  0
  195.4720  174.9940  145.4570 C   0  0  0  0  0  1  0  0  0  0  0  0
  195.6120  176.2550  144.6710 C   0  0  0  0  0  0  0  0  0  0  0  0
  2  1  1  0  0  0  0
  3  2  2  0  0  0  0
  4  7  1  0  0  0  0
  5 10  1  1  0  0  0
  5  9  1  0  0  0  0
  6  2  1  6  0  0  0
  6  5  1  0  0  0  0
  6  4  1  0  0  0  0
  7  8  1  1  0  0  0
  9  7  1  0  0  0  0
 11 10  1  0  0  0  0
 13 12  1  1  0  0  0
 13 11  1  0  0  0  0
 14 13  1  0  0  0  0
 15 14  1  0  0  0  0
 16 18  2  0  0  0  0
 18 15  1  0  0  0  0
 18 17  1  0  0  0  0
 19 17  1  0  0  0  0
 19 21  1  0  0  0  0
 21 22  2  6  0  0  0
 21 20  1  0  0  0  0
 21 23  1  0  0  0  0
 23 24  1  0  0  0  0
 24 25  2  0  0  0  0
 24 26  1  0  0  0  0
 27  3  1  0  0  0  0
 28 29  1  0  0  0  0
 28 31  1  0  0  0  0
 30 28  2  0  0  0  0
 31 27  1  0  0  0  0
 32 40  1  6  0  0  0
 32 34  1  0  0  0  0
 32 33  1  0  0  0  0
 33 35  1  0  0  0  0
 34 33  1  0  0  0  0
 34 37  1  0  0  0  0
 35 36  1  0  0  0  0
 35 29  1  0  0  0  0
 37 36  1  0  0  0  0
 38 40  1  0  0  0  0
 39 40  1  0  0  0  0
 41 31  1  0  0  0  0
 41 42  1  0  0  0  0
 42 43  1  0  0  0  0
 43 46  1  0  0  0  0
 46 44  2  0  0  0  0
 46 45  1  0  0  0  0
M  END
>  <MODEL>
1

>  <REMARK>
 VINA RESULT:      -6.0      0.000      0.000
  Name = 
  19 active torsions:
  status: ('A' for Active; 'I' for Inactive)
    1  A    between atoms: C_2  and  C_7
    2  A    between atoms: C_2  and  N_24
    3  A    between atoms: C_6  and  C_23
    4  A    between atoms: C_6  and  N_43
    5  A    between atoms: C_7  and  O_8
    6  A    between atoms: O_8  and  C_45
    7  A    between atoms: C_10  and  O_30
    8  A    between atoms: C_11  and  C_36
    9  A    between atoms: N_13  and  C_37
   10  A    between atoms: C_14  and  C_34
   11  A    between atoms: O_15  and  C_34
   12  A    between atoms: O_15  and  C_46
   13  A    between atoms: C_18  and  C_27
   14  A    between atoms: C_21  and  C_26
   15  A    between atoms: N_22  and  O_31
   16  A    between atoms: N_24  and  C_26
   17  A    between atoms: O_30  and  P_38
   18  A    between atoms: O_31  and  P_38
   19  A    between atoms: N_43  and  C_46
                            x       y       z     vdW  Elec       q    Type
                         _______ _______ _______ _____ _____    ______ ____

>  <TORSDO>
F 19

$$$$
=
 OpenBabel11042415393D

 46 48  0  0  1  0  0  0  0  0999 V2000
  188.9320  173.5780  146.9450 F   0  0  0  0  0  0  0  0  0  0  0  0
  189.8930  174.1450  146.1690 C   0  0  0  0  0  0  0  0  0  0  0  0
  190.2180  173.5540  145.0140 C   0  0  0  0  0  3  0  0  0  0  0  0
  191.9310  175.2110  147.0850 C   0  0  0  0  0  2  0  0  0  0  0  0
  190.6170  176.4040  145.4170 C   0  0  2  0  0  3  0  0  0  0  0  0
  190.5180  175.4430  146.5920 C   0  0  1  0  0  3  0  0  0  0  0  0
  192.6990  176.4440  146.6740 C   0  0  1  0  0  3  0  0  0  0  0  0
  194.1480  176.0920  146.4110 C   0  0  0  0  0  1  0  0  0  0  0  0
  192.0410  176.9320  145.3990 C   0  0  0  0  0  2  0  0  0  0  0  0
  189.6510  177.5620  145.6010 C   0  0  0  0  0  2  0  0  0  0  0  0
  188.8680  177.3680  146.7440 O   0  0  0  0  0  0  0  0  0  0  0  0
  187.1260  176.3180  145.7190 O   0  0  0  0  0  1  0  0  0  0  0  0
  187.5500  177.5100  146.3040 C   0  0  1  0  0  3  0  0  0  0  0  0
  186.6830  177.8330  147.4290 N   0  0  0  0  0  2  0  0  0  0  0  0
  186.0240  179.0990  147.1350 C   0  0  0  0  0  2  0  0  0  0  0  0
  184.0760  178.2940  146.0280 O   0  0  0  0  0  0  0  0  0  0  0  0
  185.5280  179.5490  144.7010 N   0  0  0  0  0  2  0  0  0  0  0  0
  185.1430  178.9560  145.9420 C   0  0  0  0  0  0  0  0  0  0  0  0
  184.7490  179.4490  143.5950 O   0  0  0  0  0  0  0  0  0  0  0  0
  185.2220  176.9250  143.0410 O   0  0  0  0  0  1  0  0  0  0  0  0
  185.5390  178.3330  142.5890 P   0  0  1  0  0  0  0  0  0  0  0  0
  185.0290  178.5440  140.9900 O   0  0  0  0  0  0  0  0  0  0  0  0
  187.2370  178.5980  142.6870 O   0  0  0  0  0  0  0  0  0  0  0  0
  188.1760  177.7890  142.0390 C   0  0  0  0  0  0  0  0  0  0  0  0
  189.3980  178.0800  142.1270 O   0  0  0  0  0  0  0  0  0  0  0  0
  187.7780  176.5890  141.2460 C   0  0  0  0  0  1  0  0  0  0  0  0
  191.2530  174.1040  144.0800 C   0  0  0  0  0  2  0  0  0  0  0  0
  191.5480  172.5190  142.1600 C   0  0  0  0  0  0  0  0  0  0  0  0
  190.5550  173.2340  141.4150 N   0  0  0  0  0  2  0  0  0  0  0  0
  192.0390  171.4530  141.6960 O   0  0  0  0  0  0  0  0  0  0  0  0
  191.9740  173.0120  143.4410 N   0  0  0  0  0  0  0  0  0  0  0  0
  190.5560  172.7790  137.6790 C   0  0  2  0  0  3  0  0  0  0  0  0
  190.6600  173.4480  138.9930 C   0  0  1  0  0  3  0  0  0  0  0  0
  189.5950  173.8560  138.0460 N   0  0  2  0  0  0  0  0  0  0  0  0
  190.0000  172.7350  140.1670 C   0  0  2  0  0  3  0  0  0  0  0  0
  188.5430  173.0920  140.0750 C   0  0  0  0  0  2  0  0  0  0  0  0
  188.3330  173.3640  138.6070 C   0  0  0  0  0  2  0  0  0  0  0  0
  190.9360  170.4710  138.2110 O   0  0  0  0  0  1  0  0  0  0  0  0
  189.6650  170.9270  136.2610 C   0  0  0  0  0  1  0  0  0  0  0  0
  189.9900  171.3470  137.6810 C   0  0  2  0  0  3  0  0  0  0  0  0
  193.0160  172.3260  144.1970 C   0  0  0  0  0  2  0  0  0  0  0  0
  194.2670  173.1900  144.2860 C   0  0  0  0  0  2  0  0  0  0  0  0
  194.5820  173.7660  143.0220 O   0  0  0  0  0  0  0  0  0  0  0  0
  193.9530  175.9080  142.2900 C   0  0  0  0  0  2  0  0  0  0  0  0
  196.1540  175.7240  143.2960 C   0  0  0  0  0  1  0  0  0  0  0  0
  194.8590  175.1270  142.8550 C   0  0  0  0  0  0  0  0  0  0  0  0
  2  1  1  0  0  0  0
  3  2  2  0  0  0  0
  5 10  1  1  0  0  0
  5  6  1  0  0  0  0
  6  2  1  6  0  0  0
  6  4  1  0  0  0  0
  7  8  1  6  0  0  0
  7  4  1  0  0  0  0
  9  5  1  0  0  0  0
  9  7  1  0  0  0  0
 10 11  1  0  0  0  0
 13 12  1  1  0  0  0
 13 11  1  0  0  0  0
 13 14  1  0  0  0  0
 15 14  1  0  0  0  0
 17 18  1  0  0  0  0
 18 16  2  0  0  0  0
 18 15  1  0  0  0  0
 19 17  1  0  0  0  0
 21 22  2  6  0  0  0
 21 23  1  0  0  0  0
 21 20  1  0  0  0  0
 21 19  1  0  0  0  0
 24 25  2  0  0  0  0
 24 23  1  0  0  0  0
 26 24  1  0  0  0  0
 27  3  1  0  0  0  0
 28 31  1  0  0  0  0
 29 28  1  0  0  0  0
 30 28  2  0  0  0  0
 31 27  1  0  0  0  0
 31 41  1  0  0  0  0
 32 40  1  1  0  0  0
 32 34  1  0  0  0  0
 32 33  1  0  0  0  0
 33 35  1  0  0  0  0
 34 37  1  0  0  0  0
 34 33  1  0  0  0  0
 35 29  1  0  0  0  0
 36 35  1  0  0  0  0
 37 36  1  0  0  0  0
 39 40  1  0  0  0  0
 40 38  1  0  0  0  0
 41 42  1  0  0  0  0
 43 42  1  0  0  0  0
 44 46  2  0  0  0  0
 46 43  1  0  0  0  0
 46 45  1  0  0  0  0
M  END
>  <MODEL>
2

>  <REMARK>
 VINA RESULT:      -5.7      2.210      3.744
  Name = 
  19 active torsions:
  status: ('A' for Active; 'I' for Inactive)
    1  A    between atoms: C_2  and  C_7
    2  A    between atoms: C_2  and  N_24
    3  A    between atoms: C_6  and  C_23
    4  A    between atoms: C_6  and  N_43
    5  A    between atoms: C_7  and  O_8
    6  A    between atoms: O_8  and  C_45
    7  A    between atoms: C_10  and  O_30
    8  A    between atoms: C_11  and  C_36
    9  A    between atoms: N_13  and  C_37
   10  A    between atoms: C_14  and  C_34
   11  A    between atoms: O_15  and  C_34
   12  A    between atoms: O_15  and  C_46
   13  A    between atoms: C_18  and  C_27
   14  A    between atoms: C_21  and  C_26
   15  A    between atoms: N_22  and  O_31
   16  A    between atoms: N_24  and  C_26
   17  A    between atoms: O_30  and  P_38
   18  A    between atoms: O_31  and  P_38
   19  A    between atoms: N_43  and  C_46
                            x       y       z     vdW  Elec       q    Type
                         _______ _______ _______ _____ _____    ______ ____

>  <TORSDO>
F 19

$$$$
=
 OpenBabel11042415393D

 46 48  0  0  1  0  0  0  0  0999 V2000
  192.1790  177.4840  144.1880 F   0  0  0  0  0  0  0  0  0  0  0  0
  191.8570  176.2010  144.5030 C   0  0  0  0  0  0  0  0  0  0  0  0
  192.3170  175.2140  143.7270 C   0  0  0  0  0  3  0  0  0  0  0  0
  191.9220  176.0280  146.9720 C   0  0  0  0  0  2  0  0  0  0  0  0
  189.9360  176.9440  145.9000 C   0  0  2  0  0  3  0  0  0  0  0  0
  191.0510  175.9210  145.7380 C   0  0  1  0  0  3  0  0  0  0  0  0
  191.0170  176.5770  148.0480 C   0  0  1  0  0  3  0  0  0  0  0  0
  191.8170  177.4050  149.0310 C   0  0  0  0  0  1  0  0  0  0  0  0
  190.0080  177.4510  147.3300 C   0  0  0  0  0  2  0  0  0  0  0  0
  188.5850  176.2930  145.6610 C   0  0  0  0  0  2  0  0  0  0  0  0
  187.6180  177.2620  145.3760 O   0  0  0  0  0  0  0  0  0  0  0  0
  186.6910  178.4860  147.0590 O   0  0  0  0  0  1  0  0  0  0  0  0
  186.7430  177.2260  146.4640 C   0  0  1  0  0  3  0  0  0  0  0  0
  185.4090  176.8460  146.0170 N   0  0  0  0  0  2  0  0  0  0  0  0
  184.6250  178.0650  145.8680 C   0  0  0  0  0  2  0  0  0  0  0  0
  183.4920  179.2130  144.1160 O   0  0  0  0  0  0  0  0  0  0  0  0
  184.7840  177.3920  143.4400 N   0  0  0  0  0  2  0  0  0  0  0  0
  184.2670  178.2740  144.4360 C   0  0  0  0  0  0  0  0  0  0  0  0
  184.4900  177.5540  142.1260 O   0  0  0  0  0  0  0  0  0  0  0  0
  185.7180  178.6620  140.0850 O   0  0  0  0  0  0  0  0  0  0  0  0
  185.9690  177.9130  141.3750 P   0  0  1  0  0  0  0  0  0  0  0  0
  186.9180  178.8610  142.4060 O   0  0  0  0  0  1  0  0  0  0  0  0
  186.7920  176.4410  141.0330 O   0  0  0  0  0  0  0  0  0  0  0  0
  187.5690  175.7620  141.9760 C   0  0  0  0  0  0  0  0  0  0  0  0
  187.0140  174.9310  142.7410 O   0  0  0  0  0  0  0  0  0  0  0  0
  189.0380  175.9910  142.1080 C   0  0  0  0  0  1  0  0  0  0  0  0
  192.0310  173.7670  143.9940 C   0  0  0  0  0  2  0  0  0  0  0  0
  192.2510  172.4850  141.8520 C   0  0  0  0  0  0  0  0  0  0  0  0
  191.0060  173.0260  141.3970 N   0  0  0  0  0  2  0  0  0  0  0  0
  192.8460  171.6070  141.1660 O   0  0  0  0  0  0  0  0  0  0  0  0
  192.8160  172.9330  143.0950 N   0  0  0  0  0  0  0  0  0  0  0  0
  190.3640  172.9350  137.6900 C   0  0  2  0  0  3  0  0  0  0  0  0
  190.5920  173.4840  139.0430 C   0  0  1  0  0  3  0  0  0  0  0  0
  189.3030  173.7400  138.3560 N   0  0  2  0  0  0  0  0  0  0  0  0
  190.3260  172.5390  140.2090 C   0  0  2  0  0  3  0  0  0  0  0  0
  188.8370  172.5790  140.4160 C   0  0  0  0  0  2  0  0  0  0  0  0
  188.2950  172.9370  139.0560 C   0  0  0  0  0  2  0  0  0  0  0  0
  191.2780  170.7240  137.8630 O   0  0  0  0  0  1  0  0  0  0  0  0
  189.6180  171.0730  136.2040 C   0  0  0  0  0  1  0  0  0  0  0  0
  190.1000  171.4210  137.5990 C   0  0  2  0  0  3  0  0  0  0  0  0
  194.1060  172.4300  143.5540 C   0  0  0  0  0  2  0  0  0  0  0  0
  195.2450  173.1840  142.8800 C   0  0  0  0  0  2  0  0  0  0  0  0
  196.0830  173.8120  143.8440 O   0  0  0  0  0  0  0  0  0  0  0  0
  195.7930  176.1440  143.8420 C   0  0  0  0  0  2  0  0  0  0  0  0
  195.2910  175.0040  145.9250 C   0  0  0  0  0  1  0  0  0  0  0  0
  195.7320  174.9970  144.5000 C   0  0  0  0  0  0  0  0  0  0  0  0
  1  2  1  0  0  0  0
  3 27  1  0  0  0  0
  3  2  2  0  0  0  0
  4  7  1  0  0  0  0
  5 10  1  1  0  0  0
  5  9  1  0  0  0  0
  6  2  1  6  0  0  0
  6  5  1  0  0  0  0
  6  4  1  0  0  0  0
  7  8  1  1  0  0  0
  9  7  1  0  0  0  0
 11 10  1  0  0  0  0
 11 13  1  0  0  0  0
 13 12  1  6  0  0  0
 14 13  1  0  0  0  0
 15 14  1  0  0  0  0
 16 18  2  0  0  0  0
 17 18  1  0  0  0  0
 18 15  1  0  0  0  0
 19 17  1  0  0  0  0
 21 20  2  6  0  0  0
 21 19  1  0  0  0  0
 21 22  1  0  0  0  0
 23 21  1  0  0  0  0
 23 24  1  0  0  0  0
 24 26  1  0  0  0  0
 24 25  2  0  0  0  0
 28 31  1  0  0  0  0
 29 28  1  0  0  0  0
 30 28  2  0  0  0  0
 31 41  1  0  0  0  0
 31 27  1  0  0  0  0
 32 40  1  1  0  0  0
 32 34  1  0  0  0  0
 32 33  1  0  0  0  0
 33 35  1  0  0  0  0
 34 33  1  0  0  0  0
 34 37  1  0  0  0  0
 35 36  1  0  0  0  0
 35 29  1  0  0  0  0
 37 36  1  0  0  0  0
 39 40  1  0  0  0  0
 40 38  1  0  0  0  0
 42 41  1  0  0  0  0
 42 43  1  0  0  0  0
 43 46  1  0  0  0  0
 44 46  2  0  0  0  0
 46 45  1  0  0  0  0
M  END
>  <MODEL>
3

>  <REMARK>
 VINA RESULT:      -5.7      1.891      3.275
  Name = 
  19 active torsions:
  status: ('A' for Active; 'I' for Inactive)
    1  A    between atoms: C_2  and  C_7
    2  A    between atoms: C_2  and  N_24
    3  A    between atoms: C_6  and  C_23
    4  A    between atoms: C_6  and  N_43
    5  A    between atoms: C_7  and  O_8
    6  A    between atoms: O_8  and  C_45
    7  A    between atoms: C_10  and  O_30
    8  A    between atoms: C_11  and  C_36
    9  A    between atoms: N_13  and  C_37
   10  A    between atoms: C_14  and  C_34
   11  A    between atoms: O_15  and  C_34
   12  A    between atoms: O_15  and  C_46
   13  A    between atoms: C_18  and  C_27
   14  A    between atoms: C_21  and  C_26
   15  A    between atoms: N_22  and  O_31
   16  A    between atoms: N_24  and  C_26
   17  A    between atoms: O_30  and  P_38
   18  A    between atoms: O_31  and  P_38
   19  A    between atoms: N_43  and  C_46
                            x       y       z     vdW  Elec       q    Type
                         _______ _______ _______ _____ _____    ______ ____

>  <TORSDO>
F 19

$$$$
=
 OpenBabel11042415393D

 46 48  0  0  1  0  0  0  0  0999 V2000
  192.2550  177.3150  142.3770 F   0  0  0  0  0  0  0  0  0  0  0  0
  192.1890  176.0820  142.9460 C   0  0  0  0  0  0  0  0  0  0  0  0
  191.1480  175.2950  142.6550 C   0  0  0  0  0  3  0  0  0  0  0  0
  194.6130  175.5980  143.0660 C   0  0  0  0  0  2  0  0  0  0  0  0
  193.4990  176.5600  145.0070 C   0  0  2  0  0  3  0  0  0  0  0  0
  193.3060  175.6130  143.8310 C   0  0  1  0  0  3  0  0  0  0  0  0
  195.6690  175.9660  144.0800 C   0  0  1  0  0  3  0  0  0  0  0  0
  196.8110  176.6940  143.4040 C   0  0  0  0  0  1  0  0  0  0  0  0
  194.9820  176.8820  145.0740 C   0  0  0  0  0  2  0  0  0  0  0  0
  193.0680  175.8890  146.2990 C   0  0  0  0  0  2  0  0  0  0  0  0
  191.9450  176.5290  146.8320 O   0  0  0  0  0  0  0  0  0  0  0  0
  190.3990  175.1220  147.7360 O   0  0  0  0  0  1  0  0  0  0  0  0
  190.8760  175.6760  146.5490 C   0  0  1  0  0  3  0  0  0  0  0  0
  189.8060  176.4190  145.8970 N   0  0  0  0  0  2  0  0  0  0  0  0
  189.1640  177.2530  146.9030 C   0  0  0  0  0  2  0  0  0  0  0  0
  186.9850  178.1030  147.3490 O   0  0  0  0  0  0  0  0  0  0  0  0
  187.1580  176.7520  145.4550 N   0  0  0  0  0  2  0  0  0  0  0  0
  187.7150  177.4100  146.5930 C   0  0  0  0  0  0  0  0  0  0  0  0
  185.8460  176.8770  145.1340 O   0  0  0  0  0  0  0  0  0  0  0  0
  184.5700  177.6150  142.9590 O   0  0  0  0  0  0  0  0  0  0  0  0
  185.8120  177.8950  143.7760 P   0  0  1  0  0  0  0  0  0  0  0  0
  185.8110  179.5120  144.2730 O   0  0  0  0  0  1  0  0  0  0  0  0
  187.2090  177.5930  142.8170 O   0  0  0  0  0  0  0  0  0  0  0  0
  187.2710  176.5810  141.8550 C   0  0  0  0  0  0  0  0  0  0  0  0
  187.1970  176.8900  140.6360 O   0  0  0  0  0  0  0  0  0  0  0  0
  187.4240  175.1430  142.2230 C   0  0  0  0  0  1  0  0  0  0  0  0
  190.9870  173.9150  143.2170 C   0  0  0  0  0  2  0  0  0  0  0  0
  191.3600  172.6560  141.0820 C   0  0  0  0  0  0  0  0  0  0  0  0
  190.3400  173.4320  140.4430 N   0  0  0  0  0  2  0  0  0  0  0  0
  191.9000  171.6950  140.4670 O   0  0  0  0  0  0  0  0  0  0  0  0
  191.7580  172.9650  142.4270 N   0  0  0  0  0  0  0  0  0  0  0  0
  190.5790  173.1630  136.6970 C   0  0  2  0  0  3  0  0  0  0  0  0
  190.6900  173.7370  138.0540 C   0  0  1  0  0  3  0  0  0  0  0  0
  189.8020  174.3810  137.0570 N   0  0  2  0  0  0  0  0  0  0  0  0
  189.8130  173.1050  139.1280 C   0  0  2  0  0  3  0  0  0  0  0  0
  188.4580  173.7300  138.9480 C   0  0  0  0  0  2  0  0  0  0  0  0
  188.4280  174.1070  137.4890 C   0  0  0  0  0  2  0  0  0  0  0  0
  190.5120  170.7920  137.0530 O   0  0  0  0  0  1  0  0  0  0  0  0
  189.4340  171.6150  135.1070 C   0  0  0  0  0  1  0  0  0  0  0  0
  189.7640  171.8630  136.5660 C   0  0  2  0  0  3  0  0  0  0  0  0
  192.8270  172.2180  143.0810 C   0  0  0  0  0  2  0  0  0  0  0  0
  192.5010  171.9970  144.5530 C   0  0  0  0  0  2  0  0  0  0  0  0
  193.5450  172.4890  145.3870 O   0  0  0  0  0  0  0  0  0  0  0  0
  195.8940  172.4960  145.4540 C   0  0  0  0  0  2  0  0  0  0  0  0
  194.8190  170.3560  145.8450 C   0  0  0  0  0  1  0  0  0  0  0  0
  194.7610  171.8180  145.5550 C   0  0  0  0  0  0  0  0  0  0  0  0
  1  2  1  0  0  0  0
  3  2  2  0  0  0  0
  3 27  1  0  0  0  0
  4  6  1  0  0  0  0
  4  7  1  0  0  0  0
  5  9  1  0  0  0  0
  5 10  1  1  0  0  0
  6  2  1  6  0  0  0
  6  5  1  0  0  0  0
  7  8  1  6  0  0  0
  7  9  1  0  0  0  0
 10 11  1  0  0  0  0
 13 11  1  0  0  0  0
 13 12  1  1  0  0  0
 14 13  1  0  0  0  0
 14 15  1  0  0  0  0
 17 18  1  0  0  0  0
 18 15  1  0  0  0  0
 18 16  2  0  0  0  0
 19 17  1  0  0  0  0
 21 20  2  6  0  0  0
 21 22  1  0  0  0  0
 21 19  1  0  0  0  0
 23 21  1  0  0  0  0
 24 26  1  0  0  0  0
 24 23  1  0  0  0  0
 25 24  2  0  0  0  0
 28 31  1  0  0  0  0
 29 28  1  0  0  0  0
 30 28  2  0  0  0  0
 31 41  1  0  0  0  0
 31 27  1  0  0  0  0
 32 40  1  1  0  0  0
 32 34  1  0  0  0  0
 32 33  1  0  0  0  0
 33 35  1  0  0  0  0
 34 37  1  0  0  0  0
 34 33  1  0  0  0  0
 35 29  1  0  0  0  0
 36 35  1  0  0  0  0
 37 36  1  0  0  0  0
 39 40  1  0  0  0  0
 40 38  1  0  0  0  0
 41 42  1  0  0  0  0
 42 43  1  0  0  0  0
 43 46  1  0  0  0  0
 44 46  2  0  0  0  0
 46 45  1  0  0  0  0
M  END
>  <MODEL>
4

>  <REMARK>
 VINA RESULT:      -5.7      2.211      4.019
  Name = 
  19 active torsions:
  status: ('A' for Active; 'I' for Inactive)
    1  A    between atoms: C_2  and  C_7
    2  A    between atoms: C_2  and  N_24
    3  A    between atoms: C_6  and  C_23
    4  A    between atoms: C_6  and  N_43
    5  A    between atoms: C_7  and  O_8
    6  A    between atoms: O_8  and  C_45
    7  A    between atoms: C_10  and  O_30
    8  A    between atoms: C_11  and  C_36
    9  A    between atoms: N_13  and  C_37
   10  A    between atoms: C_14  and  C_34
   11  A    between atoms: O_15  and  C_34
   12  A    between atoms: O_15  and  C_46
   13  A    between atoms: C_18  and  C_27
   14  A    between atoms: C_21  and  C_26
   15  A    between atoms: N_22  and  O_31
   16  A    between atoms: N_24  and  C_26
   17  A    between atoms: O_30  and  P_38
   18  A    between atoms: O_31  and  P_38
   19  A    between atoms: N_43  and  C_46
                            x       y       z     vdW  Elec       q    Type
                         _______ _______ _______ _____ _____    ______ ____

>  <TORSDO>
F 19

$$$$
=
 OpenBabel11042415393D

 46 48  0  0  1  0  0  0  0  0999 V2000
  194.2250  177.3440  147.0880 F   0  0  0  0  0  0  0  0  0  0  0  0
  193.9720  176.2290  146.3510 C   0  0  0  0  0  0  0  0  0  0  0  0
  194.9860  175.4080  146.0620 C   0  0  0  0  0  3  0  0  0  0  0  0
  191.6050  176.2000  147.0750 C   0  0  0  0  0  2  0  0  0  0  0  0
  192.1340  176.8010  144.7740 C   0  0  2  0  0  3  0  0  0  0  0  0
  192.5640  175.9180  145.9370 C   0  0  1  0  0  3  0  0  0  0  0  0
  190.3390  176.6880  146.4130 C   0  0  1  0  0  3  0  0  0  0  0  0
  189.6180  177.6620  147.3200 C   0  0  0  0  0  1  0  0  0  0  0  0
  190.7840  177.3900  145.1440 C   0  0  0  0  0  2  0  0  0  0  0  0
  191.9970  175.9740  143.5080 C   0  0  0  0  0  2  0  0  0  0  0  0
  191.7200  174.6400  143.8220 O   0  0  0  0  0  0  0  0  0  0  0  0
  189.7310  173.5660  143.5450 O   0  0  0  0  0  1  0  0  0  0  0  0
  190.7590  174.2430  142.8900 C   0  0  1  0  0  3  0  0  0  0  0  0
  190.2140  175.4090  142.2100 N   0  0  0  0  0  2  0  0  0  0  0  0
  188.7630  175.2820  142.1990 C   0  0  0  0  0  2  0  0  0  0  0  0
  188.8300  177.6420  141.8870 O   0  0  0  0  0  0  0  0  0  0  0  0
  186.7380  176.6560  141.5780 N   0  0  0  0  0  2  0  0  0  0  0  0
  188.1330  176.5940  141.8750 C   0  0  0  0  0  0  0  0  0  0  0  0
  186.1300  177.8280  141.2690 O   0  0  0  0  0  0  0  0  0  0  0  0
  185.5300  179.5010  143.2030 O   0  0  0  0  0  1  0  0  0  0  0  0
  185.1270  178.1770  142.5930 P   0  0  1  0  0  0  0  0  0  0  0  0
  183.5160  178.2520  142.0860 O   0  0  0  0  0  0  0  0  0  0  0  0
  185.2990  176.9290  143.7660 O   0  0  0  0  0  0  0  0  0  0  0  0
  185.9050  177.1280  145.0110 C   0  0  0  0  0  0  0  0  0  0  0  0
  187.0770  177.5860  145.0550 O   0  0  0  0  0  0  0  0  0  0  0  0
  185.2070  176.8140  146.2910 C   0  0  0  0  0  1  0  0  0  0  0  0
  194.8140  174.1480  145.2690 C   0  0  0  0  0  2  0  0  0  0  0  0
  196.1140  173.6650  143.1810 C   0  0  0  0  0  0  0  0  0  0  0  0
  194.9950  174.0760  142.3870 N   0  0  0  0  0  2  0  0  0  0  0  0
  197.1360  173.1750  142.6260 O   0  0  0  0  0  0  0  0  0  0  0  0
  196.0650  173.8010  144.6110 N   0  0  0  0  0  0  0  0  0  0  0  0
  195.7030  175.0290  138.8150 C   0  0  2  0  0  3  0  0  0  0  0  0
  195.2860  175.1590  140.2280 C   0  0  1  0  0  3  0  0  0  0  0  0
  194.2920  175.3680  139.1480 N   0  0  2  0  0  0  0  0  0  0  0  0
  194.9340  173.8650  140.9500 C   0  0  2  0  0  3  0  0  0  0  0  0
  193.5220  173.5560  140.5360 C   0  0  0  0  0  2  0  0  0  0  0  0
  193.3920  174.2110  139.1850 C   0  0  0  0  0  2  0  0  0  0  0  0
  197.0860  173.0700  138.9050 O   0  0  0  0  0  1  0  0  0  0  0  0
  196.1450  173.6250  136.7990 C   0  0  0  0  0  1  0  0  0  0  0  0
  195.9450  173.5970  138.3020 C   0  0  2  0  0  3  0  0  0  0  0  0
  197.2110  173.4320  145.4360 C   0  0  0  0  0  2  0  0  0  0  0  0
  196.9290  172.1410  146.1940 C   0  0  0  0  0  2  0  0  0  0  0  0
  197.0460  171.0100  145.3370 O   0  0  0  0  0  0  0  0  0  0  0  0
  194.8200  170.3630  144.9550 C   0  0  0  0  0  2  0  0  0  0  0  0
  196.3780  168.5780  145.4780 C   0  0  0  0  0  1  0  0  0  0  0  0
  196.0640  170.0180  145.2480 C   0  0  0  0  0  0  0  0  0  0  0  0
  2  1  1  0  0  0  0
  3  2  2  0  0  0  0
  5 10  1  6  0  0  0
  5  9  1  0  0  0  0
  5  6  1  0  0  0  0
  6  2  1  1  0  0  0
  6  4  1  0  0  0  0
  7  4  1  0  0  0  0
  7  8  1  1  0  0  0
  9  7  1  0  0  0  0
 10 11  1  0  0  0  0
 13 12  1  1  0  0  0
 13 11  1  0  0  0  0
 14 13  1  0  0  0  0
 15 14  1  0  0  0  0
 17 18  1  0  0  0  0
 18 16  2  0  0  0  0
 18 15  1  0  0  0  0
 19 17  1  0  0  0  0
 19 21  1  0  0  0  0
 21 22  2  6  0  0  0
 21 20  1  0  0  0  0
 21 23  1  0  0  0  0
 23 24  1  0  0  0  0
 24 25  2  0  0  0  0
 24 26  1  0  0  0  0
 27  3  1  0  0  0  0
 28 31  1  0  0  0  0
 29 28  1  0  0  0  0
 30 28  2  0  0  0  0
 31 27  1  0  0  0  0
 31 41  1  0  0  0  0
 32 40  1  1  0  0  0
 32 34  1  0  0  0  0
 32 33  1  0  0  0  0
 33 35  1  0  0  0  0
 34 37  1  0  0  0  0
 34 33  1  0  0  0  0
 35 29  1  0  0  0  0
 36 35  1  0  0  0  0
 37 36  1  0  0  0  0
 39 40  1  0  0  0  0
 40 38  1  0  0  0  0
 41 42  1  0  0  0  0
 43 42  1  0  0  0  0
 44 46  2  0  0  0  0
 46 43  1  0  0  0  0
 46 45  1  0  0  0  0
M  END
>  <MODEL>
5

>  <REMARK>
 VINA RESULT:      -5.7      2.597      3.952
  Name = 
  19 active torsions:
  status: ('A' for Active; 'I' for Inactive)
    1  A    between atoms: C_2  and  C_7
    2  A    between atoms: C_2  and  N_24
    3  A    between atoms: C_6  and  C_23
    4  A    between atoms: C_6  and  N_43
    5  A    between atoms: C_7  and  O_8
    6  A    between atoms: O_8  and  C_45
    7  A    between atoms: C_10  and  O_30
    8  A    between atoms: C_11  and  C_36
    9  A    between atoms: N_13  and  C_37
   10  A    between atoms: C_14  and  C_34
   11  A    between atoms: O_15  and  C_34
   12  A    between atoms: O_15  and  C_46
   13  A    between atoms: C_18  and  C_27
   14  A    between atoms: C_21  and  C_26
   15  A    between atoms: N_22  and  O_31
   16  A    between atoms: N_24  and  C_26
   17  A    between atoms: O_30  and  P_38
   18  A    between atoms: O_31  and  P_38
   19  A    between atoms: N_43  and  C_46
                            x       y       z     vdW  Elec       q    Type
                         _______ _______ _______ _____ _____    ______ ____

>  <TORSDO>
F 19

$$$$
=
 OpenBabel11042415393D

 46 48  0  0  1  0  0  0  0  0999 V2000
  190.7160  171.5880  144.1920 F   0  0  0  0  0  0  0  0  0  0  0  0
  191.1540  172.8650  144.3580 C   0  0  0  0  0  0  0  0  0  0  0  0
  190.2790  173.7980  144.7450 C   0  0  0  0  0  3  0  0  0  0  0  0
  193.3950  172.8200  145.4070 C   0  0  0  0  0  2  0  0  0  0  0  0
  193.1920  172.3610  143.0230 C   0  0  2  0  0  3  0  0  0  0  0  0
  192.6080  173.1810  144.1640 C   0  0  1  0  0  3  0  0  0  0  0  0
  194.7390  172.3550  144.9010 C   0  0  1  0  0  3  0  0  0  0  0  0
  195.3210  171.3200  145.8420 C   0  0  0  0  0  1  0  0  0  0  0  0
  194.4750  171.7340  143.5430 C   0  0  0  0  0  2  0  0  0  0  0  0
  193.5110  173.2580  141.8400 C   0  0  0  0  0  2  0  0  0  0  0  0
  194.8880  173.4880  141.7570 O   0  0  0  0  0  0  0  0  0  0  0  0
  194.9210  172.4960  139.7070 O   0  0  0  0  0  1  0  0  0  0  0  0
  195.1380  173.6880  140.3980 C   0  0  1  0  0  3  0  0  0  0  0  0
  194.2520  174.7190  139.8750 N   0  0  0  0  0  2  0  0  0  0  0  0
  194.5100  174.8460  138.4470 C   0  0  0  0  0  2  0  0  0  0  0  0
  193.0880  175.7920  136.7880 O   0  0  0  0  0  0  0  0  0  0  0  0
  192.1480  174.0570  138.0340 N   0  0  0  0  0  2  0  0  0  0  0  0
  193.2250  174.9330  137.6980 C   0  0  0  0  0  0  0  0  0  0  0  0
  190.9660  174.0990  137.3700 O   0  0  0  0  0  0  0  0  0  0  0  0
  188.6620  174.1800  138.6300 O   0  0  0  0  0  1  0  0  0  0  0  0
  189.8590  173.2920  138.3730 P   0  0  1  0  0  0  0  0  0  0  0  0
  189.3540  171.8590  137.6300 O   0  0  0  0  0  0  0  0  0  0  0  0
  190.6280  172.9200  139.8670 O   0  0  0  0  0  0  0  0  0  0  0  0
  190.0960  172.0250  140.8000 C   0  0  0  0  0  0  0  0  0  0  0  0
  189.0970  172.3740  141.4810 O   0  0  0  0  0  0  0  0  0  0  0  0
  190.6730  170.6660  141.0150 C   0  0  0  0  0  1  0  0  0  0  0  0
  190.6600  175.2300  144.9700 C   0  0  0  0  0  2  0  0  0  0  0  0
  189.0030  176.5920  143.6740 C   0  0  0  0  0  0  0  0  0  0  0  0
  188.1030  176.5610  144.7880 N   0  0  0  0  0  2  0  0  0  0  0  0
  188.6370  177.1080  142.5820 O   0  0  0  0  0  0  0  0  0  0  0  0
  190.3170  176.0240  143.7990 N   0  0  0  0  0  0  0  0  0  0  0  0
  185.4540  179.1380  144.0730 C   0  0  2  0  0  3  0  0  0  0  0  0
  186.6950  178.5380  144.6070 C   0  0  1  0  0  3  0  0  0  0  0  0
  185.6590  179.0330  145.5440 N   0  0  2  0  0  0  0  0  0  0  0  0
  186.7260  177.0170  144.6980 C   0  0  2  0  0  3  0  0  0  0  0  0
  185.9900  176.6840  145.9650 C   0  0  0  0  0  2  0  0  0  0  0  0
  185.0470  177.8450  146.1490 C   0  0  0  0  0  2  0  0  0  0  0  0
  184.9220  177.6450  142.2720 O   0  0  0  0  0  1  0  0  0  0  0  0
  183.1310  178.8990  143.1910 C   0  0  0  0  0  1  0  0  0  0  0  0
  184.4270  178.1630  143.4680 C   0  0  2  0  0  3  0  0  0  0  0  0
  191.2660  176.0850  142.6930 C   0  0  0  0  0  2  0  0  0  0  0  0
  192.4280  177.0070  143.0380 C   0  0  0  0  0  2  0  0  0  0  0  0
  193.6530  176.2830  143.1010 O   0  0  0  0  0  0  0  0  0  0  0  0
  193.9840  176.6710  145.3950 C   0  0  0  0  0  2  0  0  0  0  0  0
  195.9120  175.8720  144.1550 C   0  0  0  0  0  1  0  0  0  0  0  0
  194.4800  176.2880  144.2290 C   0  0  0  0  0  0  0  0  0  0  0  0
  1  2  1  0  0  0  0
  2  3  2  0  0  0  0
  3 27  1  0  0  0  0
  5 10  1  6  0  0  0
  5  9  1  0  0  0  0
  5  6  1  0  0  0  0
  6  2  1  1  0  0  0
  6  4  1  0  0  0  0
  7  4  1  0  0  0  0
  7  8  1  1  0  0  0
  9  7  1  0  0  0  0
 11 10  1  0  0  0  0
 13 12  1  6  0  0  0
 13 11  1  0  0  0  0
 14 13  1  0  0  0  0
 15 14  1  0  0  0  0
 16 18  2  0  0  0  0
 18 17  1  0  0  0  0
 18 15  1  0  0  0  0
 19 17  1  0  0  0  0
 19 21  1  0  0  0  0
 21 22  2  6  0  0  0
 21 20  1  0  0  0  0
 21 23  1  0  0  0  0
 23 24  1  0  0  0  0
 24 26  1  0  0  0  0
 24 25  2  0  0  0  0
 28 31  1  0  0  0  0
 28 29  1  0  0  0  0
 30 28  2  0  0  0  0
 31 27  1  0  0  0  0
 32 40  1  6  0  0  0
 32 33  1  0  0  0  0
 32 34  1  0  0  0  0
 33 35  1  0  0  0  0
 33 34  1  0  0  0  0
 34 37  1  0  0  0  0
 35 29  1  0  0  0  0
 35 36  1  0  0  0  0
 36 37  1  0  0  0  0
 38 40  1  0  0  0  0
 39 40  1  0  0  0  0
 41 42  1  0  0  0  0
 41 31  1  0  0  0  0
 42 43  1  0  0  0  0
 43 46  1  0  0  0  0
 45 46  1  0  0  0  0
 46 44  2  0  0  0  0
M  END
>  <MODEL>
6

>  <REMARK>
 VINA RESULT:      -5.4      2.868      7.217
  Name = 
  19 active torsions:
  status: ('A' for Active; 'I' for Inactive)
    1  A    between atoms: C_2  and  C_7
    2  A    between atoms: C_2  and  N_24
    3  A    between atoms: C_6  and  C_23
    4  A    between atoms: C_6  and  N_43
    5  A    between atoms: C_7  and  O_8
    6  A    between atoms: O_8  and  C_45
    7  A    between atoms: C_10  and  O_30
    8  A    between atoms: C_11  and  C_36
    9  A    between atoms: N_13  and  C_37
   10  A    between atoms: C_14  and  C_34
   11  A    between atoms: O_15  and  C_34
   12  A    between atoms: O_15  and  C_46
   13  A    between atoms: C_18  and  C_27
   14  A    between atoms: C_21  and  C_26
   15  A    between atoms: N_22  and  O_31
   16  A    between atoms: N_24  and  C_26
   17  A    between atoms: O_30  and  P_38
   18  A    between atoms: O_31  and  P_38
   19  A    between atoms: N_43  and  C_46
                            x       y       z     vdW  Elec       q    Type
                         _______ _______ _______ _____ _____    ______ ____

>  <TORSDO>
F 19

$$$$
=
 OpenBabel11042415393D

 46 48  0  0  1  0  0  0  0  0999 V2000
  189.6910  178.2110  147.6330 F   0  0  0  0  0  0  0  0  0  0  0  0
  189.4720  177.2090  146.7410 C   0  0  0  0  0  0  0  0  0  0  0  0
  188.4420  177.3150  145.8960 C   0  0  0  0  0  3  0  0  0  0  0  0
  189.6550  174.7490  146.5270 C   0  0  0  0  0  2  0  0  0  0  0  0
  191.3430  176.1590  145.4810 C   0  0  2  0  0  3  0  0  0  0  0  0
  190.4200  176.0470  146.6850 C   0  0  1  0  0  3  0  0  0  0  0  0
  190.5390  173.8720  145.6740 C   0  0  1  0  0  3  0  0  0  0  0  0
  189.6930  172.9310  144.8430 C   0  0  0  0  0  1  0  0  0  0  0  0
  191.3080  174.8170  144.7720 C   0  0  0  0  0  2  0  0  0  0  0  0
  192.7630  176.4560  145.9320 C   0  0  0  0  0  2  0  0  0  0  0  0
  193.5970  176.6490  144.8260 O   0  0  0  0  0  0  0  0  0  0  0  0
  195.0000  175.3280  146.0400 O   0  0  0  0  0  1  0  0  0  0  0  0
  194.8940  176.5220  145.3280 C   0  0  1  0  0  3  0  0  0  0  0  0
  195.8540  176.5190  144.2330 N   0  0  0  0  0  2  0  0  0  0  0  0
  195.5040  175.4270  143.3350 C   0  0  0  0  0  2  0  0  0  0  0  0
  196.1670  176.9050  141.5900 O   0  0  0  0  0  0  0  0  0  0  0  0
  194.6400  175.2530  140.9690 N   0  0  0  0  0  2  0  0  0  0  0  0
  195.4740  175.9090  141.9250 C   0  0  0  0  0  0  0  0  0  0  0  0
  194.5930  175.6550  139.6750 O   0  0  0  0  0  0  0  0  0  0  0  0
  195.0840  174.6540  137.2960 O   0  0  0  0  0  0  0  0  0  0  0  0
  195.0470  174.2960  138.7650 P   0  0  1  0  0  0  0  0  0  0  0  0
  196.5750  173.7640  139.2590 O   0  0  0  0  0  1  0  0  0  0  0  0
  193.8960  173.0440  139.0210 O   0  0  0  0  0  0  0  0  0  0  0  0
  193.9130  171.8330  138.3210 C   0  0  0  0  0  0  0  0  0  0  0  0
  194.9950  171.1950  138.2300 O   0  0  0  0  0  0  0  0  0  0  0  0
  192.6910  171.2720  137.6760 C   0  0  0  0  0  1  0  0  0  0  0  0
  188.1220  176.2740  144.8670 C   0  0  0  0  0  2  0  0  0  0  0  0
  187.9720  176.3520  142.3660 C   0  0  0  0  0  0  0  0  0  0  0  0
  188.5790  175.0570  142.2870 N   0  0  0  0  0  2  0  0  0  0  0  0
  187.7340  177.0020  141.3110 O   0  0  0  0  0  0  0  0  0  0  0  0
  187.6450  176.9120  143.6480 N   0  0  0  0  0  0  0  0  0  0  0  0
  188.3100  172.6670  139.3920 C   0  0  2  0  0  3  0  0  0  0  0  0
  188.3120  173.1600  140.7850 C   0  0  1  0  0  3  0  0  0  0  0  0
  189.3190  172.1580  140.3620 N   0  0  2  0  0  0  0  0  0  0  0  0
  189.0350  174.4790  141.0330 C   0  0  2  0  0  3  0  0  0  0  0  0
  190.4900  174.1170  141.1330 C   0  0  0  0  0  2  0  0  0  0  0  0
  190.6050  172.8600  140.3090 C   0  0  0  0  0  2  0  0  0  0  0  0
  187.8390  174.5420  137.9720 O   0  0  0  0  0  1  0  0  0  0  0  0
  189.2520  172.8540  137.0870 C   0  0  0  0  0  1  0  0  0  0  0  0
  188.8400  173.6370  138.3200 C   0  0  2  0  0  3  0  0  0  0  0  0
  186.9840  178.2090  143.7500 C   0  0  0  0  0  2  0  0  0  0  0  0
  185.4720  178.0340  143.8080 C   0  0  0  0  0  2  0  0  0  0  0  0
  184.9260  178.6830  144.9520 O   0  0  0  0  0  0  0  0  0  0  0  0
  184.8150  176.9260  146.5080 C   0  0  0  0  0  2  0  0  0  0  0  0
  185.5670  179.0680  147.3660 C   0  0  0  0  0  1  0  0  0  0  0  0
  185.0900  178.1950  146.2530 C   0  0  0  0  0  0  0  0  0  0  0  0
  2  1  1  0  0  0  0
  3  2  2  0  0  0  0
  4  6  1  0  0  0  0
  5 10  1  1  0  0  0
  5  6  1  0  0  0  0
  6  2  1  6  0  0  0
  7  8  1  6  0  0  0
  7  4  1  0  0  0  0
  9  5  1  0  0  0  0
  9  7  1  0  0  0  0
 11 13  1  0  0  0  0
 11 10  1  0  0  0  0
 13 12  1  6  0  0  0
 14 13  1  0  0  0  0
 15 14  1  0  0  0  0
 16 18  2  0  0  0  0
 17 18  1  0  0  0  0
 18 15  1  0  0  0  0
 19 17  1  0  0  0  0
 21 20  2  6  0  0  0
 21 23  1  0  0  0  0
 21 22  1  0  0  0  0
 21 19  1  0  0  0  0
 24 23  1  0  0  0  0
 25 24  2  0  0  0  0
 26 24  1  0  0  0  0
 27  3  1  0  0  0  0
 28 31  1  0  0  0  0
 29 28  1  0  0  0  0
 30 28  2  0  0  0  0
 31 41  1  0  0  0  0
 31 27  1  0  0  0  0
 32 40  1  6  0  0  0
 32 34  1  0  0  0  0
 32 33  1  0  0  0  0
 33 35  1  0  0  0  0
 34 33  1  0  0  0  0
 35 36  1  0  0  0  0
 35 29  1  0  0  0  0
 37 34  1  0  0  0  0
 37 36  1  0  0  0  0
 38 40  1  0  0  0  0
 39 40  1  0  0  0  0
 41 42  1  0  0  0  0
 42 43  1  0  0  0  0
 43 46  1  0  0  0  0
 46 44  2  0  0  0  0
 46 45  1  0  0  0  0
M  END
>  <MODEL>
7

>  <REMARK>
 VINA RESULT:      -5.2      2.622      7.572
  Name = 
  19 active torsions:
  status: ('A' for Active; 'I' for Inactive)
    1  A    between atoms: C_2  and  C_7
    2  A    between atoms: C_2  and  N_24
    3  A    between atoms: C_6  and  C_23
    4  A    between atoms: C_6  and  N_43
    5  A    between atoms: C_7  and  O_8
    6  A    between atoms: O_8  and  C_45
    7  A    between atoms: C_10  and  O_30
    8  A    between atoms: C_11  and  C_36
    9  A    between atoms: N_13  and  C_37
   10  A    between atoms: C_14  and  C_34
   11  A    between atoms: O_15  and  C_34
   12  A    between atoms: O_15  and  C_46
   13  A    between atoms: C_18  and  C_27
   14  A    between atoms: C_21  and  C_26
   15  A    between atoms: N_22  and  O_31
   16  A    between atoms: N_24  and  C_26
   17  A    between atoms: O_30  and  P_38
   18  A    between atoms: O_31  and  P_38
   19  A    between atoms: N_43  and  C_46
                            x       y       z     vdW  Elec       q    Type
                         _______ _______ _______ _____ _____    ______ ____

>  <TORSDO>
F 19

$$$$
=
 OpenBabel11042415393D

 46 48  0  0  1  0  0  0  0  0999 V2000
  187.5250  175.1450  139.1430 F   0  0  0  0  0  0  0  0  0  0  0  0
  188.3520  174.7860  140.1610 C   0  0  0  0  0  0  0  0  0  0  0  0
  189.2520  173.8210  139.9460 C   0  0  0  0  0  3  0  0  0  0  0  0
  189.6470  175.5830  142.1140 C   0  0  0  0  0  2  0  0  0  0  0  0
  187.8230  176.9540  141.2610 C   0  0  2  0  0  3  0  0  0  0  0  0
  188.2780  175.5170  141.4690 C   0  0  1  0  0  3  0  0  0  0  0  0
  189.6830  176.9120  142.8290 C   0  0  1  0  0  3  0  0  0  0  0  0
  191.0990  177.4460  142.8680 C   0  0  0  0  0  1  0  0  0  0  0  0
  188.7990  177.8390  142.0180 C   0  0  0  0  0  2  0  0  0  0  0  0
  186.4240  177.1490  141.8190 C   0  0  0  0  0  2  0  0  0  0  0  0
  186.1750  178.5050  142.0510 O   0  0  0  0  0  0  0  0  0  0  0  0
  184.4670  178.0560  140.6130 O   0  0  0  0  0  1  0  0  0  0  0  0
  184.8070  178.6640  141.8210 C   0  0  1  0  0  3  0  0  0  0  0  0
  184.0460  178.0530  142.9020 N   0  0  0  0  0  2  0  0  0  0  0  0
  183.9250  179.0330  143.9720 C   0  0  0  0  0  2  0  0  0  0  0  0
  184.1010  179.0190  146.3470 O   0  0  0  0  0  0  0  0  0  0  0  0
  185.1790  177.2590  145.2570 N   0  0  0  0  0  2  0  0  0  0  0  0
  184.3890  178.4480  145.2620 C   0  0  0  0  0  0  0  0  0  0  0  0
  185.6130  176.6910  146.4100 O   0  0  0  0  0  0  0  0  0  0  0  0
  187.7150  177.7630  145.2550 O   0  0  0  0  0  0  0  0  0  0  0  0
  187.2390  177.1570  146.5560 P   0  0  1  0  0  0  0  0  0  0  0  0
  187.3990  178.2880  147.8030 O   0  0  0  0  0  1  0  0  0  0  0  0
  188.1860  175.7670  146.9200 O   0  0  0  0  0  0  0  0  0  0  0  0
  189.4800  175.5720  146.4270 C   0  0  0  0  0  0  0  0  0  0  0  0
  190.3570  176.4480  146.6470 O   0  0  0  0  0  0  0  0  0  0  0  0
  189.8570  174.3580  145.6460 C   0  0  0  0  0  1  0  0  0  0  0  0
  190.2180  173.3600  140.9950 C   0  0  0  0  0  2  0  0  0  0  0  0
  192.6940  173.5580  141.3360 C   0  0  0  0  0  0  0  0  0  0  0  0
  192.5030  173.5270  142.7540 N   0  0  0  0  0  2  0  0  0  0  0  0
  193.8440  173.7620  140.8580 O   0  0  0  0  0  0  0  0  0  0  0  0
  191.5720  173.3670  140.4580 N   0  0  0  0  0  0  0  0  0  0  0  0
  194.7860  172.6760  145.6230 C   0  0  2  0  0  3  0  0  0  0  0  0
  193.5430  172.8080  144.8340 C   0  0  1  0  0  3  0  0  0  0  0  0
  193.6820  173.5480  146.1110 N   0  0  2  0  0  0  0  0  0  0  0  0
  193.5710  173.8220  143.6960 C   0  0  2  0  0  3  0  0  0  0  0  0
  193.3270  175.1530  144.3500 C   0  0  0  0  0  2  0  0  0  0  0  0
  193.8360  174.9620  145.7550 C   0  0  0  0  0  2  0  0  0  0  0  0
  196.5050  172.7380  143.9520 O   0  0  0  0  0  1  0  0  0  0  0  0
  197.1090  173.4310  146.1390 C   0  0  0  0  0  1  0  0  0  0  0  0
  196.0260  173.4070  145.0770 C   0  0  2  0  0  3  0  0  0  0  0  0
  191.7500  173.3480  139.0100 C   0  0  0  0  0  2  0  0  0  0  0  0
  192.1850  171.9640  138.5450 C   0  0  0  0  0  2  0  0  0  0  0  0
  191.1260  171.0220  138.6840 O   0  0  0  0  0  0  0  0  0  0  0  0
  190.0730  169.0770  137.8890 C   0  0  0  0  0  2  0  0  0  0  0  0
  190.8380  170.6460  136.2030 C   0  0  0  0  0  1  0  0  0  0  0  0
  190.6700  170.2290  137.6260 C   0  0  0  0  0  0  0  0  0  0  0  0
  1  2  1  0  0  0  0
  3  2  2  0  0  0  0
  3 27  1  0  0  0  0
  4  7  1  0  0  0  0
  5  6  1  0  0  0  0
  5 10  1  1  0  0  0
  5  9  1  0  0  0  0
  6  2  1  6  0  0  0
  6  4  1  0  0  0  0
  7  8  1  6  0  0  0
  9  7  1  0  0  0  0
 10 11  1  0  0  0  0
 13 12  1  6  0  0  0
 13 11  1  0  0  0  0
 13 14  1  0  0  0  0
 14 15  1  0  0  0  0
 15 18  1  0  0  0  0
 17 18  1  0  0  0  0
 17 19  1  0  0  0  0
 18 16  2  0  0  0  0
 19 21  1  0  0  0  0
 21 20  2  6  0  0  0
 21 23  1  0  0  0  0
 21 22  1  0  0  0  0
 24 25  2  0  0  0  0
 24 23  1  0  0  0  0
 26 24  1  0  0  0  0
 28 29  1  0  0  0  0
 29 35  1  0  0  0  0
 30 28  2  0  0  0  0
 31 27  1  0  0  0  0
 31 28  1  0  0  0  0
 32 40  1  6  0  0  0
 32 34  1  0  0  0  0
 33 32  1  0  0  0  0
 33 34  1  0  0  0  0
 35 36  1  0  0  0  0
 35 33  1  0  0  0  0
 36 37  1  0  0  0  0
 37 34  1  0  0  0  0
 38 40  1  0  0  0  0
 40 39  1  0  0  0  0
 41 31  1  0  0  0  0
 42 43  1  0  0  0  0
 42 41  1  0  0  0  0
 45 46  1  0  0  0  0
 46 44  2  0  0  0  0
 46 43  1  0  0  0  0
M  END
>  <MODEL>
8

>  <REMARK>
 VINA RESULT:      -5.2      2.557      6.615
  Name = 
  19 active torsions:
  status: ('A' for Active; 'I' for Inactive)
    1  A    between atoms: C_2  and  C_7
    2  A    between atoms: C_2  and  N_24
    3  A    between atoms: C_6  and  C_23
    4  A    between atoms: C_6  and  N_43
    5  A    between atoms: C_7  and  O_8
    6  A    between atoms: O_8  and  C_45
    7  A    between atoms: C_10  and  O_30
    8  A    between atoms: C_11  and  C_36
    9  A    between atoms: N_13  and  C_37
   10  A    between atoms: C_14  and  C_34
   11  A    between atoms: O_15  and  C_34
   12  A    between atoms: O_15  and  C_46
   13  A    between atoms: C_18  and  C_27
   14  A    between atoms: C_21  and  C_26
   15  A    between atoms: N_22  and  O_31
   16  A    between atoms: N_24  and  C_26
   17  A    between atoms: O_30  and  P_38
   18  A    between atoms: O_31  and  P_38
   19  A    between atoms: N_43  and  C_46
                            x       y       z     vdW  Elec       q    Type
                         _______ _______ _______ _____ _____    ______ ____

>  <TORSDO>
F 19

$$$$
=
 OpenBabel11042415393D

 46 48  0  0  1  0  0  0  0  0999 V2000
  186.7130  173.4000  142.3450 F   0  0  0  0  0  0  0  0  0  0  0  0
  187.8080  174.1720  142.1120 C   0  0  0  0  0  0  0  0  0  0  0  0
  188.9340  173.5810  141.6990 C   0  0  0  0  0  3  0  0  0  0  0  0
  187.7670  176.3330  140.9060 C   0  0  0  0  0  2  0  0  0  0  0  0
  186.3800  176.0560  142.8890 C   0  0  2  0  0  3  0  0  0  0  0  0
  187.7100  175.6620  142.2620 C   0  0  1  0  0  3  0  0  0  0  0  0
  186.8680  177.5410  141.0250 C   0  0  1  0  0  3  0  0  0  0  0  0
  186.2440  177.8610  139.6840 C   0  0  0  0  0  1  0  0  0  0  0  0
  185.7930  177.1550  142.0220 C   0  0  0  0  0  2  0  0  0  0  0  0
  186.5990  176.5830  144.2970 C   0  0  0  0  0  2  0  0  0  0  0  0
  186.0820  177.8770  144.4200 O   0  0  0  0  0  0  0  0  0  0  0  0
  185.1790  176.5280  146.0180 O   0  0  0  0  0  1  0  0  0  0  0  0
  185.1020  177.7800  145.4100 C   0  0  1  0  0  3  0  0  0  0  0  0
  185.3010  178.8180  146.4120 N   0  0  0  0  0  2  0  0  0  0  0  0
  185.7020  178.1690  147.6530 C   0  0  0  0  0  2  0  0  0  0  0  0
  187.4440  179.3770  148.7390 O   0  0  0  0  0  0  0  0  0  0  0  0
  188.1550  177.6910  147.2910 N   0  0  0  0  0  2  0  0  0  0  0  0
  187.1370  178.4530  147.9410 C   0  0  0  0  0  0  0  0  0  0  0  0
  189.4710  177.9120  147.5340 O   0  0  0  0  0  0  0  0  0  0  0  0
  191.7700  176.7250  147.0810 O   0  0  0  0  0  0  0  0  0  0  0  0
  190.2800  176.5720  146.8780 P   0  0  1  0  0  0  0  0  0  0  0  0
  189.7460  175.1560  147.6350 O   0  0  0  0  0  1  0  0  0  0  0  0
  189.9370  176.4830  145.1940 O   0  0  0  0  0  0  0  0  0  0  0  0
  190.3300  177.4650  144.2800 C   0  0  0  0  0  0  0  0  0  0  0  0
  189.4750  178.2900  143.8620 O   0  0  0  0  0  0  0  0  0  0  0  0
  191.7320  177.5700  143.7820 C   0  0  0  0  0  1  0  0  0  0  0  0
  190.1910  174.3410  141.4010 C   0  0  0  0  0  2  0  0  0  0  0  0
  192.5120  173.4310  141.6640 C   0  0  0  0  0  0  0  0  0  0  0  0
  192.6750  174.1910  142.8670 N   0  0  0  0  0  2  0  0  0  0  0  0
  193.4850  172.7820  141.1900 O   0  0  0  0  0  0  0  0  0  0  0  0
  191.2420  173.4200  140.9920 N   0  0  0  0  0  0  0  0  0  0  0  0
  194.8580  174.5590  145.9110 C   0  0  2  0  0  3  0  0  0  0  0  0
  193.7370  174.7860  144.9740 C   0  0  1  0  0  3  0  0  0  0  0  0
  194.6870  175.8870  145.2610 N   0  0  2  0  0  0  0  0  0  0  0  0
  193.9580  174.3350  143.5360 C   0  0  2  0  0  3  0  0  0  0  0  0
  194.7510  175.4390  142.8950 C   0  0  0  0  0  2  0  0  0  0  0  0
  195.4910  176.0660  144.0480 C   0  0  0  0  0  2  0  0  0  0  0  0
  195.6180  172.3730  145.2800 O   0  0  0  0  0  1  0  0  0  0  0  0
  197.1890  173.7860  146.3570 C   0  0  0  0  0  1  0  0  0  0  0  0
  196.0260  173.7010  145.3890 C   0  0  2  0  0  3  0  0  0  0  0  0
  191.0390  172.6170  139.7910 C   0  0  0  0  0  2  0  0  0  0  0  0
  191.0170  173.5050  138.5530 C   0  0  0  0  0  2  0  0  0  0  0  0
  192.3130  174.0260  138.2760 O   0  0  0  0  0  0  0  0  0  0  0  0
  193.2820  173.3170  136.2560 C   0  0  0  0  0  2  0  0  0  0  0  0
  192.6720  175.6630  136.3850 C   0  0  0  0  0  1  0  0  0  0  0  0
  192.7620  174.2960  136.9790 C   0  0  0  0  0  0  0  0  0  0  0  0
  2  1  1  0  0  0  0
  3  2  2  0  0  0  0
  4  7  1  0  0  0  0
  4  6  1  0  0  0  0
  5 10  1  1  0  0  0
  6  2  1  6  0  0  0
  6  5  1  0  0  0  0
  7  8  1  6  0  0  0
  7  9  1  0  0  0  0
  9  5  1  0  0  0  0
 10 11  1  0  0  0  0
 11 13  1  0  0  0  0
 13 12  1  1  0  0  0
 13 14  1  0  0  0  0
 14 15  1  0  0  0  0
 15 18  1  0  0  0  0
 17 19  1  0  0  0  0
 17 18  1  0  0  0  0
 18 16  2  0  0  0  0
 21 20  2  1  0  0  0
 21 19  1  0  0  0  0
 21 22  1  0  0  0  0
 23 21  1  0  0  0  0
 24 23  1  0  0  0  0
 25 24  2  0  0  0  0
 26 24  1  0  0  0  0
 27  3  1  0  0  0  0
 28 29  1  0  0  0  0
 29 35  1  0  0  0  0
 30 28  2  0  0  0  0
 31 27  1  0  0  0  0
 31 28  1  0  0  0  0
 32 40  1  6  0  0  0
 33 34  1  0  0  0  0
 33 32  1  0  0  0  0
 34 32  1  0  0  0  0
 35 33  1  0  0  0  0
 36 35  1  0  0  0  0
 36 37  1  0  0  0  0
 37 34  1  0  0  0  0
 38 40  1  0  0  0  0
 40 39  1  0  0  0  0
 41 31  1  0  0  0  0
 42 41  1  0  0  0  0
 43 42  1  0  0  0  0
 44 46  2  0  0  0  0
 45 46  1  0  0  0  0
 46 43  1  0  0  0  0
M  END
>  <MODEL>
9

>  <REMARK>
 VINA RESULT:      -5.2      2.782      6.930
  Name = 
  19 active torsions:
  status: ('A' for Active; 'I' for Inactive)
    1  A    between atoms: C_2  and  C_7
    2  A    between atoms: C_2  and  N_24
    3  A    between atoms: C_6  and  C_23
    4  A    between atoms: C_6  and  N_43
    5  A    between atoms: C_7  and  O_8
    6  A    between atoms: O_8  and  C_45
    7  A    between atoms: C_10  and  O_30
    8  A    between atoms: C_11  and  C_36
    9  A    between atoms: N_13  and  C_37
   10  A    between atoms: C_14  and  C_34
   11  A    between atoms: O_15  and  C_34
   12  A    between atoms: O_15  and  C_46
   13  A    between atoms: C_18  and  C_27
   14  A    between atoms: C_21  and  C_26
   15  A    between atoms: N_22  and  O_31
   16  A    between atoms: N_24  and  C_26
   17  A    between atoms: O_30  and  P_38
   18  A    between atoms: O_31  and  P_38
   19  A    between atoms: N_43  and  C_46
                            x       y       z     vdW  Elec       q    Type
                         _______ _______ _______ _____ _____    ______ ____

>  <TORSDO>
F 19

$$$$
