=
 OpenBabel11042416203D

 66 74  0  0  1  0  0  0  0  0999 V2000
  190.0950  171.0910  139.5270 C   0  0  0  0  0  3  0  0  0  0  0  0
  189.9490  172.2710  140.1510 C   0  0  0  0  0  0  0  0  0  0  0  0
  188.7160  173.0450  139.7850 C   0  0  0  0  0  2  0  0  0  0  0  0
  190.6000  174.1780  141.7660 C   0  0  1  0  0  3  0  0  0  0  0  0
  190.9950  172.8440  141.1100 C   0  0  2  0  0  3  0  0  0  0  0  0
  188.4610  174.2160  140.7210 C   0  0  0  0  0  2  0  0  0  0  0  0
  189.6910  174.9700  140.9300 N   0  0  0  0  0  2  0  0  0  0  0  0
  192.3930  172.9380  140.4670 C   0  0  1  0  0  3  0  0  0  0  0  0
  192.6040  174.2040  139.9200 O   0  0  0  0  0  1  0  0  0  0  0  0
  193.7790  171.1260  141.3560 C   0  0  0  0  0  1  0  0  0  0  0  0
  193.5310  172.5660  141.3420 N   0  0  0  0  0  0  0  0  0  0  0  0
  194.7760  173.2040  140.8750 C   0  0  1  0  0  3  0  0  0  0  0  0
  195.9050  173.1300  141.9090 C   0  0  0  0  0  2  0  0  0  0  0  0
  196.0900  174.3750  142.5040 O   0  0  0  0  0  1  0  0  0  0  0  0
  195.2350  172.6120  139.5410 C   0  0  0  0  0  2  0  0  0  0  0  0
  197.1840  172.3870  137.8770 C   0  0  0  0  0  0  0  0  0  0  0  0
  197.5880  174.6510  137.0980 O   0  0  0  0  0  0  0  0  0  0  0  0
  197.4590  171.0830  137.8670 C   0  0  0  0  0  2  0  0  0  0  0  0
  197.6380  173.2760  136.7490 C   0  0  0  0  0  2  0  0  0  0  0  0
  197.3300  175.8070  139.6460 O   0  0  0  0  0  1  0  0  0  0  0  0
  196.6280  173.0790  139.0750 C   0  0  1  0  0  3  0  0  0  0  0  0
  196.6290  174.7690  138.5020 P   0  0  2  0  0  0  0  0  0  0  0  0
  195.2440  175.2550  138.1540 O   0  0  0  0  0  0  0  0  0  0  0  0
  190.0570  173.9880  143.1940 C   0  0  0  0  0  2  0  0  0  0  0  0
  191.8350  171.8240  144.4580 C   0  0  0  0  0  3  0  0  0  0  0  0
  191.4370  175.7160  144.4240 C   0  0  0  0  0  0  0  0  0  0  0  0
  195.3620  172.2930  145.4660 C   0  0  0  0  0  3  0  0  0  0  0  0
  191.0900  174.3260  144.1760 N   0  0  0  0  0  0  0  0  0  0  0  0
  196.9810  168.4050  145.3750 C   0  0  0  0  0  3  0  0  0  0  0  0
  195.6140  168.5900  145.1330 C   0  0  0  0  0  3  0  0  0  0  0  0
  194.0070  172.4430  145.1810 C   0  0  0  0  0  0  0  0  0  0  0  0
  193.2010  171.3680  144.8610 C   0  0  0  0  0  0  0  0  0  0  0  0
  197.2640  170.7940  145.6820 C   0  0  0  0  0  3  0  0  0  0  0  0
  195.0610  169.8770  145.1570 C   0  0  0  0  0  0  0  0  0  0  0  0
  193.6380  175.0020  145.1270 N   0  0  0  0  0  0  0  0  0  0  0  0
  192.6770  176.0330  144.8430 C   0  0  0  0  0  3  0  0  0  0  0  0
  193.7030  170.0660  144.8450 C   0  0  0  0  0  3  0  0  0  0  0  0
  195.8980  170.9940  145.4490 C   0  0  0  0  0  0  0  0  0  0  0  0
  197.8040  169.5010  145.6410 C   0  0  0  0  0  3  0  0  0  0  0  0
  192.0080  173.3110  144.6000 C   0  0  0  0  0  0  0  0  0  0  0  0
  193.2150  173.6410  145.0330 C   0  0  0  0  0  0  0  0  0  0  0  0
  190.5110  176.7420  144.2140 O   0  0  0  0  0  0  0  0  0  0  0  0
  189.0060  176.4640  146.0390 C   0  0  0  0  0  3  0  0  0  0  0  0
  186.6040  177.1850  145.8270 C   0  0  1  0  0  3  0  0  0  0  0  0
  188.0780  177.1370  143.8300 C   0  0  0  0  0  2  0  0  0  0  0  0
  187.6390  176.4310  146.6660 C   0  0  0  0  0  2  0  0  0  0  0  0
  186.7100  176.7300  144.3780 C   0  0  0  0  0  2  0  0  0  0  0  0
  185.2210  176.8940  146.3560 C   0  0  0  0  0  1  0  0  0  0  0  0
  189.2130  176.7350  144.7390 C   0  0  0  0  0  0  0  0  0  0  0  0
  191.3030  170.2050  139.6220 C   0  0  0  0  0  2  0  0  0  0  0  0
  191.6670  169.5420  138.2900 C   0  0  2  0  0  3  0  0  0  0  0  0
  193.0930  169.8600  137.8340 C   0  0  0  0  0  2  0  0  0  0  0  0
  194.0120  168.8480  138.3430 N   0  0  0  0  0  1  0  0  0  0  0  0
  190.7040  169.8700  137.3120 O   0  0  0  0  0  0  0  0  0  0  0  0
  191.3270  170.2230  136.0840 C   0  0  1  0  0  3  0  0  0  0  0  0
  191.3280  169.1340  135.2130 O   0  0  0  0  0  1  0  0  0  0  0  0
  190.7680  171.4740  135.3850 C   0  0  0  0  0  2  0  0  0  0  0  0
  194.2270  173.6030  134.8820 C   0  0  0  0  0  2  0  0  0  0  0  0
  191.5900  173.2320  136.9290 O   0  0  0  0  0  1  0  0  0  0  0  0
  191.6450  172.6890  135.6400 C   0  0  1  0  0  0  0  0  0  0  0  0
  193.0100  172.6540  134.8840 C   0  0  0  0  0  0  0  0  0  0  0  0
  193.9950  172.7610  136.0630 C   0  0  0  0  0  2  0  0  0  0  0  0
  191.8310  173.6430  134.5170 C   0  0  2  0  0  3  0  0  0  0  0  0
  190.8190  175.5420  135.6770 O   0  0  0  0  0  1  0  0  0  0  0  0
  191.7840  175.0870  134.9910 C   0  0  0  0  0  0  0  0  0  0  0  0
  192.7590  175.9700  134.5350 O   0  0  0  0  0  0  0  0  0  0  0  0
  1 50  1  0  0  0  0
  1  2  2  0  0  0  0
  2  5  1  0  0  0  0
  3  2  1  0  0  0  0
  3  6  1  0  0  0  0
  4 24  1  1  0  0  0
  5  8  1  6  0  0  0
  5  4  1  0  0  0  0
  6  7  1  0  0  0  0
  7  4  1  0  0  0  0
  8  9  1  1  0  0  0
  8 11  1  0  0  0  0
 11 10  1  0  0  0  0
 12 15  1  6  0  0  0
 12 11  1  0  0  0  0
 12 13  1  0  0  0  0
 13 14  1  0  0  0  0
 16 21  1  0  0  0  0
 17 22  1  0  0  0  0
 18 16  2  0  0  0  0
 19 17  1  0  0  0  0
 19 16  1  0  0  0  0
 21 15  1  6  0  0  0
 22 23  2  6  0  0  0
 22 21  1  0  0  0  0
 22 20  1  0  0  0  0
 24 28  1  0  0  0  0
 25 40  2  0  0  0  0
 25 32  1  0  0  0  0
 26 36  2  0  0  0  0
 28 26  1  0  0  0  0
 28 40  1  0  0  0  0
 29 39  1  0  0  0  0
 30 34  1  0  0  0  0
 30 29  2  0  0  0  0
 31 27  2  0  0  0  0
 32 31  1  0  0  0  0
 34 38  2  0  0  0  0
 36 35  1  0  0  0  0
 37 32  2  0  0  0  0
 37 34  1  0  0  0  0
 38 27  1  0  0  0  0
 38 33  1  0  0  0  0
 39 33  2  0  0  0  0
 40 41  1  0  0  0  0
 41 35  2  0  0  0  0
 41 31  1  0  0  0  0
 42 26  1  0  0  0  0
 42 49  1  0  0  0  0
 43 46  1  0  0  0  0
 44 48  1  1  0  0  0
 44 46  1  0  0  0  0
 45 47  1  0  0  0  0
 45 49  1  0  0  0  0
 47 44  1  0  0  0  0
 49 43  2  0  0  0  0
 51 52  1  6  0  0  0
 51 50  1  0  0  0  0
 52 53  1  0  0  0  0
 54 51  1  0  0  0  0
 55 56  1  6  0  0  0
 55 54  1  0  0  0  0
 57 60  1  0  0  0  0
 57 55  1  0  0  0  0
 58 61  1  0  0  0  0
 58 62  1  0  0  0  0
 60 59  1  1  0  0  0
 61 60  1  0  0  0  0
 61 62  1  0  0  0  0
 63 61  1  0  0  0  0
 63 65  1  1  0  0  0
 63 60  1  0  0  0  0
 65 64  1  0  0  0  0
 66 65  2  0  0  0  0
M  END
>  <MODEL>
1

>  <REMARK>
 VINA RESULT:      -6.0      0.000      0.000
  Name = 
  18 active torsions:
  status: ('A' for Active; 'I' for Inactive)
    1  A    between atoms: C_1  and  C_36
    2  A    between atoms: C_1  and  N_62
    3  A    between atoms: O_2  and  C_25
    4  A    between atoms: O_2  and  C_39
    5  A    between atoms: C_6  and  O_12
    6  A    between atoms: C_11  and  C_23
    7  A    between atoms: C_11  and  C_25
    8  A    between atoms: O_12  and  C_53
    9  A    between atoms: C_13  and  C_19
   10  A    between atoms: C_14  and  C_39
   11  A    between atoms: C_14  and  C_49
   12  A    between atoms: C_19  and  C_41
   13  A    between atoms: C_19  and  N_62
   14  A    between atoms: N_20  and  C_33
   15  A    between atoms: C_21  and  C_25
   16  A    between atoms: C_32  and  C_33
   17  A    between atoms: C_41  and  C_58
   18  A    between atoms: C_60  and  C_64
                            x       y       z     vdW  Elec       q    Type
                         _______ _______ _______ _____ _____    ______ ____

>  <TORSDO>
F 18

$$$$
=
 OpenBabel11042416203D

 66 74  0  0  1  0  0  0  0  0999 V2000
  188.4590  174.3160  139.7880 C   0  0  0  0  0  3  0  0  0  0  0  0
  189.5770  173.6220  139.5130 C   0  0  0  0  0  0  0  0  0  0  0  0
  189.5600  172.8640  138.2180 C   0  0  0  0  0  2  0  0  0  0  0  0
  191.9650  172.7410  139.9370 C   0  0  1  0  0  3  0  0  0  0  0  0
  190.7620  173.5310  140.4760 C   0  0  2  0  0  3  0  0  0  0  0  0
  190.9350  172.3430  137.8280 C   0  0  0  0  0  2  0  0  0  0  0  0
  191.5750  171.7060  138.9730 N   0  0  0  0  0  2  0  0  0  0  0  0
  190.3480  173.0230  141.8720 C   0  0  1  0  0  3  0  0  0  0  0  0
  191.0640  171.8760  142.2150 O   0  0  0  0  0  1  0  0  0  0  0  0
  190.0350  173.4580  144.2610 C   0  0  0  0  0  1  0  0  0  0  0  0
  190.4250  174.0180  142.9690 N   0  0  0  0  0  0  0  0  0  0  0  0
  191.8040  174.5150  143.1230 C   0  0  1  0  0  3  0  0  0  0  0  0
  192.0160  175.8890  142.4790 C   0  0  0  0  0  2  0  0  0  0  0  0
  190.8470  176.6400  142.5580 O   0  0  0  0  0  1  0  0  0  0  0  0
  192.2210  174.5450  144.5950 C   0  0  0  0  0  2  0  0  0  0  0  0
  191.7630  176.3730  146.3450 C   0  0  0  0  0  0  0  0  0  0  0  0
  193.9550  176.9470  147.2190 O   0  0  0  0  0  0  0  0  0  0  0  0
  190.4400  176.5230  146.3260 C   0  0  0  0  0  2  0  0  0  0  0  0
  192.5720  176.8490  147.5240 C   0  0  0  0  0  2  0  0  0  0  0  0
  195.2030  176.9340  144.7020 O   0  0  0  0  0  0  0  0  0  0  0  0
  192.5390  175.9490  145.1450 C   0  0  1  0  0  3  0  0  0  0  0  0
  194.2050  176.0790  145.7740 P   0  0  2  0  0  0  0  0  0  0  0  0
  194.8110  174.7300  146.0680 O   0  0  0  0  0  1  0  0  0  0  0  0
  193.0700  173.6610  139.3850 C   0  0  0  0  0  2  0  0  0  0  0  0
  194.7250  173.0630  141.9040 C   0  0  0  0  0  3  0  0  0  0  0  0
  194.7480  172.3040  138.0660 C   0  0  0  0  0  0  0  0  0  0  0  0
  196.8090  170.0500  142.4110 C   0  0  0  0  0  3  0  0  0  0  0  0
  194.3400  172.9370  139.3090 N   0  0  0  0  0  0  0  0  0  0  0  0
  197.0500  169.6630  146.5990 C   0  0  0  0  0  3  0  0  0  0  0  0
  196.4010  170.7720  146.0440 C   0  0  0  0  0  3  0  0  0  0  0  0
  196.1200  171.1460  141.8950 C   0  0  0  0  0  0  0  0  0  0  0  0
  195.5140  172.0820  142.7100 C   0  0  0  0  0  0  0  0  0  0  0  0
  197.5400  168.8210  144.3780 C   0  0  0  0  0  3  0  0  0  0  0  0
  196.3090  170.9150  144.6530 C   0  0  0  0  0  0  0  0  0  0  0  0
  196.0730  170.7340  139.3430 N   0  0  0  0  0  0  0  0  0  0  0  0
  195.5500  171.2220  138.0950 C   0  0  0  0  0  3  0  0  0  0  0  0
  195.5960  171.9920  144.1000 C   0  0  0  0  0  3  0  0  0  0  0  0
  196.9000  169.9300  143.8080 C   0  0  0  0  0  0  0  0  0  0  0  0
  197.6110  168.6880  145.7710 C   0  0  0  0  0  3  0  0  0  0  0  0
  194.9830  172.5270  140.5230 C   0  0  0  0  0  0  0  0  0  0  0  0
  195.7880  171.4760  140.5300 C   0  0  0  0  0  0  0  0  0  0  0  0
  194.3060  172.7850  136.8300 O   0  0  0  0  0  0  0  0  0  0  0  0
  193.9040  174.9610  135.9470 C   0  0  0  0  0  3  0  0  0  0  0  0
  195.8230  176.5260  135.5010 C   0  0  1  0  0  3  0  0  0  0  0  0
  196.2530  174.1500  136.0750 C   0  0  0  0  0  2  0  0  0  0  0  0
  194.3270  176.2590  135.3170 C   0  0  0  0  0  2  0  0  0  0  0  0
  196.6040  175.2800  135.1080 C   0  0  0  0  0  2  0  0  0  0  0  0
  196.2370  177.6880  134.6310 C   0  0  0  0  0  1  0  0  0  0  0  0
  194.7650  173.9740  136.2510 C   0  0  0  0  0  0  0  0  0  0  0  0
  188.1840  175.0370  141.0760 C   0  0  0  0  0  2  0  0  0  0  0  0
  187.3230  176.2900  140.8880 C   0  0  2  0  0  3  0  0  0  0  0  0
  187.1840  176.7050  139.4210 C   0  0  0  0  0  2  0  0  0  0  0  0
  185.8110  177.1220  139.1540 N   0  0  0  0  0  1  0  0  0  0  0  0
  187.8160  177.3360  141.6980 O   0  0  0  0  0  0  0  0  0  0  0  0
  186.9550  177.5670  142.8060 C   0  0  1  0  0  3  0  0  0  0  0  0
  185.6490  177.2000  142.4880 O   0  0  0  0  0  1  0  0  0  0  0  0
  187.3890  176.9220  144.1340 C   0  0  0  0  0  2  0  0  0  0  0  0
  186.4740  178.3650  147.8540 C   0  0  0  0  0  2  0  0  0  0  0  0
  185.3760  176.3000  145.4430 O   0  0  0  0  0  1  0  0  0  0  0  0
  186.4020  177.2330  145.2480 C   0  0  1  0  0  0  0  0  0  0  0  0
  187.0450  177.9300  146.4880 C   0  0  0  0  0  0  0  0  0  0  0  0
  186.6780  176.9320  147.6030 C   0  0  0  0  0  2  0  0  0  0  0  0
  186.0650  178.6600  145.4830 C   0  0  2  0  0  3  0  0  0  0  0  0
  184.1000  178.7590  146.9340 O   0  0  0  0  0  1  0  0  0  0  0  0
  184.5820  178.8500  145.7640 C   0  0  0  0  0  0  0  0  0  0  0  0
  183.7120  178.9850  144.6870 O   0  0  0  0  0  0  0  0  0  0  0  0
  1 50  1  0  0  0  0
  2  1  2  0  0  0  0
  2  5  1  0  0  0  0
  3  2  1  0  0  0  0
  4 24  1  6  0  0  0
  4  5  1  0  0  0  0
  5  8  1  1  0  0  0
  6  3  1  0  0  0  0
  6  7  1  0  0  0  0
  7  4  1  0  0  0  0
  8  9  1  1  0  0  0
  8 11  1  0  0  0  0
 11 12  1  0  0  0  0
 11 10  1  0  0  0  0
 12 13  1  1  0  0  0
 12 15  1  0  0  0  0
 13 14  1  0  0  0  0
 16 19  1  0  0  0  0
 17 19  1  0  0  0  0
 18 16  2  0  0  0  0
 21 15  1  1  0  0  0
 21 22  1  0  0  0  0
 21 16  1  0  0  0  0
 22 20  2  6  0  0  0
 22 23  1  0  0  0  0
 22 17  1  0  0  0  0
 25 32  1  0  0  0  0
 26 36  2  0  0  0  0
 26 28  1  0  0  0  0
 27 38  1  0  0  0  0
 28 24  1  0  0  0  0
 28 40  1  0  0  0  0
 30 29  1  0  0  0  0
 31 27  2  0  0  0  0
 31 32  1  0  0  0  0
 32 37  2  0  0  0  0
 33 39  1  0  0  0  0
 34 30  2  0  0  0  0
 35 41  2  0  0  0  0
 36 35  1  0  0  0  0
 37 34  1  0  0  0  0
 38 33  2  0  0  0  0
 38 34  1  0  0  0  0
 39 29  2  0  0  0  0
 40 41  1  0  0  0  0
 40 25  2  0  0  0  0
 41 31  1  0  0  0  0
 42 26  1  0  0  0  0
 43 49  2  0  0  0  0
 44 48  1  6  0  0  0
 45 49  1  0  0  0  0
 46 44  1  0  0  0  0
 46 43  1  0  0  0  0
 47 44  1  0  0  0  0
 47 45  1  0  0  0  0
 49 42  1  0  0  0  0
 51 52  1  6  0  0  0
 51 50  1  0  0  0  0
 51 54  1  0  0  0  0
 53 52  1  0  0  0  0
 54 55  1  0  0  0  0
 55 56  1  6  0  0  0
 55 57  1  0  0  0  0
 57 60  1  0  0  0  0
 60 59  1  1  0  0  0
 60 63  1  0  0  0  0
 60 61  1  0  0  0  0
 61 62  1  0  0  0  0
 61 58  1  0  0  0  0
 62 58  1  0  0  0  0
 63 65  1  1  0  0  0
 63 61  1  0  0  0  0
 65 64  1  0  0  0  0
 66 65  2  0  0  0  0
M  END
>  <MODEL>
2

>  <REMARK>
 VINA RESULT:      -5.9      2.810      8.806
  Name = 
  18 active torsions:
  status: ('A' for Active; 'I' for Inactive)
    1  A    between atoms: C_1  and  C_36
    2  A    between atoms: C_1  and  N_62
    3  A    between atoms: O_2  and  C_25
    4  A    between atoms: O_2  and  C_39
    5  A    between atoms: C_6  and  O_12
    6  A    between atoms: C_11  and  C_23
    7  A    between atoms: C_11  and  C_25
    8  A    between atoms: O_12  and  C_53
    9  A    between atoms: C_13  and  C_19
   10  A    between atoms: C_14  and  C_39
   11  A    between atoms: C_14  and  C_49
   12  A    between atoms: C_19  and  C_41
   13  A    between atoms: C_19  and  N_62
   14  A    between atoms: N_20  and  C_33
   15  A    between atoms: C_21  and  C_25
   16  A    between atoms: C_32  and  C_33
   17  A    between atoms: C_41  and  C_58
   18  A    between atoms: C_60  and  C_64
                            x       y       z     vdW  Elec       q    Type
                         _______ _______ _______ _____ _____    ______ ____

>  <TORSDO>
F 18

$$$$
=
 OpenBabel11042416203D

 66 74  0  0  1  0  0  0  0  0999 V2000
  194.1610  175.9120  142.0000 C   0  0  0  0  0  3  0  0  0  0  0  0
  193.2550  176.1670  142.9590 C   0  0  0  0  0  0  0  0  0  0  0  0
  192.5070  177.4590  142.8100 C   0  0  0  0  0  2  0  0  0  0  0  0
  191.9110  175.6990  145.1120 C   0  0  1  0  0  3  0  0  0  0  0  0
  193.0430  175.2570  144.1710 C   0  0  2  0  0  3  0  0  0  0  0  0
  191.3120  177.5540  143.7460 C   0  0  0  0  0  2  0  0  0  0  0  0
  191.6950  177.1500  145.0930 N   0  0  0  0  0  2  0  0  0  0  0  0
  194.3480  175.0080  144.9540 C   0  0  1  0  0  3  0  0  0  0  0  0
  194.5520  176.0050  145.9080 O   0  0  0  0  0  1  0  0  0  0  0  0
  193.4480  172.7370  145.1270 C   0  0  0  0  0  1  0  0  0  0  0  0
  194.4770  173.6700  145.5820 N   0  0  0  0  0  0  0  0  0  0  0  0
  195.7770  173.0620  145.2460 C   0  0  1  0  0  3  0  0  0  0  0  0
  196.9180  173.5720  146.1330 C   0  0  0  0  0  2  0  0  0  0  0  0
  197.9300  174.1130  145.3460 O   0  0  0  0  0  1  0  0  0  0  0  0
  195.7030  171.5340  145.2960 C   0  0  0  0  0  2  0  0  0  0  0  0
  197.1250  169.4170  144.9620 C   0  0  0  0  0  0  0  0  0  0  0  0
  196.9450  168.9270  142.5910 O   0  0  0  0  0  0  0  0  0  0  0  0
  197.5830  169.1330  146.1800 C   0  0  0  0  0  2  0  0  0  0  0  0
  197.1070  168.3650  143.8840 C   0  0  0  0  0  2  0  0  0  0  0  0
  197.2280  171.6060  141.7920 O   0  0  0  0  0  0  0  0  0  0  0  0
  196.8230  170.8100  144.5240 C   0  0  1  0  0  3  0  0  0  0  0  0
  196.4050  170.5280  142.8120 P   0  0  2  0  0  0  0  0  0  0  0  0
  194.9210  170.6240  142.5630 O   0  0  0  0  0  1  0  0  0  0  0  0
  190.6080  174.9160  144.8690 C   0  0  0  0  0  2  0  0  0  0  0  0
  191.5470  173.1800  142.5130 C   0  0  0  0  0  3  0  0  0  0  0  0
  189.0320  176.0800  143.2690 C   0  0  0  0  0  0  0  0  0  0  0  0
  189.4860  172.2910  139.5740 C   0  0  0  0  0  3  0  0  0  0  0  0
  190.1240  175.1510  143.5070 N   0  0  0  0  0  0  0  0  0  0  0  0
  191.2190  168.7270  138.1460 C   0  0  0  0  0  3  0  0  0  0  0  0
  191.8160  169.4050  139.2160 C   0  0  0  0  0  3  0  0  0  0  0  0
  190.0840  172.9160  140.6660 C   0  0  0  0  0  0  0  0  0  0  0  0
  191.2030  172.3960  141.2880 C   0  0  0  0  0  0  0  0  0  0  0  0
  189.4830  170.4170  138.0260 C   0  0  0  0  0  3  0  0  0  0  0  0
  191.2510  170.5900  139.7050 C   0  0  0  0  0  0  0  0  0  0  0  0
  188.4830  174.8590  141.2540 N   0  0  0  0  0  0  0  0  0  0  0  0
  188.2250  175.9080  142.2040 C   0  0  0  0  0  3  0  0  0  0  0  0
  191.8120  171.2300  140.8230 C   0  0  0  0  0  3  0  0  0  0  0  0
  190.0730  171.1100  139.0910 C   0  0  0  0  0  0  0  0  0  0  0  0
  190.0550  169.2260  137.5580 C   0  0  0  0  0  3  0  0  0  0  0  0
  190.4510  174.2080  142.4780 C   0  0  0  0  0  0  0  0  0  0  0  0
  189.6600  174.0680  141.4260 C   0  0  0  0  0  0  0  0  0  0  0  0
  188.7840  177.1450  144.1400 O   0  0  0  0  0  0  0  0  0  0  0  0
  187.1560  176.6570  145.8080 C   0  0  0  0  0  3  0  0  0  0  0  0
  185.2200  178.2190  146.1910 C   0  0  1  0  0  3  0  0  0  0  0  0
  186.7100  178.5280  144.2300 C   0  0  0  0  0  2  0  0  0  0  0  0
  185.8340  176.8510  146.5000 C   0  0  0  0  0  2  0  0  0  0  0  0
  185.2530  178.4510  144.6860 C   0  0  0  0  0  2  0  0  0  0  0  0
  183.7940  178.2520  146.6830 C   0  0  0  0  0  1  0  0  0  0  0  0
  187.5440  177.3800  144.7440 C   0  0  0  0  0  0  0  0  0  0  0  0
  195.1240  174.7600  142.0040 C   0  0  0  0  0  2  0  0  0  0  0  0
  196.0100  174.7160  140.7550 C   0  0  2  0  0  3  0  0  0  0  0  0
  197.4540  175.1440  141.0310 C   0  0  0  0  0  2  0  0  0  0  0  0
  197.5520  175.7120  142.3720 N   0  0  0  0  0  1  0  0  0  0  0  0
  195.4160  175.4670  139.7180 O   0  0  0  0  0  0  0  0  0  0  0  0
  194.9150  174.6130  138.6970 C   0  0  1  0  0  3  0  0  0  0  0  0
  195.5870  173.3920  138.7160 O   0  0  0  0  0  1  0  0  0  0  0  0
  193.3930  174.3920  138.6980 C   0  0  0  0  0  2  0  0  0  0  0  0
  191.8290  172.0930  135.6940 C   0  0  0  0  0  2  0  0  0  0  0  0
  193.5020  174.9450  136.2820 O   0  0  0  0  0  1  0  0  0  0  0  0
  192.8600  174.2090  137.2860 C   0  0  1  0  0  0  0  0  0  0  0  0
  192.3720  172.7600  136.9760 C   0  0  0  0  0  0  0  0  0  0  0  0
  193.2620  172.4080  135.7680 C   0  0  0  0  0  2  0  0  0  0  0  0
  191.3980  173.9970  137.1310 C   0  0  2  0  0  3  0  0  0  0  0  0
  191.4110  175.7970  135.4770 O   0  0  0  0  0  1  0  0  0  0  0  0
  190.8390  174.7650  135.9430 C   0  0  0  0  0  0  0  0  0  0  0  0
  189.5900  174.4070  135.4460 O   0  0  0  0  0  0  0  0  0  0  0  0
  1 50  1  0  0  0  0
  1  2  2  0  0  0  0
  2  5  1  0  0  0  0
  3  2  1  0  0  0  0
  3  6  1  0  0  0  0
  4 24  1  6  0  0  0
  5  8  1  1  0  0  0
  5  4  1  0  0  0  0
  6  7  1  0  0  0  0
  7  4  1  0  0  0  0
  8 11  1  0  0  0  0
  8  9  1  1  0  0  0
 10 11  1  0  0  0  0
 12 15  1  1  0  0  0
 12 11  1  0  0  0  0
 12 13  1  0  0  0  0
 14 13  1  0  0  0  0
 16 18  2  0  0  0  0
 17 22  1  0  0  0  0
 17 19  1  0  0  0  0
 19 16  1  0  0  0  0
 21 16  1  0  0  0  0
 21 15  1  1  0  0  0
 22 20  2  6  0  0  0
 22 21  1  0  0  0  0
 23 22  1  0  0  0  0
 26 28  1  0  0  0  0
 26 42  1  0  0  0  0
 27 31  1  0  0  0  0
 28 24  1  0  0  0  0
 29 30  2  0  0  0  0
 30 34  1  0  0  0  0
 31 32  2  0  0  0  0
 31 41  1  0  0  0  0
 32 25  1  0  0  0  0
 33 38  1  0  0  0  0
 34 37  2  0  0  0  0
 35 41  2  0  0  0  0
 35 36  1  0  0  0  0
 36 26  2  0  0  0  0
 37 32  1  0  0  0  0
 38 27  2  0  0  0  0
 38 34  1  0  0  0  0
 39 33  2  0  0  0  0
 39 29  1  0  0  0  0
 40 25  2  0  0  0  0
 40 28  1  0  0  0  0
 41 40  1  0  0  0  0
 42 49  1  0  0  0  0
 43 46  1  0  0  0  0
 44 46  1  0  0  0  0
 44 48  1  6  0  0  0
 45 47  1  0  0  0  0
 45 49  1  0  0  0  0
 47 44  1  0  0  0  0
 49 43  2  0  0  0  0
 51 52  1  1  0  0  0
 51 50  1  0  0  0  0
 52 53  1  0  0  0  0
 54 51  1  0  0  0  0
 55 57  1  0  0  0  0
 55 56  1  1  0  0  0
 55 54  1  0  0  0  0
 58 62  1  0  0  0  0
 58 61  1  0  0  0  0
 60 59  1  6  0  0  0
 60 57  1  0  0  0  0
 61 63  1  0  0  0  0
 61 60  1  0  0  0  0
 62 61  1  0  0  0  0
 63 65  1  6  0  0  0
 63 60  1  0  0  0  0
 64 65  1  0  0  0  0
 66 65  2  0  0  0  0
M  END
>  <MODEL>
3

>  <REMARK>
 VINA RESULT:      -5.6      2.380      5.579
  Name = 
  18 active torsions:
  status: ('A' for Active; 'I' for Inactive)
    1  A    between atoms: C_1  and  C_36
    2  A    between atoms: C_1  and  N_62
    3  A    between atoms: O_2  and  C_25
    4  A    between atoms: O_2  and  C_39
    5  A    between atoms: C_6  and  O_12
    6  A    between atoms: C_11  and  C_23
    7  A    between atoms: C_11  and  C_25
    8  A    between atoms: O_12  and  C_53
    9  A    between atoms: C_13  and  C_19
   10  A    between atoms: C_14  and  C_39
   11  A    between atoms: C_14  and  C_49
   12  A    between atoms: C_19  and  C_41
   13  A    between atoms: C_19  and  N_62
   14  A    between atoms: N_20  and  C_33
   15  A    between atoms: C_21  and  C_25
   16  A    between atoms: C_32  and  C_33
   17  A    between atoms: C_41  and  C_58
   18  A    between atoms: C_60  and  C_64
                            x       y       z     vdW  Elec       q    Type
                         _______ _______ _______ _____ _____    ______ ____

>  <TORSDO>
F 18

$$$$
=
 OpenBabel11042416203D

 66 74  0  0  1  0  0  0  0  0999 V2000
  192.0520  170.9700  143.5980 C   0  0  0  0  0  3  0  0  0  0  0  0
  191.3230  172.0880  143.7560 C   0  0  0  0  0  0  0  0  0  0  0  0
  190.4520  172.1200  144.9770 C   0  0  0  0  0  2  0  0  0  0  0  0
  190.4540  174.4390  143.1400 C   0  0  1  0  0  3  0  0  0  0  0  0
  191.3040  173.2250  142.7320 C   0  0  2  0  0  3  0  0  0  0  0  0
  189.8810  173.5020  145.2520 C   0  0  0  0  0  2  0  0  0  0  0  0
  189.3420  174.0770  144.0260 N   0  0  0  0  0  2  0  0  0  0  0  0
  190.9290  172.7370  141.3180 C   0  0  1  0  0  3  0  0  0  0  0  0
  189.5940  172.3360  141.2700 O   0  0  0  0  0  1  0  0  0  0  0  0
  192.5980  174.1560  140.2240 C   0  0  0  0  0  1  0  0  0  0  0  0
  191.2150  173.6840  140.2130 N   0  0  0  0  0  0  0  0  0  0  0  0
  191.0010  173.0370  138.9060 C   0  0  1  0  0  3  0  0  0  0  0  0
  189.9290  173.7380  138.0650 C   0  0  0  0  0  2  0  0  0  0  0  0
  188.9200  174.2290  138.8880 O   0  0  0  0  0  1  0  0  0  0  0  0
  192.3090  172.9280  138.1200 C   0  0  0  0  0  2  0  0  0  0  0  0
  193.3010  172.9040  135.7470 C   0  0  0  0  0  0  0  0  0  0  0  0
  192.9620  170.6310  134.9640 O   0  0  0  0  0  0  0  0  0  0  0  0
  193.7530  174.1440  135.5670 C   0  0  0  0  0  2  0  0  0  0  0  0
  193.8010  171.7730  134.8880 C   0  0  0  0  0  2  0  0  0  0  0  0
  190.3510  170.4370  135.9830 O   0  0  0  0  0  0  0  0  0  0  0  0
  192.1360  172.5960  136.6250 C   0  0  1  0  0  3  0  0  0  0  0  0
  191.9610  170.8450  136.3270 P   0  0  2  0  0  0  0  0  0  0  0  0
  192.4600  170.0160  137.4830 O   0  0  0  0  0  1  0  0  0  0  0  0
  191.3070  175.5830  143.7180 C   0  0  0  0  0  2  0  0  0  0  0  0
  189.0390  177.0240  142.2270 C   0  0  0  0  0  3  0  0  0  0  0  0
  190.5230  176.7240  145.8350 C   0  0  0  0  0  0  0  0  0  0  0  0
  185.8310  178.0710  143.7410 C   0  0  0  0  0  3  0  0  0  0  0  0
  190.4520  176.5610  144.3920 N   0  0  0  0  0  0  0  0  0  0  0  0
  183.1750  178.2710  140.4780 C   0  0  0  0  0  3  0  0  0  0  0  0
  184.5270  177.9900  140.2510 C   0  0  0  0  0  3  0  0  0  0  0  0
  187.1610  177.7490  143.4810 C   0  0  0  0  0  0  0  0  0  0  0  0
  187.6170  177.4840  142.2040 C   0  0  0  0  0  0  0  0  0  0  0  0
  183.5920  178.4250  142.8620 C   0  0  0  0  0  3  0  0  0  0  0  0
  185.4230  177.9160  141.3250 C   0  0  0  0  0  0  0  0  0  0  0  0
  188.2380  177.5180  145.8210 N   0  0  0  0  0  0  0  0  0  0  0  0
  189.4410  177.1470  146.5170 C   0  0  0  0  0  3  0  0  0  0  0  0
  186.7650  177.5650  141.1010 C   0  0  0  0  0  3  0  0  0  0  0  0
  184.9490  178.1510  142.6500 C   0  0  0  0  0  0  0  0  0  0  0  0
  182.7070  178.4810  141.7770 C   0  0  0  0  0  3  0  0  0  0  0  0
  189.3000  177.0710  143.7070 C   0  0  0  0  0  0  0  0  0  0  0  0
  188.2540  177.5060  144.3920 C   0  0  0  0  0  0  0  0  0  0  0  0
  191.6930  176.4270  146.5400 O   0  0  0  0  0  0  0  0  0  0  0  0
  193.6970  176.8970  145.3420 C   0  0  0  0  0  3  0  0  0  0  0  0
  195.4840  175.1410  145.1140 C   0  0  1  0  0  3  0  0  0  0  0  0
  193.2590  174.5510  146.0420 C   0  0  0  0  0  2  0  0  0  0  0  0
  194.9810  176.5140  144.6610 C   0  0  0  0  0  2  0  0  0  0  0  0
  194.3370  174.1420  145.0390 C   0  0  0  0  0  2  0  0  0  0  0  0
  196.6110  174.6960  144.2140 C   0  0  0  0  0  1  0  0  0  0  0  0
  192.8810  176.0070  145.9300 C   0  0  0  0  0  0  0  0  0  0  0  0
  192.8890  170.6470  142.3930 C   0  0  0  0  0  2  0  0  0  0  0  0
  194.3600  170.3940  142.7380 C   0  0  2  0  0  3  0  0  0  0  0  0
  194.5830  170.0910  144.2210 C   0  0  0  0  0  2  0  0  0  0  0  0
  195.8650  170.6400  144.6510 N   0  0  0  0  0  1  0  0  0  0  0  0
  195.1510  171.4720  142.2850 O   0  0  0  0  0  0  0  0  0  0  0  0
  195.8910  171.1060  141.1270 C   0  0  1  0  0  3  0  0  0  0  0  0
  195.9730  169.7180  141.0250 O   0  0  0  0  0  1  0  0  0  0  0  0
  195.4040  171.7170  139.8020 C   0  0  0  0  0  2  0  0  0  0  0  0
  197.4050  173.2690  136.5860 C   0  0  0  0  0  2  0  0  0  0  0  0
  197.6680  172.7260  139.8900 O   0  0  0  0  0  1  0  0  0  0  0  0
  196.4620  172.6190  139.1870 C   0  0  1  0  0  0  0  0  0  0  0  0
  196.4880  172.5920  137.6270 C   0  0  0  0  0  0  0  0  0  0  0  0
  197.9410  172.1490  137.3700 C   0  0  0  0  0  2  0  0  0  0  0  0
  195.9920  173.8330  138.4720 C   0  0  2  0  0  3  0  0  0  0  0  0
  196.8720  175.6110  139.9010 O   0  0  0  0  0  1  0  0  0  0  0  0
  196.8710  175.0380  138.7690 C   0  0  0  0  0  0  0  0  0  0  0  0
  197.5860  175.6140  137.7240 O   0  0  0  0  0  0  0  0  0  0  0  0
  1  2  2  0  0  0  0
  2  3  1  0  0  0  0
  3  6  1  0  0  0  0
  4 24  1  1  0  0  0
  4  7  1  0  0  0  0
  5  8  1  6  0  0  0
  5  4  1  0  0  0  0
  5  2  1  0  0  0  0
  7  6  1  0  0  0  0
  8  9  1  1  0  0  0
 11 10  1  0  0  0  0
 11  8  1  0  0  0  0
 12 13  1  6  0  0  0
 12 11  1  0  0  0  0
 13 14  1  0  0  0  0
 15 12  1  0  0  0  0
 16 21  1  0  0  0  0
 17 22  1  0  0  0  0
 18 16  2  0  0  0  0
 19 17  1  0  0  0  0
 19 16  1  0  0  0  0
 21 15  1  1  0  0  0
 22 20  2  6  0  0  0
 22 21  1  0  0  0  0
 22 23  1  0  0  0  0
 24 28  1  0  0  0  0
 25 40  2  0  0  0  0
 26 36  2  0  0  0  0
 26 42  1  0  0  0  0
 28 26  1  0  0  0  0
 29 39  1  0  0  0  0
 30 29  2  0  0  0  0
 30 34  1  0  0  0  0
 31 27  1  0  0  0  0
 31 41  1  0  0  0  0
 32 25  1  0  0  0  0
 32 31  2  0  0  0  0
 34 38  1  0  0  0  0
 35 36  1  0  0  0  0
 37 34  2  0  0  0  0
 37 32  1  0  0  0  0
 38 33  1  0  0  0  0
 38 27  2  0  0  0  0
 39 33  2  0  0  0  0
 40 28  1  0  0  0  0
 40 41  1  0  0  0  0
 41 35  2  0  0  0  0
 43 49  2  0  0  0  0
 44 48  1  6  0  0  0
 46 44  1  0  0  0  0
 46 43  1  0  0  0  0
 47 44  1  0  0  0  0
 47 45  1  0  0  0  0
 49 45  1  0  0  0  0
 49 42  1  0  0  0  0
 50  1  1  0  0  0  0
 51 50  1  1  0  0  0
 51 52  1  0  0  0  0
 52 53  1  0  0  0  0
 54 51  1  0  0  0  0
 55 56  1  6  0  0  0
 55 54  1  0  0  0  0
 57 55  1  0  0  0  0
 58 62  1  0  0  0  0
 58 61  1  0  0  0  0
 60 57  1  0  0  0  0
 60 59  1  1  0  0  0
 61 63  1  0  0  0  0
 61 60  1  0  0  0  0
 62 61  1  0  0  0  0
 63 65  1  1  0  0  0
 63 60  1  0  0  0  0
 65 64  1  0  0  0  0
 66 65  2  0  0  0  0
M  END
>  <MODEL>
4

>  <REMARK>
 VINA RESULT:      -5.6      2.469      7.460
  Name = 
  18 active torsions:
  status: ('A' for Active; 'I' for Inactive)
    1  A    between atoms: C_1  and  C_36
    2  A    between atoms: C_1  and  N_62
    3  A    between atoms: O_2  and  C_25
    4  A    between atoms: O_2  and  C_39
    5  A    between atoms: C_6  and  O_12
    6  A    between atoms: C_11  and  C_23
    7  A    between atoms: C_11  and  C_25
    8  A    between atoms: O_12  and  C_53
    9  A    between atoms: C_13  and  C_19
   10  A    between atoms: C_14  and  C_39
   11  A    between atoms: C_14  and  C_49
   12  A    between atoms: C_19  and  C_41
   13  A    between atoms: C_19  and  N_62
   14  A    between atoms: N_20  and  C_33
   15  A    between atoms: C_21  and  C_25
   16  A    between atoms: C_32  and  C_33
   17  A    between atoms: C_41  and  C_58
   18  A    between atoms: C_60  and  C_64
                            x       y       z     vdW  Elec       q    Type
                         _______ _______ _______ _____ _____    ______ ____

>  <TORSDO>
F 18

$$$$
=
 OpenBabel11042416203D

 66 74  0  0  1  0  0  0  0  0999 V2000
  192.1590  174.0940  143.2530 C   0  0  0  0  0  3  0  0  0  0  0  0
  192.1650  172.8180  142.8330 C   0  0  0  0  0  0  0  0  0  0  0  0
  192.4170  171.7920  143.8980 C   0  0  0  0  0  2  0  0  0  0  0  0
  191.9790  170.9050  141.1090 C   0  0  1  0  0  3  0  0  0  0  0  0
  192.0100  172.4220  141.3630 C   0  0  2  0  0  3  0  0  0  0  0  0
  192.1290  170.3750  143.4250 C   0  0  0  0  0  2  0  0  0  0  0  0
  192.7310  170.1500  142.1170 N   0  0  0  0  0  2  0  0  0  0  0  0
  193.0460  173.1130  140.4550 C   0  0  1  0  0  3  0  0  0  0  0  0
  192.4950  174.2380  139.8400 O   0  0  0  0  0  1  0  0  0  0  0  0
  195.1240  172.2880  141.4530 C   0  0  0  0  0  1  0  0  0  0  0  0
  194.3340  173.4660  141.0990 N   0  0  0  0  0  0  0  0  0  0  0  0
  195.1660  174.2750  140.1900 C   0  0  1  0  0  3  0  0  0  0  0  0
  196.5870  174.4920  140.7220 C   0  0  0  0  0  2  0  0  0  0  0  0
  197.4310  173.4880  140.2560 O   0  0  0  0  0  1  0  0  0  0  0  0
  195.2080  173.6650  138.7870 C   0  0  0  0  0  2  0  0  0  0  0  0
  196.3860  174.4310  136.6330 C   0  0  0  0  0  0  0  0  0  0  0  0
  194.5850  174.7900  135.0450 O   0  0  0  0  0  0  0  0  0  0  0  0
  197.6810  174.4220  136.9450 C   0  0  0  0  0  2  0  0  0  0  0  0
  195.9430  174.4070  135.1930 C   0  0  0  0  0  2  0  0  0  0  0  0
  192.9070  176.0650  136.9030 O   0  0  0  0  0  1  0  0  0  0  0  0
  195.3200  174.6910  137.6430 C   0  0  1  0  0  3  0  0  0  0  0  0
  193.8770  174.7080  136.5930 P   0  0  2  0  0  0  0  0  0  0  0  0
  193.0550  173.4520  136.7320 O   0  0  0  0  0  0  0  0  0  0  0  0
  190.5460  170.3710  140.9320 C   0  0  0  0  0  2  0  0  0  0  0  0
  188.5790  172.4720  142.0090 C   0  0  0  0  0  3  0  0  0  0  0  0
  190.1020  171.2730  138.6110 C   0  0  0  0  0  0  0  0  0  0  0  0
  187.8950  175.7470  140.4340 C   0  0  0  0  0  3  0  0  0  0  0  0
  189.7900  171.2420  140.0300 N   0  0  0  0  0  0  0  0  0  0  0  0
  186.5130  178.1440  143.6090 C   0  0  0  0  0  3  0  0  0  0  0  0
  186.7820  176.7890  143.8340 C   0  0  0  0  0  3  0  0  0  0  0  0
  188.1910  174.4130  140.7040 C   0  0  0  0  0  0  0  0  0  0  0  0
  188.0580  173.8730  141.9680 C   0  0  0  0  0  0  0  0  0  0  0  0
  187.1550  177.9020  141.2830 C   0  0  0  0  0  3  0  0  0  0  0  0
  187.2450  175.9790  142.7900 C   0  0  0  0  0  0  0  0  0  0  0  0
  189.2190  173.5230  138.5040 N   0  0  0  0  0  0  0  0  0  0  0  0
  189.8600  172.3880  137.8950 C   0  0  0  0  0  3  0  0  0  0  0  0
  187.5810  174.6360  143.0340 C   0  0  0  0  0  3  0  0  0  0  0  0
  187.4210  176.5420  141.4910 C   0  0  0  0  0  0  0  0  0  0  0  0
  186.7050  178.7010  142.3430 C   0  0  0  0  0  3  0  0  0  0  0  0
  189.0240  172.3210  140.5810 C   0  0  0  0  0  0  0  0  0  0  0  0
  188.7740  173.4000  139.8560 C   0  0  0  0  0  0  0  0  0  0  0  0
  190.6740  170.1700  137.9710 O   0  0  0  0  0  0  0  0  0  0  0  0
  193.0470  170.1390  137.7670 C   0  0  0  0  0  3  0  0  0  0  0  0
  194.1270  169.9380  135.5030 C   0  0  1  0  0  3  0  0  0  0  0  0
  191.6830  170.3310  135.6950 C   0  0  0  0  0  2  0  0  0  0  0  0
  194.3350  170.2150  136.9940 C   0  0  0  0  0  2  0  0  0  0  0  0
  192.9650  170.7830  134.9970 C   0  0  0  0  0  2  0  0  0  0  0  0
  195.3840  170.2880  134.7460 C   0  0  0  0  0  1  0  0  0  0  0  0
  191.8360  170.2400  137.1940 C   0  0  0  0  0  0  0  0  0  0  0  0
  192.0650  175.2990  142.3600 C   0  0  0  0  0  2  0  0  0  0  0  0
  192.7360  176.5390  142.9560 C   0  0  2  0  0  3  0  0  0  0  0  0
  194.2630  176.4980  142.8570 C   0  0  0  0  0  2  0  0  0  0  0  0
  194.8460  176.5290  144.1950 N   0  0  0  0  0  1  0  0  0  0  0  0
  192.2890  176.7390  144.2800 O   0  0  0  0  0  0  0  0  0  0  0  0
  191.4660  177.8950  144.3680 C   0  0  1  0  0  3  0  0  0  0  0  0
  191.5630  178.6470  143.1980 O   0  0  0  0  0  1  0  0  0  0  0  0
  189.9910  177.6400  144.7250 C   0  0  0  0  0  2  0  0  0  0  0  0
  189.0080  174.5680  147.2450 C   0  0  0  0  0  2  0  0  0  0  0  0
  189.4270  177.8980  147.1260 O   0  0  0  0  0  1  0  0  0  0  0  0
  189.8550  177.0330  146.1120 C   0  0  1  0  0  0  0  0  0  0  0  0
  189.3560  175.5540  146.1100 C   0  0  0  0  0  0  0  0  0  0  0  0
  188.0850  175.6770  146.9720 C   0  0  0  0  0  2  0  0  0  0  0  0
  190.8300  175.9810  146.4950 C   0  0  2  0  0  3  0  0  0  0  0  0
  191.5810  177.2730  148.4290 O   0  0  0  0  0  0  0  0  0  0  0  0
  191.2960  176.1410  147.9340 C   0  0  0  0  0  0  0  0  0  0  0  0
  191.5530  174.9960  148.6830 O   0  0  0  0  0  1  0  0  0  0  0  0
  2  1  2  0  0  0  0
  2  3  1  0  0  0  0
  4 24  1  1  0  0  0
  4  5  1  0  0  0  0
  4  7  1  0  0  0  0
  5  8  1  6  0  0  0
  5  2  1  0  0  0  0
  6  3  1  0  0  0  0
  7  6  1  0  0  0  0
  8  9  1  1  0  0  0
  8 11  1  0  0  0  0
 11 10  1  0  0  0  0
 12 15  1  6  0  0  0
 12 13  1  0  0  0  0
 12 11  1  0  0  0  0
 14 13  1  0  0  0  0
 16 18  2  0  0  0  0
 16 21  1  0  0  0  0
 17 19  1  0  0  0  0
 17 22  1  0  0  0  0
 19 16  1  0  0  0  0
 21 15  1  1  0  0  0
 22 23  2  1  0  0  0
 22 20  1  0  0  0  0
 22 21  1  0  0  0  0
 26 28  1  0  0  0  0
 27 31  2  0  0  0  0
 27 38  1  0  0  0  0
 28 40  1  0  0  0  0
 28 24  1  0  0  0  0
 29 30  1  0  0  0  0
 31 32  1  0  0  0  0
 32 25  1  0  0  0  0
 32 37  2  0  0  0  0
 33 38  2  0  0  0  0
 33 39  1  0  0  0  0
 34 37  1  0  0  0  0
 34 30  2  0  0  0  0
 35 41  2  0  0  0  0
 36 35  1  0  0  0  0
 36 26  2  0  0  0  0
 38 34  1  0  0  0  0
 39 29  2  0  0  0  0
 40 25  2  0  0  0  0
 41 40  1  0  0  0  0
 41 31  1  0  0  0  0
 42 26  1  0  0  0  0
 44 48  1  6  0  0  0
 44 46  1  0  0  0  0
 45 49  1  0  0  0  0
 46 43  1  0  0  0  0
 47 44  1  0  0  0  0
 47 45  1  0  0  0  0
 49 43  2  0  0  0  0
 49 42  1  0  0  0  0
 50  1  1  0  0  0  0
 51 50  1  1  0  0  0
 51 54  1  0  0  0  0
 52 51  1  0  0  0  0
 52 53  1  0  0  0  0
 54 55  1  0  0  0  0
 55 56  1  6  0  0  0
 55 57  1  0  0  0  0
 57 60  1  0  0  0  0
 60 63  1  0  0  0  0
 60 59  1  1  0  0  0
 61 60  1  0  0  0  0
 61 63  1  0  0  0  0
 61 62  1  0  0  0  0
 61 58  1  0  0  0  0
 62 58  1  0  0  0  0
 63 65  1  1  0  0  0
 65 64  2  0  0  0  0
 65 66  1  0  0  0  0
M  END
>  <MODEL>
5

>  <REMARK>
 VINA RESULT:      -5.6      2.474      8.969
  Name = 
  18 active torsions:
  status: ('A' for Active; 'I' for Inactive)
    1  A    between atoms: C_1  and  C_36
    2  A    between atoms: C_1  and  N_62
    3  A    between atoms: O_2  and  C_25
    4  A    between atoms: O_2  and  C_39
    5  A    between atoms: C_6  and  O_12
    6  A    between atoms: C_11  and  C_23
    7  A    between atoms: C_11  and  C_25
    8  A    between atoms: O_12  and  C_53
    9  A    between atoms: C_13  and  C_19
   10  A    between atoms: C_14  and  C_39
   11  A    between atoms: C_14  and  C_49
   12  A    between atoms: C_19  and  C_41
   13  A    between atoms: C_19  and  N_62
   14  A    between atoms: N_20  and  C_33
   15  A    between atoms: C_21  and  C_25
   16  A    between atoms: C_32  and  C_33
   17  A    between atoms: C_41  and  C_58
   18  A    between atoms: C_60  and  C_64
                            x       y       z     vdW  Elec       q    Type
                         _______ _______ _______ _____ _____    ______ ____

>  <TORSDO>
F 18

$$$$
=
 OpenBabel11042416203D

 66 74  0  0  1  0  0  0  0  0999 V2000
  192.4650  174.6170  141.0570 C   0  0  0  0  0  3  0  0  0  0  0  0
  191.2550  174.0500  141.1990 C   0  0  0  0  0  0  0  0  0  0  0  0
  190.8430  173.1270  140.0900 C   0  0  0  0  0  2  0  0  0  0  0  0
  189.0050  173.5640  142.3670 C   0  0  1  0  0  3  0  0  0  0  0  0
  190.3120  174.3730  142.3610 C   0  0  2  0  0  3  0  0  0  0  0  0
  189.6120  172.3050  140.4400 C   0  0  0  0  0  2  0  0  0  0  0  0
  188.5840  173.1610  141.0210 N   0  0  0  0  0  2  0  0  0  0  0  0
  190.0280  175.8840  142.4850 C   0  0  1  0  0  3  0  0  0  0  0  0
  189.3150  176.3470  141.3790 O   0  0  0  0  0  1  0  0  0  0  0  0
  190.0900  177.3740  144.4270 C   0  0  0  0  0  1  0  0  0  0  0  0
  189.3600  176.3120  143.7370 N   0  0  0  0  0  0  0  0  0  0  0  0
  188.0140  176.8430  143.4530 C   0  0  1  0  0  3  0  0  0  0  0  0
  186.9970  175.7410  143.1350 C   0  0  0  0  0  2  0  0  0  0  0  0
  186.3150  176.0440  141.9600 O   0  0  0  0  0  1  0  0  0  0  0  0
  187.5100  177.7210  144.6000 C   0  0  0  0  0  2  0  0  0  0  0  0
  185.7200  177.6000  146.4430 C   0  0  0  0  0  0  0  0  0  0  0  0
  183.9330  179.0440  145.6570 O   0  0  0  0  0  0  0  0  0  0  0  0
  186.2430  176.7840  147.3570 C   0  0  0  0  0  2  0  0  0  0  0  0
  184.5980  178.5370  146.8040 C   0  0  0  0  0  2  0  0  0  0  0  0
  184.0600  178.1220  143.0060 O   0  0  0  0  0  0  0  0  0  0  0  0
  186.0380  177.4850  144.9910 C   0  0  1  0  0  3  0  0  0  0  0  0
  184.9430  178.7260  144.3210 P   0  0  2  0  0  0  0  0  0  0  0  0
  185.6810  179.9750  143.9090 O   0  0  0  0  0  1  0  0  0  0  0  0
  189.0590  172.3720  143.3400 C   0  0  0  0  0  2  0  0  0  0  0  0
  191.0830  170.4010  142.1330 C   0  0  0  0  0  3  0  0  0  0  0  0
  190.8910  173.1670  144.8940 C   0  0  0  0  0  0  0  0  0  0  0  0
  194.7420  170.9250  142.0010 C   0  0  0  0  0  3  0  0  0  0  0  0
  190.4080  172.2310  143.8910 N   0  0  0  0  0  0  0  0  0  0  0  0
  196.0060  168.5310  138.7750 C   0  0  0  0  0  3  0  0  0  0  0  0
  194.6650  168.5000  139.1740 C   0  0  0  0  0  3  0  0  0  0  0  0
  193.3920  170.8990  142.3450 C   0  0  0  0  0  0  0  0  0  0  0  0
  192.4740  170.1310  141.6550 C   0  0  0  0  0  0  0  0  0  0  0  0
  196.5020  170.1420  140.5180 C   0  0  0  0  0  3  0  0  0  0  0  0
  194.2270  169.2920  140.2430 C   0  0  0  0  0  0  0  0  0  0  0  0
  193.1550  172.7120  144.1730 N   0  0  0  0  0  0  0  0  0  0  0  0
  192.2100  173.4200  144.9940 C   0  0  0  0  0  3  0  0  0  0  0  0
  192.8670  169.3110  140.5960 C   0  0  0  0  0  3  0  0  0  0  0  0
  195.1640  170.1160  140.9340 C   0  0  0  0  0  0  0  0  0  0  0  0
  196.9200  169.3530  139.4380 C   0  0  0  0  0  3  0  0  0  0  0  0
  191.3690  171.4340  143.1870 C   0  0  0  0  0  0  0  0  0  0  0  0
  192.6640  171.6800  143.3160 C   0  0  0  0  0  0  0  0  0  0  0  0
  190.0080  173.8310  145.7480 O   0  0  0  0  0  0  0  0  0  0  0  0
  189.4520  175.6980  147.1200 C   0  0  0  0  0  3  0  0  0  0  0  0
  191.1920  176.7480  148.6050 C   0  0  1  0  0  3  0  0  0  0  0  0
  191.8450  175.0470  146.9180 C   0  0  0  0  0  2  0  0  0  0  0  0
  189.7860  176.8630  148.0100 C   0  0  0  0  0  2  0  0  0  0  0  0
  192.1780  176.4250  147.4900 C   0  0  0  0  0  2  0  0  0  0  0  0
  191.5690  178.0530  149.2610 C   0  0  0  0  0  1  0  0  0  0  0  0
  190.3830  174.8960  146.5770 C   0  0  0  0  0  0  0  0  0  0  0  0
  193.0370  175.6730  141.9580 C   0  0  0  0  0  2  0  0  0  0  0  0
  194.5380  175.4990  142.2080 C   0  0  2  0  0  3  0  0  0  0  0  0
  194.9240  175.6770  143.6780 C   0  0  0  0  0  2  0  0  0  0  0  0
  193.9730  176.5680  144.3340 N   0  0  0  0  0  1  0  0  0  0  0  0
  195.2690  176.3520  141.3530 O   0  0  0  0  0  0  0  0  0  0  0  0
  196.3120  175.6410  140.6990 C   0  0  1  0  0  3  0  0  0  0  0  0
  197.5200  175.8320  141.3690 O   0  0  0  0  0  1  0  0  0  0  0  0
  196.0560  174.1420  140.4650 C   0  0  0  0  0  2  0  0  0  0  0  0
  193.8940  173.0230  137.1750 C   0  0  0  0  0  2  0  0  0  0  0  0
  197.0170  173.1560  138.4030 O   0  0  0  0  0  1  0  0  0  0  0  0
  195.9330  173.8270  138.9830 C   0  0  1  0  0  0  0  0  0  0  0  0
  194.4830  173.4700  138.5290 C   0  0  0  0  0  0  0  0  0  0  0  0
  194.7040  172.0650  137.9370 C   0  0  0  0  0  2  0  0  0  0  0  0
  195.2200  174.8120  138.1320 C   0  0  2  0  0  3  0  0  0  0  0  0
  195.4550  174.5270  135.7160 O   0  0  0  0  0  0  0  0  0  0  0  0
  195.9160  175.0100  136.7940 C   0  0  0  0  0  0  0  0  0  0  0  0
  197.1680  175.6160  136.7780 O   0  0  0  0  0  1  0  0  0  0  0  0
  1  2  2  0  0  0  0
  1 50  1  0  0  0  0
  2  5  1  0  0  0  0
  3  6  1  0  0  0  0
  3  2  1  0  0  0  0
  4 24  1  1  0  0  0
  5  4  1  0  0  0  0
  5  8  1  6  0  0  0
  6  7  1  0  0  0  0
  7  4  1  0  0  0  0
  8  9  1  6  0  0  0
  8 11  1  0  0  0  0
 11 10  1  0  0  0  0
 12 13  1  1  0  0  0
 12 11  1  0  0  0  0
 12 15  1  0  0  0  0
 14 13  1  0  0  0  0
 16 19  1  0  0  0  0
 16 18  2  0  0  0  0
 17 19  1  0  0  0  0
 21 15  1  1  0  0  0
 21 16  1  0  0  0  0
 22 20  2  6  0  0  0
 22 21  1  0  0  0  0
 22 17  1  0  0  0  0
 23 22  1  0  0  0  0
 24 28  1  0  0  0  0
 25 40  2  0  0  0  0
 26 36  2  0  0  0  0
 26 42  1  0  0  0  0
 27 31  1  0  0  0  0
 28 26  1  0  0  0  0
 29 30  2  0  0  0  0
 29 39  1  0  0  0  0
 30 34  1  0  0  0  0
 31 41  1  0  0  0  0
 32 25  1  0  0  0  0
 32 31  2  0  0  0  0
 33 38  1  0  0  0  0
 34 37  2  0  0  0  0
 34 38  1  0  0  0  0
 35 36  1  0  0  0  0
 37 32  1  0  0  0  0
 38 27  2  0  0  0  0
 39 33  2  0  0  0  0
 40 41  1  0  0  0  0
 40 28  1  0  0  0  0
 41 35  2  0  0  0  0
 42 49  1  0  0  0  0
 43 46  1  0  0  0  0
 44 48  1  6  0  0  0
 45 47  1  0  0  0  0
 46 44  1  0  0  0  0
 47 44  1  0  0  0  0
 49 45  1  0  0  0  0
 49 43  2  0  0  0  0
 51 50  1  1  0  0  0
 51 52  1  0  0  0  0
 52 53  1  0  0  0  0
 54 51  1  0  0  0  0
 55 54  1  0  0  0  0
 55 56  1  1  0  0  0
 57 55  1  0  0  0  0
 58 62  1  0  0  0  0
 58 61  1  0  0  0  0
 60 59  1  6  0  0  0
 60 57  1  0  0  0  0
 61 60  1  0  0  0  0
 62 61  1  0  0  0  0
 63 65  1  6  0  0  0
 63 61  1  0  0  0  0
 63 60  1  0  0  0  0
 64 65  2  0  0  0  0
 66 65  1  0  0  0  0
M  END
>  <MODEL>
6

>  <REMARK>
 VINA RESULT:      -5.1      3.324      7.341
  Name = 
  18 active torsions:
  status: ('A' for Active; 'I' for Inactive)
    1  A    between atoms: C_1  and  C_36
    2  A    between atoms: C_1  and  N_62
    3  A    between atoms: O_2  and  C_25
    4  A    between atoms: O_2  and  C_39
    5  A    between atoms: C_6  and  O_12
    6  A    between atoms: C_11  and  C_23
    7  A    between atoms: C_11  and  C_25
    8  A    between atoms: O_12  and  C_53
    9  A    between atoms: C_13  and  C_19
   10  A    between atoms: C_14  and  C_39
   11  A    between atoms: C_14  and  C_49
   12  A    between atoms: C_19  and  C_41
   13  A    between atoms: C_19  and  N_62
   14  A    between atoms: N_20  and  C_33
   15  A    between atoms: C_21  and  C_25
   16  A    between atoms: C_32  and  C_33
   17  A    between atoms: C_41  and  C_58
   18  A    between atoms: C_60  and  C_64
                            x       y       z     vdW  Elec       q    Type
                         _______ _______ _______ _____ _____    ______ ____

>  <TORSDO>
F 18

$$$$
=
 OpenBabel11042416203D

 66 74  0  0  1  0  0  0  0  0999 V2000
  193.2800  171.8650  141.8980 C   0  0  0  0  0  3  0  0  0  0  0  0
  192.4230  172.6430  142.5790 C   0  0  0  0  0  0  0  0  0  0  0  0
  192.0010  172.1160  143.9190 C   0  0  0  0  0  2  0  0  0  0  0  0
  190.9320  174.7110  142.9840 C   0  0  1  0  0  3  0  0  0  0  0  0
  191.8410  173.9400  142.0130 C   0  0  2  0  0  3  0  0  0  0  0  0
  191.2720  173.1570  144.7540 C   0  0  0  0  0  2  0  0  0  0  0  0
  190.2620  173.8320  143.9480 N   0  0  0  0  0  2  0  0  0  0  0  0
  191.1450  173.7280  140.6530 C   0  0  1  0  0  3  0  0  0  0  0  0
  192.0840  173.5810  139.6320 O   0  0  0  0  0  1  0  0  0  0  0  0
  188.8170  173.0830  140.2540 C   0  0  0  0  0  1  0  0  0  0  0  0
  190.1590  172.6210  140.6000 N   0  0  0  0  0  0  0  0  0  0  0  0
  190.5430  171.6320  139.5760 C   0  0  1  0  0  3  0  0  0  0  0  0
  190.5010  170.1910  140.0970 C   0  0  0  0  0  2  0  0  0  0  0  0
  190.4270  169.3000  139.0310 O   0  0  0  0  0  1  0  0  0  0  0  0
  189.6790  171.7720  138.3200 C   0  0  0  0  0  2  0  0  0  0  0  0
  190.2140  171.3080  135.8480 C   0  0  0  0  0  0  0  0  0  0  0  0
  189.8790  173.4420  134.7390 O   0  0  0  0  0  0  0  0  0  0  0  0
  190.5250  170.0130  135.8160 C   0  0  0  0  0  2  0  0  0  0  0  0
  189.8120  172.0320  134.5890 C   0  0  0  0  0  2  0  0  0  0  0  0
  191.1430  174.9360  136.7540 O   0  0  0  0  0  0  0  0  0  0  0  0
  190.4550  172.1610  137.0470 C   0  0  1  0  0  3  0  0  0  0  0  0
  189.9730  173.7570  136.4110 P   0  0  2  0  0  0  0  0  0  0  0  0
  188.6320  174.2010  136.9400 O   0  0  0  0  0  1  0  0  0  0  0  0
  191.6660  175.8760  143.6720 C   0  0  0  0  0  2  0  0  0  0  0  0
  189.3280  177.3660  142.3460 C   0  0  0  0  0  3  0  0  0  0  0  0
  190.7490  176.6110  145.9130 C   0  0  0  0  0  0  0  0  0  0  0  0
  186.0170  177.9300  143.8930 C   0  0  0  0  0  3  0  0  0  0  0  0
  190.7230  176.6720  144.4600 N   0  0  0  0  0  0  0  0  0  0  0  0
  183.4270  178.4480  140.6120 C   0  0  0  0  0  3  0  0  0  0  0  0
  184.8010  178.3030  140.3910 C   0  0  0  0  0  3  0  0  0  0  0  0
  187.3730  177.7480  143.6330 C   0  0  0  0  0  0  0  0  0  0  0  0
  187.8760  177.7210  142.3460 C   0  0  0  0  0  0  0  0  0  0  0  0
  183.7770  178.2550  143.0050 C   0  0  0  0  0  3  0  0  0  0  0  0
  185.6760  178.1270  141.4710 C   0  0  0  0  0  0  0  0  0  0  0  0
  188.4110  177.2320  145.9440 N   0  0  0  0  0  0  0  0  0  0  0  0
  189.6230  176.8430  146.6140 C   0  0  0  0  0  3  0  0  0  0  0  0
  187.0460  177.9120  141.2410 C   0  0  0  0  0  3  0  0  0  0  0  0
  185.1560  178.1160  142.7990 C   0  0  0  0  0  0  0  0  0  0  0  0
  182.9150  178.4170  141.9120 C   0  0  0  0  0  3  0  0  0  0  0  0
  189.5520  177.1990  143.8240 C   0  0  0  0  0  0  0  0  0  0  0  0
  188.4610  177.4450  144.5320 C   0  0  0  0  0  0  0  0  0  0  0  0
  191.9220  176.2920  146.6030 O   0  0  0  0  0  0  0  0  0  0  0  0
  193.7690  174.9290  145.9670 C   0  0  0  0  0  3  0  0  0  0  0  0
  195.4690  175.7790  144.3180 C   0  0  1  0  0  3  0  0  0  0  0  0
  193.7560  177.3120  145.2540 C   0  0  0  0  0  2  0  0  0  0  0  0
  195.1080  174.6860  145.3280 C   0  0  0  0  0  2  0  0  0  0  0  0
  195.2460  177.1420  144.9590 C   0  0  0  0  0  2  0  0  0  0  0  0
  196.9160  175.6320  143.9150 C   0  0  0  0  0  1  0  0  0  0  0  0
  193.1670  176.1300  145.9830 C   0  0  0  0  0  0  0  0  0  0  0  0
  193.7370  172.1080  140.4880 C   0  0  0  0  0  2  0  0  0  0  0  0
  195.2420  172.3750  140.3850 C   0  0  2  0  0  3  0  0  0  0  0  0
  195.7610  172.3200  138.9450 C   0  0  0  0  0  2  0  0  0  0  0  0
  194.8080  172.9710  138.0520 N   0  0  0  0  0  1  0  0  0  0  0  0
  195.9440  171.5020  141.2430 O   0  0  0  0  0  0  0  0  0  0  0  0
  197.0760  172.1500  141.8100 C   0  0  1  0  0  3  0  0  0  0  0  0
  197.2320  173.4200  141.2560 O   0  0  0  0  0  1  0  0  0  0  0  0
  197.1030  172.2230  143.3460 C   0  0  0  0  0  2  0  0  0  0  0  0
  196.5730  169.7650  146.5760 C   0  0  0  0  0  2  0  0  0  0  0  0
  197.0880  169.7450  143.2580 O   0  0  0  0  0  1  0  0  0  0  0  0
  196.7190  170.8920  143.9710 C   0  0  1  0  0  0  0  0  0  0  0  0
  196.7960  170.8780  145.5300 C   0  0  0  0  0  0  0  0  0  0  0  0
  197.7930  169.7260  145.7590 C   0  0  0  0  0  2  0  0  0  0  0  0
  195.4380  170.8330  144.7190 C   0  0  2  0  0  3  0  0  0  0  0  0
  194.2910  168.7760  145.3740 O   0  0  0  0  0  1  0  0  0  0  0  0
  194.6820  169.5430  144.4420 C   0  0  0  0  0  0  0  0  0  0  0  0
  194.5420  169.1230  143.1230 O   0  0  0  0  0  0  0  0  0  0  0  0
  1  2  2  0  0  0  0
  2  3  1  0  0  0  0
  3  6  1  0  0  0  0
  4 24  1  1  0  0  0
  4  7  1  0  0  0  0
  5  8  1  6  0  0  0
  5  2  1  0  0  0  0
  5  4  1  0  0  0  0
  7  6  1  0  0  0  0
  8  9  1  6  0  0  0
 10 11  1  0  0  0  0
 11  8  1  0  0  0  0
 12 15  1  6  0  0  0
 12 13  1  0  0  0  0
 12 11  1  0  0  0  0
 14 13  1  0  0  0  0
 16 21  1  0  0  0  0
 17 22  1  0  0  0  0
 18 16  2  0  0  0  0
 19 17  1  0  0  0  0
 19 16  1  0  0  0  0
 21 15  1  1  0  0  0
 22 20  2  1  0  0  0
 22 23  1  0  0  0  0
 22 21  1  0  0  0  0
 24 28  1  0  0  0  0
 25 32  1  0  0  0  0
 25 40  2  0  0  0  0
 26 42  1  0  0  0  0
 26 36  2  0  0  0  0
 28 26  1  0  0  0  0
 29 39  1  0  0  0  0
 30 29  2  0  0  0  0
 30 34  1  0  0  0  0
 31 27  1  0  0  0  0
 31 41  1  0  0  0  0
 32 31  2  0  0  0  0
 34 38  1  0  0  0  0
 35 36  1  0  0  0  0
 37 34  2  0  0  0  0
 37 32  1  0  0  0  0
 38 33  1  0  0  0  0
 38 27  2  0  0  0  0
 39 33  2  0  0  0  0
 40 28  1  0  0  0  0
 40 41  1  0  0  0  0
 41 35  2  0  0  0  0
 43 49  2  0  0  0  0
 44 48  1  1  0  0  0
 44 47  1  0  0  0  0
 44 46  1  0  0  0  0
 45 49  1  0  0  0  0
 46 43  1  0  0  0  0
 47 45  1  0  0  0  0
 49 42  1  0  0  0  0
 50  1  1  0  0  0  0
 51 52  1  6  0  0  0
 51 50  1  0  0  0  0
 51 54  1  0  0  0  0
 53 52  1  0  0  0  0
 54 55  1  0  0  0  0
 55 56  1  6  0  0  0
 55 57  1  0  0  0  0
 57 60  1  0  0  0  0
 60 59  1  6  0  0  0
 60 63  1  0  0  0  0
 60 61  1  0  0  0  0
 61 62  1  0  0  0  0
 61 58  1  0  0  0  0
 62 58  1  0  0  0  0
 63 65  1  6  0  0  0
 63 61  1  0  0  0  0
 65 64  1  0  0  0  0
 66 65  2  0  0  0  0
M  END
>  <MODEL>
7

>  <REMARK>
 VINA RESULT:      -4.9      2.573      8.412
  Name = 
  18 active torsions:
  status: ('A' for Active; 'I' for Inactive)
    1  A    between atoms: C_1  and  C_36
    2  A    between atoms: C_1  and  N_62
    3  A    between atoms: O_2  and  C_25
    4  A    between atoms: O_2  and  C_39
    5  A    between atoms: C_6  and  O_12
    6  A    between atoms: C_11  and  C_23
    7  A    between atoms: C_11  and  C_25
    8  A    between atoms: O_12  and  C_53
    9  A    between atoms: C_13  and  C_19
   10  A    between atoms: C_14  and  C_39
   11  A    between atoms: C_14  and  C_49
   12  A    between atoms: C_19  and  C_41
   13  A    between atoms: C_19  and  N_62
   14  A    between atoms: N_20  and  C_33
   15  A    between atoms: C_21  and  C_25
   16  A    between atoms: C_32  and  C_33
   17  A    between atoms: C_41  and  C_58
   18  A    between atoms: C_60  and  C_64
                            x       y       z     vdW  Elec       q    Type
                         _______ _______ _______ _____ _____    ______ ____

>  <TORSDO>
F 18

$$$$
=
 OpenBabel11042416203D

 66 74  0  0  1  0  0  0  0  0999 V2000
  192.2830  174.7280  141.4410 C   0  0  0  0  0  3  0  0  0  0  0  0
  191.0370  174.2740  141.2230 C   0  0  0  0  0  0  0  0  0  0  0  0
  190.7760  173.7500  139.8410 C   0  0  0  0  0  2  0  0  0  0  0  0
  188.5930  173.7140  141.8380 C   0  0  1  0  0  3  0  0  0  0  0  0
  189.9240  174.3510  142.2710 C   0  0  2  0  0  3  0  0  0  0  0  0
  189.4600  172.9950  139.7410 C   0  0  0  0  0  2  0  0  0  0  0  0
  188.3950  173.7540  140.3860 N   0  0  0  0  0  2  0  0  0  0  0  0
  189.7070  175.7860  142.7920 C   0  0  1  0  0  3  0  0  0  0  0  0
  189.7130  176.7020  141.7400 O   0  0  0  0  0  1  0  0  0  0  0  0
  188.8390  176.4440  144.9850 C   0  0  0  0  0  1  0  0  0  0  0  0
  188.5050  175.9890  143.6370 N   0  0  0  0  0  0  0  0  0  0  0  0
  187.6250  177.0170  143.0500 C   0  0  1  0  0  3  0  0  0  0  0  0
  186.4510  176.4170  142.2690 C   0  0  0  0  0  2  0  0  0  0  0  0
  186.3510  177.0190  141.0180 O   0  0  0  0  0  1  0  0  0  0  0  0
  187.1160  177.9860  144.1190 C   0  0  0  0  0  2  0  0  0  0  0  0
  185.5600  177.6150  146.1330 C   0  0  0  0  0  0  0  0  0  0  0  0
  183.6800  179.0990  145.7360 O   0  0  0  0  0  0  0  0  0  0  0  0
  186.1960  176.7110  146.8770 C   0  0  0  0  0  2  0  0  0  0  0  0
  184.4810  178.4790  146.7300 C   0  0  0  0  0  2  0  0  0  0  0  0
  183.4980  178.4920  142.9990 O   0  0  0  0  0  0  0  0  0  0  0  0
  185.7040  177.6750  144.6500 C   0  0  1  0  0  3  0  0  0  0  0  0
  184.5260  178.9600  144.2630 P   0  0  2  0  0  0  0  0  0  0  0  0
  185.1990  180.2640  143.9160 O   0  0  0  0  0  1  0  0  0  0  0  0
  188.4100  172.2970  142.4110 C   0  0  0  0  0  2  0  0  0  0  0  0
  189.9800  170.3270  140.6520 C   0  0  0  0  0  3  0  0  0  0  0  0
  190.3680  172.2910  144.0130 C   0  0  0  0  0  0  0  0  0  0  0  0
  193.6680  170.1220  140.4610 C   0  0  0  0  0  3  0  0  0  0  0  0
  189.7010  171.7540  142.8380 N   0  0  0  0  0  0  0  0  0  0  0  0
  194.4060  168.4100  136.6840 C   0  0  0  0  0  3  0  0  0  0  0  0
  193.0880  168.5500  137.1330 C   0  0  0  0  0  3  0  0  0  0  0  0
  192.3420  170.2820  140.8580 C   0  0  0  0  0  0  0  0  0  0  0  0
  191.2850  169.9120  140.0500 C   0  0  0  0  0  0  0  0  0  0  0  0
  195.2270  169.3990  138.7410 C   0  0  0  0  0  3  0  0  0  0  0  0
  192.8250  169.1200  138.3850 C   0  0  0  0  0  0  0  0  0  0  0  0
  192.4880  171.5870  143.0850 N   0  0  0  0  0  0  0  0  0  0  0  0
  191.7110  172.2410  144.1040 C   0  0  0  0  0  3  0  0  0  0  0  0
  191.4980  169.3220  138.8040 C   0  0  0  0  0  3  0  0  0  0  0  0
  193.9130  169.5380  139.2070 C   0  0  0  0  0  0  0  0  0  0  0  0
  195.4710  168.8390  137.4800 C   0  0  0  0  0  3  0  0  0  0  0  0
  190.4750  170.9830  141.9110 C   0  0  0  0  0  0  0  0  0  0  0  0
  191.7930  170.9240  142.0280 C   0  0  0  0  0  0  0  0  0  0  0  0
  189.6420  172.8840  145.0510 O   0  0  0  0  0  0  0  0  0  0  0  0
  191.4320  174.2830  145.7660 C   0  0  0  0  0  3  0  0  0  0  0  0
  191.0480  176.0380  147.5290 C   0  0  1  0  0  3  0  0  0  0  0  0
  189.2960  174.3490  147.0390 C   0  0  0  0  0  2  0  0  0  0  0  0
  192.0790  175.2780  146.6900 C   0  0  0  0  0  2  0  0  0  0  0  0
  190.0810  175.0410  148.1530 C   0  0  0  0  0  2  0  0  0  0  0  0
  191.7550  176.8150  148.6120 C   0  0  0  0  0  1  0  0  0  0  0  0
  190.1850  173.8160  145.9430 C   0  0  0  0  0  0  0  0  0  0  0  0
  192.7450  175.4210  142.6900 C   0  0  0  0  0  2  0  0  0  0  0  0
  194.2070  175.1220  143.0350 C   0  0  2  0  0  3  0  0  0  0  0  0
  195.0630  176.3860  143.1550 C   0  0  0  0  0  2  0  0  0  0  0  0
  195.3310  176.6690  144.5610 N   0  0  0  0  0  1  0  0  0  0  0  0
  194.7380  174.1980  142.1110 O   0  0  0  0  0  0  0  0  0  0  0  0
  195.6540  173.3150  142.7470 C   0  0  1  0  0  3  0  0  0  0  0  0
  196.9560  173.7980  142.6230 O   0  0  0  0  0  1  0  0  0  0  0  0
  195.3420  172.9720  144.2140 C   0  0  0  0  0  2  0  0  0  0  0  0
  197.0740  169.9680  146.3890 C   0  0  0  0  0  2  0  0  0  0  0  0
  195.7310  170.6650  143.3910 O   0  0  0  0  0  1  0  0  0  0  0  0
  195.6000  171.5020  144.5050 C   0  0  1  0  0  0  0  0  0  0  0  0
  196.4980  171.2530  145.7570 C   0  0  0  0  0  0  0  0  0  0  0  0
  197.6530  170.4500  145.1280 C   0  0  0  0  0  2  0  0  0  0  0  0
  194.9520  170.9210  145.7080 C   0  0  2  0  0  3  0  0  0  0  0  0
  194.0840  169.1410  144.2760 O   0  0  0  0  0  0  0  0  0  0  0  0
  194.4130  169.5250  145.4400 C   0  0  0  0  0  0  0  0  0  0  0  0
  194.1380  168.6960  146.5230 O   0  0  0  0  0  1  0  0  0  0  0  0
  1 50  1  0  0  0  0
  2  1  2  0  0  0  0
  2  5  1  0  0  0  0
  3  2  1  0  0  0  0
  4  5  1  0  0  0  0
  4 24  1  6  0  0  0
  5  8  1  6  0  0  0
  6  3  1  0  0  0  0
  6  7  1  0  0  0  0
  7  4  1  0  0  0  0
  8  9  1  6  0  0  0
  8 11  1  0  0  0  0
 11 10  1  0  0  0  0
 12 13  1  1  0  0  0
 12 11  1  0  0  0  0
 12 15  1  0  0  0  0
 14 13  1  0  0  0  0
 16 19  1  0  0  0  0
 16 18  2  0  0  0  0
 17 19  1  0  0  0  0
 21 15  1  1  0  0  0
 21 16  1  0  0  0  0
 22 20  2  6  0  0  0
 22 21  1  0  0  0  0
 22 17  1  0  0  0  0
 23 22  1  0  0  0  0
 24 28  1  0  0  0  0
 25 40  2  0  0  0  0
 26 36  2  0  0  0  0
 26 42  1  0  0  0  0
 27 31  1  0  0  0  0
 28 26  1  0  0  0  0
 29 30  2  0  0  0  0
 29 39  1  0  0  0  0
 30 34  1  0  0  0  0
 31 41  1  0  0  0  0
 32 25  1  0  0  0  0
 32 31  2  0  0  0  0
 33 38  1  0  0  0  0
 34 37  2  0  0  0  0
 34 38  1  0  0  0  0
 35 36  1  0  0  0  0
 37 32  1  0  0  0  0
 38 27  2  0  0  0  0
 39 33  2  0  0  0  0
 40 41  1  0  0  0  0
 40 28  1  0  0  0  0
 41 35  2  0  0  0  0
 42 49  1  0  0  0  0
 43 49  2  0  0  0  0
 43 46  1  0  0  0  0
 44 47  1  0  0  0  0
 44 48  1  1  0  0  0
 45 47  1  0  0  0  0
 46 44  1  0  0  0  0
 49 45  1  0  0  0  0
 51 50  1  6  0  0  0
 51 52  1  0  0  0  0
 52 53  1  0  0  0  0
 54 55  1  0  0  0  0
 54 51  1  0  0  0  0
 55 56  1  1  0  0  0
 55 57  1  0  0  0  0
 57 60  1  0  0  0  0
 60 59  1  6  0  0  0
 60 63  1  0  0  0  0
 60 61  1  0  0  0  0
 61 58  1  0  0  0  0
 62 61  1  0  0  0  0
 62 58  1  0  0  0  0
 63 65  1  6  0  0  0
 63 61  1  0  0  0  0
 64 65  2  0  0  0  0
 65 66  1  0  0  0  0
M  END
>  <MODEL>
8

>  <REMARK>
 VINA RESULT:      -4.7      3.728      8.668
  Name = 
  18 active torsions:
  status: ('A' for Active; 'I' for Inactive)
    1  A    between atoms: C_1  and  C_36
    2  A    between atoms: C_1  and  N_62
    3  A    between atoms: O_2  and  C_25
    4  A    between atoms: O_2  and  C_39
    5  A    between atoms: C_6  and  O_12
    6  A    between atoms: C_11  and  C_23
    7  A    between atoms: C_11  and  C_25
    8  A    between atoms: O_12  and  C_53
    9  A    between atoms: C_13  and  C_19
   10  A    between atoms: C_14  and  C_39
   11  A    between atoms: C_14  and  C_49
   12  A    between atoms: C_19  and  C_41
   13  A    between atoms: C_19  and  N_62
   14  A    between atoms: N_20  and  C_33
   15  A    between atoms: C_21  and  C_25
   16  A    between atoms: C_32  and  C_33
   17  A    between atoms: C_41  and  C_58
   18  A    between atoms: C_60  and  C_64
                            x       y       z     vdW  Elec       q    Type
                         _______ _______ _______ _____ _____    ______ ____

>  <TORSDO>
F 18

$$$$
=
 OpenBabel11042416203D

 66 74  0  0  1  0  0  0  0  0999 V2000
  190.3870  171.1480  139.5180 C   0  0  0  0  0  3  0  0  0  0  0  0
  190.1540  172.3170  140.1390 C   0  0  0  0  0  0  0  0  0  0  0  0
  188.8980  173.0260  139.7240 C   0  0  0  0  0  2  0  0  0  0  0  0
  190.6360  174.2470  141.7840 C   0  0  1  0  0  3  0  0  0  0  0  0
  191.1280  172.9400  141.1420 C   0  0  2  0  0  3  0  0  0  0  0  0
  188.5440  174.1780  140.6510 C   0  0  0  0  0  2  0  0  0  0  0  0
  189.7230  174.9940  140.9130 N   0  0  0  0  0  2  0  0  0  0  0  0
  192.5450  173.1100  140.5570 C   0  0  1  0  0  3  0  0  0  0  0  0
  192.6120  174.2380  139.7400 O   0  0  0  0  0  1  0  0  0  0  0  0
  194.4130  171.8840  141.5570 C   0  0  0  0  0  1  0  0  0  0  0  0
  193.6510  173.1300  141.5440 N   0  0  0  0  0  0  0  0  0  0  0  0
  194.6080  174.2070  141.2300 C   0  0  1  0  0  3  0  0  0  0  0  0
  193.9970  175.6050  141.3720 C   0  0  0  0  0  2  0  0  0  0  0  0
  195.0000  176.5470  141.5810 O   0  0  0  0  0  1  0  0  0  0  0  0
  195.8740  174.0890  142.0810 C   0  0  0  0  0  2  0  0  0  0  0  0
  197.5910  172.3820  141.2130 C   0  0  0  0  0  0  0  0  0  0  0  0
  197.7530  172.8330  138.8330 O   0  0  0  0  0  0  0  0  0  0  0  0
  197.9380  171.6850  142.2940 C   0  0  0  0  0  2  0  0  0  0  0  0
  197.8360  171.8300  139.8330 C   0  0  0  0  0  2  0  0  0  0  0  0
  197.7730  175.6250  139.1410 O   0  0  0  0  0  1  0  0  0  0  0  0
  197.1620  173.8080  141.2820 C   0  0  1  0  0  3  0  0  0  0  0  0
  196.9860  174.1780  139.5440 P   0  0  2  0  0  0  0  0  0  0  0  0
  195.5420  174.2470  139.1190 O   0  0  0  0  0  0  0  0  0  0  0  0
  190.0460  174.0230  143.1880 C   0  0  0  0  0  2  0  0  0  0  0  0
  191.7700  171.7930  144.4110 C   0  0  0  0  0  3  0  0  0  0  0  0
  191.4040  175.6860  144.5260 C   0  0  0  0  0  0  0  0  0  0  0  0
  195.2710  172.1880  145.5360 C   0  0  0  0  0  3  0  0  0  0  0  0
  191.0530  174.3110  144.2110 N   0  0  0  0  0  0  0  0  0  0  0  0
  196.8610  168.2930  145.3300 C   0  0  0  0  0  3  0  0  0  0  0  0
  195.5040  168.5000  145.0570 C   0  0  0  0  0  3  0  0  0  0  0  0
  193.9260  172.3620  145.2190 C   0  0  0  0  0  0  0  0  0  0  0  0
  193.1210  171.3080  144.8330 C   0  0  0  0  0  0  0  0  0  0  0  0
  197.1550  170.6650  145.7420 C   0  0  0  0  0  3  0  0  0  0  0  0
  194.9600  169.7890  145.1180 C   0  0  0  0  0  0  0  0  0  0  0  0
  193.5790  174.9240  145.2610 N   0  0  0  0  0  0  0  0  0  0  0  0
  192.6340  175.9750  144.9930 C   0  0  0  0  0  3  0  0  0  0  0  0
  193.6130  170.0040  144.7770 C   0  0  0  0  0  3  0  0  0  0  0  0
  195.7970  170.8860  145.4800 C   0  0  0  0  0  0  0  0  0  0  0  0
  197.6850  169.3700  145.6630 C   0  0  0  0  0  3  0  0  0  0  0  0
  191.9510  173.2710  144.6190 C   0  0  0  0  0  0  0  0  0  0  0  0
  193.1480  173.5720  145.0990 C   0  0  0  0  0  0  0  0  0  0  0  0
  190.4930  176.7280  144.3320 O   0  0  0  0  0  0  0  0  0  0  0  0
  188.9820  176.4360  146.1510 C   0  0  0  0  0  3  0  0  0  0  0  0
  186.5920  177.1980  145.9530 C   0  0  1  0  0  3  0  0  0  0  0  0
  188.0660  177.1690  143.9570 C   0  0  0  0  0  2  0  0  0  0  0  0
  187.6150  176.4110  146.7770 C   0  0  0  0  0  2  0  0  0  0  0  0
  186.6920  176.7710  144.4950 C   0  0  0  0  0  2  0  0  0  0  0  0
  185.2040  176.9180  146.4760 C   0  0  0  0  0  1  0  0  0  0  0  0
  189.1950  176.7310  144.8570 C   0  0  0  0  0  0  0  0  0  0  0  0
  191.6360  170.3270  139.6620 C   0  0  0  0  0  2  0  0  0  0  0  0
  191.6380  169.0800  138.7720 C   0  0  2  0  0  3  0  0  0  0  0  0
  193.0100  168.4070  138.6890 C   0  0  0  0  0  2  0  0  0  0  0  0
  193.8890  168.9470  139.7210 N   0  0  0  0  0  1  0  0  0  0  0  0
  191.1160  169.3970  137.5000 O   0  0  0  0  0  0  0  0  0  0  0  0
  192.1500  169.4410  136.5250 C   0  0  1  0  0  3  0  0  0  0  0  0
  191.8800  168.5410  135.4940 O   0  0  0  0  0  1  0  0  0  0  0  0
  192.4730  170.8330  135.9550 C   0  0  0  0  0  2  0  0  0  0  0  0
  196.3950  170.2860  134.9160 C   0  0  0  0  0  2  0  0  0  0  0  0
  194.4160  171.4280  137.3780 O   0  0  0  0  0  1  0  0  0  0  0  0
  193.9540  171.1530  136.0850 C   0  0  1  0  0  0  0  0  0  0  0  0
  194.8640  170.3500  135.1040 C   0  0  0  0  0  0  0  0  0  0  0  0
  195.8050  169.6420  136.0980 C   0  0  0  0  0  2  0  0  0  0  0  0
  194.5890  171.9030  134.9710 C   0  0  2  0  0  3  0  0  0  0  0  0
  195.1580  174.0890  135.9050 O   0  0  0  0  0  1  0  0  0  0  0  0
  195.5550  172.9610  135.4830 C   0  0  0  0  0  0  0  0  0  0  0  0
  196.9220  172.7370  135.3470 O   0  0  0  0  0  0  0  0  0  0  0  0
  1 50  1  0  0  0  0
  1  2  2  0  0  0  0
  2  5  1  0  0  0  0
  3  2  1  0  0  0  0
  3  6  1  0  0  0  0
  4 24  1  1  0  0  0
  5  8  1  6  0  0  0
  5  4  1  0  0  0  0
  6  7  1  0  0  0  0
  7  4  1  0  0  0  0
  8  9  1  1  0  0  0
  8 11  1  0  0  0  0
 11 10  1  0  0  0  0
 12 13  1  1  0  0  0
 12 11  1  0  0  0  0
 12 15  1  0  0  0  0
 13 14  1  0  0  0  0
 16 21  1  0  0  0  0
 16 18  2  0  0  0  0
 17 22  1  0  0  0  0
 17 19  1  0  0  0  0
 19 16  1  0  0  0  0
 20 22  1  0  0  0  0
 21 15  1  1  0  0  0
 22 23  2  6  0  0  0
 22 21  1  0  0  0  0
 24 28  1  0  0  0  0
 25 40  2  0  0  0  0
 25 32  1  0  0  0  0
 26 36  2  0  0  0  0
 28 26  1  0  0  0  0
 28 40  1  0  0  0  0
 29 39  1  0  0  0  0
 30 34  1  0  0  0  0
 30 29  2  0  0  0  0
 31 27  2  0  0  0  0
 32 31  1  0  0  0  0
 34 38  2  0  0  0  0
 36 35  1  0  0  0  0
 37 32  2  0  0  0  0
 37 34  1  0  0  0  0
 38 27  1  0  0  0  0
 38 33  1  0  0  0  0
 39 33  2  0  0  0  0
 40 41  1  0  0  0  0
 41 31  1  0  0  0  0
 41 35  2  0  0  0  0
 42 26  1  0  0  0  0
 42 49  1  0  0  0  0
 43 46  1  0  0  0  0
 44 48  1  1  0  0  0
 44 46  1  0  0  0  0
 45 47  1  0  0  0  0
 45 49  1  0  0  0  0
 47 44  1  0  0  0  0
 49 43  2  0  0  0  0
 51 52  1  6  0  0  0
 51 50  1  0  0  0  0
 52 53  1  0  0  0  0
 54 51  1  0  0  0  0
 55 56  1  6  0  0  0
 55 54  1  0  0  0  0
 57 60  1  0  0  0  0
 57 55  1  0  0  0  0
 58 61  1  0  0  0  0
 58 62  1  0  0  0  0
 60 59  1  1  0  0  0
 61 60  1  0  0  0  0
 61 62  1  0  0  0  0
 63 61  1  0  0  0  0
 63 65  1  1  0  0  0
 63 60  1  0  0  0  0
 65 64  1  0  0  0  0
 66 65  2  0  0  0  0
M  END
>  <MODEL>
9

>  <REMARK>
 VINA RESULT:      -4.7      1.449      1.891
  Name = 
  18 active torsions:
  status: ('A' for Active; 'I' for Inactive)
    1  A    between atoms: C_1  and  C_36
    2  A    between atoms: C_1  and  N_62
    3  A    between atoms: O_2  and  C_25
    4  A    between atoms: O_2  and  C_39
    5  A    between atoms: C_6  and  O_12
    6  A    between atoms: C_11  and  C_23
    7  A    between atoms: C_11  and  C_25
    8  A    between atoms: O_12  and  C_53
    9  A    between atoms: C_13  and  C_19
   10  A    between atoms: C_14  and  C_39
   11  A    between atoms: C_14  and  C_49
   12  A    between atoms: C_19  and  C_41
   13  A    between atoms: C_19  and  N_62
   14  A    between atoms: N_20  and  C_33
   15  A    between atoms: C_21  and  C_25
   16  A    between atoms: C_32  and  C_33
   17  A    between atoms: C_41  and  C_58
   18  A    between atoms: C_60  and  C_64
                            x       y       z     vdW  Elec       q    Type
                         _______ _______ _______ _____ _____    ______ ____

>  <TORSDO>
F 18

$$$$
