=
 OpenBabel11042416293D

 29 33  0  0  0  0  0  0  0  0999 V2000
  188.5690  173.2870  137.4700 C   0  0  0  0  0  3  0  0  0  0  0  0
  188.4870  175.6690  143.6170 C   0  0  0  0  0  0  0  0  0  0  0  0
  188.0540  177.5390  146.8610 C   0  0  0  0  0  1  0  0  0  0  0  0
  186.9640  177.4400  143.1820 C   0  0  0  0  0  3  0  0  0  0  0  0
  189.5370  175.1110  145.4560 C   0  0  0  0  0  0  0  0  0  0  0  0
  190.0380  172.0340  138.9710 C   0  0  0  0  0  3  0  0  0  0  0  0
  189.9380  174.2430  144.4830 N   0  0  0  0  0  0  0  0  0  0  0  0
  187.6340  175.8440  141.2670 C   0  0  0  0  0  2  0  0  0  0  0  0
  188.1910  174.1440  138.5180 C   0  0  0  0  0  3  0  0  0  0  0  0
  190.0360  172.9380  141.3920 C   0  0  0  0  0  0  0  0  0  0  0  0
  190.8360  172.1550  141.9670 O   0  0  0  0  0  0  0  0  0  0  0  0
  188.5470  174.6400  141.0330 C   0  0  0  0  0  0  0  0  0  0  0  0
  188.6260  176.0220  144.9230 C   0  0  0  0  0  0  0  0  0  0  0  0
  189.6480  172.8960  139.9930 C   0  0  0  0  0  0  0  0  0  0  0  0
  188.7510  173.9220  139.7760 C   0  0  0  0  0  0  0  0  0  0  0  0
  189.4870  172.2390  137.6940 C   0  0  0  0  0  0  0  0  0  0  0  0
  189.2770  174.5980  143.3560 C   0  0  0  0  0  0  0  0  0  0  0  0
  186.3550  178.9340  144.9880 O   0  0  0  0  0  1  0  0  0  0  0  0
  189.3030  174.0610  141.9860 C   0  0  0  0  0  0  0  0  0  0  0  0
  187.0790  177.8350  144.5410 C   0  0  0  0  0  0  0  0  0  0  0  0
  187.6840  176.3320  142.7060 C   0  0  0  0  0  0  0  0  0  0  0  0
  187.9250  177.1230  145.4330 C   0  0  0  0  0  0  0  0  0  0  0  0
  189.8730  171.3440  136.5710 C   0  0  0  0  0  1  0  0  0  0  0  0
  190.9050  173.1700  144.6400 C   0  0  0  0  0  1  0  0  0  0  0  0
  190.0740  175.1160  146.8520 C   0  0  0  0  0  2  0  0  0  0  0  0
  192.5110  176.2050  146.8790 C   0  0  0  0  0  0  0  0  0  0  0  0
  191.4100  175.7140  146.8690 C   0  0  0  0  0  0  0  0  0  0  0  0
  194.4060  177.1260  145.7510 C   0  0  0  0  0  2  0  0  0  0  0  0
  193.8220  176.7880  146.8900 C   0  0  0  0  0  3  0  0  0  0  0  0
  1 16  2  0  0  0  0
  1  9  1  0  0  0  0
  2 13  1  0  0  0  0
  4 20  1  0  0  0  0
  5 25  1  0  0  0  0
  6 14  2  0  0  0  0
  7 24  1  0  0  0  0
  7  5  1  0  0  0  0
  8 21  1  0  0  0  0
  9 15  2  0  0  0  0
 10 11  2  0  0  0  0
 10 19  1  0  0  0  0
 12  8  1  0  0  0  0
 12 19  2  0  0  0  0
 13 22  1  0  0  0  0
 13  5  2  0  0  0  0
 14 10  1  0  0  0  0
 15 14  1  0  0  0  0
 15 12  1  0  0  0  0
 16  6  1  0  0  0  0
 17  2  2  0  0  0  0
 17  7  1  0  0  0  0
 19 17  1  0  0  0  0
 20 18  1  0  0  0  0
 20 22  2  0  0  0  0
 21  4  2  0  0  0  0
 21  2  1  0  0  0  0
 22  3  1  0  0  0  0
 23 16  1  0  0  0  0
 25 27  1  0  0  0  0
 26 29  1  0  0  0  0
 27 26  3  0  0  0  0
 28 29  2  0  0  0  0
M  END
>  <MODEL>
1

>  <REMARK>
 VINA RESULT:      -7.7      0.000      0.000
  Name = 
  3 active torsions:
  status: ('A' for Active; 'I' for Inactive)
    1  A    between atoms: C_5  and  C_8
    2  A    between atoms: C_8  and  C_20
    3  A    between atoms: C_12  and  C_28
                            x       y       z     vdW  Elec       q    Type
                         _______ _______ _______ _____ _____    ______ ____

>  <TORSDO>
F 3

$$$$
=
 OpenBabel11042416293D

 29 33  0  0  1  0  0  0  0  0999 V2000
  183.8460  178.8250  143.6330 C   0  0  0  0  0  3  0  0  0  0  0  0
  189.7600  176.3550  145.1800 C   0  0  2  0  0  3  0  0  0  0  0  0
  193.0910  175.3460  146.6270 C   0  0  0  0  0  1  0  0  0  0  0  0
  189.9020  177.3650  147.3270 C   0  0  0  0  0  3  0  0  0  0  0  0
  191.1870  175.0920  144.1010 C   0  0  0  0  0  0  0  0  0  0  0  0
  184.7740  177.4460  141.8390 C   0  0  0  0  0  3  0  0  0  0  0  0
  190.1090  175.2720  143.2840 N   0  0  0  0  0  0  0  0  0  0  0  0
  187.8030  177.7580  145.8760 C   0  0  0  0  0  3  0  0  0  0  0  0
  184.9820  178.5950  144.4280 C   0  0  0  0  0  3  0  0  0  0  0  0
  187.0950  176.4590  142.4060 C   0  0  0  0  0  0  0  0  0  0  0  0
  187.3620  175.8000  141.3680 O   0  0  0  0  0  0  0  0  0  0  0  0
  187.2670  177.3830  144.4940 C   0  0  0  0  0  0  0  0  0  0  0  0
  190.9840  175.7770  145.2990 C   0  0  0  0  0  0  0  0  0  0  0  0
  185.8890  177.2330  142.6460 C   0  0  0  0  0  0  0  0  0  0  0  0
  185.9930  177.7900  143.9040 C   0  0  0  0  0  0  0  0  0  0  0  0
  183.7420  178.2550  142.3460 C   0  0  0  0  0  0  0  0  0  0  0  0
  189.2360  176.0500  143.9670 C   0  0  0  0  0  0  0  0  0  0  0  0
  191.8840  176.9950  148.6680 O   0  0  0  0  0  1  0  0  0  0  0  0
  187.9170  176.5990  143.6120 C   0  0  0  0  0  0  0  0  0  0  0  0
  191.1820  176.7720  147.4890 C   0  0  0  0  0  0  0  0  0  0  0  0
  189.1720  177.1540  146.1450 C   0  0  0  0  0  0  0  0  0  0  0  0
  191.7430  175.9660  146.4630 C   0  0  0  0  0  0  0  0  0  0  0  0
  182.5320  178.5100  141.5210 C   0  0  0  0  0  1  0  0  0  0  0  0
  189.9590  174.7450  141.9390 C   0  0  0  0  0  1  0  0  0  0  0  0
  192.4210  174.3430  143.7110 C   0  0  0  0  0  2  0  0  0  0  0  0
  193.9730  175.8800  142.1760 C   0  0  0  0  0  0  0  0  0  0  0  0
  193.2720  175.1880  142.8710 C   0  0  0  0  0  0  0  0  0  0  0  0
  196.1240  176.5720  141.3970 C   0  0  0  0  0  2  0  0  0  0  0  0
  194.8080  176.7020  141.3480 C   0  0  0  0  0  3  0  0  0  0  0  0
  1  9  1  0  0  0  0
  2 17  1  6  0  0  0
  2 13  1  0  0  0  0
  2 21  1  0  0  0  0
  4 20  1  0  0  0  0
  5 13  2  0  0  0  0
  6 16  1  0  0  0  0
  6 14  2  0  0  0  0
  7 17  1  0  0  0  0
  7  5  1  0  0  0  0
  8 21  1  0  0  0  0
 10 14  1  0  0  0  0
 10 19  1  0  0  0  0
 11 10  2  0  0  0  0
 12  8  2  0  0  0  0
 13 22  1  0  0  0  0
 14 15  1  0  0  0  0
 15  9  2  0  0  0  0
 15 12  1  0  0  0  0
 16  1  2  0  0  0  0
 19 17  2  0  0  0  0
 19 12  1  0  0  0  0
 20 18  1  0  0  0  0
 21  4  2  0  0  0  0
 22  3  1  0  0  0  0
 22 20  2  0  0  0  0
 23 16  1  0  0  0  0
 24  7  1  0  0  0  0
 25  5  1  0  0  0  0
 26 27  3  0  0  0  0
 27 25  1  0  0  0  0
 29 28  2  0  0  0  0
 29 26  1  0  0  0  0
M  END
>  <MODEL>
2

>  <REMARK>
 VINA RESULT:      -7.6      2.820      5.672
  Name = 
  3 active torsions:
  status: ('A' for Active; 'I' for Inactive)
    1  A    between atoms: C_5  and  C_8
    2  A    between atoms: C_8  and  C_20
    3  A    between atoms: C_12  and  C_28
                            x       y       z     vdW  Elec       q    Type
                         _______ _______ _______ _____ _____    ______ ____

>  <TORSDO>
F 3

$$$$
=
 OpenBabel11042416293D

 29 33  0  0  1  0  0  0  0  0999 V2000
  186.0260  178.3860  147.1980 C   0  0  0  0  0  3  0  0  0  0  0  0
  191.3750  175.4940  144.6490 C   0  0  2  0  0  3  0  0  0  0  0  0
  194.7590  174.1000  143.7470 C   0  0  0  0  0  1  0  0  0  0  0  0
  192.8150  175.9660  146.4810 C   0  0  0  0  0  3  0  0  0  0  0  0
  191.7740  174.4910  142.7440 C   0  0  0  0  0  0  0  0  0  0  0  0
  185.6060  177.4490  144.9790 C   0  0  0  0  0  3  0  0  0  0  0  0
  190.4670  174.8810  142.7290 N   0  0  0  0  0  0  0  0  0  0  0  0
  190.3520  176.7350  146.5720 C   0  0  0  0  0  3  0  0  0  0  0  0
  187.3620  177.9500  147.1550 C   0  0  0  0  0  3  0  0  0  0  0  0
  187.6810  176.3060  143.9430 C   0  0  0  0  0  0  0  0  0  0  0  0
  187.2360  175.9050  142.8360 O   0  0  0  0  0  0  0  0  0  0  0  0
  189.1000  176.7070  145.6950 C   0  0  0  0  0  0  0  0  0  0  0  0
  192.3630  174.8770  143.9480 C   0  0  0  0  0  0  0  0  0  0  0  0
  186.9330  177.0270  144.9590 C   0  0  0  0  0  0  0  0  0  0  0  0
  187.7890  177.2690  146.0150 C   0  0  0  0  0  0  0  0  0  0  0  0
  185.1530  178.1370  146.1180 C   0  0  0  0  0  0  0  0  0  0  0  0
  190.2360  175.4940  143.9150 C   0  0  0  0  0  0  0  0  0  0  0  0
  195.1250  175.2470  146.3720 O   0  0  0  0  0  1  0  0  0  0  0  0
  189.0370  176.1400  144.4740 C   0  0  0  0  0  0  0  0  0  0  0  0
  193.8700  175.3240  145.7800 C   0  0  0  0  0  0  0  0  0  0  0  0
  191.5370  176.0550  145.9050 C   0  0  0  0  0  0  0  0  0  0  0  0
  193.6510  174.7700  144.4900 C   0  0  0  0  0  0  0  0  0  0  0  0
  183.7450  178.6060  146.1850 C   0  0  0  0  0  1  0  0  0  0  0  0
  189.5300  174.6890  141.6350 C   0  0  0  0  0  1  0  0  0  0  0  0
  192.4670  173.8280  141.5960 C   0  0  0  0  0  2  0  0  0  0  0  0
  192.2030  171.1780  141.7860 C   0  0  0  0  0  0  0  0  0  0  0  0
  192.3240  172.3750  141.7010 C   0  0  0  0  0  0  0  0  0  0  0  0
  190.8800  169.1910  141.6600 C   0  0  0  0  0  2  0  0  0  0  0  0
  192.0570  169.7540  141.8870 C   0  0  0  0  0  3  0  0  0  0  0  0
  2 17  1  6  0  0  0
  2 21  1  0  0  0  0
  3 22  1  0  0  0  0
  5 13  2  0  0  0  0
  6 16  1  0  0  0  0
  7  5  1  0  0  0  0
  7 17  1  0  0  0  0
  9  1  1  0  0  0  0
 10 19  1  0  0  0  0
 10 14  1  0  0  0  0
 11 10  2  0  0  0  0
 12 15  1  0  0  0  0
 12  8  2  0  0  0  0
 13 22  1  0  0  0  0
 13  2  1  0  0  0  0
 14  6  2  0  0  0  0
 14 15  1  0  0  0  0
 15  9  2  0  0  0  0
 16 23  1  0  0  0  0
 16  1  2  0  0  0  0
 17 19  2  0  0  0  0
 19 12  1  0  0  0  0
 20 18  1  0  0  0  0
 20  4  1  0  0  0  0
 21  4  2  0  0  0  0
 21  8  1  0  0  0  0
 22 20  2  0  0  0  0
 24  7  1  0  0  0  0
 25 27  1  0  0  0  0
 25  5  1  0  0  0  0
 26 29  1  0  0  0  0
 27 26  3  0  0  0  0
 28 29  2  0  0  0  0
M  END
>  <MODEL>
3

>  <REMARK>
 VINA RESULT:      -7.5      2.591      7.217
  Name = 
  3 active torsions:
  status: ('A' for Active; 'I' for Inactive)
    1  A    between atoms: C_5  and  C_8
    2  A    between atoms: C_8  and  C_20
    3  A    between atoms: C_12  and  C_28
                            x       y       z     vdW  Elec       q    Type
                         _______ _______ _______ _____ _____    ______ ____

>  <TORSDO>
F 3

$$$$
=
 OpenBabel11042416293D

 29 33  0  0  1  0  0  0  0  0999 V2000
  183.7060  178.7160  143.5190 C   0  0  0  0  0  3  0  0  0  0  0  0
  189.7160  176.6650  145.2920 C   0  0  2  0  0  3  0  0  0  0  0  0
  193.0330  175.8520  146.8880 C   0  0  0  0  0  1  0  0  0  0  0  0
  189.6410  177.5420  147.5000 C   0  0  0  0  0  3  0  0  0  0  0  0
  191.3110  175.6020  144.2340 C   0  0  0  0  0  0  0  0  0  0  0  0
  184.8570  177.5410  141.7100 C   0  0  0  0  0  3  0  0  0  0  0  0
  190.2710  175.7420  143.3620 N   0  0  0  0  0  0  0  0  0  0  0  0
  187.6040  177.8470  145.9440 C   0  0  0  0  0  3  0  0  0  0  0  0
  184.8090  178.5320  144.3710 C   0  0  0  0  0  3  0  0  0  0  0  0
  187.2190  176.7210  142.3650 C   0  0  0  0  0  0  0  0  0  0  0  0
  187.6050  176.1570  141.3080 O   0  0  0  0  0  0  0  0  0  0  0  0
  187.1850  177.5180  144.5110 C   0  0  0  0  0  0  0  0  0  0  0  0
  190.9780  176.1870  145.4560 C   0  0  0  0  0  0  0  0  0  0  0  0
  185.9370  177.3710  142.5720 C   0  0  0  0  0  0  0  0  0  0  0  0
  185.9170  177.8520  143.8660 C   0  0  0  0  0  0  0  0  0  0  0  0
  183.7290  178.2240  142.1970 C   0  0  0  0  0  0  0  0  0  0  0  0
  189.2930  176.3960  144.0330 C   0  0  0  0  0  0  0  0  0  0  0  0
  191.5660  177.2550  148.9420 O   0  0  0  0  0  1  0  0  0  0  0  0
  187.9540  176.8510  143.6270 C   0  0  0  0  0  0  0  0  0  0  0  0
  190.9570  177.0510  147.7090 C   0  0  0  0  0  0  0  0  0  0  0  0
  189.0030  177.3470  146.2640 C   0  0  0  0  0  0  0  0  0  0  0  0
  191.6470  176.3640  146.6750 C   0  0  0  0  0  0  0  0  0  0  0  0
  182.5520  178.4280  141.3130 C   0  0  0  0  0  1  0  0  0  0  0  0
  190.2480  175.2920  141.9800 C   0  0  0  0  0  1  0  0  0  0  0  0
  192.6280  174.9880  143.8800 C   0  0  0  0  0  2  0  0  0  0  0  0
  192.4840  172.3330  144.1290 C   0  0  0  0  0  0  0  0  0  0  0  0
  192.5510  173.5320  144.0170 C   0  0  0  0  0  0  0  0  0  0  0  0
  193.4770  170.2090  144.5910 C   0  0  0  0  0  2  0  0  0  0  0  0
  192.4010  170.9070  144.2620 C   0  0  0  0  0  3  0  0  0  0  0  0
  1  9  1  0  0  0  0
  2 17  1  6  0  0  0
  2 13  1  0  0  0  0
  2 21  1  0  0  0  0
  4 20  1  0  0  0  0
  5 13  2  0  0  0  0
  6 16  1  0  0  0  0
  6 14  2  0  0  0  0
  7 17  1  0  0  0  0
  7  5  1  0  0  0  0
  8 21  1  0  0  0  0
 10 14  1  0  0  0  0
 10 19  1  0  0  0  0
 11 10  2  0  0  0  0
 12  8  2  0  0  0  0
 13 22  1  0  0  0  0
 14 15  1  0  0  0  0
 15  9  2  0  0  0  0
 15 12  1  0  0  0  0
 16  1  2  0  0  0  0
 19 17  2  0  0  0  0
 19 12  1  0  0  0  0
 20 18  1  0  0  0  0
 21  4  2  0  0  0  0
 22  3  1  0  0  0  0
 22 20  2  0  0  0  0
 23 16  1  0  0  0  0
 24  7  1  0  0  0  0
 25 27  1  0  0  0  0
 25  5  1  0  0  0  0
 26 29  1  0  0  0  0
 27 26  3  0  0  0  0
 29 28  2  0  0  0  0
M  END
>  <MODEL>
4

>  <REMARK>
 VINA RESULT:      -7.5      2.945      5.763
  Name = 
  3 active torsions:
  status: ('A' for Active; 'I' for Inactive)
    1  A    between atoms: C_5  and  C_8
    2  A    between atoms: C_8  and  C_20
    3  A    between atoms: C_12  and  C_28
                            x       y       z     vdW  Elec       q    Type
                         _______ _______ _______ _____ _____    ______ ____

>  <TORSDO>
F 3

$$$$
=
 OpenBabel11042416293D

 29 33  0  0  0  0  0  0  0  0999 V2000
  185.2400  177.4040  145.1750 C   0  0  0  0  0  3  0  0  0  0  0  0
  191.1220  174.9610  143.4680 C   0  0  0  0  0  0  0  0  0  0  0  0
  194.1520  173.3340  141.9270 C   0  0  0  0  0  1  0  0  0  0  0  0
  190.4670  174.2120  141.3090 C   0  0  0  0  0  3  0  0  0  0  0  0
  193.0390  174.7980  144.5130 C   0  0  0  0  0  0  0  0  0  0  0  0
  186.9030  177.6590  146.9510 C   0  0  0  0  0  3  0  0  0  0  0  0
  192.1680  175.4180  145.3600 N   0  0  0  0  0  0  0  0  0  0  0  0
  188.7390  175.3930  142.8200 C   0  0  0  0  0  2  0  0  0  0  0  0
  186.1880  176.7780  144.3470 C   0  0  0  0  0  3  0  0  0  0  0  0
  189.2240  176.7120  146.3210 C   0  0  0  0  0  0  0  0  0  0  0  0
  189.8970  176.9540  147.3560 O   0  0  0  0  0  0  0  0  0  0  0  0
  188.6520  176.0000  144.2210 C   0  0  0  0  0  0  0  0  0  0  0  0
  192.3900  174.4970  143.3150 C   0  0  0  0  0  0  0  0  0  0  0  0
  187.8230  177.0360  146.1120 C   0  0  0  0  0  0  0  0  0  0  0  0
  187.4790  176.6070  144.8460 C   0  0  0  0  0  0  0  0  0  0  0  0
  185.5950  177.8420  146.4690 C   0  0  0  0  0  0  0  0  0  0  0  0
  190.9910  175.5150  144.6980 C   0  0  0  0  0  0  0  0  0  0  0  0
  192.0990  173.0960  139.9100 O   0  0  0  0  0  1  0  0  0  0  0  0
  189.6810  176.0610  145.0890 C   0  0  0  0  0  0  0  0  0  0  0  0
  191.7840  173.7190  141.1120 C   0  0  0  0  0  0  0  0  0  0  0  0
  190.1240  174.8470  142.5140 C   0  0  0  0  0  0  0  0  0  0  0  0
  192.7680  173.8560  142.1270 C   0  0  0  0  0  0  0  0  0  0  0  0
  184.5780  178.5020  147.3290 C   0  0  0  0  0  1  0  0  0  0  0  0
  192.4600  175.8580  146.7140 C   0  0  0  0  0  1  0  0  0  0  0  0
  194.4440  174.4330  144.8700 C   0  0  0  0  0  2  0  0  0  0  0  0
  194.5590  171.8580  145.5690 C   0  0  0  0  0  0  0  0  0  0  0  0
  194.5090  173.0220  145.2550 C   0  0  0  0  0  0  0  0  0  0  0  0
  195.7720  169.9260  146.2810 C   0  0  0  0  0  2  0  0  0  0  0  0
  194.6160  170.4740  145.9420 C   0  0  0  0  0  3  0  0  0  0  0  0
  1 16  1  0  0  0  0
  2 17  2  0  0  0  0
  3 22  1  0  0  0  0
  4 21  2  0  0  0  0
  5 25  1  0  0  0  0
  5  7  1  0  0  0  0
  7 24  1  0  0  0  0
  8 12  1  0  0  0  0
  9 15  1  0  0  0  0
  9  1  2  0  0  0  0
 10 11  2  0  0  0  0
 12 15  1  0  0  0  0
 12 19  2  0  0  0  0
 13  2  1  0  0  0  0
 13  5  2  0  0  0  0
 14 10  1  0  0  0  0
 14  6  1  0  0  0  0
 15 14  2  0  0  0  0
 16  6  2  0  0  0  0
 16 23  1  0  0  0  0
 17 19  1  0  0  0  0
 17  7  1  0  0  0  0
 18 20  1  0  0  0  0
 19 10  1  0  0  0  0
 20  4  1  0  0  0  0
 20 22  2  0  0  0  0
 21  8  1  0  0  0  0
 21  2  1  0  0  0  0
 22 13  1  0  0  0  0
 25 27  1  0  0  0  0
 26 29  1  0  0  0  0
 27 26  3  0  0  0  0
 29 28  2  0  0  0  0
M  END
>  <MODEL>
5

>  <REMARK>
 VINA RESULT:      -7.3      2.742      6.701
  Name = 
  3 active torsions:
  status: ('A' for Active; 'I' for Inactive)
    1  A    between atoms: C_5  and  C_8
    2  A    between atoms: C_8  and  C_20
    3  A    between atoms: C_12  and  C_28
                            x       y       z     vdW  Elec       q    Type
                         _______ _______ _______ _____ _____    ______ ____

>  <TORSDO>
F 3

$$$$
=
 OpenBabel11042416293D

 29 33  0  0  1  0  0  0  0  0999 V2000
  180.0270  179.3390  142.0940 C   0  0  0  0  0  3  0  0  0  0  0  0
  186.1710  177.8800  143.9890 C   0  0  2  0  0  3  0  0  0  0  0  0
  189.4900  177.3120  145.6830 C   0  0  0  0  0  1  0  0  0  0  0  0
  185.8740  178.4560  146.2750 C   0  0  0  0  0  3  0  0  0  0  0  0
  187.9440  177.1740  142.9150 C   0  0  0  0  0  0  0  0  0  0  0  0
  181.4110  178.5590  140.2350 C   0  0  0  0  0  3  0  0  0  0  0  0
  186.9370  177.2860  142.0020 N   0  0  0  0  0  0  0  0  0  0  0  0
  183.8900  178.6870  144.6410 C   0  0  0  0  0  3  0  0  0  0  0  0
  181.1040  179.1950  142.9860 C   0  0  0  0  0  3  0  0  0  0  0  0
  183.8300  177.9770  140.9360 C   0  0  0  0  0  0  0  0  0  0  0  0
  184.3380  177.6050  139.8470 O   0  0  0  0  0  0  0  0  0  0  0  0
  183.5870  178.4890  143.1550 C   0  0  0  0  0  0  0  0  0  0  0  0
  187.4780  177.5530  144.1740 C   0  0  0  0  0  0  0  0  0  0  0  0
  182.4630  178.4250  141.1380 C   0  0  0  0  0  0  0  0  0  0  0  0
  182.3170  178.7330  142.4750 C   0  0  0  0  0  0  0  0  0  0  0  0
  180.1790  179.0230  140.7270 C   0  0  0  0  0  0  0  0  0  0  0  0
  185.8490  177.7180  142.6820 C   0  0  0  0  0  0  0  0  0  0  0  0
  187.7510  178.2440  147.7910 O   0  0  0  0  0  1  0  0  0  0  0  0
  184.4800  178.0430  142.2490 C   0  0  0  0  0  0  0  0  0  0  0  0
  187.2330  178.1180  146.5080 C   0  0  0  0  0  0  0  0  0  0  0  0
  185.3270  178.3360  144.9870 C   0  0  0  0  0  0  0  0  0  0  0  0
  188.0590  177.6620  145.4450 C   0  0  0  0  0  0  0  0  0  0  0  0
  179.0280  179.1820  139.8000 C   0  0  0  0  0  1  0  0  0  0  0  0
  187.0400  177.0140  140.5780 C   0  0  0  0  0  1  0  0  0  0  0  0
  189.3480  176.7860  142.5750 C   0  0  0  0  0  2  0  0  0  0  0  0
  189.7250  174.1920  143.0870 C   0  0  0  0  0  0  0  0  0  0  0  0
  189.5520  175.3640  142.8570 C   0  0  0  0  0  0  0  0  0  0  0  0
  189.7780  172.3330  144.5880 C   0  0  0  0  0  2  0  0  0  0  0  0
  189.9310  172.7990  143.3590 C   0  0  0  0  0  3  0  0  0  0  0  0
  1  9  1  0  0  0  0
  2 17  1  6  0  0  0
  2 13  1  0  0  0  0
  2 21  1  0  0  0  0
  4 20  1  0  0  0  0
  5 13  2  0  0  0  0
  6 16  1  0  0  0  0
  6 14  2  0  0  0  0
  7 17  1  0  0  0  0
  7  5  1  0  0  0  0
  8 21  1  0  0  0  0
 10 14  1  0  0  0  0
 10 19  1  0  0  0  0
 11 10  2  0  0  0  0
 12  8  2  0  0  0  0
 13 22  1  0  0  0  0
 14 15  1  0  0  0  0
 15  9  2  0  0  0  0
 15 12  1  0  0  0  0
 16  1  2  0  0  0  0
 19 17  2  0  0  0  0
 19 12  1  0  0  0  0
 20 18  1  0  0  0  0
 21  4  2  0  0  0  0
 22  3  1  0  0  0  0
 22 20  2  0  0  0  0
 23 16  1  0  0  0  0
 24  7  1  0  0  0  0
 25 27  1  0  0  0  0
 25  5  1  0  0  0  0
 26 29  1  0  0  0  0
 27 26  3  0  0  0  0
 29 28  2  0  0  0  0
M  END
>  <MODEL>
6

>  <REMARK>
 VINA RESULT:      -7.3      3.951      6.975
  Name = 
  3 active torsions:
  status: ('A' for Active; 'I' for Inactive)
    1  A    between atoms: C_5  and  C_8
    2  A    between atoms: C_8  and  C_20
    3  A    between atoms: C_12  and  C_28
                            x       y       z     vdW  Elec       q    Type
                         _______ _______ _______ _____ _____    ______ ____

>  <TORSDO>
F 3

$$$$
=
 OpenBabel11042416293D

 29 33  0  0  0  0  0  0  0  0999 V2000
  184.8900  177.8230  145.2940 C   0  0  0  0  0  3  0  0  0  0  0  0
  189.8120  174.7400  142.1730 C   0  0  0  0  0  0  0  0  0  0  0  0
  192.1590  172.8800  139.8840 C   0  0  0  0  0  1  0  0  0  0  0  0
  188.6430  174.4010  140.1310 C   0  0  0  0  0  3  0  0  0  0  0  0
  191.8280  174.1390  142.7780 C   0  0  0  0  0  0  0  0  0  0  0  0
  186.8710  177.5720  146.7060 C   0  0  0  0  0  3  0  0  0  0  0  0
  191.2570  174.7670  143.8450 N   0  0  0  0  0  0  0  0  0  0  0  0
  187.4680  175.6240  142.0770 C   0  0  0  0  0  2  0  0  0  0  0  0
  185.5380  177.1740  144.2290 C   0  0  0  0  0  3  0  0  0  0  0  0
  188.8250  176.3660  145.5180 C   0  0  0  0  0  0  0  0  0  0  0  0
  189.7110  176.3570  146.4120 O   0  0  0  0  0  0  0  0  0  0  0  0
  187.7550  176.0420  143.5200 C   0  0  0  0  0  0  0  0  0  0  0  0
  190.9250  174.1070  141.7160 C   0  0  0  0  0  0  0  0  0  0  0  0
  187.4920  176.9310  145.6360 C   0  0  0  0  0  0  0  0  0  0  0  0
  186.8470  176.7360  144.4320 C   0  0  0  0  0  0  0  0  0  0  0  0
  185.5520  178.0210  146.5250 C   0  0  0  0  0  0  0  0  0  0  0  0
  190.0140  175.1360  143.4530 C   0  0  0  0  0  0  0  0  0  0  0  0
  189.7580  173.2420  138.3200 O   0  0  0  0  0  1  0  0  0  0  0  0
  188.9210  175.8240  144.1590 C   0  0  0  0  0  0  0  0  0  0  0  0
  189.7900  173.7390  139.6180 C   0  0  0  0  0  0  0  0  0  0  0  0
  188.6510  174.9140  141.4390 C   0  0  0  0  0  0  0  0  0  0  0  0
  190.9540  173.5810  140.4170 C   0  0  0  0  0  0  0  0  0  0  0  0
  184.8490  178.7110  147.6380 C   0  0  0  0  0  1  0  0  0  0  0  0
  191.8700  174.9690  145.1480 C   0  0  0  0  0  1  0  0  0  0  0  0
  193.1860  173.5120  142.7990 C   0  0  0  0  0  2  0  0  0  0  0  0
  195.0490  175.3760  142.3730 C   0  0  0  0  0  0  0  0  0  0  0  0
  194.2090  174.5320  142.5660 C   0  0  0  0  0  0  0  0  0  0  0  0
  196.8180  176.7900  143.1360 C   0  0  0  0  0  2  0  0  0  0  0  0
  196.0470  176.3810  142.1420 C   0  0  0  0  0  3  0  0  0  0  0  0
  1 16  1  0  0  0  0
  2 17  2  0  0  0  0
  3 22  1  0  0  0  0
  4 21  2  0  0  0  0
  5 25  1  0  0  0  0
  5  7  1  0  0  0  0
  7 24  1  0  0  0  0
  8 12  1  0  0  0  0
  9 15  1  0  0  0  0
  9  1  2  0  0  0  0
 10 14  1  0  0  0  0
 10 11  2  0  0  0  0
 12 19  2  0  0  0  0
 12 15  1  0  0  0  0
 13  2  1  0  0  0  0
 13  5  2  0  0  0  0
 14  6  1  0  0  0  0
 15 14  2  0  0  0  0
 16  6  2  0  0  0  0
 16 23  1  0  0  0  0
 17  7  1  0  0  0  0
 17 19  1  0  0  0  0
 18 20  1  0  0  0  0
 19 10  1  0  0  0  0
 20  4  1  0  0  0  0
 20 22  2  0  0  0  0
 21  8  1  0  0  0  0
 21  2  1  0  0  0  0
 22 13  1  0  0  0  0
 26 27  3  0  0  0  0
 27 25  1  0  0  0  0
 29 26  1  0  0  0  0
 29 28  2  0  0  0  0
M  END
>  <MODEL>
7

>  <REMARK>
 VINA RESULT:      -7.3      2.366      6.465
  Name = 
  3 active torsions:
  status: ('A' for Active; 'I' for Inactive)
    1  A    between atoms: C_5  and  C_8
    2  A    between atoms: C_8  and  C_20
    3  A    between atoms: C_12  and  C_28
                            x       y       z     vdW  Elec       q    Type
                         _______ _______ _______ _____ _____    ______ ____

>  <TORSDO>
F 3

$$$$
=
 OpenBabel11042416293D

 29 33  0  0  0  0  0  0  0  0999 V2000
  184.9230  177.5410  143.9820 C   0  0  0  0  0  3  0  0  0  0  0  0
  190.8850  174.7670  143.5090 C   0  0  0  0  0  0  0  0  0  0  0  0
  194.0250  172.8490  142.6930 C   0  0  0  0  0  1  0  0  0  0  0  0
  190.4690  173.6200  141.4700 C   0  0  0  0  0  3  0  0  0  0  0  0
  192.6580  174.7950  144.7940 C   0  0  0  0  0  0  0  0  0  0  0  0
  186.3690  178.1210  145.8670 C   0  0  0  0  0  3  0  0  0  0  0  0
  191.7130  175.5740  145.3940 N   0  0  0  0  0  0  0  0  0  0  0  0
  188.6120  175.0850  142.5030 C   0  0  0  0  0  2  0  0  0  0  0  0
  185.9420  176.7590  143.4120 C   0  0  0  0  0  3  0  0  0  0  0  0
  188.7170  177.0520  145.7200 C   0  0  0  0  0  0  0  0  0  0  0  0
  189.2700  177.4840  146.7650 O   0  0  0  0  0  0  0  0  0  0  0  0
  188.3780  175.9520  143.7410 C   0  0  0  0  0  0  0  0  0  0  0  0
  192.1480  174.2720  143.6060 C   0  0  0  0  0  0  0  0  0  0  0  0
  187.3620  177.3410  145.2820 C   0  0  0  0  0  0  0  0  0  0  0  0
  187.1580  176.6770  144.0900 C   0  0  0  0  0  0  0  0  0  0  0  0
  185.1340  178.2190  145.2020 C   0  0  0  0  0  0  0  0  0  0  0  0
  190.6270  175.5500  144.5860 C   0  0  0  0  0  0  0  0  0  0  0  0
  192.2200  172.2410  140.5220 O   0  0  0  0  0  1  0  0  0  0  0  0
  189.2970  176.1720  144.7010 C   0  0  0  0  0  0  0  0  0  0  0  0
  191.7840  173.0880  141.5340 C   0  0  0  0  0  0  0  0  0  0  0  0
  190.0060  174.4790  142.4800 C   0  0  0  0  0  0  0  0  0  0  0  0
  192.6450  173.4110  142.6180 C   0  0  0  0  0  0  0  0  0  0  0  0
  184.0430  179.0410  145.7880 C   0  0  0  0  0  1  0  0  0  0  0  0
  191.8550  176.2650  146.6650 C   0  0  0  0  0  1  0  0  0  0  0  0
  193.9990  174.4940  145.3850 C   0  0  0  0  0  2  0  0  0  0  0  0
  195.8790  175.9160  144.1310 C   0  0  0  0  0  0  0  0  0  0  0  0
  195.0310  175.2730  144.6990 C   0  0  0  0  0  0  0  0  0  0  0  0
  197.8320  176.0640  142.7620 C   0  0  0  0  0  2  0  0  0  0  0  0
  196.8870  176.6800  143.4530 C   0  0  0  0  0  3  0  0  0  0  0  0
  1 16  1  0  0  0  0
  2 13  1  0  0  0  0
  2 17  2  0  0  0  0
  4 20  1  0  0  0  0
  4 21  2  0  0  0  0
  5 25  1  0  0  0  0
  5  7  1  0  0  0  0
  7 24  1  0  0  0  0
  8 12  1  0  0  0  0
  9  1  2  0  0  0  0
  9 15  1  0  0  0  0
 10 11  2  0  0  0  0
 12 15  1  0  0  0  0
 12 19  2  0  0  0  0
 13  5  2  0  0  0  0
 14 10  1  0  0  0  0
 14  6  1  0  0  0  0
 15 14  2  0  0  0  0
 16 23  1  0  0  0  0
 16  6  2  0  0  0  0
 17 19  1  0  0  0  0
 17  7  1  0  0  0  0
 18 20  1  0  0  0  0
 19 10  1  0  0  0  0
 20 22  2  0  0  0  0
 21  8  1  0  0  0  0
 21  2  1  0  0  0  0
 22  3  1  0  0  0  0
 22 13  1  0  0  0  0
 26 27  3  0  0  0  0
 27 25  1  0  0  0  0
 28 29  2  0  0  0  0
 29 26  1  0  0  0  0
M  END
>  <MODEL>
8

>  <REMARK>
 VINA RESULT:      -7.3      2.333      6.328
  Name = 
  3 active torsions:
  status: ('A' for Active; 'I' for Inactive)
    1  A    between atoms: C_5  and  C_8
    2  A    between atoms: C_8  and  C_20
    3  A    between atoms: C_12  and  C_28
                            x       y       z     vdW  Elec       q    Type
                         _______ _______ _______ _____ _____    ______ ____

>  <TORSDO>
F 3

$$$$
=
 OpenBabel11042416293D

 29 33  0  0  1  0  0  0  0  0999 V2000
  186.2710  178.1760  146.8710 C   0  0  0  0  0  3  0  0  0  0  0  0
  191.0010  174.5130  144.1000 C   0  0  2  0  0  3  0  0  0  0  0  0
  194.0720  172.5790  143.0820 C   0  0  0  0  0  1  0  0  0  0  0  0
  192.5000  174.6000  145.9420 C   0  0  0  0  0  3  0  0  0  0  0  0
  191.2110  173.5710  142.1340 C   0  0  0  0  0  0  0  0  0  0  0  0
  185.6890  177.4690  144.6040 C   0  0  0  0  0  3  0  0  0  0  0  0
  189.9980  174.1950  142.1560 N   0  0  0  0  0  0  0  0  0  0  0  0
  190.2210  175.8010  146.1040 C   0  0  0  0  0  3  0  0  0  0  0  0
  187.5040  177.5060  146.7880 C   0  0  0  0  0  3  0  0  0  0  0  0
  187.5190  176.0300  143.4810 C   0  0  0  0  0  0  0  0  0  0  0  0
  187.0100  175.7860  142.3560 O   0  0  0  0  0  0  0  0  0  0  0  0
  188.9860  176.0570  145.2390 C   0  0  0  0  0  0  0  0  0  0  0  0
  191.8600  173.7690  143.3530 C   0  0  0  0  0  0  0  0  0  0  0  0
  186.9160  176.8130  144.5450 C   0  0  0  0  0  0  0  0  0  0  0  0
  187.8000  176.8300  145.6050 C   0  0  0  0  0  0  0  0  0  0  0  0
  185.3690  178.1580  145.7860 C   0  0  0  0  0  0  0  0  0  0  0  0
  189.8820  174.7670  143.3780 C   0  0  0  0  0  0  0  0  0  0  0  0
  194.6390  173.4770  145.7680 O   0  0  0  0  0  1  0  0  0  0  0  0
  188.8220  175.5860  143.9870 C   0  0  0  0  0  0  0  0  0  0  0  0
  193.4200  173.8190  145.1940 C   0  0  0  0  0  0  0  0  0  0  0  0
  191.2610  174.9570  145.3850 C   0  0  0  0  0  0  0  0  0  0  0  0
  193.1050  173.3950  143.8750 C   0  0  0  0  0  0  0  0  0  0  0  0
  184.0700  178.8730  145.8950 C   0  0  0  0  0  1  0  0  0  0  0  0
  189.0430  174.2450  141.0620 C   0  0  0  0  0  1  0  0  0  0  0  0
  191.7720  172.8640  140.9420 C   0  0  0  0  0  2  0  0  0  0  0  0
  193.5350  174.4400  139.7030 C   0  0  0  0  0  0  0  0  0  0  0  0
  192.7380  173.7260  140.2610 C   0  0  0  0  0  0  0  0  0  0  0  0
  195.7660  175.2210  139.3510 C   0  0  0  0  0  2  0  0  0  0  0  0
  194.4810  175.2900  139.0400 C   0  0  0  0  0  3  0  0  0  0  0  0
  2 13  1  6  0  0  0
  2 21  1  0  0  0  0
  3 22  1  0  0  0  0
  5  7  1  0  0  0  0
  5 13  2  0  0  0  0
  6 16  1  0  0  0  0
  7 17  1  0  0  0  0
  9  1  1  0  0  0  0
 10 19  1  0  0  0  0
 10 14  1  0  0  0  0
 11 10  2  0  0  0  0
 12 15  1  0  0  0  0
 12  8  2  0  0  0  0
 13 22  1  0  0  0  0
 14  6  2  0  0  0  0
 14 15  1  0  0  0  0
 15  9  2  0  0  0  0
 16 23  1  0  0  0  0
 16  1  2  0  0  0  0
 17 19  2  0  0  0  0
 17  2  1  0  0  0  0
 19 12  1  0  0  0  0
 20 18  1  0  0  0  0
 20  4  1  0  0  0  0
 21  4  2  0  0  0  0
 21  8  1  0  0  0  0
 22 20  2  0  0  0  0
 24  7  1  0  0  0  0
 25  5  1  0  0  0  0
 26 27  3  0  0  0  0
 27 25  1  0  0  0  0
 29 28  2  0  0  0  0
 29 26  1  0  0  0  0
M  END
>  <MODEL>
9

>  <REMARK>
 VINA RESULT:      -7.1      2.760      7.024
  Name = 
  3 active torsions:
  status: ('A' for Active; 'I' for Inactive)
    1  A    between atoms: C_5  and  C_8
    2  A    between atoms: C_8  and  C_20
    3  A    between atoms: C_12  and  C_28
                            x       y       z     vdW  Elec       q    Type
                         _______ _______ _______ _____ _____    ______ ____

>  <TORSDO>
F 3

$$$$
