=
 OpenBabel11042418003D

 36 41  0  0  1  0  0  0  0  0999 V2000
  189.7230  171.9560  142.1620 C   0  0  0  0  0  1  0  0  0  0  0  0
  190.0910  173.3020  141.5600 C   0  0  2  0  0  0  0  0  0  0  0  0
  190.6490  177.3770  145.1990 O   0  0  0  0  0  0  0  0  0  0  0  0
  190.3940  174.2960  142.6260 C   0  0  0  0  0  0  0  0  0  0  0  0
  191.4170  174.2820  143.5670 C   0  0  0  0  0  3  0  0  0  0  0  0
  188.9070  173.9700  140.8970 C   0  0  0  0  0  0  0  0  0  0  0  0
  191.4960  175.3460  144.4820 C   0  0  0  0  0  0  0  0  0  0  0  0
  189.4980  175.3300  142.5800 C   0  0  0  0  0  0  0  0  0  0  0  0
  189.5690  176.3910  143.4430 N   0  0  0  0  0  0  0  0  0  0  0  0
  191.1620  173.1760  140.6740 O   0  0  0  0  0  1  0  0  0  0  0  0
  188.5630  175.1180  141.4820 C   0  0  0  0  0  3  0  0  0  0  0  0
  190.5650  176.4090  144.3930 C   0  0  0  0  0  0  0  0  0  0  0  0
  185.5530  178.6780  143.8760 C   0  0  2  0  0  3  0  0  0  0  0  0
  186.9730  178.4760  141.9560 N   0  0  0  0  0  2  0  0  0  0  0  0
  183.9950  178.8750  145.4790 C   0  0  0  0  0  3  0  0  0  0  0  0
  188.5990  177.4970  143.4100 C   0  0  1  0  0  3  0  0  0  0  0  0
  188.3510  178.0070  142.0080 C   0  0  0  0  0  2  0  0  0  0  0  0
  184.2450  178.6400  144.0630 C   0  0  0  0  0  3  0  0  0  0  0  0
  187.2450  177.0830  143.9310 C   0  0  2  0  0  3  0  0  0  0  0  0
  185.1570  178.9490  146.1160 C   0  0  0  0  0  2  0  0  0  0  0  0
  186.2410  177.7400  142.9830 C   0  0  1  0  0  3  0  0  0  0  0  0
  186.2780  178.8450  145.1350 C   0  0  1  0  0  3  0  0  0  0  0  0
  187.0460  177.6140  145.2900 N   0  0  0  0  0  2  0  0  0  0  0  0
  193.8400  176.0360  144.9480 C   0  0  0  0  0  2  0  0  0  0  0  0
  192.5930  175.3920  145.5110 C   0  0  2  0  0  3  0  0  0  0  0  0
  194.9740  175.3500  145.5450 N   0  0  0  0  0  0  0  0  0  0  0  0
  193.0290  174.0190  145.9770 C   0  0  0  0  0  2  0  0  0  0  0  0
  194.5250  173.9790  145.7390 C   0  0  0  0  0  2  0  0  0  0  0  0
  196.0340  175.3250  144.5520 C   0  0  0  0  0  2  0  0  0  0  0  0
  195.4790  175.7850  143.2160 C   0  0  0  0  0  2  0  0  0  0  0  0
  196.4850  176.6100  142.4930 C   0  0  0  0  0  0  0  0  0  0  0  0
  197.4450  177.1250  143.1250 O   0  0  0  0  0  1  0  0  0  0  0  0
  196.3700  176.8130  141.1220 O   0  0  0  0  0  0  0  0  0  0  0  0
  188.2240  173.4920  139.7730 O   0  0  0  0  0  0  0  0  0  0  0  0
  188.1960  174.1840  138.5320 C   0  0  0  0  0  2  0  0  0  0  0  0
  189.3260  173.7020  137.6440 C   0  0  0  0  0  1  0  0  0  0  0  0
  2  1  1  1  0  0  0
  2  4  1  0  0  0  0
  4  5  1  0  0  0  0
  5  7  2  0  0  0  0
  6 11  2  0  0  0  0
  6  2  1  0  0  0  0
  8  4  2  0  0  0  0
  8  9  1  0  0  0  0
  9 12  1  0  0  0  0
 10  2  1  0  0  0  0
 11  8  1  0  0  0  0
 12  7  1  0  0  0  0
 12  3  2  0  0  0  0
 13 18  1  1  0  0  0
 13 22  1  0  0  0  0
 14 17  1  0  0  0  0
 15 20  1  0  0  0  0
 16 17  1  6  0  0  0
 16  9  1  0  0  0  0
 16 19  1  0  0  0  0
 18 15  2  0  0  0  0
 19 23  1  1  0  0  0
 21 14  1  6  0  0  0
 21 13  1  0  0  0  0
 21 19  1  0  0  0  0
 22 23  1  0  0  0  0
 22 20  1  1  0  0  0
 24 25  1  0  0  0  0
 24 26  1  0  0  0  0
 25  7  1  6  0  0  0
 25 27  1  0  0  0  0
 26 28  1  0  0  0  0
 28 27  1  0  0  0  0
 29 26  1  0  0  0  0
 30 29  1  0  0  0  0
 31 32  1  0  0  0  0
 31 30  1  0  0  0  0
 33 31  2  0  0  0  0
 34  6  1  0  0  0  0
 35 34  1  0  0  0  0
 36 35  1  0  0  0  0
M  END
>  <MODEL>
1

>  <REMARK>
 VINA RESULT:      -8.0      0.000      0.000
  Name = 
  7 active torsions:
  status: ('A' for Active; 'I' for Inactive)
    1  A    between atoms: C_2  and  C_23
    2  A    between atoms: C_7  and  C_15
    3  A    between atoms: C_7  and  C_19
    4  A    between atoms: N_8  and  C_15
    5  A    between atoms: O_14  and  C_16
    6  A    between atoms: O_14  and  C_21
    7  A    between atoms: C_17  and  N_27
                            x       y       z     vdW  Elec       q    Type
                         _______ _______ _______ _____ _____    ______ ____

>  <TORSDO>
F 7

$$$$
=
 OpenBabel11042418003D

 36 41  0  0  1  0  0  0  0  0999 V2000
  190.3430  172.2280  142.6900 C   0  0  0  0  0  1  0  0  0  0  0  0
  190.3710  173.4260  141.7550 C   0  0  2  0  0  0  0  0  0  0  0  0
  190.8830  178.2880  144.2560 O   0  0  0  0  0  0  0  0  0  0  0  0
  190.6890  174.6740  142.5000 C   0  0  0  0  0  0  0  0  0  0  0  0
  191.8510  175.0090  143.1860 C   0  0  0  0  0  3  0  0  0  0  0  0
  188.9930  173.7680  141.2310 C   0  0  0  0  0  0  0  0  0  0  0  0
  191.9140  176.2620  143.8200 C   0  0  0  0  0  0  0  0  0  0  0  0
  189.6410  175.5520  142.4280 C   0  0  0  0  0  0  0  0  0  0  0  0
  189.6870  176.7880  143.0140 N   0  0  0  0  0  0  0  0  0  0  0  0
  191.2730  173.2220  140.7100 O   0  0  0  0  0  1  0  0  0  0  0  0
  188.5740  174.9720  141.6210 C   0  0  0  0  0  3  0  0  0  0  0  0
  190.8180  177.1530  143.7070 C   0  0  0  0  0  0  0  0  0  0  0  0
  185.4420  178.5450  143.6750 C   0  0  2  0  0  3  0  0  0  0  0  0
  186.6310  178.2100  141.6220 N   0  0  0  0  0  2  0  0  0  0  0  0
  184.0800  178.8020  145.4400 C   0  0  0  0  0  3  0  0  0  0  0  0
  188.5570  177.7290  142.9540 C   0  0  1  0  0  3  0  0  0  0  0  0
  188.0620  177.9500  141.5430 C   0  0  0  0  0  2  0  0  0  0  0  0
  184.1890  178.3620  144.0550 C   0  0  0  0  0  3  0  0  0  0  0  0
  187.3590  177.2290  143.7250 C   0  0  2  0  0  3  0  0  0  0  0  0
  185.2840  179.1420  145.8810 C   0  0  0  0  0  2  0  0  0  0  0  0
  186.1560  177.5700  142.8460 C   0  0  1  0  0  3  0  0  0  0  0  0
  186.2780  179.0250  144.7750 C   0  0  1  0  0  3  0  0  0  0  0  0
  187.2460  177.9560  145.0020 N   0  0  0  0  0  2  0  0  0  0  0  0
  194.3930  176.0900  143.9320 C   0  0  0  0  0  2  0  0  0  0  0  0
  193.1530  176.6850  144.5620 C   0  0  2  0  0  3  0  0  0  0  0  0
  195.3170  175.8000  145.0160 N   0  0  0  0  0  0  0  0  0  0  0  0
  193.1720  176.2150  146.0010 C   0  0  0  0  0  2  0  0  0  0  0  0
  194.4710  175.4480  146.1480 C   0  0  0  0  0  2  0  0  0  0  0  0
  196.0600  174.6080  144.6430 C   0  0  0  0  0  2  0  0  0  0  0  0
  196.5240  173.8930  145.9000 C   0  0  0  0  0  2  0  0  0  0  0  0
  197.0670  172.5490  145.5610 C   0  0  0  0  0  0  0  0  0  0  0  0
  196.7370  171.5480  146.2490 O   0  0  0  0  0  1  0  0  0  0  0  0
  197.9370  172.3970  144.4860 O   0  0  0  0  0  0  0  0  0  0  0  0
  188.2110  172.9570  140.4020 O   0  0  0  0  0  0  0  0  0  0  0  0
  188.5500  172.6750  139.0510 C   0  0  0  0  0  2  0  0  0  0  0  0
  188.2520  173.8800  138.1800 C   0  0  0  0  0  1  0  0  0  0  0  0
  2  4  1  0  0  0  0
  2  1  1  1  0  0  0
  4  5  1  0  0  0  0
  5  7  2  0  0  0  0
  6 11  2  0  0  0  0
  6  2  1  0  0  0  0
  8  4  2  0  0  0  0
  8  9  1  0  0  0  0
  9 12  1  0  0  0  0
 10  2  1  0  0  0  0
 11  8  1  0  0  0  0
 12  7  1  0  0  0  0
 12  3  2  0  0  0  0
 13 18  1  1  0  0  0
 13 22  1  0  0  0  0
 15 20  1  0  0  0  0
 16 17  1  6  0  0  0
 16  9  1  0  0  0  0
 16 19  1  0  0  0  0
 17 14  1  0  0  0  0
 18 15  2  0  0  0  0
 19 23  1  1  0  0  0
 21 14  1  6  0  0  0
 21 13  1  0  0  0  0
 21 19  1  0  0  0  0
 22 23  1  0  0  0  0
 22 20  1  1  0  0  0
 24 25  1  0  0  0  0
 24 26  1  0  0  0  0
 25  7  1  6  0  0  0
 25 27  1  0  0  0  0
 26 28  1  0  0  0  0
 27 28  1  0  0  0  0
 29 26  1  0  0  0  0
 29 30  1  0  0  0  0
 31 30  1  0  0  0  0
 31 32  1  0  0  0  0
 33 31  2  0  0  0  0
 34  6  1  0  0  0  0
 35 34  1  0  0  0  0
 36 35  1  0  0  0  0
M  END
>  <MODEL>
2

>  <REMARK>
 VINA RESULT:      -7.9      1.646      1.963
  Name = 
  7 active torsions:
  status: ('A' for Active; 'I' for Inactive)
    1  A    between atoms: C_2  and  C_23
    2  A    between atoms: C_7  and  C_15
    3  A    between atoms: C_7  and  C_19
    4  A    between atoms: N_8  and  C_15
    5  A    between atoms: O_14  and  C_16
    6  A    between atoms: O_14  and  C_21
    7  A    between atoms: C_17  and  N_27
                            x       y       z     vdW  Elec       q    Type
                         _______ _______ _______ _____ _____    ______ ____

>  <TORSDO>
F 7

$$$$
=
 OpenBabel11042418003D

 36 41  0  0  1  0  0  0  0  0999 V2000
  188.7390  173.0850  140.0770 C   0  0  0  0  0  1  0  0  0  0  0  0
  188.6430  173.0800  141.5940 C   0  0  2  0  0  0  0  0  0  0  0  0
  189.9630  177.8340  144.0050 O   0  0  0  0  0  0  0  0  0  0  0  0
  188.8430  174.4470  142.1450 C   0  0  0  0  0  0  0  0  0  0  0  0
  188.0650  175.5850  141.9620 C   0  0  0  0  0  3  0  0  0  0  0  0
  189.8080  172.3570  142.2330 C   0  0  0  0  0  0  0  0  0  0  0  0
  188.4650  176.7750  142.5930 C   0  0  0  0  0  0  0  0  0  0  0  0
  189.9610  174.4830  142.9350 C   0  0  0  0  0  0  0  0  0  0  0  0
  190.3580  175.6230  143.5810 N   0  0  0  0  0  0  0  0  0  0  0  0
  187.4240  172.5450  142.0140 O   0  0  0  0  0  1  0  0  0  0  0  0
  190.5630  173.1570  142.9880 C   0  0  0  0  0  3  0  0  0  0  0  0
  189.6160  176.7710  143.4190 C   0  0  0  0  0  0  0  0  0  0  0  0
  194.7610  175.0060  144.9110 C   0  0  2  0  0  3  0  0  0  0  0  0
  192.7440  174.3560  146.0300 N   0  0  0  0  0  2  0  0  0  0  0  0
  196.7730  175.3680  143.9840 C   0  0  0  0  0  3  0  0  0  0  0  0
  191.5670  175.6710  144.4170 C   0  0  1  0  0  3  0  0  0  0  0  0
  191.4230  174.8690  145.6900 C   0  0  0  0  0  2  0  0  0  0  0  0
  195.9320  174.4250  144.7110 C   0  0  0  0  0  3  0  0  0  0  0  0
  192.7700  175.0930  143.7130 C   0  0  2  0  0  3  0  0  0  0  0  0
  196.0560  176.4430  143.6840 C   0  0  0  0  0  2  0  0  0  0  0  0
  193.4960  174.2760  144.7810 C   0  0  1  0  0  3  0  0  0  0  0  0
  194.6890  176.3180  144.2700 C   0  0  1  0  0  3  0  0  0  0  0  0
  193.6530  176.1800  143.2530 N   0  0  0  0  0  2  0  0  0  0  0  0
  186.7660  178.2520  143.6510 C   0  0  0  0  0  2  0  0  0  0  0  0
  187.6520  178.0320  142.4450 C   0  0  2  0  0  3  0  0  0  0  0  0
  185.5330  178.8500  143.1650 N   0  0  0  0  0  0  0  0  0  0  0  0
  186.7090  177.9940  141.2600 C   0  0  0  0  0  2  0  0  0  0  0  0
  185.3390  178.2840  141.8380 C   0  0  0  0  0  2  0  0  0  0  0  0
  184.4550  178.3620  144.0080 C   0  0  0  0  0  2  0  0  0  0  0  0
  184.4780  179.1090  145.3310 C   0  0  0  0  0  2  0  0  0  0  0  0
  184.6760  178.1580  146.4590 C   0  0  0  0  0  0  0  0  0  0  0  0
  184.6340  178.5760  147.6460 O   0  0  0  0  0  1  0  0  0  0  0  0
  184.9080  176.8100  146.2060 O   0  0  0  0  0  0  0  0  0  0  0  0
  190.0940  170.9950  142.1020 O   0  0  0  0  0  0  0  0  0  0  0  0
  191.3780  170.5040  141.7410 C   0  0  0  0  0  2  0  0  0  0  0  0
  191.6660  170.8250  140.2870 C   0  0  0  0  0  1  0  0  0  0  0  0
  2  1  1  6  0  0  0
  2 10  1  0  0  0  0
  2  4  1  0  0  0  0
  2  6  1  0  0  0  0
  4  8  2  0  0  0  0
  5  4  1  0  0  0  0
  5  7  2  0  0  0  0
  6 11  2  0  0  0  0
  7 12  1  0  0  0  0
  8 11  1  0  0  0  0
  8  9  1  0  0  0  0
 12  9  1  0  0  0  0
 12  3  2  0  0  0  0
 13 18  1  6  0  0  0
 15 18  2  0  0  0  0
 16  9  1  6  0  0  0
 16 17  1  0  0  0  0
 17 14  1  0  0  0  0
 19 23  1  1  0  0  0
 19 16  1  0  0  0  0
 19 21  1  0  0  0  0
 20 15  1  0  0  0  0
 21 13  1  0  0  0  0
 21 14  1  1  0  0  0
 22 20  1  6  0  0  0
 22 13  1  0  0  0  0
 23 22  1  0  0  0  0
 25  7  1  1  0  0  0
 25 24  1  0  0  0  0
 26 24  1  0  0  0  0
 26 29  1  0  0  0  0
 27 28  1  0  0  0  0
 27 25  1  0  0  0  0
 28 26  1  0  0  0  0
 29 30  1  0  0  0  0
 30 31  1  0  0  0  0
 31 32  1  0  0  0  0
 33 31  2  0  0  0  0
 34  6  1  0  0  0  0
 35 34  1  0  0  0  0
 36 35  1  0  0  0  0
M  END
>  <MODEL>
3

>  <REMARK>
 VINA RESULT:      -7.5      2.256      7.884
  Name = 
  7 active torsions:
  status: ('A' for Active; 'I' for Inactive)
    1  A    between atoms: C_2  and  C_23
    2  A    between atoms: C_7  and  C_15
    3  A    between atoms: C_7  and  C_19
    4  A    between atoms: N_8  and  C_15
    5  A    between atoms: O_14  and  C_16
    6  A    between atoms: O_14  and  C_21
    7  A    between atoms: C_17  and  N_27
                            x       y       z     vdW  Elec       q    Type
                         _______ _______ _______ _____ _____    ______ ____

>  <TORSDO>
F 7

$$$$
=
 OpenBabel11042418003D

 36 41  0  0  1  0  0  0  0  0999 V2000
  193.4050  175.6930  142.1690 C   0  0  0  0  0  1  0  0  0  0  0  0
  192.3720  175.4150  143.2490 C   0  0  2  0  0  0  0  0  0  0  0  0
  187.1500  175.7540  141.5830 O   0  0  0  0  0  0  0  0  0  0  0  0
  191.0020  175.3540  142.6710 C   0  0  0  0  0  0  0  0  0  0  0  0
  190.4830  174.4510  141.7490 C   0  0  0  0  0  3  0  0  0  0  0  0
  192.2140  176.5840  144.1960 C   0  0  0  0  0  0  0  0  0  0  0  0
  189.1440  174.6020  141.3500 C   0  0  0  0  0  0  0  0  0  0  0  0
  190.2220  176.3510  143.1900 C   0  0  0  0  0  0  0  0  0  0  0  0
  188.9070  176.5030  142.8370 N   0  0  0  0  0  0  0  0  0  0  0  0
  192.6770  174.2410  143.9400 O   0  0  0  0  0  1  0  0  0  0  0  0
  190.9950  177.1220  144.1560 C   0  0  0  0  0  3  0  0  0  0  0  0
  188.3600  175.6330  141.9230 C   0  0  0  0  0  0  0  0  0  0  0  0
  185.4190  178.6160  145.0540 C   0  0  2  0  0  3  0  0  0  0  0  0
  186.1650  178.9060  142.7950 N   0  0  0  0  0  2  0  0  0  0  0  0
  184.4460  178.4020  147.0650 C   0  0  0  0  0  3  0  0  0  0  0  0
  188.0690  177.5840  143.3800 C   0  0  1  0  0  3  0  0  0  0  0  0
  187.4500  178.4360  142.2950 C   0  0  0  0  0  2  0  0  0  0  0  0
  184.2320  178.5360  145.6300 C   0  0  0  0  0  3  0  0  0  0  0  0
  186.9080  177.0540  144.1850 C   0  0  2  0  0  3  0  0  0  0  0  0
  185.7480  178.3070  147.3000 C   0  0  0  0  0  2  0  0  0  0  0  0
  185.7220  177.9350  143.7910 C   0  0  1  0  0  3  0  0  0  0  0  0
  186.5040  178.4540  146.0220 C   0  0  1  0  0  3  0  0  0  0  0  0
  187.1780  177.2220  145.6240 N   0  0  0  0  0  2  0  0  0  0  0  0
  189.2440  172.3140  140.3790 C   0  0  0  0  0  2  0  0  0  0  0  0
  188.5240  173.6440  140.3690 C   0  0  2  0  0  3  0  0  0  0  0  0
  189.2290  171.8170  139.0120 N   0  0  0  0  0  0  0  0  0  0  0  0
  188.6020  174.1280  138.9360 C   0  0  0  0  0  2  0  0  0  0  0  0
  189.2850  173.0080  138.1780 C   0  0  0  0  0  2  0  0  0  0  0  0
  190.4650  171.0820  138.8060 C   0  0  0  0  0  2  0  0  0  0  0  0
  190.9410  170.5230  140.1360 C   0  0  0  0  0  2  0  0  0  0  0  0
  190.7490  169.0470  140.1750 C   0  0  0  0  0  0  0  0  0  0  0  0
  190.4560  168.4240  139.1210 O   0  0  0  0  0  0  0  0  0  0  0  0
  190.8910  168.3550  141.3730 O   0  0  0  0  0  1  0  0  0  0  0  0
  193.1980  177.0720  145.0620 O   0  0  0  0  0  0  0  0  0  0  0  0
  193.5190  176.4500  146.2990 C   0  0  0  0  0  2  0  0  0  0  0  0
  194.8200  175.6820  146.1710 C   0  0  0  0  0  1  0  0  0  0  0  0
  2  1  1  6  0  0  0
  2 10  1  0  0  0  0
  2  6  1  0  0  0  0
  3 12  2  0  0  0  0
  4  8  2  0  0  0  0
  4  2  1  0  0  0  0
  5  4  1  0  0  0  0
  6 34  1  0  0  0  0
  7  5  2  0  0  0  0
  7 12  1  0  0  0  0
  8 11  1  0  0  0  0
  9  8  1  0  0  0  0
  9 16  1  0  0  0  0
 11  6  2  0  0  0  0
 12  9  1  0  0  0  0
 13 18  1  1  0  0  0
 13 22  1  0  0  0  0
 15 20  1  0  0  0  0
 16 17  1  6  0  0  0
 16 19  1  0  0  0  0
 17 14  1  0  0  0  0
 18 15  2  0  0  0  0
 19 23  1  1  0  0  0
 21 14  1  6  0  0  0
 21 19  1  0  0  0  0
 21 13  1  0  0  0  0
 22 20  1  1  0  0  0
 23 22  1  0  0  0  0
 25 24  1  0  0  0  0
 25  7  1  1  0  0  0
 26 24  1  0  0  0  0
 27 25  1  0  0  0  0
 28 27  1  0  0  0  0
 28 26  1  0  0  0  0
 29 26  1  0  0  0  0
 29 30  1  0  0  0  0
 30 31  1  0  0  0  0
 31 33  1  0  0  0  0
 32 31  2  0  0  0  0
 34 35  1  0  0  0  0
 36 35  1  0  0  0  0
M  END
>  <MODEL>
4

>  <REMARK>
 VINA RESULT:      -7.3      2.276      5.931
  Name = 
  7 active torsions:
  status: ('A' for Active; 'I' for Inactive)
    1  A    between atoms: C_2  and  C_23
    2  A    between atoms: C_7  and  C_15
    3  A    between atoms: C_7  and  C_19
    4  A    between atoms: N_8  and  C_15
    5  A    between atoms: O_14  and  C_16
    6  A    between atoms: O_14  and  C_21
    7  A    between atoms: C_17  and  N_27
                            x       y       z     vdW  Elec       q    Type
                         _______ _______ _______ _____ _____    ______ ____

>  <TORSDO>
F 7

$$$$
=
 OpenBabel11042418003D

 36 41  0  0  1  0  0  0  0  0999 V2000
  188.1110  177.3420  141.7610 C   0  0  0  0  0  1  0  0  0  0  0  0
  187.9820  175.9060  142.2400 C   0  0  2  0  0  0  0  0  0  0  0  0
  189.8900  174.9850  147.3070 O   0  0  0  0  0  0  0  0  0  0  0  0
  188.3560  175.7880  143.6760 C   0  0  0  0  0  0  0  0  0  0  0  0
  187.7460  176.3590  144.7870 C   0  0  0  0  0  3  0  0  0  0  0  0
  189.0220  175.0030  141.6150 C   0  0  0  0  0  0  0  0  0  0  0  0
  188.2920  176.0990  146.0550 C   0  0  0  0  0  0  0  0  0  0  0  0
  189.4500  174.9770  143.8160 C   0  0  0  0  0  0  0  0  0  0  0  0
  189.9860  174.6870  145.0430 N   0  0  0  0  0  0  0  0  0  0  0  0
  186.6920  175.4210  142.0180 O   0  0  0  0  0  1  0  0  0  0  0  0
  189.8630  174.4830  142.5090 C   0  0  0  0  0  3  0  0  0  0  0  0
  189.4130  175.2390  146.1650 C   0  0  0  0  0  0  0  0  0  0  0  0
  194.3360  173.1400  144.5660 C   0  0  2  0  0  3  0  0  0  0  0  0
  192.2740  172.0000  144.1270 N   0  0  0  0  0  2  0  0  0  0  0  0
  196.3810  174.0480  144.7500 C   0  0  0  0  0  3  0  0  0  0  0  0
  191.1720  173.8300  145.1990 C   0  0  1  0  0  3  0  0  0  0  0  0
  190.9750  172.4550  144.6020 C   0  0  0  0  0  2  0  0  0  0  0  0
  195.5000  173.2130  143.9430 C   0  0  0  0  0  3  0  0  0  0  0  0
  192.3820  174.4010  144.5010 C   0  0  2  0  0  3  0  0  0  0  0  0
  195.6940  174.5310  145.7780 C   0  0  0  0  0  2  0  0  0  0  0  0
  193.0600  173.1980  143.8450 C   0  0  1  0  0  3  0  0  0  0  0  0
  194.3090  173.9750  145.7660 C   0  0  1  0  0  3  0  0  0  0  0  0
  193.3000  174.9920  145.4910 N   0  0  0  0  0  2  0  0  0  0  0  0
  186.1680  176.8270  147.1240 C   0  0  0  0  0  2  0  0  0  0  0  0
  187.6630  176.6750  147.2940 C   0  0  2  0  0  3  0  0  0  0  0  0
  185.7830  178.0320  147.8430 N   0  0  0  0  0  0  0  0  0  0  0  0
  188.1700  178.0640  147.6270 C   0  0  0  0  0  2  0  0  0  0  0  0
  186.9260  178.9240  147.7190 C   0  0  0  0  0  2  0  0  0  0  0  0
  184.6800  178.6340  147.1140 C   0  0  0  0  0  2  0  0  0  0  0  0
  184.5460  177.9580  145.7600 C   0  0  0  0  0  2  0  0  0  0  0  0
  184.5970  178.9700  144.6700 C   0  0  0  0  0  0  0  0  0  0  0  0
  185.5410  179.8020  144.6300 O   0  0  0  0  0  1  0  0  0  0  0  0
  183.6060  178.9990  143.6950 O   0  0  0  0  0  0  0  0  0  0  0  0
  189.1200  174.6930  140.2540 O   0  0  0  0  0  0  0  0  0  0  0  0
  189.5320  173.4180  139.7790 C   0  0  0  0  0  2  0  0  0  0  0  0
  188.3500  172.6810  139.1820 C   0  0  0  0  0  1  0  0  0  0  0  0
  2  1  1  6  0  0  0
  2  4  1  0  0  0  0
  4  8  2  0  0  0  0
  4  5  1  0  0  0  0
  5  7  2  0  0  0  0
  6  2  1  0  0  0  0
  6 11  2  0  0  0  0
  7 12  1  0  0  0  0
  8  9  1  0  0  0  0
  9 16  1  0  0  0  0
  9 12  1  0  0  0  0
 10  2  1  0  0  0  0
 11  8  1  0  0  0  0
 12  3  2  0  0  0  0
 13 18  1  6  0  0  0
 13 22  1  0  0  0  0
 14 17  1  0  0  0  0
 15 20  1  0  0  0  0
 16 17  1  6  0  0  0
 18 15  2  0  0  0  0
 19 16  1  0  0  0  0
 19 23  1  1  0  0  0
 21 14  1  1  0  0  0
 21 19  1  0  0  0  0
 21 13  1  0  0  0  0
 22 20  1  6  0  0  0
 23 22  1  0  0  0  0
 24 25  1  0  0  0  0
 24 26  1  0  0  0  0
 25  7  1  6  0  0  0
 25 27  1  0  0  0  0
 27 28  1  0  0  0  0
 28 26  1  0  0  0  0
 29 26  1  0  0  0  0
 30 29  1  0  0  0  0
 31 30  1  0  0  0  0
 32 31  1  0  0  0  0
 33 31  2  0  0  0  0
 34  6  1  0  0  0  0
 35 34  1  0  0  0  0
 36 35  1  0  0  0  0
M  END
>  <MODEL>
5

>  <REMARK>
 VINA RESULT:      -7.1      2.784      7.772
  Name = 
  7 active torsions:
  status: ('A' for Active; 'I' for Inactive)
    1  A    between atoms: C_2  and  C_23
    2  A    between atoms: C_7  and  C_15
    3  A    between atoms: C_7  and  C_19
    4  A    between atoms: N_8  and  C_15
    5  A    between atoms: O_14  and  C_16
    6  A    between atoms: O_14  and  C_21
    7  A    between atoms: C_17  and  N_27
                            x       y       z     vdW  Elec       q    Type
                         _______ _______ _______ _____ _____    ______ ____

>  <TORSDO>
F 7

$$$$
=
 OpenBabel11042418003D

 36 41  0  0  1  0  0  0  0  0999 V2000
  188.1600  175.7470  141.3780 C   0  0  0  0  0  1  0  0  0  0  0  0
  188.9530  174.6550  142.0770 C   0  0  2  0  0  0  0  0  0  0  0  0
  191.6200  176.2760  146.5960 O   0  0  0  0  0  0  0  0  0  0  0  0
  189.4920  175.1380  143.3770 C   0  0  0  0  0  0  0  0  0  0  0  0
  188.7990  175.5500  144.5100 C   0  0  0  0  0  3  0  0  0  0  0  0
  190.2420  174.3390  141.3510 C   0  0  0  0  0  0  0  0  0  0  0  0
  189.5390  175.9700  145.6290 C   0  0  0  0  0  0  0  0  0  0  0  0
  190.8600  175.1230  143.3600 C   0  0  0  0  0  0  0  0  0  0  0  0
  191.6050  175.5030  144.4460 N   0  0  0  0  0  0  0  0  0  0  0  0
  188.1760  173.5090  142.2520 O   0  0  0  0  0  1  0  0  0  0  0  0
  191.3270  174.6140  142.0770 C   0  0  0  0  0  3  0  0  0  0  0  0
  190.9540  175.9220  145.5830 C   0  0  0  0  0  0  0  0  0  0  0  0
  195.9770  174.3860  145.5300 C   0  0  2  0  0  3  0  0  0  0  0  0
  194.9290  176.5410  145.5250 N   0  0  0  0  0  2  0  0  0  0  0  0
  197.1230  172.4700  145.7630 C   0  0  0  0  0  3  0  0  0  0  0  0
  193.0760  175.5050  144.4270 C   0  0  1  0  0  3  0  0  0  0  0  0
  193.6580  176.8270  144.8740 C   0  0  0  0  0  2  0  0  0  0  0  0
  196.8190  173.7710  146.3440 C   0  0  0  0  0  3  0  0  0  0  0  0
  193.6590  174.4730  145.3600 C   0  0  2  0  0  3  0  0  0  0  0  0
  196.3830  172.2990  144.6750 C   0  0  0  0  0  2  0  0  0  0  0  0
  194.8440  175.1720  146.0270 C   0  0  1  0  0  3  0  0  0  0  0  0
  195.5840  173.5310  144.4100 C   0  0  1  0  0  3  0  0  0  0  0  0
  194.1510  173.3190  144.5880 N   0  0  0  0  0  2  0  0  0  0  0  0
  187.3760  176.0410  146.8550 C   0  0  0  0  0  2  0  0  0  0  0  0
  188.8430  176.4090  146.8880 C   0  0  2  0  0  3  0  0  0  0  0  0
  186.6590  177.1060  147.5370 N   0  0  0  0  0  0  0  0  0  0  0  0
  188.8720  177.9100  147.0900 C   0  0  0  0  0  2  0  0  0  0  0  0
  187.4210  178.3140  147.2530 C   0  0  0  0  0  2  0  0  0  0  0  0
  185.3680  177.2430  146.8860 C   0  0  0  0  0  2  0  0  0  0  0  0
  185.5560  177.1660  145.3810 C   0  0  0  0  0  2  0  0  0  0  0  0
  184.8200  178.2720  144.7090 C   0  0  0  0  0  0  0  0  0  0  0  0
  185.0460  178.5300  143.4970 O   0  0  0  0  0  0  0  0  0  0  0  0
  183.8850  179.0210  145.4160 O   0  0  0  0  0  1  0  0  0  0  0  0
  190.3430  173.7910  140.0680 O   0  0  0  0  0  0  0  0  0  0  0  0
  190.2370  172.3980  139.8100 C   0  0  0  0  0  2  0  0  0  0  0  0
  188.9440  172.1040  139.0740 C   0  0  0  0  0  1  0  0  0  0  0  0
  2  1  1  6  0  0  0
  2 10  1  0  0  0  0
  2  4  1  0  0  0  0
  4  5  1  0  0  0  0
  5  7  2  0  0  0  0
  6  2  1  0  0  0  0
  6 11  2  0  0  0  0
  8  4  2  0  0  0  0
  8  9  1  0  0  0  0
  9 12  1  0  0  0  0
 11  8  1  0  0  0  0
 12  7  1  0  0  0  0
 12  3  2  0  0  0  0
 13 21  1  0  0  0  0
 13 18  1  1  0  0  0
 15 18  2  0  0  0  0
 16  9  1  1  0  0  0
 16 17  1  0  0  0  0
 16 19  1  0  0  0  0
 17 14  1  0  0  0  0
 19 23  1  6  0  0  0
 19 21  1  0  0  0  0
 20 15  1  0  0  0  0
 21 14  1  6  0  0  0
 22 23  1  0  0  0  0
 22 20  1  1  0  0  0
 22 13  1  0  0  0  0
 24 25  1  0  0  0  0
 24 26  1  0  0  0  0
 25  7  1  6  0  0  0
 25 27  1  0  0  0  0
 27 28  1  0  0  0  0
 28 26  1  0  0  0  0
 29 26  1  0  0  0  0
 30 29  1  0  0  0  0
 31 30  1  0  0  0  0
 31 33  1  0  0  0  0
 32 31  2  0  0  0  0
 34  6  1  0  0  0  0
 35 34  1  0  0  0  0
 36 35  1  0  0  0  0
M  END
>  <MODEL>
6

>  <REMARK>
 VINA RESULT:      -7.1      2.536      7.840
  Name = 
  7 active torsions:
  status: ('A' for Active; 'I' for Inactive)
    1  A    between atoms: C_2  and  C_23
    2  A    between atoms: C_7  and  C_15
    3  A    between atoms: C_7  and  C_19
    4  A    between atoms: N_8  and  C_15
    5  A    between atoms: O_14  and  C_16
    6  A    between atoms: O_14  and  C_21
    7  A    between atoms: C_17  and  N_27
                            x       y       z     vdW  Elec       q    Type
                         _______ _______ _______ _____ _____    ______ ____

>  <TORSDO>
F 7

$$$$
=
 OpenBabel11042418003D

 36 41  0  0  1  0  0  0  0  0999 V2000
  189.2360  175.2890  147.1470 C   0  0  0  0  0  1  0  0  0  0  0  0
  190.1810  175.9870  146.1820 C   0  0  2  0  0  0  0  0  0  0  0  0
  188.2520  176.5540  141.0720 O   0  0  0  0  0  0  0  0  0  0  0  0
  189.5110  176.2540  144.8810 C   0  0  0  0  0  0  0  0  0  0  0  0
  188.4160  177.0680  144.6130 C   0  0  0  0  0  3  0  0  0  0  0  0
  191.3010  175.0770  145.7280 C   0  0  0  0  0  0  0  0  0  0  0  0
  187.9600  177.1580  143.2870 C   0  0  0  0  0  0  0  0  0  0  0  0
  190.1400  175.5730  143.8740 C   0  0  0  0  0  0  0  0  0  0  0  0
  189.7310  175.6630  142.5700 N   0  0  0  0  0  0  0  0  0  0  0  0
  190.6810  177.1650  146.7390 O   0  0  0  0  0  1  0  0  0  0  0  0
  191.2720  174.8330  144.4170 C   0  0  0  0  0  3  0  0  0  0  0  0
  188.6470  176.4550  142.2670 C   0  0  0  0  0  0  0  0  0  0  0  0
  190.9180  172.1300  139.8040 C   0  0  2  0  0  3  0  0  0  0  0  0
  192.3300  173.5780  141.0900 N   0  0  0  0  0  2  0  0  0  0  0  0
  189.8010  170.5610  138.6530 C   0  0  0  0  0  3  0  0  0  0  0  0
  190.3920  174.9200  141.4860 C   0  0  1  0  0  3  0  0  0  0  0  0
  191.8910  174.8400  141.6690 C   0  0  0  0  0  2  0  0  0  0  0  0
  190.9070  170.8300  139.5630 C   0  0  0  0  0  3  0  0  0  0  0  0
  189.9210  173.4890  141.4070 C   0  0  2  0  0  3  0  0  0  0  0  0
  189.1230  171.6840  138.4540 C   0  0  0  0  0  2  0  0  0  0  0  0
  191.1850  172.6730  141.1400 C   0  0  1  0  0  3  0  0  0  0  0  0
  189.7920  172.8110  139.1670 C   0  0  1  0  0  3  0  0  0  0  0  0
  188.9930  173.3270  140.2740 N   0  0  0  0  0  2  0  0  0  0  0  0
  186.3720  178.8820  144.1200 C   0  0  0  0  0  2  0  0  0  0  0  0
  186.7900  178.0380  142.9370 C   0  0  2  0  0  3  0  0  0  0  0  0
  184.9240  179.0090  144.0540 N   0  0  0  0  0  0  0  0  0  0  0  0
  185.5540  177.2550  142.5480 C   0  0  0  0  0  2  0  0  0  0  0  0
  184.4630  177.7570  143.4720 C   0  0  0  0  0  2  0  0  0  0  0  0
  184.4340  179.0600  145.4210 C   0  0  0  0  0  2  0  0  0  0  0  0
  184.7630  177.7520  146.1190 C   0  0  0  0  0  2  0  0  0  0  0  0
  185.6190  178.0030  147.3110 C   0  0  0  0  0  0  0  0  0  0  0  0
  185.9030  179.1840  147.6420 O   0  0  0  0  0  0  0  0  0  0  0  0
  186.1060  176.9370  148.0600 O   0  0  0  0  0  1  0  0  0  0  0  0
  192.3010  174.5420  146.5470 O   0  0  0  0  0  0  0  0  0  0  0  0
  193.6870  174.6770  146.2650 C   0  0  0  0  0  2  0  0  0  0  0  0
  194.1280  176.1080  146.5020 C   0  0  0  0  0  1  0  0  0  0  0  0
  2 10  1  0  0  0  0
  2  1  1  1  0  0  0
  3 12  2  0  0  0  0
  4  2  1  0  0  0  0
  5  4  1  0  0  0  0
  6  2  1  0  0  0  0
  6 34  1  0  0  0  0
  7  5  2  0  0  0  0
  8 11  1  0  0  0  0
  8  4  2  0  0  0  0
  9  8  1  0  0  0  0
 11  6  2  0  0  0  0
 12  9  1  0  0  0  0
 12  7  1  0  0  0  0
 13 18  1  1  0  0  0
 13 21  1  0  0  0  0
 14 17  1  0  0  0  0
 15 18  2  0  0  0  0
 16 17  1  1  0  0  0
 16  9  1  0  0  0  0
 19 23  1  6  0  0  0
 19 16  1  0  0  0  0
 20 15  1  0  0  0  0
 21 14  1  6  0  0  0
 21 19  1  0  0  0  0
 22 20  1  1  0  0  0
 22 13  1  0  0  0  0
 22 23  1  0  0  0  0
 25  7  1  1  0  0  0
 25 24  1  0  0  0  0
 26 24  1  0  0  0  0
 26 29  1  0  0  0  0
 27 25  1  0  0  0  0
 27 28  1  0  0  0  0
 28 26  1  0  0  0  0
 29 30  1  0  0  0  0
 30 31  1  0  0  0  0
 31 32  2  0  0  0  0
 31 33  1  0  0  0  0
 35 36  1  0  0  0  0
 35 34  1  0  0  0  0
M  END
>  <MODEL>
7

>  <REMARK>
 VINA RESULT:      -7.0      2.672      8.258
  Name = 
  7 active torsions:
  status: ('A' for Active; 'I' for Inactive)
    1  A    between atoms: C_2  and  C_23
    2  A    between atoms: C_7  and  C_15
    3  A    between atoms: C_7  and  C_19
    4  A    between atoms: N_8  and  C_15
    5  A    between atoms: O_14  and  C_16
    6  A    between atoms: O_14  and  C_21
    7  A    between atoms: C_17  and  N_27
                            x       y       z     vdW  Elec       q    Type
                         _______ _______ _______ _____ _____    ______ ____

>  <TORSDO>
F 7

$$$$
=
 OpenBabel11042418003D

 36 41  0  0  1  0  0  0  0  0999 V2000
  188.8690  175.6620  147.6370 C   0  0  0  0  0  1  0  0  0  0  0  0
  189.8980  176.6280  147.0740 C   0  0  2  0  0  0  0  0  0  0  0  0
  191.8040  175.3170  142.0930 O   0  0  0  0  0  0  0  0  0  0  0  0
  190.2220  176.2950  145.6600 C   0  0  0  0  0  0  0  0  0  0  0  0
  189.3910  176.3150  144.5460 C   0  0  0  0  0  3  0  0  0  0  0  0
  191.2570  176.4450  147.7130 C   0  0  0  0  0  0  0  0  0  0  0  0
  189.9350  175.9520  143.3010 C   0  0  0  0  0  0  0  0  0  0  0  0
  191.5420  175.9490  145.5440 C   0  0  0  0  0  0  0  0  0  0  0  0
  192.1020  175.6170  144.3390 N   0  0  0  0  0  0  0  0  0  0  0  0
  189.4580  177.9480  147.1890 O   0  0  0  0  0  1  0  0  0  0  0  0
  192.1890  176.0500  146.8460 C   0  0  0  0  0  3  0  0  0  0  0  0
  191.3090  175.6200  143.2150 C   0  0  0  0  0  0  0  0  0  0  0  0
  196.1630  173.5780  145.2870 C   0  0  2  0  0  3  0  0  0  0  0  0
  195.6850  175.9030  144.9540 N   0  0  0  0  0  2  0  0  0  0  0  0
  196.8200  171.4930  145.7930 C   0  0  0  0  0  3  0  0  0  0  0  0
  193.5150  175.2280  144.2110 C   0  0  1  0  0  3  0  0  0  0  0  0
  194.4550  176.4040  144.3560 C   0  0  0  0  0  2  0  0  0  0  0  0
  196.9180  172.9050  146.1380 C   0  0  0  0  0  3  0  0  0  0  0  0
  193.9340  174.2460  145.2770 C   0  0  2  0  0  3  0  0  0  0  0  0
  195.9370  171.3490  144.8140 C   0  0  0  0  0  2  0  0  0  0  0  0
  195.3260  174.7060  145.7100 C   0  0  1  0  0  3  0  0  0  0  0  0
  195.4390  172.6870  144.3810 C   0  0  1  0  0  3  0  0  0  0  0  0
  194.0300  172.8930  144.7020 N   0  0  0  0  0  2  0  0  0  0  0  0
  188.5440  177.3590  141.7940 C   0  0  0  0  0  2  0  0  0  0  0  0
  189.0870  175.9730  142.0590 C   0  0  2  0  0  3  0  0  0  0  0  0
  187.2150  177.1900  141.2280 N   0  0  0  0  0  0  0  0  0  0  0  0
  187.8670  175.0800  142.1570 C   0  0  0  0  0  2  0  0  0  0  0  0
  186.6910  175.9850  141.8530 C   0  0  0  0  0  2  0  0  0  0  0  0
  186.4060  178.3060  141.6860 C   0  0  0  0  0  2  0  0  0  0  0  0
  186.6850  178.5540  143.1590 C   0  0  0  0  0  2  0  0  0  0  0  0
  185.4340  178.9470  143.8640 C   0  0  0  0  0  0  0  0  0  0  0  0
  185.1590  180.1660  144.0200 O   0  0  0  0  0  0  0  0  0  0  0  0
  184.5680  177.9730  144.3490 O   0  0  0  0  0  1  0  0  0  0  0  0
  191.5640  176.6770  149.0580 O   0  0  0  0  0  0  0  0  0  0  0  0
  191.5660  177.9730  149.6390 C   0  0  0  0  0  2  0  0  0  0  0  0
  191.5660  177.8630  151.1520 C   0  0  0  0  0  1  0  0  0  0  0  0
  2 10  1  0  0  0  0
  2  1  1  1  0  0  0
  2  6  1  0  0  0  0
  3 12  2  0  0  0  0
  4  2  1  0  0  0  0
  5  4  1  0  0  0  0
  6 34  1  0  0  0  0
  7  5  2  0  0  0  0
  8  4  2  0  0  0  0
  8 11  1  0  0  0  0
  9  8  1  0  0  0  0
 11  6  2  0  0  0  0
 12  7  1  0  0  0  0
 12  9  1  0  0  0  0
 13 21  1  0  0  0  0
 13 18  1  1  0  0  0
 15 18  2  0  0  0  0
 16  9  1  1  0  0  0
 16 17  1  0  0  0  0
 16 19  1  0  0  0  0
 17 14  1  0  0  0  0
 19 23  1  6  0  0  0
 19 21  1  0  0  0  0
 20 15  1  0  0  0  0
 21 14  1  6  0  0  0
 22 23  1  0  0  0  0
 22 20  1  1  0  0  0
 22 13  1  0  0  0  0
 24 25  1  0  0  0  0
 25 27  1  0  0  0  0
 25  7  1  1  0  0  0
 26 29  1  0  0  0  0
 26 24  1  0  0  0  0
 26 28  1  0  0  0  0
 28 27  1  0  0  0  0
 29 30  1  0  0  0  0
 30 31  1  0  0  0  0
 31 32  2  0  0  0  0
 31 33  1  0  0  0  0
 34 35  1  0  0  0  0
 35 36  1  0  0  0  0
M  END
>  <MODEL>
8

>  <REMARK>
 VINA RESULT:      -6.9      2.776      9.029
  Name = 
  7 active torsions:
  status: ('A' for Active; 'I' for Inactive)
    1  A    between atoms: C_2  and  C_23
    2  A    between atoms: C_7  and  C_15
    3  A    between atoms: C_7  and  C_19
    4  A    between atoms: N_8  and  C_15
    5  A    between atoms: O_14  and  C_16
    6  A    between atoms: O_14  and  C_21
    7  A    between atoms: C_17  and  N_27
                            x       y       z     vdW  Elec       q    Type
                         _______ _______ _______ _____ _____    ______ ____

>  <TORSDO>
F 7

$$$$
=
 OpenBabel11042418003D

 36 41  0  0  1  0  0  0  0  0999 V2000
  191.5680  171.7800  141.7090 C   0  0  0  0  0  1  0  0  0  0  0  0
  191.0020  173.1620  141.4270 C   0  0  2  0  0  0  0  0  0  0  0  0
  190.9300  176.5510  145.7470 O   0  0  0  0  0  0  0  0  0  0  0  0
  191.1850  174.0620  142.5970 C   0  0  0  0  0  0  0  0  0  0  0  0
  192.3670  174.5140  143.1750 C   0  0  0  0  0  3  0  0  0  0  0  0
  189.4920  173.1480  141.3310 C   0  0  0  0  0  0  0  0  0  0  0  0
  192.2820  175.3660  144.2890 C   0  0  0  0  0  0  0  0  0  0  0  0
  189.9700  174.4540  143.0910 C   0  0  0  0  0  0  0  0  0  0  0  0
  189.8600  175.3040  144.1590 N   0  0  0  0  0  0  0  0  0  0  0  0
  191.5760  173.7110  140.2790 O   0  0  0  0  0  1  0  0  0  0  0  0
  188.9050  173.8740  142.2830 C   0  0  0  0  0  3  0  0  0  0  0  0
  191.0080  175.7670  144.7610 C   0  0  0  0  0  0  0  0  0  0  0  0
  186.2580  178.0160  145.2630 C   0  0  2  0  0  3  0  0  0  0  0  0
  187.6010  176.6380  146.6920 N   0  0  0  0  0  2  0  0  0  0  0  0
  184.9760  179.4900  144.1590 C   0  0  0  0  0  3  0  0  0  0  0  0
  188.5570  175.7150  144.7050 C   0  0  1  0  0  3  0  0  0  0  0  0
  188.4950  175.5940  146.2110 C   0  0  0  0  0  2  0  0  0  0  0  0
  185.7480  179.2310  145.3670 C   0  0  0  0  0  3  0  0  0  0  0  0
  188.2440  177.1600  144.4050 C   0  0  2  0  0  3  0  0  0  0  0  0
  185.1240  178.4690  143.3250 C   0  0  0  0  0  2  0  0  0  0  0  0
  187.6250  177.7030  145.6930 C   0  0  1  0  0  3  0  0  0  0  0  0
  185.9550  177.4090  143.9670 C   0  0  1  0  0  3  0  0  0  0  0  0
  187.2520  177.2440  143.3190 N   0  0  0  0  0  2  0  0  0  0  0  0
  194.5090  176.4070  143.9110 C   0  0  0  0  0  2  0  0  0  0  0  0
  193.5270  175.8990  144.9430 C   0  0  2  0  0  3  0  0  0  0  0  0
  195.8400  176.1080  144.4130 N   0  0  0  0  0  0  0  0  0  0  0  0
  194.2830  174.8470  145.7280 C   0  0  0  0  0  2  0  0  0  0  0  0
  195.6890  174.8700  145.1640 C   0  0  0  0  0  2  0  0  0  0  0  0
  196.6800  175.8190  143.2630 C   0  0  0  0  0  2  0  0  0  0  0  0
  195.8920  176.0800  141.9900 C   0  0  0  0  0  2  0  0  0  0  0  0
  196.6440  175.5840  140.8050 C   0  0  0  0  0  0  0  0  0  0  0  0
  196.1200  175.6430  139.6610 O   0  0  0  0  0  0  0  0  0  0  0  0
  197.9220  175.0570  140.9570 O   0  0  0  0  0  1  0  0  0  0  0  0
  188.7430  172.4830  140.3550 O   0  0  0  0  0  0  0  0  0  0  0  0
  188.9260  172.6920  138.9610 C   0  0  0  0  0  2  0  0  0  0  0  0
  188.2980  174.0090  138.5480 C   0  0  0  0  0  1  0  0  0  0  0  0
  2  1  1  1  0  0  0
  2  4  1  0  0  0  0
  4  8  2  0  0  0  0
  4  5  1  0  0  0  0
  5  7  2  0  0  0  0
  6  2  1  0  0  0  0
  6 11  2  0  0  0  0
  7 12  1  0  0  0  0
  8  9  1  0  0  0  0
  9 12  1  0  0  0  0
 10  2  1  0  0  0  0
 11  8  1  0  0  0  0
 12  3  2  0  0  0  0
 13 18  1  6  0  0  0
 13 21  1  0  0  0  0
 15 18  2  0  0  0  0
 16  9  1  1  0  0  0
 16 17  1  0  0  0  0
 17 14  1  0  0  0  0
 19 23  1  6  0  0  0
 19 16  1  0  0  0  0
 19 21  1  0  0  0  0
 20 15  1  0  0  0  0
 21 14  1  1  0  0  0
 22 20  1  6  0  0  0
 22 13  1  0  0  0  0
 23 22  1  0  0  0  0
 24 26  1  0  0  0  0
 24 25  1  0  0  0  0
 25  7  1  6  0  0  0
 25 27  1  0  0  0  0
 26 28  1  0  0  0  0
 28 27  1  0  0  0  0
 29 26  1  0  0  0  0
 30 29  1  0  0  0  0
 31 33  1  0  0  0  0
 31 30  1  0  0  0  0
 32 31  2  0  0  0  0
 34  6  1  0  0  0  0
 35 34  1  0  0  0  0
 36 35  1  0  0  0  0
M  END
>  <MODEL>
9

>  <REMARK>
 VINA RESULT:      -6.9      1.365      2.064
  Name = 
  7 active torsions:
  status: ('A' for Active; 'I' for Inactive)
    1  A    between atoms: C_2  and  C_23
    2  A    between atoms: C_7  and  C_15
    3  A    between atoms: C_7  and  C_19
    4  A    between atoms: N_8  and  C_15
    5  A    between atoms: O_14  and  C_16
    6  A    between atoms: O_14  and  C_21
    7  A    between atoms: C_17  and  N_27
                            x       y       z     vdW  Elec       q    Type
                         _______ _______ _______ _____ _____    ______ ____

>  <TORSDO>
F 7

$$$$
