=
 OpenBabel11042414383D

 66 69  0  0  1  0  0  0  0  0999 V2000
  189.2140  174.9430  144.0300 C   0  0  0  0  0  3  0  0  0  0  0  0
  189.8360  171.5600  142.9700 C   0  0  0  0  0  2  0  0  0  0  0  0
  189.4840  173.9450  143.2430 C   0  0  0  0  0  0  0  0  0  0  0  0
  190.0130  172.1860  140.1390 C   0  0  0  0  0  0  0  0  0  0  0  0
  190.4800  170.6290  141.9730 C   0  0  0  0  0  3  0  0  0  0  0  0
  189.6560  173.1600  140.9840 C   0  0  0  0  0  3  0  0  0  0  0  0
  189.7500  172.9570  142.4340 C   0  0  0  0  0  0  0  0  0  0  0  0
  190.5540  170.8910  140.6560 C   0  0  0  0  0  0  0  0  0  0  0  0
  189.0560  176.2510  143.4820 N   0  0  0  0  0  2  0  0  0  0  0  0
  188.4110  177.3400  144.2100 C   0  0  2  0  0  3  0  0  0  0  0  0
  186.9680  176.5170  147.9930 Cl  0  0  0  0  0  0  0  0  0  0  0  0
  188.3790  177.0230  145.7260 C   0  0  0  0  0  2  0  0  0  0  0  0
  187.0290  177.7130  143.6150 C   0  0  2  0  0  3  0  0  0  0  0  0
  185.9230  176.8790  144.1970 C   0  0  0  0  0  3  0  0  0  0  0  0
  187.0070  177.2460  146.3720 C   0  0  1  0  0  3  0  0  0  0  0  0
  185.9140  176.6590  145.5180 C   0  0  0  0  0  3  0  0  0  0  0  0
  188.2870  178.2670  141.2750 O   0  0  0  0  0  0  0  0  0  0  0  0
  186.7760  176.3220  141.3350 O   0  0  0  0  0  0  0  0  0  0  0  0
  186.9830  177.7340  141.8210 S   0  0  0  0  0  0  0  0  0  0  0  0
  185.6540  178.7230  141.2980 N   0  0  0  0  0  2  0  0  0  0  0  0
  184.4670  178.2770  142.0040 C   0  0  0  0  0  2  0  0  0  0  0  0
  182.1590  178.2290  141.4060 O   0  0  0  0  0  1  0  0  0  0  0  0
  183.3530  178.0590  141.0370 C   0  0  0  0  0  0  0  0  0  0  0  0
  183.6300  177.6460  139.7380 O   0  0  0  0  0  0  0  0  0  0  0  0
  191.2050  169.9470  139.7780 N   0  0  0  0  0  0  0  0  0  0  0  0
  193.3770  170.5380  140.7560 C   0  0  0  0  0  2  0  0  0  0  0  0
  192.6470  170.0840  139.5110 C   0  0  2  0  0  3  0  0  0  0  0  0
  192.9320  171.0830  138.3940 C   0  0  0  0  0  2  0  0  0  0  0  0
  194.5020  171.9340  138.7390 S   0  0  0  0  0  0  0  0  0  0  0  0
  194.7310  171.0370  140.3110 C   0  0  1  0  0  3  0  0  0  0  0  0
  196.0320  171.4850  142.3070 N   0  0  0  0  0  0  0  0  0  0  0  0
  195.2820  171.9440  141.3600 C   0  0  0  0  0  3  0  0  0  0  0  0
  196.7160  171.9450  144.6270 C   0  0  0  0  0  0  0  0  0  0  0  0
  196.5370  172.3590  143.2740 N   0  0  0  0  0  2  0  0  0  0  0  0
  196.4700  170.7540  144.9660 O   0  0  0  0  0  0  0  0  0  0  0  0
  197.1780  172.9330  145.6460 C   0  0  0  0  0  2  0  0  0  0  0  0
  196.2050  174.0970  145.7380 C   0  0  0  0  0  2  0  0  0  0  0  0
  194.7630  173.5950  145.6940 C   0  0  2  0  0  3  0  0  0  0  0  0
  193.8930  174.1380  144.5600 C   0  0  2  0  0  0  0  0  0  0  0  0
  193.7080  174.6810  145.9780 C   0  0  2  0  0  3  0  0  0  0  0  0
  193.0880  171.8910  144.6360 O   0  0  0  0  0  1  0  0  0  0  0  0
  192.7890  173.1680  144.1670 C   0  0  0  0  0  2  0  0  0  0  0  0
  194.2860  175.9460  146.1400 O   0  0  0  0  0  0  0  0  0  0  0  0
  192.0030  176.0000  146.8190 C   0  0  0  0  0  1  0  0  0  0  0  0
  193.3630  176.6590  146.9130 C   0  0  0  0  0  2  0  0  0  0  0  0
  194.4040  175.0890  143.4350 C   0  0  1  0  0  3  0  0  0  0  0  0
  191.6280  177.5560  142.7270 O   0  0  0  0  0  1  0  0  0  0  0  0
  192.6670  176.9260  143.3310 N   0  0  0  0  0  2  0  0  0  0  0  0
  192.8300  175.3370  141.6390 O   0  0  0  0  0  0  0  0  0  0  0  0
  193.2570  175.7690  142.7450 C   0  0  0  0  0  0  0  0  0  0  0  0
  195.3430  176.0400  143.8580 O   0  0  0  0  0  0  0  0  0  0  0  0
  196.0600  176.3800  142.7080 C   0  0  0  0  0  2  0  0  0  0  0  0
  197.9410  175.2330  141.7040 N   0  0  0  0  0  1  0  0  0  0  0  0
  197.5150  175.9730  142.8740 C   0  0  0  0  0  2  0  0  0  0  0  0
  190.3330  169.7750  137.6120 O   0  0  0  0  0  1  0  0  0  0  0  0
  190.3920  169.1480  138.8560 C   0  0  0  0  0  2  0  0  0  0  0  0
  189.7380  172.3990  138.6840 C   0  0  0  0  0  2  0  0  0  0  0  0
  191.2980  173.6400  137.2630 C   0  0  0  0  0  3  0  0  0  0  0  0
  190.3950  173.6640  138.2340 C   0  0  0  0  0  3  0  0  0  0  0  0
  191.9610  174.9060  136.8320 C   0  0  0  0  0  2  0  0  0  0  0  0
  192.8550  174.6550  135.6270 C   0  0  1  0  0  3  0  0  0  0  0  0
  192.7960  176.8430  135.3130 C   0  0  0  0  0  1  0  0  0  0  0  0
  192.6120  175.6310  134.6570 O   0  0  0  0  0  0  0  0  0  0  0  0
  194.3180  174.7130  136.0520 C   0  0  0  0  0  2  0  0  0  0  0  0
  194.6410  172.8310  134.9440 C   0  0  0  0  0  1  0  0  0  0  0  0
  195.1230  174.1360  135.0670 O   0  0  0  0  0  0  0  0  0  0  0  0
  3  1  2  0  0  0  0
  4  8  1  0  0  0  0
  4  6  2  0  0  0  0
  5  2  1  0  0  0  0
  6  7  1  0  0  0  0
  7  2  1  0  0  0  0
  7  3  2  0  0  0  0
  8  5  2  0  0  0  0
  9  1  1  0  0  0  0
 10  9  1  6  0  0  0
 10 12  1  0  0  0  0
 12 15  1  0  0  0  0
 13 19  1  6  0  0  0
 13 14  1  0  0  0  0
 13 10  1  0  0  0  0
 14 16  2  0  0  0  0
 15 11  1  1  0  0  0
 16 15  1  0  0  0  0
 17 19  2  0  0  0  0
 18 19  2  0  0  0  0
 20 19  1  0  0  0  0
 20 21  1  0  0  0  0
 23 22  1  0  0  0  0
 23 21  1  0  0  0  0
 24 23  2  0  0  0  0
 25  8  1  0  0  0  0
 27 25  1  1  0  0  0
 27 26  1  0  0  0  0
 28 29  1  0  0  0  0
 28 27  1  0  0  0  0
 29 30  1  0  0  0  0
 30 26  1  0  0  0  0
 30 32  1  1  0  0  0
 31 34  1  0  0  0  0
 32 31  2  0  0  0  0
 33 35  2  0  0  0  0
 33 36  1  0  0  0  0
 34 33  1  0  0  0  0
 36 37  1  0  0  0  0
 38 37  1  6  0  0  0
 38 40  1  0  0  0  0
 39 42  1  6  0  0  0
 39 38  1  0  0  0  0
 39 40  1  0  0  0  0
 40 43  1  6  0  0  0
 42 41  1  0  0  0  0
 43 45  1  0  0  0  0
 44 45  1  0  0  0  0
 46 50  1  1  0  0  0
 46 51  1  0  0  0  0
 46 39  1  0  0  0  0
 47 48  1  0  0  0  0
 49 50  2  0  0  0  0
 50 48  1  0  0  0  0
 52 54  1  0  0  0  0
 52 51  1  0  0  0  0
 53 54  1  0  0  0  0
 55 56  1  0  0  0  0
 56 25  1  0  0  0  0
 57  4  1  0  0  0  0
 58 59  2  0  0  0  0
 59 57  1  0  0  0  0
 60 58  1  0  0  0  0
 61 64  1  1  0  0  0
 61 60  1  0  0  0  0
 63 62  1  0  0  0  0
 63 61  1  0  0  0  0
 65 66  1  0  0  0  0
 66 64  1  0  0  0  0
M  END
>  <MODEL>
1

>  <REMARK>
 VINA RESULT:      -5.4      0.000      0.000
  Name = 
  29 active torsions:
  status: ('A' for Active; 'I' for Inactive)
    1  A    between atoms: C_1  and  C_18
    2  A    between atoms: C_1  and  C_55
    3  A    between atoms: C_6  and  C_26
    4  A    between atoms: C_6  and  C_47
    5  A    between atoms: C_7  and  N_17
    6  A    between atoms: C_10  and  N_17
    7  A    between atoms: O_12  and  C_53
    8  A    between atoms: O_12  and  C_66
    9  A    between atoms: N_13  and  N_21
   10  A    between atoms: O_14  and  C_15
   11  A    between atoms: O_14  and  C_62
   12  A    between atoms: C_15  and  C_60
   13  A    between atoms: N_16  and  C_33
   14  A    between atoms: N_16  and  C_50
   15  A    between atoms: N_16  and  C_56
   16  A    between atoms: C_19  and  C_26
   17  A    between atoms: C_23  and  C_65
   18  A    between atoms: C_28  and  C_39
   19  A    between atoms: C_29  and  S_31
   20  A    between atoms: S_31  and  N_43
   21  A    between atoms: C_34  and  C_41
   22  A    between atoms: O_37  and  C_58
   23  A    between atoms: C_39  and  C_58
   24  A    between atoms: C_41  and  N_43
   25  A    between atoms: C_46  and  O_51
   26  A    between atoms: C_46  and  C_58
   27  A    between atoms: C_49  and  C_61
   28  A    between atoms: C_49  and  C_62
   29  A    between atoms: C_62  and  C_64
                            x       y       z     vdW  Elec       q    Type
                         _______ _______ _______ _____ _____    ______ ____

>  <TORSDO>
F 29

$$$$
=
 OpenBabel11042414383D

 66 69  0  0  1  0  0  0  0  0999 V2000
  190.3740  171.4910  139.9090 C   0  0  0  0  0  3  0  0  0  0  0  0
  191.3690  171.6730  143.3640 C   0  0  0  0  0  2  0  0  0  0  0  0
  191.0880  171.3130  140.9800 C   0  0  0  0  0  0  0  0  0  0  0  0
  193.6990  169.9640  143.0690 C   0  0  0  0  0  0  0  0  0  0  0  0
  192.4860  171.6450  144.3770 C   0  0  0  0  0  3  0  0  0  0  0  0
  192.8840  170.1140  142.0190 C   0  0  0  0  0  3  0  0  0  0  0  0
  191.8160  171.1190  142.0440 C   0  0  0  0  0  0  0  0  0  0  0  0
  193.5630  170.8470  144.2700 C   0  0  0  0  0  0  0  0  0  0  0  0
  190.7790  170.8830  138.6830 N   0  0  0  0  0  2  0  0  0  0  0  0
  191.9260  171.3510  137.9110 C   0  0  2  0  0  3  0  0  0  0  0  0
  195.0810  173.0160  139.9960 Cl  0  0  0  0  0  0  0  0  0  0  0  0
  193.1690  171.4780  138.8250 C   0  0  0  0  0  2  0  0  0  0  0  0
  191.6090  172.6330  137.0980 C   0  0  2  0  0  3  0  0  0  0  0  0
  191.8400  173.8810  137.9030 C   0  0  0  0  0  3  0  0  0  0  0  0
  193.9140  172.8090  138.6710 C   0  0  1  0  0  3  0  0  0  0  0  0
  192.9460  173.9630  138.6540 C   0  0  0  0  0  3  0  0  0  0  0  0
  189.8620  171.4290  135.4050 O   0  0  0  0  0  0  0  0  0  0  0  0
  188.9440  172.5500  137.3980 O   0  0  0  0  0  0  0  0  0  0  0  0
  189.9930  172.6260  136.3180 S   0  0  0  0  0  0  0  0  0  0  0  0
  189.7880  174.1000  135.4210 N   0  0  0  0  0  2  0  0  0  0  0  0
  188.7630  174.8840  136.0880 C   0  0  0  0  0  2  0  0  0  0  0  0
  189.1680  176.9090  134.8950 O   0  0  0  0  0  1  0  0  0  0  0  0
  188.3380  176.0140  135.2140 C   0  0  0  0  0  0  0  0  0  0  0  0
  187.0220  176.0930  134.7710 O   0  0  0  0  0  0  0  0  0  0  0  0
  194.5920  170.9000  145.2820 N   0  0  0  0  0  0  0  0  0  0  0  0
  194.5600  173.2900  145.8440 C   0  0  0  0  0  2  0  0  0  0  0  0
  195.4130  172.1160  145.4140 C   0  0  2  0  0  3  0  0  0  0  0  0
  196.1140  172.4810  144.1090 C   0  0  0  0  0  2  0  0  0  0  0  0
  196.2410  174.2910  143.9860 S   0  0  0  0  0  0  0  0  0  0  0  0
  195.3620  174.5380  145.5650 C   0  0  1  0  0  3  0  0  0  0  0  0
  193.2130  175.5470  145.0770 N   0  0  0  0  0  0  0  0  0  0  0  0
  194.4320  175.7020  145.4750 C   0  0  0  0  0  3  0  0  0  0  0  0
  191.9810  177.2170  143.7510 C   0  0  0  0  0  0  0  0  0  0  0  0
  192.3640  176.6560  145.0060 N   0  0  0  0  0  2  0  0  0  0  0  0
  192.3620  176.6840  142.6720 O   0  0  0  0  0  0  0  0  0  0  0  0
  191.1410  178.4510  143.7210 C   0  0  0  0  0  2  0  0  0  0  0  0
  189.6820  178.1070  143.9690 C   0  0  0  0  0  2  0  0  0  0  0  0
  189.3670  176.7030  143.4570 C   0  0  2  0  0  3  0  0  0  0  0  0
  187.9010  176.2710  143.5240 C   0  0  2  0  0  0  0  0  0  0  0  0
  188.8960  175.7220  144.5490 C   0  0  2  0  0  3  0  0  0  0  0  0
  188.7160  174.7830  141.8430 O   0  0  0  0  0  1  0  0  0  0  0  0
  187.5540  175.2460  142.4550 C   0  0  0  0  0  2  0  0  0  0  0  0
  188.7700  176.3460  145.7960 O   0  0  0  0  0  0  0  0  0  0  0  0
  189.5770  174.1160  146.0140 C   0  0  0  0  0  1  0  0  0  0  0  0
  189.3410  175.4450  146.7000 C   0  0  0  0  0  2  0  0  0  0  0  0
  186.7350  177.1880  144.0030 C   0  0  1  0  0  3  0  0  0  0  0  0
  184.3590  178.4070  141.3280 O   0  0  0  0  0  1  0  0  0  0  0  0
  184.8800  177.6960  142.3600 N   0  0  0  0  0  2  0  0  0  0  0  0
  186.8470  178.9390  142.3650 O   0  0  0  0  0  0  0  0  0  0  0  0
  186.1800  177.9920  142.8620 C   0  0  0  0  0  0  0  0  0  0  0  0
  185.7000  176.5160  144.6670 O   0  0  0  0  0  0  0  0  0  0  0  0
  185.8430  176.8640  146.0130 C   0  0  0  0  0  2  0  0  0  0  0  0
  185.2030  178.6830  147.4760 N   0  0  0  0  0  1  0  0  0  0  0  0
  185.7340  178.3720  146.1650 C   0  0  0  0  0  2  0  0  0  0  0  0
  196.4690  169.7230  146.0390 O   0  0  0  0  0  1  0  0  0  0  0  0
  195.0870  169.6510  145.8660 C   0  0  0  0  0  2  0  0  0  0  0  0
  194.6570  168.8160  143.0420 C   0  0  0  0  0  2  0  0  0  0  0  0
  196.1290  168.2720  141.1620 C   0  0  0  0  0  3  0  0  0  0  0  0
  195.7850  169.1310  142.1130 C   0  0  0  0  0  3  0  0  0  0  0  0
  197.2670  168.5880  140.2510 C   0  0  0  0  0  2  0  0  0  0  0  0
  196.8060  169.4900  139.1170 C   0  0  1  0  0  3  0  0  0  0  0  0
  197.2600  171.2940  137.9220 C   0  0  0  0  0  1  0  0  0  0  0  0
  197.8490  170.3440  138.7490 O   0  0  0  0  0  0  0  0  0  0  0  0
  196.3980  168.6400  137.9170 C   0  0  0  0  0  2  0  0  0  0  0  0
  194.7750  168.7900  136.4280 C   0  0  0  0  0  1  0  0  0  0  0  0
  195.0070  168.6270  137.7950 O   0  0  0  0  0  0  0  0  0  0  0  0
  1  3  2  0  0  0  0
  2  5  1  0  0  0  0
  3  7  2  0  0  0  0
  4  8  1  0  0  0  0
  6  7  1  0  0  0  0
  6  4  2  0  0  0  0
  7  2  1  0  0  0  0
  8  5  2  0  0  0  0
  8 25  1  0  0  0  0
  9  1  1  0  0  0  0
 10  9  1  1  0  0  0
 10 12  1  0  0  0  0
 13 19  1  1  0  0  0
 13 14  1  0  0  0  0
 13 10  1  0  0  0  0
 14 16  2  0  0  0  0
 15 12  1  0  0  0  0
 15 11  1  1  0  0  0
 16 15  1  0  0  0  0
 17 19  2  0  0  0  0
 19 18  2  0  0  0  0
 20 21  1  0  0  0  0
 20 19  1  0  0  0  0
 22 23  1  0  0  0  0
 23 21  1  0  0  0  0
 24 23  2  0  0  0  0
 25 56  1  0  0  0  0
 27 25  1  6  0  0  0
 27 26  1  0  0  0  0
 28 27  1  0  0  0  0
 29 28  1  0  0  0  0
 29 30  1  0  0  0  0
 30 32  1  6  0  0  0
 30 26  1  0  0  0  0
 31 32  2  0  0  0  0
 33 34  1  0  0  0  0
 34 31  1  0  0  0  0
 35 33  2  0  0  0  0
 36 33  1  0  0  0  0
 36 37  1  0  0  0  0
 38 39  1  0  0  0  0
 38 37  1  1  0  0  0
 38 40  1  0  0  0  0
 39 42  1  6  0  0  0
 39 46  1  0  0  0  0
 39 40  1  0  0  0  0
 40 43  1  1  0  0  0
 41 42  1  0  0  0  0
 43 45  1  0  0  0  0
 44 45  1  0  0  0  0
 46 50  1  6  0  0  0
 46 51  1  0  0  0  0
 47 48  1  0  0  0  0
 48 50  1  0  0  0  0
 49 50  2  0  0  0  0
 51 52  1  0  0  0  0
 52 54  1  0  0  0  0
 54 53  1  0  0  0  0
 56 55  1  0  0  0  0
 57  4  1  0  0  0  0
 58 59  2  0  0  0  0
 59 57  1  0  0  0  0
 60 58  1  0  0  0  0
 61 64  1  6  0  0  0
 61 60  1  0  0  0  0
 62 63  1  0  0  0  0
 63 61  1  0  0  0  0
 65 66  1  0  0  0  0
 66 64  1  0  0  0  0
M  END
>  <MODEL>
2

>  <REMARK>
 VINA RESULT:      -5.1      3.201      7.649
  Name = 
  29 active torsions:
  status: ('A' for Active; 'I' for Inactive)
    1  A    between atoms: C_1  and  C_18
    2  A    between atoms: C_1  and  C_55
    3  A    between atoms: C_6  and  C_26
    4  A    between atoms: C_6  and  C_47
    5  A    between atoms: C_7  and  N_17
    6  A    between atoms: C_10  and  N_17
    7  A    between atoms: O_12  and  C_53
    8  A    between atoms: O_12  and  C_66
    9  A    between atoms: N_13  and  N_21
   10  A    between atoms: O_14  and  C_15
   11  A    between atoms: O_14  and  C_62
   12  A    between atoms: C_15  and  C_60
   13  A    between atoms: N_16  and  C_33
   14  A    between atoms: N_16  and  C_50
   15  A    between atoms: N_16  and  C_56
   16  A    between atoms: C_19  and  C_26
   17  A    between atoms: C_23  and  C_65
   18  A    between atoms: C_28  and  C_39
   19  A    between atoms: C_29  and  S_31
   20  A    between atoms: S_31  and  N_43
   21  A    between atoms: C_34  and  C_41
   22  A    between atoms: O_37  and  C_58
   23  A    between atoms: C_39  and  C_58
   24  A    between atoms: C_41  and  N_43
   25  A    between atoms: C_46  and  O_51
   26  A    between atoms: C_46  and  C_58
   27  A    between atoms: C_49  and  C_61
   28  A    between atoms: C_49  and  C_62
   29  A    between atoms: C_62  and  C_64
                            x       y       z     vdW  Elec       q    Type
                         _______ _______ _______ _____ _____    ______ ____

>  <TORSDO>
F 29

$$$$
=
 OpenBabel11042414383D

 66 69  0  0  1  0  0  0  0  0999 V2000
  192.6590  170.6840  143.1920 C   0  0  0  0  0  3  0  0  0  0  0  0
  191.0620  170.8040  139.9680 C   0  0  0  0  0  2  0  0  0  0  0  0
  192.5290  170.7410  141.9000 C   0  0  0  0  0  0  0  0  0  0  0  0
  193.5170  171.1650  138.4570 C   0  0  0  0  0  0  0  0  0  0  0  0
  191.1480  170.5360  138.4860 C   0  0  0  0  0  3  0  0  0  0  0  0
  193.5840  171.1840  139.7930 C   0  0  0  0  0  3  0  0  0  0  0  0
  192.4210  170.8030  140.6020 C   0  0  0  0  0  0  0  0  0  0  0  0
  192.2680  170.7160  137.7650 C   0  0  0  0  0  0  0  0  0  0  0  0
  193.9600  170.7690  143.7730 N   0  0  0  0  0  2  0  0  0  0  0  0
  194.1940  171.3150  145.1060 C   0  0  2  0  0  3  0  0  0  0  0  0
  195.9400  175.0510  145.3590 Cl  0  0  0  0  0  0  0  0  0  0  0  0
  194.3790  172.8510  145.0290 C   0  0  0  0  0  2  0  0  0  0  0  0
  195.3370  170.5810  145.8550 C   0  0  2  0  0  3  0  0  0  0  0  0
  196.6830  171.1730  145.5460 C   0  0  0  0  0  3  0  0  0  0  0  0
  195.6000  173.3640  145.8020 C   0  0  1  0  0  3  0  0  0  0  0  0
  196.8060  172.5060  145.5230 C   0  0  0  0  0  3  0  0  0  0  0  0
  196.4040  168.1690  146.4940 O   0  0  0  0  0  0  0  0  0  0  0  0
  193.9770  168.2790  146.0860 O   0  0  0  0  0  0  0  0  0  0  0  0
  195.3220  168.7980  145.6470 S   0  0  0  0  0  0  0  0  0  0  0  0
  195.5650  168.4190  143.9690 N   0  0  0  0  0  2  0  0  0  0  0  0
  196.9350  168.7630  143.6330 C   0  0  0  0  0  2  0  0  0  0  0  0
  197.9300  170.1760  141.9900 O   0  0  0  0  0  1  0  0  0  0  0  0
  196.9830  169.3960  142.2840 C   0  0  0  0  0  0  0  0  0  0  0  0
  195.9740  169.1450  141.3610 O   0  0  0  0  0  0  0  0  0  0  0  0
  192.2620  170.4160  136.3520 N   0  0  0  0  0  0  0  0  0  0  0  0
  191.4330  172.7130  136.1000 C   0  0  0  0  0  2  0  0  0  0  0  0
  191.6890  171.3910  135.4090 C   0  0  2  0  0  3  0  0  0  0  0  0
  190.3770  170.9030  134.8030 C   0  0  0  0  0  2  0  0  0  0  0  0
  189.2850  172.3280  134.5140 S   0  0  0  0  0  0  0  0  0  0  0  0
  190.4990  173.4970  135.2110 C   0  0  1  0  0  3  0  0  0  0  0  0
  188.6060  174.3680  136.4500 N   0  0  0  0  0  0  0  0  0  0  0  0
  189.8140  174.5420  136.0290 C   0  0  0  0  0  3  0  0  0  0  0  0
  187.8470  175.2250  138.6300 C   0  0  0  0  0  0  0  0  0  0  0  0
  187.9920  175.3630  137.2170 N   0  0  0  0  0  2  0  0  0  0  0  0
  188.3220  174.2180  139.2240 O   0  0  0  0  0  0  0  0  0  0  0  0
  187.1120  176.2710  139.4020 C   0  0  0  0  0  2  0  0  0  0  0  0
  187.3500  176.0970  140.8920 C   0  0  0  0  0  2  0  0  0  0  0  0
  188.0420  177.3300  141.4720 C   0  0  2  0  0  3  0  0  0  0  0  0
  188.2200  177.3540  142.9910 C   0  0  2  0  0  0  0  0  0  0  0  0
  187.1310  178.2140  142.3450 C   0  0  2  0  0  3  0  0  0  0  0  0
  190.5310  177.8410  142.6370 O   0  0  0  0  0  1  0  0  0  0  0  0
  189.4260  178.1770  143.4160 C   0  0  0  0  0  2  0  0  0  0  0  0
  185.8550  177.6590  142.5030 O   0  0  0  0  0  0  0  0  0  0  0  0
  185.8200  179.6820  143.7610 C   0  0  0  0  0  1  0  0  0  0  0  0
  185.0430  178.7390  142.8650 C   0  0  0  0  0  2  0  0  0  0  0  0
  187.8110  176.1890  143.9440 C   0  0  1  0  0  3  0  0  0  0  0  0
  190.7840  174.2420  145.2340 O   0  0  0  0  0  1  0  0  0  0  0  0
  189.7910  175.1630  145.1380 N   0  0  0  0  0  2  0  0  0  0  0  0
  189.0120  174.2740  143.1340 O   0  0  0  0  0  0  0  0  0  0  0  0
  188.9000  175.1570  144.0270 C   0  0  0  0  0  0  0  0  0  0  0  0
  187.4320  176.5940  145.2300 O   0  0  0  0  0  0  0  0  0  0  0  0
  186.0480  176.4030  145.2790 C   0  0  0  0  0  2  0  0  0  0  0  0
  186.5950  177.4670  147.3840 N   0  0  0  0  0  1  0  0  0  0  0  0
  185.5140  176.8770  146.6210 C   0  0  0  0  0  2  0  0  0  0  0  0
  193.7660  168.6570  135.9950 O   0  0  0  0  0  1  0  0  0  0  0  0
  192.4240  169.0260  135.9140 C   0  0  0  0  0  2  0  0  0  0  0  0
  194.6810  171.7190  137.6990 C   0  0  0  0  0  2  0  0  0  0  0  0
  194.1590  173.9660  138.5190 C   0  0  0  0  0  3  0  0  0  0  0  0
  195.0760  173.0350  138.2860 C   0  0  0  0  0  3  0  0  0  0  0  0
  194.5660  175.2840  139.0900 C   0  0  0  0  0  2  0  0  0  0  0  0
  195.5110  175.0860  140.2640 C   0  0  1  0  0  3  0  0  0  0  0  0
  197.5880  175.7490  140.6350 C   0  0  0  0  0  1  0  0  0  0  0  0
  196.3000  176.2290  140.4240 O   0  0  0  0  0  0  0  0  0  0  0  0
  194.7060  174.8430  141.5370 C   0  0  0  0  0  2  0  0  0  0  0  0
  193.1830  175.5910  142.9500 C   0  0  0  0  0  1  0  0  0  0  0  0
  193.8900  175.9460  141.8000 O   0  0  0  0  0  0  0  0  0  0  0  0
  1  9  1  0  0  0  0
  2  7  1  0  0  0  0
  3  1  2  0  0  0  0
  4  6  2  0  0  0  0
  5  2  1  0  0  0  0
  6  7  1  0  0  0  0
  7  3  2  0  0  0  0
  8  4  1  0  0  0  0
  8  5  2  0  0  0  0
 10  9  1  6  0  0  0
 10 13  1  0  0  0  0
 12 10  1  0  0  0  0
 12 15  1  0  0  0  0
 13 19  1  6  0  0  0
 14 13  1  0  0  0  0
 15 11  1  6  0  0  0
 16 14  2  0  0  0  0
 16 15  1  0  0  0  0
 19 18  2  0  0  0  0
 19 17  2  0  0  0  0
 20 19  1  0  0  0  0
 21 20  1  0  0  0  0
 22 23  1  0  0  0  0
 23 21  1  0  0  0  0
 24 23  2  0  0  0  0
 25  8  1  0  0  0  0
 27 26  1  0  0  0  0
 27 25  1  1  0  0  0
 28 27  1  0  0  0  0
 29 28  1  0  0  0  0
 29 30  1  0  0  0  0
 30 32  1  1  0  0  0
 30 26  1  0  0  0  0
 31 34  1  0  0  0  0
 32 31  2  0  0  0  0
 33 35  2  0  0  0  0
 33 36  1  0  0  0  0
 34 33  1  0  0  0  0
 36 37  1  0  0  0  0
 38 37  1  1  0  0  0
 38 40  1  0  0  0  0
 38 39  1  0  0  0  0
 39 42  1  1  0  0  0
 39 46  1  0  0  0  0
 40 43  1  1  0  0  0
 40 39  1  0  0  0  0
 41 42  1  0  0  0  0
 43 45  1  0  0  0  0
 45 44  1  0  0  0  0
 46 50  1  1  0  0  0
 46 51  1  0  0  0  0
 48 47  1  0  0  0  0
 49 50  2  0  0  0  0
 50 48  1  0  0  0  0
 51 52  1  0  0  0  0
 52 54  1  0  0  0  0
 54 53  1  0  0  0  0
 56 55  1  0  0  0  0
 56 25  1  0  0  0  0
 57 59  1  0  0  0  0
 57  4  1  0  0  0  0
 58 60  1  0  0  0  0
 59 58  2  0  0  0  0
 61 60  1  6  0  0  0
 61 63  1  0  0  0  0
 61 64  1  0  0  0  0
 63 62  1  0  0  0  0
 64 66  1  0  0  0  0
 66 65  1  0  0  0  0
M  END
>  <MODEL>
3

>  <REMARK>
 VINA RESULT:      -4.9      3.262      8.815
  Name = 
  29 active torsions:
  status: ('A' for Active; 'I' for Inactive)
    1  A    between atoms: C_1  and  C_18
    2  A    between atoms: C_1  and  C_55
    3  A    between atoms: C_6  and  C_26
    4  A    between atoms: C_6  and  C_47
    5  A    between atoms: C_7  and  N_17
    6  A    between atoms: C_10  and  N_17
    7  A    between atoms: O_12  and  C_53
    8  A    between atoms: O_12  and  C_66
    9  A    between atoms: N_13  and  N_21
   10  A    between atoms: O_14  and  C_15
   11  A    between atoms: O_14  and  C_62
   12  A    between atoms: C_15  and  C_60
   13  A    between atoms: N_16  and  C_33
   14  A    between atoms: N_16  and  C_50
   15  A    between atoms: N_16  and  C_56
   16  A    between atoms: C_19  and  C_26
   17  A    between atoms: C_23  and  C_65
   18  A    between atoms: C_28  and  C_39
   19  A    between atoms: C_29  and  S_31
   20  A    between atoms: S_31  and  N_43
   21  A    between atoms: C_34  and  C_41
   22  A    between atoms: O_37  and  C_58
   23  A    between atoms: C_39  and  C_58
   24  A    between atoms: C_41  and  N_43
   25  A    between atoms: C_46  and  O_51
   26  A    between atoms: C_46  and  C_58
   27  A    between atoms: C_49  and  C_61
   28  A    between atoms: C_49  and  C_62
   29  A    between atoms: C_62  and  C_64
                            x       y       z     vdW  Elec       q    Type
                         _______ _______ _______ _____ _____    ______ ____

>  <TORSDO>
F 29

$$$$
=
 OpenBabel11042414383D

 66 69  0  0  1  0  0  0  0  0999 V2000
  196.8090  174.2650  142.8000 C   0  0  0  0  0  3  0  0  0  0  0  0
  195.4260  175.3030  145.9580 C   0  0  0  0  0  2  0  0  0  0  0  0
  195.9660  174.7650  143.6540 C   0  0  0  0  0  0  0  0  0  0  0  0
  193.0630  176.5560  144.8250 C   0  0  0  0  0  0  0  0  0  0  0  0
  194.1980  175.6070  146.7790 C   0  0  0  0  0  3  0  0  0  0  0  0
  194.0020  176.0980  143.9890 C   0  0  0  0  0  3  0  0  0  0  0  0
  195.1090  175.2780  144.4930 C   0  0  0  0  0  0  0  0  0  0  0  0
  193.1030  176.2050  146.2790 C   0  0  0  0  0  0  0  0  0  0  0  0
  196.5200  174.3280  141.4050 N   0  0  0  0  0  2  0  0  0  0  0  0
  197.5300  174.0900  140.3780 C   0  0  2  0  0  3  0  0  0  0  0  0
  197.2260  176.2420  136.8640 Cl  0  0  0  0  0  0  0  0  0  0  0  0
  197.5680  175.2740  139.3800 C   0  0  0  0  0  2  0  0  0  0  0  0
  197.3710  172.7030  139.7020 C   0  0  2  0  0  3  0  0  0  0  0  0
  196.4240  172.7510  138.5370 C   0  0  0  0  0  3  0  0  0  0  0  0
  197.5520  174.8420  137.9090 C   0  0  1  0  0  3  0  0  0  0  0  0
  196.5140  173.7750  137.6790 C   0  0  0  0  0  3  0  0  0  0  0  0
  195.5020  171.4120  141.1870 O   0  0  0  0  0  0  0  0  0  0  0  0
  197.2960  170.0620  140.1710 O   0  0  0  0  0  0  0  0  0  0  0  0
  196.9720  171.3740  140.8400 S   0  0  0  0  0  0  0  0  0  0  0  0
  197.9400  171.5430  142.2730 N   0  0  0  0  0  2  0  0  0  0  0  0
  197.9210  170.2700  142.9700 C   0  0  0  0  0  2  0  0  0  0  0  0
  197.3260  169.5070  145.1510 O   0  0  0  0  0  1  0  0  0  0  0  0
  197.2380  170.4220  144.2870 C   0  0  0  0  0  0  0  0  0  0  0  0
  196.4870  171.5620  144.5530 O   0  0  0  0  0  0  0  0  0  0  0  0
  191.9650  176.4410  147.1380 N   0  0  0  0  0  0  0  0  0  0  0  0
  191.1350  174.3110  146.2450 C   0  0  0  0  0  2  0  0  0  0  0  0
  190.8030  175.5400  147.0640 C   0  0  2  0  0  3  0  0  0  0  0  0
  189.5880  176.2190  146.4410 C   0  0  0  0  0  2  0  0  0  0  0  0
  188.6320  174.9900  145.5010 S   0  0  0  0  0  0  0  0  0  0  0  0
  189.8220  173.6610  145.8810 C   0  0  1  0  0  3  0  0  0  0  0  0
  191.1940  172.6710  144.1450 N   0  0  0  0  0  0  0  0  0  0  0  0
  190.0300  172.7820  144.6920 C   0  0  0  0  0  3  0  0  0  0  0  0
  192.2500  170.7250  143.0680 C   0  0  0  0  0  0  0  0  0  0  0  0
  191.3580  171.8380  143.0340 N   0  0  0  0  0  2  0  0  0  0  0  0
  192.8710  170.4380  144.1290 O   0  0  0  0  0  0  0  0  0  0  0  0
  192.4600  169.9090  141.8350 C   0  0  0  0  0  2  0  0  0  0  0  0
  191.7940  170.5720  140.6400 C   0  0  0  0  0  2  0  0  0  0  0  0
  192.5580  170.2540  139.3560 C   0  0  2  0  0  3  0  0  0  0  0  0
  192.4520  171.2870  138.2330 C   0  0  2  0  0  0  0  0  0  0  0  0
  191.6580  169.9830  138.1360 C   0  0  2  0  0  3  0  0  0  0  0  0
  194.4630  170.1670  137.6000 O   0  0  0  0  0  1  0  0  0  0  0  0
  193.6760  171.2840  137.3310 C   0  0  0  0  0  2  0  0  0  0  0  0
  190.3010  170.1650  138.4320 O   0  0  0  0  0  0  0  0  0  0  0  0
  190.5670  169.3310  136.2170 C   0  0  0  0  0  1  0  0  0  0  0  0
  189.6500  170.0250  137.2030 C   0  0  0  0  0  2  0  0  0  0  0  0
  191.6890  172.6420  138.3520 C   0  0  1  0  0  3  0  0  0  0  0  0
  193.1200  174.6790  141.1970 O   0  0  0  0  0  1  0  0  0  0  0  0
  192.3890  173.7670  140.5080 N   0  0  0  0  0  2  0  0  0  0  0  0
  193.3260  174.3940  138.4720 O   0  0  0  0  0  0  0  0  0  0  0  0
  192.5110  173.6580  139.0920 C   0  0  0  0  0  0  0  0  0  0  0  0
  191.2500  173.1730  137.1330 O   0  0  0  0  0  0  0  0  0  0  0  0
  190.2430  174.0820  137.4720 C   0  0  0  0  0  2  0  0  0  0  0  0
  189.1020  174.3810  135.3580 N   0  0  0  0  0  1  0  0  0  0  0  0
  188.9890  173.7770  136.6690 C   0  0  0  0  0  2  0  0  0  0  0  0
  191.4310  177.6230  149.0870 O   0  0  0  0  0  1  0  0  0  0  0  0
  191.7920  177.7630  147.7480 C   0  0  0  0  0  2  0  0  0  0  0  0
  192.0580  177.5170  144.2750 C   0  0  0  0  0  2  0  0  0  0  0  0
  190.0840  176.5390  143.2060 C   0  0  0  0  0  3  0  0  0  0  0  0
  191.3590  176.8930  143.1100 C   0  0  0  0  0  3  0  0  0  0  0  0
  189.3990  175.9020  142.0430 C   0  0  0  0  0  2  0  0  0  0  0  0
  188.0390  176.5410  141.8110 C   0  0  1  0  0  3  0  0  0  0  0  0
  187.5990  174.3740  141.8640 C   0  0  0  0  0  1  0  0  0  0  0  0
  187.0340  175.6190  142.1180 O   0  0  0  0  0  0  0  0  0  0  0  0
  187.8900  177.7700  142.7020 C   0  0  0  0  0  2  0  0  0  0  0  0
  186.0630  178.8780  143.2560 C   0  0  0  0  0  1  0  0  0  0  0  0
  186.7240  177.6660  143.4630 O   0  0  0  0  0  0  0  0  0  0  0  0
  1  3  2  0  0  0  0
  2  5  1  0  0  0  0
  3  7  2  0  0  0  0
  4  8  1  0  0  0  0
  6  7  1  0  0  0  0
  6  4  2  0  0  0  0
  7  2  1  0  0  0  0
  8  5  2  0  0  0  0
  8 25  1  0  0  0  0
  9  1  1  0  0  0  0
 10  9  1  1  0  0  0
 12 10  1  0  0  0  0
 13 10  1  0  0  0  0
 13 19  1  1  0  0  0
 14 13  1  0  0  0  0
 15 11  1  6  0  0  0
 15 12  1  0  0  0  0
 16 15  1  0  0  0  0
 16 14  2  0  0  0  0
 18 19  2  0  0  0  0
 19 17  2  0  0  0  0
 19 20  1  0  0  0  0
 20 21  1  0  0  0  0
 21 23  1  0  0  0  0
 23 24  2  0  0  0  0
 23 22  1  0  0  0  0
 25 56  1  0  0  0  0
 26 27  1  0  0  0  0
 27 25  1  6  0  0  0
 28 27  1  0  0  0  0
 29 30  1  0  0  0  0
 29 28  1  0  0  0  0
 30 32  1  6  0  0  0
 30 26  1  0  0  0  0
 31 32  2  0  0  0  0
 33 35  2  0  0  0  0
 34 33  1  0  0  0  0
 34 31  1  0  0  0  0
 36 33  1  0  0  0  0
 37 36  1  0  0  0  0
 38 37  1  1  0  0  0
 39 42  1  6  0  0  0
 39 46  1  0  0  0  0
 39 38  1  0  0  0  0
 40 39  1  0  0  0  0
 40 43  1  1  0  0  0
 40 38  1  0  0  0  0
 42 41  1  0  0  0  0
 44 45  1  0  0  0  0
 45 43  1  0  0  0  0
 46 51  1  6  0  0  0
 46 50  1  0  0  0  0
 48 47  1  0  0  0  0
 49 50  2  0  0  0  0
 50 48  1  0  0  0  0
 51 52  1  0  0  0  0
 53 54  1  0  0  0  0
 54 52  1  0  0  0  0
 56 55  1  0  0  0  0
 57  4  1  0  0  0  0
 59 58  2  0  0  0  0
 59 57  1  0  0  0  0
 60 58  1  0  0  0  0
 61 60  1  1  0  0  0
 61 63  1  0  0  0  0
 61 64  1  0  0  0  0
 62 63  1  0  0  0  0
 64 66  1  0  0  0  0
 65 66  1  0  0  0  0
M  END
>  <MODEL>
4

>  <REMARK>
 VINA RESULT:      -4.2      3.309      9.820
  Name = 
  29 active torsions:
  status: ('A' for Active; 'I' for Inactive)
    1  A    between atoms: C_1  and  C_18
    2  A    between atoms: C_1  and  C_55
    3  A    between atoms: C_6  and  C_26
    4  A    between atoms: C_6  and  C_47
    5  A    between atoms: C_7  and  N_17
    6  A    between atoms: C_10  and  N_17
    7  A    between atoms: O_12  and  C_53
    8  A    between atoms: O_12  and  C_66
    9  A    between atoms: N_13  and  N_21
   10  A    between atoms: O_14  and  C_15
   11  A    between atoms: O_14  and  C_62
   12  A    between atoms: C_15  and  C_60
   13  A    between atoms: N_16  and  C_33
   14  A    between atoms: N_16  and  C_50
   15  A    between atoms: N_16  and  C_56
   16  A    between atoms: C_19  and  C_26
   17  A    between atoms: C_23  and  C_65
   18  A    between atoms: C_28  and  C_39
   19  A    between atoms: C_29  and  S_31
   20  A    between atoms: S_31  and  N_43
   21  A    between atoms: C_34  and  C_41
   22  A    between atoms: O_37  and  C_58
   23  A    between atoms: C_39  and  C_58
   24  A    between atoms: C_41  and  N_43
   25  A    between atoms: C_46  and  O_51
   26  A    between atoms: C_46  and  C_58
   27  A    between atoms: C_49  and  C_61
   28  A    between atoms: C_49  and  C_62
   29  A    between atoms: C_62  and  C_64
                            x       y       z     vdW  Elec       q    Type
                         _______ _______ _______ _____ _____    ______ ____

>  <TORSDO>
F 29

$$$$
=
 OpenBabel11042414383D

 66 69  0  0  1  0  0  0  0  0999 V2000
  187.5580  177.7390  143.2700 C   0  0  0  0  0  3  0  0  0  0  0  0
  186.8470  178.2010  139.7720 C   0  0  0  0  0  2  0  0  0  0  0  0
  187.3910  177.4500  142.0140 C   0  0  0  0  0  0  0  0  0  0  0  0
  187.5010  175.4810  138.9950 C   0  0  0  0  0  0  0  0  0  0  0  0
  186.3850  177.5990  138.4690 C   0  0  0  0  0  3  0  0  0  0  0  0
  187.7330  175.8540  140.2580 C   0  0  0  0  0  3  0  0  0  0  0  0
  187.2340  177.1400  140.7570 C   0  0  0  0  0  0  0  0  0  0  0  0
  186.6950  176.3480  138.0820 C   0  0  0  0  0  0  0  0  0  0  0  0
  188.0080  176.7280  144.1720 N   0  0  0  0  0  2  0  0  0  0  0  0
  188.8640  177.0170  145.3180 C   0  0  2  0  0  3  0  0  0  0  0  0
  192.1810  174.6180  145.8780 Cl  0  0  0  0  0  0  0  0  0  0  0  0
  190.2630  176.3860  145.1130 C   0  0  0  0  0  2  0  0  0  0  0  0
  188.1950  176.6420  146.6660 C   0  0  2  0  0  3  0  0  0  0  0  0
  188.4480  175.2080  147.0390 C   0  0  0  0  0  3  0  0  0  0  0  0
  190.7680  175.5980  146.3280 C   0  0  1  0  0  3  0  0  0  0  0  0
  189.6810  174.7120  146.8770 C   0  0  0  0  0  3  0  0  0  0  0  0
  185.6570  176.2120  145.8080 O   0  0  0  0  0  0  0  0  0  0  0  0
  185.9830  176.8150  148.1750 O   0  0  0  0  0  0  0  0  0  0  0  0
  186.4550  177.0670  146.7650 S   0  0  0  0  0  0  0  0  0  0  0  0
  186.2580  178.7510  146.3860 N   0  0  0  0  0  2  0  0  0  0  0  0
  184.8600  178.9690  146.0590 C   0  0  0  0  0  2  0  0  0  0  0  0
  183.9030  178.7780  143.8830 O   0  0  0  0  0  0  0  0  0  0  0  0
  184.7290  179.3700  144.6290 C   0  0  0  0  0  0  0  0  0  0  0  0
  185.5340  180.3810  144.1140 O   0  0  0  0  0  1  0  0  0  0  0  0
  186.1930  175.8480  136.8220 N   0  0  0  0  0  0  0  0  0  0  0  0
  188.1480  174.9260  135.6590 C   0  0  0  0  0  2  0  0  0  0  0  0
  187.0330  175.9500  135.6170 C   0  0  2  0  0  3  0  0  0  0  0  0
  187.6570  177.3340  135.4670 C   0  0  0  0  0  2  0  0  0  0  0  0
  189.2970  177.1710  134.6990 S   0  0  0  0  0  0  0  0  0  0  0  0
  189.1700  175.3520  134.6330 C   0  0  1  0  0  3  0  0  0  0  0  0
  191.5780  175.3990  134.9050 N   0  0  0  0  0  0  0  0  0  0  0  0
  190.4810  174.7200  134.9640 C   0  0  0  0  0  3  0  0  0  0  0  0
  193.7670  175.4350  136.0320 C   0  0  0  0  0  0  0  0  0  0  0  0
  192.7910  174.7800  135.2240 N   0  0  0  0  0  2  0  0  0  0  0  0
  193.5280  176.5740  136.5220 O   0  0  0  0  0  0  0  0  0  0  0  0
  195.0830  174.7750  136.2810 C   0  0  0  0  0  2  0  0  0  0  0  0
  194.9900  173.8380  137.4740 C   0  0  0  0  0  2  0  0  0  0  0  0
  196.2310  172.9510  137.5570 C   0  0  2  0  0  3  0  0  0  0  0  0
  196.0080  171.5210  138.0520 C   0  0  2  0  0  0  0  0  0  0  0  0
  196.6310  172.5550  138.9920 C   0  0  2  0  0  3  0  0  0  0  0  0
  197.4420  170.9580  136.2270 O   0  0  0  0  0  1  0  0  0  0  0  0
  197.0410  170.5520  137.4980 C   0  0  0  0  0  2  0  0  0  0  0  0
  195.7160  173.0270  139.9410 O   0  0  0  0  0  0  0  0  0  0  0  0
  197.4610  172.5170  141.4800 C   0  0  0  0  0  1  0  0  0  0  0  0
  196.5090  173.5730  140.9550 C   0  0  0  0  0  2  0  0  0  0  0  0
  194.6120  170.9160  138.3960 C   0  0  1  0  0  3  0  0  0  0  0  0
  191.5520  171.5560  136.2700 O   0  0  0  0  0  1  0  0  0  0  0  0
  192.3940  171.5100  137.3340 N   0  0  0  0  0  2  0  0  0  0  0  0
  194.0950  170.5320  136.0820 O   0  0  0  0  0  0  0  0  0  0  0  0
  193.7010  170.9580  137.2020 C   0  0  0  0  0  0  0  0  0  0  0  0
  194.6530  169.6190  138.9250 O   0  0  0  0  0  0  0  0  0  0  0  0
  194.2890  169.7620  140.2670 C   0  0  0  0  0  2  0  0  0  0  0  0
  192.5520  168.2110  139.6050 N   0  0  0  0  0  1  0  0  0  0  0  0
  192.8360  169.3550  140.4480 C   0  0  0  0  0  2  0  0  0  0  0  0
  184.0690  176.1650  137.7540 O   0  0  0  0  0  1  0  0  0  0  0  0
  184.7510  175.6400  136.6580 C   0  0  0  0  0  2  0  0  0  0  0  0
  188.1750  174.2370  138.5080 C   0  0  0  0  0  2  0  0  0  0  0  0
  190.1010  173.3080  139.6990 C   0  0  0  0  0  3  0  0  0  0  0  0
  188.7910  173.5190  139.6650 C   0  0  0  0  0  3  0  0  0  0  0  0
  190.7060  172.5750  140.8500 C   0  0  0  0  0  2  0  0  0  0  0  0
  191.0690  173.5430  141.9650 C   0  0  1  0  0  3  0  0  0  0  0  0
  192.7070  172.2760  142.7390 C   0  0  0  0  0  1  0  0  0  0  0  0
  191.4790  172.8230  143.0910 O   0  0  0  0  0  0  0  0  0  0  0  0
  192.2020  174.4550  141.5050 C   0  0  0  0  0  2  0  0  0  0  0  0
  193.4280  175.9070  142.6300 C   0  0  0  0  0  1  0  0  0  0  0  0
  192.1280  175.6790  142.1750 O   0  0  0  0  0  0  0  0  0  0  0  0
  1  9  1  0  0  0  0
  2  7  1  0  0  0  0
  3  1  2  0  0  0  0
  4  6  2  0  0  0  0
  5  2  1  0  0  0  0
  6  7  1  0  0  0  0
  7  3  2  0  0  0  0
  8  5  2  0  0  0  0
  8  4  1  0  0  0  0
 10  9  1  6  0  0  0
 10 13  1  0  0  0  0
 12 10  1  0  0  0  0
 12 15  1  0  0  0  0
 13 19  1  6  0  0  0
 13 14  1  0  0  0  0
 15 11  1  6  0  0  0
 15 16  1  0  0  0  0
 16 14  2  0  0  0  0
 17 19  2  0  0  0  0
 19 18  2  0  0  0  0
 20 19  1  0  0  0  0
 21 20  1  0  0  0  0
 22 23  2  0  0  0  0
 23 21  1  0  0  0  0
 24 23  1  0  0  0  0
 25  8  1  0  0  0  0
 27 26  1  0  0  0  0
 27 25  1  1  0  0  0
 28 27  1  0  0  0  0
 29 28  1  0  0  0  0
 30 29  1  0  0  0  0
 30 32  1  1  0  0  0
 30 26  1  0  0  0  0
 31 32  2  0  0  0  0
 31 34  1  0  0  0  0
 33 36  1  0  0  0  0
 33 35  2  0  0  0  0
 34 33  1  0  0  0  0
 36 37  1  0  0  0  0
 38 37  1  1  0  0  0
 38 39  1  0  0  0  0
 38 40  1  0  0  0  0
 39 42  1  6  0  0  0
 39 46  1  0  0  0  0
 39 40  1  0  0  0  0
 40 43  1  1  0  0  0
 41 42  1  0  0  0  0
 43 45  1  0  0  0  0
 45 44  1  0  0  0  0
 46 50  1  6  0  0  0
 46 51  1  0  0  0  0
 47 48  1  0  0  0  0
 49 50  2  0  0  0  0
 50 48  1  0  0  0  0
 51 52  1  0  0  0  0
 52 54  1  0  0  0  0
 53 54  1  0  0  0  0
 56 25  1  0  0  0  0
 56 55  1  0  0  0  0
 57  4  1  0  0  0  0
 57 59  1  0  0  0  0
 58 60  1  0  0  0  0
 59 58  2  0  0  0  0
 61 60  1  6  0  0  0
 61 63  1  0  0  0  0
 62 63  1  0  0  0  0
 64 61  1  0  0  0  0
 64 66  1  0  0  0  0
 66 65  1  0  0  0  0
M  END
>  <MODEL>
5

>  <REMARK>
 VINA RESULT:      -4.1      3.442      7.088
  Name = 
  29 active torsions:
  status: ('A' for Active; 'I' for Inactive)
    1  A    between atoms: C_1  and  C_18
    2  A    between atoms: C_1  and  C_55
    3  A    between atoms: C_6  and  C_26
    4  A    between atoms: C_6  and  C_47
    5  A    between atoms: C_7  and  N_17
    6  A    between atoms: C_10  and  N_17
    7  A    between atoms: O_12  and  C_53
    8  A    between atoms: O_12  and  C_66
    9  A    between atoms: N_13  and  N_21
   10  A    between atoms: O_14  and  C_15
   11  A    between atoms: O_14  and  C_62
   12  A    between atoms: C_15  and  C_60
   13  A    between atoms: N_16  and  C_33
   14  A    between atoms: N_16  and  C_50
   15  A    between atoms: N_16  and  C_56
   16  A    between atoms: C_19  and  C_26
   17  A    between atoms: C_23  and  C_65
   18  A    between atoms: C_28  and  C_39
   19  A    between atoms: C_29  and  S_31
   20  A    between atoms: S_31  and  N_43
   21  A    between atoms: C_34  and  C_41
   22  A    between atoms: O_37  and  C_58
   23  A    between atoms: C_39  and  C_58
   24  A    between atoms: C_41  and  N_43
   25  A    between atoms: C_46  and  O_51
   26  A    between atoms: C_46  and  C_58
   27  A    between atoms: C_49  and  C_61
   28  A    between atoms: C_49  and  C_62
   29  A    between atoms: C_62  and  C_64
                            x       y       z     vdW  Elec       q    Type
                         _______ _______ _______ _____ _____    ______ ____

>  <TORSDO>
F 29

$$$$
=
 OpenBabel11042414383D

 66 69  0  0  1  0  0  0  0  0999 V2000
  191.7290  177.2600  142.9590 C   0  0  0  0  0  3  0  0  0  0  0  0
  195.1310  176.1230  142.6520 C   0  0  0  0  0  2  0  0  0  0  0  0
  192.7690  176.4890  143.0740 C   0  0  0  0  0  0  0  0  0  0  0  0
  194.7590  173.7100  144.2250 C   0  0  0  0  0  0  0  0  0  0  0  0
  196.0920  174.9620  142.5940 C   0  0  0  0  0  3  0  0  0  0  0  0
  193.7450  174.5790  144.1440 C   0  0  0  0  0  3  0  0  0  0  0  0
  193.8020  175.7030  143.2040 C   0  0  0  0  0  0  0  0  0  0  0  0
  195.9490  173.8450  143.3290 C   0  0  0  0  0  0  0  0  0  0  0  0
  190.4970  176.8740  143.5660 N   0  0  0  0  0  2  0  0  0  0  0  0
  189.5610  177.8390  144.1340 C   0  0  2  0  0  3  0  0  0  0  0  0
  188.7840  177.5900  148.1850 Cl  0  0  0  0  0  0  0  0  0  0  0  0
  189.7530  177.9310  145.6680 C   0  0  0  0  0  2  0  0  0  0  0  0
  188.0960  177.5720  143.6980 C   0  0  2  0  0  3  0  0  0  0  0  0
  187.4060  176.6000  144.6140 C   0  0  0  0  0  3  0  0  0  0  0  0
  188.4420  177.8480  146.4600 C   0  0  1  0  0  3  0  0  0  0  0  0
  187.5730  176.7360  145.9350 C   0  0  0  0  0  3  0  0  0  0  0  0
  188.5120  178.1850  141.0870 O   0  0  0  0  0  0  0  0  0  0  0  0
  188.6460  175.8140  141.7470 O   0  0  0  0  0  0  0  0  0  0  0  0
  187.9170  177.1140  141.9730 S   0  0  0  0  0  0  0  0  0  0  0  0
  186.2300  176.8970  141.6140 N   0  0  0  0  0  2  0  0  0  0  0  0
  185.6650  178.2060  141.3430 C   0  0  0  0  0  2  0  0  0  0  0  0
  183.7040  178.1940  142.7020 O   0  0  0  0  0  1  0  0  0  0  0  0
  184.1870  178.1710  141.5370 C   0  0  0  0  0  0  0  0  0  0  0  0
  183.3430  178.0900  140.4340 O   0  0  0  0  0  0  0  0  0  0  0  0
  196.9120  172.7760  143.1950 N   0  0  0  0  0  0  0  0  0  0  0  0
  196.8740  172.0640  140.8460 C   0  0  0  0  0  2  0  0  0  0  0  0
  196.6260  171.6560  142.2830 C   0  0  2  0  0  3  0  0  0  0  0  0
  195.1860  171.1690  142.4040 C   0  0  0  0  0  2  0  0  0  0  0  0
  194.6080  170.6000  140.7760 S   0  0  0  0  0  0  0  0  0  0  0  0
  196.1880  171.0380  139.9770 C   0  0  1  0  0  3  0  0  0  0  0  0
  196.7970  171.4500  137.6670 N   0  0  0  0  0  0  0  0  0  0  0  0
  195.9510  171.6280  138.6260 C   0  0  0  0  0  3  0  0  0  0  0  0
  197.0210  173.3140  136.0740 C   0  0  0  0  0  0  0  0  0  0  0  0
  196.5450  172.0120  136.4120 N   0  0  0  0  0  2  0  0  0  0  0  0
  197.7300  173.9650  136.8910 O   0  0  0  0  0  0  0  0  0  0  0  0
  196.6600  173.9120  134.7540 C   0  0  0  0  0  2  0  0  0  0  0  0
  195.2000  174.3330  134.7430 C   0  0  0  0  0  2  0  0  0  0  0  0
  194.7860  174.8680  136.1130 C   0  0  2  0  0  3  0  0  0  0  0  0
  193.2960  174.7860  136.4480 C   0  0  2  0  0  0  0  0  0  0  0  0
  193.9080  176.1330  136.0580 C   0  0  2  0  0  3  0  0  0  0  0  0
  194.0270  175.3840  138.6410 O   0  0  0  0  0  1  0  0  0  0  0  0
  193.0470  174.6800  137.9450 C   0  0  0  0  0  2  0  0  0  0  0  0
  193.5920  176.4970  134.7430 O   0  0  0  0  0  0  0  0  0  0  0  0
  193.4760  178.8610  135.0140 C   0  0  0  0  0  1  0  0  0  0  0  0
  192.7010  177.5670  134.8770 C   0  0  0  0  0  2  0  0  0  0  0  0
  192.2200  174.1370  135.5240 C   0  0  1  0  0  3  0  0  0  0  0  0
  192.9760  170.6850  136.8650 O   0  0  0  0  0  1  0  0  0  0  0  0
  192.9480  172.0340  136.7280 N   0  0  0  0  0  2  0  0  0  0  0  0
  191.5960  171.9230  134.8370 O   0  0  0  0  0  0  0  0  0  0  0  0
  192.2330  172.6410  135.6540 C   0  0  0  0  0  0  0  0  0  0  0  0
  190.9200  174.6260  135.7110 O   0  0  0  0  0  0  0  0  0  0  0  0
  190.2500  174.3450  134.5160 C   0  0  0  0  0  2  0  0  0  0  0  0
  189.0470  176.4430  134.6230 N   0  0  0  0  0  1  0  0  0  0  0  0
  188.8820  175.0070  134.5300 C   0  0  0  0  0  2  0  0  0  0  0  0
  197.5010  171.6340  145.1520 O   0  0  0  0  0  1  0  0  0  0  0  0
  197.9280  172.5940  144.2350 C   0  0  0  0  0  2  0  0  0  0  0  0
  194.7060  172.6860  145.3140 C   0  0  0  0  0  2  0  0  0  0  0  0
  192.4930  172.2760  144.3510 C   0  0  0  0  0  3  0  0  0  0  0  0
  193.4470  171.8910  145.1900 C   0  0  0  0  0  3  0  0  0  0  0  0
  191.2320  171.4840  144.2460 C   0  0  0  0  0  2  0  0  0  0  0  0
  190.0900  172.3650  143.7650 C   0  0  1  0  0  3  0  0  0  0  0  0
  189.7030  173.7340  145.4590 C   0  0  0  0  0  1  0  0  0  0  0  0
  190.2980  173.6770  144.2030 O   0  0  0  0  0  0  0  0  0  0  0  0
  190.0310  172.3440  142.2410 C   0  0  0  0  0  2  0  0  0  0  0  0
  190.8800  171.5750  140.3530 C   0  0  0  0  0  1  0  0  0  0  0  0
  191.0100  171.4830  141.7390 O   0  0  0  0  0  0  0  0  0  0  0  0
  1  3  2  0  0  0  0
  1  9  1  0  0  0  0
  2  7  1  0  0  0  0
  3  7  2  0  0  0  0
  4 57  1  0  0  0  0
  5  2  1  0  0  0  0
  5  8  2  0  0  0  0
  6  4  2  0  0  0  0
  7  6  1  0  0  0  0
  8  4  1  0  0  0  0
 10  9  1  1  0  0  0
 10 12  1  0  0  0  0
 12 15  1  0  0  0  0
 13 19  1  6  0  0  0
 13 10  1  0  0  0  0
 13 14  1  0  0  0  0
 14 16  2  0  0  0  0
 15 11  1  1  0  0  0
 16 15  1  0  0  0  0
 17 19  2  0  0  0  0
 18 19  2  0  0  0  0
 20 19  1  0  0  0  0
 21 23  1  0  0  0  0
 21 20  1  0  0  0  0
 23 22  1  0  0  0  0
 24 23  2  0  0  0  0
 25  8  1  0  0  0  0
 25 56  1  0  0  0  0
 26 27  1  0  0  0  0
 27 28  1  0  0  0  0
 27 25  1  1  0  0  0
 29 28  1  0  0  0  0
 30 32  1  6  0  0  0
 30 29  1  0  0  0  0
 30 26  1  0  0  0  0
 31 32  2  0  0  0  0
 33 34  1  0  0  0  0
 33 35  2  0  0  0  0
 34 31  1  0  0  0  0
 36 33  1  0  0  0  0
 37 36  1  0  0  0  0
 38 37  1  6  0  0  0
 38 39  1  0  0  0  0
 39 42  1  1  0  0  0
 40 43  1  6  0  0  0
 40 38  1  0  0  0  0
 40 39  1  0  0  0  0
 42 41  1  0  0  0  0
 43 45  1  0  0  0  0
 45 44  1  0  0  0  0
 46 50  1  1  0  0  0
 46 51  1  0  0  0  0
 46 39  1  0  0  0  0
 48 47  1  0  0  0  0
 49 50  2  0  0  0  0
 50 48  1  0  0  0  0
 52 54  1  0  0  0  0
 52 51  1  0  0  0  0
 54 53  1  0  0  0  0
 56 55  1  0  0  0  0
 58 59  2  0  0  0  0
 59 57  1  0  0  0  0
 60 58  1  0  0  0  0
 61 64  1  6  0  0  0
 61 63  1  0  0  0  0
 61 60  1  0  0  0  0
 63 62  1  0  0  0  0
 65 66  1  0  0  0  0
 66 64  1  0  0  0  0
M  END
>  <MODEL>
6

>  <REMARK>
 VINA RESULT:      -3.7      2.297      7.201
  Name = 
  29 active torsions:
  status: ('A' for Active; 'I' for Inactive)
    1  A    between atoms: C_1  and  C_18
    2  A    between atoms: C_1  and  C_55
    3  A    between atoms: C_6  and  C_26
    4  A    between atoms: C_6  and  C_47
    5  A    between atoms: C_7  and  N_17
    6  A    between atoms: C_10  and  N_17
    7  A    between atoms: O_12  and  C_53
    8  A    between atoms: O_12  and  C_66
    9  A    between atoms: N_13  and  N_21
   10  A    between atoms: O_14  and  C_15
   11  A    between atoms: O_14  and  C_62
   12  A    between atoms: C_15  and  C_60
   13  A    between atoms: N_16  and  C_33
   14  A    between atoms: N_16  and  C_50
   15  A    between atoms: N_16  and  C_56
   16  A    between atoms: C_19  and  C_26
   17  A    between atoms: C_23  and  C_65
   18  A    between atoms: C_28  and  C_39
   19  A    between atoms: C_29  and  S_31
   20  A    between atoms: S_31  and  N_43
   21  A    between atoms: C_34  and  C_41
   22  A    between atoms: O_37  and  C_58
   23  A    between atoms: C_39  and  C_58
   24  A    between atoms: C_41  and  N_43
   25  A    between atoms: C_46  and  O_51
   26  A    between atoms: C_46  and  C_58
   27  A    between atoms: C_49  and  C_61
   28  A    between atoms: C_49  and  C_62
   29  A    between atoms: C_62  and  C_64
                            x       y       z     vdW  Elec       q    Type
                         _______ _______ _______ _____ _____    ______ ____

>  <TORSDO>
F 29

$$$$
=
 OpenBabel11042414383D

 66 69  0  0  1  0  0  0  0  0999 V2000
  192.5540  175.6220  134.8890 C   0  0  0  0  0  3  0  0  0  0  0  0
  195.4600  175.7130  137.0110 C   0  0  0  0  0  2  0  0  0  0  0  0
  193.3320  175.3660  135.8980 C   0  0  0  0  0  0  0  0  0  0  0  0
  194.3000  174.1100  139.1370 C   0  0  0  0  0  0  0  0  0  0  0  0
  196.3010  175.0290  138.0600 C   0  0  0  0  0  3  0  0  0  0  0  0
  193.5170  174.4720  138.1150 C   0  0  0  0  0  3  0  0  0  0  0  0
  194.0950  175.1000  136.9220 C   0  0  0  0  0  0  0  0  0  0  0  0
  195.7820  174.3000  139.0640 C   0  0  0  0  0  0  0  0  0  0  0  0
  191.2290  175.0930  134.8690 N   0  0  0  0  0  2  0  0  0  0  0  0
  190.7850  174.0430  135.7810 C   0  0  2  0  0  3  0  0  0  0  0  0
  191.7270  170.1400  134.8040 Cl  0  0  0  0  0  0  0  0  0  0  0  0
  191.6080  172.7510  135.5500 C   0  0  0  0  0  2  0  0  0  0  0  0
  189.2500  173.8280  135.7350 C   0  0  2  0  0  3  0  0  0  0  0  0
  188.8510  172.8500  134.6650 C   0  0  0  0  0  3  0  0  0  0  0  0
  190.7490  171.4870  135.4280 C   0  0  1  0  0  3  0  0  0  0  0  0
  189.5700  171.7290  134.5220 C   0  0  0  0  0  3  0  0  0  0  0  0
  189.1790  176.4830  135.1800 O   0  0  0  0  0  0  0  0  0  0  0  0
  187.1750  175.1470  134.6600 O   0  0  0  0  0  0  0  0  0  0  0  0
  188.2990  175.3470  135.6460 S   0  0  0  0  0  0  0  0  0  0  0  0
  187.6340  175.6940  137.2130 N   0  0  0  0  0  2  0  0  0  0  0  0
  186.6830  176.7800  137.0580 C   0  0  0  0  0  2  0  0  0  0  0  0
  184.6740  176.4660  138.3050 O   0  0  0  0  0  0  0  0  0  0  0  0
  185.8550  176.9100  138.2900 C   0  0  0  0  0  0  0  0  0  0  0  0
  186.3760  177.5410  139.4150 O   0  0  0  0  0  1  0  0  0  0  0  0
  196.6670  173.6670  140.0150 N   0  0  0  0  0  0  0  0  0  0  0  0
  196.2300  174.1020  142.3910 C   0  0  0  0  0  2  0  0  0  0  0  0
  197.1110  174.4180  141.2010 C   0  0  2  0  0  3  0  0  0  0  0  0
  197.0830  175.9260  140.9700 C   0  0  0  0  0  2  0  0  0  0  0  0
  196.6580  176.7620  142.5280 S   0  0  0  0  0  0  0  0  0  0  0  0
  196.4800  175.1800  143.4180 C   0  0  1  0  0  3  0  0  0  0  0  0
  194.1120  175.0750  143.9290 N   0  0  0  0  0  0  0  0  0  0  0  0
  195.3210  175.2310  144.3580 C   0  0  0  0  0  3  0  0  0  0  0  0
  192.0750  174.0820  144.8910 C   0  0  0  0  0  0  0  0  0  0  0  0
  193.0470  175.1250  144.8340 N   0  0  0  0  0  2  0  0  0  0  0  0
  192.1900  173.0630  144.1570 O   0  0  0  0  0  0  0  0  0  0  0  0
  190.9070  174.2130  145.8120 C   0  0  0  0  0  2  0  0  0  0  0  0
  189.6980  174.7510  145.0650 C   0  0  0  0  0  2  0  0  0  0  0  0
  190.1330  175.7290  143.9760 C   0  0  2  0  0  3  0  0  0  0  0  0
  189.0910  176.7600  143.5370 C   0  0  2  0  0  0  0  0  0  0  0  0
  189.3880  175.5570  142.6380 C   0  0  2  0  0  3  0  0  0  0  0  0
  190.9360  178.2700  143.6730 O   0  0  0  0  0  1  0  0  0  0  0  0
  189.7300  178.0380  143.0160 C   0  0  0  0  0  2  0  0  0  0  0  0
  188.3890  174.5790  142.7150 O   0  0  0  0  0  0  0  0  0  0  0  0
  189.5150  173.3060  141.0470 C   0  0  0  0  0  1  0  0  0  0  0  0
  188.2720  174.0910  141.4090 C   0  0  0  0  0  2  0  0  0  0  0  0
  187.6770  176.9080  144.1750 C   0  0  1  0  0  3  0  0  0  0  0  0
  187.1170  176.2430  147.8540 O   0  0  0  0  0  1  0  0  0  0  0  0
  187.0460  176.1420  146.5030 N   0  0  0  0  0  2  0  0  0  0  0  0
  188.5130  177.9210  146.1850 O   0  0  0  0  0  0  0  0  0  0  0  0
  187.7740  177.0400  145.6690 C   0  0  0  0  0  0  0  0  0  0  0  0
  186.9060  177.9530  143.6490 O   0  0  0  0  0  0  0  0  0  0  0  0
  185.9390  177.3280  142.8560 C   0  0  0  0  0  2  0  0  0  0  0  0
  184.5180  178.8580  144.0810 N   0  0  0  0  0  1  0  0  0  0  0  0
  184.6860  178.1870  142.8090 C   0  0  0  0  0  2  0  0  0  0  0  0
  196.8920  171.9550  138.4340 O   0  0  0  0  0  1  0  0  0  0  0  0
  197.4320  172.4860  139.6050 C   0  0  0  0  0  2  0  0  0  0  0  0
  193.6290  173.6270  140.3830 C   0  0  0  0  0  2  0  0  0  0  0  0
  193.2880  171.2030  140.3280 C   0  0  0  0  0  3  0  0  0  0  0  0
  192.8130  172.4150  140.0710 C   0  0  0  0  0  3  0  0  0  0  0  0
  192.4720  169.9980  139.9970 C   0  0  0  0  0  2  0  0  0  0  0  0
  192.7610  169.5340  138.5780 C   0  0  1  0  0  3  0  0  0  0  0  0
  194.4200  169.0010  137.2170 C   0  0  0  0  0  1  0  0  0  0  0  0
  194.0070  168.9010  138.5400 O   0  0  0  0  0  0  0  0  0  0  0  0
  191.6810  168.5550  138.1280 C   0  0  0  0  0  2  0  0  0  0  0  0
  190.1380  170.0580  138.6140 C   0  0  0  0  0  1  0  0  0  0  0  0
  190.5230  168.7440  138.8850 O   0  0  0  0  0  0  0  0  0  0  0  0
  1  3  2  0  0  0  0
  2  5  1  0  0  0  0
  3  7  2  0  0  0  0
  4 57  1  0  0  0  0
  5  8  2  0  0  0  0
  6  4  2  0  0  0  0
  7  2  1  0  0  0  0
  7  6  1  0  0  0  0
  8  4  1  0  0  0  0
  8 25  1  0  0  0  0
  9  1  1  0  0  0  0
 10  9  1  6  0  0  0
 12 10  1  0  0  0  0
 13 19  1  6  0  0  0
 13 10  1  0  0  0  0
 14 13  1  0  0  0  0
 15 11  1  6  0  0  0
 15 12  1  0  0  0  0
 16 14  2  0  0  0  0
 16 15  1  0  0  0  0
 17 19  2  0  0  0  0
 18 19  2  0  0  0  0
 19 20  1  0  0  0  0
 21 20  1  0  0  0  0
 21 23  1  0  0  0  0
 23 22  2  0  0  0  0
 23 24  1  0  0  0  0
 26 30  1  0  0  0  0
 27 25  1  6  0  0  0
 27 26  1  0  0  0  0
 28 27  1  0  0  0  0
 28 29  1  0  0  0  0
 29 30  1  0  0  0  0
 30 32  1  1  0  0  0
 31 32  2  0  0  0  0
 31 34  1  0  0  0  0
 33 36  1  0  0  0  0
 34 33  1  0  0  0  0
 35 33  2  0  0  0  0
 37 36  1  0  0  0  0
 38 37  1  1  0  0  0
 39 42  1  6  0  0  0
 39 38  1  0  0  0  0
 39 46  1  0  0  0  0
 40 43  1  1  0  0  0
 40 39  1  0  0  0  0
 40 38  1  0  0  0  0
 42 41  1  0  0  0  0
 44 45  1  0  0  0  0
 45 43  1  0  0  0  0
 46 51  1  6  0  0  0
 46 50  1  0  0  0  0
 48 47  1  0  0  0  0
 50 49  2  0  0  0  0
 50 48  1  0  0  0  0
 52 51  1  0  0  0  0
 54 52  1  0  0  0  0
 54 53  1  0  0  0  0
 55 56  1  0  0  0  0
 56 25  1  0  0  0  0
 59 58  2  0  0  0  0
 59 57  1  0  0  0  0
 60 58  1  0  0  0  0
 61 64  1  1  0  0  0
 61 60  1  0  0  0  0
 62 63  1  0  0  0  0
 63 61  1  0  0  0  0
 64 66  1  0  0  0  0
 65 66  1  0  0  0  0
M  END
>  <MODEL>
7

>  <REMARK>
 VINA RESULT:      -3.4      3.531      7.587
  Name = 
  29 active torsions:
  status: ('A' for Active; 'I' for Inactive)
    1  A    between atoms: C_1  and  C_18
    2  A    between atoms: C_1  and  C_55
    3  A    between atoms: C_6  and  C_26
    4  A    between atoms: C_6  and  C_47
    5  A    between atoms: C_7  and  N_17
    6  A    between atoms: C_10  and  N_17
    7  A    between atoms: O_12  and  C_53
    8  A    between atoms: O_12  and  C_66
    9  A    between atoms: N_13  and  N_21
   10  A    between atoms: O_14  and  C_15
   11  A    between atoms: O_14  and  C_62
   12  A    between atoms: C_15  and  C_60
   13  A    between atoms: N_16  and  C_33
   14  A    between atoms: N_16  and  C_50
   15  A    between atoms: N_16  and  C_56
   16  A    between atoms: C_19  and  C_26
   17  A    between atoms: C_23  and  C_65
   18  A    between atoms: C_28  and  C_39
   19  A    between atoms: C_29  and  S_31
   20  A    between atoms: S_31  and  N_43
   21  A    between atoms: C_34  and  C_41
   22  A    between atoms: O_37  and  C_58
   23  A    between atoms: C_39  and  C_58
   24  A    between atoms: C_41  and  N_43
   25  A    between atoms: C_46  and  O_51
   26  A    between atoms: C_46  and  C_58
   27  A    between atoms: C_49  and  C_61
   28  A    between atoms: C_49  and  C_62
   29  A    between atoms: C_62  and  C_64
                            x       y       z     vdW  Elec       q    Type
                         _______ _______ _______ _____ _____    ______ ____

>  <TORSDO>
F 29

$$$$
=
 OpenBabel11042414383D

 66 69  0  0  1  0  0  0  0  0999 V2000
  192.4270  170.8860  143.3640 C   0  0  0  0  0  3  0  0  0  0  0  0
  191.0410  170.9620  140.0430 C   0  0  0  0  0  2  0  0  0  0  0  0
  192.3680  171.0260  142.0730 C   0  0  0  0  0  0  0  0  0  0  0  0
  193.4590  171.9320  138.7580 C   0  0  0  0  0  0  0  0  0  0  0  0
  191.2710  170.8440  138.5570 C   0  0  0  0  0  3  0  0  0  0  0  0
  193.4380  171.8490  140.0920 C   0  0  0  0  0  3  0  0  0  0  0  0
  192.3300  171.1770  140.7780 C   0  0  0  0  0  0  0  0  0  0  0  0
  192.3740  171.3050  137.9400 C   0  0  0  0  0  0  0  0  0  0  0  0
  193.6440  171.1770  144.0500 N   0  0  0  0  0  2  0  0  0  0  0  0
  194.6940  170.1830  144.2510 C   0  0  2  0  0  3  0  0  0  0  0  0
  194.8300  168.2620  147.9060 Cl  0  0  0  0  0  0  0  0  0  0  0  0
  194.3210  169.2420  145.4230 C   0  0  0  0  0  2  0  0  0  0  0  0
  196.1000  170.8240  144.3820 C   0  0  2  0  0  3  0  0  0  0  0  0
  196.4120  171.2110  145.8000 C   0  0  0  0  0  3  0  0  0  0  0  0
  195.4550  169.0380  146.4340 C   0  0  1  0  0  3  0  0  0  0  0  0
  196.1030  170.3520  146.7800 C   0  0  0  0  0  3  0  0  0  0  0  0
  197.8480  172.6000  143.3070 O   0  0  0  0  0  0  0  0  0  0  0  0
  196.0890  171.6890  141.8420 O   0  0  0  0  0  0  0  0  0  0  0  0
  196.4010  172.1720  143.2350 S   0  0  0  0  0  0  0  0  0  0  0  0
  195.3530  173.5000  143.6310 N   0  0  0  0  0  2  0  0  0  0  0  0
  195.4020  174.4440  142.5300 C   0  0  0  0  0  2  0  0  0  0  0  0
  195.5760  176.8030  142.8380 O   0  0  0  0  0  0  0  0  0  0  0  0
  196.1310  175.6760  142.9490 C   0  0  0  0  0  0  0  0  0  0  0  0
  197.4290  175.5830  143.4380 O   0  0  0  0  0  1  0  0  0  0  0  0
  192.5160  171.1320  136.5130 N   0  0  0  0  0  0  0  0  0  0  0  0
  191.3960  173.3080  136.3230 C   0  0  0  0  0  2  0  0  0  0  0  0
  191.8050  172.0430  135.6000 C   0  0  2  0  0  3  0  0  0  0  0  0
  190.5540  171.4020  135.0070 C   0  0  0  0  0  2  0  0  0  0  0  0
  189.2840  172.6800  134.7660 S   0  0  0  0  0  0  0  0  0  0  0  0
  190.3520  173.9830  135.4660 C   0  0  1  0  0  3  0  0  0  0  0  0
  188.4560  174.5310  136.8750 N   0  0  0  0  0  0  0  0  0  0  0  0
  189.5560  174.9160  136.3180 C   0  0  0  0  0  3  0  0  0  0  0  0
  187.8370  175.4030  139.0920 C   0  0  0  0  0  0  0  0  0  0  0  0
  187.7350  175.4270  137.6690 N   0  0  0  0  0  2  0  0  0  0  0  0
  188.6280  174.6020  139.6610 O   0  0  0  0  0  0  0  0  0  0  0  0
  186.9870  176.3200  139.9080 C   0  0  0  0  0  2  0  0  0  0  0  0
  187.1910  176.0560  141.3910 C   0  0  0  0  0  2  0  0  0  0  0  0
  188.0430  177.1570  142.0190 C   0  0  2  0  0  3  0  0  0  0  0  0
  188.7600  176.7970  143.3210 C   0  0  2  0  0  0  0  0  0  0  0  0
  187.5090  177.6770  143.3680 C   0  0  2  0  0  3  0  0  0  0  0  0
  189.8210  178.9310  143.1590 O   0  0  0  0  0  1  0  0  0  0  0  0
  190.0360  177.6020  143.5170 C   0  0  0  0  0  2  0  0  0  0  0  0
  186.3790  176.9680  143.7950 O   0  0  0  0  0  0  0  0  0  0  0  0
  186.3220  177.7710  146.0360 C   0  0  0  0  0  1  0  0  0  0  0  0
  185.7120  177.8490  144.6520 C   0  0  0  0  0  2  0  0  0  0  0  0
  188.7290  175.3850  143.9820 C   0  0  1  0  0  3  0  0  0  0  0  0
  191.8610  174.2970  142.1660 O   0  0  0  0  0  1  0  0  0  0  0  0
  190.7460  174.9920  142.5050 N   0  0  0  0  0  2  0  0  0  0  0  0
  190.3150  173.6170  144.3330 O   0  0  0  0  0  0  0  0  0  0  0  0
  189.9610  174.6010  143.6280 C   0  0  0  0  0  0  0  0  0  0  0  0
  188.5470  175.3950  145.3710 O   0  0  0  0  0  0  0  0  0  0  0  0
  189.7200  175.9540  145.8880 C   0  0  0  0  0  2  0  0  0  0  0  0
  191.2770  175.8210  147.7370 N   0  0  0  0  0  1  0  0  0  0  0  0
  190.2150  175.1130  147.0530 C   0  0  0  0  0  2  0  0  0  0  0  0
  194.0850  170.0610  135.1440 O   0  0  0  0  0  1  0  0  0  0  0  0
  192.9980  169.8500  135.9910 C   0  0  0  0  0  2  0  0  0  0  0  0
  194.5300  172.7700  138.1340 C   0  0  0  0  0  2  0  0  0  0  0  0
  196.4840  171.3180  138.4000 C   0  0  0  0  0  3  0  0  0  0  0  0
  195.5990  171.8820  137.5860 C   0  0  0  0  0  3  0  0  0  0  0  0
  197.5590  170.4470  137.8420 C   0  0  0  0  0  2  0  0  0  0  0  0
  197.1050  168.9960  137.8140 C   0  0  1  0  0  3  0  0  0  0  0  0
  195.1780  168.1660  138.5130 C   0  0  0  0  0  1  0  0  0  0  0  0
  195.7430  168.9400  137.5050 O   0  0  0  0  0  0  0  0  0  0  0  0
  197.8960  168.2310  136.7570 C   0  0  0  0  0  2  0  0  0  0  0  0
  197.8050  169.0630  134.7140 C   0  0  0  0  0  1  0  0  0  0  0  0
  197.1640  168.1660  135.5700 O   0  0  0  0  0  0  0  0  0  0  0  0
  1  9  1  0  0  0  0
  2  7  1  0  0  0  0
  3  1  2  0  0  0  0
  4  6  2  0  0  0  0
  5  2  1  0  0  0  0
  6  7  1  0  0  0  0
  7  3  2  0  0  0  0
  8  5  2  0  0  0  0
  8  4  1  0  0  0  0
 10  9  1  1  0  0  0
 10 13  1  0  0  0  0
 10 12  1  0  0  0  0
 12 15  1  0  0  0  0
 13 19  1  6  0  0  0
 13 14  1  0  0  0  0
 14 16  2  0  0  0  0
 15 16  1  0  0  0  0
 15 11  1  1  0  0  0
 18 19  2  0  0  0  0
 19 17  2  0  0  0  0
 19 20  1  0  0  0  0
 21 23  1  0  0  0  0
 21 20  1  0  0  0  0
 22 23  2  0  0  0  0
 23 24  1  0  0  0  0
 25  8  1  0  0  0  0
 27 26  1  0  0  0  0
 27 25  1  1  0  0  0
 28 27  1  0  0  0  0
 29 28  1  0  0  0  0
 29 30  1  0  0  0  0
 30 32  1  1  0  0  0
 30 26  1  0  0  0  0
 31 34  1  0  0  0  0
 32 31  2  0  0  0  0
 33 35  2  0  0  0  0
 33 36  1  0  0  0  0
 34 33  1  0  0  0  0
 36 37  1  0  0  0  0
 38 37  1  1  0  0  0
 38 39  1  0  0  0  0
 38 40  1  0  0  0  0
 39 40  1  0  0  0  0
 39 42  1  1  0  0  0
 39 46  1  0  0  0  0
 40 43  1  1  0  0  0
 41 42  1  0  0  0  0
 43 45  1  0  0  0  0
 45 44  1  0  0  0  0
 46 50  1  1  0  0  0
 46 51  1  0  0  0  0
 47 48  1  0  0  0  0
 48 50  1  0  0  0  0
 50 49  2  0  0  0  0
 51 52  1  0  0  0  0
 52 54  1  0  0  0  0
 54 53  1  0  0  0  0
 55 56  1  0  0  0  0
 56 25  1  0  0  0  0
 57  4  1  0  0  0  0
 59 57  1  0  0  0  0
 59 58  2  0  0  0  0
 60 58  1  0  0  0  0
 61 64  1  6  0  0  0
 61 60  1  0  0  0  0
 63 61  1  0  0  0  0
 63 62  1  0  0  0  0
 65 66  1  0  0  0  0
 66 64  1  0  0  0  0
M  END
>  <MODEL>
8

>  <REMARK>
 VINA RESULT:      -3.4      3.376      8.187
  Name = 
  29 active torsions:
  status: ('A' for Active; 'I' for Inactive)
    1  A    between atoms: C_1  and  C_18
    2  A    between atoms: C_1  and  C_55
    3  A    between atoms: C_6  and  C_26
    4  A    between atoms: C_6  and  C_47
    5  A    between atoms: C_7  and  N_17
    6  A    between atoms: C_10  and  N_17
    7  A    between atoms: O_12  and  C_53
    8  A    between atoms: O_12  and  C_66
    9  A    between atoms: N_13  and  N_21
   10  A    between atoms: O_14  and  C_15
   11  A    between atoms: O_14  and  C_62
   12  A    between atoms: C_15  and  C_60
   13  A    between atoms: N_16  and  C_33
   14  A    between atoms: N_16  and  C_50
   15  A    between atoms: N_16  and  C_56
   16  A    between atoms: C_19  and  C_26
   17  A    between atoms: C_23  and  C_65
   18  A    between atoms: C_28  and  C_39
   19  A    between atoms: C_29  and  S_31
   20  A    between atoms: S_31  and  N_43
   21  A    between atoms: C_34  and  C_41
   22  A    between atoms: O_37  and  C_58
   23  A    between atoms: C_39  and  C_58
   24  A    between atoms: C_41  and  N_43
   25  A    between atoms: C_46  and  O_51
   26  A    between atoms: C_46  and  C_58
   27  A    between atoms: C_49  and  C_61
   28  A    between atoms: C_49  and  C_62
   29  A    between atoms: C_62  and  C_64
                            x       y       z     vdW  Elec       q    Type
                         _______ _______ _______ _____ _____    ______ ____

>  <TORSDO>
F 29

$$$$
=
 OpenBabel11042414383D

 66 69  0  0  1  0  0  0  0  0999 V2000
  187.7320  177.7940  143.3740 C   0  0  0  0  0  3  0  0  0  0  0  0
  187.2250  178.2020  139.8330 C   0  0  0  0  0  2  0  0  0  0  0  0
  187.5880  177.4790  142.1210 C   0  0  0  0  0  0  0  0  0  0  0  0
  187.6110  175.4000  139.1740 C   0  0  0  0  0  0  0  0  0  0  0  0
  186.7570  177.6060  138.5300 C   0  0  0  0  0  3  0  0  0  0  0  0
  187.8280  175.7920  140.4350 C   0  0  0  0  0  3  0  0  0  0  0  0
  187.4520  177.1420  140.8680 C   0  0  0  0  0  0  0  0  0  0  0  0
  186.9440  176.3160  138.1970 C   0  0  0  0  0  0  0  0  0  0  0  0
  188.0290  176.7740  144.3270 N   0  0  0  0  0  2  0  0  0  0  0  0
  189.0210  176.9470  145.3840 C   0  0  2  0  0  3  0  0  0  0  0  0
  192.0150  174.1150  145.6770 Cl  0  0  0  0  0  0  0  0  0  0  0  0
  190.2950  176.1270  145.0620 C   0  0  0  0  0  2  0  0  0  0  0  0
  188.4360  176.6730  146.7950 C   0  0  2  0  0  3  0  0  0  0  0  0
  188.5230  175.2200  147.1670 C   0  0  0  0  0  3  0  0  0  0  0  0
  190.7980  175.2830  146.2380 C   0  0  1  0  0  3  0  0  0  0  0  0
  189.6560  174.5570  146.9010 C   0  0  0  0  0  3  0  0  0  0  0  0
  186.3260  177.0550  148.4570 O   0  0  0  0  0  0  0  0  0  0  0  0
  186.8330  178.8250  146.8200 O   0  0  0  0  0  0  0  0  0  0  0  0
  186.7880  177.3350  147.0460 S   0  0  0  0  0  0  0  0  0  0  0  0
  185.7030  176.6130  145.8960 N   0  0  0  0  0  2  0  0  0  0  0  0
  184.4870  177.4040  145.8800 C   0  0  0  0  0  2  0  0  0  0  0  0
  184.6870  177.4630  143.5040 O   0  0  0  0  0  0  0  0  0  0  0  0
  184.3280  178.0650  144.5530 C   0  0  0  0  0  0  0  0  0  0  0  0
  183.8060  179.3520  144.4750 O   0  0  0  0  0  1  0  0  0  0  0  0
  186.4440  175.8280  136.9330 N   0  0  0  0  0  0  0  0  0  0  0  0
  188.5390  175.0720  135.8990 C   0  0  0  0  0  2  0  0  0  0  0  0
  187.2960  175.9200  135.7350 C   0  0  2  0  0  3  0  0  0  0  0  0
  187.7270  177.3550  135.4450 C   0  0  0  0  0  2  0  0  0  0  0  0
  189.3940  177.3430  134.7200 S   0  0  0  0  0  0  0  0  0  0  0  0
  189.5210  175.5280  134.8470 C   0  0  1  0  0  3  0  0  0  0  0  0
  191.9200  175.3990  134.5210 N   0  0  0  0  0  0  0  0  0  0  0  0
  190.8970  175.1230  135.2610 C   0  0  0  0  0  3  0  0  0  0  0  0
  193.9390  175.7870  135.8750 C   0  0  0  0  0  0  0  0  0  0  0  0
  193.1970  175.0100  134.9370 N   0  0  0  0  0  2  0  0  0  0  0  0
  193.4300  176.8200  136.3910 O   0  0  0  0  0  0  0  0  0  0  0  0
  195.3320  175.3830  136.2290 C   0  0  0  0  0  2  0  0  0  0  0  0
  195.4330  173.8710  136.3480 C   0  0  0  0  0  2  0  0  0  0  0  0
  194.0650  173.2650  136.6550 C   0  0  2  0  0  3  0  0  0  0  0  0
  194.0230  172.2260  137.7780 C   0  0  2  0  0  0  0  0  0  0  0  0
  193.9490  171.7650  136.3210 C   0  0  2  0  0  3  0  0  0  0  0  0
  192.1110  170.9080  138.3330 O   0  0  0  0  0  1  0  0  0  0  0  0
  192.6670  172.1780  138.4650 C   0  0  0  0  0  2  0  0  0  0  0  0
  195.1630  171.2310  135.8720 O   0  0  0  0  0  0  0  0  0  0  0  0
  194.3360  169.0070  135.6650 C   0  0  0  0  0  1  0  0  0  0  0  0
  194.7960  170.2550  134.9400 C   0  0  0  0  0  2  0  0  0  0  0  0
  195.2510  171.8210  138.6490 C   0  0  1  0  0  3  0  0  0  0  0  0
  195.2010  174.6020  141.2090 O   0  0  0  0  0  1  0  0  0  0  0  0
  194.8100  173.5600  140.4330 N   0  0  0  0  0  2  0  0  0  0  0  0
  196.8920  173.4030  139.4050 O   0  0  0  0  0  0  0  0  0  0  0  0
  195.7100  172.9720  139.4970 C   0  0  0  0  0  0  0  0  0  0  0  0
  195.0520  170.6850  139.4440 O   0  0  0  0  0  0  0  0  0  0  0  0
  196.1010  169.8210  139.1160 C   0  0  0  0  0  2  0  0  0  0  0  0
  194.9310  168.1700  140.4440 N   0  0  0  0  0  1  0  0  0  0  0  0
  196.2330  168.7490  140.1840 C   0  0  0  0  0  2  0  0  0  0  0  0
  184.6280  176.0260  135.4690 O   0  0  0  0  0  1  0  0  0  0  0  0
  185.0010  175.6420  136.7560 C   0  0  0  0  0  2  0  0  0  0  0  0
  188.1640  174.0740  138.7580 C   0  0  0  0  0  2  0  0  0  0  0  0
  189.1710  172.1810  139.9400 C   0  0  0  0  0  3  0  0  0  0  0  0
  188.9530  173.4890  139.8850 C   0  0  0  0  0  3  0  0  0  0  0  0
  189.9450  171.6040  141.0780 C   0  0  0  0  0  2  0  0  0  0  0  0
  190.7640  172.6840  141.7660 C   0  0  1  0  0  3  0  0  0  0  0  0
  189.6410  172.4720  143.6600 C   0  0  0  0  0  1  0  0  0  0  0  0
  189.9490  173.3870  142.6590 O   0  0  0  0  0  0  0  0  0  0  0  0
  191.9200  172.0450  142.5290 C   0  0  0  0  0  2  0  0  0  0  0  0
  192.5990  169.9520  142.7100 C   0  0  0  0  0  1  0  0  0  0  0  0
  192.4530  170.9890  141.7870 O   0  0  0  0  0  0  0  0  0  0  0  0
  1  9  1  0  0  0  0
  2  7  1  0  0  0  0
  3  1  2  0  0  0  0
  4  6  2  0  0  0  0
  5  2  1  0  0  0  0
  6  7  1  0  0  0  0
  7  3  2  0  0  0  0
  8  5  2  0  0  0  0
  8  4  1  0  0  0  0
 10  9  1  6  0  0  0
 10 13  1  0  0  0  0
 12 10  1  0  0  0  0
 12 15  1  0  0  0  0
 13 19  1  6  0  0  0
 13 14  1  0  0  0  0
 15 11  1  6  0  0  0
 15 16  1  0  0  0  0
 16 14  2  0  0  0  0
 18 19  2  0  0  0  0
 19 17  2  0  0  0  0
 20 19  1  0  0  0  0
 21 20  1  0  0  0  0
 22 23  2  0  0  0  0
 23 21  1  0  0  0  0
 24 23  1  0  0  0  0
 25  8  1  0  0  0  0
 27 26  1  0  0  0  0
 27 25  1  1  0  0  0
 28 27  1  0  0  0  0
 29 30  1  0  0  0  0
 29 28  1  0  0  0  0
 30 32  1  1  0  0  0
 30 26  1  0  0  0  0
 31 34  1  0  0  0  0
 31 32  2  0  0  0  0
 33 36  1  0  0  0  0
 33 35  2  0  0  0  0
 34 33  1  0  0  0  0
 36 37  1  0  0  0  0
 38 37  1  6  0  0  0
 38 39  1  0  0  0  0
 39 42  1  1  0  0  0
 39 46  1  0  0  0  0
 40 43  1  6  0  0  0
 40 38  1  0  0  0  0
 40 39  1  0  0  0  0
 41 42  1  0  0  0  0
 45 44  1  0  0  0  0
 45 43  1  0  0  0  0
 46 51  1  1  0  0  0
 46 50  1  0  0  0  0
 48 47  1  0  0  0  0
 49 50  2  0  0  0  0
 50 48  1  0  0  0  0
 52 51  1  0  0  0  0
 52 54  1  0  0  0  0
 54 53  1  0  0  0  0
 55 56  1  0  0  0  0
 56 25  1  0  0  0  0
 57  4  1  0  0  0  0
 57 59  1  0  0  0  0
 58 60  1  0  0  0  0
 59 58  2  0  0  0  0
 61 60  1  1  0  0  0
 61 64  1  0  0  0  0
 61 63  1  0  0  0  0
 63 62  1  0  0  0  0
 66 64  1  0  0  0  0
 66 65  1  0  0  0  0
M  END
>  <MODEL>
9

>  <REMARK>
 VINA RESULT:      -3.3      3.517      7.239
  Name = 
  29 active torsions:
  status: ('A' for Active; 'I' for Inactive)
    1  A    between atoms: C_1  and  C_18
    2  A    between atoms: C_1  and  C_55
    3  A    between atoms: C_6  and  C_26
    4  A    between atoms: C_6  and  C_47
    5  A    between atoms: C_7  and  N_17
    6  A    between atoms: C_10  and  N_17
    7  A    between atoms: O_12  and  C_53
    8  A    between atoms: O_12  and  C_66
    9  A    between atoms: N_13  and  N_21
   10  A    between atoms: O_14  and  C_15
   11  A    between atoms: O_14  and  C_62
   12  A    between atoms: C_15  and  C_60
   13  A    between atoms: N_16  and  C_33
   14  A    between atoms: N_16  and  C_50
   15  A    between atoms: N_16  and  C_56
   16  A    between atoms: C_19  and  C_26
   17  A    between atoms: C_23  and  C_65
   18  A    between atoms: C_28  and  C_39
   19  A    between atoms: C_29  and  S_31
   20  A    between atoms: S_31  and  N_43
   21  A    between atoms: C_34  and  C_41
   22  A    between atoms: O_37  and  C_58
   23  A    between atoms: C_39  and  C_58
   24  A    between atoms: C_41  and  N_43
   25  A    between atoms: C_46  and  O_51
   26  A    between atoms: C_46  and  C_58
   27  A    between atoms: C_49  and  C_61
   28  A    between atoms: C_49  and  C_62
   29  A    between atoms: C_62  and  C_64
                            x       y       z     vdW  Elec       q    Type
                         _______ _______ _______ _____ _____    ______ ____

>  <TORSDO>
F 29

$$$$
