=
 OpenBabel11042418523D

 26 28  0  0  0  0  0  0  0  0999 V2000
  185.6950  178.5440  141.8450 C   0  0  0  0  0  3  0  0  0  0  0  0
  186.5680  178.3090  144.1270 C   0  0  0  0  0  0  0  0  0  0  0  0
  189.6230  175.5850  142.3830 C   0  0  0  0  0  3  0  0  0  0  0  0
  187.5880  177.9690  144.9490 N   0  0  0  0  0  2  0  0  0  0  0  0
  187.6380  177.2180  142.1580 C   0  0  0  0  0  0  0  0  0  0  0  0
  188.6350  177.0570  144.5200 C   0  0  0  0  0  0  0  0  0  0  0  0
  190.9840  176.1470  145.1910 C   0  0  0  0  0  0  0  0  0  0  0  0
  191.5290  175.6460  144.0660 C   0  0  0  0  0  3  0  0  0  0  0  0
  190.8550  175.2260  142.7860 C   0  0  0  0  0  3  0  0  0  0  0  0
  189.6800  176.9260  145.3530 C   0  0  0  0  0  3  0  0  0  0  0  0
  186.7180  178.0890  142.6910 C   0  0  0  0  0  0  0  0  0  0  0  0
  187.5140  176.7890  140.8810 N   0  0  0  0  0  0  0  0  0  0  0  0
  185.6000  178.1530  140.4850 C   0  0  0  0  0  3  0  0  0  0  0  0
  188.7950  176.7320  143.0220 C   0  0  0  0  0  0  0  0  0  0  0  0
  186.5570  177.2410  140.0180 C   0  0  0  0  0  0  0  0  0  0  0  0
  186.6260  176.2550  137.5760 N   0  0  0  0  0  0  0  0  0  0  0  0
  186.5890  176.7060  138.6930 C   0  0  0  0  0  0  0  0  0  0  0  0
  191.8030  176.4430  146.4510 C   0  0  0  0  0  2  0  0  0  0  0  0
  193.1770  175.8080  146.5960 C   0  0  0  0  0  2  0  0  0  0  0  0
  194.1450  176.9280  146.5720 N   0  0  0  0  0  2  0  0  0  0  0  0
  194.8440  176.9230  145.2770 C   0  0  0  0  0  1  0  0  0  0  0  0
  185.6260  179.3900  144.5390 C   0  0  0  0  0  2  0  0  0  0  0  0
  184.4060  178.7720  145.2120 C   0  0  0  0  0  2  0  0  0  0  0  0
  184.8060  178.6090  147.7490 O   0  0  0  0  0  1  0  0  0  0  0  0
  184.7560  176.6430  146.5110 O   0  0  0  0  0  0  0  0  0  0  0  0
  184.6220  177.9150  146.4940 C   0  0  0  0  0  0  0  0  0  0  0  0
  1 11  1  0  0  0  0
  2 22  1  0  0  0  0
  2  4  1  0  0  0  0
  3  9  2  0  0  0  0
  3 14  1  0  0  0  0
  5 11  1  0  0  0  0
  5 14  2  0  0  0  0
  6  4  1  0  0  0  0
  6 10  2  0  0  0  0
  7 10  1  0  0  0  0
  7 18  1  0  0  0  0
  8  7  2  0  0  0  0
  9  8  1  0  0  0  0
 11  2  2  0  0  0  0
 12  5  1  0  0  0  0
 13  1  2  0  0  0  0
 14  6  1  0  0  0  0
 15 13  1  0  0  0  0
 15 12  2  0  0  0  0
 16 17  3  0  0  0  0
 17 15  1  0  0  0  0
 18 19  1  0  0  0  0
 20 19  1  0  0  0  0
 21 20  1  0  0  0  0
 22 23  1  0  0  0  0
 23 26  1  0  0  0  0
 26 25  2  0  0  0  0
 26 24  1  0  0  0  0
M  END
>  <MODEL>
1

>  <REMARK>
 VINA RESULT:      -6.8      0.000      0.000
  Name = 
  7 active torsions:
  status: ('A' for Active; 'I' for Inactive)
    1  A    between atoms: C_1  and  C_11
    2  A    between atoms: C_1  and  C_13
    3  A    between atoms: C_3  and  C_17
    4  A    between atoms: C_3  and  C_24
    5  A    between atoms: C_5  and  C_26
    6  A    between atoms: C_6  and  C_17
    7  A    between atoms: N_9  and  C_11
                            x       y       z     vdW  Elec       q    Type
                         _______ _______ _______ _____ _____    ______ ____

>  <TORSDO>
F 7

$$$$
=
 OpenBabel11042418523D

 26 28  0  0  0  0  0  0  0  0999 V2000
  183.9090  178.0050  140.4080 C   0  0  0  0  0  3  0  0  0  0  0  0
  186.1410  178.0180  141.4300 C   0  0  0  0  0  0  0  0  0  0  0  0
  184.0660  178.7440  145.2980 C   0  0  0  0  0  3  0  0  0  0  0  0
  186.9090  177.9050  142.5370 N   0  0  0  0  0  2  0  0  0  0  0  0
  184.0490  178.2550  142.7630 C   0  0  0  0  0  0  0  0  0  0  0  0
  186.3680  178.1530  143.8630 C   0  0  0  0  0  0  0  0  0  0  0  0
  186.9100  177.8800  146.3990 C   0  0  0  0  0  0  0  0  0  0  0  0
  185.7300  177.9410  147.0440 C   0  0  0  0  0  3  0  0  0  0  0  0
  184.4140  178.5040  146.5740 C   0  0  0  0  0  3  0  0  0  0  0  0
  187.1730  177.8460  144.8940 C   0  0  0  0  0  3  0  0  0  0  0  0
  184.6880  177.9920  141.5750 C   0  0  0  0  0  0  0  0  0  0  0  0
  182.7320  178.5610  142.7790 N   0  0  0  0  0  0  0  0  0  0  0  0
  182.5130  178.2540  140.4260 C   0  0  0  0  0  3  0  0  0  0  0  0
  184.8410  178.2080  144.0640 C   0  0  0  0  0  0  0  0  0  0  0  0
  181.9350  178.5410  141.6700 C   0  0  0  0  0  0  0  0  0  0  0  0
  179.3930  179.1310  142.0310 N   0  0  0  0  0  0  0  0  0  0  0  0
  180.5550  178.8580  141.8700 C   0  0  0  0  0  0  0  0  0  0  0  0
  188.1900  177.3550  147.0550 C   0  0  0  0  0  2  0  0  0  0  0  0
  189.4250  177.1530  146.1920 C   0  0  0  0  0  2  0  0  0  0  0  0
  190.0980  175.9460  146.7250 N   0  0  0  0  0  2  0  0  0  0  0  0
  189.0720  174.9800  147.1510 C   0  0  0  0  0  1  0  0  0  0  0  0
  186.6850  177.5710  140.1140 C   0  0  0  0  0  2  0  0  0  0  0  0
  187.4520  176.2680  140.2970 C   0  0  0  0  0  2  0  0  0  0  0  0
  186.9630  175.7010  137.8340 O   0  0  0  0  0  0  0  0  0  0  0  0
  188.2190  174.1980  139.0840 O   0  0  0  0  0  1  0  0  0  0  0  0
  187.6240  175.3300  139.0650 C   0  0  0  0  0  0  0  0  0  0  0  0
  1 13  2  0  0  0  0
  1 11  1  0  0  0  0
  2 11  2  0  0  0  0
  2  4  1  0  0  0  0
  3  9  2  0  0  0  0
  4  6  1  0  0  0  0
  5 12  1  0  0  0  0
  5 14  2  0  0  0  0
  6 14  1  0  0  0  0
  6 10  2  0  0  0  0
  7  8  2  0  0  0  0
  7 18  1  0  0  0  0
  9  8  1  0  0  0  0
 10  7  1  0  0  0  0
 11  5  1  0  0  0  0
 13 15  1  0  0  0  0
 14  3  1  0  0  0  0
 15 17  1  0  0  0  0
 15 12  2  0  0  0  0
 17 16  3  0  0  0  0
 19 20  1  0  0  0  0
 19 18  1  0  0  0  0
 20 21  1  0  0  0  0
 22 23  1  0  0  0  0
 22  2  1  0  0  0  0
 24 26  2  0  0  0  0
 26 25  1  0  0  0  0
 26 23  1  0  0  0  0
M  END
>  <MODEL>
2

>  <REMARK>
 VINA RESULT:      -6.8      3.725      5.754
  Name = 
  7 active torsions:
  status: ('A' for Active; 'I' for Inactive)
    1  A    between atoms: C_1  and  C_11
    2  A    between atoms: C_1  and  C_13
    3  A    between atoms: C_3  and  C_17
    4  A    between atoms: C_3  and  C_24
    5  A    between atoms: C_5  and  C_26
    6  A    between atoms: C_6  and  C_17
    7  A    between atoms: N_9  and  C_11
                            x       y       z     vdW  Elec       q    Type
                         _______ _______ _______ _____ _____    ______ ____

>  <TORSDO>
F 7

$$$$
=
 OpenBabel11042418523D

 26 28  0  0  0  0  0  0  0  0999 V2000
  189.6930  172.8720  143.1830 C   0  0  0  0  0  3  0  0  0  0  0  0
  189.2470  174.9000  144.4950 C   0  0  0  0  0  0  0  0  0  0  0  0
  187.4610  176.5790  140.7820 C   0  0  0  0  0  3  0  0  0  0  0  0
  188.5600  176.0540  144.6460 N   0  0  0  0  0  2  0  0  0  0  0  0
  188.5350  174.6500  142.1190 C   0  0  0  0  0  0  0  0  0  0  0  0
  187.9560  176.7310  143.5100 C   0  0  0  0  0  0  0  0  0  0  0  0
  186.2950  178.6420  142.8880 C   0  0  0  0  0  0  0  0  0  0  0  0
  185.8970  178.3980  141.6260 C   0  0  0  0  0  3  0  0  0  0  0  0
  186.5450  177.5410  140.5700 C   0  0  0  0  0  3  0  0  0  0  0  0
  187.1590  177.7720  143.8010 C   0  0  0  0  0  3  0  0  0  0  0  0
  189.0520  174.1180  143.2760 C   0  0  0  0  0  0  0  0  0  0  0  0
  188.6930  174.0080  140.9400 N   0  0  0  0  0  0  0  0  0  0  0  0
  189.7980  172.1600  141.9620 C   0  0  0  0  0  3  0  0  0  0  0  0
  187.7900  175.9780  142.1760 C   0  0  0  0  0  0  0  0  0  0  0  0
  189.2720  172.7770  140.8180 C   0  0  0  0  0  0  0  0  0  0  0  0
  189.3700  171.7540  138.3930 N   0  0  0  0  0  0  0  0  0  0  0  0
  189.3280  172.2250  139.5000 C   0  0  0  0  0  0  0  0  0  0  0  0
  185.5670  179.6200  143.8150 C   0  0  0  0  0  2  0  0  0  0  0  0
  185.6150  179.3780  145.3150 C   0  0  0  0  0  2  0  0  0  0  0  0
  184.2490  178.9550  145.7010 N   0  0  0  0  0  2  0  0  0  0  0  0
  184.3490  177.8060  146.6150 C   0  0  0  0  0  1  0  0  0  0  0  0
  189.6830  174.1440  145.7060 C   0  0  0  0  0  2  0  0  0  0  0  0
  189.4020  174.9740  146.9520 C   0  0  0  0  0  2  0  0  0  0  0  0
  190.5130  177.1950  147.6280 O   0  0  0  0  0  0  0  0  0  0  0  0
  191.6640  175.2180  148.0340 O   0  0  0  0  0  1  0  0  0  0  0  0
  190.5830  175.7520  147.6060 C   0  0  0  0  0  0  0  0  0  0  0  0
  1 11  1  0  0  0  0
  2  4  1  0  0  0  0
  2 22  1  0  0  0  0
  3 14  1  0  0  0  0
  5 14  2  0  0  0  0
  5 11  1  0  0  0  0
  6 10  2  0  0  0  0
  6  4  1  0  0  0  0
  7 10  1  0  0  0  0
  7 18  1  0  0  0  0
  8  7  2  0  0  0  0
  9  3  2  0  0  0  0
  9  8  1  0  0  0  0
 11  2  2  0  0  0  0
 12  5  1  0  0  0  0
 13  1  2  0  0  0  0
 14  6  1  0  0  0  0
 15 12  2  0  0  0  0
 15 13  1  0  0  0  0
 16 17  3  0  0  0  0
 17 15  1  0  0  0  0
 18 19  1  0  0  0  0
 19 20  1  0  0  0  0
 20 21  1  0  0  0  0
 22 23  1  0  0  0  0
 23 26  1  0  0  0  0
 26 24  2  0  0  0  0
 26 25  1  0  0  0  0
M  END
>  <MODEL>
3

>  <REMARK>
 VINA RESULT:      -6.7      2.932      6.013
  Name = 
  7 active torsions:
  status: ('A' for Active; 'I' for Inactive)
    1  A    between atoms: C_1  and  C_11
    2  A    between atoms: C_1  and  C_13
    3  A    between atoms: C_3  and  C_17
    4  A    between atoms: C_3  and  C_24
    5  A    between atoms: C_5  and  C_26
    6  A    between atoms: C_6  and  C_17
    7  A    between atoms: N_9  and  C_11
                            x       y       z     vdW  Elec       q    Type
                         _______ _______ _______ _____ _____    ______ ____

>  <TORSDO>
F 7

$$$$
=
 OpenBabel11042418523D

 26 28  0  0  0  0  0  0  0  0999 V2000
  190.6960  175.4500  144.7080 C   0  0  0  0  0  3  0  0  0  0  0  0
  188.7150  175.1880  143.2810 C   0  0  0  0  0  0  0  0  0  0  0  0
  186.6730  177.9890  146.0700 C   0  0  0  0  0  3  0  0  0  0  0  0
  187.5140  175.6530  142.8690 N   0  0  0  0  0  0  0  0  0  0  0  0
  188.7630  176.7170  145.2480 C   0  0  0  0  0  0  0  0  0  0  0  0
  186.7220  176.5460  143.6980 C   0  0  0  0  0  0  0  0  0  0  0  0
  184.6370  178.1110  143.6420 C   0  0  0  0  0  0  0  0  0  0  0  0
  184.7720  178.9540  144.6830 C   0  0  0  0  0  3  0  0  0  0  0  0
  185.6220  178.8150  145.9190 C   0  0  0  0  0  2  0  0  0  0  0  0
  185.6320  177.0760  143.1190 C   0  0  0  0  0  3  0  0  0  0  0  0
  189.4050  175.8830  144.3650 C   0  0  0  0  0  0  0  0  0  0  0  0
  189.3490  177.0560  146.4190 N   0  0  0  0  0  0  0  0  0  0  0  0
  191.3440  175.8590  145.9010 C   0  0  0  0  0  3  0  0  0  0  0  0
  187.3800  177.2520  144.9000 C   0  0  0  0  0  0  0  0  0  0  0  0
  190.6180  176.6890  146.7660 C   0  0  0  0  0  0  0  0  0  0  0  0
  191.5030  177.5520  149.0930 N   0  0  0  0  0  0  0  0  0  0  0  0
  191.0960  177.1620  148.0280 C   0  0  0  0  0  0  0  0  0  0  0  0
  183.6530  178.3570  142.4950 C   0  0  0  0  0  2  0  0  0  0  0  0
  184.1680  178.3060  141.0660 C   0  0  0  0  0  2  0  0  0  0  0  0
  183.0030  177.9400  140.2280 N   0  0  0  0  0  2  0  0  0  0  0  0
  181.7700  178.2640  140.9630 C   0  0  0  0  0  1  0  0  0  0  0  0
  189.5740  174.4320  142.3230 C   0  0  0  0  0  2  0  0  0  0  0  0
  189.2000  172.9560  142.3590 C   0  0  0  0  0  2  0  0  0  0  0  0
  190.8320  171.0770  143.0120 O   0  0  0  0  0  0  0  0  0  0  0  0
  189.5230  172.0290  144.6790 O   0  0  0  0  0  1  0  0  0  0  0  0
  189.8560  172.0510  143.4440 C   0  0  0  0  0  0  0  0  0  0  0  0
  1 13  1  0  0  0  0
  2 11  1  0  0  0  0
  4  2  2  0  0  0  0
  4  6  1  0  0  0  0
  5 12  2  0  0  0  0
  6 14  1  0  0  0  0
  7  8  2  0  0  0  0
  8  9  1  0  0  0  0
  9  3  1  0  0  0  0
 10  7  1  0  0  0  0
 10  6  2  0  0  0  0
 11  1  2  0  0  0  0
 11  5  1  0  0  0  0
 12 15  1  0  0  0  0
 13 15  2  0  0  0  0
 14  5  1  0  0  0  0
 14  3  2  0  0  0  0
 15 17  1  0  0  0  0
 17 16  3  0  0  0  0
 18  7  1  0  0  0  0
 19 18  1  0  0  0  0
 20 21  1  0  0  0  0
 20 19  1  0  0  0  0
 22 23  1  0  0  0  0
 22  2  1  0  0  0  0
 23 26  1  0  0  0  0
 24 26  2  0  0  0  0
 26 25  1  0  0  0  0
M  END
>  <MODEL>
4

>  <REMARK>
 VINA RESULT:      -6.6      3.065      7.945
  Name = 
  7 active torsions:
  status: ('A' for Active; 'I' for Inactive)
    1  A    between atoms: C_1  and  C_11
    2  A    between atoms: C_1  and  C_13
    3  A    between atoms: C_3  and  C_17
    4  A    between atoms: C_3  and  C_24
    5  A    between atoms: C_5  and  C_26
    6  A    between atoms: C_6  and  C_17
    7  A    between atoms: N_9  and  C_11
                            x       y       z     vdW  Elec       q    Type
                         _______ _______ _______ _____ _____    ______ ____

>  <TORSDO>
F 7

$$$$
=
 OpenBabel11042418523D

 26 28  0  0  1  0  0  0  0  0999 V2000
  188.2150  176.1540  146.1550 C   0  0  0  0  0  3  0  0  0  0  0  0
  186.1030  177.2650  145.5760 C   0  0  0  0  0  0  0  0  0  0  0  0
  187.6750  177.4860  141.4200 C   0  0  0  0  0  3  0  0  0  0  0  0
  185.2100  177.6350  144.6310 N   0  0  0  0  0  0  0  0  0  0  0  0
  187.8500  176.7290  143.8820 C   0  0  0  0  0  0  0  0  0  0  0  0
  185.5980  177.7840  143.2380 C   0  0  0  0  0  0  0  0  0  0  0  0
  184.6170  178.0910  140.8420 C   0  0  0  0  0  0  0  0  0  0  0  0
  185.5860  177.7110  139.9880 C   0  0  0  0  0  3  0  0  0  0  0  0
  187.0690  177.5810  140.2240 C   0  0  0  0  0  3  0  0  0  0  0  0
  184.5970  177.9890  142.3660 C   0  0  0  0  0  3  0  0  0  0  0  0
  187.3480  176.6270  145.1570 C   0  0  0  0  0  0  0  0  0  0  0  0
  189.1450  176.4300  143.6300 N   0  0  0  0  0  0  0  0  0  0  0  0
  189.5530  175.7710  145.8830 C   0  0  0  0  0  3  0  0  0  0  0  0
  186.9370  177.1930  142.7540 C   0  0  1  0  0  3  0  0  0  0  0  0
  190.0040  175.9290  144.5660 C   0  0  0  0  0  0  0  0  0  0  0  0
  192.4510  175.3840  143.7560 N   0  0  0  0  0  0  0  0  0  0  0  0
  191.3310  175.6350  144.1220 C   0  0  0  0  0  0  0  0  0  0  0  0
  183.1560  178.2620  140.4180 C   0  0  0  0  0  2  0  0  0  0  0  0
  182.0820  178.2940  141.4930 C   0  0  0  0  0  2  0  0  0  0  0  0
  180.7900  178.3640  140.7730 N   0  0  0  0  0  2  0  0  0  0  0  0
  180.3460  179.7670  140.7310 C   0  0  0  0  0  1  0  0  0  0  0  0
  185.6210  176.9410  146.9510 C   0  0  0  0  0  2  0  0  0  0  0  0
  185.2450  178.2280  147.6740 C   0  0  0  0  0  2  0  0  0  0  0  0
  187.6840  178.7190  148.3320 O   0  0  0  0  0  1  0  0  0  0  0  0
  186.2120  180.5070  148.1400 O   0  0  0  0  0  0  0  0  0  0  0  0
  186.3750  179.2440  148.0150 C   0  0  0  0  0  0  0  0  0  0  0  0
  2 22  1  0  0  0  0
  4  2  2  0  0  0  0
  5 11  1  0  0  0  0
  6  4  1  0  0  0  0
  7 10  1  0  0  0  0
  8  9  1  0  0  0  0
  8  7  2  0  0  0  0
  9  3  2  0  0  0  0
 10  6  2  0  0  0  0
 11  2  1  0  0  0  0
 11  1  2  0  0  0  0
 12  5  2  0  0  0  0
 12 15  1  0  0  0  0
 13  1  1  0  0  0  0
 14  3  1  1  0  0  0
 14  6  1  0  0  0  0
 14  5  1  0  0  0  0
 15 13  2  0  0  0  0
 16 17  3  0  0  0  0
 17 15  1  0  0  0  0
 18  7  1  0  0  0  0
 18 19  1  0  0  0  0
 20 19  1  0  0  0  0
 21 20  1  0  0  0  0
 22 23  1  0  0  0  0
 23 26  1  0  0  0  0
 26 25  2  0  0  0  0
 26 24  1  0  0  0  0
M  END
>  <MODEL>
5

>  <REMARK>
 VINA RESULT:      -6.4      2.545      6.948
  Name = 
  7 active torsions:
  status: ('A' for Active; 'I' for Inactive)
    1  A    between atoms: C_1  and  C_11
    2  A    between atoms: C_1  and  C_13
    3  A    between atoms: C_3  and  C_17
    4  A    between atoms: C_3  and  C_24
    5  A    between atoms: C_5  and  C_26
    6  A    between atoms: C_6  and  C_17
    7  A    between atoms: N_9  and  C_11
                            x       y       z     vdW  Elec       q    Type
                         _______ _______ _______ _____ _____    ______ ____

>  <TORSDO>
F 7

$$$$
=
 OpenBabel11042418523D

 26 28  0  0  0  0  0  0  0  0999 V2000
  186.6910  176.2520  142.9140 C   0  0  0  0  0  3  0  0  0  0  0  0
  189.0900  175.8730  142.5560 C   0  0  0  0  0  0  0  0  0  0  0  0
  189.6640  177.3460  146.7140 C   0  0  0  0  0  3  0  0  0  0  0  0
  190.3250  175.6920  143.0760 N   0  0  0  0  0  0  0  0  0  0  0  0
  188.1620  176.6620  144.7300 C   0  0  0  0  0  0  0  0  0  0  0  0
  190.6610  176.1590  144.4110 C   0  0  0  0  0  0  0  0  0  0  0  0
  192.4930  175.9890  146.2580 C   0  0  0  0  0  0  0  0  0  0  0  0
  191.9000  176.3550  147.4100 C   0  0  0  0  0  3  0  0  0  0  0  0
  190.6350  177.1440  147.6240 C   0  0  0  0  0  2  0  0  0  0  0  0
  191.8580  175.7750  144.8850 C   0  0  0  0  0  3  0  0  0  0  0  0
  187.9820  176.1710  143.4600 C   0  0  0  0  0  0  0  0  0  0  0  0
  187.1350  177.2430  145.3920 N   0  0  0  0  0  0  0  0  0  0  0  0
  185.5940  176.7940  143.6310 C   0  0  0  0  0  3  0  0  0  0  0  0
  189.5340  176.5550  145.3850 C   0  0  0  0  0  0  0  0  0  0  0  0
  185.8590  177.3010  144.9100 C   0  0  0  0  0  0  0  0  0  0  0  0
  184.0650  178.4500  146.4610 N   0  0  0  0  0  0  0  0  0  0  0  0
  184.8860  177.9210  145.7550 C   0  0  0  0  0  0  0  0  0  0  0  0
  193.8390  175.2600  146.2110 C   0  0  0  0  0  2  0  0  0  0  0  0
  194.3290  174.7170  144.8780 C   0  0  0  0  0  2  0  0  0  0  0  0
  195.7170  175.2100  144.7260 N   0  0  0  0  0  2  0  0  0  0  0  0
  195.7020  176.4160  143.8820 C   0  0  0  0  0  1  0  0  0  0  0  0
  188.7360  175.2130  141.2650 C   0  0  0  0  0  2  0  0  0  0  0  0
  189.2820  173.7910  141.2550 C   0  0  0  0  0  2  0  0  0  0  0  0
  187.1000  172.6550  142.0130 O   0  0  0  0  0  0  0  0  0  0  0  0
  189.1030  171.9240  142.9360 O   0  0  0  0  0  1  0  0  0  0  0  0
  188.5420  172.7070  142.0940 C   0  0  0  0  0  0  0  0  0  0  0  0
  1 11  2  0  0  0  0
  1 13  1  0  0  0  0
  2  4  2  0  0  0  0
  2 11  1  0  0  0  0
  3  9  1  0  0  0  0
  4  6  1  0  0  0  0
  5 14  1  0  0  0  0
  5 12  2  0  0  0  0
  6 10  2  0  0  0  0
  6 14  1  0  0  0  0
  7  8  2  0  0  0  0
  8  9  1  0  0  0  0
 10  7  1  0  0  0  0
 11  5  1  0  0  0  0
 13 15  2  0  0  0  0
 14  3  2  0  0  0  0
 15 12  1  0  0  0  0
 15 17  1  0  0  0  0
 17 16  3  0  0  0  0
 18  7  1  0  0  0  0
 19 18  1  0  0  0  0
 20 19  1  0  0  0  0
 21 20  1  0  0  0  0
 22  2  1  0  0  0  0
 23 22  1  0  0  0  0
 23 26  1  0  0  0  0
 24 26  2  0  0  0  0
 26 25  1  0  0  0  0
M  END
>  <MODEL>
6

>  <REMARK>
 VINA RESULT:      -6.4      3.091      4.995
  Name = 
  7 active torsions:
  status: ('A' for Active; 'I' for Inactive)
    1  A    between atoms: C_1  and  C_11
    2  A    between atoms: C_1  and  C_13
    3  A    between atoms: C_3  and  C_17
    4  A    between atoms: C_3  and  C_24
    5  A    between atoms: C_5  and  C_26
    6  A    between atoms: C_6  and  C_17
    7  A    between atoms: N_9  and  C_11
                            x       y       z     vdW  Elec       q    Type
                         _______ _______ _______ _____ _____    ______ ____

>  <TORSDO>
F 7

$$$$
=
 OpenBabel11042418523D

 26 28  0  0  0  0  0  0  0  0999 V2000
  192.0360  173.1310  144.6870 C   0  0  0  0  0  3  0  0  0  0  0  0
  191.3470  175.3370  145.5190 C   0  0  0  0  0  0  0  0  0  0  0  0
  188.1980  175.2330  142.3770 C   0  0  0  0  0  3  0  0  0  0  0  0
  190.3990  176.2970  145.6070 N   0  0  0  0  0  2  0  0  0  0  0  0
  190.1400  174.1500  143.6890 C   0  0  0  0  0  0  0  0  0  0  0  0
  189.3330  176.4030  144.6250 C   0  0  0  0  0  0  0  0  0  0  0  0
  187.0540  177.5850  144.1690 C   0  0  0  0  0  0  0  0  0  0  0  0
  186.4300  176.8490  143.2320 C   0  0  0  0  0  3  0  0  0  0  0  0
  187.0060  175.8450  142.2670 C   0  0  0  0  0  3  0  0  0  0  0  0
  188.3580  177.2830  144.9070 C   0  0  0  0  0  3  0  0  0  0  0  0
  191.0870  174.1660  144.6840 C   0  0  0  0  0  0  0  0  0  0  0  0
  190.1690  173.1970  142.7310 N   0  0  0  0  0  0  0  0  0  0  0  0
  192.0280  172.0880  143.7270 C   0  0  0  0  0  3  0  0  0  0  0  0
  189.0600  175.2250  143.6690 C   0  0  0  0  0  0  0  0  0  0  0  0
  191.0490  172.1530  142.7260 C   0  0  0  0  0  0  0  0  0  0  0  0
  190.8130  170.4290  140.7480 N   0  0  0  0  0  0  0  0  0  0  0  0
  190.9190  171.2140  141.6550 C   0  0  0  0  0  0  0  0  0  0  0  0
  186.3330  178.6370  145.0170 C   0  0  0  0  0  2  0  0  0  0  0  0
  184.8930  178.3810  145.4310 C   0  0  0  0  0  2  0  0  0  0  0  0
  184.9650  177.5110  146.6270 N   0  0  0  0  0  2  0  0  0  0  0  0
  185.8130  178.1620  147.6380 C   0  0  0  0  0  1  0  0  0  0  0  0
  192.3060  175.1480  146.6470 C   0  0  0  0  0  2  0  0  0  0  0  0
  193.1100  176.4260  146.8490 C   0  0  0  0  0  2  0  0  0  0  0  0
  194.9410  177.8830  145.7770 O   0  0  0  0  0  1  0  0  0  0  0  0
  195.1980  175.5750  145.7270 O   0  0  0  0  0  0  0  0  0  0  0  0
  194.4850  176.5570  146.1290 C   0  0  0  0  0  0  0  0  0  0  0  0
  2  4  1  0  0  0  0
  2 22  1  0  0  0  0
  3 14  1  0  0  0  0
  5 11  1  0  0  0  0
  6 10  2  0  0  0  0
  6  4  1  0  0  0  0
  7 10  1  0  0  0  0
  7 18  1  0  0  0  0
  8  7  2  0  0  0  0
  9  3  2  0  0  0  0
  9  8  1  0  0  0  0
 11  1  1  0  0  0  0
 11  2  2  0  0  0  0
 12  5  1  0  0  0  0
 13  1  2  0  0  0  0
 14  5  2  0  0  0  0
 14  6  1  0  0  0  0
 15 12  2  0  0  0  0
 15 13  1  0  0  0  0
 16 17  3  0  0  0  0
 17 15  1  0  0  0  0
 18 19  1  0  0  0  0
 19 20  1  0  0  0  0
 20 21  1  0  0  0  0
 22 23  1  0  0  0  0
 24 26  1  0  0  0  0
 25 26  2  0  0  0  0
 26 23  1  0  0  0  0
M  END
>  <MODEL>
7

>  <REMARK>
 VINA RESULT:      -6.1      3.832      7.039
  Name = 
  7 active torsions:
  status: ('A' for Active; 'I' for Inactive)
    1  A    between atoms: C_1  and  C_11
    2  A    between atoms: C_1  and  C_13
    3  A    between atoms: C_3  and  C_17
    4  A    between atoms: C_3  and  C_24
    5  A    between atoms: C_5  and  C_26
    6  A    between atoms: C_6  and  C_17
    7  A    between atoms: N_9  and  C_11
                            x       y       z     vdW  Elec       q    Type
                         _______ _______ _______ _____ _____    ______ ____

>  <TORSDO>
F 7

$$$$
=
 OpenBabel11042418523D

 26 28  0  0  1  0  0  0  0  0999 V2000
  187.9370  177.4660  145.3570 C   0  0  0  0  0  3  0  0  0  0  0  0
  187.5050  177.3430  142.9430 C   0  0  0  0  0  0  0  0  0  0  0  0
  190.3270  173.9040  142.8930 C   0  0  0  0  0  3  0  0  0  0  0  0
  187.5380  176.6280  141.7950 N   0  0  0  0  0  0  0  0  0  0  0  0
  188.9740  175.7180  144.1330 C   0  0  0  0  0  0  0  0  0  0  0  0
  188.4410  175.5020  141.6290 C   0  0  0  0  0  0  0  0  0  0  0  0
  188.9530  173.4770  140.0680 C   0  0  0  0  0  0  0  0  0  0  0  0
  189.6800  172.6120  140.8000 C   0  0  0  0  0  3  0  0  0  0  0  0
  190.4690  172.8570  142.0600 C   0  0  0  0  0  3  0  0  0  0  0  0
  188.2670  174.7660  140.5190 C   0  0  0  0  0  3  0  0  0  0  0  0
  188.0730  176.7560  144.1540 C   0  0  0  0  0  0  0  0  0  0  0  0
  189.7260  175.4420  145.2220 N   0  0  0  0  0  0  0  0  0  0  0  0
  188.6700  177.1360  146.5250 C   0  0  0  0  0  3  0  0  0  0  0  0
  189.1260  174.8860  142.8660 C   0  0  1  0  0  3  0  0  0  0  0  0
  189.5910  176.0840  146.4200 C   0  0  0  0  0  0  0  0  0  0  0  0
  191.1600  175.2800  148.3780 N   0  0  0  0  0  0  0  0  0  0  0  0
  190.4440  175.6440  147.4800 C   0  0  0  0  0  0  0  0  0  0  0  0
  188.2780  173.0880  138.7500 C   0  0  0  0  0  2  0  0  0  0  0  0
  188.4500  173.9970  137.5440 C   0  0  0  0  0  2  0  0  0  0  0  0
  189.7370  173.6060  136.9230 N   0  0  0  0  0  2  0  0  0  0  0  0
  189.6930  172.1700  136.6040 C   0  0  0  0  0  1  0  0  0  0  0  0
  186.4350  178.3640  143.1390 C   0  0  0  0  0  2  0  0  0  0  0  0
  185.0700  177.7130  142.9520 C   0  0  0  0  0  2  0  0  0  0  0  0
  182.7340  178.2870  142.0370 O   0  0  0  0  0  1  0  0  0  0  0  0
  184.5580  178.4910  140.6120 O   0  0  0  0  0  0  0  0  0  0  0  0
  184.1580  178.2230  141.7970 C   0  0  0  0  0  0  0  0  0  0  0  0
  1 13  1  0  0  0  0
  2 22  1  0  0  0  0
  2 11  1  0  0  0  0
  4  2  2  0  0  0  0
  5 11  1  0  0  0  0
  5 12  2  0  0  0  0
  6  4  1  0  0  0  0
  6 14  1  0  0  0  0
  7 10  1  0  0  0  0
  7  8  2  0  0  0  0
  8  9  1  0  0  0  0
  9  3  2  0  0  0  0
 10  6  2  0  0  0  0
 11  1  2  0  0  0  0
 12 15  1  0  0  0  0
 14  3  1  6  0  0  0
 14  5  1  0  0  0  0
 15 13  2  0  0  0  0
 15 17  1  0  0  0  0
 17 16  3  0  0  0  0
 18  7  1  0  0  0  0
 19 18  1  0  0  0  0
 20 19  1  0  0  0  0
 21 20  1  0  0  0  0
 23 22  1  0  0  0  0
 25 26  2  0  0  0  0
 26 24  1  0  0  0  0
 26 23  1  0  0  0  0
M  END
>  <MODEL>
8

>  <REMARK>
 VINA RESULT:      -5.8      2.961      6.397
  Name = 
  7 active torsions:
  status: ('A' for Active; 'I' for Inactive)
    1  A    between atoms: C_1  and  C_11
    2  A    between atoms: C_1  and  C_13
    3  A    between atoms: C_3  and  C_17
    4  A    between atoms: C_3  and  C_24
    5  A    between atoms: C_5  and  C_26
    6  A    between atoms: C_6  and  C_17
    7  A    between atoms: N_9  and  C_11
                            x       y       z     vdW  Elec       q    Type
                         _______ _______ _______ _____ _____    ______ ____

>  <TORSDO>
F 7

$$$$
=
 OpenBabel11042418523D

 26 28  0  0  0  0  0  0  0  0999 V2000
  186.6300  177.6150  145.1420 C   0  0  0  0  0  3  0  0  0  0  0  0
  188.4760  176.0490  145.5490 C   0  0  0  0  0  0  0  0  0  0  0  0
  187.9710  174.7790  141.3160 C   0  0  0  0  0  3  0  0  0  0  0  0
  189.4540  175.2570  145.0550 N   0  0  0  0  0  2  0  0  0  0  0  0
  187.3880  176.2960  143.3210 C   0  0  0  0  0  0  0  0  0  0  0  0
  189.3960  174.7380  143.6980 C   0  0  0  0  0  0  0  0  0  0  0  0
  190.8290  173.5310  141.8850 C   0  0  0  0  0  0  0  0  0  0  0  0
  190.2260  173.7720  140.7070 C   0  0  0  0  0  3  0  0  0  0  0  0
  188.8110  174.2110  140.4320 C   0  0  0  0  0  3  0  0  0  0  0  0
  190.4980  174.1060  143.2610 C   0  0  0  0  0  3  0  0  0  0  0  0
  187.5700  176.7150  144.6170 C   0  0  0  0  0  0  0  0  0  0  0  0
  186.3110  176.7070  142.6130 N   0  0  0  0  0  0  0  0  0  0  0  0
  185.5380  178.1050  144.3810 C   0  0  0  0  0  3  0  0  0  0  0  0
  188.4080  175.3560  142.6890 C   0  0  0  0  0  0  0  0  0  0  0  0
  185.4010  177.6130  143.0760 C   0  0  0  0  0  0  0  0  0  0  0  0
  183.4480  178.2660  141.4330 N   0  0  0  0  0  0  0  0  0  0  0  0
  184.3390  177.9630  142.1840 C   0  0  0  0  0  0  0  0  0  0  0  0
  192.2610  172.9980  141.9920 C   0  0  0  0  0  2  0  0  0  0  0  0
  193.2250  173.6780  142.9500 C   0  0  0  0  0  2  0  0  0  0  0  0
  193.8830  172.5880  143.7060 N   0  0  0  0  0  2  0  0  0  0  0  0
  193.4980  172.6930  145.1220 C   0  0  0  0  0  1  0  0  0  0  0  0
  188.6700  176.7090  146.8740 C   0  0  0  0  0  2  0  0  0  0  0  0
  190.0630  177.3230  146.9370 C   0  0  0  0  0  2  0  0  0  0  0  0
  191.3440  175.3750  148.0270 O   0  0  0  0  0  0  0  0  0  0  0  0
  191.5630  177.4940  148.9540 O   0  0  0  0  0  1  0  0  0  0  0  0
  191.0580  176.7910  148.0120 C   0  0  0  0  0  0  0  0  0  0  0  0
  2 22  1  0  0  0  0
  3 14  1  0  0  0  0
  4  2  1  0  0  0  0
  5 11  1  0  0  0  0
  6  4  1  0  0  0  0
  7 18  1  0  0  0  0
  7 10  1  0  0  0  0
  8  7  2  0  0  0  0
  9  8  1  0  0  0  0
  9  3  2  0  0  0  0
 10  6  2  0  0  0  0
 11  1  1  0  0  0  0
 11  2  2  0  0  0  0
 12 15  2  0  0  0  0
 12  5  1  0  0  0  0
 13  1  2  0  0  0  0
 14  5  2  0  0  0  0
 14  6  1  0  0  0  0
 15 13  1  0  0  0  0
 16 17  3  0  0  0  0
 17 15  1  0  0  0  0
 18 19  1  0  0  0  0
 19 20  1  0  0  0  0
 20 21  1  0  0  0  0
 22 23  1  0  0  0  0
 23 26  1  0  0  0  0
 26 24  2  0  0  0  0
 26 25  1  0  0  0  0
M  END
>  <MODEL>
9

>  <REMARK>
 VINA RESULT:      -5.8      3.119      4.383
  Name = 
  7 active torsions:
  status: ('A' for Active; 'I' for Inactive)
    1  A    between atoms: C_1  and  C_11
    2  A    between atoms: C_1  and  C_13
    3  A    between atoms: C_3  and  C_17
    4  A    between atoms: C_3  and  C_24
    5  A    between atoms: C_5  and  C_26
    6  A    between atoms: C_6  and  C_17
    7  A    between atoms: N_9  and  C_11
                            x       y       z     vdW  Elec       q    Type
                         _______ _______ _______ _____ _____    ______ ____

>  <TORSDO>
F 7

$$$$
