=
 OpenBabel11042414473D

 28 30  0  0  1  0  0  0  0  0999 V2000
  188.1550  177.4330  143.8250 C   0  0  2  0  0  3  0  0  0  0  0  0
  187.1750  176.6060  146.0870 C   0  0  0  0  0  0  0  0  0  0  0  0
  188.3410  177.0650  145.2810 C   0  0  0  0  0  0  0  0  0  0  0  0
  185.7480  177.8730  144.4680 C   0  0  0  0  0  2  0  0  0  0  0  0
  189.5670  177.2280  145.8000 C   0  0  0  0  0  3  0  0  0  0  0  0
  185.7700  176.8570  145.6050 C   0  0  2  0  0  3  0  0  0  0  0  0
  187.3490  175.9310  147.1370 O   0  0  0  0  0  0  0  0  0  0  0  0
  186.6890  177.4210  143.3610 C   0  0  1  0  0  3  0  0  0  0  0  0
  184.9060  177.3400  146.7290 C   0  0  0  0  0  3  0  0  0  0  0  0
  184.9950  178.5940  147.1690 C   0  0  0  0  0  2  0  0  0  0  0  0
  190.0300  178.3150  147.9740 C   0  0  0  0  0  1  0  0  0  0  0  0
  189.9450  176.9940  147.2290 C   0  0  2  0  0  3  0  0  0  0  0  0
  192.2210  176.4810  146.3230 O   0  0  0  0  0  0  0  0  0  0  0  0
  191.4840  175.4970  148.2570 O   0  0  0  0  0  1  0  0  0  0  0  0
  191.2540  176.2830  147.3020 C   0  0  0  0  0  0  0  0  0  0  0  0
  188.9780  176.4990  142.9430 C   0  0  0  0  0  2  0  0  0  0  0  0
  188.7340  172.7840  142.4660 O   0  0  0  0  0  1  0  0  0  0  0  0
  188.3290  174.8370  141.2060 C   0  0  0  0  0  2  0  0  0  0  0  0
  188.2260  175.2010  142.6880 C   0  0  1  0  0  3  0  0  0  0  0  0
  190.5250  174.3310  142.1650 O   0  0  0  0  0  1  0  0  0  0  0  0
  189.1500  174.0920  142.2250 C   0  0  0  0  0  0  0  0  0  0  0  0
  186.5290  178.2900  142.2070 N   0  0  0  0  0  2  0  0  0  0  0  0
  185.7710  178.1450  140.0080 O   0  0  0  0  0  0  0  0  0  0  0  0
  184.6710  178.6340  140.7350 C   0  0  2  0  0  3  0  0  0  0  0  0
  185.5970  177.6340  141.3060 C   0  0  2  0  0  3  0  0  0  0  0  0
  182.1890  178.5090  140.6170 C   0  0  0  0  0  3  0  0  0  0  0  0
  183.4640  177.9760  140.2770 N   0  0  0  0  0  2  0  0  0  0  0  0
  181.1420  177.9350  140.2210 O   0  0  0  0  0  0  0  0  0  0  0  0
  1 16  1  6  0  0  0
  1  3  1  0  0  0  0
  2  7  2  0  0  0  0
  3  5  2  0  0  0  0
  3  2  1  0  0  0  0
  4  6  1  0  0  0  0
  5 12  1  0  0  0  0
  6  2  1  0  0  0  0
  6  9  1  1  0  0  0
  8 22  1  6  0  0  0
  8  1  1  0  0  0  0
  8  4  1  0  0  0  0
  9 10  2  0  0  0  0
 12 15  1  0  0  0  0
 12 11  1  1  0  0  0
 13 15  2  0  0  0  0
 15 14  1  0  0  0  0
 18 21  1  0  0  0  0
 18 19  1  0  0  0  0
 19 16  1  6  0  0  0
 20 21  1  0  0  0  0
 21 17  1  0  0  0  0
 21 19  1  0  0  0  0
 23 24  1  0  0  0  0
 23 25  1  0  0  0  0
 24 27  1  6  0  0  0
 24 25  1  0  0  0  0
 25 22  1  1  0  0  0
 27 26  1  0  0  0  0
 28 26  2  0  0  0  0
M  END
>  <MODEL>
1

>  <REMARK>
 VINA RESULT:      -6.7      0.000      0.000
  Name = 
  8 active torsions:
  status: ('A' for Active; 'I' for Inactive)
    1  A    between atoms: C_1  and  C_19
    2  A    between atoms: C_2  and  C_3
    3  A    between atoms: C_2  and  C_17
    4  A    between atoms: C_11  and  N_24
    5  A    between atoms: C_14  and  C_16
    6  A    between atoms: C_16  and  C_20
    7  A    between atoms: N_22  and  C_26
    8  A    between atoms: N_22  and  C_27
                            x       y       z     vdW  Elec       q    Type
                         _______ _______ _______ _____ _____    ______ ____

>  <TORSDO>
F 8

$$$$
=
 OpenBabel11042414473D

 28 30  0  0  1  0  0  0  0  0999 V2000
  189.3720  177.7380  144.6250 C   0  0  2  0  0  3  0  0  0  0  0  0
  187.4600  176.5080  143.3640 C   0  0  0  0  0  0  0  0  0  0  0  0
  187.8970  177.5000  144.3860 C   0  0  0  0  0  0  0  0  0  0  0  0
  189.6690  176.8990  142.2560 C   0  0  0  0  0  2  0  0  0  0  0  0
  187.0350  178.2540  145.0860 C   0  0  0  0  0  3  0  0  0  0  0  0
  188.4230  176.0220  142.3130 C   0  0  2  0  0  3  0  0  0  0  0  0
  186.3060  176.0020  143.4150 O   0  0  0  0  0  0  0  0  0  0  0  0
  190.2910  176.9940  143.6420 C   0  0  1  0  0  3  0  0  0  0  0  0
  187.7660  175.9930  140.9680 C   0  0  0  0  0  3  0  0  0  0  0  0
  187.1650  177.0760  140.4780 C   0  0  0  0  0  2  0  0  0  0  0  0
  185.0250  179.6110  144.5960 C   0  0  0  0  0  1  0  0  0  0  0  0
  185.5450  178.2280  144.9480 C   0  0  2  0  0  3  0  0  0  0  0  0
  184.3520  178.6640  147.1040 O   0  0  0  0  0  1  0  0  0  0  0  0
  184.9140  176.5290  146.4910 O   0  0  0  0  0  0  0  0  0  0  0  0
  184.9220  177.7580  146.2180 C   0  0  0  0  0  0  0  0  0  0  0  0
  189.7350  177.3550  146.0560 C   0  0  0  0  0  2  0  0  0  0  0  0
  189.3380  173.6470  146.4880 O   0  0  0  0  0  1  0  0  0  0  0  0
  190.4680  175.5200  147.5730 C   0  0  0  0  0  2  0  0  0  0  0  0
  190.2490  175.9230  146.1140 C   0  0  1  0  0  3  0  0  0  0  0  0
  188.0420  175.5030  147.2400 O   0  0  0  0  0  1  0  0  0  0  0  0
  189.2750  175.0000  146.8180 C   0  0  0  0  0  0  0  0  0  0  0  0
  191.5720  177.6750  143.5510 N   0  0  0  0  0  2  0  0  0  0  0  0
  192.5730  175.5840  143.7830 O   0  0  0  0  0  0  0  0  0  0  0  0
  193.6280  176.5040  143.9190 C   0  0  2  0  0  3  0  0  0  0  0  0
  192.5150  176.7330  142.9740 C   0  0  2  0  0  3  0  0  0  0  0  0
  196.0950  176.3730  143.6240 C   0  0  0  0  0  3  0  0  0  0  0  0
  194.7860  176.0140  143.1980 N   0  0  0  0  0  2  0  0  0  0  0  0
  197.0990  175.9490  142.9970 O   0  0  0  0  0  0  0  0  0  0  0  0
  1 16  1  1  0  0  0
  2  7  2  0  0  0  0
  2  3  1  0  0  0  0
  3  1  1  0  0  0  0
  3  5  2  0  0  0  0
  4  6  1  0  0  0  0
  4  8  1  0  0  0  0
  6  9  1  6  0  0  0
  6  2  1  0  0  0  0
  8 22  1  6  0  0  0
  8  1  1  0  0  0  0
 10  9  2  0  0  0  0
 12 11  1  1  0  0  0
 12  5  1  0  0  0  0
 12 15  1  0  0  0  0
 15 14  2  0  0  0  0
 15 13  1  0  0  0  0
 17 21  1  0  0  0  0
 19 16  1  1  0  0  0
 19 21  1  0  0  0  0
 19 18  1  0  0  0  0
 21 20  1  0  0  0  0
 21 18  1  0  0  0  0
 23 24  1  0  0  0  0
 24 27  1  6  0  0  0
 25 22  1  1  0  0  0
 25 23  1  0  0  0  0
 25 24  1  0  0  0  0
 27 26  1  0  0  0  0
 28 26  2  0  0  0  0
M  END
>  <MODEL>
2

>  <REMARK>
 VINA RESULT:      -6.6      3.204      7.082
  Name = 
  8 active torsions:
  status: ('A' for Active; 'I' for Inactive)
    1  A    between atoms: C_1  and  C_19
    2  A    between atoms: C_2  and  C_3
    3  A    between atoms: C_2  and  C_17
    4  A    between atoms: C_11  and  N_24
    5  A    between atoms: C_14  and  C_16
    6  A    between atoms: C_16  and  C_20
    7  A    between atoms: N_22  and  C_26
    8  A    between atoms: N_22  and  C_27
                            x       y       z     vdW  Elec       q    Type
                         _______ _______ _______ _____ _____    ______ ____

>  <TORSDO>
F 8

$$$$
=
 OpenBabel11042414473D

 28 30  0  0  1  0  0  0  0  0999 V2000
  188.4960  177.7360  143.9870 C   0  0  2  0  0  3  0  0  0  0  0  0
  187.4170  176.6700  146.1000 C   0  0  0  0  0  0  0  0  0  0  0  0
  188.6060  177.2560  145.4180 C   0  0  0  0  0  0  0  0  0  0  0  0
  186.0290  177.9920  144.4920 C   0  0  0  0  0  2  0  0  0  0  0  0
  189.7830  177.4390  146.0350 C   0  0  0  0  0  3  0  0  0  0  0  0
  186.0360  176.8860  145.5420 C   0  0  2  0  0  3  0  0  0  0  0  0
  187.5610  175.9180  147.1020 O   0  0  0  0  0  0  0  0  0  0  0  0
  187.0670  177.6860  143.4210 C   0  0  1  0  0  3  0  0  0  0  0  0
  185.0720  177.2260  146.6370 C   0  0  0  0  0  3  0  0  0  0  0  0
  184.9130  178.4850  147.0410 C   0  0  0  0  0  2  0  0  0  0  0  0
  190.2590  178.3760  148.2750 C   0  0  0  0  0  1  0  0  0  0  0  0
  190.0790  177.1050  147.4640 C   0  0  2  0  0  3  0  0  0  0  0  0
  191.3660  175.1790  148.4120 O   0  0  0  0  0  1  0  0  0  0  0  0
  192.3050  176.5500  146.8340 O   0  0  0  0  0  0  0  0  0  0  0  0
  191.3090  176.2680  147.5490 C   0  0  0  0  0  0  0  0  0  0  0  0
  189.4280  176.9240  143.0940 C   0  0  0  0  0  2  0  0  0  0  0  0
  189.7830  173.3030  144.0170 O   0  0  0  0  0  1  0  0  0  0  0  0
  189.8380  174.7130  142.0230 C   0  0  0  0  0  2  0  0  0  0  0  0
  189.0100  175.4610  143.0710 C   0  0  1  0  0  3  0  0  0  0  0  0
  191.3510  175.0970  143.9100 O   0  0  0  0  0  1  0  0  0  0  0  0
  190.1410  174.5420  143.4880 C   0  0  0  0  0  0  0  0  0  0  0  0
  186.9330  178.6400  142.3320 N   0  0  0  0  0  2  0  0  0  0  0  0
  186.4480  176.6280  141.2620 O   0  0  0  0  0  0  0  0  0  0  0  0
  187.0270  177.4340  140.2660 C   0  0  2  0  0  3  0  0  0  0  0  0
  186.1360  177.9980  141.3010 C   0  0  2  0  0  3  0  0  0  0  0  0
  186.7020  176.2860  138.0820 C   0  0  0  0  0  3  0  0  0  0  0  0
  186.2920  177.2670  139.0280 N   0  0  0  0  0  2  0  0  0  0  0  0
  186.0650  176.1440  137.0080 O   0  0  0  0  0  0  0  0  0  0  0  0
  1 16  1  6  0  0  0
  1  3  1  0  0  0  0
  2  7  2  0  0  0  0
  3  5  2  0  0  0  0
  3  2  1  0  0  0  0
  4  6  1  0  0  0  0
  5 12  1  0  0  0  0
  6  2  1  0  0  0  0
  6  9  1  1  0  0  0
  8 22  1  6  0  0  0
  8  1  1  0  0  0  0
  8  4  1  0  0  0  0
  9 10  2  0  0  0  0
 12 15  1  0  0  0  0
 12 11  1  1  0  0  0
 14 15  2  0  0  0  0
 15 13  1  0  0  0  0
 18 19  1  0  0  0  0
 18 21  1  0  0  0  0
 19 16  1  6  0  0  0
 19 21  1  0  0  0  0
 21 20  1  0  0  0  0
 21 17  1  0  0  0  0
 23 25  1  0  0  0  0
 24 27  1  6  0  0  0
 24 23  1  0  0  0  0
 24 25  1  0  0  0  0
 25 22  1  1  0  0  0
 26 27  1  0  0  0  0
 28 26  2  0  0  0  0
M  END
>  <MODEL>
3

>  <REMARK>
 VINA RESULT:      -6.5      1.693      2.060
  Name = 
  8 active torsions:
  status: ('A' for Active; 'I' for Inactive)
    1  A    between atoms: C_1  and  C_19
    2  A    between atoms: C_2  and  C_3
    3  A    between atoms: C_2  and  C_17
    4  A    between atoms: C_11  and  N_24
    5  A    between atoms: C_14  and  C_16
    6  A    between atoms: C_16  and  C_20
    7  A    between atoms: N_22  and  C_26
    8  A    between atoms: N_22  and  C_27
                            x       y       z     vdW  Elec       q    Type
                         _______ _______ _______ _____ _____    ______ ____

>  <TORSDO>
F 8

$$$$
=
 OpenBabel11042414473D

 28 30  0  0  1  0  0  0  0  0999 V2000
  189.7210  177.2200  143.2200 C   0  0  2  0  0  3  0  0  0  0  0  0
  187.9280  175.4480  142.5820 C   0  0  0  0  0  0  0  0  0  0  0  0
  188.3050  176.8700  142.8180 C   0  0  0  0  0  0  0  0  0  0  0  0
  190.3490  175.0450  142.0900 C   0  0  0  0  0  2  0  0  0  0  0  0
  187.4530  177.8900  142.6340 C   0  0  0  0  0  3  0  0  0  0  0  0
  188.9920  174.4050  142.3650 C   0  0  2  0  0  3  0  0  0  0  0  0
  186.7220  175.0870  142.6430 O   0  0  0  0  0  0  0  0  0  0  0  0
  190.6870  176.0240  143.2050 C   0  0  1  0  0  3  0  0  0  0  0  0
  188.6220  173.5020  141.2290 C   0  0  0  0  0  3  0  0  0  0  0  0
  188.6890  173.9270  139.9690 C   0  0  0  0  0  2  0  0  0  0  0  0
  185.9350  178.1220  140.6940 C   0  0  0  0  0  1  0  0  0  0  0  0
  186.0360  177.7670  142.1670 C   0  0  2  0  0  3  0  0  0  0  0  0
  185.6800  179.7690  143.6270 O   0  0  0  0  0  1  0  0  0  0  0  0
  183.9230  178.4160  143.0510 O   0  0  0  0  0  0  0  0  0  0  0  0
  185.1540  178.6640  142.9690 C   0  0  0  0  0  0  0  0  0  0  0  0
  189.7240  177.8620  144.6040 C   0  0  0  0  0  2  0  0  0  0  0  0
  187.9930  175.6740  147.1140 O   0  0  0  0  0  1  0  0  0  0  0  0
  189.6440  177.4720  147.0630 C   0  0  0  0  0  2  0  0  0  0  0  0
  189.6830  176.7970  145.6900 C   0  0  1  0  0  3  0  0  0  0  0  0
  187.4020  177.7600  146.1200 O   0  0  0  0  0  1  0  0  0  0  0  0
  188.3970  176.8520  146.4900 C   0  0  0  0  0  0  0  0  0  0  0  0
  192.0530  176.4940  143.0370 N   0  0  0  0  0  2  0  0  0  0  0  0
  193.2740  176.7600  145.0030 O   0  0  0  0  0  0  0  0  0  0  0  0
  194.2250  176.3860  144.0370 C   0  0  2  0  0  3  0  0  0  0  0  0
  192.8600  175.8220  144.0410 C   0  0  2  0  0  3  0  0  0  0  0  0
  196.4760  175.3280  144.1170 C   0  0  0  0  0  3  0  0  0  0  0  0
  195.1480  175.4320  144.6190 N   0  0  0  0  0  2  0  0  0  0  0  0
  197.2750  174.4980  144.6220 O   0  0  0  0  0  0  0  0  0  0  0  0
  1 16  1  1  0  0  0
  2  7  2  0  0  0  0
  2  3  1  0  0  0  0
  3  1  1  0  0  0  0
  4  6  1  0  0  0  0
  4  8  1  0  0  0  0
  5  3  2  0  0  0  0
  6  9  1  6  0  0  0
  6  2  1  0  0  0  0
  8 22  1  6  0  0  0
  8  1  1  0  0  0  0
 10  9  2  0  0  0  0
 12 11  1  6  0  0  0
 12  5  1  0  0  0  0
 12 15  1  0  0  0  0
 15 14  2  0  0  0  0
 15 13  1  0  0  0  0
 19 16  1  6  0  0  0
 19 21  1  0  0  0  0
 19 18  1  0  0  0  0
 20 21  1  0  0  0  0
 21 18  1  0  0  0  0
 21 17  1  0  0  0  0
 24 25  1  0  0  0  0
 24 27  1  1  0  0  0
 24 23  1  0  0  0  0
 25 22  1  6  0  0  0
 25 23  1  0  0  0  0
 26 27  1  0  0  0  0
 26 28  2  0  0  0  0
M  END
>  <MODEL>
4

>  <REMARK>
 VINA RESULT:      -6.4      3.240      7.873
  Name = 
  8 active torsions:
  status: ('A' for Active; 'I' for Inactive)
    1  A    between atoms: C_1  and  C_19
    2  A    between atoms: C_2  and  C_3
    3  A    between atoms: C_2  and  C_17
    4  A    between atoms: C_11  and  N_24
    5  A    between atoms: C_14  and  C_16
    6  A    between atoms: C_16  and  C_20
    7  A    between atoms: N_22  and  C_26
    8  A    between atoms: N_22  and  C_27
                            x       y       z     vdW  Elec       q    Type
                         _______ _______ _______ _____ _____    ______ ____

>  <TORSDO>
F 8

$$$$
=
 OpenBabel11042414473D

 28 30  0  0  1  0  0  0  0  0999 V2000
  189.0420  177.3470  144.1750 C   0  0  2  0  0  3  0  0  0  0  0  0
  188.0820  175.3220  142.8570 C   0  0  0  0  0  0  0  0  0  0  0  0
  188.0520  176.7750  143.1840 C   0  0  0  0  0  0  0  0  0  0  0  0
  190.4880  175.3700  143.5410 C   0  0  0  0  0  2  0  0  0  0  0  0
  187.2130  177.6390  142.5920 C   0  0  0  0  0  3  0  0  0  0  0  0
  189.2920  174.4910  143.1910 C   0  0  2  0  0  3  0  0  0  0  0  0
  187.0650  174.7540  142.3740 O   0  0  0  0  0  0  0  0  0  0  0  0
  190.1020  176.3390  144.6490 C   0  0  1  0  0  3  0  0  0  0  0  0
  189.6460  173.5910  142.0470 C   0  0  0  0  0  3  0  0  0  0  0  0
  189.4540  172.2760  142.1270 C   0  0  0  0  0  2  0  0  0  0  0  0
  186.7990  177.5340  140.1550 C   0  0  0  0  0  1  0  0  0  0  0  0
  186.2110  177.2930  141.5350 C   0  0  2  0  0  3  0  0  0  0  0  0
  184.3260  178.6570  140.6120 O   0  0  0  0  0  0  0  0  0  0  0  0
  184.5230  178.3090  142.8690 O   0  0  0  0  0  1  0  0  0  0  0  0
  184.9770  178.1110  141.7130 C   0  0  0  0  0  0  0  0  0  0  0  0
  188.3010  177.9150  145.3810 C   0  0  0  0  0  2  0  0  0  0  0  0
  184.8200  176.7640  146.1850 O   0  0  0  0  0  1  0  0  0  0  0  0
  186.9090  177.2700  147.3440 C   0  0  0  0  0  2  0  0  0  0  0  0
  187.2790  176.9150  145.9020 C   0  0  1  0  0  3  0  0  0  0  0  0
  185.7810  178.9330  145.9430 O   0  0  0  0  0  1  0  0  0  0  0  0
  185.9520  177.5750  146.2220 C   0  0  0  0  0  0  0  0  0  0  0  0
  191.2880  177.0470  145.1060 N   0  0  0  0  0  2  0  0  0  0  0  0
  193.0850  176.2390  146.3490 O   0  0  0  0  0  0  0  0  0  0  0  0
  193.6660  176.7870  145.1920 C   0  0  2  0  0  3  0  0  0  0  0  0
  192.3700  176.0790  145.1490 C   0  0  2  0  0  3  0  0  0  0  0  0
  195.7670  176.4200  143.9090 C   0  0  0  0  0  3  0  0  0  0  0  0
  194.7180  175.9060  144.7230 N   0  0  0  0  0  2  0  0  0  0  0  0
  196.6770  175.6540  143.5010 O   0  0  0  0  0  0  0  0  0  0  0  0
  1  8  1  0  0  0  0
  1 16  1  1  0  0  0
  2  3  1  0  0  0  0
  2  6  1  0  0  0  0
  3  1  1  0  0  0  0
  4  8  1  0  0  0  0
  5  3  2  0  0  0  0
  6  9  1  6  0  0  0
  6  4  1  0  0  0  0
  7  2  2  0  0  0  0
  8 22  1  6  0  0  0
  9 10  2  0  0  0  0
 12 11  1  6  0  0  0
 12 15  1  0  0  0  0
 12  5  1  0  0  0  0
 13 15  2  0  0  0  0
 15 14  1  0  0  0  0
 17 21  1  0  0  0  0
 19 16  1  6  0  0  0
 19 21  1  0  0  0  0
 19 18  1  0  0  0  0
 20 21  1  0  0  0  0
 21 18  1  0  0  0  0
 24 27  1  6  0  0  0
 24 23  1  0  0  0  0
 25 22  1  1  0  0  0
 25 24  1  0  0  0  0
 25 23  1  0  0  0  0
 26 27  1  0  0  0  0
 28 26  2  0  0  0  0
M  END
>  <MODEL>
5

>  <REMARK>
 VINA RESULT:      -6.2      2.997      7.933
  Name = 
  8 active torsions:
  status: ('A' for Active; 'I' for Inactive)
    1  A    between atoms: C_1  and  C_19
    2  A    between atoms: C_2  and  C_3
    3  A    between atoms: C_2  and  C_17
    4  A    between atoms: C_11  and  N_24
    5  A    between atoms: C_14  and  C_16
    6  A    between atoms: C_16  and  C_20
    7  A    between atoms: N_22  and  C_26
    8  A    between atoms: N_22  and  C_27
                            x       y       z     vdW  Elec       q    Type
                         _______ _______ _______ _____ _____    ______ ____

>  <TORSDO>
F 8

$$$$
=
 OpenBabel11042414473D

 28 30  0  0  1  0  0  0  0  0999 V2000
  189.4820  176.8560  144.7330 C   0  0  2  0  0  3  0  0  0  0  0  0
  187.2800  176.4210  143.4210 C   0  0  0  0  0  0  0  0  0  0  0  0
  187.9850  177.0230  144.5870 C   0  0  0  0  0  0  0  0  0  0  0  0
  189.4730  176.5410  142.2220 C   0  0  0  0  0  2  0  0  0  0  0  0
  187.3610  177.7720  145.5090 C   0  0  0  0  0  3  0  0  0  0  0  0
  188.0540  175.9830  142.2050 C   0  0  2  0  0  3  0  0  0  0  0  0
  186.0400  176.1940  143.4700 O   0  0  0  0  0  0  0  0  0  0  0  0
  190.1520  176.1680  143.5320 C   0  0  1  0  0  3  0  0  0  0  0  0
  187.3570  176.4160  140.9530 C   0  0  0  0  0  3  0  0  0  0  0  0
  187.1230  177.7050  140.7110 C   0  0  0  0  0  2  0  0  0  0  0  0
  185.6880  179.4700  144.8450 C   0  0  0  0  0  1  0  0  0  0  0  0
  185.9050  178.1200  145.5080 C   0  0  2  0  0  3  0  0  0  0  0  0
  186.2460  177.9740  147.9830 O   0  0  0  0  0  1  0  0  0  0  0  0
  184.1580  178.3320  147.1100 O   0  0  0  0  0  0  0  0  0  0  0  0
  185.3860  178.1490  146.9050 C   0  0  0  0  0  0  0  0  0  0  0  0
  189.7960  176.0800  146.0080 C   0  0  0  0  0  2  0  0  0  0  0  0
  193.3370  176.6450  147.1170 O   0  0  0  0  0  1  0  0  0  0  0  0
  191.1920  175.9700  148.0680 C   0  0  0  0  0  2  0  0  0  0  0  0
  190.8810  176.7840  146.8110 C   0  0  1  0  0  3  0  0  0  0  0  0
  192.2180  174.7420  146.2140 O   0  0  0  0  0  1  0  0  0  0  0  0
  192.1460  175.9550  146.9030 C   0  0  0  0  0  0  0  0  0  0  0  0
  191.5570  176.5410  143.4700 N   0  0  0  0  0  2  0  0  0  0  0  0
  193.1990  174.9480  143.0310 O   0  0  0  0  0  0  0  0  0  0  0  0
  193.5940  176.0810  142.3000 C   0  0  2  0  0  3  0  0  0  0  0  0
  192.1720  175.7100  142.4490 C   0  0  2  0  0  3  0  0  0  0  0  0
  195.4550  175.7710  140.6770 C   0  0  0  0  0  3  0  0  0  0  0  0
  194.0720  175.6660  140.9960 N   0  0  0  0  0  2  0  0  0  0  0  0
  195.8680  175.4120  139.5440 O   0  0  0  0  0  0  0  0  0  0  0  0
  1 16  1  1  0  0  0
  2  7  2  0  0  0  0
  2  3  1  0  0  0  0
  3  1  1  0  0  0  0
  3  5  2  0  0  0  0
  4  8  1  0  0  0  0
  6  9  1  6  0  0  0
  6  4  1  0  0  0  0
  6  2  1  0  0  0  0
  8 22  1  6  0  0  0
  8  1  1  0  0  0  0
 10  9  2  0  0  0  0
 12 11  1  1  0  0  0
 12  5  1  0  0  0  0
 12 15  1  0  0  0  0
 15 14  2  0  0  0  0
 15 13  1  0  0  0  0
 19 16  1  6  0  0  0
 19 21  1  0  0  0  0
 19 18  1  0  0  0  0
 20 21  1  0  0  0  0
 21 17  1  0  0  0  0
 21 18  1  0  0  0  0
 24 27  1  6  0  0  0
 24 25  1  0  0  0  0
 24 23  1  0  0  0  0
 25 23  1  0  0  0  0
 25 22  1  1  0  0  0
 26 27  1  0  0  0  0
 28 26  2  0  0  0  0
M  END
>  <MODEL>
6

>  <REMARK>
 VINA RESULT:      -6.1      3.178      6.903
  Name = 
  8 active torsions:
  status: ('A' for Active; 'I' for Inactive)
    1  A    between atoms: C_1  and  C_19
    2  A    between atoms: C_2  and  C_3
    3  A    between atoms: C_2  and  C_17
    4  A    between atoms: C_11  and  N_24
    5  A    between atoms: C_14  and  C_16
    6  A    between atoms: C_16  and  C_20
    7  A    between atoms: N_22  and  C_26
    8  A    between atoms: N_22  and  C_27
                            x       y       z     vdW  Elec       q    Type
                         _______ _______ _______ _____ _____    ______ ____

>  <TORSDO>
F 8

$$$$
=
 OpenBabel11042414473D

 28 30  0  0  1  0  0  0  0  0999 V2000
  188.6770  175.5260  145.7830 C   0  0  2  0  0  3  0  0  0  0  0  0
  189.6440  176.1740  143.4590 C   0  0  0  0  0  0  0  0  0  0  0  0
  189.2840  175.1270  144.4560 C   0  0  0  0  0  0  0  0  0  0  0  0
  187.9190  177.6100  144.5650 C   0  0  0  0  0  2  0  0  0  0  0  0
  189.4190  173.8140  144.2150 C   0  0  0  0  0  3  0  0  0  0  0  0
  189.0810  177.5660  143.5780 C   0  0  2  0  0  3  0  0  0  0  0  0
  190.4880  175.9330  142.5540 O   0  0  0  0  0  0  0  0  0  0  0  0
  188.3610  177.0260  145.8990 C   0  0  1  0  0  3  0  0  0  0  0  0
  188.6250  178.0660  142.2420 C   0  0  0  0  0  3  0  0  0  0  0  0
  187.4520  177.6900  141.7350 C   0  0  0  0  0  2  0  0  0  0  0  0
  188.7700  172.9140  142.0040 C   0  0  0  0  0  1  0  0  0  0  0  0
  189.9260  173.2100  142.9430 C   0  0  2  0  0  3  0  0  0  0  0  0
  190.5810  170.8580  142.3890 O   0  0  0  0  0  0  0  0  0  0  0  0
  191.4030  171.8910  144.2620 O   0  0  0  0  0  1  0  0  0  0  0  0
  190.6770  171.9560  143.2370 C   0  0  0  0  0  0  0  0  0  0  0  0
  189.6000  175.1080  146.9230 C   0  0  0  0  0  2  0  0  0  0  0  0
  192.9390  176.7910  146.6030 O   0  0  0  0  0  1  0  0  0  0  0  0
  191.5660  175.7280  148.3210 C   0  0  0  0  0  2  0  0  0  0  0  0
  190.6120  176.2040  147.2240 C   0  0  1  0  0  3  0  0  0  0  0  0
  192.2400  174.5320  146.2920 O   0  0  0  0  0  1  0  0  0  0  0  0
  192.0270  175.7770  146.8880 C   0  0  0  0  0  0  0  0  0  0  0  0
  187.3150  177.2360  146.8880 N   0  0  0  0  0  2  0  0  0  0  0  0
  185.7280  178.8470  147.4460 O   0  0  0  0  0  0  0  0  0  0  0  0
  185.0420  177.9390  146.6210 C   0  0  2  0  0  3  0  0  0  0  0  0
  186.4560  178.2920  146.3800 C   0  0  2  0  0  3  0  0  0  0  0  0
  184.2510  178.4020  144.3080 C   0  0  0  0  0  3  0  0  0  0  0  0
  184.1930  178.6720  145.7040 N   0  0  0  0  0  2  0  0  0  0  0  0
  183.5150  179.0410  143.5130 O   0  0  0  0  0  0  0  0  0  0  0  0
  1  8  1  0  0  0  0
  1 16  1  1  0  0  0
  2  6  1  0  0  0  0
  2  3  1  0  0  0  0
  3  1  1  0  0  0  0
  4  8  1  0  0  0  0
  5  3  2  0  0  0  0
  6  9  1  6  0  0  0
  6  4  1  0  0  0  0
  7  2  2  0  0  0  0
  8 22  1  1  0  0  0
 10  9  2  0  0  0  0
 12 11  1  6  0  0  0
 12 15  1  0  0  0  0
 12  5  1  0  0  0  0
 13 15  2  0  0  0  0
 15 14  1  0  0  0  0
 17 21  1  0  0  0  0
 19 16  1  6  0  0  0
 19 18  1  0  0  0  0
 20 21  1  0  0  0  0
 21 19  1  0  0  0  0
 21 18  1  0  0  0  0
 24 27  1  6  0  0  0
 24 23  1  0  0  0  0
 25 24  1  0  0  0  0
 25 22  1  1  0  0  0
 25 23  1  0  0  0  0
 26 27  1  0  0  0  0
 28 26  2  0  0  0  0
M  END
>  <MODEL>
7

>  <REMARK>
 VINA RESULT:      -6.1      2.488      5.359
  Name = 
  8 active torsions:
  status: ('A' for Active; 'I' for Inactive)
    1  A    between atoms: C_1  and  C_19
    2  A    between atoms: C_2  and  C_3
    3  A    between atoms: C_2  and  C_17
    4  A    between atoms: C_11  and  N_24
    5  A    between atoms: C_14  and  C_16
    6  A    between atoms: C_16  and  C_20
    7  A    between atoms: N_22  and  C_26
    8  A    between atoms: N_22  and  C_27
                            x       y       z     vdW  Elec       q    Type
                         _______ _______ _______ _____ _____    ______ ____

>  <TORSDO>
F 8

$$$$
=
 OpenBabel11042414473D

 28 30  0  0  1  0  0  0  0  0999 V2000
  187.3110  176.0430  143.4930 C   0  0  2  0  0  3  0  0  0  0  0  0
  189.0010  176.6260  145.3820 C   0  0  0  0  0  0  0  0  0  0  0  0
  187.6140  176.6690  144.8370 C   0  0  0  0  0  0  0  0  0  0  0  0
  189.3410  174.6030  143.9490 C   0  0  0  0  0  2  0  0  0  0  0  0
  186.5810  177.1940  145.5130 C   0  0  0  0  0  3  0  0  0  0  0  0
  190.0110  175.6620  144.8180 C   0  0  2  0  0  3  0  0  0  0  0  0
  189.3680  177.4510  146.2610 O   0  0  0  0  0  0  0  0  0  0  0  0
  188.4960  175.2790  142.8790 C   0  0  1  0  0  3  0  0  0  0  0  0
  190.7780  174.9980  145.9190 C   0  0  0  0  0  3  0  0  0  0  0  0
  192.0910  175.1820  146.0460 C   0  0  0  0  0  2  0  0  0  0  0  0
  186.3030  176.7510  147.9310 C   0  0  0  0  0  1  0  0  0  0  0  0
  186.6520  177.7930  146.8830 C   0  0  2  0  0  3  0  0  0  0  0  0
  184.6010  179.0320  146.1590 O   0  0  0  0  0  0  0  0  0  0  0  0
  185.9420  179.8620  147.8220 O   0  0  0  0  0  1  0  0  0  0  0  0
  185.7170  178.9500  146.9840 C   0  0  0  0  0  0  0  0  0  0  0  0
  186.8320  177.1130  142.5180 C   0  0  0  0  0  2  0  0  0  0  0  0
  183.3630  177.9130  141.3270 O   0  0  0  0  0  1  0  0  0  0  0  0
  185.1150  178.9090  142.7060 C   0  0  0  0  0  2  0  0  0  0  0  0
  185.3500  177.3960  142.7180 C   0  0  1  0  0  3  0  0  0  0  0  0
  185.5180  178.2830  140.3720 O   0  0  0  0  0  1  0  0  0  0  0  0
  184.7350  178.0760  141.5110 C   0  0  0  0  0  0  0  0  0  0  0  0
  188.0090  174.2780  141.9450 N   0  0  0  0  0  2  0  0  0  0  0  0
  188.5530  174.4230  139.6840 O   0  0  0  0  0  0  0  0  0  0  0  0
  188.6210  173.0500  139.9820 C   0  0  2  0  0  3  0  0  0  0  0  0
  189.0510  174.0780  140.9530 C   0  0  2  0  0  3  0  0  0  0  0  0
  189.6770  171.2320  138.6510 C   0  0  0  0  0  3  0  0  0  0  0  0
  189.7830  172.4770  139.3330 N   0  0  0  0  0  2  0  0  0  0  0  0
  190.6860  170.7350  138.0900 O   0  0  0  0  0  0  0  0  0  0  0  0
  1 16  1  6  0  0  0
  1  3  1  0  0  0  0
  2  7  2  0  0  0  0
  3  2  1  0  0  0  0
  3  5  2  0  0  0  0
  4  6  1  0  0  0  0
  5 12  1  0  0  0  0
  6  2  1  0  0  0  0
  6  9  1  1  0  0  0
  8 22  1  6  0  0  0
  8  1  1  0  0  0  0
  8  4  1  0  0  0  0
  9 10  2  0  0  0  0
 12 15  1  0  0  0  0
 12 11  1  1  0  0  0
 13 15  2  0  0  0  0
 15 14  1  0  0  0  0
 17 21  1  0  0  0  0
 18 19  1  0  0  0  0
 19 16  1  6  0  0  0
 20 21  1  0  0  0  0
 21 18  1  0  0  0  0
 21 19  1  0  0  0  0
 23 24  1  0  0  0  0
 23 25  1  0  0  0  0
 24 27  1  6  0  0  0
 24 25  1  0  0  0  0
 25 22  1  1  0  0  0
 26 27  1  0  0  0  0
 28 26  2  0  0  0  0
M  END
>  <MODEL>
8

>  <REMARK>
 VINA RESULT:      -5.8      2.791      5.937
  Name = 
  8 active torsions:
  status: ('A' for Active; 'I' for Inactive)
    1  A    between atoms: C_1  and  C_19
    2  A    between atoms: C_2  and  C_3
    3  A    between atoms: C_2  and  C_17
    4  A    between atoms: C_11  and  N_24
    5  A    between atoms: C_14  and  C_16
    6  A    between atoms: C_16  and  C_20
    7  A    between atoms: N_22  and  C_26
    8  A    between atoms: N_22  and  C_27
                            x       y       z     vdW  Elec       q    Type
                         _______ _______ _______ _____ _____    ______ ____

>  <TORSDO>
F 8

$$$$
=
 OpenBabel11042414473D

 28 30  0  0  1  0  0  0  0  0999 V2000
  189.1380  176.9190  143.8760 C   0  0  2  0  0  3  0  0  0  0  0  0
  189.3490  177.4650  146.4100 C   0  0  0  0  0  0  0  0  0  0  0  0
  188.4960  177.2280  145.2110 C   0  0  0  0  0  0  0  0  0  0  0  0
  191.0950  176.0960  145.2530 C   0  0  0  0  0  2  0  0  0  0  0  0
  187.1550  177.2160  145.2600 C   0  0  0  0  0  3  0  0  0  0  0  0
  190.7930  177.0390  146.4130 C   0  0  2  0  0  3  0  0  0  0  0  0
  188.8960  178.0980  147.4010 O   0  0  0  0  0  0  0  0  0  0  0  0
  190.6640  176.7430  143.9440 C   0  0  1  0  0  3  0  0  0  0  0  0
  191.1420  176.3720  147.7070 C   0  0  0  0  0  3  0  0  0  0  0  0
  191.1960  175.0440  147.8000 C   0  0  0  0  0  2  0  0  0  0  0  0
  185.1920  176.4150  146.5360 C   0  0  0  0  0  1  0  0  0  0  0  0
  186.3280  177.4220  146.4910 C   0  0  2  0  0  3  0  0  0  0  0  0
  185.9400  179.6150  147.6340 O   0  0  0  0  0  1  0  0  0  0  0  0
  185.1670  179.2520  145.5080 O   0  0  0  0  0  0  0  0  0  0  0  0
  185.7800  178.8090  146.5130 C   0  0  0  0  0  0  0  0  0  0  0  0
  188.7940  178.0120  142.8690 C   0  0  0  0  0  2  0  0  0  0  0  0
  186.3170  177.8880  140.0520 O   0  0  0  0  0  1  0  0  0  0  0  0
  186.9730  176.5570  141.9910 C   0  0  0  0  0  2  0  0  0  0  0  0
  188.1850  177.4100  141.6110 C   0  0  1  0  0  3  0  0  0  0  0  0
  186.2410  178.8840  142.2180 O   0  0  0  0  0  1  0  0  0  0  0  0
  186.7760  177.9130  141.3670 C   0  0  0  0  0  0  0  0  0  0  0  0
  191.1180  175.9270  142.8300 N   0  0  0  0  0  2  0  0  0  0  0  0
  190.9230  173.6210  142.5570 O   0  0  0  0  0  0  0  0  0  0  0  0
  190.3530  174.1700  141.3950 C   0  0  2  0  0  3  0  0  0  0  0  0
  190.1930  174.8120  142.7160 C   0  0  2  0  0  3  0  0  0  0  0  0
  188.8630  173.1130  139.7040 C   0  0  0  0  0  3  0  0  0  0  0  0
  189.1480  173.4360  141.0610 N   0  0  0  0  0  2  0  0  0  0  0  0
  187.8160  172.4790  139.4160 O   0  0  0  0  0  0  0  0  0  0  0  0
  1 16  1  6  0  0  0
  1  8  1  0  0  0  0
  1  3  1  0  0  0  0
  2  6  1  0  0  0  0
  2  7  2  0  0  0  0
  3  5  2  0  0  0  0
  3  2  1  0  0  0  0
  4  6  1  0  0  0  0
  5 12  1  0  0  0  0
  6  9  1  1  0  0  0
  8 22  1  6  0  0  0
  8  4  1  0  0  0  0
  9 10  2  0  0  0  0
 12 15  1  0  0  0  0
 12 11  1  6  0  0  0
 14 15  2  0  0  0  0
 15 13  1  0  0  0  0
 17 21  1  0  0  0  0
 19 18  1  0  0  0  0
 19 16  1  1  0  0  0
 21 19  1  0  0  0  0
 21 18  1  0  0  0  0
 21 20  1  0  0  0  0
 23 25  1  0  0  0  0
 24 27  1  1  0  0  0
 24 23  1  0  0  0  0
 24 25  1  0  0  0  0
 25 22  1  6  0  0  0
 26 27  1  0  0  0  0
 28 26  2  0  0  0  0
M  END
>  <MODEL>
9

>  <REMARK>
 VINA RESULT:      -5.8      2.722      5.537
  Name = 
  8 active torsions:
  status: ('A' for Active; 'I' for Inactive)
    1  A    between atoms: C_1  and  C_19
    2  A    between atoms: C_2  and  C_3
    3  A    between atoms: C_2  and  C_17
    4  A    between atoms: C_11  and  N_24
    5  A    between atoms: C_14  and  C_16
    6  A    between atoms: C_16  and  C_20
    7  A    between atoms: N_22  and  C_26
    8  A    between atoms: N_22  and  C_27
                            x       y       z     vdW  Elec       q    Type
                         _______ _______ _______ _____ _____    ______ ____

>  <TORSDO>
F 8

$$$$
