=
 OpenBabel11042418393D

 67 76  0  0  1  0  0  0  0  0999 V2000
  191.7130  169.5580  136.8910 C   0  0  0  0  0  0  0  0  0  0  0  0
  188.9610  175.4850  142.8260 C   0  0  2  0  0  3  0  0  0  0  0  0
  194.7920  170.4910  136.5850 C   0  0  1  0  0  3  0  0  0  0  0  0
  191.8980  171.4940  139.8300 C   0  0  0  0  0  3  0  0  0  0  0  0
  194.9590  171.7750  138.7740 C   0  0  0  0  0  2  0  0  0  0  0  0
  192.5270  170.6190  137.5890 C   0  0  1  0  0  3  0  0  0  0  0  0
  188.0220  174.1190  139.5250 C   0  0  0  0  0  2  0  0  0  0  0  0
  194.5790  172.3650  143.1670 C   0  0  1  0  0  3  0  0  0  0  0  0
  189.7850  171.1410  136.6650 C   0  0  0  0  0  2  0  0  0  0  0  0
  195.5520  170.7370  135.2950 C   0  0  0  0  0  2  0  0  0  0  0  0
  190.8930  173.9700  143.6460 C   0  0  1  0  0  3  0  0  0  0  0  0
  197.1820  171.9570  139.5830 C   0  0  0  0  0  2  0  0  0  0  0  0
  194.7620  171.8330  137.2630 C   0  0  2  0  0  0  0  0  0  0  0  0
  186.9130  176.7410  142.1030 C   0  0  1  0  0  3  0  0  0  0  0  0
  190.4990  171.6170  143.4670 O   0  0  0  0  0  1  0  0  0  0  0  0
  195.0780  171.2850  142.2090 C   0  0  0  0  0  2  0  0  0  0  0  0
  190.3650  169.8190  136.4950 N   0  0  0  0  0  2  0  0  0  0  0  0
  187.5770  175.9970  143.2510 C   0  0  0  0  0  2  0  0  0  0  0  0
  193.5030  173.2380  142.5100 C   0  0  2  0  0  3  0  0  0  0  0  0
  196.1570  171.0210  139.1270 N   0  0  0  0  0  2  0  0  0  0  0  0
  196.5750  171.4360  141.9950 C   0  0  0  0  0  2  0  0  0  0  0  0
  190.9180  172.7370  142.7480 C   0  0  2  0  0  3  0  0  0  0  0  0
  192.0890  172.5720  140.5910 C   0  0  0  0  0  3  0  0  0  0  0  0
  190.2110  171.6920  137.9820 C   0  0  0  0  0  0  0  0  0  0  0  0
  191.8560  175.0460  143.1730 C   0  0  0  0  0  2  0  0  0  0  0  0
  189.0820  175.0100  141.4860 O   0  0  0  0  0  0  0  0  0  0  0  0
  196.2820  171.9920  135.4130 N   0  0  0  0  0  2  0  0  0  0  0  0
  193.4920  171.2910  136.6100 C   0  0  1  0  0  3  0  0  0  0  0  0
  188.4020  172.6830  139.5860 C   0  0  0  0  0  3  0  0  0  0  0  0
  193.2610  174.5050  143.3350 C   0  0  0  0  0  2  0  0  0  0  0  0
  192.2610  172.4340  142.0630 C   0  0  1  0  0  3  0  0  0  0  0  0
  196.8500  172.5350  140.9650 C   0  0  1  0  0  3  0  0  0  0  0  0
  192.2280  168.4370  136.6370 O   0  0  0  0  0  0  0  0  0  0  0  0
  187.8270  174.6830  140.9240 C   0  0  1  0  0  3  0  0  0  0  0  0
  195.6030  172.7750  136.4370 C   0  0  0  0  0  2  0  0  0  0  0  0
  186.9360  175.9220  140.8080 C   0  0  0  0  0  2  0  0  0  0  0  0
  191.6830  171.6630  138.3570 C   0  0  1  0  0  3  0  0  0  0  0  0
  189.3080  172.2070  138.7780 C   0  0  0  0  0  0  0  0  0  0  0  0
  189.4620  174.4700  143.8530 C   0  0  0  0  0  2  0  0  0  0  0  0
  185.7460  175.4490  144.7120 O   0  0  0  0  0  0  0  0  0  0  0  0
  185.4340  177.6220  143.8920 N   0  0  0  0  0  0  0  0  0  0  0  0
  184.9180  178.2250  141.5360 C   0  0  0  0  0  2  0  0  0  0  0  0
  185.5150  176.6660  144.9660 C   0  0  0  0  0  0  0  0  0  0  0  0
  183.9310  179.5370  143.4540 C   0  0  0  0  0  2  0  0  0  0  0  0
  183.6460  178.8000  142.1410 C   0  0  0  0  0  2  0  0  0  0  0  0
  185.4970  177.1740  142.4920 C   0  0  1  0  0  3  0  0  0  0  0  0
  185.1850  179.0350  144.1840 C   0  0  0  0  0  2  0  0  0  0  0  0
  186.6130  177.5660  147.0050 C   0  0  1  0  0  3  0  0  0  0  0  0
  186.1000  176.2750  147.2280 O   0  0  0  0  0  0  0  0  0  0  0  0
  185.3390  177.1120  146.3870 C   0  0  2  0  0  3  0  0  0  0  0  0
  186.3450  179.8820  147.8100 C   0  0  0  0  0  2  0  0  0  0  0  0
  187.5320  179.2770  148.5290 C   0  0  0  0  0  2  0  0  0  0  0  0
  186.3220  178.4240  148.2160 C   0  0  0  0  0  3  0  0  0  0  0  0
  197.9380  173.5190  141.4150 C   0  0  1  0  0  3  0  0  0  0  0  0
  197.9410  174.7340  140.5030 C   0  0  0  0  0  1  0  0  0  0  0  0
  197.8000  173.9680  142.8690 C   0  0  0  0  0  2  0  0  0  0  0  0
  197.5360  175.4600  142.9620 C   0  0  0  0  0  2  0  0  0  0  0  0
  196.2430  177.2030  144.1380 C   0  0  0  0  0  1  0  0  0  0  0  0
  196.3830  175.7120  143.9060 C   0  0  0  0  0  2  0  0  0  0  0  0
  194.1030  171.7600  144.4880 C   0  0  0  0  0  2  0  0  0  0  0  0
  194.9880  172.2120  145.6300 C   0  0  0  0  0  2  0  0  0  0  0  0
  196.3120  172.2990  145.1970 O   0  0  0  0  0  0  0  0  0  0  0  0
  197.0390  171.5500  146.1250 C   0  0  0  0  0  2  0  0  0  0  0  0
  196.3750  170.2000  146.3510 C   0  0  0  0  0  2  0  0  0  0  0  0
  196.3550  169.4800  145.1550 O   0  0  0  0  0  0  0  0  0  0  0  0
  194.7220  168.4890  146.5680 C   0  0  0  0  0  1  0  0  0  0  0  0
  195.7560  168.2640  145.4810 C   0  0  0  0  0  2  0  0  0  0  0  0
  2 18  1  1  0  0  0
  2 39  1  0  0  0  0
  3 10  1  6  0  0  0
  3 28  1  0  0  0  0
  3 13  1  0  0  0  0
  4 23  2  0  0  0  0
  5 20  1  0  0  0  0
  6  1  1  6  0  0  0
  6 37  1  0  0  0  0
  7 29  1  0  0  0  0
  7 34  1  0  0  0  0
  8 60  1  1  0  0  0
  9 24  1  0  0  0  0
 10 27  1  0  0  0  0
 11 25  1  6  0  0  0
 11 39  1  0  0  0  0
 12 32  1  0  0  0  0
 13 35  1  6  0  0  0
 13  5  1  0  0  0  0
 14 36  1  6  0  0  0
 14 46  1  0  0  0  0
 14 18  1  0  0  0  0
 16  8  1  0  0  0  0
 17  9  1  0  0  0  0
 17  1  1  0  0  0  0
 19  8  1  0  0  0  0
 19 30  1  1  0  0  0
 20 12  1  0  0  0  0
 21 16  1  0  0  0  0
 22 15  1  1  0  0  0
 22 11  1  0  0  0  0
 23 31  1  0  0  0  0
 24 37  1  0  0  0  0
 24 38  2  0  0  0  0
 25 30  1  0  0  0  0
 26  2  1  0  0  0  0
 27 35  1  0  0  0  0
 28 13  1  0  0  0  0
 28  6  1  0  0  0  0
 31 19  1  0  0  0  0
 31 22  1  0  0  0  0
 32 54  1  0  0  0  0
 32 21  1  0  0  0  0
 33  1  2  0  0  0  0
 34 26  1  0  0  0  0
 36 34  1  0  0  0  0
 37  4  1  0  0  0  0
 38 29  2  0  0  0  0
 40 43  2  0  0  0  0
 41 47  1  0  0  0  0
 41 43  1  0  0  0  0
 42 45  1  0  0  0  0
 42 46  1  0  0  0  0
 43 50  1  0  0  0  0
 44 47  1  0  0  0  0
 45 44  1  0  0  0  0
 46 41  1  0  0  0  0
 48 49  1  0  0  0  0
 48 53  1  0  0  0  0
 50 48  1  0  0  0  0
 50 49  1  0  0  0  0
 51 53  1  0  0  0  0
 51 52  1  0  0  0  0
 53 52  1  0  0  0  0
 54 56  1  0  0  0  0
 55 54  1  0  0  0  0
 56 57  1  0  0  0  0
 57 59  1  0  0  0  0
 59 58  1  0  0  0  0
 60 61  1  0  0  0  0
 62 61  1  0  0  0  0
 62 63  1  0  0  0  0
 63 64  1  0  0  0  0
 65 67  1  0  0  0  0
 65 64  1  0  0  0  0
 67 66  1  0  0  0  0
M  END
>  <MODEL>
1

>  <REMARK>
 VINA RESULT:      -5.4      0.000      0.000
  Name = 
  14 active torsions:
  status: ('A' for Active; 'I' for Inactive)
    1  A    between atoms: C_1  and  C_49
    2  A    between atoms: C_1  and  C_54
    3  A    between atoms: C_4  and  O_19
    4  A    between atoms: C_4  and  C_51
    5  A    between atoms: C_13  and  C_28
    6  A    between atoms: O_18  and  C_38
    7  A    between atoms: O_18  and  C_51
    8  A    between atoms: O_19  and  C_20
    9  A    between atoms: C_20  and  C_28
   10  A    between atoms: C_23  and  C_46
   11  A    between atoms: C_25  and  C_64
   12  A    between atoms: C_37  and  C_59
   13  A    between atoms: C_49  and  C_53
   14  A    between atoms: C_53  and  C_65
                            x       y       z     vdW  Elec       q    Type
                         _______ _______ _______ _____ _____    ______ ____

>  <TORSDO>
F 14

$$$$
=
 OpenBabel11042418393D

 67 76  0  0  1  0  0  0  0  0999 V2000
  196.7500  173.5180  145.4060 C   0  0  0  0  0  0  0  0  0  0  0  0
  188.3610  175.7190  143.7660 C   0  0  2  0  0  3  0  0  0  0  0  0
  196.6910  170.4270  144.4640 C   0  0  1  0  0  3  0  0  0  0  0  0
  193.7700  173.6680  143.5290 C   0  0  0  0  0  3  0  0  0  0  0  0
  194.6150  170.5750  143.0030 C   0  0  0  0  0  2  0  0  0  0  0  0
  195.6730  172.6680  144.7780 C   0  0  1  0  0  3  0  0  0  0  0  0
  190.8600  175.8650  146.4810 C   0  0  0  0  0  2  0  0  0  0  0  0
  192.0310  172.2380  139.7870 C   0  0  1  0  0  3  0  0  0  0  0  0
  195.0960  174.4780  147.0220 C   0  0  0  0  0  2  0  0  0  0  0  0
  197.2140  169.2250  145.2290 C   0  0  0  0  0  2  0  0  0  0  0  0
  189.6870  174.9410  141.6830 C   0  0  1  0  0  3  0  0  0  0  0  0
  194.5300  168.8980  141.3270 C   0  0  0  0  0  2  0  0  0  0  0  0
  195.2120  170.1820  144.3510 C   0  0  2  0  0  0  0  0  0  0  0  0
  187.1910  176.7290  145.7420 C   0  0  1  0  0  3  0  0  0  0  0  0
  191.7330  176.1110  141.2740 O   0  0  0  0  0  1  0  0  0  0  0  0
  193.5030  171.8840  139.9860 C   0  0  0  0  0  2  0  0  0  0  0  0
  196.4360  174.4270  146.4620 N   0  0  0  0  0  2  0  0  0  0  0  0
  187.4480  176.8560  144.2490 C   0  0  0  0  0  2  0  0  0  0  0  0
  191.3580  172.5890  141.1190 C   0  0  2  0  0  3  0  0  0  0  0  0
  195.3470  169.9660  141.8980 N   0  0  0  0  0  2  0  0  0  0  0  0
  193.7660  170.4730  139.4860 C   0  0  0  0  0  2  0  0  0  0  0  0
  191.1710  175.0690  142.0140 C   0  0  2  0  0  3  0  0  0  0  0  0
  192.5270  173.3650  143.1580 C   0  0  0  0  0  3  0  0  0  0  0  0
  194.1030  174.3740  145.9150 C   0  0  0  0  0  0  0  0  0  0  0  0
  189.1590  173.5410  141.9460 C   0  0  0  0  0  2  0  0  0  0  0  0
  189.4060  175.3190  144.6500 O   0  0  0  0  0  0  0  0  0  0  0  0
  196.2150  168.1660  145.1770 N   0  0  0  0  0  2  0  0  0  0  0  0
  195.7270  171.2390  145.3240 C   0  0  1  0  0  3  0  0  0  0  0  0
  192.1540  176.1110  145.7930 C   0  0  0  0  0  3  0  0  0  0  0  0
  189.8340  172.6060  140.9640 C   0  0  0  0  0  2  0  0  0  0  0  0
  192.0120  173.7960  141.8290 C   0  0  1  0  0  3  0  0  0  0  0  0
  193.3350  169.4520  140.5430 C   0  0  1  0  0  3  0  0  0  0  0  0
  197.9410  173.4160  145.0090 O   0  0  0  0  0  0  0  0  0  0  0  0
  189.6960  176.3140  145.6120 C   0  0  1  0  0  3  0  0  0  0  0  0
  194.9360  168.8110  144.9170 C   0  0  0  0  0  2  0  0  0  0  0  0
  188.4950  176.5600  146.5290 C   0  0  0  0  0  2  0  0  0  0  0  0
  194.2500  173.2620  144.8900 C   0  0  1  0  0  3  0  0  0  0  0  0
  193.1150  175.2310  145.8650 C   0  0  0  0  0  0  0  0  0  0  0  0
  188.8740  176.0440  142.3630 C   0  0  0  0  0  2  0  0  0  0  0  0
  186.9080  179.1530  143.7720 O   0  0  0  0  0  0  0  0  0  0  0  0
  185.3240  178.2960  145.2710 N   0  0  0  0  0  0  0  0  0  0  0  0
  185.7570  177.6590  147.6350 C   0  0  0  0  0  2  0  0  0  0  0  0
  185.6890  178.9780  144.0570 C   0  0  0  0  0  0  0  0  0  0  0  0
  183.5560  178.6900  146.9550 C   0  0  0  0  0  2  0  0  0  0  0  0
  184.7310  178.7410  147.9360 C   0  0  0  0  0  2  0  0  0  0  0  0
  186.3570  177.9100  146.2460 C   0  0  1  0  0  3  0  0  0  0  0  0
  183.9130  178.0750  145.5940 C   0  0  0  0  0  2  0  0  0  0  0  0
  184.0720  178.3850  142.2660 C   0  0  1  0  0  3  0  0  0  0  0  0
  185.0570  179.2700  141.7910 O   0  0  0  0  0  0  0  0  0  0  0  0
  184.6260  179.4690  143.1200 C   0  0  2  0  0  3  0  0  0  0  0  0
  181.8500  177.5790  141.5600 C   0  0  0  0  0  2  0  0  0  0  0  0
  182.5340  178.1710  140.3460 C   0  0  0  0  0  2  0  0  0  0  0  0
  182.7300  178.8020  141.7080 C   0  0  0  0  0  3  0  0  0  0  0  0
  192.4920  168.3090  139.9620 C   0  0  1  0  0  3  0  0  0  0  0  0
  191.2040  168.1660  140.7550 C   0  0  0  0  0  1  0  0  0  0  0  0
  192.1660  168.4750  138.4780 C   0  0  0  0  0  2  0  0  0  0  0  0
  190.7010  168.8160  138.2700 C   0  0  0  0  0  2  0  0  0  0  0  0
  191.5600  169.9520  136.2550 C   0  0  0  0  0  1  0  0  0  0  0  0
  190.5880  170.0560  137.4120 C   0  0  0  0  0  2  0  0  0  0  0  0
  191.8610  173.3460  138.7470 C   0  0  0  0  0  2  0  0  0  0  0  0
  192.9170  173.2290  137.6680 C   0  0  0  0  0  2  0  0  0  0  0  0
  192.3080  173.1810  136.4130 O   0  0  0  0  0  0  0  0  0  0  0  0
  191.1680  173.9790  136.5400 C   0  0  0  0  0  2  0  0  0  0  0  0
  190.7320  174.4970  135.1780 C   0  0  0  0  0  2  0  0  0  0  0  0
  189.9400  175.6350  135.3380 O   0  0  0  0  0  0  0  0  0  0  0  0
  187.7020  176.4020  135.1230 C   0  0  0  0  0  1  0  0  0  0  0  0
  188.6550  175.2300  134.9840 C   0  0  0  0  0  2  0  0  0  0  0  0
  1 17  1  0  0  0  0
  2 39  1  6  0  0  0
  2 18  1  0  0  0  0
  2 26  1  0  0  0  0
  3 10  1  1  0  0  0
  3 28  1  0  0  0  0
  4 37  1  0  0  0  0
  6 37  1  0  0  0  0
  6 28  1  0  0  0  0
  6  1  1  1  0  0  0
  8 60  1  6  0  0  0
  8 16  1  0  0  0  0
  8 19  1  0  0  0  0
 11 25  1  1  0  0  0
 11 22  1  0  0  0  0
 11 39  1  0  0  0  0
 12 20  1  0  0  0  0
 13  5  1  6  0  0  0
 13  3  1  0  0  0  0
 13 35  1  0  0  0  0
 13 28  1  0  0  0  0
 14 18  1  6  0  0  0
 14 46  1  0  0  0  0
 14 36  1  0  0  0  0
 17  9  1  0  0  0  0
 19 30  1  6  0  0  0
 19 31  1  0  0  0  0
 20  5  1  0  0  0  0
 21 16  1  0  0  0  0
 21 32  1  0  0  0  0
 22 15  1  6  0  0  0
 23  4  2  0  0  0  0
 24  9  1  0  0  0  0
 26 34  1  0  0  0  0
 27 10  1  0  0  0  0
 29 38  2  0  0  0  0
 29  7  1  0  0  0  0
 30 25  1  0  0  0  0
 31 22  1  0  0  0  0
 31 23  1  0  0  0  0
 32 12  1  0  0  0  0
 33  1  2  0  0  0  0
 34  7  1  0  0  0  0
 34 36  1  0  0  0  0
 35 27  1  0  0  0  0
 37 24  1  0  0  0  0
 38 24  2  0  0  0  0
 40 43  2  0  0  0  0
 41 47  1  0  0  0  0
 41 46  1  0  0  0  0
 42 45  1  0  0  0  0
 43 41  1  0  0  0  0
 44 45  1  0  0  0  0
 46 42  1  0  0  0  0
 47 44  1  0  0  0  0
 48 50  1  0  0  0  0
 49 48  1  0  0  0  0
 49 50  1  0  0  0  0
 50 43  1  0  0  0  0
 51 53  1  0  0  0  0
 52 51  1  0  0  0  0
 52 53  1  0  0  0  0
 53 48  1  0  0  0  0
 54 32  1  0  0  0  0
 54 55  1  0  0  0  0
 56 54  1  0  0  0  0
 57 56  1  0  0  0  0
 58 59  1  0  0  0  0
 59 57  1  0  0  0  0
 61 60  1  0  0  0  0
 62 63  1  0  0  0  0
 62 61  1  0  0  0  0
 64 65  1  0  0  0  0
 64 63  1  0  0  0  0
 67 66  1  0  0  0  0
 67 65  1  0  0  0  0
M  END
>  <MODEL>
2

>  <REMARK>
 VINA RESULT:      -4.0      2.721      7.646
  Name = 
  14 active torsions:
  status: ('A' for Active; 'I' for Inactive)
    1  A    between atoms: C_1  and  C_49
    2  A    between atoms: C_1  and  C_54
    3  A    between atoms: C_4  and  O_19
    4  A    between atoms: C_4  and  C_51
    5  A    between atoms: C_13  and  C_28
    6  A    between atoms: O_18  and  C_38
    7  A    between atoms: O_18  and  C_51
    8  A    between atoms: O_19  and  C_20
    9  A    between atoms: C_20  and  C_28
   10  A    between atoms: C_23  and  C_46
   11  A    between atoms: C_25  and  C_64
   12  A    between atoms: C_37  and  C_59
   13  A    between atoms: C_49  and  C_53
   14  A    between atoms: C_53  and  C_65
                            x       y       z     vdW  Elec       q    Type
                         _______ _______ _______ _____ _____    ______ ____

>  <TORSDO>
F 14

$$$$
=
 OpenBabel11042418393D

 67 76  0  0  1  0  0  0  0  0999 V2000
  196.7360  173.5560  145.5240 C   0  0  0  0  0  0  0  0  0  0  0  0
  188.4190  175.7000  143.4870 C   0  0  2  0  0  3  0  0  0  0  0  0
  196.7090  170.4350  144.6850 C   0  0  1  0  0  3  0  0  0  0  0  0
  193.8310  173.6430  143.5290 C   0  0  0  0  0  3  0  0  0  0  0  0
  194.6910  170.5330  143.1410 C   0  0  0  0  0  2  0  0  0  0  0  0
  195.6830  172.6850  144.8840 C   0  0  1  0  0  3  0  0  0  0  0  0
  190.8120  175.9370  146.2910 C   0  0  0  0  0  2  0  0  0  0  0  0
  192.2360  172.0870  139.7730 C   0  0  1  0  0  3  0  0  0  0  0  0
  195.0220  174.5700  147.0420 C   0  0  0  0  0  2  0  0  0  0  0  0
  197.2010  169.2590  145.5100 C   0  0  0  0  0  2  0  0  0  0  0  0
  189.8240  174.8520  141.4850 C   0  0  1  0  0  3  0  0  0  0  0  0
  194.6700  168.8010  141.5200 C   0  0  0  0  0  2  0  0  0  0  0  0
  195.2350  170.1860  144.5230 C   0  0  2  0  0  0  0  0  0  0  0  0
  187.1750  176.7760  145.3810 C   0  0  1  0  0  3  0  0  0  0  0  0
  191.8860  176.0080  141.1160 O   0  0  0  0  0  1  0  0  0  0  0  0
  193.6990  171.7400  140.0400 C   0  0  0  0  0  2  0  0  0  0  0  0
  196.3830  174.5000  146.5360 N   0  0  0  0  0  2  0  0  0  0  0  0
  187.4900  176.8520  143.8960 C   0  0  0  0  0  2  0  0  0  0  0  0
  191.5120  172.4830  141.0650 C   0  0  2  0  0  3  0  0  0  0  0  0
  195.4650  169.8870  142.0860 N   0  0  0  0  0  2  0  0  0  0  0  0
  193.9800  170.3130  139.5990 C   0  0  0  0  0  2  0  0  0  0  0  0
  191.2940  174.9920  141.8680 C   0  0  2  0  0  3  0  0  0  0  0  0
  192.6020  173.3270  143.1210 C   0  0  0  0  0  3  0  0  0  0  0  0
  194.0720  174.4280  145.9010 C   0  0  0  0  0  0  0  0  0  0  0  0
  189.2840  173.4620  141.7740 C   0  0  0  0  0  2  0  0  0  0  0  0
  189.4290  175.3300  144.4240 O   0  0  0  0  0  0  0  0  0  0  0  0
  196.2030  168.1990  145.4550 N   0  0  0  0  0  2  0  0  0  0  0  0
  195.7130  171.2760  145.4800 C   0  0  1  0  0  3  0  0  0  0  0  0
  192.1320  176.1600  145.6450 C   0  0  0  0  0  3  0  0  0  0  0  0
  189.9960  172.4940  140.8510 C   0  0  0  0  0  2  0  0  0  0  0  0
  192.1400  173.7130  141.7590 C   0  0  1  0  0  3  0  0  0  0  0  0
  193.5060  169.3280  140.6720 C   0  0  1  0  0  3  0  0  0  0  0  0
  197.9410  173.4410  145.1770 O   0  0  0  0  0  0  0  0  0  0  0  0
  189.6820  176.3570  145.3630 C   0  0  1  0  0  3  0  0  0  0  0  0
  194.9360  168.8340  145.1240 C   0  0  0  0  0  2  0  0  0  0  0  0
  188.4480  176.6340  146.2230 C   0  0  0  0  0  2  0  0  0  0  0  0
  194.2580  173.2830  144.9200 C   0  0  1  0  0  3  0  0  0  0  0  0
  193.0880  175.2830  145.7840 C   0  0  0  0  0  0  0  0  0  0  0  0
  188.9870  175.9780  142.0950 C   0  0  0  0  0  2  0  0  0  0  0  0
  186.8630  179.0740  143.2690 O   0  0  0  0  0  0  0  0  0  0  0  0
  185.2880  178.2860  144.8150 N   0  0  0  0  0  0  0  0  0  0  0  0
  185.7250  177.7980  147.2140 C   0  0  0  0  0  2  0  0  0  0  0  0
  185.6460  178.8990  143.5620 C   0  0  0  0  0  0  0  0  0  0  0  0
  183.5110  178.7550  146.4700 C   0  0  0  0  0  2  0  0  0  0  0  0
  184.6830  178.8810  147.4480 C   0  0  0  0  0  2  0  0  0  0  0  0
  186.3240  177.9730  145.8130 C   0  0  1  0  0  3  0  0  0  0  0  0
  183.8800  178.0650  145.1490 C   0  0  0  0  0  2  0  0  0  0  0  0
  183.5780  178.2450  142.3500 C   0  0  1  0  0  3  0  0  0  0  0  0
  184.6380  178.4880  141.4570 O   0  0  0  0  0  0  0  0  0  0  0  0
  184.5780  179.3180  142.5960 C   0  0  2  0  0  3  0  0  0  0  0  0
  181.2010  177.8150  141.8480 C   0  0  0  0  0  2  0  0  0  0  0  0
  181.9100  178.0750  140.5360 C   0  0  0  0  0  2  0  0  0  0  0  0
  182.3110  178.8420  141.7780 C   0  0  0  0  0  3  0  0  0  0  0  0
  192.6840  168.1660  140.0980 C   0  0  1  0  0  3  0  0  0  0  0  0
  191.2920  168.1730  140.7040 C   0  0  0  0  0  1  0  0  0  0  0  0
  192.5820  168.1770  138.5730 C   0  0  0  0  0  2  0  0  0  0  0  0
  191.1840  168.5560  138.1180 C   0  0  0  0  0  2  0  0  0  0  0  0
  191.2410  170.1370  136.2230 C   0  0  0  0  0  1  0  0  0  0  0  0
  191.1580  168.6750  136.6110 C   0  0  0  0  0  2  0  0  0  0  0  0
  192.1080  173.1590  138.6900 C   0  0  0  0  0  2  0  0  0  0  0  0
  193.4760  173.6220  138.2350 C   0  0  0  0  0  2  0  0  0  0  0  0
  193.6290  174.9830  138.5010 O   0  0  0  0  0  0  0  0  0  0  0  0
  194.5020  175.0360  139.5910 C   0  0  0  0  0  2  0  0  0  0  0  0
  195.9410  175.1240  139.1100 C   0  0  0  0  0  2  0  0  0  0  0  0
  196.6930  175.8850  140.0080 O   0  0  0  0  0  0  0  0  0  0  0  0
  196.8070  175.2490  142.2950 C   0  0  0  0  0  1  0  0  0  0  0  0
  197.2590  174.9540  140.8770 C   0  0  0  0  0  2  0  0  0  0  0  0
  1 17  1  0  0  0  0
  2 39  1  6  0  0  0
  2 18  1  0  0  0  0
  2 26  1  0  0  0  0
  3 28  1  0  0  0  0
  3 10  1  1  0  0  0
  4 37  1  0  0  0  0
  6 37  1  0  0  0  0
  6 28  1  0  0  0  0
  6  1  1  1  0  0  0
  8 60  1  6  0  0  0
  8 16  1  0  0  0  0
  8 19  1  0  0  0  0
 11 25  1  1  0  0  0
 11 22  1  0  0  0  0
 11 39  1  0  0  0  0
 12 20  1  0  0  0  0
 13  5  1  6  0  0  0
 13  3  1  0  0  0  0
 13 35  1  0  0  0  0
 13 28  1  0  0  0  0
 14 18  1  6  0  0  0
 14 46  1  0  0  0  0
 14 36  1  0  0  0  0
 17  9  1  0  0  0  0
 19 30  1  6  0  0  0
 19 31  1  0  0  0  0
 20  5  1  0  0  0  0
 21 16  1  0  0  0  0
 21 32  1  0  0  0  0
 22 15  1  6  0  0  0
 23  4  2  0  0  0  0
 24  9  1  0  0  0  0
 26 34  1  0  0  0  0
 27 10  1  0  0  0  0
 29 38  2  0  0  0  0
 29  7  1  0  0  0  0
 30 25  1  0  0  0  0
 31 22  1  0  0  0  0
 31 23  1  0  0  0  0
 32 12  1  0  0  0  0
 33  1  2  0  0  0  0
 34 36  1  0  0  0  0
 34  7  1  0  0  0  0
 35 27  1  0  0  0  0
 37 24  1  0  0  0  0
 38 24  2  0  0  0  0
 40 43  2  0  0  0  0
 41 47  1  0  0  0  0
 41 46  1  0  0  0  0
 42 45  1  0  0  0  0
 43 41  1  0  0  0  0
 44 45  1  0  0  0  0
 46 42  1  0  0  0  0
 47 44  1  0  0  0  0
 48 50  1  0  0  0  0
 49 48  1  0  0  0  0
 49 50  1  0  0  0  0
 50 43  1  0  0  0  0
 52 53  1  0  0  0  0
 52 51  1  0  0  0  0
 53 51  1  0  0  0  0
 53 48  1  0  0  0  0
 54 32  1  0  0  0  0
 54 55  1  0  0  0  0
 56 54  1  0  0  0  0
 57 56  1  0  0  0  0
 58 59  1  0  0  0  0
 59 57  1  0  0  0  0
 61 62  1  0  0  0  0
 61 60  1  0  0  0  0
 62 63  1  0  0  0  0
 64 63  1  0  0  0  0
 64 65  1  0  0  0  0
 65 67  1  0  0  0  0
 67 66  1  0  0  0  0
M  END
>  <MODEL>
3

>  <REMARK>
 VINA RESULT:      -2.8      2.636      7.026
  Name = 
  14 active torsions:
  status: ('A' for Active; 'I' for Inactive)
    1  A    between atoms: C_1  and  C_49
    2  A    between atoms: C_1  and  C_54
    3  A    between atoms: C_4  and  O_19
    4  A    between atoms: C_4  and  C_51
    5  A    between atoms: C_13  and  C_28
    6  A    between atoms: O_18  and  C_38
    7  A    between atoms: O_18  and  C_51
    8  A    between atoms: O_19  and  C_20
    9  A    between atoms: C_20  and  C_28
   10  A    between atoms: C_23  and  C_46
   11  A    between atoms: C_25  and  C_64
   12  A    between atoms: C_37  and  C_59
   13  A    between atoms: C_49  and  C_53
   14  A    between atoms: C_53  and  C_65
                            x       y       z     vdW  Elec       q    Type
                         _______ _______ _______ _____ _____    ______ ____

>  <TORSDO>
F 14

$$$$
=
 OpenBabel11042418393D

 67 76  0  0  1  0  0  0  0  0999 V2000
  186.2100  179.0970  142.8230 C   0  0  0  0  0  0  0  0  0  0  0  0
  191.5520  172.4210  140.6290 C   0  0  2  0  0  3  0  0  0  0  0  0
  186.1610  178.7170  146.0320 C   0  0  1  0  0  3  0  0  0  0  0  0
  189.0560  177.0330  143.0830 C   0  0  0  0  0  3  0  0  0  0  0  0
  188.2900  177.3400  146.2260 C   0  0  0  0  0  2  0  0  0  0  0  0
  186.9320  178.1450  143.7440 C   0  0  1  0  0  3  0  0  0  0  0  0
  188.2460  173.8210  139.7610 C   0  0  0  0  0  2  0  0  0  0  0  0
  192.5910  176.4100  145.5700 C   0  0  1  0  0  3  0  0  0  0  0  0
  185.7200  177.2320  141.2250 C   0  0  0  0  0  2  0  0  0  0  0  0
  184.9410  178.6850  146.9330 C   0  0  0  0  0  2  0  0  0  0  0  0
  192.6300  174.1820  142.1900 C   0  0  1  0  0  3  0  0  0  0  0  0
  189.3030  177.4810  148.3670 C   0  0  0  0  0  2  0  0  0  0  0  0
  186.7660  177.3470  146.1750 C   0  0  2  0  0  0  0  0  0  0  0  0
  190.5720  170.8880  138.9010 C   0  0  1  0  0  3  0  0  0  0  0  0
  192.5280  176.4420  141.4120 O   0  0  0  0  0  1  0  0  0  0  0  0
  191.7410  177.6190  145.9560 C   0  0  0  0  0  2  0  0  0  0  0  0
  185.6720  178.6400  141.5810 N   0  0  0  0  0  2  0  0  0  0  0  0
  191.8140  171.6570  139.3220 C   0  0  0  0  0  2  0  0  0  0  0  0
  191.7910  175.4140  144.7240 C   0  0  2  0  0  3  0  0  0  0  0  0
  188.7950  178.2590  147.2400 N   0  0  0  0  0  2  0  0  0  0  0  0
  191.6660  177.7350  147.4700 C   0  0  0  0  0  2  0  0  0  0  0  0
  191.7990  175.4570  142.0800 C   0  0  2  0  0  3  0  0  0  0  0  0
  189.7770  175.9550  143.3900 C   0  0  0  0  0  3  0  0  0  0  0  0
  187.0450  176.6750  141.6240 C   0  0  0  0  0  0  0  0  0  0  0  0
  192.2000  173.3160  143.3620 C   0  0  0  0  0  2  0  0  0  0  0  0
  190.2550  172.9950  140.7830 O   0  0  0  0  0  0  0  0  0  0  0  0
  185.0680  177.5650  147.8560 N   0  0  0  0  0  2  0  0  0  0  0  0
  186.0200  177.7100  144.8930 C   0  0  1  0  0  3  0  0  0  0  0  0
  188.4140  175.2930  139.8790 C   0  0  0  0  0  3  0  0  0  0  0  0
  192.5250  174.0730  144.6330 C   0  0  0  0  0  2  0  0  0  0  0  0
  191.2640  176.0250  143.4050 C   0  0  1  0  0  3  0  0  0  0  0  0
  190.6150  176.7670  148.0210 C   0  0  1  0  0  3  0  0  0  0  0  0
  186.0640  180.3030  143.1560 O   0  0  0  0  0  0  0  0  0  0  0  0
  189.5900  173.1420  139.5450 C   0  0  1  0  0  3  0  0  0  0  0  0
  185.9810  176.6160  147.2360 C   0  0  0  0  0  2  0  0  0  0  0  0
  189.3270  171.7810  138.8960 C   0  0  0  0  0  2  0  0  0  0  0  0
  187.5620  176.9270  143.0300 C   0  0  1  0  0  3  0  0  0  0  0  0
  187.7220  175.9660  140.7570 C   0  0  0  0  0  0  0  0  0  0  0  0
  192.6710  173.4360  140.8550 C   0  0  0  0  0  2  0  0  0  0  0  0
  190.4250  172.7350  136.3700 O   0  0  0  0  0  0  0  0  0  0  0  0
  191.8230  170.8940  136.7570 N   0  0  0  0  0  0  0  0  0  0  0  0
  191.1150  168.7050  137.6990 C   0  0  0  0  0  2  0  0  0  0  0  0
  191.5290  172.1630  136.1420 C   0  0  0  0  0  0  0  0  0  0  0  0
  192.9060  168.8330  135.9240 C   0  0  0  0  0  2  0  0  0  0  0  0
  191.5970  168.1660  136.3610 C   0  0  0  0  0  2  0  0  0  0  0  0
  190.7990  170.1990  137.5530 C   0  0  1  0  0  3  0  0  0  0  0  0
  193.1080  170.2380  136.5080 C   0  0  0  0  0  2  0  0  0  0  0  0
  193.3540  173.8370  135.9440 C   0  0  1  0  0  3  0  0  0  0  0  0
  192.2470  174.1920  135.1520 O   0  0  0  0  0  0  0  0  0  0  0  0
  192.5350  172.8140  135.2410 C   0  0  2  0  0  3  0  0  0  0  0  0
  195.8000  173.5220  135.9100 C   0  0  0  0  0  2  0  0  0  0  0  0
  195.5270  175.0100  135.9770 C   0  0  0  0  0  2  0  0  0  0  0  0
  194.6210  174.1090  135.1640 C   0  0  0  0  0  3  0  0  0  0  0  0
  191.1200  175.9520  149.2180 C   0  0  1  0  0  3  0  0  0  0  0  0
  191.7230  174.6450  148.7340 C   0  0  0  0  0  1  0  0  0  0  0  0
  192.1350  176.6960  150.0870 C   0  0  0  0  0  2  0  0  0  0  0  0
  191.4480  177.4580  151.2050 C   0  0  0  0  0  2  0  0  0  0  0  0
  191.0260  177.4820  153.6370 C   0  0  0  0  0  1  0  0  0  0  0  0
  191.9060  176.9170  152.5410 C   0  0  0  0  0  2  0  0  0  0  0  0
  193.8870  176.8390  144.8820 C   0  0  0  0  0  2  0  0  0  0  0  0
  195.0350  175.9480  145.3070 C   0  0  0  0  0  2  0  0  0  0  0  0
  196.0530  176.0010  144.3540 O   0  0  0  0  0  0  0  0  0  0  0  0
  195.4360  176.4960  143.2020 C   0  0  0  0  0  2  0  0  0  0  0  0
  196.4180  176.5090  142.0410 C   0  0  0  0  0  2  0  0  0  0  0  0
  195.7780  176.0780  140.8780 O   0  0  0  0  0  0  0  0  0  0  0  0
  197.4060  174.3510  140.7760 C   0  0  0  0  0  1  0  0  0  0  0  0
  196.7950  175.5540  140.0830 C   0  0  0  0  0  2  0  0  0  0  0  0
  1 33  2  0  0  0  0
  2 18  1  6  0  0  0
  2 26  1  0  0  0  0
  2 39  1  0  0  0  0
  3 13  1  0  0  0  0
  3 10  1  1  0  0  0
  4 23  2  0  0  0  0
  5 20  1  0  0  0  0
  6  1  1  6  0  0  0
  6 28  1  0  0  0  0
  7 29  1  0  0  0  0
  8 60  1  6  0  0  0
  8 16  1  0  0  0  0
  9 17  1  0  0  0  0
  9 24  1  0  0  0  0
 10 27  1  0  0  0  0
 11 39  1  6  0  0  0
 11 25  1  0  0  0  0
 13  5  1  6  0  0  0
 13 35  1  0  0  0  0
 14 36  1  6  0  0  0
 14 18  1  0  0  0  0
 16 21  1  0  0  0  0
 17  1  1  0  0  0  0
 19 30  1  6  0  0  0
 19  8  1  0  0  0  0
 20 12  1  0  0  0  0
 21 32  1  0  0  0  0
 22 15  1  1  0  0  0
 22 11  1  0  0  0  0
 22 31  1  0  0  0  0
 23 31  1  0  0  0  0
 24 37  1  0  0  0  0
 25 30  1  0  0  0  0
 28  3  1  0  0  0  0
 28 13  1  0  0  0  0
 29 38  2  0  0  0  0
 31 19  1  0  0  0  0
 32 12  1  0  0  0  0
 32 54  1  0  0  0  0
 34  7  1  0  0  0  0
 34 26  1  0  0  0  0
 35 27  1  0  0  0  0
 36 34  1  0  0  0  0
 37  4  1  0  0  0  0
 37  6  1  0  0  0  0
 38 24  2  0  0  0  0
 41 46  1  0  0  0  0
 43 40  2  0  0  0  0
 43 41  1  0  0  0  0
 44 45  1  0  0  0  0
 44 47  1  0  0  0  0
 45 42  1  0  0  0  0
 46 42  1  0  0  0  0
 46 14  1  0  0  0  0
 47 41  1  0  0  0  0
 49 50  1  0  0  0  0
 49 48  1  0  0  0  0
 50 48  1  0  0  0  0
 50 43  1  0  0  0  0
 51 52  1  0  0  0  0
 53 51  1  0  0  0  0
 53 48  1  0  0  0  0
 53 52  1  0  0  0  0
 54 56  1  0  0  0  0
 55 54  1  0  0  0  0
 56 57  1  0  0  0  0
 57 59  1  0  0  0  0
 59 58  1  0  0  0  0
 60 61  1  0  0  0  0
 62 61  1  0  0  0  0
 63 62  1  0  0  0  0
 64 63  1  0  0  0  0
 65 64  1  0  0  0  0
 67 66  1  0  0  0  0
 67 65  1  0  0  0  0
M  END
>  <MODEL>
4

>  <REMARK>
 VINA RESULT:      -2.6      2.873     10.210
  Name = 
  14 active torsions:
  status: ('A' for Active; 'I' for Inactive)
    1  A    between atoms: C_1  and  C_49
    2  A    between atoms: C_1  and  C_54
    3  A    between atoms: C_4  and  O_19
    4  A    between atoms: C_4  and  C_51
    5  A    between atoms: C_13  and  C_28
    6  A    between atoms: O_18  and  C_38
    7  A    between atoms: O_18  and  C_51
    8  A    between atoms: O_19  and  C_20
    9  A    between atoms: C_20  and  C_28
   10  A    between atoms: C_23  and  C_46
   11  A    between atoms: C_25  and  C_64
   12  A    between atoms: C_37  and  C_59
   13  A    between atoms: C_49  and  C_53
   14  A    between atoms: C_53  and  C_65
                            x       y       z     vdW  Elec       q    Type
                         _______ _______ _______ _____ _____    ______ ____

>  <TORSDO>
F 14

$$$$
