=
 OpenBabel11042418073D

 65 77  0  0  1  0  0  0  0  0999 V2000
  189.4970  176.0510  146.4650 C   0  0  0  0  0  0  0  0  0  0  0  0
  190.3960  176.2440  144.3260 N   0  0  0  0  0  2  0  0  0  0  0  0
  185.5280  176.7580  143.1510 C   0  0  0  0  0  3  0  0  0  0  0  0
  188.5550  177.7380  144.8790 C   0  0  0  0  0  2  0  0  0  0  0  0
  187.0710  177.7260  145.0240 C   0  0  0  0  0  0  0  0  0  0  0  0
  189.1250  176.3290  145.0480 C   0  0  2  0  0  3  0  0  0  0  0  0
  187.2330  176.1650  147.4710 C   0  0  0  0  0  2  0  0  0  0  0  0
  186.4270  178.2400  146.2760 C   0  0  0  0  0  2  0  0  0  0  0  0
  186.3120  177.2320  144.0810 C   0  0  0  0  0  0  0  0  0  0  0  0
  191.4140  176.3070  145.3750 C   0  0  1  0  0  3  0  0  0  0  0  0
  188.6120  175.8260  147.5260 O   0  0  0  0  0  0  0  0  0  0  0  0
  190.7670  175.9960  146.6330 N   0  0  0  0  0  0  0  0  0  0  0  0
  187.0920  177.6770  147.5390 C   0  0  0  0  0  2  0  0  0  0  0  0
  193.3550  174.5780  144.7990 C   0  0  0  0  0  0  0  0  0  0  0  0
  192.5030  175.3730  145.0970 C   0  0  0  0  0  0  0  0  0  0  0  0
  194.3030  173.6280  144.3990 N   0  0  0  0  0  2  0  0  0  0  0  0
  195.7320  175.9920  140.9460 O   0  0  0  0  0  1  0  0  0  0  0  0
  197.7490  174.0730  143.7650 C   0  0  2  0  0  3  0  0  0  0  0  0
  197.9400  170.5380  143.0260 C   0  0  0  0  0  2  0  0  0  0  0  0
  196.9070  171.2420  142.5720 C   0  0  0  0  0  0  0  0  0  0  0  0
  197.6800  172.1790  140.4320 C   0  0  0  0  0  2  0  0  0  0  0  0
  196.8040  173.9030  144.9740 C   0  0  1  0  0  0  0  0  0  0  0  0
  196.6470  171.2970  141.1040 C   0  0  0  0  0  2  0  0  0  0  0  0
  196.4130  172.4070  144.7500 C   0  0  1  0  0  0  0  0  0  0  0  0
  197.9380  175.5930  141.7960 C   0  0  0  0  0  2  0  0  0  0  0  0
  197.0380  173.1080  139.4480 C   0  0  0  0  0  0  0  0  0  0  0  0
  197.2050  174.5980  139.6100 C   0  0  1  0  0  3  0  0  0  0  0  0
  197.8080  175.5190  143.3280 C   0  0  1  0  0  3  0  0  0  0  0  0
  195.3890  173.3160  145.3280 C   0  0  2  0  0  3  0  0  0  0  0  0
  196.4820  172.6470  138.4630 O   0  0  0  0  0  0  0  0  0  0  0  0
  196.0660  171.9690  143.4280 O   0  0  0  0  0  0  0  0  0  0  0  0
  196.5210  174.8990  143.8290 C   0  0  1  0  0  3  0  0  0  0  0  0
  196.5240  175.2950  138.6060 O   0  0  0  0  0  1  0  0  0  0  0  0
  196.7520  175.0410  141.0030 C   0  0  2  0  0  3  0  0  0  0  0  0
  194.9030  169.8480  145.1840 C   0  0  0  0  0  2  0  0  0  0  0  0
  194.1940  168.3480  147.0810 C   0  0  0  0  0  2  0  0  0  0  0  0
  196.1150  170.2300  145.9910 C   0  0  0  0  0  0  0  0  0  0  0  0
  195.4180  168.7980  147.9000 C   0  0  0  0  0  2  0  0  0  0  0  0
  194.4010  168.4570  145.5640 C   0  0  0  0  0  2  0  0  0  0  0  0
  196.5960  169.3000  147.0620 C   0  0  0  0  0  2  0  0  0  0  0  0
  196.7900  171.3660  145.7670 C   0  0  0  0  0  3  0  0  0  0  0  0
  183.6320  177.9980  142.4580 O   0  0  0  0  0  0  0  0  0  0  0  0
  184.8140  177.6380  142.2120 C   0  0  0  0  0  0  0  0  0  0  0  0
  191.2060  172.5100  142.1980 C   0  0  2  0  0  3  0  0  0  0  0  0
  186.7240  178.7120  141.1860 O   0  0  0  0  0  0  0  0  0  0  0  0
  188.0400  175.0520  139.6230 C   0  0  1  0  0  3  0  0  0  0  0  0
  190.6610  172.5580  143.6040 C   0  0  0  0  0  2  0  0  0  0  0  0
  189.2570  172.5820  143.5470 O   0  0  0  0  0  0  0  0  0  0  0  0
  185.4650  178.1230  140.9460 C   0  0  1  0  0  3  0  0  0  0  0  0
  189.8770  172.4330  140.1580 N   0  0  0  0  0  2  0  0  0  0  0  0
  187.9630  172.8830  141.5190 C   0  0  1  0  0  3  0  0  0  0  0  0
  186.7380  177.4150  140.6430 C   0  0  2  0  0  0  0  0  0  0  0  0
  188.2160  174.2310  141.8600 O   0  0  0  0  0  0  0  0  0  0  0  0
  188.4340  172.5850  140.1000 C   0  0  1  0  0  3  0  0  0  0  0  0
  190.1220  171.7950  141.4510 C   0  0  2  0  0  3  0  0  0  0  0  0
  187.4100  176.4490  141.6130 C   0  0  0  0  0  2  0  0  0  0  0  0
  188.8920  171.9870  142.3230 C   0  0  1  0  0  3  0  0  0  0  0  0
  187.2300  177.4070  139.2090 C   0  0  0  0  0  2  0  0  0  0  0  0
  187.4300  175.0450  141.0300 C   0  0  1  0  0  3  0  0  0  0  0  0
  187.9940  173.6330  139.0690 C   0  0  0  0  0  2  0  0  0  0  0  0
  187.2440  175.9680  138.6940 C   0  0  0  0  0  2  0  0  0  0  0  0
  192.4280  171.7260  142.1860 N   0  0  0  0  0  2  0  0  0  0  0  0
  193.1220  169.4070  142.1350 C   0  0  0  0  0  2  0  0  0  0  0  0
  193.2370  169.9640  140.7330 C   0  0  0  0  0  2  0  0  0  0  0  0
  192.1090  170.4150  141.6330 C   0  0  0  0  0  3  0  0  0  0  0  0
  1 12  2  0  0  0  0
  1 11  1  0  0  0  0
  2  6  1  0  0  0  0
  2 10  1  0  0  0  0
  3  9  2  0  0  0  0
  4  5  1  0  0  0  0
  5  8  1  0  0  0  0
  6  4  1  1  0  0  0
  6  1  1  0  0  0  0
  7 11  1  0  0  0  0
  7 13  1  0  0  0  0
  8 13  1  0  0  0  0
  9  5  2  0  0  0  0
 10 15  1  6  0  0  0
 10 12  1  0  0  0  0
 14 15  3  0  0  0  0
 16 14  1  0  0  0  0
 16 29  1  0  0  0  0
 17 34  1  0  0  0  0
 18 32  1  0  0  0  0
 18 22  1  0  0  0  0
 20 19  2  0  0  0  0
 20 31  1  0  0  0  0
 21 23  1  0  0  0  0
 22 29  1  0  0  0  0
 23 20  1  0  0  0  0
 24 22  1  0  0  0  0
 24 29  1  0  0  0  0
 24 41  1  0  0  0  0
 25 28  1  0  0  0  0
 26 27  1  0  0  0  0
 26 21  1  0  0  0  0
 27 34  1  0  0  0  0
 28 18  1  0  0  0  0
 28 32  1  0  0  0  0
 30 26  2  0  0  0  0
 31 24  1  0  0  0  0
 32 22  1  0  0  0  0
 33 27  1  0  0  0  0
 34 25  1  0  0  0  0
 35 39  1  0  0  0  0
 35 37  1  0  0  0  0
 36 38  1  0  0  0  0
 37 40  1  0  0  0  0
 39 36  1  0  0  0  0
 40 38  1  0  0  0  0
 41 37  2  0  0  0  0
 43 42  2  0  0  0  0
 43  3  1  0  0  0  0
 44 47  1  0  0  0  0
 46 59  1  0  0  0  0
 48 47  1  0  0  0  0
 49 45  1  0  0  0  0
 49 43  1  0  0  0  0
 50 55  1  0  0  0  0
 51 53  1  0  0  0  0
 51 57  1  0  0  0  0
 52 49  1  0  0  0  0
 52 45  1  0  0  0  0
 52 56  1  0  0  0  0
 54 50  1  0  0  0  0
 54 51  1  0  0  0  0
 55 44  1  0  0  0  0
 55 57  1  0  0  0  0
 57 48  1  0  0  0  0
 58 52  1  0  0  0  0
 59 56  1  0  0  0  0
 59 53  1  0  0  0  0
 60 46  1  0  0  0  0
 60 54  1  0  0  0  0
 61 58  1  0  0  0  0
 61 46  1  0  0  0  0
 62 44  1  0  0  0  0
 64 65  1  0  0  0  0
 64 63  1  0  0  0  0
 65 63  1  0  0  0  0
 65 62  1  0  0  0  0
M  END
>  <MODEL>
1

>  <REMARK>
 VINA RESULT:      -9.0      0.000      0.000
  Name = 
  8 active torsions:
  status: ('A' for Active; 'I' for Inactive)
    1  A    between atoms: C_2  and  N_16
    2  A    between atoms: C_7  and  N_60
    3  A    between atoms: N_16  and  C_58
    4  A    between atoms: C_17  and  C_19
    5  A    between atoms: C_19  and  C_21
    6  A    between atoms: C_27  and  C_50
    7  A    between atoms: C_29  and  C_62
    8  A    between atoms: C_45  and  N_60
                            x       y       z     vdW  Elec       q    Type
                         _______ _______ _______ _____ _____    ______ ____

>  <TORSDO>
F 8

$$$$
=
 OpenBabel11042418073D

 65 77  0  0  1  0  0  0  0  0999 V2000
  187.4990  176.2570  141.1230 C   0  0  0  0  0  0  0  0  0  0  0  0
  188.9120  174.4530  141.5380 N   0  0  0  0  0  2  0  0  0  0  0  0
  190.1880  177.3330  145.4630 C   0  0  0  0  0  3  0  0  0  0  0  0
  187.8210  175.4560  143.4690 C   0  0  0  0  0  2  0  0  0  0  0  0
  187.9240  176.6530  144.3520 C   0  0  0  0  0  0  0  0  0  0  0  0
  188.4780  175.7260  142.1150 C   0  0  2  0  0  3  0  0  0  0  0  0
  186.9660  178.4060  142.2410 C   0  0  0  0  0  2  0  0  0  0  0  0
  186.7270  177.5210  144.5960 C   0  0  0  0  0  2  0  0  0  0  0  0
  189.0650  176.9840  144.8970 C   0  0  0  0  0  0  0  0  0  0  0  0
  187.9170  174.1660  140.5030 C   0  0  1  0  0  3  0  0  0  0  0  0
  186.9390  177.5400  141.1140 O   0  0  0  0  0  0  0  0  0  0  0  0
  187.2240  175.4030  140.2060 N   0  0  0  0  0  0  0  0  0  0  0  0
  186.0020  177.8810  143.2920 C   0  0  0  0  0  2  0  0  0  0  0  0
  189.1570  173.1840  138.3610 C   0  0  0  0  0  0  0  0  0  0  0  0
  188.5550  173.6190  139.3080 C   0  0  0  0  0  0  0  0  0  0  0  0
  189.9190  172.6980  137.2910 N   0  0  0  0  0  2  0  0  0  0  0  0
  193.9440  170.8730  137.4310 O   0  0  0  0  0  1  0  0  0  0  0  0
  192.1750  172.9940  134.5910 C   0  0  2  0  0  3  0  0  0  0  0  0
  192.3800  176.5320  135.3140 C   0  0  0  0  0  2  0  0  0  0  0  0
  192.3860  175.6610  136.3200 C   0  0  0  0  0  0  0  0  0  0  0  0
  194.7490  175.0240  136.5800 C   0  0  0  0  0  2  0  0  0  0  0  0
  190.6520  172.9010  134.8250 C   0  0  1  0  0  0  0  0  0  0  0  0
  193.5430  175.6390  137.2610 C   0  0  0  0  0  2  0  0  0  0  0  0
  190.4370  174.2980  135.4920 C   0  0  1  0  0  0  0  0  0  0  0  0
  194.1980  171.6600  135.1810 C   0  0  0  0  0  2  0  0  0  0  0  0
  195.4340  174.0430  137.4800 C   0  0  0  0  0  0  0  0  0  0  0  0
  195.5960  172.6100  137.0380 C   0  0  1  0  0  3  0  0  0  0  0  0
  192.7980  171.6170  134.5440 C   0  0  1  0  0  3  0  0  0  0  0  0
  189.5840  173.1690  135.9480 C   0  0  2  0  0  3  0  0  0  0  0  0
  195.9550  174.4380  138.5130 O   0  0  0  0  0  0  0  0  0  0  0  0
  191.3530  174.7320  136.5080 O   0  0  0  0  0  0  0  0  0  0  0  0
  191.6580  171.9350  135.4890 C   0  0  1  0  0  3  0  0  0  0  0  0
  196.2460  171.8490  138.0160 O   0  0  0  0  0  1  0  0  0  0  0  0
  194.2390  172.0060  136.6700 C   0  0  2  0  0  3  0  0  0  0  0  0
  187.9090  175.4160  136.6640 C   0  0  0  0  0  2  0  0  0  0  0  0
  185.6160  176.1430  135.9140 C   0  0  0  0  0  2  0  0  0  0  0  0
  188.4370  175.8260  135.3160 C   0  0  0  0  0  0  0  0  0  0  0  0
  186.1790  176.5050  134.5280 C   0  0  0  0  0  2  0  0  0  0  0  0
  186.6610  176.2140  137.0360 C   0  0  0  0  0  2  0  0  0  0  0  0
  187.6730  176.8340  134.5130 C   0  0  0  0  0  2  0  0  0  0  0  0
  189.5800  175.3330  134.8180 C   0  0  0  0  0  3  0  0  0  0  0  0
  189.5350  176.7310  147.6600 O   0  0  0  0  0  0  0  0  0  0  0  0
  190.4750  177.0290  146.8750 C   0  0  0  0  0  0  0  0  0  0  0  0
  193.8090  171.5900  141.7310 C   0  0  2  0  0  3  0  0  0  0  0  0
  192.2630  175.8380  147.9880 O   0  0  0  0  0  0  0  0  0  0  0  0
  194.4070  175.5460  144.3980 C   0  0  1  0  0  3  0  0  0  0  0  0
  192.3160  171.3770  141.7180 C   0  0  0  0  0  2  0  0  0  0  0  0
  191.6770  172.6290  141.7490 O   0  0  0  0  0  0  0  0  0  0  0  0
  191.8780  177.0680  147.4140 C   0  0  1  0  0  3  0  0  0  0  0  0
  194.9390  173.7490  141.7510 N   0  0  0  0  0  2  0  0  0  0  0  0
  192.7990  174.7420  142.1460 C   0  0  1  0  0  3  0  0  0  0  0  0
  192.7910  176.1240  146.7170 C   0  0  2  0  0  0  0  0  0  0  0  0
  192.5750  174.3200  143.4760 O   0  0  0  0  0  0  0  0  0  0  0  0
  194.2770  175.0320  141.9100 C   0  0  1  0  0  3  0  0  0  0  0  0
  193.9560  172.9190  141.0550 C   0  0  2  0  0  3  0  0  0  0  0  0
  192.3120  175.0880  145.7050 C   0  0  0  0  0  2  0  0  0  0  0  0
  192.5870  173.5600  141.2120 C   0  0  1  0  0  3  0  0  0  0  0  0
  194.2820  176.3960  146.7720 C   0  0  0  0  0  2  0  0  0  0  0  0
  192.8820  175.3910  144.3290 C   0  0  1  0  0  3  0  0  0  0  0  0
  194.9200  175.8940  143.0050 C   0  0  0  0  0  2  0  0  0  0  0  0
  194.7910  176.6720  145.3570 C   0  0  0  0  0  2  0  0  0  0  0  0
  194.4480  170.5510  140.9440 N   0  0  0  0  0  2  0  0  0  0  0  0
  195.7520  168.5550  141.3680 C   0  0  0  0  0  2  0  0  0  0  0  0
  195.0250  168.9230  142.6440 C   0  0  0  0  0  2  0  0  0  0  0  0
  195.5490  170.0120  141.7330 C   0  0  0  0  0  3  0  0  0  0  0  0
  1  6  1  0  0  0  0
  2  6  1  0  0  0  0
  3 43  1  0  0  0  0
  4  5  1  0  0  0  0
  5  8  1  0  0  0  0
  5  9  2  0  0  0  0
  6  4  1  1  0  0  0
  7 13  1  0  0  0  0
  9  3  2  0  0  0  0
 10 15  1  6  0  0  0
 10  2  1  0  0  0  0
 11  1  1  0  0  0  0
 11  7  1  0  0  0  0
 12 10  1  0  0  0  0
 12  1  2  0  0  0  0
 13  8  1  0  0  0  0
 14 15  3  0  0  0  0
 16 14  1  0  0  0  0
 18 22  1  0  0  0  0
 18 32  1  0  0  0  0
 19 20  2  0  0  0  0
 20 31  1  0  0  0  0
 20 23  1  0  0  0  0
 21 23  1  0  0  0  0
 21 26  1  0  0  0  0
 22 32  1  0  0  0  0
 22 24  1  0  0  0  0
 22 29  1  0  0  0  0
 24 29  1  0  0  0  0
 24 31  1  0  0  0  0
 25 34  1  0  0  0  0
 26 30  2  0  0  0  0
 27 26  1  0  0  0  0
 27 33  1  0  0  0  0
 28 18  1  0  0  0  0
 28 25  1  0  0  0  0
 28 32  1  0  0  0  0
 29 16  1  0  0  0  0
 34 27  1  0  0  0  0
 34 17  1  0  0  0  0
 35 39  1  0  0  0  0
 36 39  1  0  0  0  0
 37 35  1  0  0  0  0
 38 36  1  0  0  0  0
 40 38  1  0  0  0  0
 40 37  1  0  0  0  0
 41 37  2  0  0  0  0
 41 24  1  0  0  0  0
 43 49  1  0  0  0  0
 43 42  2  0  0  0  0
 46 61  1  0  0  0  0
 47 44  1  0  0  0  0
 47 48  1  0  0  0  0
 49 45  1  0  0  0  0
 50 54  1  0  0  0  0
 51 53  1  0  0  0  0
 52 58  1  0  0  0  0
 52 49  1  0  0  0  0
 52 45  1  0  0  0  0
 53 59  1  0  0  0  0
 54 51  1  0  0  0  0
 54 60  1  0  0  0  0
 55 57  1  0  0  0  0
 55 44  1  0  0  0  0
 55 50  1  0  0  0  0
 56 52  1  0  0  0  0
 57 48  1  0  0  0  0
 57 51  1  0  0  0  0
 59 46  1  0  0  0  0
 59 56  1  0  0  0  0
 60 46  1  0  0  0  0
 61 58  1  0  0  0  0
 62 44  1  0  0  0  0
 62 65  1  0  0  0  0
 63 65  1  0  0  0  0
 63 64  1  0  0  0  0
 65 64  1  0  0  0  0
M  END
>  <MODEL>
2

>  <REMARK>
 VINA RESULT:      -8.9      3.158      8.196
  Name = 
  8 active torsions:
  status: ('A' for Active; 'I' for Inactive)
    1  A    between atoms: C_2  and  N_16
    2  A    between atoms: C_7  and  N_60
    3  A    between atoms: N_16  and  C_58
    4  A    between atoms: C_17  and  C_19
    5  A    between atoms: C_19  and  C_21
    6  A    between atoms: C_27  and  C_50
    7  A    between atoms: C_29  and  C_62
    8  A    between atoms: C_45  and  N_60
                            x       y       z     vdW  Elec       q    Type
                         _______ _______ _______ _____ _____    ______ ____

>  <TORSDO>
F 8

$$$$
=
 OpenBabel11042418073D

 65 77  0  0  1  0  0  0  0  0999 V2000
  188.4940  174.5660  140.6140 C   0  0  0  0  0  0  0  0  0  0  0  0
  189.7960  173.1100  141.8800 N   0  0  0  0  0  2  0  0  0  0  0  0
  189.8210  177.0580  145.0020 C   0  0  0  0  0  3  0  0  0  0  0  0
  188.1730  174.4620  143.0900 C   0  0  0  0  0  2  0  0  0  0  0  0
  187.9840  175.8550  143.5880 C   0  0  0  0  0  0  0  0  0  0  0  0
  189.1740  174.4330  141.9340 C   0  0  2  0  0  3  0  0  0  0  0  0
  187.5950  176.8610  140.8880 C   0  0  0  0  0  2  0  0  0  0  0  0
  186.7370  176.6160  143.2520 C   0  0  0  0  0  2  0  0  0  0  0  0
  188.9150  176.4460  144.2890 C   0  0  0  0  0  0  0  0  0  0  0  0
  189.1420  172.4470  140.7510 C   0  0  1  0  0  3  0  0  0  0  0  0
  187.9150  175.7280  140.0910 O   0  0  0  0  0  0  0  0  0  0  0  0
  188.5170  173.4730  139.9430 N   0  0  0  0  0  0  0  0  0  0  0  0
  186.3940  176.5310  141.7590 C   0  0  0  0  0  2  0  0  0  0  0  0
  190.9620  171.0590  139.3910 C   0  0  0  0  0  0  0  0  0  0  0  0
  190.1080  171.6760  139.9720 C   0  0  0  0  0  0  0  0  0  0  0  0
  192.0030  170.3630  138.7650 N   0  0  0  0  0  2  0  0  0  0  0  0
  195.8040  168.9750  140.5480 O   0  0  0  0  0  1  0  0  0  0  0  0
  194.9520  170.0860  136.8420 C   0  0  2  0  0  3  0  0  0  0  0  0
  194.9500  173.6910  136.5510 C   0  0  0  0  0  2  0  0  0  0  0  0
  194.6570  173.1330  137.7230 C   0  0  0  0  0  0  0  0  0  0  0  0
  196.8390  172.7830  138.8090 C   0  0  0  0  0  2  0  0  0  0  0  0
  193.4270  169.9390  136.6540 C   0  0  1  0  0  0  0  0  0  0  0  0
  195.4880  173.4630  138.9170 C   0  0  0  0  0  2  0  0  0  0  0  0
  193.0310  171.4430  136.8050 C   0  0  1  0  0  0  0  0  0  0  0  0
  196.7080  169.1310  138.3330 C   0  0  0  0  0  2  0  0  0  0  0  0
  197.2260  172.1450  140.1070 C   0  0  0  0  0  0  0  0  0  0  0  0
  197.5050  170.6640  140.1570 C   0  0  1  0  0  3  0  0  0  0  0  0
  195.5560  168.8040  137.3680 C   0  0  1  0  0  3  0  0  0  0  0  0
  192.0780  170.4180  137.3050 C   0  0  2  0  0  3  0  0  0  0  0  0
  197.4240  172.8490  141.0860 O   0  0  0  0  0  0  0  0  0  0  0  0
  193.6110  172.2110  137.8700 O   0  0  0  0  0  0  0  0  0  0  0  0
  194.1910  169.2760  137.8210 C   0  0  1  0  0  3  0  0  0  0  0  0
  197.8370  170.2550  141.4520 O   0  0  0  0  0  1  0  0  0  0  0  0
  196.3120  169.8750  139.6100 C   0  0  2  0  0  3  0  0  0  0  0  0
  190.9570  173.5940  137.0970 C   0  0  0  0  0  2  0  0  0  0  0  0
  188.8690  174.4020  135.9400 C   0  0  0  0  0  2  0  0  0  0  0  0
  191.4690  173.1280  135.7610 C   0  0  0  0  0  0  0  0  0  0  0  0
  189.4010  173.8680  134.5970 C   0  0  0  0  0  2  0  0  0  0  0  0
  189.9790  174.7570  136.9390 C   0  0  0  0  0  2  0  0  0  0  0  0
  190.9250  173.7560  134.5150 C   0  0  0  0  0  2  0  0  0  0  0  0
  192.4130  172.1810  135.6510 C   0  0  0  0  0  3  0  0  0  0  0  0
  188.6010  176.9900  147.0330 O   0  0  0  0  0  0  0  0  0  0  0  0
  189.7110  177.1760  146.4660 C   0  0  0  0  0  0  0  0  0  0  0  0
  194.3820  170.7320  144.5110 C   0  0  2  0  0  3  0  0  0  0  0  0
  191.1130  176.5800  148.3460 O   0  0  0  0  0  0  0  0  0  0  0  0
  194.1880  175.3700  145.7660 C   0  0  1  0  0  3  0  0  0  0  0  0
  192.9540  170.3820  144.1720 C   0  0  0  0  0  2  0  0  0  0  0  0
  192.3290  171.5100  143.6140 O   0  0  0  0  0  0  0  0  0  0  0  0
  190.9030  177.5210  147.3140 C   0  0  1  0  0  3  0  0  0  0  0  0
  195.4530  172.8830  144.1120 N   0  0  0  0  0  2  0  0  0  0  0  0
  193.2870  173.7380  143.5690 C   0  0  1  0  0  3  0  0  0  0  0  0
  191.9800  176.4960  147.2410 C   0  0  2  0  0  0  0  0  0  0  0  0
  192.6960  173.7420  144.8520 O   0  0  0  0  0  0  0  0  0  0  0  0
  194.7700  174.0790  143.6530 C   0  0  1  0  0  3  0  0  0  0  0  0
  194.7100  171.7840  143.4970 C   0  0  2  0  0  3  0  0  0  0  0  0
  191.8100  175.1510  146.5430 C   0  0  0  0  0  2  0  0  0  0  0  0
  193.3520  172.3060  143.0600 C   0  0  1  0  0  3  0  0  0  0  0  0
  193.3930  176.9150  147.5980 C   0  0  0  0  0  2  0  0  0  0  0  0
  192.7450  175.0540  145.3500 C   0  0  1  0  0  3  0  0  0  0  0  0
  195.0740  175.3030  144.5280 C   0  0  0  0  0  2  0  0  0  0  0  0
  194.2820  176.7740  146.3620 C   0  0  0  0  0  2  0  0  0  0  0  0
  195.2200  169.5630  144.3160 N   0  0  0  0  0  2  0  0  0  0  0  0
  196.9770  168.6600  145.7160 C   0  0  0  0  0  2  0  0  0  0  0  0
  196.4070  169.8810  146.4040 C   0  0  0  0  0  2  0  0  0  0  0  0
  196.5250  169.8520  144.8970 C   0  0  0  0  0  3  0  0  0  0  0  0
  1  6  1  0  0  0  0
  2  6  1  0  0  0  0
  3 43  1  0  0  0  0
  4  5  1  0  0  0  0
  5  9  2  0  0  0  0
  6  4  1  1  0  0  0
  7 13  1  0  0  0  0
  8  5  1  0  0  0  0
  9  3  2  0  0  0  0
 10 15  1  6  0  0  0
 10  2  1  0  0  0  0
 11  1  1  0  0  0  0
 11  7  1  0  0  0  0
 12  1  2  0  0  0  0
 12 10  1  0  0  0  0
 13  8  1  0  0  0  0
 14 15  3  0  0  0  0
 16 14  1  0  0  0  0
 18 28  1  0  0  0  0
 18 32  1  0  0  0  0
 19 20  2  0  0  0  0
 20 31  1  0  0  0  0
 20 23  1  0  0  0  0
 21 23  1  0  0  0  0
 21 26  1  0  0  0  0
 22 24  1  0  0  0  0
 22 18  1  0  0  0  0
 22 29  1  0  0  0  0
 22 32  1  0  0  0  0
 24 29  1  0  0  0  0
 24 31  1  0  0  0  0
 25 34  1  0  0  0  0
 26 27  1  0  0  0  0
 26 30  2  0  0  0  0
 27 33  1  0  0  0  0
 28 32  1  0  0  0  0
 28 25  1  0  0  0  0
 29 16  1  0  0  0  0
 34 27  1  0  0  0  0
 34 17  1  0  0  0  0
 36 39  1  0  0  0  0
 37 35  1  0  0  0  0
 38 36  1  0  0  0  0
 39 35  1  0  0  0  0
 40 38  1  0  0  0  0
 40 37  1  0  0  0  0
 41 37  2  0  0  0  0
 41 24  1  0  0  0  0
 43 42  2  0  0  0  0
 43 49  1  0  0  0  0
 46 61  1  0  0  0  0
 47 44  1  0  0  0  0
 48 47  1  0  0  0  0
 49 45  1  0  0  0  0
 51 54  1  0  0  0  0
 51 53  1  0  0  0  0
 52 49  1  0  0  0  0
 52 58  1  0  0  0  0
 52 45  1  0  0  0  0
 53 59  1  0  0  0  0
 54 50  1  0  0  0  0
 54 60  1  0  0  0  0
 55 50  1  0  0  0  0
 55 44  1  0  0  0  0
 56 52  1  0  0  0  0
 57 55  1  0  0  0  0
 57 51  1  0  0  0  0
 57 48  1  0  0  0  0
 59 46  1  0  0  0  0
 59 56  1  0  0  0  0
 60 46  1  0  0  0  0
 61 58  1  0  0  0  0
 62 44  1  0  0  0  0
 62 65  1  0  0  0  0
 63 64  1  0  0  0  0
 65 63  1  0  0  0  0
 65 64  1  0  0  0  0
M  END
>  <MODEL>
3

>  <REMARK>
 VINA RESULT:      -8.6      2.733      7.433
  Name = 
  8 active torsions:
  status: ('A' for Active; 'I' for Inactive)
    1  A    between atoms: C_2  and  N_16
    2  A    between atoms: C_7  and  N_60
    3  A    between atoms: N_16  and  C_58
    4  A    between atoms: C_17  and  C_19
    5  A    between atoms: C_19  and  C_21
    6  A    between atoms: C_27  and  C_50
    7  A    between atoms: C_29  and  C_62
    8  A    between atoms: C_45  and  N_60
                            x       y       z     vdW  Elec       q    Type
                         _______ _______ _______ _____ _____    ______ ____

>  <TORSDO>
F 8

$$$$
=
 OpenBabel11042418073D

 65 77  0  0  1  0  0  0  0  0999 V2000
  189.4560  173.3400  139.6750 C   0  0  0  0  0  0  0  0  0  0  0  0
  191.3390  173.4180  141.0410 N   0  0  0  0  0  2  0  0  0  0  0  0
  193.2570  170.7020  137.2630 C   0  0  0  0  0  3  0  0  0  0  0  0
  191.7110  173.6680  138.6490 C   0  0  0  0  0  2  0  0  0  0  0  0
  191.7730  172.8480  137.4060 C   0  0  0  0  0  0  0  0  0  0  0  0
  190.8950  172.9540  139.7270 C   0  0  2  0  0  3  0  0  0  0  0  0
  188.9000  172.4070  137.4450 C   0  0  0  0  0  2  0  0  0  0  0  0
  190.9490  173.2200  136.2100 C   0  0  0  0  0  2  0  0  0  0  0  0
  192.5160  171.7730  137.3510 C   0  0  0  0  0  0  0  0  0  0  0  0
  190.2870  174.3380  141.4760 C   0  0  1  0  0  3  0  0  0  0  0  0
  188.5250  172.9510  138.7040 O   0  0  0  0  0  0  0  0  0  0  0  0
  189.1130  174.0720  140.6710 N   0  0  0  0  0  0  0  0  0  0  0  0
  189.4900  173.5120  136.5850 C   0  0  0  0  0  2  0  0  0  0  0  0
  189.7590  174.1080  144.0760 C   0  0  0  0  0  0  0  0  0  0  0  0
  190.0010  174.1650  142.8980 C   0  0  0  0  0  0  0  0  0  0  0  0
  189.4790  174.1140  145.4480 N   0  0  0  0  0  2  0  0  0  0  0  0
  185.5560  176.0620  144.8410 O   0  0  0  0  0  1  0  0  0  0  0  0
  188.8990  177.4480  146.4540 C   0  0  2  0  0  3  0  0  0  0  0  0
  191.2250  178.4930  143.8900 C   0  0  0  0  0  2  0  0  0  0  0  0
  190.3440  177.5350  143.6160 C   0  0  0  0  0  0  0  0  0  0  0  0
  188.3220  178.7350  142.8880 C   0  0  0  0  0  2  0  0  0  0  0  0
  189.7360  176.2310  146.9010 C   0  0  1  0  0  0  0  0  0  0  0  0
  189.3810  177.7250  142.4930 C   0  0  0  0  0  2  0  0  0  0  0  0
  190.7530  176.2040  145.7150 C   0  0  1  0  0  0  0  0  0  0  0  0
  186.4990  177.9430  145.9910 C   0  0  0  0  0  2  0  0  0  0  0  0
  186.9550  178.2610  142.5000 C   0  0  0  0  0  0  0  0  0  0  0  0
  185.8930  178.0980  143.5590 C   0  0  1  0  0  3  0  0  0  0  0  0
  187.4970  177.3730  147.0140 C   0  0  1  0  0  3  0  0  0  0  0  0
  190.3490  174.9060  146.3170 C   0  0  2  0  0  3  0  0  0  0  0  0
  186.6820  178.1220  141.3180 O   0  0  0  0  0  0  0  0  0  0  0  0
  190.2630  176.3580  144.3750 O   0  0  0  0  0  0  0  0  0  0  0  0
  188.2330  176.1300  146.5610 C   0  0  1  0  0  3  0  0  0  0  0  0
  184.6940  177.6370  143.0060 O   0  0  0  0  0  1  0  0  0  0  0  0
  186.3860  177.1730  144.6750 C   0  0  2  0  0  3  0  0  0  0  0  0
  192.9600  174.5790  144.4880 C   0  0  0  0  0  2  0  0  0  0  0  0
  195.2070  173.6280  145.1170 C   0  0  0  0  0  2  0  0  0  0  0  0
  193.2130  175.7100  145.4480 C   0  0  0  0  0  0  0  0  0  0  0  0
  195.4130  174.7710  146.1280 C   0  0  0  0  0  2  0  0  0  0  0  0
  194.2700  173.9980  143.9590 C   0  0  0  0  0  2  0  0  0  0  0  0
  194.6260  176.0460  145.8170 C   0  0  0  0  0  2  0  0  0  0  0  0
  192.2160  176.4400  145.9690 C   0  0  0  0  0  3  0  0  0  0  0  0
  194.8400  169.8340  135.7280 O   0  0  0  0  0  0  0  0  0  0  0  0
  194.5640  170.7150  136.5850 C   0  0  0  0  0  0  0  0  0  0  0  0
  194.6460  169.8340  144.7330 C   0  0  2  0  0  3  0  0  0  0  0  0
  195.0570  172.8390  137.6340 O   0  0  0  0  0  0  0  0  0  0  0  0
  197.1050  170.9150  140.7450 C   0  0  1  0  0  3  0  0  0  0  0  0
  193.3570  169.2410  144.2210 C   0  0  0  0  0  2  0  0  0  0  0  0
  193.6170  168.5470  143.0270 O   0  0  0  0  0  0  0  0  0  0  0  0
  195.5960  171.7640  136.8960 C   0  0  1  0  0  3  0  0  0  0  0  0
  196.8360  169.5900  143.6930 N   0  0  0  0  0  2  0  0  0  0  0  0
  195.7150  168.6280  141.8130 C   0  0  1  0  0  3  0  0  0  0  0  0
  195.8400  171.9200  138.3550 C   0  0  2  0  0  0  0  0  0  0  0  0
  195.0770  169.7770  141.2930 O   0  0  0  0  0  0  0  0  0  0  0  0
  197.0770  168.9810  142.3970 C   0  0  1  0  0  3  0  0  0  0  0  0
  195.6740  168.8730  144.2190 C   0  0  2  0  0  3  0  0  0  0  0  0
  194.9930  171.2360  139.4240 C   0  0  0  0  0  2  0  0  0  0  0  0
  194.9760  168.1760  143.0630 C   0  0  1  0  0  3  0  0  0  0  0  0
  197.1560  172.5260  138.8010 C   0  0  0  0  0  2  0  0  0  0  0  0
  195.8350  170.2430  140.2080 C   0  0  1  0  0  3  0  0  0  0  0  0
  197.9330  169.8670  141.4810 C   0  0  0  0  0  2  0  0  0  0  0  0
  197.9410  171.4830  139.5980 C   0  0  0  0  0  2  0  0  0  0  0  0
  194.6320  169.8280  146.1840 N   0  0  0  0  0  2  0  0  0  0  0  0
  194.8730  168.4080  148.1300 C   0  0  0  0  0  2  0  0  0  0  0  0
  196.2450  168.6210  147.5300 C   0  0  0  0  0  2  0  0  0  0  0  0
  195.0380  168.5000  146.6270 C   0  0  0  0  0  3  0  0  0  0  0  0
  1  6  1  0  0  0  0
  1 12  2  0  0  0  0
  2 10  1  0  0  0  0
  3  9  2  0  0  0  0
  5  4  1  0  0  0  0
  6  4  1  6  0  0  0
  6  2  1  0  0  0  0
  7 11  1  0  0  0  0
  8 13  1  0  0  0  0
  8  5  1  0  0  0  0
  9  5  2  0  0  0  0
 10 15  1  1  0  0  0
 11  1  1  0  0  0  0
 12 10  1  0  0  0  0
 13  7  1  0  0  0  0
 14 16  1  0  0  0  0
 15 14  3  0  0  0  0
 16 29  1  0  0  0  0
 18 32  1  0  0  0  0
 18 22  1  0  0  0  0
 18 28  1  0  0  0  0
 20 19  2  0  0  0  0
 20 31  1  0  0  0  0
 23 21  1  0  0  0  0
 23 20  1  0  0  0  0
 24 41  1  0  0  0  0
 24 29  1  0  0  0  0
 24 22  1  0  0  0  0
 25 28  1  0  0  0  0
 26 21  1  0  0  0  0
 26 27  1  0  0  0  0
 27 34  1  0  0  0  0
 29 22  1  0  0  0  0
 30 26  2  0  0  0  0
 31 24  1  0  0  0  0
 32 22  1  0  0  0  0
 32 28  1  0  0  0  0
 33 27  1  0  0  0  0
 34 17  1  0  0  0  0
 34 25  1  0  0  0  0
 35 37  1  0  0  0  0
 36 38  1  0  0  0  0
 37 40  1  0  0  0  0
 37 41  2  0  0  0  0
 39 35  1  0  0  0  0
 39 36  1  0  0  0  0
 40 38  1  0  0  0  0
 42 43  2  0  0  0  0
 43 49  1  0  0  0  0
 43  3  1  0  0  0  0
 44 62  1  0  0  0  0
 45 52  1  0  0  0  0
 46 60  1  0  0  0  0
 47 44  1  0  0  0  0
 48 57  1  0  0  0  0
 48 47  1  0  0  0  0
 49 45  1  0  0  0  0
 49 52  1  0  0  0  0
 50 55  1  0  0  0  0
 51 54  1  0  0  0  0
 51 57  1  0  0  0  0
 52 58  1  0  0  0  0
 52 56  1  0  0  0  0
 53 51  1  0  0  0  0
 54 50  1  0  0  0  0
 55 44  1  0  0  0  0
 56 59  1  0  0  0  0
 57 55  1  0  0  0  0
 58 61  1  0  0  0  0
 59 46  1  0  0  0  0
 59 53  1  0  0  0  0
 60 54  1  0  0  0  0
 61 46  1  0  0  0  0
 62 65  1  0  0  0  0
 64 63  1  0  0  0  0
 65 64  1  0  0  0  0
 65 63  1  0  0  0  0
M  END
>  <MODEL>
4

>  <REMARK>
 VINA RESULT:      -7.8      2.394      9.132
  Name = 
  8 active torsions:
  status: ('A' for Active; 'I' for Inactive)
    1  A    between atoms: C_2  and  N_16
    2  A    between atoms: C_7  and  N_60
    3  A    between atoms: N_16  and  C_58
    4  A    between atoms: C_17  and  C_19
    5  A    between atoms: C_19  and  C_21
    6  A    between atoms: C_27  and  C_50
    7  A    between atoms: C_29  and  C_62
    8  A    between atoms: C_45  and  N_60
                            x       y       z     vdW  Elec       q    Type
                         _______ _______ _______ _____ _____    ______ ____

>  <TORSDO>
F 8

$$$$
=
 OpenBabel11042418073D

 65 77  0  0  1  0  0  0  0  0999 V2000
  188.1070  175.3580  140.9700 C   0  0  0  0  0  0  0  0  0  0  0  0
  189.4410  173.4570  141.1230 N   0  0  0  0  0  2  0  0  0  0  0  0
  191.6610  176.2270  144.6900 C   0  0  0  0  0  3  0  0  0  0  0  0
  188.8220  174.5310  143.2170 C   0  0  0  0  0  2  0  0  0  0  0  0
  189.1810  175.7150  144.0500 C   0  0  0  0  0  0  0  0  0  0  0  0
  189.2210  174.7560  141.7580 C   0  0  2  0  0  3  0  0  0  0  0  0
  187.9570  177.5380  142.1450 C   0  0  0  0  0  2  0  0  0  0  0  0
  188.1190  176.6670  144.5110 C   0  0  0  0  0  2  0  0  0  0  0  0
  190.4270  175.9620  144.3570 C   0  0  0  0  0  0  0  0  0  0  0  0
  188.2460  173.2450  140.3040 C   0  0  1  0  0  3  0  0  0  0  0  0
  187.6490  176.6790  141.0540 O   0  0  0  0  0  0  0  0  0  0  0  0
  187.5990  174.5290  140.1340 N   0  0  0  0  0  0  0  0  0  0  0  0
  187.1820  177.0810  143.3690 C   0  0  0  0  0  2  0  0  0  0  0  0
  188.8100  172.1360  137.9500 C   0  0  0  0  0  0  0  0  0  0  0  0
  188.5980  172.6560  139.0150 C   0  0  0  0  0  0  0  0  0  0  0  0
  188.9920  171.4970  136.7180 N   0  0  0  0  0  2  0  0  0  0  0  0
  191.9660  168.2870  137.3550 O   0  0  0  0  0  1  0  0  0  0  0  0
  192.0710  171.4640  134.9900 C   0  0  2  0  0  3  0  0  0  0  0  0
  193.0030  174.4210  136.8520 C   0  0  0  0  0  2  0  0  0  0  0  0
  192.3830  173.4250  137.4810 C   0  0  0  0  0  0  0  0  0  0  0  0
  194.1890  171.8950  138.1570 C   0  0  0  0  0  2  0  0  0  0  0  0
  190.6130  171.9130  134.7540 C   0  0  1  0  0  0  0  0  0  0  0  0
  193.0480  172.7680  138.6430 C   0  0  0  0  0  2  0  0  0  0  0  0
  190.5780  173.1140  135.7520 C   0  0  1  0  0  0  0  0  0  0  0  0
  193.2520  169.3680  135.6450 C   0  0  0  0  0  2  0  0  0  0  0  0
  194.1760  170.5620  138.8410 C   0  0  0  0  0  0  0  0  0  0  0  0
  194.0700  169.3030  138.0180 C   0  0  1  0  0  3  0  0  0  0  0  0
  192.2410  169.9960  134.6700 C   0  0  1  0  0  3  0  0  0  0  0  0
  189.3310  172.3280  135.5630 C   0  0  2  0  0  3  0  0  0  0  0  0
  194.3660  170.5050  140.0460 O   0  0  0  0  0  0  0  0  0  0  0  0
  191.1340  172.9430  137.0650 O   0  0  0  0  0  0  0  0  0  0  0  0
  190.9760  170.5210  135.3160 C   0  0  1  0  0  3  0  0  0  0  0  0
  194.0610  168.1660  138.8330 O   0  0  0  0  0  1  0  0  0  0  0  0
  192.8350  169.3530  137.1160 C   0  0  2  0  0  3  0  0  0  0  0  0
  188.2900  174.8800  136.5660 C   0  0  0  0  0  2  0  0  0  0  0  0
  186.7370  176.5820  135.5460 C   0  0  0  0  0  2  0  0  0  0  0  0
  189.3430  175.3070  135.5790 C   0  0  0  0  0  0  0  0  0  0  0  0
  187.8190  176.9600  134.5180 C   0  0  0  0  0  2  0  0  0  0  0  0
  187.3080  176.0140  136.8520 C   0  0  0  0  0  2  0  0  0  0  0  0
  189.2530  176.6720  134.9660 C   0  0  0  0  0  2  0  0  0  0  0  0
  190.3710  174.5130  135.2450 C   0  0  0  0  0  3  0  0  0  0  0  0
  192.3740  176.8130  146.8730 O   0  0  0  0  0  0  0  0  0  0  0  0
  192.1950  175.9000  146.0230 C   0  0  0  0  0  0  0  0  0  0  0  0
  196.8140  174.0860  139.5010 C   0  0  2  0  0  3  0  0  0  0  0  0
  191.9910  173.5450  145.5040 O   0  0  0  0  0  0  0  0  0  0  0  0
  195.9680  173.4140  144.1870 C   0  0  1  0  0  3  0  0  0  0  0  0
  195.9550  175.2720  139.1390 C   0  0  0  0  0  2  0  0  0  0  0  0
  195.8860  176.1380  140.2430 O   0  0  0  0  0  0  0  0  0  0  0  0
  192.5400  174.4860  146.4010 C   0  0  1  0  0  3  0  0  0  0  0  0
  197.9410  173.7430  141.6330 N   0  0  0  0  0  2  0  0  0  0  0  0
  196.6960  175.6080  142.4660 C   0  0  1  0  0  3  0  0  0  0  0  0
  193.3680  173.7990  145.3740 C   0  0  2  0  0  0  0  0  0  0  0  0
  195.4060  175.0350  142.5240 O   0  0  0  0  0  0  0  0  0  0  0  0
  197.7640  174.5760  142.8100 C   0  0  1  0  0  3  0  0  0  0  0  0
  197.7590  174.6620  140.5100 C   0  0  2  0  0  3  0  0  0  0  0  0
  193.6640  174.3940  144.0020 C   0  0  0  0  0  2  0  0  0  0  0  0
  197.0410  175.9030  141.0140 C   0  0  1  0  0  3  0  0  0  0  0  0
  194.2060  172.6110  145.8060 C   0  0  0  0  0  2  0  0  0  0  0  0
  195.1510  174.6690  143.8550 C   0  0  1  0  0  3  0  0  0  0  0  0
  197.4500  173.7560  144.0690 C   0  0  0  0  0  2  0  0  0  0  0  0
  195.6850  172.9480  145.6140 C   0  0  0  0  0  2  0  0  0  0  0  0
  197.5400  173.6430  138.3250 N   0  0  0  0  0  2  0  0  0  0  0  0
  196.9620  173.2400  136.0080 C   0  0  0  0  0  2  0  0  0  0  0  0
  197.9120  174.4180  136.0590 C   0  0  0  0  0  2  0  0  0  0  0  0
  196.8890  174.2260  137.1570 C   0  0  0  0  0  3  0  0  0  0  0  0
  1 11  1  0  0  0  0
  1  6  1  0  0  0  0
  2  6  1  0  0  0  0
  3 43  1  0  0  0  0
  4  5  1  0  0  0  0
  5  9  2  0  0  0  0
  5  8  1  0  0  0  0
  6  4  1  1  0  0  0
  7 13  1  0  0  0  0
  9  3  2  0  0  0  0
 10 15  1  6  0  0  0
 10  2  1  0  0  0  0
 11  7  1  0  0  0  0
 12 10  1  0  0  0  0
 12  1  2  0  0  0  0
 13  8  1  0  0  0  0
 14 15  3  0  0  0  0
 16 14  1  0  0  0  0
 18 32  1  0  0  0  0
 19 20  2  0  0  0  0
 20 23  1  0  0  0  0
 21 23  1  0  0  0  0
 21 26  1  0  0  0  0
 22 18  1  0  0  0  0
 22 32  1  0  0  0  0
 22 29  1  0  0  0  0
 22 24  1  0  0  0  0
 24 31  1  0  0  0  0
 25 34  1  0  0  0  0
 26 30  2  0  0  0  0
 27 33  1  0  0  0  0
 27 26  1  0  0  0  0
 28 18  1  0  0  0  0
 28 32  1  0  0  0  0
 28 25  1  0  0  0  0
 29 24  1  0  0  0  0
 29 16  1  0  0  0  0
 31 20  1  0  0  0  0
 34 17  1  0  0  0  0
 34 27  1  0  0  0  0
 35 39  1  0  0  0  0
 36 39  1  0  0  0  0
 37 35  1  0  0  0  0
 38 40  1  0  0  0  0
 38 36  1  0  0  0  0
 40 37  1  0  0  0  0
 41 37  2  0  0  0  0
 41 24  1  0  0  0  0
 43 49  1  0  0  0  0
 43 42  2  0  0  0  0
 44 55  1  0  0  0  0
 45 49  1  0  0  0  0
 46 61  1  0  0  0  0
 47 44  1  0  0  0  0
 47 48  1  0  0  0  0
 48 57  1  0  0  0  0
 50 54  1  0  0  0  0
 51 53  1  0  0  0  0
 51 54  1  0  0  0  0
 52 45  1  0  0  0  0
 52 58  1  0  0  0  0
 52 49  1  0  0  0  0
 53 59  1  0  0  0  0
 54 60  1  0  0  0  0
 55 57  1  0  0  0  0
 55 50  1  0  0  0  0
 56 52  1  0  0  0  0
 57 51  1  0  0  0  0
 59 56  1  0  0  0  0
 59 46  1  0  0  0  0
 60 46  1  0  0  0  0
 61 58  1  0  0  0  0
 62 44  1  0  0  0  0
 63 64  1  0  0  0  0
 63 65  1  0  0  0  0
 64 65  1  0  0  0  0
 65 62  1  0  0  0  0
M  END
>  <MODEL>
5

>  <REMARK>
 VINA RESULT:      -7.6      3.278      8.994
  Name = 
  8 active torsions:
  status: ('A' for Active; 'I' for Inactive)
    1  A    between atoms: C_2  and  N_16
    2  A    between atoms: C_7  and  N_60
    3  A    between atoms: N_16  and  C_58
    4  A    between atoms: C_17  and  C_19
    5  A    between atoms: C_19  and  C_21
    6  A    between atoms: C_27  and  C_50
    7  A    between atoms: C_29  and  C_62
    8  A    between atoms: C_45  and  N_60
                            x       y       z     vdW  Elec       q    Type
                         _______ _______ _______ _____ _____    ______ ____

>  <TORSDO>
F 8

$$$$
=
 OpenBabel11042418073D

 65 77  0  0  1  0  0  0  0  0999 V2000
  195.2640  169.9590  143.0160 C   0  0  0  0  0  0  0  0  0  0  0  0
  193.4670  170.5030  141.6400 N   0  0  0  0  0  2  0  0  0  0  0  0
  197.1660  170.9280  138.2540 C   0  0  0  0  0  3  0  0  0  0  0  0
  195.1970  169.0900  140.6730 C   0  0  0  0  0  2  0  0  0  0  0  0
  196.5740  169.1860  140.1080 C   0  0  0  0  0  0  0  0  0  0  0  0
  194.9110  170.2720  141.6010 C   0  0  2  0  0  3  0  0  0  0  0  0
  197.7140  169.6870  142.7350 C   0  0  0  0  0  2  0  0  0  0  0  0
  197.6680  168.3000  140.6230 C   0  0  0  0  0  2  0  0  0  0  0  0
  196.8570  170.0670  139.1850 C   0  0  0  0  0  0  0  0  0  0  0  0
  193.0460  169.9550  142.9300 C   0  0  1  0  0  3  0  0  0  0  0  0
  196.5560  169.8500  143.5440 O   0  0  0  0  0  0  0  0  0  0  0  0
  194.2270  169.8280  143.7590 N   0  0  0  0  0  0  0  0  0  0  0  0
  197.7200  168.2820  142.1570 C   0  0  0  0  0  2  0  0  0  0  0  0
  191.2690  171.5960  144.0430 C   0  0  0  0  0  0  0  0  0  0  0  0
  192.0500  170.8180  143.5610 C   0  0  0  0  0  0  0  0  0  0  0  0
  190.4000  172.5560  144.5760 N   0  0  0  0  0  2  0  0  0  0  0  0
  194.5750  173.7670  143.7690 O   0  0  0  0  0  1  0  0  0  0  0  0
  191.1580  175.2440  142.4150 C   0  0  2  0  0  3  0  0  0  0  0  0
  189.6610  177.4590  144.8500 C   0  0  0  0  0  2  0  0  0  0  0  0
  190.4480  176.4710  145.2680 C   0  0  0  0  0  0  0  0  0  0  0  0
  192.7250  177.4030  145.1690 C   0  0  0  0  0  2  0  0  0  0  0  0
  190.0860  174.1420  142.5640 C   0  0  1  0  0  0  0  0  0  0  0  0
  191.6660  176.7940  146.0670 C   0  0  0  0  0  2  0  0  0  0  0  0
  189.3840  174.6800  143.8530 C   0  0  1  0  0  0  0  0  0  0  0  0
  193.6430  175.3620  142.2410 C   0  0  0  0  0  2  0  0  0  0  0  0
  194.0700  176.8040  145.4400 C   0  0  0  0  0  0  0  0  0  0  0  0
  194.8210  176.1180  144.3260 C   0  0  1  0  0  3  0  0  0  0  0  0
  192.3650  174.7230  141.6700 C   0  0  1  0  0  3  0  0  0  0  0  0
  189.4610  173.2070  143.6630 C   0  0  2  0  0  3  0  0  0  0  0  0
  194.5950  176.9760  146.5300 O   0  0  0  0  0  0  0  0  0  0  0  0
  190.1930  175.1290  144.9500 O   0  0  0  0  0  0  0  0  0  0  0  0
  191.6010  173.8490  142.6410 C   0  0  1  0  0  3  0  0  0  0  0  0
  196.0460  175.6150  144.7760 O   0  0  0  0  0  1  0  0  0  0  0  0
  193.9620  175.0190  143.6970 C   0  0  2  0  0  3  0  0  0  0  0  0
  188.3200  176.7650  141.9730 C   0  0  0  0  0  2  0  0  0  0  0  0
  186.6540  178.6550  141.9640 C   0  0  0  0  0  2  0  0  0  0  0  0
  187.4590  176.0620  142.9870 C   0  0  0  0  0  0  0  0  0  0  0  0
  185.8220  177.9330  143.0400 C   0  0  0  0  0  2  0  0  0  0  0  0
  187.4910  177.7040  141.0990 C   0  0  0  0  0  2  0  0  0  0  0  0
  186.0050  176.4140  143.0730 C   0  0  0  0  0  2  0  0  0  0  0  0
  187.9470  175.1170  143.8030 C   0  0  0  0  0  3  0  0  0  0  0  0
  196.9160  169.3880  136.4710 O   0  0  0  0  0  0  0  0  0  0  0  0
  197.2760  170.5380  136.8390 C   0  0  0  0  0  0  0  0  0  0  0  0
  190.2430  174.3150  134.9880 C   0  0  2  0  0  3  0  0  0  0  0  0
  197.3010  171.2260  134.5190 O   0  0  0  0  0  0  0  0  0  0  0  0
  195.0220  174.6250  135.4220 C   0  0  1  0  0  3  0  0  0  0  0  0
  189.8980  173.0010  135.6420 C   0  0  0  0  0  2  0  0  0  0  0  0
  190.7900  172.7730  136.7040 O   0  0  0  0  0  0  0  0  0  0  0  0
  197.8170  171.4870  135.8060 C   0  0  1  0  0  3  0  0  0  0  0  0
  192.0210  175.8290  135.6830 N   0  0  0  0  0  2  0  0  0  0  0  0
  192.7750  174.0940  137.1470 C   0  0  1  0  0  3  0  0  0  0  0  0
  196.7610  172.3360  135.1920 C   0  0  2  0  0  0  0  0  0  0  0  0
  193.2860  173.1790  136.2000 O   0  0  0  0  0  0  0  0  0  0  0  0
  193.0160  175.5310  136.6990 C   0  0  1  0  0  3  0  0  0  0  0  0
  190.8300  175.1010  136.1200 C   0  0  2  0  0  3  0  0  0  0  0  0
  195.2710  172.1270  135.4360 C   0  0  0  0  0  2  0  0  0  0  0  0
  191.2550  174.0370  137.1190 C   0  0  1  0  0  3  0  0  0  0  0  0
  197.1780  173.6450  134.5480 C   0  0  0  0  0  2  0  0  0  0  0  0
  194.6810  173.3250  136.1610 C   0  0  1  0  0  3  0  0  0  0  0  0
  194.4480  175.7960  136.2140 C   0  0  0  0  0  2  0  0  0  0  0  0
  196.5360  174.8030  135.3130 C   0  0  0  0  0  2  0  0  0  0  0  0
  189.0250  174.9480  134.5130 N   0  0  0  0  0  2  0  0  0  0  0  0
  187.1290  176.2540  135.2600 C   0  0  0  0  0  2  0  0  0  0  0  0
  188.2640  177.2060  134.9510 C   0  0  0  0  0  2  0  0  0  0  0  0
  188.5590  175.8520  135.5570 C   0  0  0  0  0  3  0  0  0  0  0  0
  1 11  1  0  0  0  0
  1 12  2  0  0  0  0
  2 10  1  0  0  0  0
  3  9  2  0  0  0  0
  5  8  1  0  0  0  0
  5  4  1  0  0  0  0
  6  4  1  6  0  0  0
  6  2  1  0  0  0  0
  6  1  1  0  0  0  0
  7 11  1  0  0  0  0
  8 13  1  0  0  0  0
  9  5  2  0  0  0  0
 10 15  1  1  0  0  0
 10 12  1  0  0  0  0
 13  7  1  0  0  0  0
 14 16  1  0  0  0  0
 15 14  3  0  0  0  0
 18 22  1  0  0  0  0
 18 32  1  0  0  0  0
 19 20  2  0  0  0  0
 20 23  1  0  0  0  0
 21 26  1  0  0  0  0
 21 23  1  0  0  0  0
 22 32  1  0  0  0  0
 22 29  1  0  0  0  0
 22 24  1  0  0  0  0
 24 31  1  0  0  0  0
 25 34  1  0  0  0  0
 26 30  2  0  0  0  0
 27 33  1  0  0  0  0
 27 26  1  0  0  0  0
 28 25  1  0  0  0  0
 28 18  1  0  0  0  0
 28 32  1  0  0  0  0
 29 24  1  0  0  0  0
 29 16  1  0  0  0  0
 31 20  1  0  0  0  0
 34 17  1  0  0  0  0
 34 27  1  0  0  0  0
 35 37  1  0  0  0  0
 36 38  1  0  0  0  0
 37 40  1  0  0  0  0
 37 41  2  0  0  0  0
 38 40  1  0  0  0  0
 39 36  1  0  0  0  0
 39 35  1  0  0  0  0
 41 24  1  0  0  0  0
 42 43  2  0  0  0  0
 43  3  1  0  0  0  0
 44 47  1  0  0  0  0
 44 55  1  0  0  0  0
 45 52  1  0  0  0  0
 45 49  1  0  0  0  0
 46 59  1  0  0  0  0
 46 60  1  0  0  0  0
 47 48  1  0  0  0  0
 48 57  1  0  0  0  0
 49 43  1  0  0  0  0
 50 55  1  0  0  0  0
 50 54  1  0  0  0  0
 52 56  1  0  0  0  0
 52 49  1  0  0  0  0
 53 51  1  0  0  0  0
 54 51  1  0  0  0  0
 55 57  1  0  0  0  0
 56 59  1  0  0  0  0
 57 51  1  0  0  0  0
 58 52  1  0  0  0  0
 58 61  1  0  0  0  0
 59 53  1  0  0  0  0
 60 54  1  0  0  0  0
 61 46  1  0  0  0  0
 62 44  1  0  0  0  0
 62 65  1  0  0  0  0
 63 65  1  0  0  0  0
 64 63  1  0  0  0  0
 64 65  1  0  0  0  0
M  END
>  <MODEL>
6

>  <REMARK>
 VINA RESULT:      -7.6      3.283      9.839
  Name = 
  8 active torsions:
  status: ('A' for Active; 'I' for Inactive)
    1  A    between atoms: C_2  and  N_16
    2  A    between atoms: C_7  and  N_60
    3  A    between atoms: N_16  and  C_58
    4  A    between atoms: C_17  and  C_19
    5  A    between atoms: C_19  and  C_21
    6  A    between atoms: C_27  and  C_50
    7  A    between atoms: C_29  and  C_62
    8  A    between atoms: C_45  and  N_60
                            x       y       z     vdW  Elec       q    Type
                         _______ _______ _______ _____ _____    ______ ____

>  <TORSDO>
F 8

$$$$
=
 OpenBabel11042418073D

 65 77  0  0  1  0  0  0  0  0999 V2000
  194.7750  174.6020  144.5000 C   0  0  0  0  0  0  0  0  0  0  0  0
  193.0470  173.5140  143.3820 N   0  0  0  0  0  2  0  0  0  0  0  0
  196.8170  170.4170  142.1450 C   0  0  0  0  0  3  0  0  0  0  0  0
  194.6710  172.1050  144.5230 C   0  0  0  0  0  2  0  0  0  0  0  0
  196.0580  171.5860  144.3550 C   0  0  0  0  0  0  0  0  0  0  0  0
  194.4680  173.3800  143.7030 C   0  0  2  0  0  3  0  0  0  0  0  0
  197.1980  174.2110  144.8610 C   0  0  0  0  0  2  0  0  0  0  0  0
  197.0690  171.7570  145.4480 C   0  0  0  0  0  2  0  0  0  0  0  0
  196.4250  171.0080  143.2410 C   0  0  0  0  0  0  0  0  0  0  0  0
  192.5650  174.5510  144.2960 C   0  0  1  0  0  3  0  0  0  0  0  0
  196.0460  175.0450  144.8860 O   0  0  0  0  0  0  0  0  0  0  0  0
  193.7200  175.2720  144.7890 N   0  0  0  0  0  0  0  0  0  0  0  0
  197.0980  173.1950  145.9850 C   0  0  0  0  0  2  0  0  0  0  0  0
  190.8260  176.1970  143.1320 C   0  0  0  0  0  0  0  0  0  0  0  0
  191.6340  175.4490  143.6160 C   0  0  0  0  0  0  0  0  0  0  0  0
  189.8490  177.0680  142.6320 N   0  0  0  0  0  2  0  0  0  0  0  0
  189.8810  173.3550  140.2320 O   0  0  0  0  0  1  0  0  0  0  0  0
  186.9330  175.1240  142.1980 C   0  0  2  0  0  3  0  0  0  0  0  0
  185.5550  177.8520  140.2650 C   0  0  0  0  0  2  0  0  0  0  0  0
  186.8270  177.5070  140.0860 C   0  0  0  0  0  0  0  0  0  0  0  0
  186.7550  175.7040  138.4120 C   0  0  0  0  0  2  0  0  0  0  0  0
  187.5720  176.0340  143.2700 C   0  0  1  0  0  0  0  0  0  0  0  0
  187.2880  177.0870  138.7310 C   0  0  0  0  0  2  0  0  0  0  0  0
  187.4110  177.4030  142.5340 C   0  0  1  0  0  0  0  0  0  0  0  0
  187.5890  173.1060  140.8890 C   0  0  0  0  0  2  0  0  0  0  0  0
  187.8230  174.8390  137.8170 C   0  0  0  0  0  0  0  0  0  0  0  0
  188.1970  173.5430  138.4920 C   0  0  1  0  0  3  0  0  0  0  0  0
  187.4710  173.7150  142.2970 C   0  0  1  0  0  3  0  0  0  0  0  0
  188.6080  177.2090  143.3940 C   0  0  2  0  0  3  0  0  0  0  0  0
  188.3000  175.1360  136.7310 O   0  0  0  0  0  0  0  0  0  0  0  0
  187.7500  177.4880  141.1420 O   0  0  0  0  0  0  0  0  0  0  0  0
  188.3570  174.9170  142.5470 C   0  0  1  0  0  3  0  0  0  0  0  0
  189.2180  172.8860  137.7960 O   0  0  0  0  0  1  0  0  0  0  0  0
  188.5850  173.7910  139.9510 C   0  0  2  0  0  3  0  0  0  0  0  0
  186.1860  177.2720  145.2720 C   0  0  0  0  0  2  0  0  0  0  0  0
  184.0390  177.8970  146.4340 C   0  0  0  0  0  2  0  0  0  0  0  0
  185.9670  178.4270  144.3320 C   0  0  0  0  0  0  0  0  0  0  0  0
  183.8190  179.0380  145.4240 C   0  0  0  0  0  2  0  0  0  0  0  0
  185.5160  177.5230  146.6210 C   0  0  0  0  0  2  0  0  0  0  0  0
  185.0980  179.5650  144.7700 C   0  0  0  0  0  2  0  0  0  0  0  0
  186.5410  178.4780  143.1210 C   0  0  0  0  0  3  0  0  0  0  0  0
  197.7860  168.3290  142.7080 O   0  0  0  0  0  0  0  0  0  0  0  0
  196.9140  168.9520  142.0440 C   0  0  0  0  0  0  0  0  0  0  0  0
  195.8790  174.6150  136.2120 C   0  0  2  0  0  3  0  0  0  0  0  0
  194.7040  168.7410  141.0810 O   0  0  0  0  0  0  0  0  0  0  0  0
  196.1400  169.9460  137.3320 C   0  0  1  0  0  3  0  0  0  0  0  0
  196.3720  175.3190  137.4510 C   0  0  0  0  0  2  0  0  0  0  0  0
  197.3550  174.5250  138.0660 O   0  0  0  0  0  0  0  0  0  0  0  0
  195.9910  168.1660  141.1550 C   0  0  1  0  0  3  0  0  0  0  0  0
  196.6860  172.4740  135.3750 N   0  0  0  0  0  2  0  0  0  0  0  0
  197.8780  172.2420  137.4350 C   0  0  1  0  0  3  0  0  0  0  0  0
  195.5390  168.9370  139.9660 C   0  0  2  0  0  0  0  0  0  0  0  0
  196.7980  172.0200  138.3190 O   0  0  0  0  0  0  0  0  0  0  0  0
  197.6100  171.6020  136.0780 C   0  0  1  0  0  3  0  0  0  0  0  0
  197.0770  173.8220  135.7880 C   0  0  2  0  0  3  0  0  0  0  0  0
  195.8190  170.4240  139.7760 C   0  0  0  0  0  2  0  0  0  0  0  0
  197.9090  173.7150  137.0550 C   0  0  1  0  0  3  0  0  0  0  0  0
  195.0530  168.1660  138.7540 C   0  0  0  0  0  2  0  0  0  0  0  0
  196.7190  170.6420  138.5710 C   0  0  1  0  0  3  0  0  0  0  0  0
  197.1010  170.1560  136.1670 C   0  0  0  0  0  2  0  0  0  0  0  0
  195.9880  168.4450  137.5770 C   0  0  0  0  0  2  0  0  0  0  0  0
  195.5440  175.6020  135.2020 N   0  0  0  0  0  2  0  0  0  0  0  0
  193.6820  177.0220  134.5880 C   0  0  0  0  0  2  0  0  0  0  0  0
  193.5600  176.6950  136.0610 C   0  0  0  0  0  2  0  0  0  0  0  0
  194.0910  175.6550  135.0990 C   0  0  0  0  0  3  0  0  0  0  0  0
  1 12  2  0  0  0  0
  1 11  1  0  0  0  0
  2  6  1  0  0  0  0
  2 10  1  0  0  0  0
  3  9  2  0  0  0  0
  5  4  1  0  0  0  0
  5  8  1  0  0  0  0
  6  1  1  0  0  0  0
  6  4  1  1  0  0  0
  7 11  1  0  0  0  0
  7 13  1  0  0  0  0
  8 13  1  0  0  0  0
  9  5  2  0  0  0  0
 10 15  1  6  0  0  0
 10 12  1  0  0  0  0
 14 15  3  0  0  0  0
 16 14  1  0  0  0  0
 16 29  1  0  0  0  0
 18 28  1  0  0  0  0
 18 32  1  0  0  0  0
 18 22  1  0  0  0  0
 20 19  2  0  0  0  0
 20 31  1  0  0  0  0
 21 23  1  0  0  0  0
 22 29  1  0  0  0  0
 23 20  1  0  0  0  0
 24 41  1  0  0  0  0
 24 22  1  0  0  0  0
 24 29  1  0  0  0  0
 25 28  1  0  0  0  0
 26 21  1  0  0  0  0
 26 27  1  0  0  0  0
 27 34  1  0  0  0  0
 28 32  1  0  0  0  0
 30 26  2  0  0  0  0
 31 24  1  0  0  0  0
 32 22  1  0  0  0  0
 33 27  1  0  0  0  0
 34 17  1  0  0  0  0
 34 25  1  0  0  0  0
 35 39  1  0  0  0  0
 36 39  1  0  0  0  0
 37 40  1  0  0  0  0
 37 35  1  0  0  0  0
 38 36  1  0  0  0  0
 40 38  1  0  0  0  0
 41 37  2  0  0  0  0
 43  3  1  0  0  0  0
 43 42  2  0  0  0  0
 44 47  1  0  0  0  0
 45 49  1  0  0  0  0
 46 61  1  0  0  0  0
 46 59  1  0  0  0  0
 47 48  1  0  0  0  0
 49 43  1  0  0  0  0
 50 55  1  0  0  0  0
 50 54  1  0  0  0  0
 51 53  1  0  0  0  0
 52 45  1  0  0  0  0
 52 49  1  0  0  0  0
 53 59  1  0  0  0  0
 54 60  1  0  0  0  0
 54 51  1  0  0  0  0
 55 44  1  0  0  0  0
 55 57  1  0  0  0  0
 56 52  1  0  0  0  0
 57 51  1  0  0  0  0
 57 48  1  0  0  0  0
 58 52  1  0  0  0  0
 59 56  1  0  0  0  0
 60 46  1  0  0  0  0
 61 58  1  0  0  0  0
 62 44  1  0  0  0  0
 63 65  1  0  0  0  0
 63 64  1  0  0  0  0
 65 62  1  0  0  0  0
 65 64  1  0  0  0  0
M  END
>  <MODEL>
7

>  <REMARK>
 VINA RESULT:      -7.0      2.972     10.478
  Name = 
  8 active torsions:
  status: ('A' for Active; 'I' for Inactive)
    1  A    between atoms: C_2  and  N_16
    2  A    between atoms: C_7  and  N_60
    3  A    between atoms: N_16  and  C_58
    4  A    between atoms: C_17  and  C_19
    5  A    between atoms: C_19  and  C_21
    6  A    between atoms: C_27  and  C_50
    7  A    between atoms: C_29  and  C_62
    8  A    between atoms: C_45  and  N_60
                            x       y       z     vdW  Elec       q    Type
                         _______ _______ _______ _____ _____    ______ ____

>  <TORSDO>
F 8

$$$$
=
 OpenBabel11042418073D

 65 77  0  0  1  0  0  0  0  0999 V2000
  187.8160  175.6170  139.7040 C   0  0  0  0  0  0  0  0  0  0  0  0
  188.5050  174.9070  141.8120 N   0  0  0  0  0  2  0  0  0  0  0  0
  186.5270  179.3480  143.1160 C   0  0  0  0  0  3  0  0  0  0  0  0
  186.3470  176.0280  141.6840 C   0  0  0  0  0  2  0  0  0  0  0  0
  185.7710  177.3970  141.5530 C   0  0  0  0  0  0  0  0  0  0  0  0
  187.7790  175.9900  141.1470 C   0  0  2  0  0  3  0  0  0  0  0  0
  186.6240  177.5860  138.7800 C   0  0  0  0  0  2  0  0  0  0  0  0
  184.7620  177.6950  140.4850 C   0  0  0  0  0  2  0  0  0  0  0  0
  186.1630  178.3650  142.3380 C   0  0  0  0  0  0  0  0  0  0  0  0
  188.5690  173.8440  140.8090 C   0  0  1  0  0  3  0  0  0  0  0  0
  187.4270  176.4220  138.6270 O   0  0  0  0  0  0  0  0  0  0  0  0
  188.2960  174.4420  139.5180 N   0  0  0  0  0  0  0  0  0  0  0  0
  185.2020  177.1660  139.1130 C   0  0  0  0  0  2  0  0  0  0  0  0
  190.9710  172.6960  140.7580 C   0  0  0  0  0  0  0  0  0  0  0  0
  189.8770  173.1950  140.8230 C   0  0  0  0  0  0  0  0  0  0  0  0
  192.2490  172.1420  140.6140 N   0  0  0  0  0  2  0  0  0  0  0  0
  195.8470  172.5630  143.1490 O   0  0  0  0  0  1  0  0  0  0  0  0
  195.4600  171.2950  139.4160 C   0  0  2  0  0  3  0  0  0  0  0  0
  195.2050  174.0860  137.1310 C   0  0  0  0  0  2  0  0  0  0  0  0
  194.7910  174.2340  138.3860 C   0  0  0  0  0  0  0  0  0  0  0  0
  196.8110  174.8760  139.6380 C   0  0  0  0  0  2  0  0  0  0  0  0
  193.9960  170.8410  139.2310 C   0  0  1  0  0  0  0  0  0  0  0  0
  195.4080  175.2900  139.2400 C   0  0  0  0  0  2  0  0  0  0  0  0
  193.4610  172.0970  138.4710 C   0  0  1  0  0  0  0  0  0  0  0  0
  197.0510  171.6020  141.3110 C   0  0  0  0  0  2  0  0  0  0  0  0
  197.0550  175.1300  141.0940 C   0  0  0  0  0  0  0  0  0  0  0  0
  197.4430  173.9860  141.9960 C   0  0  1  0  0  3  0  0  0  0  0  0
  196.0830  170.6260  140.6200 C   0  0  1  0  0  3  0  0  0  0  0  0
  192.5320  171.3910  139.3920 C   0  0  2  0  0  3  0  0  0  0  0  0
  197.0480  176.2780  141.5120 O   0  0  0  0  0  0  0  0  0  0  0  0
  193.8130  173.4030  138.9520 O   0  0  0  0  0  0  0  0  0  0  0  0
  194.6320  171.0590  140.6210 C   0  0  1  0  0  3  0  0  0  0  0  0
  197.6140  174.4180  143.3160 O   0  0  0  0  0  1  0  0  0  0  0  0
  196.4130  172.8580  141.9070 C   0  0  2  0  0  3  0  0  0  0  0  0
  191.2760  173.7910  137.2990 C   0  0  0  0  0  2  0  0  0  0  0  0
  189.3160  173.5620  135.7320 C   0  0  0  0  0  2  0  0  0  0  0  0
  191.9700  172.7010  136.5270 C   0  0  0  0  0  0  0  0  0  0  0  0
  190.0330  172.4160  134.9950 C   0  0  0  0  0  2  0  0  0  0  0  0
  190.2770  174.5410  136.4210 C   0  0  0  0  0  2  0  0  0  0  0  0
  191.5590  172.4410  135.1100 C   0  0  0  0  0  2  0  0  0  0  0  0
  192.9610  171.9700  137.0600 C   0  0  0  0  0  3  0  0  0  0  0  0
  185.3920  180.9930  144.3900 O   0  0  0  0  0  0  0  0  0  0  0  0
  185.7050  179.7800  144.2590 C   0  0  0  0  0  0  0  0  0  0  0  0
  192.0590  174.6140  143.9350 C   0  0  2  0  0  3  0  0  0  0  0  0
  184.9570  177.5290  144.7380 O   0  0  0  0  0  0  0  0  0  0  0  0
  188.6020  176.6300  146.6010 C   0  0  1  0  0  3  0  0  0  0  0  0
  192.0620  175.4230  142.6620 C   0  0  0  0  0  2  0  0  0  0  0  0
  191.7270  176.7530  142.9670 O   0  0  0  0  0  0  0  0  0  0  0  0
  185.2260  178.7980  145.2930 C   0  0  1  0  0  3  0  0  0  0  0  0
  191.6020  175.4750  146.1680 N   0  0  0  0  0  2  0  0  0  0  0  0
  190.9130  177.5120  145.1220 C   0  0  1  0  0  3  0  0  0  0  0  0
  186.1520  177.6470  145.4690 C   0  0  2  0  0  0  0  0  0  0  0  0
  189.7030  177.0860  144.5300 O   0  0  0  0  0  0  0  0  0  0  0  0
  191.1360  176.8190  146.4610 C   0  0  1  0  0  3  0  0  0  0  0  0
  192.4270  175.6320  144.9700 C   0  0  2  0  0  3  0  0  0  0  0  0
  187.3500  177.3880  144.5610 C   0  0  0  0  0  2  0  0  0  0  0  0
  192.0780  176.9590  144.3160 C   0  0  1  0  0  3  0  0  0  0  0  0
  186.0960  176.8750  146.7730 C   0  0  0  0  0  2  0  0  0  0  0  0
  188.6440  177.5130  145.3470 C   0  0  1  0  0  3  0  0  0  0  0  0
  189.9020  176.8270  147.3740 C   0  0  0  0  0  2  0  0  0  0  0  0
  187.4320  177.0260  147.5000 C   0  0  0  0  0  2  0  0  0  0  0  0
  193.0820  173.5870  143.8520 N   0  0  0  0  0  2  0  0  0  0  0  0
  192.6790  171.2020  143.9540 C   0  0  0  0  0  2  0  0  0  0  0  0
  191.3790  171.9140  144.2630 C   0  0  0  0  0  2  0  0  0  0  0  0
  192.6910  172.4990  144.7380 C   0  0  0  0  0  3  0  0  0  0  0  0
  1  6  1  0  0  0  0
  3 43  1  0  0  0  0
  5  4  1  0  0  0  0
  5  9  2  0  0  0  0
  6  4  1  1  0  0  0
  6  2  1  0  0  0  0
  7 13  1  0  0  0  0
  8  5  1  0  0  0  0
  9  3  2  0  0  0  0
 10 15  1  6  0  0  0
 10  2  1  0  0  0  0
 11  7  1  0  0  0  0
 11  1  1  0  0  0  0
 12  1  2  0  0  0  0
 12 10  1  0  0  0  0
 13  8  1  0  0  0  0
 14 15  3  0  0  0  0
 16 14  1  0  0  0  0
 18 28  1  0  0  0  0
 18 32  1  0  0  0  0
 19 20  2  0  0  0  0
 20 31  1  0  0  0  0
 20 23  1  0  0  0  0
 21 26  1  0  0  0  0
 22 29  1  0  0  0  0
 22 18  1  0  0  0  0
 22 32  1  0  0  0  0
 23 21  1  0  0  0  0
 24 31  1  0  0  0  0
 24 22  1  0  0  0  0
 24 29  1  0  0  0  0
 25 34  1  0  0  0  0
 26 30  2  0  0  0  0
 26 27  1  0  0  0  0
 27 33  1  0  0  0  0
 28 32  1  0  0  0  0
 28 25  1  0  0  0  0
 29 16  1  0  0  0  0
 34 27  1  0  0  0  0
 34 17  1  0  0  0  0
 36 39  1  0  0  0  0
 37 41  2  0  0  0  0
 37 35  1  0  0  0  0
 38 40  1  0  0  0  0
 38 36  1  0  0  0  0
 39 35  1  0  0  0  0
 40 37  1  0  0  0  0
 41 24  1  0  0  0  0
 43 42  2  0  0  0  0
 43 49  1  0  0  0  0
 44 55  1  0  0  0  0
 45 49  1  0  0  0  0
 45 52  1  0  0  0  0
 46 60  1  0  0  0  0
 46 61  1  0  0  0  0
 47 48  1  0  0  0  0
 47 44  1  0  0  0  0
 48 57  1  0  0  0  0
 49 52  1  0  0  0  0
 50 54  1  0  0  0  0
 51 54  1  0  0  0  0
 52 58  1  0  0  0  0
 53 51  1  0  0  0  0
 53 59  1  0  0  0  0
 54 60  1  0  0  0  0
 55 50  1  0  0  0  0
 56 59  1  0  0  0  0
 56 52  1  0  0  0  0
 57 55  1  0  0  0  0
 57 51  1  0  0  0  0
 58 61  1  0  0  0  0
 59 46  1  0  0  0  0
 62 44  1  0  0  0  0
 62 65  1  0  0  0  0
 63 64  1  0  0  0  0
 63 65  1  0  0  0  0
 64 65  1  0  0  0  0
M  END
>  <MODEL>
8

>  <REMARK>
 VINA RESULT:      -6.9      2.355      6.531
  Name = 
  8 active torsions:
  status: ('A' for Active; 'I' for Inactive)
    1  A    between atoms: C_2  and  N_16
    2  A    between atoms: C_7  and  N_60
    3  A    between atoms: N_16  and  C_58
    4  A    between atoms: C_17  and  C_19
    5  A    between atoms: C_19  and  C_21
    6  A    between atoms: C_27  and  C_50
    7  A    between atoms: C_29  and  C_62
    8  A    between atoms: C_45  and  N_60
                            x       y       z     vdW  Elec       q    Type
                         _______ _______ _______ _____ _____    ______ ____

>  <TORSDO>
F 8

$$$$
=
 OpenBabel11042418073D

 65 77  0  0  1  0  0  0  0  0999 V2000
  192.3530  170.5450  144.0680 C   0  0  0  0  0  0  0  0  0  0  0  0
  192.0800  172.7300  143.3120 N   0  0  0  0  0  2  0  0  0  0  0  0
  196.8470  172.0160  141.8620 C   0  0  0  0  0  3  0  0  0  0  0  0
  193.3160  171.2150  141.8610 C   0  0  0  0  0  2  0  0  0  0  0  0
  194.6630  170.5880  141.7380 C   0  0  0  0  0  0  0  0  0  0  0  0
  193.0420  171.6270  143.3080 C   0  0  2  0  0  3  0  0  0  0  0  0
  194.1550  168.8420  144.0060 C   0  0  0  0  0  2  0  0  0  0  0  0
  194.7960  169.1040  141.5760 C   0  0  0  0  0  2  0  0  0  0  0  0
  195.7470  171.3150  141.8080 C   0  0  0  0  0  0  0  0  0  0  0  0
  190.8170  172.1080  143.7130 C   0  0  1  0  0  3  0  0  0  0  0  0
  192.9260  169.3470  144.5110 O   0  0  0  0  0  0  0  0  0  0  0  0
  191.1310  170.8350  144.3280 N   0  0  0  0  0  0  0  0  0  0  0  0
  193.9380  168.3350  142.5900 C   0  0  0  0  0  2  0  0  0  0  0  0
  189.5540  173.7200  145.4160 C   0  0  0  0  0  0  0  0  0  0  0  0
  190.0830  172.9720  144.6340 C   0  0  0  0  0  0  0  0  0  0  0  0
  189.0050  174.6110  146.3460 N   0  0  0  0  0  2  0  0  0  0  0  0
  185.2180  176.5980  145.2230 O   0  0  0  0  0  1  0  0  0  0  0  0
  188.6280  178.1160  146.5510 C   0  0  2  0  0  3  0  0  0  0  0  0
  191.0360  178.4050  143.8690 C   0  0  0  0  0  2  0  0  0  0  0  0
  190.0990  177.4640  143.8020 C   0  0  0  0  0  0  0  0  0  0  0  0
  188.1620  178.5830  142.7740 C   0  0  0  0  0  2  0  0  0  0  0  0
  189.3830  176.9850  147.2830 C   0  0  1  0  0  0  0  0  0  0  0  0
  189.1590  177.4480  142.6440 C   0  0  0  0  0  2  0  0  0  0  0  0
  190.4060  176.6270  146.1580 C   0  0  1  0  0  0  0  0  0  0  0  0
  186.2670  178.6330  145.9350 C   0  0  0  0  0  2  0  0  0  0  0  0
  186.7710  178.1150  142.4740 C   0  0  0  0  0  0  0  0  0  0  0  0
  185.6930  178.2610  143.5180 C   0  0  1  0  0  3  0  0  0  0  0  0
  187.2190  178.2540  147.0830 C   0  0  1  0  0  3  0  0  0  0  0  0
  189.9160  175.5280  147.0300 C   0  0  2  0  0  3  0  0  0  0  0  0
  186.4990  177.7250  141.3490 O   0  0  0  0  0  0  0  0  0  0  0  0
  189.9370  176.4990  144.8070 O   0  0  0  0  0  0  0  0  0  0  0  0
  187.8790  176.8990  146.9420 C   0  0  1  0  0  3  0  0  0  0  0  0
  184.4710  177.7580  143.0580 O   0  0  0  0  0  1  0  0  0  0  0  0
  186.1170  177.5890  144.8260 C   0  0  2  0  0  3  0  0  0  0  0  0
  192.5510  175.5200  144.3710 C   0  0  0  0  0  2  0  0  0  0  0  0
  194.8490  174.5040  144.5520 C   0  0  0  0  0  2  0  0  0  0  0  0
  192.8500  176.3210  145.6100 C   0  0  0  0  0  0  0  0  0  0  0  0
  195.1050  175.3000  145.8460 C   0  0  0  0  0  2  0  0  0  0  0  0
  193.8310  175.1690  143.6170 C   0  0  0  0  0  2  0  0  0  0  0  0
  194.2790  176.5820  145.9780 C   0  0  0  0  0  2  0  0  0  0  0  0
  191.8780  176.8280  146.3830 C   0  0  0  0  0  3  0  0  0  0  0  0
  197.9410  173.5890  140.4670 O   0  0  0  0  0  0  0  0  0  0  0  0
  197.5890  172.3930  140.6470 C   0  0  0  0  0  0  0  0  0  0  0  0
  191.2670  173.7310  135.6080 C   0  0  2  0  0  3  0  0  0  0  0  0
  196.9880  170.3360  139.5230 O   0  0  0  0  0  0  0  0  0  0  0  0
  195.8780  172.4540  136.0790 C   0  0  1  0  0  3  0  0  0  0  0  0
  190.8960  174.2810  136.9630 C   0  0  0  0  0  2  0  0  0  0  0  0
  192.0220  174.9090  137.5230 O   0  0  0  0  0  0  0  0  0  0  0  0
  197.9410  171.3740  139.5990 C   0  0  1  0  0  3  0  0  0  0  0  0
  193.4440  173.9390  134.5340 N   0  0  0  0  0  2  0  0  0  0  0  0
  194.2670  174.7820  136.6150 C   0  0  1  0  0  3  0  0  0  0  0  0
  196.9390  171.3030  138.5020 C   0  0  2  0  0  0  0  0  0  0  0  0
  194.2390  173.5990  137.3870 O   0  0  0  0  0  0  0  0  0  0  0  0
  194.6350  174.4770  135.1680 C   0  0  1  0  0  3  0  0  0  0  0  0
  192.3410  174.6720  135.1560 C   0  0  2  0  0  3  0  0  0  0  0  0
  195.6020  172.0370  138.5400 C   0  0  0  0  0  2  0  0  0  0  0  0
  192.8450  175.2950  136.4470 C   0  0  1  0  0  3  0  0  0  0  0  0
  197.3770  170.7370  137.1650 C   0  0  0  0  0  2  0  0  0  0  0  0
  195.5420  173.0810  137.4380 C   0  0  1  0  0  3  0  0  0  0  0  0
  195.8490  173.5500  135.0200 C   0  0  0  0  0  2  0  0  0  0  0  0
  197.2740  171.8310  136.1030 C   0  0  0  0  0  2  0  0  0  0  0  0
  190.1170  173.8180  134.7260 N   0  0  0  0  0  2  0  0  0  0  0  0
  187.9620  174.9020  134.5130 C   0  0  0  0  0  2  0  0  0  0  0  0
  188.9260  175.8870  135.1380 C   0  0  0  0  0  2  0  0  0  0  0  0
  189.0230  174.4170  135.4810 C   0  0  0  0  0  3  0  0  0  0  0  0
  1 12  2  0  0  0  0
  1 11  1  0  0  0  0
  2 10  1  0  0  0  0
  5  9  2  0  0  0  0
  5  4  1  0  0  0  0
  6  4  1  6  0  0  0
  6  2  1  0  0  0  0
  6  1  1  0  0  0  0
  7 11  1  0  0  0  0
  8  5  1  0  0  0  0
  8 13  1  0  0  0  0
  9  3  2  0  0  0  0
 10 12  1  0  0  0  0
 10 15  1  1  0  0  0
 13  7  1  0  0  0  0
 14 16  1  0  0  0  0
 15 14  3  0  0  0  0
 16 29  1  0  0  0  0
 18 32  1  0  0  0  0
 18 28  1  0  0  0  0
 18 22  1  0  0  0  0
 20 19  2  0  0  0  0
 20 31  1  0  0  0  0
 23 21  1  0  0  0  0
 23 20  1  0  0  0  0
 24 41  1  0  0  0  0
 24 29  1  0  0  0  0
 24 22  1  0  0  0  0
 25 28  1  0  0  0  0
 26 21  1  0  0  0  0
 26 27  1  0  0  0  0
 27 34  1  0  0  0  0
 29 22  1  0  0  0  0
 30 26  2  0  0  0  0
 31 24  1  0  0  0  0
 32 28  1  0  0  0  0
 32 22  1  0  0  0  0
 33 27  1  0  0  0  0
 34 17  1  0  0  0  0
 34 25  1  0  0  0  0
 35 37  1  0  0  0  0
 36 38  1  0  0  0  0
 37 40  1  0  0  0  0
 37 41  2  0  0  0  0
 38 40  1  0  0  0  0
 39 35  1  0  0  0  0
 39 36  1  0  0  0  0
 42 43  2  0  0  0  0
 43  3  1  0  0  0  0
 44 47  1  0  0  0  0
 45 49  1  0  0  0  0
 46 61  1  0  0  0  0
 46 59  1  0  0  0  0
 47 48  1  0  0  0  0
 49 43  1  0  0  0  0
 50 55  1  0  0  0  0
 50 54  1  0  0  0  0
 51 53  1  0  0  0  0
 52 56  1  0  0  0  0
 52 45  1  0  0  0  0
 52 49  1  0  0  0  0
 53 59  1  0  0  0  0
 54 51  1  0  0  0  0
 55 44  1  0  0  0  0
 55 57  1  0  0  0  0
 57 51  1  0  0  0  0
 57 48  1  0  0  0  0
 58 52  1  0  0  0  0
 59 56  1  0  0  0  0
 60 54  1  0  0  0  0
 60 46  1  0  0  0  0
 61 58  1  0  0  0  0
 62 65  1  0  0  0  0
 62 44  1  0  0  0  0
 63 64  1  0  0  0  0
 63 65  1  0  0  0  0
 64 65  1  0  0  0  0
M  END
>  <MODEL>
9

>  <REMARK>
 VINA RESULT:      -6.8      2.860      9.564
  Name = 
  8 active torsions:
  status: ('A' for Active; 'I' for Inactive)
    1  A    between atoms: C_2  and  N_16
    2  A    between atoms: C_7  and  N_60
    3  A    between atoms: N_16  and  C_58
    4  A    between atoms: C_17  and  C_19
    5  A    between atoms: C_19  and  C_21
    6  A    between atoms: C_27  and  C_50
    7  A    between atoms: C_29  and  C_62
    8  A    between atoms: C_45  and  N_60
                            x       y       z     vdW  Elec       q    Type
                         _______ _______ _______ _____ _____    ______ ____

>  <TORSDO>
F 8

$$$$
