=
 OpenBabel11042414023D

 31 35  0  0  1  0  0  0  0  0999 V2000
  189.6050  174.8820  146.9210 C   0  0  2  0  0  3  0  0  0  0  0  0
  191.0430  176.0280  146.7290 S   0  0  0  0  0  0  0  0  0  0  0  0
  189.5070  174.0590  145.7190 N   0  0  0  0  0  2  0  0  0  0  0  0
  190.4780  174.4140  144.7530 C   0  0  2  0  0  3  0  0  0  0  0  0
  191.0700  173.5110  143.7270 C   0  0  2  0  0  3  0  0  0  0  0  0
  191.3150  175.3400  145.1120 C   0  0  2  0  0  3  0  0  0  0  0  0
  192.3890  174.1530  143.5360 C   0  0  1  0  0  3  0  0  0  0  0  0
  191.4840  173.6690  141.4410 C   0  0  0  0  0  2  0  0  0  0  0  0
  192.7450  174.2070  142.1100 C   0  0  0  0  0  2  0  0  0  0  0  0
  192.5590  175.1670  144.3870 C   0  0  1  0  0  3  0  0  0  0  0  0
  190.4010  173.6320  142.4360 N   0  0  1  0  0  0  0  0  0  0  0  0
  188.2220  172.7280  141.9620 C   0  0  0  0  0  2  0  0  0  0  0  0
  189.1070  172.4260  140.9140 O   0  0  0  0  0  0  0  0  0  0  0  0
  189.6460  172.4070  142.2140 C   0  0  1  0  0  3  0  0  0  0  0  0
  193.5440  176.2020  144.2670 N   0  0  0  0  0  2  0  0  0  0  0  0
  194.8190  176.2130  144.9200 C   0  0  0  0  0  0  0  0  0  0  0  0
  195.6410  177.1250  144.6380 O   0  0  0  0  0  0  0  0  0  0  0  0
  195.1390  175.2340  146.0120 C   0  0  0  0  0  2  0  0  0  0  0  0
  195.9560  173.6840  144.3850 O   0  0  0  0  0  0  0  0  0  0  0  0
  197.0430  173.6710  146.4040 O   0  0  0  0  0  1  0  0  0  0  0  0
  196.0680  174.1620  145.5450 C   0  0  0  0  0  0  0  0  0  0  0  0
  188.3440  175.6600  147.0940 C   0  0  0  0  0  3  0  0  0  0  0  0
  188.2580  176.8590  146.6510 N   0  0  0  0  0  0  0  0  0  0  0  0
  187.0390  177.6000  146.8280 C   0  0  0  0  0  2  0  0  0  0  0  0
  185.0490  179.5090  144.2320 C   0  0  0  0  0  3  0  0  0  0  0  0
  186.9070  178.4090  143.1330 C   0  0  0  0  0  0  0  0  0  0  0  0
  185.4670  178.9870  145.4610 C   0  0  0  0  0  3  0  0  0  0  0  0
  187.6400  178.1150  141.9500 N   0  0  0  0  0  1  0  0  0  0  0  0
  186.6040  178.1750  145.5250 C   0  0  0  0  0  0  0  0  0  0  0  0
  185.7690  179.2200  143.0690 C   0  0  0  0  0  3  0  0  0  0  0  0
  187.3220  177.8830  144.3590 C   0  0  0  0  0  3  0  0  0  0  0  0
  1 22  1  6  0  0  0
  2  1  1  0  0  0  0
  3  1  1  0  0  0  0
  4  6  1  0  0  0  0
  4  3  1  1  0  0  0
  5  4  1  0  0  0  0
  6  2  1  0  0  0  0
  7  5  1  0  0  0  0
  7 10  1  0  0  0  0
  8  9  1  0  0  0  0
  8 11  1  0  0  0  0
  9  7  1  0  0  0  0
 10  6  1  0  0  0  0
 11  5  1  0  0  0  0
 12 14  1  0  0  0  0
 13 12  1  0  0  0  0
 13 14  1  0  0  0  0
 14 11  1  0  0  0  0
 15 10  1  0  0  0  0
 15 16  1  0  0  0  0
 16 18  1  0  0  0  0
 17 16  2  0  0  0  0
 19 21  2  0  0  0  0
 21 18  1  0  0  0  0
 21 20  1  0  0  0  0
 23 24  1  0  0  0  0
 23 22  2  0  0  0  0
 25 27  1  0  0  0  0
 26 31  2  0  0  0  0
 27 29  2  0  0  0  0
 28 26  1  0  0  0  0
 29 24  1  0  0  0  0
 30 26  1  0  0  0  0
 30 25  2  0  0  0  0
 31 29  1  0  0  0  0
M  END
>  <MODEL>
1

>  <REMARK>
 VINA RESULT:      -7.0      0.000      0.000
  Name = 
  7 active torsions:
  status: ('A' for Active; 'I' for Inactive)
    1  A    between atoms: C_1  and  C_15
    2  A    between atoms: C_6  and  C_16
    3  A    between atoms: C_6  and  N_21
    4  A    between atoms: N_13  and  C_27
    5  A    between atoms: C_14  and  C_28
    6  A    between atoms: C_24  and  N_31
    7  A    between atoms: C_28  and  C_29
                            x       y       z     vdW  Elec       q    Type
                         _______ _______ _______ _____ _____    ______ ____

>  <TORSDO>
F 7

$$$$
=
 OpenBabel11042414023D

 31 35  0  0  1  0  0  0  0  0999 V2000
  186.5950  178.1700  141.3320 C   0  0  2  0  0  3  0  0  0  0  0  0
  187.7560  176.7340  141.4050 S   0  0  0  0  0  0  0  0  0  0  0  0
  186.1820  178.5010  142.6920 N   0  0  0  0  0  2  0  0  0  0  0  0
  186.7280  177.6070  143.6430 C   0  0  2  0  0  3  0  0  0  0  0  0
  187.0300  177.9150  145.0690 C   0  0  2  0  0  3  0  0  0  0  0  0
  187.5360  176.7070  143.1690 C   0  0  2  0  0  3  0  0  0  0  0  0
  188.1320  176.9620  145.3200 C   0  0  1  0  0  3  0  0  0  0  0  0
  186.6290  176.8500  147.1010 C   0  0  0  0  0  2  0  0  0  0  0  0
  187.9790  176.3150  146.6320 C   0  0  0  0  0  2  0  0  0  0  0  0
  188.4740  176.3150  144.2040 C   0  0  1  0  0  3  0  0  0  0  0  0
  185.9560  177.4930  145.9620 N   0  0  1  0  0  0  0  0  0  0  0  0
  183.9380  178.8030  145.8940 C   0  0  0  0  0  2  0  0  0  0  0  0
  184.1580  178.3250  147.1970 O   0  0  0  0  0  0  0  0  0  0  0  0
  185.3010  178.6930  146.4630 C   0  0  1  0  0  3  0  0  0  0  0  0
  189.2470  175.1100  144.1400 N   0  0  0  0  0  2  0  0  0  0  0  0
  190.6470  175.0060  144.4290 C   0  0  0  0  0  0  0  0  0  0  0  0
  191.1830  173.8660  144.4500 O   0  0  0  0  0  0  0  0  0  0  0  0
  191.4980  176.2330  144.5850 C   0  0  0  0  0  2  0  0  0  0  0  0
  191.3050  177.7060  142.7120 O   0  0  0  0  0  1  0  0  0  0  0  0
  193.0540  176.2250  142.6350 O   0  0  0  0  0  0  0  0  0  0  0  0
  191.9440  176.7730  143.2660 C   0  0  0  0  0  0  0  0  0  0  0  0
  185.3920  177.8210  140.5200 C   0  0  0  0  0  3  0  0  0  0  0  0
  184.2230  178.1680  140.9130 N   0  0  0  0  0  0  0  0  0  0  0  0
  183.0720  177.8210  140.1250 C   0  0  0  0  0  2  0  0  0  0  0  0
  180.7410  179.2410  142.7510 C   0  0  0  0  0  3  0  0  0  0  0  0
  179.4240  178.5260  140.8470 C   0  0  0  0  0  0  0  0  0  0  0  0
  181.9080  178.8340  142.0950 C   0  0  0  0  0  3  0  0  0  0  0  0
  178.1610  178.3690  140.2110 N   0  0  0  0  0  1  0  0  0  0  0  0
  181.8330  178.2730  140.8160 C   0  0  0  0  0  0  0  0  0  0  0  0
  179.5000  179.0850  142.1260 C   0  0  0  0  0  3  0  0  0  0  0  0
  180.5890  178.1160  140.1930 C   0  0  0  0  0  3  0  0  0  0  0  0
  1 22  1  6  0  0  0
  1  2  1  0  0  0  0
  1  3  1  0  0  0  0
  2  6  1  0  0  0  0
  4  3  1  6  0  0  0
  4  5  1  0  0  0  0
  5  7  1  0  0  0  0
  5 11  1  0  0  0  0
  6  4  1  0  0  0  0
  6 10  1  0  0  0  0
  7  9  1  0  0  0  0
  9  8  1  0  0  0  0
 10  7  1  0  0  0  0
 11 14  1  0  0  0  0
 11  8  1  0  0  0  0
 12 14  1  0  0  0  0
 12 13  1  0  0  0  0
 14 13  1  0  0  0  0
 15 10  1  0  0  0  0
 15 16  1  0  0  0  0
 16 17  2  0  0  0  0
 16 18  1  0  0  0  0
 19 21  1  0  0  0  0
 20 21  2  0  0  0  0
 21 18  1  0  0  0  0
 22 23  2  0  0  0  0
 24 29  1  0  0  0  0
 24 23  1  0  0  0  0
 26 30  2  0  0  0  0
 27 25  2  0  0  0  0
 28 26  1  0  0  0  0
 29 27  1  0  0  0  0
 30 25  1  0  0  0  0
 31 29  2  0  0  0  0
 31 26  1  0  0  0  0
M  END
>  <MODEL>
2

>  <REMARK>
 VINA RESULT:      -6.9      4.152      6.658
  Name = 
  7 active torsions:
  status: ('A' for Active; 'I' for Inactive)
    1  A    between atoms: C_1  and  C_15
    2  A    between atoms: C_6  and  C_16
    3  A    between atoms: C_6  and  N_21
    4  A    between atoms: N_13  and  C_27
    5  A    between atoms: C_14  and  C_28
    6  A    between atoms: C_24  and  N_31
    7  A    between atoms: C_28  and  C_29
                            x       y       z     vdW  Elec       q    Type
                         _______ _______ _______ _____ _____    ______ ____

>  <TORSDO>
F 7

$$$$
=
 OpenBabel11042414023D

 31 35  0  0  1  0  0  0  0  0999 V2000
  187.9190  177.8510  141.6450 C   0  0  2  0  0  3  0  0  0  0  0  0
  187.4590  176.2860  140.7770 S   0  0  0  0  0  0  0  0  0  0  0  0
  189.0790  177.5870  142.4900 N   0  0  0  0  0  2  0  0  0  0  0  0
  189.4660  176.2280  142.4490 C   0  0  2  0  0  3  0  0  0  0  0  0
  190.8420  175.6960  142.6640 C   0  0  2  0  0  3  0  0  0  0  0  0
  188.7870  175.4740  141.6380 C   0  0  2  0  0  3  0  0  0  0  0  0
  190.7780  174.4580  141.8580 C   0  0  1  0  0  3  0  0  0  0  0  0
  191.7550  173.9590  143.9170 C   0  0  0  0  0  2  0  0  0  0  0  0
  191.4170  173.3380  142.5650 C   0  0  0  0  0  2  0  0  0  0  0  0
  189.6170  174.3650  141.2060 C   0  0  1  0  0  3  0  0  0  0  0  0
  191.0480  175.2430  144.0350 N   0  0  1  0  0  0  0  0  0  0  0  0
  191.4060  176.6000  145.9900 C   0  0  0  0  0  2  0  0  0  0  0  0
  192.4150  175.6270  145.8880 O   0  0  0  0  0  0  0  0  0  0  0  0
  191.9550  176.1830  144.6790 C   0  0  1  0  0  3  0  0  0  0  0  0
  189.0830  173.1740  140.6170 N   0  0  0  0  0  2  0  0  0  0  0  0
  189.3090  172.7420  139.2690 C   0  0  0  0  0  0  0  0  0  0  0  0
  188.8780  171.6140  138.9100 O   0  0  0  0  0  0  0  0  0  0  0  0
  189.9380  173.6560  138.2590 C   0  0  0  0  0  2  0  0  0  0  0  0
  187.8170  174.5780  137.6540 O   0  0  0  0  0  1  0  0  0  0  0  0
  189.2470  174.1500  135.9130 O   0  0  0  0  0  0  0  0  0  0  0  0
  188.9410  174.1630  137.2680 C   0  0  0  0  0  0  0  0  0  0  0  0
  186.7850  178.3230  142.4920 C   0  0  0  0  0  3  0  0  0  0  0  0
  185.7990  177.5450  142.7460 N   0  0  0  0  0  0  0  0  0  0  0  0
  184.7100  178.0130  143.5600 C   0  0  0  0  0  2  0  0  0  0  0  0
  184.7170  178.5280  147.3120 C   0  0  0  0  0  3  0  0  0  0  0  0
  186.4800  176.9680  146.7380 C   0  0  0  0  0  0  0  0  0  0  0  0
  184.3640  178.6250  145.9620 C   0  0  0  0  0  3  0  0  0  0  0  0
  187.5560  176.1250  147.1320 N   0  0  0  0  0  1  0  0  0  0  0  0
  185.0700  177.8950  145.0000 C   0  0  0  0  0  0  0  0  0  0  0  0
  185.7750  177.7000  147.6990 C   0  0  0  0  0  3  0  0  0  0  0  0
  186.1310  177.0690  145.3880 C   0  0  0  0  0  3  0  0  0  0  0  0
  1  3  1  0  0  0  0
  1 22  1  1  0  0  0
  2  6  1  0  0  0  0
  2  1  1  0  0  0  0
  4  3  1  6  0  0  0
  4  5  1  0  0  0  0
  5 11  1  0  0  0  0
  6  4  1  0  0  0  0
  7  9  1  0  0  0  0
  7  5  1  0  0  0  0
  8 11  1  0  0  0  0
  9  8  1  0  0  0  0
 10  6  1  0  0  0  0
 10  7  1  0  0  0  0
 11 14  1  0  0  0  0
 13 12  1  0  0  0  0
 14 13  1  0  0  0  0
 14 12  1  0  0  0  0
 15 10  1  0  0  0  0
 16 15  1  0  0  0  0
 17 16  2  0  0  0  0
 18 16  1  0  0  0  0
 20 21  2  0  0  0  0
 21 19  1  0  0  0  0
 21 18  1  0  0  0  0
 22 23  2  0  0  0  0
 23 24  1  0  0  0  0
 24 29  1  0  0  0  0
 25 30  1  0  0  0  0
 26 28  1  0  0  0  0
 26 30  2  0  0  0  0
 27 25  2  0  0  0  0
 29 31  2  0  0  0  0
 29 27  1  0  0  0  0
 31 26  1  0  0  0  0
M  END
>  <MODEL>
3

>  <REMARK>
 VINA RESULT:      -6.7      2.719      6.149
  Name = 
  7 active torsions:
  status: ('A' for Active; 'I' for Inactive)
    1  A    between atoms: C_1  and  C_15
    2  A    between atoms: C_6  and  C_16
    3  A    between atoms: C_6  and  N_21
    4  A    between atoms: N_13  and  C_27
    5  A    between atoms: C_14  and  C_28
    6  A    between atoms: C_24  and  N_31
    7  A    between atoms: C_28  and  C_29
                            x       y       z     vdW  Elec       q    Type
                         _______ _______ _______ _____ _____    ______ ____

>  <TORSDO>
F 7

$$$$
=
 OpenBabel11042414023D

 31 35  0  0  1  0  0  0  0  0999 V2000
  190.1770  177.4800  143.8010 C   0  0  2  0  0  3  0  0  0  0  0  0
  189.6330  176.2430  142.5410 S   0  0  0  0  0  0  0  0  0  0  0  0
  191.5590  177.1880  144.1690 N   0  0  0  0  0  2  0  0  0  0  0  0
  192.0470  176.0310  143.5180 C   0  0  2  0  0  3  0  0  0  0  0  0
  193.4680  175.7500  143.1700 C   0  0  2  0  0  3  0  0  0  0  0  0
  191.2310  175.4750  142.6730 C   0  0  2  0  0  3  0  0  0  0  0  0
  193.2860  174.8730  141.9930 C   0  0  1  0  0  3  0  0  0  0  0  0
  194.8840  173.9150  143.3980 C   0  0  0  0  0  2  0  0  0  0  0  0
  194.2150  173.7340  142.0380 C   0  0  0  0  0  2  0  0  0  0  0  0
  191.9970  174.7720  141.6620 C   0  0  1  0  0  3  0  0  0  0  0  0
  194.1230  174.9110  144.1680 N   0  0  1  0  0  0  0  0  0  0  0  0
  194.6000  176.0160  146.2520 C   0  0  0  0  0  2  0  0  0  0  0  0
  195.5710  175.0330  145.9950 O   0  0  0  0  0  0  0  0  0  0  0  0
  195.0850  175.7400  144.8790 C   0  0  1  0  0  3  0  0  0  0  0  0
  191.4290  173.7680  140.8110 N   0  0  0  0  0  2  0  0  0  0  0  0
  190.8180  172.5510  141.2560 C   0  0  0  0  0  0  0  0  0  0  0  0
  190.2530  171.8070  140.4110 O   0  0  0  0  0  0  0  0  0  0  0  0
  190.9470  172.0970  142.6810 C   0  0  0  0  0  2  0  0  0  0  0  0
  189.7030  172.3730  144.7040 O   0  0  0  0  0  1  0  0  0  0  0  0
  188.4690  172.3740  142.7710 O   0  0  0  0  0  0  0  0  0  0  0  0
  189.6800  172.2980  143.4470 C   0  0  0  0  0  0  0  0  0  0  0  0
  189.3120  177.3970  145.0140 C   0  0  0  0  0  3  0  0  0  0  0  0
  188.4330  176.4700  145.1190 N   0  0  0  0  0  0  0  0  0  0  0  0
  187.6020  176.4030  146.2900 C   0  0  0  0  0  2  0  0  0  0  0  0
  184.5170  178.4920  146.9710 C   0  0  0  0  0  3  0  0  0  0  0  0
  184.6940  178.1210  144.5820 C   0  0  0  0  0  0  0  0  0  0  0  0
  185.6910  177.7570  147.1710 C   0  0  0  0  0  3  0  0  0  0  0  0
  184.1880  178.3060  143.2660 N   0  0  0  0  0  1  0  0  0  0  0  0
  186.3650  177.2030  146.0780 C   0  0  0  0  0  0  0  0  0  0  0  0
  184.0200  178.6730  145.6760 C   0  0  0  0  0  3  0  0  0  0  0  0
  185.8640  177.3830  144.7830 C   0  0  0  0  0  3  0  0  0  0  0  0
  1  3  1  0  0  0  0
  1 22  1  1  0  0  0
  2  6  1  0  0  0  0
  2  1  1  0  0  0  0
  4  3  1  6  0  0  0
  5  4  1  0  0  0  0
  5 11  1  0  0  0  0
  6  4  1  0  0  0  0
  7  9  1  0  0  0  0
  7  5  1  0  0  0  0
  8 11  1  0  0  0  0
  9  8  1  0  0  0  0
 10  7  1  0  0  0  0
 10  6  1  0  0  0  0
 11 14  1  0  0  0  0
 13 12  1  0  0  0  0
 14 13  1  0  0  0  0
 14 12  1  0  0  0  0
 15 16  1  0  0  0  0
 15 10  1  0  0  0  0
 16 18  1  0  0  0  0
 17 16  2  0  0  0  0
 18 21  1  0  0  0  0
 20 21  2  0  0  0  0
 21 19  1  0  0  0  0
 22 23  2  0  0  0  0
 23 24  1  0  0  0  0
 25 27  1  0  0  0  0
 26 31  2  0  0  0  0
 26 30  1  0  0  0  0
 28 26  1  0  0  0  0
 29 24  1  0  0  0  0
 29 27  2  0  0  0  0
 30 25  2  0  0  0  0
 31 29  1  0  0  0  0
M  END
>  <MODEL>
4

>  <REMARK>
 VINA RESULT:      -6.5      2.003      4.867
  Name = 
  7 active torsions:
  status: ('A' for Active; 'I' for Inactive)
    1  A    between atoms: C_1  and  C_15
    2  A    between atoms: C_6  and  C_16
    3  A    between atoms: C_6  and  N_21
    4  A    between atoms: N_13  and  C_27
    5  A    between atoms: C_14  and  C_28
    6  A    between atoms: C_24  and  N_31
    7  A    between atoms: C_28  and  C_29
                            x       y       z     vdW  Elec       q    Type
                         _______ _______ _______ _____ _____    ______ ____

>  <TORSDO>
F 7

$$$$
=
 OpenBabel11042414023D

 31 35  0  0  1  0  0  0  0  0999 V2000
  189.5850  174.9080  147.2680 C   0  0  2  0  0  3  0  0  0  0  0  0
  191.3720  175.3790  147.2770 S   0  0  0  0  0  0  0  0  0  0  0  0
  189.3290  174.0880  146.0880 N   0  0  0  0  0  2  0  0  0  0  0  0
  190.4810  173.9490  145.2800 C   0  0  2  0  0  3  0  0  0  0  0  0
  190.7960  172.7990  144.3850 C   0  0  2  0  0  3  0  0  0  0  0  0
  191.5620  174.5010  145.7420 C   0  0  2  0  0  3  0  0  0  0  0  0
  192.2730  172.8550  144.3890 C   0  0  1  0  0  3  0  0  0  0  0  0
  191.5420  172.5820  142.1900 C   0  0  0  0  0  2  0  0  0  0  0  0
  192.8100  172.6410  143.0360 C   0  0  0  0  0  2  0  0  0  0  0  0
  192.7190  173.7920  145.2290 C   0  0  1  0  0  3  0  0  0  0  0  0
  190.4120  173.0590  143.0020 N   0  0  1  0  0  0  0  0  0  0  0  0
  188.1730  173.0290  142.1190 C   0  0  0  0  0  2  0  0  0  0  0  0
  189.0200  172.2520  141.3100 O   0  0  0  0  0  0  0  0  0  0  0  0
  189.2670  172.2130  142.6950 C   0  0  1  0  0  3  0  0  0  0  0  0
  194.0410  174.3440  145.2390 N   0  0  0  0  0  2  0  0  0  0  0  0
  194.3780  175.6980  144.9110 C   0  0  0  0  0  0  0  0  0  0  0  0
  195.5640  176.0880  145.0730 O   0  0  0  0  0  0  0  0  0  0  0  0
  193.3750  176.6110  144.2690 C   0  0  0  0  0  2  0  0  0  0  0  0
  194.1420  176.2670  142.0310 O   0  0  0  0  0  0  0  0  0  0  0  0
  191.8850  176.0240  142.3550 O   0  0  0  0  0  1  0  0  0  0  0  0
  193.1660  176.2840  142.8260 C   0  0  0  0  0  0  0  0  0  0  0  0
  188.7290  176.1300  147.2180 C   0  0  0  0  0  3  0  0  0  0  0  0
  187.6710  176.1500  146.4950 N   0  0  0  0  0  0  0  0  0  0  0  0
  186.8580  177.3340  146.4520 C   0  0  0  0  0  2  0  0  0  0  0  0
  185.8150  179.3600  143.4270 C   0  0  0  0  0  3  0  0  0  0  0  0
  187.0310  177.4050  142.6710 C   0  0  0  0  0  0  0  0  0  0  0  0
  185.9920  178.9560  144.7550 C   0  0  0  0  0  3  0  0  0  0  0  0
  187.5600  176.6150  141.6130 N   0  0  0  0  0  1  0  0  0  0  0  0
  186.6870  177.7760  145.0410 C   0  0  0  0  0  0  0  0  0  0  0  0
  186.3350  178.5830  142.3860 C   0  0  0  0  0  3  0  0  0  0  0  0
  187.2040  176.9990  143.9980 C   0  0  0  0  0  3  0  0  0  0  0  0
  1 22  1  6  0  0  0
  1  2  1  0  0  0  0
  3  1  1  0  0  0  0
  4  6  1  0  0  0  0
  4  3  1  1  0  0  0
  5  7  1  0  0  0  0
  5  4  1  0  0  0  0
  6  2  1  0  0  0  0
  7 10  1  0  0  0  0
  8 11  1  0  0  0  0
  8  9  1  0  0  0  0
  9  7  1  0  0  0  0
 10 15  1  0  0  0  0
 10  6  1  0  0  0  0
 11  5  1  0  0  0  0
 12 14  1  0  0  0  0
 13 12  1  0  0  0  0
 13 14  1  0  0  0  0
 14 11  1  0  0  0  0
 16 17  2  0  0  0  0
 16 15  1  0  0  0  0
 18 16  1  0  0  0  0
 19 21  2  0  0  0  0
 20 21  1  0  0  0  0
 21 18  1  0  0  0  0
 23 22  2  0  0  0  0
 24 23  1  0  0  0  0
 25 27  1  0  0  0  0
 26 31  2  0  0  0  0
 27 29  2  0  0  0  0
 28 26  1  0  0  0  0
 29 24  1  0  0  0  0
 30 26  1  0  0  0  0
 30 25  2  0  0  0  0
 31 29  1  0  0  0  0
M  END
>  <MODEL>
5

>  <REMARK>
 VINA RESULT:      -6.5      1.462      1.998
  Name = 
  7 active torsions:
  status: ('A' for Active; 'I' for Inactive)
    1  A    between atoms: C_1  and  C_15
    2  A    between atoms: C_6  and  C_16
    3  A    between atoms: C_6  and  N_21
    4  A    between atoms: N_13  and  C_27
    5  A    between atoms: C_14  and  C_28
    6  A    between atoms: C_24  and  N_31
    7  A    between atoms: C_28  and  C_29
                            x       y       z     vdW  Elec       q    Type
                         _______ _______ _______ _____ _____    ______ ____

>  <TORSDO>
F 7

$$$$
=
 OpenBabel11042414023D

 31 35  0  0  1  0  0  0  0  0999 V2000
  190.0430  172.0600  143.8470 C   0  0  2  0  0  3  0  0  0  0  0  0
  189.5520  173.0500  142.3650 S   0  0  0  0  0  0  0  0  0  0  0  0
  190.0760  172.9480  145.0050 N   0  0  0  0  0  2  0  0  0  0  0  0
  189.7920  174.2880  144.6530 C   0  0  2  0  0  3  0  0  0  0  0  0
  189.1790  175.3200  145.5360 C   0  0  2  0  0  3  0  0  0  0  0  0
  189.4920  174.4900  143.4050 C   0  0  2  0  0  3  0  0  0  0  0  0
  188.5220  176.1780  144.5270 C   0  0  1  0  0  3  0  0  0  0  0  0
  189.6540  177.5420  146.0440 C   0  0  0  0  0  2  0  0  0  0  0  0
  188.7170  177.6020  144.8410 C   0  0  0  0  0  2  0  0  0  0  0  0
  188.6410  175.6610  143.3020 C   0  0  1  0  0  3  0  0  0  0  0  0
  190.1810  176.1740  146.1630 N   0  0  1  0  0  0  0  0  0  0  0  0
  191.5550  175.3140  147.9410 C   0  0  0  0  0  2  0  0  0  0  0  0
  191.1880  176.6420  148.2160 O   0  0  0  0  0  0  0  0  0  0  0  0
  190.2200  175.8430  147.5800 C   0  0  1  0  0  3  0  0  0  0  0  0
  188.4300  176.3670  142.0730 N   0  0  0  0  0  2  0  0  0  0  0  0
  187.2120  177.0170  141.6880 C   0  0  0  0  0  0  0  0  0  0  0  0
  187.1950  177.7030  140.6320 O   0  0  0  0  0  0  0  0  0  0  0  0
  185.9410  176.7940  142.4530 C   0  0  0  0  0  2  0  0  0  0  0  0
  185.7830  179.0080  143.3410 O   0  0  0  0  0  1  0  0  0  0  0  0
  183.9020  178.2230  142.2920 O   0  0  0  0  0  0  0  0  0  0  0  0
  185.2160  178.0740  142.7160 C   0  0  0  0  0  0  0  0  0  0  0  0
  191.3940  171.4610  143.6430 C   0  0  0  0  0  3  0  0  0  0  0  0
  192.3840  171.8340  144.3660 N   0  0  0  0  0  0  0  0  0  0  0  0
  193.6820  171.2520  144.1560 C   0  0  0  0  0  2  0  0  0  0  0  0
  196.8150  172.2590  146.0310 C   0  0  0  0  0  3  0  0  0  0  0  0
  195.5230  174.2520  145.5470 C   0  0  0  0  0  0  0  0  0  0  0  0
  195.8490  171.4780  145.3860 C   0  0  0  0  0  3  0  0  0  0  0  0
  195.3570  175.6630  145.6290 N   0  0  0  0  0  1  0  0  0  0  0  0
  194.7200  172.0830  144.8240 C   0  0  0  0  0  0  0  0  0  0  0  0
  196.6500  173.6450  146.1110 C   0  0  0  0  0  3  0  0  0  0  0  0
  194.5560  173.4710  144.9080 C   0  0  0  0  0  3  0  0  0  0  0  0
  1 22  1  6  0  0  0
  1  3  1  0  0  0  0
  2  6  1  0  0  0  0
  2  1  1  0  0  0  0
  4  3  1  1  0  0  0
  4  5  1  0  0  0  0
  5 11  1  0  0  0  0
  6  4  1  0  0  0  0
  7  9  1  0  0  0  0
  7  5  1  0  0  0  0
  8 11  1  0  0  0  0
  9  8  1  0  0  0  0
 10  6  1  0  0  0  0
 10  7  1  0  0  0  0
 11 14  1  0  0  0  0
 12 13  1  0  0  0  0
 14 12  1  0  0  0  0
 14 13  1  0  0  0  0
 15 10  1  0  0  0  0
 16 15  1  0  0  0  0
 16 18  1  0  0  0  0
 17 16  2  0  0  0  0
 18 21  1  0  0  0  0
 20 21  2  0  0  0  0
 21 19  1  0  0  0  0
 22 23  2  0  0  0  0
 24 23  1  0  0  0  0
 24 29  1  0  0  0  0
 25 30  1  0  0  0  0
 26 28  1  0  0  0  0
 26 30  2  0  0  0  0
 27 25  2  0  0  0  0
 29 31  2  0  0  0  0
 29 27  1  0  0  0  0
 31 26  1  0  0  0  0
M  END
>  <MODEL>
6

>  <REMARK>
 VINA RESULT:      -6.4      3.246      8.401
  Name = 
  7 active torsions:
  status: ('A' for Active; 'I' for Inactive)
    1  A    between atoms: C_1  and  C_15
    2  A    between atoms: C_6  and  C_16
    3  A    between atoms: C_6  and  N_21
    4  A    between atoms: N_13  and  C_27
    5  A    between atoms: C_14  and  C_28
    6  A    between atoms: C_24  and  N_31
    7  A    between atoms: C_28  and  C_29
                            x       y       z     vdW  Elec       q    Type
                         _______ _______ _______ _____ _____    ______ ____

>  <TORSDO>
F 7

$$$$
=
 OpenBabel11042414023D

 31 35  0  0  1  0  0  0  0  0999 V2000
  191.9540  177.1010  143.8320 C   0  0  2  0  0  3  0  0  0  0  0  0
  190.3060  177.6040  144.4980 S   0  0  0  0  0  0  0  0  0  0  0  0
  191.7760  175.9090  143.0080 N   0  0  0  0  0  2  0  0  0  0  0  0
  190.4350  175.4590  143.0110 C   0  0  2  0  0  3  0  0  0  0  0  0
  189.7560  174.7060  141.9190 C   0  0  2  0  0  3  0  0  0  0  0  0
  189.5960  176.1980  143.6730 C   0  0  2  0  0  3  0  0  0  0  0  0
  188.3550  175.1240  142.1390 C   0  0  1  0  0  3  0  0  0  0  0  0
  188.4040  172.8130  141.8230 C   0  0  0  0  0  2  0  0  0  0  0  0
  187.4390  173.9800  142.0080 C   0  0  0  0  0  2  0  0  0  0  0  0
  188.2700  176.0410  143.1050 C   0  0  1  0  0  3  0  0  0  0  0  0
  189.7620  173.2670  142.1580 N   0  0  1  0  0  0  0  0  0  0  0  0
  191.7150  171.8840  141.9020 C   0  0  0  0  0  2  0  0  0  0  0  0
  190.6040  171.2630  141.3070 O   0  0  0  0  0  0  0  0  0  0  0  0
  190.6730  172.6640  141.1950 C   0  0  1  0  0  3  0  0  0  0  0  0
  187.0740  176.4140  143.8010 N   0  0  0  0  0  2  0  0  0  0  0  0
  186.1870  177.4720  143.4170 C   0  0  0  0  0  0  0  0  0  0  0  0
  185.1070  177.6210  144.0480 O   0  0  0  0  0  0  0  0  0  0  0  0
  186.5790  178.4680  142.3660 C   0  0  0  0  0  2  0  0  0  0  0  0
  184.8440  178.3030  140.7290 O   0  0  0  0  0  1  0  0  0  0  0  0
  186.8910  177.4890  140.0920 O   0  0  0  0  0  0  0  0  0  0  0  0
  186.0520  178.0940  141.0190 C   0  0  0  0  0  0  0  0  0  0  0  0
  192.8920  176.7940  144.9510 C   0  0  0  0  0  3  0  0  0  0  0  0
  194.0140  176.2200  144.7170 N   0  0  0  0  0  0  0  0  0  0  0  0
  194.9060  175.9260  145.8050 C   0  0  0  0  0  2  0  0  0  0  0  0
  197.0200  172.7860  145.9500 C   0  0  0  0  0  3  0  0  0  0  0  0
  194.7570  172.1720  145.3380 C   0  0  0  0  0  0  0  0  0  0  0  0
  196.6360  174.1300  146.0210 C   0  0  0  0  0  3  0  0  0  0  0  0
  193.8010  171.1780  144.9910 N   0  0  0  0  0  1  0  0  0  0  0  0
  195.3120  174.4950  145.7500 C   0  0  0  0  0  0  0  0  0  0  0  0
  196.0800  171.8090  145.6070 C   0  0  0  0  0  3  0  0  0  0  0  0
  194.3740  173.5150  145.4040 C   0  0  0  0  0  3  0  0  0  0  0  0
  1  2  1  0  0  0  0
  1 22  1  1  0  0  0
  3  1  1  0  0  0  0
  4  3  1  6  0  0  0
  4  6  1  0  0  0  0
  5  7  1  0  0  0  0
  5 11  1  0  0  0  0
  5  4  1  0  0  0  0
  6  2  1  0  0  0  0
  7 10  1  0  0  0  0
  8  9  1  0  0  0  0
  8 11  1  0  0  0  0
  9  7  1  0  0  0  0
 10  6  1  0  0  0  0
 10 15  1  0  0  0  0
 13 12  1  0  0  0  0
 14 13  1  0  0  0  0
 14 12  1  0  0  0  0
 14 11  1  0  0  0  0
 16 15  1  0  0  0  0
 16 17  2  0  0  0  0
 18 16  1  0  0  0  0
 19 21  1  0  0  0  0
 20 21  2  0  0  0  0
 21 18  1  0  0  0  0
 23 22  2  0  0  0  0
 23 24  1  0  0  0  0
 25 27  1  0  0  0  0
 26 31  2  0  0  0  0
 26 30  1  0  0  0  0
 28 26  1  0  0  0  0
 29 24  1  0  0  0  0
 29 27  2  0  0  0  0
 30 25  2  0  0  0  0
 31 29  1  0  0  0  0
M  END
>  <MODEL>
7

>  <REMARK>
 VINA RESULT:      -6.4      3.244      7.904
  Name = 
  7 active torsions:
  status: ('A' for Active; 'I' for Inactive)
    1  A    between atoms: C_1  and  C_15
    2  A    between atoms: C_6  and  C_16
    3  A    between atoms: C_6  and  N_21
    4  A    between atoms: N_13  and  C_27
    5  A    between atoms: C_14  and  C_28
    6  A    between atoms: C_24  and  N_31
    7  A    between atoms: C_28  and  C_29
                            x       y       z     vdW  Elec       q    Type
                         _______ _______ _______ _____ _____    ______ ____

>  <TORSDO>
F 7

$$$$
=
 OpenBabel11042414023D

 31 35  0  0  1  0  0  0  0  0999 V2000
  189.8730  176.9680  143.1620 C   0  0  2  0  0  3  0  0  0  0  0  0
  189.2800  175.3950  142.3940 S   0  0  0  0  0  0  0  0  0  0  0  0
  191.3290  176.9160  143.2560 N   0  0  0  0  0  2  0  0  0  0  0  0
  191.8450  175.6800  142.8010 C   0  0  2  0  0  3  0  0  0  0  0  0
  193.1930  175.4540  142.2070 C   0  0  2  0  0  3  0  0  0  0  0  0
  190.9700  174.8460  142.3260 C   0  0  2  0  0  3  0  0  0  0  0  0
  192.9120  174.2840  141.3480 C   0  0  1  0  0  3  0  0  0  0  0  0
  194.8870  173.8880  142.5260 C   0  0  0  0  0  2  0  0  0  0  0  0
  193.9930  173.2910  141.4430 C   0  0  0  0  0  2  0  0  0  0  0  0
  191.6130  173.9760  141.3600 C   0  0  1  0  0  3  0  0  0  0  0  0
  194.1550  174.9750  143.1940 N   0  0  1  0  0  0  0  0  0  0  0  0
  195.0500  176.4530  144.8680 C   0  0  0  0  0  2  0  0  0  0  0  0
  196.0630  175.6140  144.3760 O   0  0  0  0  0  0  0  0  0  0  0  0
  195.1030  176.0500  143.4440 C   0  0  1  0  0  3  0  0  0  0  0  0
  191.0450  172.7340  140.9270 N   0  0  0  0  0  2  0  0  0  0  0  0
  190.6960  172.4070  139.5760 C   0  0  0  0  0  0  0  0  0  0  0  0
  190.3130  171.2360  139.3120 O   0  0  0  0  0  0  0  0  0  0  0  0
  190.6640  173.4610  138.5090 C   0  0  0  0  0  2  0  0  0  0  0  0
  188.9450  173.7570  136.8740 O   0  0  0  0  0  0  0  0  0  0  0  0
  188.3300  174.1590  139.0460 O   0  0  0  0  0  1  0  0  0  0  0  0
  189.2680  173.7890  138.0900 C   0  0  0  0  0  0  0  0  0  0  0  0
  189.2930  177.1260  144.5280 C   0  0  0  0  0  3  0  0  0  0  0  0
  188.3350  176.3690  144.9150 N   0  0  0  0  0  0  0  0  0  0  0  0
  187.7810  176.5340  146.2320 C   0  0  0  0  0  2  0  0  0  0  0  0
  184.6690  178.4430  147.2360 C   0  0  0  0  0  3  0  0  0  0  0  0
  184.6870  178.2000  144.8250 C   0  0  0  0  0  0  0  0  0  0  0  0
  185.8830  177.7530  147.3140 C   0  0  0  0  0  3  0  0  0  0  0  0
  184.0800  178.4260  143.5590 N   0  0  0  0  0  1  0  0  0  0  0  0
  186.4990  177.2860  146.1490 C   0  0  0  0  0  0  0  0  0  0  0  0
  184.0710  178.6650  145.9910 C   0  0  0  0  0  3  0  0  0  0  0  0
  185.8980  177.5060  144.9040 C   0  0  0  0  0  3  0  0  0  0  0  0
  1  3  1  0  0  0  0
  1 22  1  1  0  0  0
  2  1  1  0  0  0  0
  4  3  1  6  0  0  0
  5  4  1  0  0  0  0
  5 11  1  0  0  0  0
  6  2  1  0  0  0  0
  6  4  1  0  0  0  0
  7 10  1  0  0  0  0
  7  9  1  0  0  0  0
  7  5  1  0  0  0  0
  8 11  1  0  0  0  0
  9  8  1  0  0  0  0
 10  6  1  0  0  0  0
 11 14  1  0  0  0  0
 13 12  1  0  0  0  0
 14 13  1  0  0  0  0
 14 12  1  0  0  0  0
 15 10  1  0  0  0  0
 16 15  1  0  0  0  0
 17 16  2  0  0  0  0
 18 16  1  0  0  0  0
 19 21  2  0  0  0  0
 21 18  1  0  0  0  0
 21 20  1  0  0  0  0
 22 23  2  0  0  0  0
 23 24  1  0  0  0  0
 25 27  1  0  0  0  0
 26 31  2  0  0  0  0
 26 30  1  0  0  0  0
 28 26  1  0  0  0  0
 29 24  1  0  0  0  0
 29 27  2  0  0  0  0
 30 25  2  0  0  0  0
 31 29  1  0  0  0  0
M  END
>  <MODEL>
8

>  <REMARK>
 VINA RESULT:      -6.3      2.294      5.635
  Name = 
  7 active torsions:
  status: ('A' for Active; 'I' for Inactive)
    1  A    between atoms: C_1  and  C_15
    2  A    between atoms: C_6  and  C_16
    3  A    between atoms: C_6  and  N_21
    4  A    between atoms: N_13  and  C_27
    5  A    between atoms: C_14  and  C_28
    6  A    between atoms: C_24  and  N_31
    7  A    between atoms: C_28  and  C_29
                            x       y       z     vdW  Elec       q    Type
                         _______ _______ _______ _____ _____    ______ ____

>  <TORSDO>
F 7

$$$$
=
 OpenBabel11042414023D

 31 35  0  0  1  0  0  0  0  0999 V2000
  190.4490  174.9170  146.2360 C   0  0  2  0  0  3  0  0  0  0  0  0
  192.2490  174.9890  146.6480 S   0  0  0  0  0  0  0  0  0  0  0  0
  190.2550  173.9240  145.1840 N   0  0  0  0  0  2  0  0  0  0  0  0
  191.4790  173.3640  144.7520 C   0  0  2  0  0  3  0  0  0  0  0  0
  191.6720  172.0020  144.1790 C   0  0  2  0  0  3  0  0  0  0  0  0
  192.5370  173.7660  145.3900 C   0  0  2  0  0  3  0  0  0  0  0  0
  193.0740  171.7430  144.5720 C   0  0  1  0  0  3  0  0  0  0  0  0
  192.8030  171.1390  142.3350 C   0  0  0  0  0  2  0  0  0  0  0  0
  193.8220  171.1190  143.4700 C   0  0  0  0  0  2  0  0  0  0  0  0
  193.5520  172.7310  145.3340 C   0  0  1  0  0  3  0  0  0  0  0  0
  191.6860  172.0160  142.7200 N   0  0  1  0  0  0  0  0  0  0  0  0
  189.6210  172.3690  141.5370 C   0  0  0  0  0  2  0  0  0  0  0  0
  190.4120  171.4280  140.8550 O   0  0  0  0  0  0  0  0  0  0  0  0
  190.4580  171.3840  142.2610 C   0  0  1  0  0  3  0  0  0  0  0  0
  194.9360  172.9780  145.6090 N   0  0  0  0  0  2  0  0  0  0  0  0
  195.7180  174.0370  145.0430 C   0  0  0  0  0  0  0  0  0  0  0  0
  196.8940  174.2160  145.4580 O   0  0  0  0  0  0  0  0  0  0  0  0
  195.2030  174.8500  143.8910 C   0  0  0  0  0  2  0  0  0  0  0  0
  196.4360  176.8060  143.2840 O   0  0  0  0  0  0  0  0  0  0  0  0
  194.9310  177.0720  144.9930 O   0  0  0  0  0  1  0  0  0  0  0  0
  195.5560  176.2950  144.0260 C   0  0  0  0  0  0  0  0  0  0  0  0
  189.9760  176.2480  145.7540 C   0  0  0  0  0  3  0  0  0  0  0  0
  188.8380  176.3600  145.1760 N   0  0  0  0  0  0  0  0  0  0  0  0
  188.3950  177.6470  144.7120 C   0  0  0  0  0  2  0  0  0  0  0  0
  185.4120  177.9510  147.0250 C   0  0  0  0  0  3  0  0  0  0  0  0
  184.7310  178.5920  144.7890 C   0  0  0  0  0  0  0  0  0  0  0  0
  186.7100  177.7150  146.5610 C   0  0  0  0  0  3  0  0  0  0  0  0
  183.7250  179.0370  143.8870 N   0  0  0  0  0  1  0  0  0  0  0  0
  187.0190  177.9170  145.2120 C   0  0  0  0  0  0  0  0  0  0  0  0
  184.4230  178.3880  146.1380 C   0  0  0  0  0  3  0  0  0  0  0  0
  186.0280  178.3520  144.3250 C   0  0  0  0  0  3  0  0  0  0  0  0
  1 22  1  6  0  0  0
  1  2  1  0  0  0  0
  3  1  1  0  0  0  0
  4  3  1  1  0  0  0
  4  6  1  0  0  0  0
  5  7  1  0  0  0  0
  5  4  1  0  0  0  0
  6  2  1  0  0  0  0
  7 10  1  0  0  0  0
  8 11  1  0  0  0  0
  8  9  1  0  0  0  0
  9  7  1  0  0  0  0
 10  6  1  0  0  0  0
 10 15  1  0  0  0  0
 11  5  1  0  0  0  0
 12 14  1  0  0  0  0
 13 12  1  0  0  0  0
 13 14  1  0  0  0  0
 14 11  1  0  0  0  0
 16 17  2  0  0  0  0
 16 15  1  0  0  0  0
 18 21  1  0  0  0  0
 18 16  1  0  0  0  0
 19 21  2  0  0  0  0
 21 20  1  0  0  0  0
 23 22  2  0  0  0  0
 24 23  1  0  0  0  0
 24 29  1  0  0  0  0
 26 30  1  0  0  0  0
 27 25  1  0  0  0  0
 28 26  1  0  0  0  0
 29 27  2  0  0  0  0
 30 25  2  0  0  0  0
 31 26  2  0  0  0  0
 31 29  1  0  0  0  0
M  END
>  <MODEL>
9

>  <REMARK>
 VINA RESULT:      -6.2      1.914      2.558
  Name = 
  7 active torsions:
  status: ('A' for Active; 'I' for Inactive)
    1  A    between atoms: C_1  and  C_15
    2  A    between atoms: C_6  and  C_16
    3  A    between atoms: C_6  and  N_21
    4  A    between atoms: N_13  and  C_27
    5  A    between atoms: C_14  and  C_28
    6  A    between atoms: C_24  and  N_31
    7  A    between atoms: C_28  and  C_29
                            x       y       z     vdW  Elec       q    Type
                         _______ _______ _______ _____ _____    ______ ____

>  <TORSDO>
F 7

$$$$
