=
 OpenBabel11042417563D

 55 61  0  0  1  0  0  0  0  0999 V2000
  189.0270  173.1370  141.8580 C   0  0  0  0  0  3  0  0  0  0  0  0
  190.1800  172.8770  141.2420 C   0  0  0  0  0  0  0  0  0  0  0  0
  190.4610  172.8670  138.6890 C   0  0  0  0  0  0  0  0  0  0  0  0
  190.1160  171.6620  138.5520 O   0  0  0  0  0  0  0  0  0  0  0  0
  190.4770  173.4930  139.9780 N   0  0  0  0  0  2  0  0  0  0  0  0
  189.8650  173.4950  136.3700 C   0  0  0  0  0  1  0  0  0  0  0  0
  190.8690  173.6690  137.4990 C   0  0  2  0  0  3  0  0  0  0  0  0
  192.2670  173.2680  137.0470 C   0  0  0  0  0  2  0  0  0  0  0  0
  194.5180  174.8200  139.3320 C   0  0  0  0  0  0  0  0  0  0  0  0
  195.1860  174.5630  141.4220 C   0  0  0  0  0  0  0  0  0  0  0  0
  194.6500  175.5330  140.4350 C   0  0  0  0  0  2  0  0  0  0  0  0
  193.5360  174.9310  138.3200 N   0  0  0  0  0  0  0  0  0  0  0  0
  193.2890  173.6770  138.0530 C   0  0  0  0  0  0  0  0  0  0  0  0
  195.2080  173.3070  140.9530 C   0  0  0  0  0  3  0  0  0  0  0  0
  193.9670  172.7240  138.9000 N   0  0  0  0  0  2  0  0  0  0  0  0
  194.7630  173.4680  139.5840 C   0  0  0  0  0  0  0  0  0  0  0  0
  195.5940  174.9280  142.8080 C   0  0  0  0  0  2  0  0  0  0  0  0
  194.0470  176.7320  145.6340 C   0  0  0  0  0  2  0  0  0  0  0  0
  193.4550  174.6970  143.7890 C   0  0  2  0  0  3  0  0  0  0  0  0
  194.5230  175.6640  143.4630 N   0  0  0  0  0  0  0  0  0  0  0  0
  192.1130  175.2180  143.3010 C   0  0  0  0  0  1  0  0  0  0  0  0
  193.3830  174.2860  145.2710 C   0  0  0  0  0  2  0  0  0  0  0  0
  195.1170  176.3280  144.6300 C   0  0  0  0  0  2  0  0  0  0  0  0
  193.4250  175.4760  146.2400 C   0  0  2  0  0  3  0  0  0  0  0  0
  192.0810  175.7620  146.8270 C   0  0  0  0  0  0  0  0  0  0  0  0
  191.2760  176.7360  146.2530 O   0  0  0  0  0  0  0  0  0  0  0  0
  191.6750  175.1350  147.8420 O   0  0  0  0  0  1  0  0  0  0  0  0
  191.1100  171.9900  141.8890 C   0  0  0  0  0  0  0  0  0  0  0  0
  191.8830  171.2480  142.4410 C   0  0  0  0  0  0  0  0  0  0  0  0
  195.1680  168.1660  145.8840 C   0  0  0  0  0  2  0  0  0  0  0  0
  192.4370  169.1230  143.4040 C   0  0  0  0  0  3  0  0  0  0  0  0
  196.7850  170.6290  143.9700 F   0  0  0  0  0  0  0  0  0  0  0  0
  196.3890  169.0240  145.7030 C   0  0  0  0  0  0  0  0  0  0  0  0
  194.1690  170.8580  143.4870 C   0  0  0  0  0  2  0  0  0  0  0  0
  192.8010  170.3690  143.1070 C   0  0  0  0  0  0  0  0  0  0  0  0
  197.5720  168.2910  145.1060 C   0  0  0  0  0  2  0  0  0  0  0  0
  194.0270  168.9790  145.2940 C   0  0  2  0  0  3  0  0  0  0  0  0
  197.6130  168.7560  146.5540 C   0  0  0  0  0  2  0  0  0  0  0  0
  193.3970  168.2250  144.1200 C   0  0  0  0  0  2  0  0  0  0  0  0
  194.5680  170.3850  144.9010 C   0  0  1  0  0  3  0  0  0  0  0  0
  196.0860  170.4140  145.1500 C   0  0  2  0  0  0  0  0  0  0  0  0
  196.4440  171.5340  146.1380 C   0  0  0  0  0  2  0  0  0  0  0  0
  196.5530  172.8810  145.4940 C   0  0  0  0  0  3  0  0  0  0  0  0
  197.3720  173.7970  146.0000 C   0  0  0  0  0  2  0  0  0  0  0  0
  188.0040  174.0800  141.3060 C   0  0  0  0  0  2  0  0  0  0  0  0
  186.1140  177.0040  142.8270 C   0  0  0  0  0  0  0  0  0  0  0  0
  185.1670  178.3310  142.4470 S   0  0  0  0  0  0  0  0  0  0  0  0
  185.1590  177.5130  144.7810 C   0  0  0  0  0  0  0  0  0  0  0  0
  184.5800  178.5260  144.0160 C   0  0  0  0  0  3  0  0  0  0  0  0
  188.7920  176.6180  143.8770 O   0  0  0  0  0  1  0  0  0  0  0  0
  184.8740  177.3560  146.2310 C   0  0  0  0  0  1  0  0  0  0  0  0
  188.7520  175.4720  143.1160 N   0  0  0  0  0  0  0  0  0  0  0  0
  186.8720  176.2610  141.8690 N   0  0  0  0  0  2  0  0  0  0  0  0
  185.9990  176.6670  144.1260 N   0  0  0  0  0  0  0  0  0  0  0  0
  187.8700  175.2810  142.1820 C   0  0  0  0  0  0  0  0  0  0  0  0
  2  1  2  0  0  0  0
  2 28  1  0  0  0  0
  3  5  1  0  0  0  0
  4  3  2  0  0  0  0
  5  2  1  0  0  0  0
  7  6  1  6  0  0  0
  7  3  1  0  0  0  0
  8  7  1  0  0  0  0
  8 13  1  0  0  0  0
  9 16  2  0  0  0  0
  9 11  1  0  0  0  0
 10 17  1  0  0  0  0
 11 10  1  0  0  0  0
 12  9  1  0  0  0  0
 13 12  2  0  0  0  0
 13 15  1  0  0  0  0
 14 10  2  0  0  0  0
 15 16  1  0  0  0  0
 16 14  1  0  0  0  0
 17 20  1  0  0  0  0
 18 24  1  0  0  0  0
 19 21  1  1  0  0  0
 19 22  1  0  0  0  0
 20 19  1  0  0  0  0
 20 23  1  0  0  0  0
 22 24  1  0  0  0  0
 23 18  1  0  0  0  0
 24 25  1  6  0  0  0
 25 27  1  0  0  0  0
 26 25  2  0  0  0  0
 28 29  3  0  0  0  0
 29 35  1  0  0  0  0
 31 39  1  0  0  0  0
 33 30  1  0  0  0  0
 33 38  1  0  0  0  0
 35 31  2  0  0  0  0
 35 34  1  0  0  0  0
 36 33  1  0  0  0  0
 36 38  1  0  0  0  0
 37 39  1  6  0  0  0
 37 30  1  0  0  0  0
 40 34  1  6  0  0  0
 40 41  1  0  0  0  0
 40 37  1  0  0  0  0
 41 32  1  6  0  0  0
 41 33  1  0  0  0  0
 41 42  1  0  0  0  0
 43 44  2  0  0  0  0
 43 42  1  0  0  0  0
 45  1  1  0  0  0  0
 45 55  1  0  0  0  0
 46 54  2  0  0  0  0
 47 46  1  0  0  0  0
 47 49  1  0  0  0  0
 48 51  1  0  0  0  0
 49 48  2  0  0  0  0
 52 50  1  0  0  0  0
 53 55  1  0  0  0  0
 53 46  1  0  0  0  0
 54 48  1  0  0  0  0
 55 52  2  0  0  0  0
M  END
>  <MODEL>
1

>  <REMARK>
 VINA RESULT:      -7.3      0.000      0.000
  Name = 
  13 active torsions:
  status: ('A' for Active; 'I' for Inactive)
    1  A    between atoms: C_5  and  C_28
    2  A    between atoms: C_11  and  C_55
    3  A    between atoms: C_12  and  C_33
    4  A    between atoms: C_13  and  C_54
    5  A    between atoms: C_14  and  C_16
    6  A    between atoms: C_14  and  N_17
    7  A    between atoms: C_18  and  C_37
    8  A    between atoms: C_18  and  N_39
    9  A    between atoms: C_24  and  C_47
   10  A    between atoms: C_28  and  C_53
   11  A    between atoms: C_31  and  C_40
   12  A    between atoms: C_33  and  C_43
   13  A    between atoms: C_47  and  C_54
                            x       y       z     vdW  Elec       q    Type
                         _______ _______ _______ _____ _____    ______ ____

>  <TORSDO>
F 13

$$$$
=
 OpenBabel11042417563D

 55 61  0  0  1  0  0  0  0  0999 V2000
  190.0270  171.8940  140.6090 C   0  0  0  0  0  3  0  0  0  0  0  0
  190.2610  173.1890  140.3920 C   0  0  0  0  0  0  0  0  0  0  0  0
  191.2820  173.7600  138.1060 C   0  0  0  0  0  0  0  0  0  0  0  0
  190.2060  173.6020  137.4690 O   0  0  0  0  0  0  0  0  0  0  0  0
  191.3360  173.5920  139.5280 N   0  0  0  0  0  2  0  0  0  0  0  0
  192.3710  173.8900  135.8860 C   0  0  0  0  0  1  0  0  0  0  0  0
  192.5360  174.1210  137.3800 C   0  0  2  0  0  3  0  0  0  0  0  0
  193.7100  173.3190  137.9260 C   0  0  0  0  0  2  0  0  0  0  0  0
  195.0020  175.5100  140.4210 C   0  0  0  0  0  0  0  0  0  0  0  0
  195.0800  175.6390  142.6260 C   0  0  0  0  0  0  0  0  0  0  0  0
  194.7240  176.3690  141.3830 C   0  0  0  0  0  2  0  0  0  0  0  0
  194.3410  175.3220  139.1850 N   0  0  0  0  0  0  0  0  0  0  0  0
  194.3440  174.0210  139.0790 C   0  0  0  0  0  0  0  0  0  0  0  0
  195.3960  174.3560  142.3970 C   0  0  0  0  0  3  0  0  0  0  0  0
  194.8730  173.3140  140.2210 N   0  0  0  0  0  2  0  0  0  0  0  0
  195.3390  174.2630  140.9530 C   0  0  0  0  0  0  0  0  0  0  0  0
  195.0280  176.2410  143.9870 C   0  0  0  0  0  2  0  0  0  0  0  0
  192.5130  174.3730  145.9400 C   0  0  0  0  0  2  0  0  0  0  0  0
  192.7880  175.6860  143.4720 C   0  0  2  0  0  3  0  0  0  0  0  0
  193.7110  176.0370  144.5710 N   0  0  0  0  0  0  0  0  0  0  0  0
  191.5430  176.5570  143.5390 C   0  0  0  0  0  1  0  0  0  0  0  0
  192.4170  174.1940  143.3880 C   0  0  0  0  0  2  0  0  0  0  0  0
  193.8580  174.9950  145.5950 C   0  0  0  0  0  2  0  0  0  0  0  0
  191.9950  173.5920  144.7350 C   0  0  2  0  0  3  0  0  0  0  0  0
  190.5170  173.3860  144.8130 C   0  0  0  0  0  0  0  0  0  0  0  0
  189.9250  172.3790  144.0620 O   0  0  0  0  0  0  0  0  0  0  0  0
  189.8010  174.1210  145.5440 O   0  0  0  0  0  1  0  0  0  0  0  0
  189.3990  174.1490  141.0280 C   0  0  0  0  0  0  0  0  0  0  0  0
  188.6720  174.9560  141.5520 C   0  0  0  0  0  0  0  0  0  0  0  0
  186.0690  179.2430  144.1960 C   0  0  0  0  0  2  0  0  0  0  0  0
  187.2890  176.9110  141.4390 C   0  0  0  0  0  3  0  0  0  0  0  0
  186.0070  176.1300  145.8260 F   0  0  0  0  0  0  0  0  0  0  0  0
  185.8660  178.4970  145.4860 C   0  0  0  0  0  0  0  0  0  0  0  0
  187.5000  175.8340  143.6320 C   0  0  0  0  0  2  0  0  0  0  0  0
  187.8070  175.9230  142.1650 C   0  0  0  0  0  0  0  0  0  0  0  0
  184.4110  178.3280  145.8750 C   0  0  0  0  0  2  0  0  0  0  0  0
  187.0520  178.3950  143.4050 C   0  0  2  0  0  3  0  0  0  0  0  0
  185.3200  179.2370  146.6900 C   0  0  0  0  0  2  0  0  0  0  0  0
  186.4070  177.9260  142.0980 C   0  0  0  0  0  2  0  0  0  0  0  0
  187.5360  177.2220  144.3060 C   0  0  1  0  0  3  0  0  0  0  0  0
  186.7690  177.2760  145.6380 C   0  0  2  0  0  0  0  0  0  0  0  0
  187.7470  177.4070  146.8140 C   0  0  0  0  0  2  0  0  0  0  0  0
  189.1820  177.4600  146.3900 C   0  0  0  0  0  3  0  0  0  0  0  0
  190.1460  177.2080  147.2700 C   0  0  0  0  0  2  0  0  0  0  0  0
  190.8260  170.8040  139.9650 C   0  0  0  0  0  2  0  0  0  0  0  0
  194.0480  170.3550  141.9280 C   0  0  0  0  0  0  0  0  0  0  0  0
  195.7070  170.2130  141.7660 S   0  0  0  0  0  0  0  0  0  0  0  0
  194.7900  170.7640  143.9950 C   0  0  0  0  0  0  0  0  0  0  0  0
  196.0260  170.5430  143.3880 C   0  0  0  0  0  3  0  0  0  0  0  0
  191.8950  168.5740  142.7140 O   0  0  0  0  0  1  0  0  0  0  0  0
  194.6640  171.0910  145.4390 C   0  0  0  0  0  1  0  0  0  0  0  0
  191.1560  169.3430  141.8440 N   0  0  0  0  0  0  0  0  0  0  0  0
  193.1250  170.2540  140.8410 N   0  0  0  0  0  2  0  0  0  0  0  0
  193.6970  170.6690  143.1910 N   0  0  0  0  0  0  0  0  0  0  0  0
  191.7020  170.1320  140.9690 C   0  0  0  0  0  0  0  0  0  0  0  0
  2  1  2  0  0  0  0
  2 28  1  0  0  0  0
  3  5  1  0  0  0  0
  4  3  2  0  0  0  0
  5  2  1  0  0  0  0
  7  6  1  6  0  0  0
  7  8  1  0  0  0  0
  7  3  1  0  0  0  0
  8 13  1  0  0  0  0
  9 16  2  0  0  0  0
  9 11  1  0  0  0  0
 10 17  1  0  0  0  0
 11 10  1  0  0  0  0
 12  9  1  0  0  0  0
 13 12  2  0  0  0  0
 13 15  1  0  0  0  0
 14 10  2  0  0  0  0
 15 16  1  0  0  0  0
 16 14  1  0  0  0  0
 17 20  1  0  0  0  0
 19 21  1  1  0  0  0
 19 20  1  0  0  0  0
 20 23  1  0  0  0  0
 22 19  1  0  0  0  0
 22 24  1  0  0  0  0
 23 18  1  0  0  0  0
 24 25  1  6  0  0  0
 24 18  1  0  0  0  0
 25 27  1  0  0  0  0
 26 25  2  0  0  0  0
 28 29  3  0  0  0  0
 29 35  1  0  0  0  0
 30 33  1  0  0  0  0
 31 39  1  0  0  0  0
 31 35  2  0  0  0  0
 33 41  1  0  0  0  0
 33 36  1  0  0  0  0
 33 38  1  0  0  0  0
 35 34  1  0  0  0  0
 36 38  1  0  0  0  0
 37 39  1  6  0  0  0
 37 30  1  0  0  0  0
 37 40  1  0  0  0  0
 40 34  1  6  0  0  0
 40 41  1  0  0  0  0
 41 32  1  1  0  0  0
 41 42  1  0  0  0  0
 43 42  1  0  0  0  0
 43 44  2  0  0  0  0
 45  1  1  0  0  0  0
 45 55  1  0  0  0  0
 46 54  2  0  0  0  0
 47 46  1  0  0  0  0
 47 49  1  0  0  0  0
 48 51  1  0  0  0  0
 49 48  2  0  0  0  0
 52 50  1  0  0  0  0
 53 55  1  0  0  0  0
 53 46  1  0  0  0  0
 54 48  1  0  0  0  0
 55 52  2  0  0  0  0
M  END
>  <MODEL>
2

>  <REMARK>
 VINA RESULT:      -7.2      3.351      7.807
  Name = 
  13 active torsions:
  status: ('A' for Active; 'I' for Inactive)
    1  A    between atoms: C_5  and  C_28
    2  A    between atoms: C_11  and  C_55
    3  A    between atoms: C_12  and  C_33
    4  A    between atoms: C_13  and  C_54
    5  A    between atoms: C_14  and  C_16
    6  A    between atoms: C_14  and  N_17
    7  A    between atoms: C_18  and  C_37
    8  A    between atoms: C_18  and  N_39
    9  A    between atoms: C_24  and  C_47
   10  A    between atoms: C_28  and  C_53
   11  A    between atoms: C_31  and  C_40
   12  A    between atoms: C_33  and  C_43
   13  A    between atoms: C_47  and  C_54
                            x       y       z     vdW  Elec       q    Type
                         _______ _______ _______ _____ _____    ______ ____

>  <TORSDO>
F 13

$$$$
=
 OpenBabel11042417563D

 55 61  0  0  1  0  0  0  0  0999 V2000
  191.2430  172.2510  141.5440 C   0  0  0  0  0  3  0  0  0  0  0  0
  190.7710  173.2740  140.8300 C   0  0  0  0  0  0  0  0  0  0  0  0
  190.5490  173.0280  138.2830 C   0  0  0  0  0  0  0  0  0  0  0  0
  189.4360  172.4380  138.3320 O   0  0  0  0  0  0  0  0  0  0  0  0
  191.2090  173.4700  139.4750 N   0  0  0  0  0  2  0  0  0  0  0  0
  190.1970  173.1680  135.8370 C   0  0  0  0  0  1  0  0  0  0  0  0
  191.2080  173.2750  136.9670 C   0  0  2  0  0  3  0  0  0  0  0  0
  192.3560  172.2950  136.7610 C   0  0  0  0  0  2  0  0  0  0  0  0
  195.1500  174.0060  138.1640 C   0  0  0  0  0  0  0  0  0  0  0  0
  196.2210  174.1130  140.0930 C   0  0  0  0  0  0  0  0  0  0  0  0
  195.5660  174.9120  139.0280 C   0  0  0  0  0  2  0  0  0  0  0  0
  193.9890  174.0200  137.3560 N   0  0  0  0  0  0  0  0  0  0  0  0
  193.5950  172.7790  137.4350 C   0  0  0  0  0  0  0  0  0  0  0  0
  196.0470  172.7940  139.9300 C   0  0  0  0  0  3  0  0  0  0  0  0
  194.3610  171.9490  138.3360 N   0  0  0  0  0  2  0  0  0  0  0  0
  195.3380  172.7170  138.6700 C   0  0  0  0  0  0  0  0  0  0  0  0
  196.9370  174.7080  141.2560 C   0  0  0  0  0  2  0  0  0  0  0  0
  196.0480  176.9870  144.0210 C   0  0  0  0  0  2  0  0  0  0  0  0
  194.9980  174.8000  142.6060 C   0  0  2  0  0  3  0  0  0  0  0  0
  196.0540  175.6150  141.9720 N   0  0  0  0  0  0  0  0  0  0  0  0
  193.6290  175.3760  142.2810 C   0  0  0  0  0  1  0  0  0  0  0  0
  195.1640  174.5860  144.1210 C   0  0  0  0  0  2  0  0  0  0  0  0
  196.8910  176.3640  142.9180 C   0  0  0  0  0  2  0  0  0  0  0  0
  195.4600  175.8800  144.8930 C   0  0  2  0  0  3  0  0  0  0  0  0
  194.2660  176.3590  145.6520 C   0  0  0  0  0  0  0  0  0  0  0  0
  193.3230  177.1540  145.0140 O   0  0  0  0  0  0  0  0  0  0  0  0
  194.1100  176.0590  146.8660 O   0  0  0  0  0  1  0  0  0  0  0  0
  189.8080  174.1460  141.4490 C   0  0  0  0  0  0  0  0  0  0  0  0
  189.0050  174.8730  141.9770 C   0  0  0  0  0  0  0  0  0  0  0  0
  185.9530  178.8970  144.5530 C   0  0  0  0  0  2  0  0  0  0  0  0
  187.2610  176.5160  141.8800 C   0  0  0  0  0  3  0  0  0  0  0  0
  186.7030  176.0410  146.4590 F   0  0  0  0  0  0  0  0  0  0  0  0
  186.0590  178.2850  145.9230 C   0  0  0  0  0  0  0  0  0  0  0  0
  187.9460  175.7630  144.1120 C   0  0  0  0  0  2  0  0  0  0  0  0
  188.0480  175.7320  142.6150 C   0  0  0  0  0  0  0  0  0  0  0  0
  184.7250  177.9020  146.5290 C   0  0  0  0  0  2  0  0  0  0  0  0
  186.9790  178.1540  143.7130 C   0  0  2  0  0  3  0  0  0  0  0  0
  185.5300  179.0520  147.1170 C   0  0  0  0  0  2  0  0  0  0  0  0
  186.2840  177.4240  142.5600 C   0  0  0  0  0  2  0  0  0  0  0  0
  187.7910  177.2050  144.6410 C   0  0  1  0  0  3  0  0  0  0  0  0
  187.1960  177.2760  146.0570 C   0  0  2  0  0  0  0  0  0  0  0  0
  188.2650  177.7220  147.0650 C   0  0  0  0  0  2  0  0  0  0  0  0
  189.6650  177.5400  146.5650 C   0  0  0  0  0  3  0  0  0  0  0  0
  190.4610  176.6380  147.1300 C   0  0  0  0  0  2  0  0  0  0  0  0
  192.2100  171.2510  140.9920 C   0  0  0  0  0  2  0  0  0  0  0  0
  195.4340  170.3070  142.7660 C   0  0  0  0  0  0  0  0  0  0  0  0
  196.9260  169.5830  142.5400 S   0  0  0  0  0  0  0  0  0  0  0  0
  196.5980  170.9920  144.5460 C   0  0  0  0  0  0  0  0  0  0  0  0
  197.5940  170.2160  143.9530 C   0  0  0  0  0  3  0  0  0  0  0  0
  193.0130  169.6280  144.2150 O   0  0  0  0  0  1  0  0  0  0  0  0
  196.8170  171.7210  145.8220 C   0  0  0  0  0  1  0  0  0  0  0  0
  192.4010  170.3310  143.2030 N   0  0  0  0  0  0  0  0  0  0  0  0
  194.3550  170.2270  141.8310 N   0  0  0  0  0  2  0  0  0  0  0  0
  195.4080  171.0510  143.8900 N   0  0  0  0  0  0  0  0  0  0  0  0
  193.0030  170.6250  142.0910 C   0  0  0  0  0  0  0  0  0  0  0  0
  2 28  1  0  0  0  0
  2  1  2  0  0  0  0
  3  4  2  0  0  0  0
  3  5  1  0  0  0  0
  5  2  1  0  0  0  0
  7  6  1  6  0  0  0
  7  3  1  0  0  0  0
  8  7  1  0  0  0  0
  8 13  1  0  0  0  0
  9 16  2  0  0  0  0
  9 11  1  0  0  0  0
 10 17  1  0  0  0  0
 11 10  1  0  0  0  0
 12 13  2  0  0  0  0
 12  9  1  0  0  0  0
 13 15  1  0  0  0  0
 14 10  2  0  0  0  0
 15 16  1  0  0  0  0
 16 14  1  0  0  0  0
 17 20  1  0  0  0  0
 18 24  1  0  0  0  0
 19 21  1  1  0  0  0
 19 22  1  0  0  0  0
 20 19  1  0  0  0  0
 20 23  1  0  0  0  0
 22 24  1  0  0  0  0
 23 18  1  0  0  0  0
 24 25  1  6  0  0  0
 25 27  1  0  0  0  0
 26 25  2  0  0  0  0
 28 29  3  0  0  0  0
 29 35  1  0  0  0  0
 30 33  1  0  0  0  0
 31 39  1  0  0  0  0
 31 35  2  0  0  0  0
 33 41  1  0  0  0  0
 33 36  1  0  0  0  0
 33 38  1  0  0  0  0
 35 34  1  0  0  0  0
 36 38  1  0  0  0  0
 37 39  1  6  0  0  0
 37 30  1  0  0  0  0
 37 40  1  0  0  0  0
 40 34  1  6  0  0  0
 40 41  1  0  0  0  0
 41 32  1  1  0  0  0
 41 42  1  0  0  0  0
 43 42  1  0  0  0  0
 43 44  2  0  0  0  0
 45  1  1  0  0  0  0
 45 55  1  0  0  0  0
 46 54  2  0  0  0  0
 47 46  1  0  0  0  0
 47 49  1  0  0  0  0
 48 51  1  0  0  0  0
 49 48  2  0  0  0  0
 52 50  1  0  0  0  0
 53 55  1  0  0  0  0
 53 46  1  0  0  0  0
 54 48  1  0  0  0  0
 55 52  2  0  0  0  0
M  END
>  <MODEL>
3

>  <REMARK>
 VINA RESULT:      -6.7      3.373      7.874
  Name = 
  13 active torsions:
  status: ('A' for Active; 'I' for Inactive)
    1  A    between atoms: C_5  and  C_28
    2  A    between atoms: C_11  and  C_55
    3  A    between atoms: C_12  and  C_33
    4  A    between atoms: C_13  and  C_54
    5  A    between atoms: C_14  and  C_16
    6  A    between atoms: C_14  and  N_17
    7  A    between atoms: C_18  and  C_37
    8  A    between atoms: C_18  and  N_39
    9  A    between atoms: C_24  and  C_47
   10  A    between atoms: C_28  and  C_53
   11  A    between atoms: C_31  and  C_40
   12  A    between atoms: C_33  and  C_43
   13  A    between atoms: C_47  and  C_54
                            x       y       z     vdW  Elec       q    Type
                         _______ _______ _______ _____ _____    ______ ____

>  <TORSDO>
F 13

$$$$
=
 OpenBabel11042417563D

 55 61  0  0  1  0  0  0  0  0999 V2000
  187.6730  176.3060  144.2180 C   0  0  0  0  0  3  0  0  0  0  0  0
  188.7950  175.6390  144.4890 C   0  0  0  0  0  0  0  0  0  0  0  0
  189.7550  175.3470  146.8530 C   0  0  0  0  0  0  0  0  0  0  0  0
  189.1680  174.2520  147.0680 O   0  0  0  0  0  0  0  0  0  0  0  0
  189.6150  176.0310  145.6020 N   0  0  0  0  0  2  0  0  0  0  0  0
  190.8250  177.4380  147.6340 C   0  0  0  0  0  1  0  0  0  0  0  0
  190.6100  175.9590  147.9120 C   0  0  2  0  0  3  0  0  0  0  0  0
  191.9430  175.2260  148.0020 C   0  0  0  0  0  2  0  0  0  0  0  0
  193.9960  175.9360  145.1760 C   0  0  0  0  0  0  0  0  0  0  0  0
  195.3290  174.8490  143.7900 C   0  0  0  0  0  0  0  0  0  0  0  0
  195.2230  176.0170  144.7000 C   0  0  0  0  0  3  0  0  0  0  0  0
  193.5200  176.2910  146.4600 N   0  0  0  0  0  0  0  0  0  0  0  0
  192.6880  175.3170  146.7130 C   0  0  0  0  0  0  0  0  0  0  0  0
  194.2620  174.0390  143.8640 C   0  0  0  0  0  3  0  0  0  0  0  0
  192.6520  174.2680  145.7210 N   0  0  0  0  0  2  0  0  0  0  0  0
  193.3880  174.7430  144.7780 C   0  0  1  0  0  3  0  0  0  0  0  0
  196.5160  174.5660  142.9350 C   0  0  0  0  0  2  0  0  0  0  0  0
  196.9760  173.0080  139.6200 C   0  0  0  0  0  2  0  0  0  0  0  0
  196.0480  175.3960  140.7710 C   0  0  2  0  0  3  0  0  0  0  0  0
  196.0860  174.1750  141.6020 N   0  0  0  0  0  0  0  0  0  0  0  0
  194.7140  175.4930  140.0480 C   0  0  0  0  0  1  0  0  0  0  0  0
  197.2240  175.5510  139.7890 C   0  0  0  0  0  2  0  0  0  0  0  0
  197.0320  173.1540  141.1340 C   0  0  0  0  0  2  0  0  0  0  0  0
  197.5080  174.2830  138.9710 C   0  0  2  0  0  3  0  0  0  0  0  0
  197.0340  174.4160  137.5600 C   0  0  0  0  0  0  0  0  0  0  0  0
  197.2750  173.3880  136.6580 O   0  0  0  0  0  0  0  0  0  0  0  0
  196.4280  175.4520  137.1780 O   0  0  0  0  0  1  0  0  0  0  0  0
  189.1370  174.5200  143.6510 C   0  0  0  0  0  0  0  0  0  0  0  0
  189.4330  173.5820  142.9560 C   0  0  0  0  0  0  0  0  0  0  0  0
  191.7190  169.6160  139.6100 C   0  0  0  0  0  2  0  0  0  0  0  0
  190.2830  171.3560  142.6820 C   0  0  0  0  0  3  0  0  0  0  0  0
  189.2050  171.6100  138.1790 F   0  0  0  0  0  0  0  0  0  0  0  0
  191.0700  170.1170  138.3500 C   0  0  0  0  0  0  0  0  0  0  0  0
  189.6450  172.5540  140.6380 C   0  0  0  0  0  2  0  0  0  0  0  0
  189.7960  172.4660  142.1290 C   0  0  0  0  0  0  0  0  0  0  0  0
  190.1490  169.1100  137.6920 C   0  0  0  0  0  2  0  0  0  0  0  0
  191.5090  170.7270  140.6270 C   0  0  2  0  0  3  0  0  0  0  0  0
  191.4600  169.5000  137.0230 C   0  0  0  0  0  2  0  0  0  0  0  0
  190.6800  170.2090  141.8050 C   0  0  0  0  0  2  0  0  0  0  0  0
  190.8610  171.9450  139.9070 C   0  0  1  0  0  3  0  0  0  0  0  0
  190.5660  171.5540  138.4500 C   0  0  2  0  0  0  0  0  0  0  0  0
  191.2910  172.5020  137.4840 C   0  0  0  0  0  2  0  0  0  0  0  0
  192.5520  173.0780  138.0520 C   0  0  0  0  0  3  0  0  0  0  0  0
  193.7310  172.7020  137.5700 C   0  0  0  0  0  2  0  0  0  0  0  0
  187.1890  177.4550  145.0470 C   0  0  0  0  0  2  0  0  0  0  0  0
  184.9400  178.2340  142.0850 C   0  0  0  0  0  0  0  0  0  0  0  0
  184.8840  178.2520  140.4130 S   0  0  0  0  0  0  0  0  0  0  0  0
  182.7490  178.3260  141.6580 C   0  0  0  0  0  0  0  0  0  0  0  0
  183.2020  178.3280  140.3390 C   0  0  0  0  0  3  0  0  0  0  0  0
  184.9400  180.2550  144.1680 O   0  0  0  0  0  1  0  0  0  0  0  0
  181.3040  178.3810  141.9990 C   0  0  0  0  0  1  0  0  0  0  0  0
  185.6960  179.3270  144.8470 N   0  0  0  0  0  0  0  0  0  0  0  0
  186.1440  178.1000  142.8450 N   0  0  0  0  0  2  0  0  0  0  0  0
  183.7050  178.2660  142.6240 N   0  0  0  0  0  0  0  0  0  0  0  0
  186.2610  178.3170  144.2570 C   0  0  0  0  0  0  0  0  0  0  0  0
  1  2  2  0  0  0  0
  1 45  1  0  0  0  0
  2  5  1  0  0  0  0
  3  4  2  0  0  0  0
  3  7  1  0  0  0  0
  5  3  1  0  0  0  0
  7  6  1  6  0  0  0
  7  8  1  0  0  0  0
  9 12  1  0  0  0  0
 10 14  2  0  0  0  0
 10 11  1  0  0  0  0
 11  9  2  0  0  0  0
 12 13  2  0  0  0  0
 13  8  1  0  0  0  0
 15 13  1  0  0  0  0
 16 14  1  1  0  0  0
 16  9  1  0  0  0  0
 16 15  1  0  0  0  0
 17 10  1  0  0  0  0
 18 23  1  0  0  0  0
 19 21  1  6  0  0  0
 19 20  1  0  0  0  0
 20 17  1  0  0  0  0
 22 19  1  0  0  0  0
 23 20  1  0  0  0  0
 24 25  1  6  0  0  0
 24 18  1  0  0  0  0
 24 22  1  0  0  0  0
 26 25  2  0  0  0  0
 27 25  1  0  0  0  0
 28  2  1  0  0  0  0
 29 28  3  0  0  0  0
 33 41  1  0  0  0  0
 33 30  1  0  0  0  0
 34 35  1  0  0  0  0
 35 31  2  0  0  0  0
 35 29  1  0  0  0  0
 36 33  1  0  0  0  0
 37 30  1  6  0  0  0
 37 39  1  0  0  0  0
 38 36  1  0  0  0  0
 38 33  1  0  0  0  0
 39 31  1  0  0  0  0
 40 37  1  0  0  0  0
 40 34  1  1  0  0  0
 41 32  1  6  0  0  0
 41 40  1  0  0  0  0
 42 43  1  0  0  0  0
 42 41  1  0  0  0  0
 44 43  2  0  0  0  0
 46 54  2  0  0  0  0
 46 53  1  0  0  0  0
 47 46  1  0  0  0  0
 48 51  1  0  0  0  0
 48 54  1  0  0  0  0
 49 47  1  0  0  0  0
 49 48  2  0  0  0  0
 50 52  1  0  0  0  0
 53 55  1  0  0  0  0
 55 52  2  0  0  0  0
 55 45  1  0  0  0  0
M  END
>  <MODEL>
4

>  <REMARK>
 VINA RESULT:      -6.7      3.379      7.006
  Name = 
  13 active torsions:
  status: ('A' for Active; 'I' for Inactive)
    1  A    between atoms: C_5  and  C_28
    2  A    between atoms: C_11  and  C_55
    3  A    between atoms: C_12  and  C_33
    4  A    between atoms: C_13  and  C_54
    5  A    between atoms: C_14  and  C_16
    6  A    between atoms: C_14  and  N_17
    7  A    between atoms: C_18  and  C_37
    8  A    between atoms: C_18  and  N_39
    9  A    between atoms: C_24  and  C_47
   10  A    between atoms: C_28  and  C_53
   11  A    between atoms: C_31  and  C_40
   12  A    between atoms: C_33  and  C_43
   13  A    between atoms: C_47  and  C_54
                            x       y       z     vdW  Elec       q    Type
                         _______ _______ _______ _____ _____    ______ ____

>  <TORSDO>
F 13

$$$$
=
 OpenBabel11042417563D

 55 61  0  0  1  0  0  0  0  0999 V2000
  188.5500  175.3420  143.5560 C   0  0  0  0  0  3  0  0  0  0  0  0
  189.6910  174.6830  143.7540 C   0  0  0  0  0  0  0  0  0  0  0  0
  191.4610  175.7030  145.3100 C   0  0  0  0  0  0  0  0  0  0  0  0
  191.8730  176.5420  144.4640 O   0  0  0  0  0  0  0  0  0  0  0  0
  190.3870  174.8060  145.0060 N   0  0  0  0  0  2  0  0  0  0  0  0
  191.0690  175.8830  147.7480 C   0  0  0  0  0  1  0  0  0  0  0  0
  192.0980  175.6260  146.6580 C   0  0  2  0  0  3  0  0  0  0  0  0
  193.2490  176.6190  146.7550 C   0  0  0  0  0  2  0  0  0  0  0  0
  195.8990  174.9300  145.0740 C   0  0  0  0  0  0  0  0  0  0  0  0
  196.8220  174.8920  143.0670 C   0  0  0  0  0  0  0  0  0  0  0  0
  196.2330  174.0560  144.1430 C   0  0  0  0  0  3  0  0  0  0  0  0
  194.8010  174.8970  145.9650 N   0  0  0  0  0  0  0  0  0  0  0  0
  194.4260  176.1470  145.9690 C   0  0  0  0  0  0  0  0  0  0  0  0
  196.6850  176.2050  143.3000 C   0  0  0  0  0  3  0  0  0  0  0  0
  195.1380  177.0040  145.0510 N   0  0  0  0  0  2  0  0  0  0  0  0
  196.0730  176.2360  144.6120 C   0  0  1  0  0  3  0  0  0  0  0  0
  197.4390  174.3380  141.8300 C   0  0  0  0  0  2  0  0  0  0  0  0
  196.1590  172.7590  138.7470 C   0  0  0  0  0  2  0  0  0  0  0  0
  196.0660  175.2120  140.1140 C   0  0  2  0  0  3  0  0  0  0  0  0
  196.4020  173.9880  140.8710 N   0  0  0  0  0  0  0  0  0  0  0  0
  194.5600  175.4200  140.1030 C   0  0  0  0  0  1  0  0  0  0  0  0
  196.6450  175.2720  138.6890 C   0  0  0  0  0  2  0  0  0  0  0  0
  196.9350  172.8940  140.0500 C   0  0  0  0  0  2  0  0  0  0  0  0
  196.4140  173.9890  137.8790 C   0  0  2  0  0  3  0  0  0  0  0  0
  195.3400  174.1650  136.8550 C   0  0  0  0  0  0  0  0  0  0  0  0
  194.8470  175.4360  136.5900 O   0  0  0  0  0  1  0  0  0  0  0  0
  194.8710  173.1720  136.2360 O   0  0  0  0  0  0  0  0  0  0  0  0
  190.1820  173.8430  142.6940 C   0  0  0  0  0  0  0  0  0  0  0  0
  190.6030  173.1410  141.8090 C   0  0  0  0  0  0  0  0  0  0  0  0
  192.6730  170.6800  137.1400 C   0  0  0  0  0  2  0  0  0  0  0  0
  192.4160  172.0410  140.6900 C   0  0  0  0  0  3  0  0  0  0  0  0
  189.3200  169.9790  137.9220 F   0  0  0  0  0  0  0  0  0  0  0  0
  191.3410  170.1820  136.6520 C   0  0  0  0  0  0  0  0  0  0  0  0
  190.1840  171.7620  139.7120 C   0  0  0  0  0  2  0  0  0  0  0  0
  191.1140  172.3110  140.7550 C   0  0  0  0  0  0  0  0  0  0  0  0
  191.2550  168.6730  136.5330 C   0  0  0  0  0  2  0  0  0  0  0  0
  192.3400  171.6690  138.2450 C   0  0  2  0  0  3  0  0  0  0  0  0
  191.2470  169.5410  135.2830 C   0  0  0  0  0  2  0  0  0  0  0  0
  192.9380  171.1930  139.5720 C   0  0  0  0  0  2  0  0  0  0  0  0
  190.7960  171.8550  138.2990 C   0  0  1  0  0  3  0  0  0  0  0  0
  190.1500  170.8940  137.2870 C   0  0  2  0  0  0  0  0  0  0  0  0
  189.3150  171.6770  136.2630 C   0  0  0  0  0  2  0  0  0  0  0  0
  189.8860  173.0220  135.9360 C   0  0  0  0  0  3  0  0  0  0  0  0
  190.1660  173.3380  134.6760 C   0  0  0  0  0  2  0  0  0  0  0  0
  187.9170  176.2060  144.6020 C   0  0  0  0  0  2  0  0  0  0  0  0
  185.7100  177.6960  141.8930 C   0  0  0  0  0  0  0  0  0  0  0  0
  185.5800  177.9130  140.2380 S   0  0  0  0  0  0  0  0  0  0  0  0
  183.5550  178.2190  141.6240 C   0  0  0  0  0  0  0  0  0  0  0  0
  183.9370  178.2910  140.2850 C   0  0  0  0  0  3  0  0  0  0  0  0
  186.1740  179.4380  144.1680 O   0  0  0  0  0  1  0  0  0  0  0  0
  182.1610  178.4870  142.0640 C   0  0  0  0  0  1  0  0  0  0  0  0
  186.7800  178.3210  144.6960 N   0  0  0  0  0  0  0  0  0  0  0  0
  186.9040  177.2690  142.5530 N   0  0  0  0  0  2  0  0  0  0  0  0
  184.5280  177.8830  142.5120 N   0  0  0  0  0  0  0  0  0  0  0  0
  187.1250  177.3010  143.9690 C   0  0  0  0  0  0  0  0  0  0  0  0
  1  2  2  0  0  0  0
  1 45  1  0  0  0  0
  2  5  1  0  0  0  0
  3  7  1  0  0  0  0
  4  3  2  0  0  0  0
  5  3  1  0  0  0  0
  7  8  1  0  0  0  0
  7  6  1  1  0  0  0
  9 12  1  0  0  0  0
 10 14  2  0  0  0  0
 10 11  1  0  0  0  0
 11  9  2  0  0  0  0
 12 13  2  0  0  0  0
 13  8  1  0  0  0  0
 15 13  1  0  0  0  0
 16 14  1  6  0  0  0
 16 15  1  0  0  0  0
 16  9  1  0  0  0  0
 17 10  1  0  0  0  0
 18 23  1  0  0  0  0
 19 21  1  6  0  0  0
 19 20  1  0  0  0  0
 20 17  1  0  0  0  0
 22 19  1  0  0  0  0
 23 20  1  0  0  0  0
 24 25  1  6  0  0  0
 24 22  1  0  0  0  0
 24 18  1  0  0  0  0
 26 25  1  0  0  0  0
 27 25  2  0  0  0  0
 28  2  1  0  0  0  0
 29 28  3  0  0  0  0
 31 35  2  0  0  0  0
 33 30  1  0  0  0  0
 33 41  1  0  0  0  0
 34 35  1  0  0  0  0
 35 29  1  0  0  0  0
 36 33  1  0  0  0  0
 37 30  1  6  0  0  0
 37 40  1  0  0  0  0
 37 39  1  0  0  0  0
 38 36  1  0  0  0  0
 38 33  1  0  0  0  0
 39 31  1  0  0  0  0
 40 34  1  1  0  0  0
 41 32  1  1  0  0  0
 41 40  1  0  0  0  0
 42 41  1  0  0  0  0
 43 42  1  0  0  0  0
 44 43  2  0  0  0  0
 46 54  2  0  0  0  0
 46 53  1  0  0  0  0
 47 49  1  0  0  0  0
 47 46  1  0  0  0  0
 48 51  1  0  0  0  0
 48 54  1  0  0  0  0
 49 48  2  0  0  0  0
 50 52  1  0  0  0  0
 53 55  1  0  0  0  0
 55 45  1  0  0  0  0
 55 52  2  0  0  0  0
M  END
>  <MODEL>
5

>  <REMARK>
 VINA RESULT:      -6.4      3.294      7.294
  Name = 
  13 active torsions:
  status: ('A' for Active; 'I' for Inactive)
    1  A    between atoms: C_5  and  C_28
    2  A    between atoms: C_11  and  C_55
    3  A    between atoms: C_12  and  C_33
    4  A    between atoms: C_13  and  C_54
    5  A    between atoms: C_14  and  C_16
    6  A    between atoms: C_14  and  N_17
    7  A    between atoms: C_18  and  C_37
    8  A    between atoms: C_18  and  N_39
    9  A    between atoms: C_24  and  C_47
   10  A    between atoms: C_28  and  C_53
   11  A    between atoms: C_31  and  C_40
   12  A    between atoms: C_33  and  C_43
   13  A    between atoms: C_47  and  C_54
                            x       y       z     vdW  Elec       q    Type
                         _______ _______ _______ _____ _____    ______ ____

>  <TORSDO>
F 13

$$$$
=
 OpenBabel11042417563D

 55 61  0  0  1  0  0  0  0  0999 V2000
  188.0910  175.7080  144.0310 C   0  0  0  0  0  3  0  0  0  0  0  0
  189.3280  175.2100  144.0460 C   0  0  0  0  0  0  0  0  0  0  0  0
  190.7500  175.3520  146.1800 C   0  0  0  0  0  0  0  0  0  0  0  0
  190.2710  174.3050  146.6940 O   0  0  0  0  0  0  0  0  0  0  0  0
  190.3330  175.8030  144.8860 N   0  0  0  0  0  2  0  0  0  0  0  0
  191.0990  177.0110  147.9850 C   0  0  0  0  0  1  0  0  0  0  0  0
  191.7680  176.1530  146.9230 C   0  0  2  0  0  3  0  0  0  0  0  0
  192.5680  177.0150  145.9550 C   0  0  0  0  0  2  0  0  0  0  0  0
  195.6720  175.2830  145.7000 C   0  0  0  0  0  0  0  0  0  0  0  0
  196.6230  173.7850  144.3830 C   0  0  0  0  0  0  0  0  0  0  0  0
  196.2980  174.1250  145.7910 C   0  0  0  0  0  2  0  0  0  0  0  0
  194.6140  175.7830  146.4950 N   0  0  0  0  0  0  0  0  0  0  0  0
  193.8590  176.3570  145.5990 C   0  0  0  0  0  0  0  0  0  0  0  0
  196.0650  174.6320  143.5060 C   0  0  0  0  0  3  0  0  0  0  0  0
  194.2880  176.1840  144.2320 N   0  0  0  0  0  2  0  0  0  0  0  0
  195.4330  175.6120  144.3640 C   0  0  0  0  0  0  0  0  0  0  0  0
  197.4240  172.5950  143.9800 C   0  0  0  0  0  2  0  0  0  0  0  0
  194.3240  170.7130  144.6690 C   0  0  0  0  0  2  0  0  0  0  0  0
  197.1060  170.4700  144.9670 C   0  0  2  0  0  3  0  0  0  0  0  0
  196.5790  171.4120  143.9580 N   0  0  0  0  0  0  0  0  0  0  0  0
  197.2800  169.0900  144.3520 C   0  0  0  0  0  1  0  0  0  0  0  0
  196.2940  170.3960  146.2730 C   0  0  0  0  0  2  0  0  0  0  0  0
  195.2060  171.8660  144.2120 C   0  0  0  0  0  2  0  0  0  0  0  0
  194.7840  170.2420  146.0470 C   0  0  2  0  0  3  0  0  0  0  0  0
  194.3200  168.8490  146.3300 C   0  0  0  0  0  0  0  0  0  0  0  0
  193.5820  168.1660  145.3720 O   0  0  0  0  0  0  0  0  0  0  0  0
  194.5820  168.2940  147.4300 O   0  0  0  0  0  1  0  0  0  0  0  0
  189.6080  174.0650  143.2210 C   0  0  0  0  0  0  0  0  0  0  0  0
  189.8490  173.1020  142.5380 C   0  0  0  0  0  0  0  0  0  0  0  0
  191.8920  168.9440  139.2710 C   0  0  0  0  0  2  0  0  0  0  0  0
  190.5520  170.8210  142.3040 C   0  0  0  0  0  3  0  0  0  0  0  0
  189.5260  171.0770  137.7900 F   0  0  0  0  0  0  0  0  0  0  0  0
  191.2870  169.4680  137.9980 C   0  0  0  0  0  0  0  0  0  0  0  0
  190.0100  172.0270  140.2380 C   0  0  0  0  0  2  0  0  0  0  0  0
  190.1430  171.9520  141.7310 C   0  0  0  0  0  0  0  0  0  0  0  0
  190.3060  168.5130  137.3460 C   0  0  0  0  0  2  0  0  0  0  0  0
  191.7490  170.0810  140.2690 C   0  0  2  0  0  3  0  0  0  0  0  0
  191.6450  168.8070  136.6830 C   0  0  0  0  0  2  0  0  0  0  0  0
  190.8780  169.6370  141.4480 C   0  0  0  0  0  2  0  0  0  0  0  0
  191.1880  171.3280  139.5260 C   0  0  1  0  0  3  0  0  0  0  0  0
  190.8780  170.9360  138.0720 C   0  0  2  0  0  0  0  0  0  0  0  0
  191.6710  171.8200  137.0990 C   0  0  0  0  0  2  0  0  0  0  0  0
  190.8610  172.9340  136.5120 C   0  0  0  0  0  3  0  0  0  0  0  0
  190.8330  174.1220  137.1070 C   0  0  0  0  0  2  0  0  0  0  0  0
  187.6690  176.8650  144.8810 C   0  0  0  0  0  2  0  0  0  0  0  0
  185.5220  177.8750  141.9140 C   0  0  0  0  0  0  0  0  0  0  0  0
  185.4800  177.9130  140.2420 S   0  0  0  0  0  0  0  0  0  0  0  0
  183.3520  178.1740  141.4750 C   0  0  0  0  0  0  0  0  0  0  0  0
  183.8120  178.1460  140.1580 C   0  0  0  0  0  3  0  0  0  0  0  0
  185.6960  179.8700  144.0160 O   0  0  0  0  0  1  0  0  0  0  0  0
  181.9160  178.3600  141.8080 C   0  0  0  0  0  1  0  0  0  0  0  0
  186.3570  178.8700  144.6900 N   0  0  0  0  0  0  0  0  0  0  0  0
  186.7030  177.6240  142.6800 N   0  0  0  0  0  2  0  0  0  0  0  0
  184.2920  178.0170  142.4450 N   0  0  0  0  0  0  0  0  0  0  0  0
  186.8300  177.8170  144.0950 C   0  0  0  0  0  0  0  0  0  0  0  0
  1  2  2  0  0  0  0
  1 45  1  0  0  0  0
  2  5  1  0  0  0  0
  3  4  2  0  0  0  0
  3  7  1  0  0  0  0
  5  3  1  0  0  0  0
  7  6  1  1  0  0  0
  8  7  1  0  0  0  0
  9 11  1  0  0  0  0
  9 12  1  0  0  0  0
 10 11  1  0  0  0  0
 13  8  1  0  0  0  0
 13 12  2  0  0  0  0
 14 16  1  0  0  0  0
 14 10  2  0  0  0  0
 15 16  1  0  0  0  0
 15 13  1  0  0  0  0
 16  9  2  0  0  0  0
 17 10  1  0  0  0  0
 18 24  1  0  0  0  0
 19 21  1  6  0  0  0
 19 22  1  0  0  0  0
 20 17  1  0  0  0  0
 20 23  1  0  0  0  0
 20 19  1  0  0  0  0
 23 18  1  0  0  0  0
 24 22  1  0  0  0  0
 24 25  1  6  0  0  0
 25 27  1  0  0  0  0
 26 25  2  0  0  0  0
 28  2  1  0  0  0  0
 29 28  3  0  0  0  0
 33 41  1  0  0  0  0
 33 30  1  0  0  0  0
 34 35  1  0  0  0  0
 35 31  2  0  0  0  0
 35 29  1  0  0  0  0
 36 33  1  0  0  0  0
 37 30  1  6  0  0  0
 37 39  1  0  0  0  0
 38 36  1  0  0  0  0
 38 33  1  0  0  0  0
 39 31  1  0  0  0  0
 40 34  1  1  0  0  0
 40 37  1  0  0  0  0
 41 32  1  6  0  0  0
 41 40  1  0  0  0  0
 42 41  1  0  0  0  0
 43 42  1  0  0  0  0
 43 44  2  0  0  0  0
 46 54  2  0  0  0  0
 46 53  1  0  0  0  0
 47 46  1  0  0  0  0
 48 51  1  0  0  0  0
 48 54  1  0  0  0  0
 49 47  1  0  0  0  0
 49 48  2  0  0  0  0
 50 52  1  0  0  0  0
 53 55  1  0  0  0  0
 55 52  2  0  0  0  0
 55 45  1  0  0  0  0
M  END
>  <MODEL>
6

>  <REMARK>
 VINA RESULT:      -6.2      2.936      6.678
  Name = 
  13 active torsions:
  status: ('A' for Active; 'I' for Inactive)
    1  A    between atoms: C_5  and  C_28
    2  A    between atoms: C_11  and  C_55
    3  A    between atoms: C_12  and  C_33
    4  A    between atoms: C_13  and  C_54
    5  A    between atoms: C_14  and  C_16
    6  A    between atoms: C_14  and  N_17
    7  A    between atoms: C_18  and  C_37
    8  A    between atoms: C_18  and  N_39
    9  A    between atoms: C_24  and  C_47
   10  A    between atoms: C_28  and  C_53
   11  A    between atoms: C_31  and  C_40
   12  A    between atoms: C_33  and  C_43
   13  A    between atoms: C_47  and  C_54
                            x       y       z     vdW  Elec       q    Type
                         _______ _______ _______ _____ _____    ______ ____

>  <TORSDO>
F 13

$$$$
=
 OpenBabel11042417563D

 55 61  0  0  1  0  0  0  0  0999 V2000
  188.9950  173.8010  142.5220 C   0  0  0  0  0  3  0  0  0  0  0  0
  189.8970  173.3470  141.6520 C   0  0  0  0  0  0  0  0  0  0  0  0
  189.0450  173.3300  139.2290 C   0  0  0  0  0  0  0  0  0  0  0  0
  188.1700  172.4460  139.4330 O   0  0  0  0  0  0  0  0  0  0  0  0
  189.8810  173.8080  140.2910 N   0  0  0  0  0  2  0  0  0  0  0  0
  187.9420  174.5340  137.3680 C   0  0  0  0  0  1  0  0  0  0  0  0
  189.2320  173.8970  137.8610 C   0  0  2  0  0  3  0  0  0  0  0  0
  189.7020  172.8130  136.9010 C   0  0  0  0  0  2  0  0  0  0  0  0
  193.1980  172.2470  137.3070 C   0  0  0  0  0  0  0  0  0  0  0  0
  194.6320  171.8920  138.9500 C   0  0  0  0  0  0  0  0  0  0  0  0
  194.3450  172.7220  137.7530 C   0  0  0  0  0  3  0  0  0  0  0  0
  192.1380  172.9410  136.6780 N   0  0  0  0  0  0  0  0  0  0  0  0
  191.0930  172.3820  137.2250 C   0  0  0  0  0  0  0  0  0  0  0  0
  193.6130  171.0820  139.2720 C   0  0  0  0  0  3  0  0  0  0  0  0
  191.3850  171.4250  138.2660 N   0  0  0  0  0  2  0  0  0  0  0  0
  192.6650  171.3170  138.2030 C   0  0  1  0  0  3  0  0  0  0  0  0
  195.8860  171.9910  139.7480 C   0  0  0  0  0  2  0  0  0  0  0  0
  197.8180  174.7250  141.3040 C   0  0  0  0  0  2  0  0  0  0  0  0
  195.1590  173.8840  140.9640 C   0  0  2  0  0  3  0  0  0  0  0  0
  196.1880  173.3860  140.0270 N   0  0  0  0  0  0  0  0  0  0  0  0
  194.5730  175.1890  140.4490 C   0  0  0  0  0  1  0  0  0  0  0  0
  195.6250  174.0240  142.4250 C   0  0  0  0  0  2  0  0  0  0  0  0
  197.5580  173.4270  140.5540 C   0  0  0  0  0  2  0  0  0  0  0  0
  196.9680  174.7540  142.5720 C   0  0  2  0  0  3  0  0  0  0  0  0
  196.7890  176.1490  143.0770 C   0  0  0  0  0  0  0  0  0  0  0  0
  195.5160  176.6020  143.4000 O   0  0  0  0  0  1  0  0  0  0  0  0
  197.7770  176.9200  143.2030 O   0  0  0  0  0  0  0  0  0  0  0  0
  190.8830  172.4120  142.1240 C   0  0  0  0  0  0  0  0  0  0  0  0
  191.7040  171.6270  142.5280 C   0  0  0  0  0  0  0  0  0  0  0  0
  195.2050  168.1670  145.3420 C   0  0  0  0  0  2  0  0  0  0  0  0
  192.3840  169.3980  143.0940 C   0  0  0  0  0  3  0  0  0  0  0  0
  196.6580  171.0150  143.8840 F   0  0  0  0  0  0  0  0  0  0  0  0
  196.3760  169.1090  145.3070 C   0  0  0  0  0  0  0  0  0  0  0  0
  194.0250  171.1820  143.4700 C   0  0  0  0  0  2  0  0  0  0  0  0
  192.6780  170.6950  143.0200 C   0  0  0  0  0  0  0  0  0  0  0  0
  197.5860  168.5580  144.5790 C   0  0  0  0  0  2  0  0  0  0  0  0
  194.0130  169.0090  144.9150 C   0  0  2  0  0  3  0  0  0  0  0  0
  197.6270  168.7620  146.0870 C   0  0  0  0  0  2  0  0  0  0  0  0
  193.4020  168.4410  143.6310 C   0  0  0  0  0  2  0  0  0  0  0  0
  194.4730  170.4890  144.7740 C   0  0  1  0  0  3  0  0  0  0  0  0
  195.9910  170.5560  145.0120 C   0  0  2  0  0  0  0  0  0  0  0  0
  196.3080  171.5010  146.1800 C   0  0  0  0  0  2  0  0  0  0  0  0
  196.8200  172.8380  145.7400 C   0  0  0  0  0  3  0  0  0  0  0  0
  196.1330  173.9390  146.0210 C   0  0  0  0  0  2  0  0  0  0  0  0
  187.9520  174.8120  142.1600 C   0  0  0  0  0  2  0  0  0  0  0  0
  186.3730  177.5800  144.2290 C   0  0  0  0  0  0  0  0  0  0  0  0
  185.3240  178.8820  144.1470 S   0  0  0  0  0  0  0  0  0  0  0  0
  185.8750  177.9570  146.3740 C   0  0  0  0  0  0  0  0  0  0  0  0
  185.1060  178.9780  145.8170 C   0  0  0  0  0  3  0  0  0  0  0  0
  189.2310  177.2580  144.6200 O   0  0  0  0  0  1  0  0  0  0  0  0
  185.9350  177.7210  147.8400 C   0  0  0  0  0  1  0  0  0  0  0  0
  189.0520  176.1490  143.8270 N   0  0  0  0  0  0  0  0  0  0  0  0
  186.9130  176.9150  143.0840 N   0  0  0  0  0  2  0  0  0  0  0  0
  186.5680  177.1780  145.5000 N   0  0  0  0  0  0  0  0  0  0  0  0
  187.9860  175.9640  143.1090 C   0  0  0  0  0  0  0  0  0  0  0  0
  2 28  1  0  0  0  0
  2  1  2  0  0  0  0
  3  4  2  0  0  0  0
  3  5  1  0  0  0  0
  5  2  1  0  0  0  0
  7  6  1  6  0  0  0
  7  3  1  0  0  0  0
  8 13  1  0  0  0  0
  8  7  1  0  0  0  0
  9 11  2  0  0  0  0
  9 16  1  0  0  0  0
 10 14  2  0  0  0  0
 10 17  1  0  0  0  0
 11 10  1  0  0  0  0
 12 13  2  0  0  0  0
 12  9  1  0  0  0  0
 13 15  1  0  0  0  0
 16 15  1  0  0  0  0
 16 14  1  1  0  0  0
 17 20  1  0  0  0  0
 18 24  1  0  0  0  0
 19 21  1  6  0  0  0
 19 22  1  0  0  0  0
 20 23  1  0  0  0  0
 20 19  1  0  0  0  0
 22 24  1  0  0  0  0
 23 18  1  0  0  0  0
 24 25  1  6  0  0  0
 25 27  2  0  0  0  0
 25 26  1  0  0  0  0
 28 29  3  0  0  0  0
 29 35  1  0  0  0  0
 31 39  1  0  0  0  0
 33 30  1  0  0  0  0
 33 38  1  0  0  0  0
 35 31  2  0  0  0  0
 35 34  1  0  0  0  0
 36 33  1  0  0  0  0
 36 38  1  0  0  0  0
 37 39  1  6  0  0  0
 37 30  1  0  0  0  0
 40 34  1  6  0  0  0
 40 37  1  0  0  0  0
 40 41  1  0  0  0  0
 41 32  1  6  0  0  0
 41 33  1  0  0  0  0
 41 42  1  0  0  0  0
 43 44  2  0  0  0  0
 43 42  1  0  0  0  0
 45  1  1  0  0  0  0
 45 55  1  0  0  0  0
 46 54  2  0  0  0  0
 47 46  1  0  0  0  0
 47 49  1  0  0  0  0
 48 51  1  0  0  0  0
 49 48  2  0  0  0  0
 52 50  1  0  0  0  0
 53 55  1  0  0  0  0
 53 46  1  0  0  0  0
 54 48  1  0  0  0  0
 55 52  2  0  0  0  0
M  END
>  <MODEL>
7

>  <REMARK>
 VINA RESULT:      -6.1      1.853      2.821
  Name = 
  13 active torsions:
  status: ('A' for Active; 'I' for Inactive)
    1  A    between atoms: C_5  and  C_28
    2  A    between atoms: C_11  and  C_55
    3  A    between atoms: C_12  and  C_33
    4  A    between atoms: C_13  and  C_54
    5  A    between atoms: C_14  and  C_16
    6  A    between atoms: C_14  and  N_17
    7  A    between atoms: C_18  and  C_37
    8  A    between atoms: C_18  and  N_39
    9  A    between atoms: C_24  and  C_47
   10  A    between atoms: C_28  and  C_53
   11  A    between atoms: C_31  and  C_40
   12  A    between atoms: C_33  and  C_43
   13  A    between atoms: C_47  and  C_54
                            x       y       z     vdW  Elec       q    Type
                         _______ _______ _______ _____ _____    ______ ____

>  <TORSDO>
F 13

$$$$
=
 OpenBabel11042417563D

 55 61  0  0  1  0  0  0  0  0999 V2000
  188.8400  173.1040  137.7030 C   0  0  0  0  0  3  0  0  0  0  0  0
  188.9340  172.9780  139.0270 C   0  0  0  0  0  0  0  0  0  0  0  0
  190.9340  171.7970  140.1220 C   0  0  0  0  0  0  0  0  0  0  0  0
  191.6510  172.8330  140.1740 O   0  0  0  0  0  0  0  0  0  0  0  0
  189.6020  171.8400  139.5960 N   0  0  0  0  0  2  0  0  0  0  0  0
  190.8920  169.3430  139.7960 C   0  0  0  0  0  1  0  0  0  0  0  0
  191.4690  170.4910  140.6090 C   0  0  2  0  0  3  0  0  0  0  0  0
  191.1610  170.3140  142.0900 C   0  0  0  0  0  2  0  0  0  0  0  0
  194.2250  171.3610  143.5790 C   0  0  0  0  0  0  0  0  0  0  0  0
  194.9530  172.9800  144.8940 C   0  0  0  0  0  0  0  0  0  0  0  0
  195.1790  172.2710  143.6100 C   0  0  0  0  0  3  0  0  0  0  0  0
  193.5200  170.8560  142.4610 N   0  0  0  0  0  0  0  0  0  0  0  0
  192.3050  170.7740  142.9290 C   0  0  0  0  0  0  0  0  0  0  0  0
  193.8180  172.6010  145.4990 C   0  0  0  0  0  3  0  0  0  0  0  0
  192.1260  171.2940  144.2650 N   0  0  0  0  0  2  0  0  0  0  0  0
  193.3320  171.5440  144.6370 C   0  0  1  0  0  3  0  0  0  0  0  0
  195.8490  174.0460  145.4240 C   0  0  0  0  0  2  0  0  0  0  0  0
  193.4160  176.8040  145.7500 C   0  0  0  0  0  2  0  0  0  0  0  0
  194.6810  175.2640  143.7690 C   0  0  2  0  0  3  0  0  0  0  0  0
  195.3060  175.3560  145.1040 N   0  0  0  0  0  0  0  0  0  0  0  0
  195.1740  176.3970  142.8830 C   0  0  0  0  0  1  0  0  0  0  0  0
  193.1420  175.1960  143.7760 C   0  0  0  0  0  2  0  0  0  0  0  0
  194.3760  175.7060  146.1860 C   0  0  0  0  0  2  0  0  0  0  0  0
  192.4870  176.2600  144.6680 C   0  0  2  0  0  3  0  0  0  0  0  0
  191.8820  177.3640  143.8630 C   0  0  0  0  0  0  0  0  0  0  0  0
  191.3370  177.0840  142.6170 O   0  0  0  0  0  0  0  0  0  0  0  0
  191.8710  178.5470  144.2970 O   0  0  0  0  0  1  0  0  0  0  0  0
  188.3690  174.0150  139.8490 C   0  0  0  0  0  0  0  0  0  0  0  0
  187.9040  174.8900  140.5340 C   0  0  0  0  0  0  0  0  0  0  0  0
  186.6650  179.1770  144.0330 C   0  0  0  0  0  2  0  0  0  0  0  0
  187.1810  177.1560  140.8430 C   0  0  0  0  0  3  0  0  0  0  0  0
  185.6270  175.9780  145.0490 F   0  0  0  0  0  0  0  0  0  0  0  0
  186.2170  178.2960  145.1660 C   0  0  0  0  0  0  0  0  0  0  0  0
  187.0080  175.6680  142.7850 C   0  0  0  0  0  2  0  0  0  0  0  0
  187.3590  175.9380  141.3510 C   0  0  0  0  0  0  0  0  0  0  0  0
  184.7720  178.5030  145.5700 C   0  0  0  0  0  2  0  0  0  0  0  0
  187.3620  178.2380  143.0600 C   0  0  2  0  0  3  0  0  0  0  0  0
  185.8960  178.9230  146.5070 C   0  0  0  0  0  2  0  0  0  0  0  0
  186.6350  178.2450  141.7130 C   0  0  0  0  0  2  0  0  0  0  0  0
  187.4480  176.8250  143.7060 C   0  0  1  0  0  3  0  0  0  0  0  0
  186.7040  176.8540  145.0520 C   0  0  2  0  0  0  0  0  0  0  0  0
  187.6490  176.4570  146.1950 C   0  0  0  0  0  2  0  0  0  0  0  0
  188.9470  175.8790  145.7190 C   0  0  0  0  0  3  0  0  0  0  0  0
  189.3480  174.6930  146.1600 C   0  0  0  0  0  2  0  0  0  0  0  0
  189.4300  172.1160  136.7470 C   0  0  0  0  0  2  0  0  0  0  0  0
  192.2700  174.5960  136.2830 C   0  0  0  0  0  0  0  0  0  0  0  0
  192.6690  176.0590  135.5750 S   0  0  0  0  0  0  0  0  0  0  0  0
  194.1470  175.1730  137.3490 C   0  0  0  0  0  0  0  0  0  0  0  0
  194.0620  176.2770  136.5010 C   0  0  0  0  0  3  0  0  0  0  0  0
  193.0020  171.8230  135.8360 O   0  0  0  0  0  1  0  0  0  0  0  0
  195.2530  175.0100  138.3280 C   0  0  0  0  0  1  0  0  0  0  0  0
  191.7300  171.5800  136.3010 N   0  0  0  0  0  0  0  0  0  0  0  0
  191.0830  173.8590  135.9820 N   0  0  0  0  0  2  0  0  0  0  0  0
  193.1560  174.2480  137.2370 N   0  0  0  0  0  0  0  0  0  0  0  0
  190.8240  172.5060  136.3820 C   0  0  0  0  0  0  0  0  0  0  0  0
  1  2  2  0  0  0  0
  2  5  1  0  0  0  0
  2 28  1  0  0  0  0
  3  4  2  0  0  0  0
  3  7  1  0  0  0  0
  5  3  1  0  0  0  0
  7  6  1  6  0  0  0
  7  8  1  0  0  0  0
  8 13  1  0  0  0  0
  9 11  2  0  0  0  0
  9 16  1  0  0  0  0
 10 17  1  0  0  0  0
 10 14  2  0  0  0  0
 11 10  1  0  0  0  0
 12 13  2  0  0  0  0
 12  9  1  0  0  0  0
 13 15  1  0  0  0  0
 15 16  1  0  0  0  0
 16 14  1  6  0  0  0
 18 23  1  0  0  0  0
 19 21  1  6  0  0  0
 19 22  1  0  0  0  0
 19 20  1  0  0  0  0
 20 17  1  0  0  0  0
 20 23  1  0  0  0  0
 22 24  1  0  0  0  0
 24 25  1  6  0  0  0
 24 18  1  0  0  0  0
 25 27  1  0  0  0  0
 26 25  2  0  0  0  0
 28 29  3  0  0  0  0
 29 35  1  0  0  0  0
 30 33  1  0  0  0  0
 31 35  2  0  0  0  0
 31 39  1  0  0  0  0
 33 36  1  0  0  0  0
 33 38  1  0  0  0  0
 35 34  1  0  0  0  0
 36 38  1  0  0  0  0
 37 39  1  6  0  0  0
 37 40  1  0  0  0  0
 37 30  1  0  0  0  0
 40 34  1  6  0  0  0
 40 41  1  0  0  0  0
 41 32  1  6  0  0  0
 41 33  1  0  0  0  0
 41 42  1  0  0  0  0
 43 44  2  0  0  0  0
 43 42  1  0  0  0  0
 45  1  1  0  0  0  0
 46 54  2  0  0  0  0
 47 46  1  0  0  0  0
 47 49  1  0  0  0  0
 48 51  1  0  0  0  0
 49 48  2  0  0  0  0
 50 52  1  0  0  0  0
 52 55  2  0  0  0  0
 53 46  1  0  0  0  0
 53 55  1  0  0  0  0
 54 48  1  0  0  0  0
 55 45  1  0  0  0  0
M  END
>  <MODEL>
8

>  <REMARK>
 VINA RESULT:      -6.1      3.396      8.075
  Name = 
  13 active torsions:
  status: ('A' for Active; 'I' for Inactive)
    1  A    between atoms: C_5  and  C_28
    2  A    between atoms: C_11  and  C_55
    3  A    between atoms: C_12  and  C_33
    4  A    between atoms: C_13  and  C_54
    5  A    between atoms: C_14  and  C_16
    6  A    between atoms: C_14  and  N_17
    7  A    between atoms: C_18  and  C_37
    8  A    between atoms: C_18  and  N_39
    9  A    between atoms: C_24  and  C_47
   10  A    between atoms: C_28  and  C_53
   11  A    between atoms: C_31  and  C_40
   12  A    between atoms: C_33  and  C_43
   13  A    between atoms: C_47  and  C_54
                            x       y       z     vdW  Elec       q    Type
                         _______ _______ _______ _____ _____    ______ ____

>  <TORSDO>
F 13

$$$$
=
 OpenBabel11042417563D

 55 61  0  0  1  0  0  0  0  0999 V2000
  188.8630  172.7390  138.0800 C   0  0  0  0  0  3  0  0  0  0  0  0
  189.6270  173.0170  139.1360 C   0  0  0  0  0  0  0  0  0  0  0  0
  191.3200  171.2100  139.8190 C   0  0  0  0  0  0  0  0  0  0  0  0
  190.4500  170.4210  140.2780 O   0  0  0  0  0  0  0  0  0  0  0  0
  190.9500  172.4640  139.2340 N   0  0  0  0  0  2  0  0  0  0  0  0
  193.1620  170.0230  138.6670 C   0  0  0  0  0  1  0  0  0  0  0  0
  192.7660  170.8480  139.8820 C   0  0  2  0  0  3  0  0  0  0  0  0
  193.0640  170.0920  141.1700 C   0  0  0  0  0  2  0  0  0  0  0  0
  195.3860  172.3000  142.7300 C   0  0  0  0  0  0  0  0  0  0  0  0
  195.7000  173.2370  144.7060 C   0  0  0  0  0  0  0  0  0  0  0  0
  195.5900  173.4960  143.2490 C   0  0  0  0  0  3  0  0  0  0  0  0
  194.6050  171.9450  141.6060 N   0  0  0  0  0  0  0  0  0  0  0  0
  194.0360  170.8440  142.0150 C   0  0  0  0  0  0  0  0  0  0  0  0
  195.4100  171.9680  145.0280 C   0  0  0  0  0  3  0  0  0  0  0  0
  194.3030  170.4900  143.3900 N   0  0  0  0  0  2  0  0  0  0  0  0
  195.1950  171.3510  143.7360 C   0  0  1  0  0  3  0  0  0  0  0  0
  196.0310  174.2840  145.7130 C   0  0  0  0  0  2  0  0  0  0  0  0
  192.3840  174.8610  145.7590 C   0  0  0  0  0  2  0  0  0  0  0  0
  194.7870  176.2710  145.3980 C   0  0  2  0  0  3  0  0  0  0  0  0
  194.8210  174.9820  146.1190 N   0  0  0  0  0  0  0  0  0  0  0  0
  194.5310  177.4080  146.3740 C   0  0  0  0  0  1  0  0  0  0  0  0
  193.8050  176.3250  144.2130 C   0  0  0  0  0  2  0  0  0  0  0  0
  193.6950  174.0890  145.8190 C   0  0  0  0  0  2  0  0  0  0  0  0
  192.4050  175.7970  144.5540 C   0  0  2  0  0  3  0  0  0  0  0  0
  191.4150  176.9060  144.7080 C   0  0  0  0  0  0  0  0  0  0  0  0
  191.2650  177.8360  143.6880 O   0  0  0  0  0  0  0  0  0  0  0  0
  190.7240  177.0120  145.7560 O   0  0  0  0  0  1  0  0  0  0  0  0
  189.0940  173.8910  140.1470 C   0  0  0  0  0  0  0  0  0  0  0  0
  188.6530  174.6180  141.0020 C   0  0  0  0  0  0  0  0  0  0  0  0
  185.8410  177.3970  145.0650 C   0  0  0  0  0  2  0  0  0  0  0  0
  188.4750  175.2840  143.2980 C   0  0  0  0  0  3  0  0  0  0  0  0
  186.0220  178.9730  141.9300 F   0  0  0  0  0  0  0  0  0  0  0  0
  185.2760  178.4410  144.1430 C   0  0  0  0  0  0  0  0  0  0  0  0
  187.1780  176.5800  141.6690 C   0  0  0  0  0  2  0  0  0  0  0  0
  188.1300  175.4760  142.0270 C   0  0  0  0  0  0  0  0  0  0  0  0
  185.7040  179.8550  144.4800 C   0  0  0  0  0  2  0  0  0  0  0  0
  186.3940  176.3200  144.1450 C   0  0  2  0  0  3  0  0  0  0  0  0
  184.2570  179.4270  144.6780 C   0  0  0  0  0  2  0  0  0  0  0  0
  187.9030  176.1720  144.3590 C   0  0  0  0  0  2  0  0  0  0  0  0
  186.0140  176.6750  142.6780 C   0  0  1  0  0  3  0  0  0  0  0  0
  185.3070  178.0410  142.6710 C   0  0  2  0  0  0  0  0  0  0  0  0
  183.9030  177.9140  142.0630 C   0  0  0  0  0  2  0  0  0  0  0  0
  183.8460  178.2900  140.6150 C   0  0  0  0  0  3  0  0  0  0  0  0
  182.9030  177.7790  139.8310 C   0  0  0  0  0  2  0  0  0  0  0  0
  189.3260  171.8820  136.9430 C   0  0  0  0  0  2  0  0  0  0  0  0
  190.5700  175.0820  135.3150 C   0  0  0  0  0  0  0  0  0  0  0  0
  190.0640  176.4610  134.5130 S   0  0  0  0  0  0  0  0  0  0  0  0
  192.3440  176.4300  135.4720 C   0  0  0  0  0  0  0  0  0  0  0  0
  191.5150  177.2880  134.7500 C   0  0  0  0  0  3  0  0  0  0  0  0
  192.0510  172.6970  134.5800 O   0  0  0  0  0  1  0  0  0  0  0  0
  193.7200  176.8160  135.8780 C   0  0  0  0  0  1  0  0  0  0  0  0
  191.2680  172.1070  135.5460 N   0  0  0  0  0  0  0  0  0  0  0  0
  189.7380  173.9430  135.5510 N   0  0  0  0  0  2  0  0  0  0  0  0
  191.8230  175.2160  135.7930 N   0  0  0  0  0  0  0  0  0  0  0  0
  190.1940  172.6660  136.0150 C   0  0  0  0  0  0  0  0  0  0  0  0
  1  2  2  0  0  0  0
  2  5  1  0  0  0  0
  2 28  1  0  0  0  0
  3  7  1  0  0  0  0
  3  4  2  0  0  0  0
  5  3  1  0  0  0  0
  7  6  1  6  0  0  0
  7  8  1  0  0  0  0
  8 13  1  0  0  0  0
  9 11  2  0  0  0  0
  9 16  1  0  0  0  0
 10 14  2  0  0  0  0
 10 17  1  0  0  0  0
 11 10  1  0  0  0  0
 12 13  2  0  0  0  0
 12  9  1  0  0  0  0
 13 15  1  0  0  0  0
 15 16  1  0  0  0  0
 16 14  1  1  0  0  0
 17 20  1  0  0  0  0
 18 23  1  0  0  0  0
 19 20  1  0  0  0  0
 19 21  1  1  0  0  0
 22 24  1  0  0  0  0
 22 19  1  0  0  0  0
 23 20  1  0  0  0  0
 24 25  1  1  0  0  0
 24 18  1  0  0  0  0
 25 27  1  0  0  0  0
 26 25  2  0  0  0  0
 28 29  3  0  0  0  0
 29 35  1  0  0  0  0
 31 39  1  0  0  0  0
 33 36  1  0  0  0  0
 33 38  1  0  0  0  0
 33 30  1  0  0  0  0
 34 35  1  0  0  0  0
 35 31  2  0  0  0  0
 36 38  1  0  0  0  0
 37 39  1  6  0  0  0
 37 30  1  0  0  0  0
 40 34  1  6  0  0  0
 40 37  1  0  0  0  0
 41 32  1  6  0  0  0
 41 40  1  0  0  0  0
 41 33  1  0  0  0  0
 42 41  1  0  0  0  0
 43 42  1  0  0  0  0
 44 43  2  0  0  0  0
 45  1  1  0  0  0  0
 46 53  1  0  0  0  0
 46 54  2  0  0  0  0
 47 49  1  0  0  0  0
 47 46  1  0  0  0  0
 48 54  1  0  0  0  0
 48 51  1  0  0  0  0
 49 48  2  0  0  0  0
 50 52  1  0  0  0  0
 52 55  2  0  0  0  0
 53 55  1  0  0  0  0
 55 45  1  0  0  0  0
M  END
>  <MODEL>
9

>  <REMARK>
 VINA RESULT:      -6.0      3.489      8.496
  Name = 
  13 active torsions:
  status: ('A' for Active; 'I' for Inactive)
    1  A    between atoms: C_5  and  C_28
    2  A    between atoms: C_11  and  C_55
    3  A    between atoms: C_12  and  C_33
    4  A    between atoms: C_13  and  C_54
    5  A    between atoms: C_14  and  C_16
    6  A    between atoms: C_14  and  N_17
    7  A    between atoms: C_18  and  C_37
    8  A    between atoms: C_18  and  N_39
    9  A    between atoms: C_24  and  C_47
   10  A    between atoms: C_28  and  C_53
   11  A    between atoms: C_31  and  C_40
   12  A    between atoms: C_33  and  C_43
   13  A    between atoms: C_47  and  C_54
                            x       y       z     vdW  Elec       q    Type
                         _______ _______ _______ _____ _____    ______ ____

>  <TORSDO>
F 13

$$$$
