=
 OpenBabel11042414213D

 27 29  0  0  1  0  0  0  0  0999 V2000
  187.6430  176.9880  141.9700 C   0  0  0  0  0  0  0  0  0  0  0  0
  188.8590  174.4350  142.3690 C   0  0  2  0  0  3  0  0  0  0  0  0
  188.3480  174.8450  141.0170 C   0  0  0  0  0  3  0  0  0  0  0  0
  188.3090  176.7390  143.1070 C   0  0  0  0  0  0  0  0  0  0  0  0
  189.0600  175.5600  143.2290 O   0  0  0  0  0  0  0  0  0  0  0  0
  187.7470  176.0240  140.8530 C   0  0  0  0  0  3  0  0  0  0  0  0
  192.4800  172.2020  141.9120 N   0  0  0  0  0  2  0  0  0  0  0  0
  190.4720  172.7460  143.2120 C   0  0  0  0  0  0  0  0  0  0  0  0
  190.1170  173.6250  142.2580 C   0  0  0  0  0  0  0  0  0  0  0  0
  189.6190  172.5430  144.4280 C   0  0  0  0  0  1  0  0  0  0  0  0
  192.1270  171.0330  144.0510 C   0  0  0  0  0  1  0  0  0  0  0  0
  190.9810  173.8040  141.0720 C   0  0  0  0  0  3  0  0  0  0  0  0
  192.0790  173.1270  140.9340 N   0  0  0  0  0  0  0  0  0  0  0  0
  191.6900  171.9980  143.0540 N   0  0  0  0  0  0  0  0  0  0  0  0
  185.5980  178.1830  141.2610 C   0  0  0  0  0  1  0  0  0  0  0  0
  186.8960  178.1650  141.8380 O   0  0  0  0  0  0  0  0  0  0  0  0
  188.2940  177.7320  144.2360 C   0  0  1  0  0  3  0  0  0  0  0  0
  184.5160  177.9210  146.2900 C   0  0  0  0  0  3  0  0  0  0  0  0
  186.1950  178.9870  144.9100 C   0  0  0  0  0  3  0  0  0  0  0  0
  184.9690  179.0360  145.5800 C   0  0  0  0  0  3  0  0  0  0  0  0
  186.5160  176.7080  145.6620 C   0  0  0  0  0  3  0  0  0  0  0  0
  186.9770  177.8220  144.9510 C   0  0  0  0  0  0  0  0  0  0  0  0
  185.2890  176.7570  146.3300 C   0  0  0  0  0  3  0  0  0  0  0  0
  189.5090  177.6380  145.1650 C   0  0  0  0  0  2  0  0  0  0  0  0
  191.0050  178.8280  143.7340 O   0  0  0  0  0  0  0  0  0  0  0  0
  191.8260  176.8820  144.6210 O   0  0  0  0  0  1  0  0  0  0  0  0
  190.8170  177.8200  144.4650 C   0  0  0  0  0  0  0  0  0  0  0  0
  1  4  2  0  0  0  0
  2  9  1  6  0  0  0
  2  5  1  0  0  0  0
  3  2  1  0  0  0  0
  4  5  1  0  0  0  0
  4 17  1  0  0  0  0
  6  3  2  0  0  0  0
  6  1  1  0  0  0  0
  7 14  1  0  0  0  0
  8 10  1  0  0  0  0
  9  8  2  0  0  0  0
 12  9  1  0  0  0  0
 13 12  2  0  0  0  0
 13  7  1  0  0  0  0
 14  8  1  0  0  0  0
 14 11  1  0  0  0  0
 15 16  1  0  0  0  0
 16  1  1  0  0  0  0
 17 22  1  0  0  0  0
 17 24  1  1  0  0  0
 18 23  1  0  0  0  0
 19 22  2  0  0  0  0
 19 20  1  0  0  0  0
 20 18  2  0  0  0  0
 21 23  2  0  0  0  0
 22 21  1  0  0  0  0
 25 27  2  0  0  0  0
 27 26  1  0  0  0  0
 27 24  1  0  0  0  0
M  END
>  <MODEL>
1

>  <REMARK>
 VINA RESULT:      -6.8      0.000      0.000
  Name = 
  6 active torsions:
  status: ('A' for Active; 'I' for Inactive)
    1  A    between atoms: C_5  and  O_23
    2  A    between atoms: C_7  and  C_8
    3  A    between atoms: C_11  and  C_14
    4  A    between atoms: C_11  and  C_15
    5  A    between atoms: C_11  and  C_20
    6  A    between atoms: C_14  and  C_27
                            x       y       z     vdW  Elec       q    Type
                         _______ _______ _______ _____ _____    ______ ____

>  <TORSDO>
F 6

$$$$
=
 OpenBabel11042414213D

 27 29  0  0  1  0  0  0  0  0999 V2000
  188.7300  175.1960  141.6740 C   0  0  0  0  0  0  0  0  0  0  0  0
  187.5450  177.3570  143.1190 C   0  0  2  0  0  3  0  0  0  0  0  0
  187.2010  177.1100  141.6770 C   0  0  0  0  0  3  0  0  0  0  0  0
  188.8550  175.2520  143.0090 C   0  0  0  0  0  0  0  0  0  0  0  0
  188.1240  176.2030  143.7360 O   0  0  0  0  0  0  0  0  0  0  0  0
  187.7920  176.1220  141.0040 C   0  0  0  0  0  3  0  0  0  0  0  0
  184.0550  178.7030  145.1940 N   0  0  0  0  0  2  0  0  0  0  0  0
  186.3960  177.9720  145.2310 C   0  0  0  0  0  0  0  0  0  0  0  0
  186.3510  177.8270  143.8950 C   0  0  0  0  0  0  0  0  0  0  0  0
  187.6480  177.6660  145.9980 C   0  0  0  0  0  1  0  0  0  0  0  0
  185.2060  178.6010  147.3680 C   0  0  0  0  0  1  0  0  0  0  0  0
  185.1010  178.1350  143.1690 C   0  0  0  0  0  3  0  0  0  0  0  0
  184.0430  178.5420  143.7990 N   0  0  0  0  0  0  0  0  0  0  0  0
  185.2200  178.4240  145.9250 N   0  0  0  0  0  0  0  0  0  0  0  0
  188.8710  173.4960  139.8860 C   0  0  0  0  0  1  0  0  0  0  0  0
  189.4520  174.2460  140.9420 O   0  0  0  0  0  0  0  0  0  0  0  0
  189.7380  174.2770  143.7360 C   0  0  1  0  0  3  0  0  0  0  0  0
  191.0610  175.6740  147.5860 C   0  0  0  0  0  3  0  0  0  0  0  0
  191.3680  175.5710  145.1870 C   0  0  0  0  0  3  0  0  0  0  0  0
  191.7860  176.0200  146.4430 C   0  0  0  0  0  3  0  0  0  0  0  0
  189.4980  174.4280  146.2190 C   0  0  0  0  0  3  0  0  0  0  0  0
  190.2210  174.7690  145.0700 C   0  0  0  0  0  0  0  0  0  0  0  0
  189.9170  174.8790  147.4740 C   0  0  0  0  0  3  0  0  0  0  0  0
  189.2010  172.8410  143.7530 C   0  0  0  0  0  2  0  0  0  0  0  0
  190.0430  171.1220  142.3240 O   0  0  0  0  0  0  0  0  0  0  0  0
  191.3510  171.6290  144.1360 O   0  0  0  0  0  1  0  0  0  0  0  0
  190.2160  171.8160  143.3610 C   0  0  0  0  0  0  0  0  0  0  0  0
  1  4  2  0  0  0  0
  2  5  1  0  0  0  0
  2  9  1  1  0  0  0
  3  2  1  0  0  0  0
  4  5  1  0  0  0  0
  4 17  1  0  0  0  0
  6  1  1  0  0  0  0
  6  3  2  0  0  0  0
  7 14  1  0  0  0  0
  8 14  1  0  0  0  0
  8 10  1  0  0  0  0
  9  8  2  0  0  0  0
 12 13  2  0  0  0  0
 12  9  1  0  0  0  0
 13  7  1  0  0  0  0
 14 11  1  0  0  0  0
 15 16  1  0  0  0  0
 16  1  1  0  0  0  0
 17 24  1  1  0  0  0
 17 22  1  0  0  0  0
 19 20  1  0  0  0  0
 20 18  2  0  0  0  0
 21 23  2  0  0  0  0
 22 19  2  0  0  0  0
 22 21  1  0  0  0  0
 23 18  1  0  0  0  0
 25 27  2  0  0  0  0
 27 24  1  0  0  0  0
 27 26  1  0  0  0  0
M  END
>  <MODEL>
2

>  <REMARK>
 VINA RESULT:      -6.8      3.966      6.273
  Name = 
  6 active torsions:
  status: ('A' for Active; 'I' for Inactive)
    1  A    between atoms: C_5  and  O_23
    2  A    between atoms: C_7  and  C_8
    3  A    between atoms: C_11  and  C_14
    4  A    between atoms: C_11  and  C_15
    5  A    between atoms: C_11  and  C_20
    6  A    between atoms: C_14  and  C_27
                            x       y       z     vdW  Elec       q    Type
                         _______ _______ _______ _____ _____    ______ ____

>  <TORSDO>
F 6

$$$$
=
 OpenBabel11042414213D

 27 29  0  0  1  0  0  0  0  0999 V2000
  187.1190  176.7240  140.6370 C   0  0  0  0  0  0  0  0  0  0  0  0
  186.7430  178.1780  143.0660 C   0  0  2  0  0  3  0  0  0  0  0  0
  185.9230  178.4870  141.8450 C   0  0  0  0  0  3  0  0  0  0  0  0
  187.6750  176.2770  141.7720 C   0  0  0  0  0  0  0  0  0  0  0  0
  187.3420  176.8810  142.9940 O   0  0  0  0  0  0  0  0  0  0  0  0
  186.1370  177.8270  140.7060 C   0  0  0  0  0  3  0  0  0  0  0  0
  184.3030  178.6130  146.5530 N   0  0  0  0  0  2  0  0  0  0  0  0
  186.4560  178.0390  145.5280 C   0  0  0  0  0  0  0  0  0  0  0  0
  185.9320  178.3160  144.3200 C   0  0  0  0  0  0  0  0  0  0  0  0
  187.8770  177.5810  145.6640 C   0  0  0  0  0  1  0  0  0  0  0  0
  186.1400  177.9030  148.0300 C   0  0  0  0  0  1  0  0  0  0  0  0
  184.5270  178.7630  144.2190 C   0  0  0  0  0  3  0  0  0  0  0  0
  183.7870  178.8940  145.2770 N   0  0  0  0  0  0  0  0  0  0  0  0
  185.6320  178.1860  146.6970 N   0  0  0  0  0  0  0  0  0  0  0  0
  186.6970  176.3590  138.2290 C   0  0  0  0  0  1  0  0  0  0  0  0
  187.4420  176.1230  139.4140 O   0  0  0  0  0  0  0  0  0  0  0  0
  188.6180  175.1070  141.7540 C   0  0  1  0  0  3  0  0  0  0  0  0
  191.6050  175.2200  144.8510 C   0  0  0  0  0  3  0  0  0  0  0  0
  190.7430  176.0670  142.7540 C   0  0  0  0  0  3  0  0  0  0  0  0
  191.7050  176.0950  143.7670 C   0  0  0  0  0  3  0  0  0  0  0  0
  189.5790  174.2850  143.9090 C   0  0  0  0  0  3  0  0  0  0  0  0
  189.6750  175.1580  142.8190 C   0  0  0  0  0  0  0  0  0  0  0  0
  190.5420  174.3160  144.9230 C   0  0  0  0  0  3  0  0  0  0  0  0
  187.9230  173.7470  141.6230 C   0  0  0  0  0  2  0  0  0  0  0  0
  188.0570  172.8340  139.4210 O   0  0  0  0  0  0  0  0  0  0  0  0
  189.6220  172.0620  140.9060 O   0  0  0  0  0  1  0  0  0  0  0  0
  188.5310  172.8590  140.5860 C   0  0  0  0  0  0  0  0  0  0  0  0
  1  6  1  0  0  0  0
  1  4  2  0  0  0  0
  2  9  1  1  0  0  0
  3  2  1  0  0  0  0
  4  5  1  0  0  0  0
  5  2  1  0  0  0  0
  6  3  2  0  0  0  0
  7 14  1  0  0  0  0
  8 10  1  0  0  0  0
  8 14  1  0  0  0  0
  9  8  2  0  0  0  0
 12  9  1  0  0  0  0
 12 13  2  0  0  0  0
 13  7  1  0  0  0  0
 14 11  1  0  0  0  0
 15 16  1  0  0  0  0
 16  1  1  0  0  0  0
 17 24  1  1  0  0  0
 17  4  1  0  0  0  0
 17 22  1  0  0  0  0
 18 23  1  0  0  0  0
 19 22  2  0  0  0  0
 19 20  1  0  0  0  0
 20 18  2  0  0  0  0
 21 23  2  0  0  0  0
 22 21  1  0  0  0  0
 25 27  2  0  0  0  0
 27 26  1  0  0  0  0
 27 24  1  0  0  0  0
M  END
>  <MODEL>
3

>  <REMARK>
 VINA RESULT:      -6.5      3.969      6.475
  Name = 
  6 active torsions:
  status: ('A' for Active; 'I' for Inactive)
    1  A    between atoms: C_5  and  O_23
    2  A    between atoms: C_7  and  C_8
    3  A    between atoms: C_11  and  C_14
    4  A    between atoms: C_11  and  C_15
    5  A    between atoms: C_11  and  C_20
    6  A    between atoms: C_14  and  C_27
                            x       y       z     vdW  Elec       q    Type
                         _______ _______ _______ _____ _____    ______ ____

>  <TORSDO>
F 6

$$$$
=
 OpenBabel11042414213D

 27 29  0  0  1  0  0  0  0  0999 V2000
  189.6450  176.5880  146.3330 C   0  0  0  0  0  0  0  0  0  0  0  0
  186.8950  176.6510  145.5660 C   0  0  2  0  0  3  0  0  0  0  0  0
  187.3490  177.2500  146.8680 C   0  0  0  0  0  3  0  0  0  0  0  0
  189.2980  176.2760  145.0750 C   0  0  0  0  0  0  0  0  0  0  0  0
  187.9780  176.4840  144.6470 O   0  0  0  0  0  0  0  0  0  0  0  0
  188.6300  177.1780  147.2310 C   0  0  0  0  0  3  0  0  0  0  0  0
  183.7350  179.0300  143.9360 N   0  0  0  0  0  2  0  0  0  0  0  0
  185.4900  177.3420  143.6400 C   0  0  0  0  0  0  0  0  0  0  0  0
  185.7950  177.4600  144.9440 C   0  0  0  0  0  0  0  0  0  0  0  0
  186.2410  176.3930  142.7560 C   0  0  0  0  0  1  0  0  0  0  0  0
  184.0500  178.0620  141.6940 C   0  0  0  0  0  1  0  0  0  0  0  0
  185.0370  178.4060  145.7890 C   0  0  0  0  0  3  0  0  0  0  0  0
  184.0790  179.1280  145.2940 N   0  0  0  0  0  0  0  0  0  0  0  0
  184.4270  178.1440  143.0960 N   0  0  0  0  0  0  0  0  0  0  0  0
  191.2920  175.4830  147.8090 C   0  0  0  0  0  1  0  0  0  0  0  0
  190.9620  176.3880  146.7660 O   0  0  0  0  0  0  0  0  0  0  0  0
  190.3190  175.7480  144.1070 C   0  0  1  0  0  3  0  0  0  0  0  0
  188.8440  172.6190  141.5450 C   0  0  0  0  0  3  0  0  0  0  0  0
  189.5730  173.3520  143.7340 C   0  0  0  0  0  3  0  0  0  0  0  0
  189.0920  172.3450  142.8930 C   0  0  0  0  0  3  0  0  0  0  0  0
  189.5600  174.9090  141.8790 C   0  0  0  0  0  3  0  0  0  0  0  0
  189.8120  174.6400  143.2290 C   0  0  0  0  0  0  0  0  0  0  0  0
  189.0770  173.9010  141.0390 C   0  0  0  0  0  3  0  0  0  0  0  0
  191.0930  176.8390  143.3590 C   0  0  0  0  0  2  0  0  0  0  0  0
  193.2290  176.7840  144.4260 O   0  0  0  0  0  1  0  0  0  0  0  0
  193.2280  176.2760  142.1910 O   0  0  0  0  0  0  0  0  0  0  0  0
  192.5740  176.6340  143.3610 C   0  0  0  0  0  0  0  0  0  0  0  0
  1 16  1  0  0  0  0
  1  6  1  0  0  0  0
  2  9  1  6  0  0  0
  2  3  1  0  0  0  0
  3  6  2  0  0  0  0
  4  1  2  0  0  0  0
  5  4  1  0  0  0  0
  5  2  1  0  0  0  0
  7 13  1  0  0  0  0
  8  9  2  0  0  0  0
  9 12  1  0  0  0  0
 10  8  1  0  0  0  0
 11 14  1  0  0  0  0
 13 12  2  0  0  0  0
 14  8  1  0  0  0  0
 14  7  1  0  0  0  0
 16 15  1  0  0  0  0
 17 24  1  6  0  0  0
 17  4  1  0  0  0  0
 18 20  1  0  0  0  0
 20 19  2  0  0  0  0
 21 22  2  0  0  0  0
 22 19  1  0  0  0  0
 22 17  1  0  0  0  0
 23 18  2  0  0  0  0
 23 21  1  0  0  0  0
 24 27  1  0  0  0  0
 26 27  2  0  0  0  0
 27 25  1  0  0  0  0
M  END
>  <MODEL>
4

>  <REMARK>
 VINA RESULT:      -6.5      3.837      6.756
  Name = 
  6 active torsions:
  status: ('A' for Active; 'I' for Inactive)
    1  A    between atoms: C_5  and  O_23
    2  A    between atoms: C_7  and  C_8
    3  A    between atoms: C_11  and  C_14
    4  A    between atoms: C_11  and  C_15
    5  A    between atoms: C_11  and  C_20
    6  A    between atoms: C_14  and  C_27
                            x       y       z     vdW  Elec       q    Type
                         _______ _______ _______ _____ _____    ______ ____

>  <TORSDO>
F 6

$$$$
=
 OpenBabel11042414213D

 27 29  0  0  1  0  0  0  0  0999 V2000
  189.6670  176.8090  146.4070 C   0  0  0  0  0  0  0  0  0  0  0  0
  186.9220  176.7970  145.6180 C   0  0  2  0  0  3  0  0  0  0  0  0
  187.3600  177.4800  146.8820 C   0  0  0  0  0  3  0  0  0  0  0  0
  189.3330  176.4170  145.1690 C   0  0  0  0  0  0  0  0  0  0  0  0
  188.0150  176.5840  144.7190 O   0  0  0  0  0  0  0  0  0  0  0  0
  188.6390  177.4440  147.2590 C   0  0  0  0  0  3  0  0  0  0  0  0
  183.7510  179.0350  143.8190 N   0  0  0  0  0  2  0  0  0  0  0  0
  185.5430  177.3700  143.6350 C   0  0  0  0  0  0  0  0  0  0  0  0
  185.8200  177.5540  144.9380 C   0  0  0  0  0  0  0  0  0  0  0  0
  186.3310  176.3970  142.8100 C   0  0  0  0  0  1  0  0  0  0  0  0
  184.1290  177.9720  141.6310 C   0  0  0  0  0  1  0  0  0  0  0  0
  185.0270  178.5220  145.7240 C   0  0  0  0  0  3  0  0  0  0  0  0
  184.0660  179.2010  145.1770 N   0  0  0  0  0  0  0  0  0  0  0  0
  184.4770  178.1260  143.0340 N   0  0  0  0  0  0  0  0  0  0  0  0
  191.3390  175.6840  147.8390 C   0  0  0  0  0  1  0  0  0  0  0  0
  190.9820  176.6510  146.8620 O   0  0  0  0  0  0  0  0  0  0  0  0
  190.3670  175.8390  144.2440 C   0  0  1  0  0  3  0  0  0  0  0  0
  189.0050  172.4220  142.0080 C   0  0  0  0  0  3  0  0  0  0  0  0
  189.5940  174.7690  142.0770 C   0  0  0  0  0  3  0  0  0  0  0  0
  189.1540  173.6520  141.3620 C   0  0  0  0  0  3  0  0  0  0  0  0
  189.7350  173.4270  144.0880 C   0  0  0  0  0  3  0  0  0  0  0  0
  189.8840  174.6620  143.4470 C   0  0  0  0  0  0  0  0  0  0  0  0
  189.2970  172.3090  143.3710 C   0  0  0  0  0  3  0  0  0  0  0  0
  191.1230  176.8880  143.4200 C   0  0  0  0  0  2  0  0  0  0  0  0
  193.1960  176.4130  142.3330 O   0  0  0  0  0  0  0  0  0  0  0  0
  193.3310  176.8150  144.5840 O   0  0  0  0  0  1  0  0  0  0  0  0
  192.6040  176.6900  143.4090 C   0  0  0  0  0  0  0  0  0  0  0  0
  1 16  1  0  0  0  0
  1  6  1  0  0  0  0
  2  9  1  6  0  0  0
  2  3  1  0  0  0  0
  3  6  2  0  0  0  0
  4  1  2  0  0  0  0
  5  4  1  0  0  0  0
  5  2  1  0  0  0  0
  7 13  1  0  0  0  0
  8  9  2  0  0  0  0
  9 12  1  0  0  0  0
 10  8  1  0  0  0  0
 11 14  1  0  0  0  0
 13 12  2  0  0  0  0
 14  8  1  0  0  0  0
 14  7  1  0  0  0  0
 16 15  1  0  0  0  0
 17 24  1  6  0  0  0
 17  4  1  0  0  0  0
 18 23  1  0  0  0  0
 19 22  2  0  0  0  0
 20 18  2  0  0  0  0
 20 19  1  0  0  0  0
 22 21  1  0  0  0  0
 22 17  1  0  0  0  0
 23 21  2  0  0  0  0
 25 27  2  0  0  0  0
 27 24  1  0  0  0  0
 27 26  1  0  0  0  0
M  END
>  <MODEL>
5

>  <REMARK>
 VINA RESULT:      -6.5      3.813      6.689
  Name = 
  6 active torsions:
  status: ('A' for Active; 'I' for Inactive)
    1  A    between atoms: C_5  and  O_23
    2  A    between atoms: C_7  and  C_8
    3  A    between atoms: C_11  and  C_14
    4  A    between atoms: C_11  and  C_15
    5  A    between atoms: C_11  and  C_20
    6  A    between atoms: C_14  and  C_27
                            x       y       z     vdW  Elec       q    Type
                         _______ _______ _______ _____ _____    ______ ____

>  <TORSDO>
F 6

$$$$
=
 OpenBabel11042414213D

 27 29  0  0  1  0  0  0  0  0999 V2000
  189.6790  173.7320  143.6030 C   0  0  0  0  0  0  0  0  0  0  0  0
  188.1480  175.9260  142.6030 C   0  0  2  0  0  3  0  0  0  0  0  0
  187.9970  174.5480  142.0210 C   0  0  0  0  0  3  0  0  0  0  0  0
  189.6430  174.8850  144.2880 C   0  0  0  0  0  0  0  0  0  0  0  0
  188.7510  175.8950  143.9000 O   0  0  0  0  0  0  0  0  0  0  0  0
  188.7470  173.5420  142.4710 C   0  0  0  0  0  3  0  0  0  0  0  0
  184.3960  177.9620  142.8920 N   0  0  0  0  0  2  0  0  0  0  0  0
  186.2980  177.1980  141.5440 C   0  0  0  0  0  0  0  0  0  0  0  0
  186.8340  176.6490  142.6480 C   0  0  0  0  0  0  0  0  0  0  0  0
  186.9970  177.1070  140.2210 C   0  0  0  0  0  1  0  0  0  0  0  0
  184.4060  178.4960  140.4890 C   0  0  0  0  0  1  0  0  0  0  0  0
  186.1210  176.7580  143.9380 C   0  0  0  0  0  3  0  0  0  0  0  0
  184.9840  177.3760  144.0250 N   0  0  0  0  0  0  0  0  0  0  0  0
  185.0370  177.8820  141.6460 N   0  0  0  0  0  0  0  0  0  0  0  0
  191.6040  172.2510  143.1400 C   0  0  0  0  0  1  0  0  0  0  0  0
  190.5630  172.7160  143.9870 O   0  0  0  0  0  0  0  0  0  0  0  0
  190.5180  175.0870  145.4930 C   0  0  1  0  0  3  0  0  0  0  0  0
  194.6380  175.9710  144.6110 C   0  0  0  0  0  3  0  0  0  0  0  0
  192.3080  176.0160  143.9530 C   0  0  0  0  0  3  0  0  0  0  0  0
  193.6490  176.3000  143.6800 C   0  0  0  0  0  3  0  0  0  0  0  0
  192.9440  175.0730  146.0920 C   0  0  0  0  0  3  0  0  0  0  0  0
  191.9490  175.3970  145.1620 C   0  0  0  0  0  0  0  0  0  0  0  0
  194.2850  175.3590  145.8170 C   0  0  0  0  0  3  0  0  0  0  0  0
  189.9080  176.0010  146.5610 C   0  0  0  0  0  2  0  0  0  0  0  0
  188.7230  174.3470  147.8100 O   0  0  0  0  0  1  0  0  0  0  0  0
  187.4750  176.1360  147.1100 O   0  0  0  0  0  0  0  0  0  0  0  0
  188.6740  175.4440  147.1950 C   0  0  0  0  0  0  0  0  0  0  0  0
  1 16  1  0  0  0  0
  1  4  2  0  0  0  0
  2  9  1  1  0  0  0
  2  5  1  0  0  0  0
  3  6  2  0  0  0  0
  3  2  1  0  0  0  0
  4 17  1  0  0  0  0
  5  4  1  0  0  0  0
  6  1  1  0  0  0  0
  7 13  1  0  0  0  0
  8 14  1  0  0  0  0
  8  9  2  0  0  0  0
  9 12  1  0  0  0  0
 10  8  1  0  0  0  0
 11 14  1  0  0  0  0
 12 13  2  0  0  0  0
 14  7  1  0  0  0  0
 15 16  1  0  0  0  0
 17 24  1  6  0  0  0
 18 23  1  0  0  0  0
 19 22  2  0  0  0  0
 20 19  1  0  0  0  0
 20 18  2  0  0  0  0
 22 17  1  0  0  0  0
 22 21  1  0  0  0  0
 23 21  2  0  0  0  0
 24 27  1  0  0  0  0
 26 27  2  0  0  0  0
 27 25  1  0  0  0  0
M  END
>  <MODEL>
6

>  <REMARK>
 VINA RESULT:      -6.5      3.869      6.660
  Name = 
  6 active torsions:
  status: ('A' for Active; 'I' for Inactive)
    1  A    between atoms: C_5  and  O_23
    2  A    between atoms: C_7  and  C_8
    3  A    between atoms: C_11  and  C_14
    4  A    between atoms: C_11  and  C_15
    5  A    between atoms: C_11  and  C_20
    6  A    between atoms: C_14  and  C_27
                            x       y       z     vdW  Elec       q    Type
                         _______ _______ _______ _____ _____    ______ ____

>  <TORSDO>
F 6

$$$$
=
 OpenBabel11042414213D

 27 29  0  0  1  0  0  0  0  0999 V2000
  189.5560  175.7870  145.9900 C   0  0  0  0  0  0  0  0  0  0  0  0
  192.2180  176.4030  145.1600 C   0  0  2  0  0  3  0  0  0  0  0  0
  191.8360  176.4260  146.6130 C   0  0  0  0  0  3  0  0  0  0  0  0
  189.9380  175.5230  144.7320 C   0  0  0  0  0  0  0  0  0  0  0  0
  191.2880  175.6510  144.3740 O   0  0  0  0  0  0  0  0  0  0  0  0
  190.5800  176.1750  146.9830 C   0  0  0  0  0  3  0  0  0  0  0  0
  196.1990  174.8850  144.7680 N   0  0  0  0  0  2  0  0  0  0  0  0
  194.1960  175.8750  143.7550 C   0  0  0  0  0  0  0  0  0  0  0  0
  193.6120  175.8830  144.9670 C   0  0  0  0  0  0  0  0  0  0  0  0
  193.4700  176.3850  142.5470 C   0  0  0  0  0  1  0  0  0  0  0  0
  196.2180  175.3270  142.3450 C   0  0  0  0  0  1  0  0  0  0  0  0
  194.3540  175.3710  146.1380 C   0  0  0  0  0  3  0  0  0  0  0  0
  195.5610  174.9100  146.0180 N   0  0  0  0  0  0  0  0  0  0  0  0
  195.5340  175.3630  143.6280 N   0  0  0  0  0  0  0  0  0  0  0  0
  187.4360  176.7540  146.8170 C   0  0  0  0  0  1  0  0  0  0  0  0
  188.2100  175.6570  146.3560 O   0  0  0  0  0  0  0  0  0  0  0  0
  188.9400  175.0500  143.7120 C   0  0  1  0  0  3  0  0  0  0  0  0
  186.5900  178.2390  142.0270 C   0  0  0  0  0  3  0  0  0  0  0  0
  186.6990  176.0910  143.1390 C   0  0  0  0  0  3  0  0  0  0  0  0
  185.9470  177.1340  142.5910 C   0  0  0  0  0  3  0  0  0  0  0  0
  188.7400  177.2580  142.5600 C   0  0  0  0  0  3  0  0  0  0  0  0
  188.1010  176.1480  143.1230 C   0  0  0  0  0  0  0  0  0  0  0  0
  187.9870  178.3020  142.0130 C   0  0  0  0  0  3  0  0  0  0  0  0
  189.5180  174.0780  142.6780 C   0  0  0  0  0  2  0  0  0  0  0  0
  189.3080  171.7500  143.1710 O   0  0  0  0  0  1  0  0  0  0  0  0
  187.5850  172.6640  141.9690 O   0  0  0  0  0  0  0  0  0  0  0  0
  188.8050  172.7650  142.6220 C   0  0  0  0  0  0  0  0  0  0  0  0
  1 16  1  0  0  0  0
  1  6  1  0  0  0  0
  2  9  1  1  0  0  0
  2  3  1  0  0  0  0
  3  6  2  0  0  0  0
  4  1  2  0  0  0  0
  5  4  1  0  0  0  0
  5  2  1  0  0  0  0
  7 13  1  0  0  0  0
  8  9  2  0  0  0  0
  9 12  1  0  0  0  0
 10  8  1  0  0  0  0
 11 14  1  0  0  0  0
 13 12  2  0  0  0  0
 14  8  1  0  0  0  0
 14  7  1  0  0  0  0
 16 15  1  0  0  0  0
 17 24  1  6  0  0  0
 17  4  1  0  0  0  0
 18 20  1  0  0  0  0
 20 19  2  0  0  0  0
 21 22  2  0  0  0  0
 22 19  1  0  0  0  0
 22 17  1  0  0  0  0
 23 18  2  0  0  0  0
 23 21  1  0  0  0  0
 26 27  2  0  0  0  0
 27 24  1  0  0  0  0
 27 25  1  0  0  0  0
M  END
>  <MODEL>
7

>  <REMARK>
 VINA RESULT:      -6.3      3.113      5.178
  Name = 
  6 active torsions:
  status: ('A' for Active; 'I' for Inactive)
    1  A    between atoms: C_5  and  O_23
    2  A    between atoms: C_7  and  C_8
    3  A    between atoms: C_11  and  C_14
    4  A    between atoms: C_11  and  C_15
    5  A    between atoms: C_11  and  C_20
    6  A    between atoms: C_14  and  C_27
                            x       y       z     vdW  Elec       q    Type
                         _______ _______ _______ _____ _____    ______ ____

>  <TORSDO>
F 6

$$$$
=
 OpenBabel11042414213D

 27 29  0  0  1  0  0  0  0  0999 V2000
  190.8690  176.4700  143.0470 C   0  0  0  0  0  0  0  0  0  0  0  0
  188.4170  176.9370  144.4350 C   0  0  2  0  0  3  0  0  0  0  0  0
  189.5520  177.9180  144.5190 C   0  0  0  0  0  3  0  0  0  0  0  0
  189.7930  175.7210  142.7660 C   0  0  0  0  0  0  0  0  0  0  0  0
  188.5450  176.0660  143.3080 O   0  0  0  0  0  0  0  0  0  0  0  0
  190.7050  177.6680  143.8980 C   0  0  0  0  0  3  0  0  0  0  0  0
  184.6590  178.9710  144.2220 N   0  0  0  0  0  2  0  0  0  0  0  0
  186.2640  177.6020  145.4760 C   0  0  0  0  0  0  0  0  0  0  0  0
  187.0890  177.6340  144.4140 C   0  0  0  0  0  0  0  0  0  0  0  0
  186.6430  176.8650  146.7240 C   0  0  0  0  0  1  0  0  0  0  0  0
  184.0660  178.2900  146.5130 C   0  0  0  0  0  1  0  0  0  0  0  0
  186.6850  178.3690  143.1970 C   0  0  0  0  0  3  0  0  0  0  0  0
  185.5450  178.9850  143.1330 N   0  0  0  0  0  0  0  0  0  0  0  0
  185.0010  178.2870  145.3990 N   0  0  0  0  0  0  0  0  0  0  0  0
  193.2860  176.0170  143.3030 C   0  0  0  0  0  1  0  0  0  0  0  0
  192.1160  176.1360  142.5060 O   0  0  0  0  0  0  0  0  0  0  0  0
  189.9020  174.5400  141.8420 C   0  0  1  0  0  3  0  0  0  0  0  0
  191.8760  171.1590  143.6300 C   0  0  0  0  0  3  0  0  0  0  0  0
  191.7040  172.7560  141.8180 C   0  0  0  0  0  3  0  0  0  0  0  0
  192.3380  171.6600  142.4100 C   0  0  0  0  0  3  0  0  0  0  0  0
  190.1440  172.8520  143.6670 C   0  0  0  0  0  3  0  0  0  0  0  0
  190.6000  173.3560  142.4440 C   0  0  0  0  0  0  0  0  0  0  0  0
  190.7800  171.7560  144.2590 C   0  0  0  0  0  3  0  0  0  0  0  0
  188.5980  174.1970  141.1120 C   0  0  0  0  0  2  0  0  0  0  0  0
  189.7980  173.7960  139.0860 O   0  0  0  0  0  0  0  0  0  0  0  0
  187.9100  172.5320  139.3820 O   0  0  0  0  0  1  0  0  0  0  0  0
  188.8060  173.5030  139.8050 C   0  0  0  0  0  0  0  0  0  0  0  0
  1  6  1  0  0  0  0
  2  9  1  6  0  0  0
  2  3  1  0  0  0  0
  4  1  2  0  0  0  0
  4  5  1  0  0  0  0
  5  2  1  0  0  0  0
  6  3  2  0  0  0  0
  7 14  1  0  0  0  0
  8 10  1  0  0  0  0
  9  8  2  0  0  0  0
 12  9  1  0  0  0  0
 13 12  2  0  0  0  0
 13  7  1  0  0  0  0
 14  8  1  0  0  0  0
 14 11  1  0  0  0  0
 16  1  1  0  0  0  0
 16 15  1  0  0  0  0
 17 24  1  1  0  0  0
 17 22  1  0  0  0  0
 17  4  1  0  0  0  0
 18 23  1  0  0  0  0
 19 20  1  0  0  0  0
 19 22  2  0  0  0  0
 20 18  2  0  0  0  0
 21 23  2  0  0  0  0
 22 21  1  0  0  0  0
 25 27  2  0  0  0  0
 26 27  1  0  0  0  0
 27 24  1  0  0  0  0
M  END
>  <MODEL>
8

>  <REMARK>
 VINA RESULT:      -6.3      3.657      7.118
  Name = 
  6 active torsions:
  status: ('A' for Active; 'I' for Inactive)
    1  A    between atoms: C_5  and  O_23
    2  A    between atoms: C_7  and  C_8
    3  A    between atoms: C_11  and  C_14
    4  A    between atoms: C_11  and  C_15
    5  A    between atoms: C_11  and  C_20
    6  A    between atoms: C_14  and  C_27
                            x       y       z     vdW  Elec       q    Type
                         _______ _______ _______ _____ _____    ______ ____

>  <TORSDO>
F 6

$$$$
=
 OpenBabel11042414213D

 27 29  0  0  1  0  0  0  0  0999 V2000
  190.8090  176.2270  143.6720 C   0  0  0  0  0  0  0  0  0  0  0  0
  188.2880  177.4960  143.2360 C   0  0  2  0  0  3  0  0  0  0  0  0
  189.5490  178.0580  142.6440 C   0  0  0  0  0  3  0  0  0  0  0  0
  189.6770  175.5840  143.9940 C   0  0  0  0  0  0  0  0  0  0  0  0
  188.4390  176.1240  143.6130 O   0  0  0  0  0  0  0  0  0  0  0  0
  190.7250  177.4780  142.8880 C   0  0  0  0  0  3  0  0  0  0  0  0
  185.0660  177.9380  140.4560 N   0  0  0  0  0  2  0  0  0  0  0  0
  185.8860  177.9140  142.7670 C   0  0  0  0  0  0  0  0  0  0  0  0
  187.1230  177.6610  142.3050 C   0  0  0  0  0  0  0  0  0  0  0  0
  185.6240  178.0390  144.2380 C   0  0  0  0  0  1  0  0  0  0  0  0
  183.4470  178.3350  142.2670 C   0  0  0  0  0  1  0  0  0  0  0  0
  187.3480  177.5410  140.8490 C   0  0  0  0  0  3  0  0  0  0  0  0
  186.3700  177.6750  140.0060 N   0  0  0  0  0  0  0  0  0  0  0  0
  184.8060  178.0610  141.8290 N   0  0  0  0  0  0  0  0  0  0  0  0
  193.0650  176.4760  144.6520 C   0  0  0  0  0  1  0  0  0  0  0  0
  192.0480  175.6920  144.0440 O   0  0  0  0  0  0  0  0  0  0  0  0
  189.7230  174.2700  144.7210 C   0  0  1  0  0  3  0  0  0  0  0  0
  190.7900  170.9410  142.2100 C   0  0  0  0  0  3  0  0  0  0  0  0
  191.1680  172.2470  144.2130 C   0  0  0  0  0  3  0  0  0  0  0  0
  191.5030  171.1690  143.3900 C   0  0  0  0  0  3  0  0  0  0  0  0
  189.4050  172.8720  142.6740 C   0  0  0  0  0  3  0  0  0  0  0  0
  190.1160  173.1070  143.8560 C   0  0  0  0  0  0  0  0  0  0  0  0
  189.7400  171.7910  141.8530 C   0  0  0  0  0  3  0  0  0  0  0  0
  190.4530  174.3270  146.0680 C   0  0  0  0  0  2  0  0  0  0  0  0
  188.6990  174.7350  147.6360 O   0  0  0  0  0  1  0  0  0  0  0  0
  190.2690  176.3940  147.4580 O   0  0  0  0  0  0  0  0  0  0  0  0
  189.7540  175.1570  147.0950 C   0  0  0  0  0  0  0  0  0  0  0  0
  1  4  2  0  0  0  0
  1 16  1  0  0  0  0
  2  9  1  6  0  0  0
  2  5  1  0  0  0  0
  3  6  2  0  0  0  0
  3  2  1  0  0  0  0
  4 17  1  0  0  0  0
  5  4  1  0  0  0  0
  6  1  1  0  0  0  0
  7 14  1  0  0  0  0
  8 10  1  0  0  0  0
  9  8  2  0  0  0  0
 12  9  1  0  0  0  0
 13  7  1  0  0  0  0
 13 12  2  0  0  0  0
 14 11  1  0  0  0  0
 14  8  1  0  0  0  0
 16 15  1  0  0  0  0
 17 24  1  1  0  0  0
 18 20  1  0  0  0  0
 20 19  2  0  0  0  0
 21 22  2  0  0  0  0
 22 19  1  0  0  0  0
 22 17  1  0  0  0  0
 23 18  2  0  0  0  0
 23 21  1  0  0  0  0
 24 27  1  0  0  0  0
 27 26  2  0  0  0  0
 27 25  1  0  0  0  0
M  END
>  <MODEL>
9

>  <REMARK>
 VINA RESULT:      -6.2      3.350      6.608
  Name = 
  6 active torsions:
  status: ('A' for Active; 'I' for Inactive)
    1  A    between atoms: C_5  and  O_23
    2  A    between atoms: C_7  and  C_8
    3  A    between atoms: C_11  and  C_14
    4  A    between atoms: C_11  and  C_15
    5  A    between atoms: C_11  and  C_20
    6  A    between atoms: C_14  and  C_27
                            x       y       z     vdW  Elec       q    Type
                         _______ _______ _______ _____ _____    ______ ____

>  <TORSDO>
F 6

$$$$
