=
 OpenBabel11042419463D

 50 57  0  0  1  0  0  0  0  0999 V2000
  189.3630  173.4200  142.2290 C   0  0  0  0  0  2  0  0  0  0  0  0
  190.4060  172.3850  142.6360 C   0  0  1  0  0  0  0  0  0  0  0  0
  190.8210  173.6490  141.8530 C   0  0  1  0  0  0  0  0  0  0  0  0
  190.5570  172.3710  144.1490 C   0  0  0  0  0  1  0  0  0  0  0  0
  190.7680  173.3390  136.8860 C   0  0  0  0  0  0  0  0  0  0  0  0
  191.2920  173.3080  138.2480 C   0  0  0  0  0  0  0  0  0  0  0  0
  188.5230  173.7980  138.0110 C   0  0  0  0  0  3  0  0  0  0  0  0
  189.0940  173.8260  139.1870 N   0  0  0  0  0  0  0  0  0  0  0  0
  192.5240  172.9720  138.6650 N   0  0  0  0  0  0  0  0  0  0  0  0
  191.5390  173.2890  135.8920 O   0  0  0  0  0  0  0  0  0  0  0  0
  190.4940  173.5630  139.3200 C   0  0  0  0  0  0  0  0  0  0  0  0
  191.2050  173.4130  140.4530 N   0  0  0  0  0  0  0  0  0  0  0  0
  192.4420  173.0510  140.0220 C   0  0  0  0  0  3  0  0  0  0  0  0
  189.2740  173.4970  136.7130 C   0  0  0  0  0  2  0  0  0  0  0  0
  191.6540  174.7130  142.6090 C   0  0  0  0  0  2  0  0  0  0  0  0
  191.2000  176.4900  144.1860 C   0  0  2  0  0  3  0  0  0  0  0  0
  192.0360  177.0630  143.1250 N   0  0  0  0  0  2  0  0  0  0  0  0
  190.9860  176.0720  142.8130 C   0  0  1  0  0  3  0  0  0  0  0  0
  190.1760  177.5280  144.6340 C   0  0  0  0  0  2  0  0  0  0  0  0
  189.2840  177.9540  143.4620 C   0  0  0  0  0  2  0  0  0  0  0  0
  187.6530  176.4110  144.5670 C   0  0  0  0  0  2  0  0  0  0  0  0
  187.2980  176.4730  143.0880 C   0  0  2  0  0  3  0  0  0  0  0  0
  187.8220  177.7000  143.8010 C   0  0  2  0  0  3  0  0  0  0  0  0
  185.8650  176.6570  142.9460 N   0  0  0  0  0  2  0  0  0  0  0  0
  185.8640  178.1680  141.1620 O   0  0  0  0  0  0  0  0  0  0  0  0
  185.2710  177.6950  142.1700 C   0  0  0  0  0  0  0  0  0  0  0  0
  183.9640  178.2170  142.5810 C   0  0  0  0  0  0  0  0  0  0  0  0
  182.9670  178.1630  141.8030 O   0  0  0  0  0  0  0  0  0  0  0  0
  183.8570  178.7930  143.8480 O   0  0  0  0  0  0  0  0  0  0  0  0
  185.1940  179.1460  145.8230 C   0  0  0  0  0  1  0  0  0  0  0  0
  184.8660  179.6260  144.4180 C   0  0  0  0  0  2  0  0  0  0  0  0
  190.1420  171.0810  141.8900 C   0  0  0  0  0  2  0  0  0  0  0  0
  191.1260  169.9780  142.2430 C   0  0  0  0  0  2  0  0  0  0  0  0
  192.4330  170.4810  142.3520 O   0  0  0  0  0  0  0  0  0  0  0  0
  193.0420  169.6370  143.3020 C   0  0  0  0  0  2  0  0  0  0  0  0
  194.3820  170.2000  143.7800 C   0  0  0  0  0  2  0  0  0  0  0  0
  193.8460  176.4570  146.6880 N   0  0  0  0  0  0  0  0  0  0  0  0
  194.6180  172.7080  143.6610 C   0  0  0  0  0  0  0  0  0  0  0  0
  196.9730  175.3980  142.8330 C   0  0  0  0  0  1  0  0  0  0  0  0
  195.6970  174.8570  143.2690 N   0  0  0  0  0  0  0  0  0  0  0  0
  195.0210  175.4160  144.4120 C   0  0  1  0  0  3  0  0  0  0  0  0
  194.2290  174.5890  145.2510 C   0  0  0  0  0  0  0  0  0  0  0  0
  194.0660  173.1020  144.9970 C   0  0  0  0  0  3  0  0  0  0  0  0
  193.6650  175.1430  146.4000 C   0  0  0  0  0  3  0  0  0  0  0  0
  194.7020  171.4710  143.1430 N   0  0  0  0  0  0  0  0  0  0  0  0
  195.1730  176.7710  144.7290 C   0  0  0  0  0  3  0  0  0  0  0  0
  194.5630  177.2780  145.8730 C   0  0  0  0  0  3  0  0  0  0  0  0
  195.4220  171.6030  142.0050 C   0  0  0  0  0  3  0  0  0  0  0  0
  195.2900  173.5570  142.8340 C   0  0  0  0  0  0  0  0  0  0  0  0
  195.8180  172.8800  141.7950 N   0  0  0  0  0  0  0  0  0  0  0  0
  1  2  1  0  0  0  0
  2  4  1  1  0  0  0
  3  1  1  0  0  0  0
  3 15  1  1  0  0  0
  3  2  1  0  0  0  0
  5  6  1  0  0  0  0
  6  9  1  0  0  0  0
  6 11  2  0  0  0  0
  7  8  2  0  0  0  0
  8 11  1  0  0  0  0
  9 13  2  0  0  0  0
 10  5  2  0  0  0  0
 11 12  1  0  0  0  0
 12  3  1  0  0  0  0
 13 12  1  0  0  0  0
 14  5  1  0  0  0  0
 14  7  1  0  0  0  0
 16 19  1  6  0  0  0
 17 16  1  0  0  0  0
 18 15  1  1  0  0  0
 18 17  1  0  0  0  0
 18 16  1  0  0  0  0
 20 19  1  0  0  0  0
 22 24  1  1  0  0  0
 22 23  1  0  0  0  0
 22 21  1  0  0  0  0
 23 20  1  6  0  0  0
 23 21  1  0  0  0  0
 25 26  2  0  0  0  0
 26 27  1  0  0  0  0
 26 24  1  0  0  0  0
 27 29  1  0  0  0  0
 28 27  2  0  0  0  0
 29 31  1  0  0  0  0
 31 30  1  0  0  0  0
 32 33  1  0  0  0  0
 32  2  1  0  0  0  0
 33 34  1  0  0  0  0
 34 35  1  0  0  0  0
 35 36  1  0  0  0  0
 38 43  1  0  0  0  0
 39 40  1  0  0  0  0
 40 41  1  0  0  0  0
 41 46  1  1  0  0  0
 41 42  1  0  0  0  0
 42 44  1  0  0  0  0
 43 42  2  0  0  0  0
 44 37  2  0  0  0  0
 45 38  1  0  0  0  0
 45 36  1  0  0  0  0
 46 47  2  0  0  0  0
 47 37  1  0  0  0  0
 48 45  1  0  0  0  0
 49 40  1  0  0  0  0
 49 38  2  0  0  0  0
 50 48  2  0  0  0  0
 50 49  1  0  0  0  0
M  END
>  <MODEL>
1

>  <REMARK>
 VINA RESULT:      -7.0      0.000      0.000
  Name = 
  16 active torsions:
  status: ('A' for Active; 'I' for Inactive)
    1  A    between atoms: N_10  and  C_40
    2  A    between atoms: C_11  and  C_19
    3  A    between atoms: C_15  and  C_25
    4  A    between atoms: C_15  and  C_28
    5  A    between atoms: C_16  and  C_20
    6  A    between atoms: C_16  and  N_38
    7  A    between atoms: O_18  and  C_24
    8  A    between atoms: O_18  and  C_44
    9  A    between atoms: C_19  and  C_34
   10  A    between atoms: C_20  and  O_31
   11  A    between atoms: C_23  and  C_47
   12  A    between atoms: C_24  and  C_29
   13  A    between atoms: C_28  and  O_31
   14  A    between atoms: C_34  and  C_49
   15  A    between atoms: C_35  and  N_36
   16  A    between atoms: C_35  and  C_47
                            x       y       z     vdW  Elec       q    Type
                         _______ _______ _______ _____ _____    ______ ____

>  <TORSDO>
F 16

$$$$
=
 OpenBabel11042419463D

 50 57  0  0  1  0  0  0  0  0999 V2000
  197.2160  175.9980  143.1110 C   0  0  0  0  0  2  0  0  0  0  0  0
  196.0730  175.3120  142.3700 C   0  0  1  0  0  0  0  0  0  0  0  0
  196.0270  175.4740  143.9050 C   0  0  1  0  0  0  0  0  0  0  0  0
  195.3430  176.3220  141.4990 C   0  0  0  0  0  1  0  0  0  0  0  0
  195.4530  170.8910  145.7590 C   0  0  0  0  0  0  0  0  0  0  0  0
  196.0750  172.1830  145.4870 C   0  0  0  0  0  0  0  0  0  0  0  0
  193.4960  171.8130  144.4040 C   0  0  0  0  0  3  0  0  0  0  0  0
  194.1600  172.9090  144.1500 N   0  0  0  0  0  0  0  0  0  0  0  0
  197.2230  172.6810  145.9770 N   0  0  0  0  0  0  0  0  0  0  0  0
  196.0960  169.9650  146.3190 O   0  0  0  0  0  0  0  0  0  0  0  0
  195.4610  173.1150  144.7070 C   0  0  0  0  0  0  0  0  0  0  0  0
  196.2150  174.2290  144.6660 N   0  0  0  0  0  0  0  0  0  0  0  0
  197.2840  173.9360  145.4510 C   0  0  0  0  0  3  0  0  0  0  0  0
  194.0320  170.6840  145.2850 C   0  0  0  0  0  2  0  0  0  0  0  0
  194.9900  176.4660  144.4850 C   0  0  0  0  0  2  0  0  0  0  0  0
  193.3500  175.8570  146.1550 C   0  0  2  0  0  3  0  0  0  0  0  0
  192.7780  176.9620  145.3770 N   0  0  0  0  0  2  0  0  0  0  0  0
  193.5870  175.9120  144.7240 C   0  0  1  0  0  3  0  0  0  0  0  0
  192.2430  174.8700  146.5140 C   0  0  0  0  0  2  0  0  0  0  0  0
  191.4190  175.3860  147.7000 C   0  0  0  0  0  2  0  0  0  0  0  0
  189.7160  174.4170  146.1430 C   0  0  0  0  0  2  0  0  0  0  0  0
  189.4000  175.8970  146.3070 C   0  0  2  0  0  3  0  0  0  0  0  0
  189.9410  175.0970  147.4710 C   0  0  2  0  0  3  0  0  0  0  0  0
  187.9770  176.0600  146.5430 N   0  0  0  0  0  2  0  0  0  0  0  0
  187.5410  177.7610  145.0000 O   0  0  0  0  0  0  0  0  0  0  0  0
  187.2130  177.1630  146.0610 C   0  0  0  0  0  0  0  0  0  0  0  0
  186.0500  177.6040  146.8370 C   0  0  0  0  0  0  0  0  0  0  0  0
  186.1820  178.0360  148.0200 O   0  0  0  0  0  0  0  0  0  0  0  0
  184.7910  177.5150  146.2410 O   0  0  0  0  0  0  0  0  0  0  0  0
  184.3650  179.1890  144.5600 C   0  0  0  0  0  1  0  0  0  0  0  0
  183.9880  178.6530  145.9320 C   0  0  0  0  0  2  0  0  0  0  0  0
  196.5780  174.0090  141.7580 C   0  0  0  0  0  2  0  0  0  0  0  0
  195.5930  173.3840  140.7840 C   0  0  0  0  0  2  0  0  0  0  0  0
  195.1720  172.1200  141.2300 O   0  0  0  0  0  0  0  0  0  0  0  0
  194.2000  171.7340  140.2860 C   0  0  0  0  0  2  0  0  0  0  0  0
  193.2200  170.7130  140.8690 C   0  0  0  0  0  2  0  0  0  0  0  0
  189.5550  176.2820  142.7240 N   0  0  0  0  0  0  0  0  0  0  0  0
  191.0880  172.0590  140.8190 C   0  0  0  0  0  0  0  0  0  0  0  0
  188.6060  173.5420  138.5590 C   0  0  0  0  0  1  0  0  0  0  0  0
  189.1810  173.2300  139.8560 N   0  0  0  0  0  0  0  0  0  0  0  0
  189.2810  174.2480  140.8720 C   0  0  1  0  0  3  0  0  0  0  0  0
  190.3580  174.2330  141.7970 C   0  0  0  0  0  0  0  0  0  0  0  0
  191.4420  173.1730  141.7570 C   0  0  0  0  0  3  0  0  0  0  0  0
  190.4750  175.2850  142.7070 C   0  0  0  0  0  3  0  0  0  0  0  0
  191.8420  170.9970  140.4900 N   0  0  0  0  0  0  0  0  0  0  0  0
  188.3400  175.2820  140.9290 C   0  0  0  0  0  3  0  0  0  0  0  0
  188.4890  176.2910  141.8780 C   0  0  0  0  0  3  0  0  0  0  0  0
  191.1740  170.3740  139.4910 C   0  0  0  0  0  3  0  0  0  0  0  0
  189.9890  172.0610  140.0140 C   0  0  0  0  0  0  0  0  0  0  0  0
  190.0320  171.0200  139.1600 N   0  0  0  0  0  0  0  0  0  0  0  0
  1  3  1  0  0  0  0
  2  4  1  6  0  0  0
  2  1  1  0  0  0  0
  2  3  1  0  0  0  0
  3 15  1  1  0  0  0
  3 12  1  0  0  0  0
  5 10  2  0  0  0  0
  6  5  1  0  0  0  0
  6  9  1  0  0  0  0
  7 14  1  0  0  0  0
  8  7  2  0  0  0  0
  8 11  1  0  0  0  0
 11  6  2  0  0  0  0
 12 11  1  0  0  0  0
 12 13  1  0  0  0  0
 13  9  2  0  0  0  0
 14  5  1  0  0  0  0
 16 19  1  6  0  0  0
 17 16  1  0  0  0  0
 18 15  1  1  0  0  0
 18 17  1  0  0  0  0
 18 16  1  0  0  0  0
 19 20  1  0  0  0  0
 21 22  1  0  0  0  0
 21 23  1  0  0  0  0
 22 24  1  1  0  0  0
 22 23  1  0  0  0  0
 23 20  1  6  0  0  0
 25 26  2  0  0  0  0
 26 24  1  0  0  0  0
 26 27  1  0  0  0  0
 27 28  2  0  0  0  0
 29 27  1  0  0  0  0
 30 31  1  0  0  0  0
 31 29  1  0  0  0  0
 32  2  1  0  0  0  0
 33 34  1  0  0  0  0
 33 32  1  0  0  0  0
 35 36  1  0  0  0  0
 35 34  1  0  0  0  0
 38 43  1  0  0  0  0
 39 40  1  0  0  0  0
 40 49  1  0  0  0  0
 40 41  1  0  0  0  0
 41 46  1  6  0  0  0
 41 42  1  0  0  0  0
 42 44  1  0  0  0  0
 43 42  2  0  0  0  0
 44 37  2  0  0  0  0
 45 38  1  0  0  0  0
 45 36  1  0  0  0  0
 46 47  2  0  0  0  0
 47 37  1  0  0  0  0
 48 45  1  0  0  0  0
 49 38  2  0  0  0  0
 50 48  2  0  0  0  0
 50 49  1  0  0  0  0
M  END
>  <MODEL>
2

>  <REMARK>
 VINA RESULT:      -7.0      2.379      6.201
  Name = 
  16 active torsions:
  status: ('A' for Active; 'I' for Inactive)
    1  A    between atoms: N_10  and  C_40
    2  A    between atoms: C_11  and  C_19
    3  A    between atoms: C_15  and  C_25
    4  A    between atoms: C_15  and  C_28
    5  A    between atoms: C_16  and  C_20
    6  A    between atoms: C_16  and  N_38
    7  A    between atoms: O_18  and  C_24
    8  A    between atoms: O_18  and  C_44
    9  A    between atoms: C_19  and  C_34
   10  A    between atoms: C_20  and  O_31
   11  A    between atoms: C_23  and  C_47
   12  A    between atoms: C_24  and  C_29
   13  A    between atoms: C_28  and  O_31
   14  A    between atoms: C_34  and  C_49
   15  A    between atoms: C_35  and  N_36
   16  A    between atoms: C_35  and  C_47
                            x       y       z     vdW  Elec       q    Type
                         _______ _______ _______ _____ _____    ______ ____

>  <TORSDO>
F 16

$$$$
=
 OpenBabel11042419463D

 50 57  0  0  1  0  0  0  0  0999 V2000
  193.0390  176.0320  144.6210 C   0  0  0  0  0  2  0  0  0  0  0  0
  193.6420  175.7960  146.0020 C   0  0  1  0  0  0  0  0  0  0  0  0
  194.2770  175.1550  144.7490 C   0  0  1  0  0  0  0  0  0  0  0  0
  194.2220  177.0930  146.5420 C   0  0  0  0  0  1  0  0  0  0  0  0
  194.8270  170.2310  145.2180 C   0  0  0  0  0  0  0  0  0  0  0  0
  194.2210  171.5040  144.8450 C   0  0  0  0  0  0  0  0  0  0  0  0
  196.7560  171.6670  146.0730 C   0  0  0  0  0  3  0  0  0  0  0  0
  196.1040  172.7590  145.7730 N   0  0  0  0  0  0  0  0  0  0  0  0
  193.0980  171.7250  144.1400 N   0  0  0  0  0  0  0  0  0  0  0  0
  194.1860  169.1520  145.1190 O   0  0  0  0  0  0  0  0  0  0  0  0
  194.8250  172.6890  145.1350 C   0  0  0  0  0  0  0  0  0  0  0  0
  194.0900  173.6990  144.6350 N   0  0  0  0  0  0  0  0  0  0  0  0
  193.0420  173.0810  144.0320 C   0  0  0  0  0  3  0  0  0  0  0  0
  196.2290  170.2610  145.7860 C   0  0  0  0  0  2  0  0  0  0  0  0
  195.6540  175.6940  144.2940 C   0  0  0  0  0  2  0  0  0  0  0  0
  195.5460  176.3270  141.9620 C   0  0  2  0  0  3  0  0  0  0  0  0
  196.9560  176.4110  142.3630 N   0  0  0  0  0  2  0  0  0  0  0  0
  196.0840  175.3320  142.8730 C   0  0  1  0  0  3  0  0  0  0  0  0
  195.4630  175.8050  140.5310 C   0  0  0  0  0  2  0  0  0  0  0  0
  195.8310  174.3170  140.4720 C   0  0  0  0  0  2  0  0  0  0  0  0
  194.6180  173.5990  138.4040 C   0  0  0  0  0  2  0  0  0  0  0  0
  193.6490  174.4180  139.2450 C   0  0  2  0  0  3  0  0  0  0  0  0
  194.6650  173.5150  139.9100 C   0  0  2  0  0  3  0  0  0  0  0  0
  192.3740  173.7270  139.3150 N   0  0  0  0  0  2  0  0  0  0  0  0
  191.6220  174.5510  141.3690 O   0  0  0  0  0  0  0  0  0  0  0  0
  191.5810  173.6420  140.4970 C   0  0  0  0  0  0  0  0  0  0  0  0
  190.7320  172.4620  140.6880 C   0  0  0  0  0  0  0  0  0  0  0  0
  190.5400  171.6380  139.7460 O   0  0  0  0  0  0  0  0  0  0  0  0
  190.1260  172.2830  141.9330 O   0  0  0  0  0  0  0  0  0  0  0  0
  189.4390  173.6170  143.8200 C   0  0  0  0  0  1  0  0  0  0  0  0
  189.0850  173.1260  142.4250 C   0  0  0  0  0  2  0  0  0  0  0  0
  192.6600  174.9950  146.8510 C   0  0  0  0  0  2  0  0  0  0  0  0
  191.2070  175.3570  146.5890 C   0  0  0  0  0  2  0  0  0  0  0  0
  190.7140  176.2250  147.5770 O   0  0  0  0  0  0  0  0  0  0  0  0
  189.8710  177.1020  146.8680 C   0  0  0  0  0  2  0  0  0  0  0  0
  188.4230  176.6050  146.8540 C   0  0  0  0  0  2  0  0  0  0  0  0
  186.9690  176.9890  140.0990 N   0  0  0  0  0  0  0  0  0  0  0  0
  187.2030  177.6770  144.9240 C   0  0  0  0  0  0  0  0  0  0  0  0
  183.8740  178.6780  143.7490 C   0  0  0  0  0  1  0  0  0  0  0  0
  185.3160  178.5320  143.6430 N   0  0  0  0  0  0  0  0  0  0  0  0
  185.9110  178.0460  142.4240 C   0  0  0  0  0  0  0  0  0  0  0  0
  187.1010  177.2730  142.4660 C   0  0  0  0  0  0  0  0  0  0  0  0
  187.7860  176.9170  143.7720 C   0  0  0  0  0  3  0  0  0  0  0  0
  187.5980  176.7410  141.2760 C   0  0  0  0  0  2  0  0  0  0  0  0
  187.5210  177.5610  146.2240 N   0  0  0  0  0  0  0  0  0  0  0  0
  185.2990  178.2970  141.1910 C   0  0  0  0  0  3  0  0  0  0  0  0
  185.8550  177.7660  140.0290 C   0  0  0  0  0  3  0  0  0  0  0  0
  186.6160  178.3180  146.8870 C   0  0  0  0  0  3  0  0  0  0  0  0
  186.1160  178.4920  144.8270 C   0  0  0  0  0  0  0  0  0  0  0  0
  185.7200  178.8920  146.0520 N   0  0  0  0  0  0  0  0  0  0  0  0
  1  3  1  0  0  0  0
  1  2  1  0  0  0  0
  2  4  1  1  0  0  0
  2 32  1  0  0  0  0
  3 15  1  6  0  0  0
  3  2  1  0  0  0  0
  5 14  1  0  0  0  0
  6 11  2  0  0  0  0
  6  5  1  0  0  0  0
  8  7  2  0  0  0  0
  9  6  1  0  0  0  0
 10  5  2  0  0  0  0
 11  8  1  0  0  0  0
 12  3  1  0  0  0  0
 12 11  1  0  0  0  0
 13  9  2  0  0  0  0
 13 12  1  0  0  0  0
 14  7  1  0  0  0  0
 16 19  1  6  0  0  0
 16 17  1  0  0  0  0
 16 18  1  0  0  0  0
 17 18  1  0  0  0  0
 18 15  1  1  0  0  0
 20 19  1  0  0  0  0
 21 22  1  0  0  0  0
 21 23  1  0  0  0  0
 22 24  1  6  0  0  0
 22 23  1  0  0  0  0
 23 20  1  1  0  0  0
 24 26  1  0  0  0  0
 26 27  1  0  0  0  0
 26 25  2  0  0  0  0
 27 29  1  0  0  0  0
 28 27  2  0  0  0  0
 29 31  1  0  0  0  0
 31 30  1  0  0  0  0
 33 32  1  0  0  0  0
 33 34  1  0  0  0  0
 35 34  1  0  0  0  0
 36 35  1  0  0  0  0
 37 44  1  0  0  0  0
 38 45  1  0  0  0  0
 40 39  1  0  0  0  0
 40 49  1  0  0  0  0
 41 42  1  0  0  0  0
 41 40  1  0  0  0  0
 42 43  2  0  0  0  0
 43 38  1  0  0  0  0
 44 42  1  0  0  0  0
 45 36  1  0  0  0  0
 45 48  1  0  0  0  0
 46 41  2  0  0  0  0
 47 37  2  0  0  0  0
 47 46  1  0  0  0  0
 49 38  2  0  0  0  0
 49 50  1  0  0  0  0
 50 48  2  0  0  0  0
M  END
>  <MODEL>
3

>  <REMARK>
 VINA RESULT:      -6.9      2.953      8.600
  Name = 
  16 active torsions:
  status: ('A' for Active; 'I' for Inactive)
    1  A    between atoms: N_10  and  C_40
    2  A    between atoms: C_11  and  C_19
    3  A    between atoms: C_15  and  C_25
    4  A    between atoms: C_15  and  C_28
    5  A    between atoms: C_16  and  C_20
    6  A    between atoms: C_16  and  N_38
    7  A    between atoms: O_18  and  C_24
    8  A    between atoms: O_18  and  C_44
    9  A    between atoms: C_19  and  C_34
   10  A    between atoms: C_20  and  O_31
   11  A    between atoms: C_23  and  C_47
   12  A    between atoms: C_24  and  C_29
   13  A    between atoms: C_28  and  O_31
   14  A    between atoms: C_34  and  C_49
   15  A    between atoms: C_35  and  N_36
   16  A    between atoms: C_35  and  C_47
                            x       y       z     vdW  Elec       q    Type
                         _______ _______ _______ _____ _____    ______ ____

>  <TORSDO>
F 16

$$$$
=
 OpenBabel11042419463D

 50 57  0  0  1  0  0  0  0  0999 V2000
  189.9800  172.9860  143.5750 C   0  0  0  0  0  2  0  0  0  0  0  0
  190.9330  171.9940  142.9170 C   0  0  1  0  0  0  0  0  0  0  0  0
  190.8790  173.4620  142.4410 C   0  0  1  0  0  0  0  0  0  0  0  0
  192.0100  171.5780  143.9080 C   0  0  0  0  0  1  0  0  0  0  0  0
  190.0580  173.6040  137.5350 C   0  0  0  0  0  0  0  0  0  0  0  0
  189.7850  173.6980  138.9650 C   0  0  0  0  0  0  0  0  0  0  0  0
  192.4530  173.1090  138.2630 C   0  0  0  0  0  3  0  0  0  0  0  0
  192.1000  173.1390  139.5210 N   0  0  0  0  0  0  0  0  0  0  0  0
  188.6550  174.0880  139.5800 N   0  0  0  0  0  0  0  0  0  0  0  0
  189.1240  173.6460  136.6910 O   0  0  0  0  0  0  0  0  0  0  0  0
  190.7540  173.4530  139.8890 C   0  0  0  0  0  0  0  0  0  0  0  0
  190.2590  173.6640  141.1230 N   0  0  0  0  0  0  0  0  0  0  0  0
  188.9760  174.0520  140.9030 C   0  0  0  0  0  3  0  0  0  0  0  0
  191.4920  173.3910  137.1070 C   0  0  0  0  0  2  0  0  0  0  0  0
  192.1040  174.3560  142.7530 C   0  0  0  0  0  2  0  0  0  0  0  0
  192.6530  175.5360  144.7910 C   0  0  2  0  0  3  0  0  0  0  0  0
  193.0800  176.3890  143.6750 N   0  0  0  0  0  2  0  0  0  0  0  0
  191.8320  175.6010  143.5960 C   0  0  1  0  0  3  0  0  0  0  0  0
  192.1020  176.4140  145.9110 C   0  0  0  0  0  2  0  0  0  0  0  0
  191.4070  175.5610  146.9790 C   0  0  0  0  0  2  0  0  0  0  0  0
  189.0590  174.7360  147.2400 C   0  0  0  0  0  2  0  0  0  0  0  0
  189.1520  175.4400  145.8930 C   0  0  2  0  0  3  0  0  0  0  0  0
  189.9380  175.9510  147.0800 C   0  0  2  0  0  3  0  0  0  0  0  0
  188.0140  176.3290  145.7370 N   0  0  0  0  0  2  0  0  0  0  0  0
  187.5250  175.9070  143.4910 O   0  0  0  0  0  0  0  0  0  0  0  0
  187.4570  176.6910  144.4760 C   0  0  0  0  0  0  0  0  0  0  0  0
  186.8230  178.0060  144.3410 C   0  0  0  0  0  0  0  0  0  0  0  0
  186.7340  178.5740  143.2130 O   0  0  0  0  0  0  0  0  0  0  0  0
  186.3380  178.6220  145.4960 O   0  0  0  0  0  0  0  0  0  0  0  0
  184.2590  178.1950  146.6390 C   0  0  0  0  0  1  0  0  0  0  0  0
  184.9910  179.0730  145.6360 C   0  0  0  0  0  2  0  0  0  0  0  0
  190.1250  170.9270  142.1850 C   0  0  0  0  0  2  0  0  0  0  0  0
  190.9560  169.7230  141.7740 C   0  0  0  0  0  2  0  0  0  0  0  0
  191.7420  170.0090  140.6450 O   0  0  0  0  0  0  0  0  0  0  0  0
  192.9840  169.4140  140.9370 C   0  0  0  0  0  2  0  0  0  0  0  0
  194.1520  170.3230  140.5470 C   0  0  0  0  0  2  0  0  0  0  0  0
  196.3000  176.7630  141.8900 N   0  0  0  0  0  0  0  0  0  0  0  0
  195.3690  171.9740  142.0130 C   0  0  0  0  0  0  0  0  0  0  0  0
  195.6110  173.2190  145.4570 C   0  0  0  0  0  1  0  0  0  0  0  0
  195.9680  173.1710  144.0490 N   0  0  0  0  0  0  0  0  0  0  0  0
  196.1300  174.3890  143.2970 C   0  0  0  0  0  0  0  0  0  0  0  0
  195.8010  174.4280  141.9170 C   0  0  0  0  0  0  0  0  0  0  0  0
  195.2620  173.2160  141.1810 C   0  0  0  0  0  3  0  0  0  0  0  0
  195.8820  175.6460  141.2410 C   0  0  0  0  0  2  0  0  0  0  0  0
  194.9310  170.7430  141.7050 N   0  0  0  0  0  0  0  0  0  0  0  0
  196.5750  175.5560  143.9300 C   0  0  0  0  0  3  0  0  0  0  0  0
  196.6650  176.7390  143.2000 C   0  0  0  0  0  3  0  0  0  0  0  0
  195.0980  170.0070  142.8280 C   0  0  0  0  0  3  0  0  0  0  0  0
  195.7860  171.9600  143.3110 C   0  0  0  0  0  0  0  0  0  0  0  0
  195.6080  170.7370  143.8470 N   0  0  0  0  0  0  0  0  0  0  0  0
  2  1  1  0  0  0  0
  2  4  1  1  0  0  0
  3 15  1  1  0  0  0
  3  2  1  0  0  0  0
  3  1  1  0  0  0  0
  5  6  1  0  0  0  0
  6  9  1  0  0  0  0
  6 11  2  0  0  0  0
  7  8  2  0  0  0  0
  8 11  1  0  0  0  0
  9 13  2  0  0  0  0
 10  5  2  0  0  0  0
 11 12  1  0  0  0  0
 12  3  1  0  0  0  0
 13 12  1  0  0  0  0
 14  5  1  0  0  0  0
 14  7  1  0  0  0  0
 16 19  1  1  0  0  0
 17 16  1  0  0  0  0
 18 15  1  6  0  0  0
 18 17  1  0  0  0  0
 18 16  1  0  0  0  0
 19 20  1  0  0  0  0
 22 24  1  1  0  0  0
 22 23  1  0  0  0  0
 22 21  1  0  0  0  0
 23 20  1  6  0  0  0
 23 21  1  0  0  0  0
 25 26  2  0  0  0  0
 26 24  1  0  0  0  0
 27 26  1  0  0  0  0
 27 29  1  0  0  0  0
 28 27  2  0  0  0  0
 29 31  1  0  0  0  0
 31 30  1  0  0  0  0
 32  2  1  0  0  0  0
 33 32  1  0  0  0  0
 34 35  1  0  0  0  0
 34 33  1  0  0  0  0
 36 35  1  0  0  0  0
 36 45  1  0  0  0  0
 37 47  2  0  0  0  0
 38 49  2  0  0  0  0
 40 39  1  0  0  0  0
 41 46  2  0  0  0  0
 41 40  1  0  0  0  0
 42 41  1  0  0  0  0
 43 42  2  0  0  0  0
 43 38  1  0  0  0  0
 44 37  1  0  0  0  0
 44 42  1  0  0  0  0
 45 38  1  0  0  0  0
 45 48  1  0  0  0  0
 47 46  1  0  0  0  0
 48 50  2  0  0  0  0
 49 50  1  0  0  0  0
 49 40  1  0  0  0  0
M  END
>  <MODEL>
4

>  <REMARK>
 VINA RESULT:      -6.8      1.823      2.848
  Name = 
  16 active torsions:
  status: ('A' for Active; 'I' for Inactive)
    1  A    between atoms: N_10  and  C_40
    2  A    between atoms: C_11  and  C_19
    3  A    between atoms: C_15  and  C_25
    4  A    between atoms: C_15  and  C_28
    5  A    between atoms: C_16  and  C_20
    6  A    between atoms: C_16  and  N_38
    7  A    between atoms: O_18  and  C_24
    8  A    between atoms: O_18  and  C_44
    9  A    between atoms: C_19  and  C_34
   10  A    between atoms: C_20  and  O_31
   11  A    between atoms: C_23  and  C_47
   12  A    between atoms: C_24  and  C_29
   13  A    between atoms: C_28  and  O_31
   14  A    between atoms: C_34  and  C_49
   15  A    between atoms: C_35  and  N_36
   16  A    between atoms: C_35  and  C_47
                            x       y       z     vdW  Elec       q    Type
                         _______ _______ _______ _____ _____    ______ ____

>  <TORSDO>
F 16

$$$$
=
 OpenBabel11042419463D

 50 57  0  0  1  0  0  0  0  0999 V2000
  191.2640  172.7550  144.1630 C   0  0  0  0  0  2  0  0  0  0  0  0
  192.5830  172.0970  143.7700 C   0  0  1  0  0  0  0  0  0  0  0  0
  192.2040  173.4870  143.2140 C   0  0  1  0  0  0  0  0  0  0  0  0
  193.4980  172.0110  144.9810 C   0  0  0  0  0  1  0  0  0  0  0  0
  189.6480  173.4870  138.9440 C   0  0  0  0  0  0  0  0  0  0  0  0
  190.7890  173.5810  139.8490 C   0  0  0  0  0  0  0  0  0  0  0  0
  188.3150  172.9590  141.0560 C   0  0  0  0  0  3  0  0  0  0  0  0
  189.3770  173.1360  141.7960 N   0  0  0  0  0  0  0  0  0  0  0  0
  192.0900  173.7310  139.5470 N   0  0  0  0  0  0  0  0  0  0  0  0
  189.7540  173.8060  137.7300 O   0  0  0  0  0  0  0  0  0  0  0  0
  190.6400  173.4350  141.1940 C   0  0  0  0  0  0  0  0  0  0  0  0
  191.8460  173.5070  141.7870 N   0  0  0  0  0  0  0  0  0  0  0  0
  192.7130  173.6860  140.7570 C   0  0  0  0  0  3  0  0  0  0  0  0
  188.3220  173.0570  139.5290 C   0  0  0  0  0  2  0  0  0  0  0  0
  193.0190  174.7020  143.7210 C   0  0  0  0  0  2  0  0  0  0  0  0
  192.8000  175.7750  145.8770 C   0  0  2  0  0  3  0  0  0  0  0  0
  193.1810  176.8180  144.9170 N   0  0  0  0  0  2  0  0  0  0  0  0
  192.2470  175.7390  144.5350 C   0  0  1  0  0  3  0  0  0  0  0  0
  191.8150  176.3580  146.8860 C   0  0  0  0  0  2  0  0  0  0  0  0
  190.4820  175.6000  146.8450 C   0  0  0  0  0  2  0  0  0  0  0  0
  188.0120  175.9980  146.8110 C   0  0  0  0  0  2  0  0  0  0  0  0
  188.4810  175.8930  145.3670 C   0  0  2  0  0  3  0  0  0  0  0  0
  189.3630  176.5370  146.4130 C   0  0  2  0  0  3  0  0  0  0  0  0
  187.8990  176.9750  144.5940 N   0  0  0  0  0  2  0  0  0  0  0  0
  186.9810  175.7240  142.8450 O   0  0  0  0  0  0  0  0  0  0  0  0
  187.4250  176.8300  143.2560 C   0  0  0  0  0  0  0  0  0  0  0  0
  187.4870  177.9900  142.3610 C   0  0  0  0  0  0  0  0  0  0  0  0
  188.5890  178.3790  141.8750 O   0  0  0  0  0  0  0  0  0  0  0  0
  186.2980  178.6630  142.0760 O   0  0  0  0  0  0  0  0  0  0  0  0
  185.5780  179.8810  144.0290 C   0  0  0  0  0  1  0  0  0  0  0  0
  185.2320  178.8010  143.0150 C   0  0  0  0  0  2  0  0  0  0  0  0
  192.2960  170.8450  142.9470 C   0  0  0  0  0  2  0  0  0  0  0  0
  193.0760  169.6280  143.4150 C   0  0  0  0  0  2  0  0  0  0  0  0
  194.0960  169.2990  142.5070 O   0  0  0  0  0  0  0  0  0  0  0  0
  195.1170  168.7710  143.3210 C   0  0  0  0  0  2  0  0  0  0  0  0
  196.4960  169.2920  142.9070 C   0  0  0  0  0  2  0  0  0  0  0  0
  196.1810  175.9610  141.0870 N   0  0  0  0  0  0  0  0  0  0  0  0
  196.8800  171.7320  143.4180 C   0  0  0  0  0  0  0  0  0  0  0  0
  196.2110  174.3510  145.9000 C   0  0  0  0  0  1  0  0  0  0  0  0
  196.7570  173.8230  144.6610 N   0  0  0  0  0  0  0  0  0  0  0  0
  196.6110  174.5580  143.4300 C   0  0  0  0  0  0  0  0  0  0  0  0
  196.4840  173.8680  142.1950 C   0  0  0  0  0  0  0  0  0  0  0  0
  196.4860  172.3530  142.1130 C   0  0  0  0  0  3  0  0  0  0  0  0
  196.2510  174.6070  141.0350 C   0  0  0  0  0  2  0  0  0  0  0  0
  196.9210  170.4230  143.7210 N   0  0  0  0  0  0  0  0  0  0  0  0
  196.5510  175.9560  143.4450 C   0  0  0  0  0  3  0  0  0  0  0  0
  196.3460  176.6450  142.2520 C   0  0  0  0  0  3  0  0  0  0  0  0
  197.1630  170.3670  145.0510 C   0  0  0  0  0  3  0  0  0  0  0  0
  197.0920  172.4360  144.5650 C   0  0  0  0  0  0  0  0  0  0  0  0
  197.2550  171.5980  145.6070 N   0  0  0  0  0  0  0  0  0  0  0  0
  2  1  1  0  0  0  0
  2  4  1  1  0  0  0
  3 15  1  1  0  0  0
  3  2  1  0  0  0  0
  3  1  1  0  0  0  0
  5 14  1  0  0  0  0
  5  6  1  0  0  0  0
  6 11  2  0  0  0  0
  7  8  2  0  0  0  0
  9  6  1  0  0  0  0
  9 13  2  0  0  0  0
 10  5  2  0  0  0  0
 11 12  1  0  0  0  0
 11  8  1  0  0  0  0
 12  3  1  0  0  0  0
 13 12  1  0  0  0  0
 14  7  1  0  0  0  0
 16 19  1  1  0  0  0
 17 16  1  0  0  0  0
 18 15  1  6  0  0  0
 18 17  1  0  0  0  0
 18 16  1  0  0  0  0
 20 19  1  0  0  0  0
 22 24  1  6  0  0  0
 22 23  1  0  0  0  0
 22 21  1  0  0  0  0
 23 21  1  0  0  0  0
 23 20  1  1  0  0  0
 25 26  2  0  0  0  0
 26 24  1  0  0  0  0
 27 26  1  0  0  0  0
 28 27  2  0  0  0  0
 29 27  1  0  0  0  0
 29 31  1  0  0  0  0
 31 30  1  0  0  0  0
 32 33  1  0  0  0  0
 32  2  1  0  0  0  0
 34 35  1  0  0  0  0
 34 33  1  0  0  0  0
 36 35  1  0  0  0  0
 36 45  1  0  0  0  0
 37 47  2  0  0  0  0
 38 45  1  0  0  0  0
 38 49  2  0  0  0  0
 40 39  1  0  0  0  0
 41 46  2  0  0  0  0
 41 40  1  0  0  0  0
 42 41  1  0  0  0  0
 43 42  2  0  0  0  0
 43 38  1  0  0  0  0
 44 37  1  0  0  0  0
 44 42  1  0  0  0  0
 45 48  1  0  0  0  0
 47 46  1  0  0  0  0
 48 50  2  0  0  0  0
 49 40  1  0  0  0  0
 49 50  1  0  0  0  0
M  END
>  <MODEL>
5

>  <REMARK>
 VINA RESULT:      -6.8      1.904      3.002
  Name = 
  16 active torsions:
  status: ('A' for Active; 'I' for Inactive)
    1  A    between atoms: N_10  and  C_40
    2  A    between atoms: C_11  and  C_19
    3  A    between atoms: C_15  and  C_25
    4  A    between atoms: C_15  and  C_28
    5  A    between atoms: C_16  and  C_20
    6  A    between atoms: C_16  and  N_38
    7  A    between atoms: O_18  and  C_24
    8  A    between atoms: O_18  and  C_44
    9  A    between atoms: C_19  and  C_34
   10  A    between atoms: C_20  and  O_31
   11  A    between atoms: C_23  and  C_47
   12  A    between atoms: C_24  and  C_29
   13  A    between atoms: C_28  and  O_31
   14  A    between atoms: C_34  and  C_49
   15  A    between atoms: C_35  and  N_36
   16  A    between atoms: C_35  and  C_47
                            x       y       z     vdW  Elec       q    Type
                         _______ _______ _______ _____ _____    ______ ____

>  <TORSDO>
F 16

$$$$
=
 OpenBabel11042419463D

 50 57  0  0  1  0  0  0  0  0999 V2000
  188.0710  172.2630  142.6090 C   0  0  0  0  0  2  0  0  0  0  0  0
  189.5710  172.2340  142.8890 C   0  0  1  0  0  0  0  0  0  0  0  0
  188.9490  173.3790  142.0600 C   0  0  1  0  0  0  0  0  0  0  0  0
  189.8230  172.4500  144.3720 C   0  0  0  0  0  1  0  0  0  0  0  0
  191.3730  173.4710  137.7140 C   0  0  0  0  0  0  0  0  0  0  0  0
  190.2710  173.3080  138.6560 C   0  0  0  0  0  0  0  0  0  0  0  0
  192.7170  174.1680  139.7690 C   0  0  0  0  0  3  0  0  0  0  0  0
  191.6950  173.9240  140.5460 N   0  0  0  0  0  0  0  0  0  0  0  0
  188.9790  173.0420  138.3980 N   0  0  0  0  0  0  0  0  0  0  0  0
  191.2600  173.1110  136.5130 O   0  0  0  0  0  0  0  0  0  0  0  0
  190.4450  173.5040  139.9920 C   0  0  0  0  0  0  0  0  0  0  0  0
  189.2670  173.3480  140.6230 N   0  0  0  0  0  0  0  0  0  0  0  0
  188.3890  173.0690  139.6250 C   0  0  0  0  0  3  0  0  0  0  0  0
  192.6750  174.0260  138.2470 C   0  0  0  0  0  2  0  0  0  0  0  0
  188.9050  174.7840  142.7090 C   0  0  0  0  0  2  0  0  0  0  0  0
  187.4970  176.6030  141.9610 C   0  0  2  0  0  3  0  0  0  0  0  0
  188.7000  177.2070  142.5480 N   0  0  0  0  0  2  0  0  0  0  0  0
  188.7850  175.9670  141.7480 C   0  0  1  0  0  3  0  0  0  0  0  0
  187.0610  177.4280  140.7530 C   0  0  0  0  0  2  0  0  0  0  0  0
  185.6850  178.0590  140.9940 C   0  0  0  0  0  2  0  0  0  0  0  0
  183.8510  178.3010  142.6800 C   0  0  0  0  0  2  0  0  0  0  0  0
  185.1690  178.5830  143.3890 C   0  0  2  0  0  3  0  0  0  0  0  0
  185.0950  177.5380  142.2980 C   0  0  2  0  0  3  0  0  0  0  0  0
  185.1970  177.8630  144.6490 N   0  0  0  0  0  2  0  0  0  0  0  0
  185.7900  179.6260  146.0660 O   0  0  0  0  0  0  0  0  0  0  0  0
  185.7660  178.3840  145.8490 C   0  0  0  0  0  0  0  0  0  0  0  0
  186.3450  177.4460  146.8160 C   0  0  0  0  0  0  0  0  0  0  0  0
  185.9050  177.3770  148.0010 O   0  0  0  0  0  0  0  0  0  0  0  0
  187.4080  176.6440  146.3960 O   0  0  0  0  0  0  0  0  0  0  0  0
  189.6930  175.9910  145.9950 C   0  0  0  0  0  1  0  0  0  0  0  0
  188.7190  177.1480  146.1470 C   0  0  0  0  0  2  0  0  0  0  0  0
  190.1930  171.0350  142.1810 C   0  0  0  0  0  2  0  0  0  0  0  0
  191.5730  170.6790  142.7070 C   0  0  0  0  0  2  0  0  0  0  0  0
  192.2120  169.7510  141.8690 O   0  0  0  0  0  0  0  0  0  0  0  0
  193.2480  170.4930  141.2690 C   0  0  0  0  0  2  0  0  0  0  0  0
  194.3190  170.8940  142.2870 C   0  0  0  0  0  2  0  0  0  0  0  0
  193.2310  175.9430  146.8920 N   0  0  0  0  0  0  0  0  0  0  0  0
  194.5350  173.3030  143.0020 C   0  0  0  0  0  0  0  0  0  0  0  0
  196.9550  176.0260  143.4450 C   0  0  0  0  0  1  0  0  0  0  0  0
  195.6330  175.4240  143.4810 N   0  0  0  0  0  0  0  0  0  0  0  0
  194.7730  175.6230  144.6200 C   0  0  1  0  0  3  0  0  0  0  0  0
  193.8670  174.6050  145.0200 C   0  0  0  0  0  0  0  0  0  0  0  0
  193.7690  173.2800  144.2890 C   0  0  0  0  0  3  0  0  0  0  0  0
  193.1170  174.7930  146.1810 C   0  0  0  0  0  3  0  0  0  0  0  0
  194.7190  172.2880  142.1410 N   0  0  0  0  0  0  0  0  0  0  0  0
  194.8530  176.8040  145.3670 C   0  0  0  0  0  3  0  0  0  0  0  0
  194.0580  176.9510  146.5020 C   0  0  0  0  0  3  0  0  0  0  0  0
  195.6120  172.7410  141.2310 C   0  0  0  0  0  3  0  0  0  0  0  0
  195.3200  174.3420  142.6000 C   0  0  0  0  0  0  0  0  0  0  0  0
  196.0180  174.0040  141.4990 N   0  0  0  0  0  0  0  0  0  0  0  0
  1  2  1  0  0  0  0
  2  4  1  1  0  0  0
  3  1  1  0  0  0  0
  3 15  1  1  0  0  0
  3  2  1  0  0  0  0
  5 14  1  0  0  0  0
  5  6  1  0  0  0  0
  6 11  2  0  0  0  0
  7  8  2  0  0  0  0
  9  6  1  0  0  0  0
  9 13  2  0  0  0  0
 10  5  2  0  0  0  0
 11  8  1  0  0  0  0
 11 12  1  0  0  0  0
 12  3  1  0  0  0  0
 13 12  1  0  0  0  0
 14  7  1  0  0  0  0
 16 19  1  6  0  0  0
 16 17  1  0  0  0  0
 18 16  1  0  0  0  0
 18 17  1  0  0  0  0
 18 15  1  1  0  0  0
 19 20  1  0  0  0  0
 21 22  1  0  0  0  0
 22 24  1  1  0  0  0
 23 20  1  6  0  0  0
 23 21  1  0  0  0  0
 23 22  1  0  0  0  0
 24 26  1  0  0  0  0
 26 25  2  0  0  0  0
 26 27  1  0  0  0  0
 27 28  2  0  0  0  0
 29 27  1  0  0  0  0
 30 31  1  0  0  0  0
 31 29  1  0  0  0  0
 32 33  1  0  0  0  0
 32  2  1  0  0  0  0
 34 33  1  0  0  0  0
 35 34  1  0  0  0  0
 35 36  1  0  0  0  0
 38 43  1  0  0  0  0
 39 40  1  0  0  0  0
 40 41  1  0  0  0  0
 41 42  1  0  0  0  0
 41 46  1  1  0  0  0
 42 44  1  0  0  0  0
 43 42  2  0  0  0  0
 44 37  2  0  0  0  0
 45 36  1  0  0  0  0
 45 38  1  0  0  0  0
 46 47  2  0  0  0  0
 47 37  1  0  0  0  0
 48 50  2  0  0  0  0
 48 45  1  0  0  0  0
 49 38  2  0  0  0  0
 49 40  1  0  0  0  0
 50 49  1  0  0  0  0
M  END
>  <MODEL>
6

>  <REMARK>
 VINA RESULT:      -6.8      1.828      2.937
  Name = 
  16 active torsions:
  status: ('A' for Active; 'I' for Inactive)
    1  A    between atoms: N_10  and  C_40
    2  A    between atoms: C_11  and  C_19
    3  A    between atoms: C_15  and  C_25
    4  A    between atoms: C_15  and  C_28
    5  A    between atoms: C_16  and  C_20
    6  A    between atoms: C_16  and  N_38
    7  A    between atoms: O_18  and  C_24
    8  A    between atoms: O_18  and  C_44
    9  A    between atoms: C_19  and  C_34
   10  A    between atoms: C_20  and  O_31
   11  A    between atoms: C_23  and  C_47
   12  A    between atoms: C_24  and  C_29
   13  A    between atoms: C_28  and  O_31
   14  A    between atoms: C_34  and  C_49
   15  A    between atoms: C_35  and  N_36
   16  A    between atoms: C_35  and  C_47
                            x       y       z     vdW  Elec       q    Type
                         _______ _______ _______ _____ _____    ______ ____

>  <TORSDO>
F 16

$$$$
=
 OpenBabel11042419463D

 50 57  0  0  1  0  0  0  0  0999 V2000
  193.3540  174.1100  143.3730 C   0  0  0  0  0  2  0  0  0  0  0  0
  194.3210  173.1210  144.0170 C   0  0  1  0  0  0  0  0  0  0  0  0
  194.7530  174.5790  143.7490 C   0  0  1  0  0  0  0  0  0  0  0  0
  193.8240  172.7420  145.4030 C   0  0  0  0  0  1  0  0  0  0  0  0
  196.8290  175.2890  139.2810 C   0  0  0  0  0  0  0  0  0  0  0  0
  196.7320  175.1220  140.7280 C   0  0  0  0  0  0  0  0  0  0  0  0
  194.3080  174.8910  139.3030 C   0  0  0  0  0  3  0  0  0  0  0  0
  194.3070  174.8290  140.6080 N   0  0  0  0  0  0  0  0  0  0  0  0
  197.7240  175.0500  141.6320 N   0  0  0  0  0  0  0  0  0  0  0  0
  197.9060  175.6520  138.7400 O   0  0  0  0  0  0  0  0  0  0  0  0
  195.5320  174.9290  141.3400 C   0  0  0  0  0  0  0  0  0  0  0  0
  195.7280  174.7460  142.6590 N   0  0  0  0  0  0  0  0  0  0  0  0
  197.0760  174.8240  142.8090 C   0  0  0  0  0  3  0  0  0  0  0  0
  195.5740  175.0740  138.4650 C   0  0  0  0  0  2  0  0  0  0  0  0
  194.9540  175.4990  144.9770 C   0  0  0  0  0  2  0  0  0  0  0  0
  193.4100  176.0120  146.7680 C   0  0  2  0  0  3  0  0  0  0  0  0
  194.1650  177.2400  146.4890 N   0  0  0  0  0  2  0  0  0  0  0  0
  193.7480  176.3400  145.3940 C   0  0  1  0  0  3  0  0  0  0  0  0
  191.9680  176.3770  147.1040 C   0  0  0  0  0  2  0  0  0  0  0  0
  191.3210  175.2910  147.9740 C   0  0  0  0  0  2  0  0  0  0  0  0
  190.0160  174.3390  146.0620 C   0  0  0  0  0  2  0  0  0  0  0  0
  189.5960  175.7930  146.2280 C   0  0  2  0  0  3  0  0  0  0  0  0
  189.9370  174.9520  147.4380 C   0  0  2  0  0  3  0  0  0  0  0  0
  188.1470  175.8810  146.1800 N   0  0  0  0  0  2  0  0  0  0  0  0
  187.9410  177.9230  145.0600 O   0  0  0  0  0  0  0  0  0  0  0  0
  187.4350  177.0680  145.8370 C   0  0  0  0  0  0  0  0  0  0  0  0
  186.1100  177.2850  146.4250 C   0  0  0  0  0  0  0  0  0  0  0  0
  185.9400  177.2490  147.6790 O   0  0  0  0  0  0  0  0  0  0  0  0
  185.0380  177.5140  145.5610 O   0  0  0  0  0  0  0  0  0  0  0  0
  184.2030  179.3880  144.2950 C   0  0  0  0  0  1  0  0  0  0  0  0
  184.2050  178.6710  145.6350 C   0  0  0  0  0  2  0  0  0  0  0  0
  194.6680  172.0280  143.0110 C   0  0  0  0  0  2  0  0  0  0  0  0
  193.8400  170.7660  143.1880 C   0  0  0  0  0  2  0  0  0  0  0  0
  193.8990  169.9560  142.0420 O   0  0  0  0  0  0  0  0  0  0  0  0
  192.5980  170.0310  141.5070 C   0  0  0  0  0  2  0  0  0  0  0  0
  192.5850  170.7400  140.1500 C   0  0  0  0  0  2  0  0  0  0  0  0
  188.9850  176.1500  142.5270 N   0  0  0  0  0  0  0  0  0  0  0  0
  190.4990  172.1560  140.1690 C   0  0  0  0  0  0  0  0  0  0  0  0
  188.1870  174.0030  137.9990 C   0  0  0  0  0  1  0  0  0  0  0  0
  188.6810  173.5070  139.2720 N   0  0  0  0  0  0  0  0  0  0  0  0
  188.7540  174.3820  140.4150 C   0  0  1  0  0  3  0  0  0  0  0  0
  189.7790  174.2110  141.3830 C   0  0  0  0  0  0  0  0  0  0  0  0
  190.8330  173.1270  141.2600 C   0  0  0  0  0  3  0  0  0  0  0  0
  189.8760  175.1320  142.4270 C   0  0  0  0  0  3  0  0  0  0  0  0
  191.2380  171.1190  139.7420 N   0  0  0  0  0  0  0  0  0  0  0  0
  187.8420  175.4330  140.5590 C   0  0  0  0  0  3  0  0  0  0  0  0
  187.9680  176.3060  141.6370 C   0  0  0  0  0  3  0  0  0  0  0  0
  190.6080  170.6540  138.6390 C   0  0  0  0  0  3  0  0  0  0  0  0
  189.4450  172.3000  139.3160 C   0  0  0  0  0  0  0  0  0  0  0  0
  189.5050  171.3760  138.3380 N   0  0  0  0  0  0  0  0  0  0  0  0
  1  3  1  0  0  0  0
  1  2  1  0  0  0  0
  2  4  1  1  0  0  0
  3  2  1  0  0  0  0
  3 15  1  1  0  0  0
  5  6  1  0  0  0  0
  6 11  2  0  0  0  0
  6  9  1  0  0  0  0
  7  8  2  0  0  0  0
  8 11  1  0  0  0  0
  9 13  2  0  0  0  0
 10  5  2  0  0  0  0
 11 12  1  0  0  0  0
 12 13  1  0  0  0  0
 12  3  1  0  0  0  0
 14  5  1  0  0  0  0
 14  7  1  0  0  0  0
 16 19  1  6  0  0  0
 17 16  1  0  0  0  0
 18 15  1  1  0  0  0
 18 17  1  0  0  0  0
 18 16  1  0  0  0  0
 19 20  1  0  0  0  0
 21 22  1  0  0  0  0
 21 23  1  0  0  0  0
 22 24  1  1  0  0  0
 22 23  1  0  0  0  0
 23 20  1  6  0  0  0
 25 26  2  0  0  0  0
 26 24  1  0  0  0  0
 26 27  1  0  0  0  0
 27 28  2  0  0  0  0
 29 31  1  0  0  0  0
 29 27  1  0  0  0  0
 30 31  1  0  0  0  0
 32 33  1  0  0  0  0
 32  2  1  0  0  0  0
 34 33  1  0  0  0  0
 35 34  1  0  0  0  0
 36 35  1  0  0  0  0
 38 43  1  0  0  0  0
 39 40  1  0  0  0  0
 40 49  1  0  0  0  0
 40 41  1  0  0  0  0
 41 46  1  6  0  0  0
 41 42  1  0  0  0  0
 42 44  1  0  0  0  0
 43 42  2  0  0  0  0
 44 37  2  0  0  0  0
 45 36  1  0  0  0  0
 45 38  1  0  0  0  0
 46 47  2  0  0  0  0
 47 37  1  0  0  0  0
 48 45  1  0  0  0  0
 49 38  2  0  0  0  0
 50 48  2  0  0  0  0
 50 49  1  0  0  0  0
M  END
>  <MODEL>
7

>  <REMARK>
 VINA RESULT:      -6.7      2.466      5.426
  Name = 
  16 active torsions:
  status: ('A' for Active; 'I' for Inactive)
    1  A    between atoms: N_10  and  C_40
    2  A    between atoms: C_11  and  C_19
    3  A    between atoms: C_15  and  C_25
    4  A    between atoms: C_15  and  C_28
    5  A    between atoms: C_16  and  C_20
    6  A    between atoms: C_16  and  N_38
    7  A    between atoms: O_18  and  C_24
    8  A    between atoms: O_18  and  C_44
    9  A    between atoms: C_19  and  C_34
   10  A    between atoms: C_20  and  O_31
   11  A    between atoms: C_23  and  C_47
   12  A    between atoms: C_24  and  C_29
   13  A    between atoms: C_28  and  O_31
   14  A    between atoms: C_34  and  C_49
   15  A    between atoms: C_35  and  N_36
   16  A    between atoms: C_35  and  C_47
                            x       y       z     vdW  Elec       q    Type
                         _______ _______ _______ _____ _____    ______ ____

>  <TORSDO>
F 16

$$$$
=
 OpenBabel11042419463D

 50 57  0  0  1  0  0  0  0  0999 V2000
  193.3210  175.8620  144.5050 C   0  0  0  0  0  2  0  0  0  0  0  0
  193.7960  175.6780  145.9420 C   0  0  1  0  0  0  0  0  0  0  0  0
  194.4810  174.9170  144.7870 C   0  0  1  0  0  0  0  0  0  0  0  0
  194.4210  176.9680  146.4490 C   0  0  0  0  0  1  0  0  0  0  0  0
  194.7640  169.9910  145.4400 C   0  0  0  0  0  0  0  0  0  0  0  0
  194.2150  171.2830  145.0440 C   0  0  0  0  0  0  0  0  0  0  0  0
  196.8170  171.3400  146.1340 C   0  0  0  0  0  3  0  0  0  0  0  0
  196.2150  172.4570  145.8200 N   0  0  0  0  0  0  0  0  0  0  0  0
  193.0720  171.5440  144.3870 N   0  0  0  0  0  0  0  0  0  0  0  0
  194.0560  168.9500  145.4210 O   0  0  0  0  0  0  0  0  0  0  0  0
  194.9020  172.4390  145.2510 C   0  0  0  0  0  0  0  0  0  0  0  0
  194.2030  173.4720  144.7460 N   0  0  0  0  0  0  0  0  0  0  0  0
  193.0900  172.8950  144.2230 C   0  0  0  0  0  3  0  0  0  0  0  0
  196.1930  169.9580  145.9350 C   0  0  0  0  0  2  0  0  0  0  0  0
  195.9240  175.3350  144.4160 C   0  0  0  0  0  2  0  0  0  0  0  0
  196.3510  176.2820  142.2310 C   0  0  2  0  0  3  0  0  0  0  0  0
  197.6290  175.7600  142.7280 N   0  0  0  0  0  2  0  0  0  0  0  0
  196.3640  175.0400  142.9830 C   0  0  1  0  0  3  0  0  0  0  0  0
  196.2600  176.0390  140.7270 C   0  0  0  0  0  2  0  0  0  0  0  0
  196.5190  174.5640  140.3980 C   0  0  0  0  0  2  0  0  0  0  0  0
  195.1510  174.8360  138.3210 C   0  0  0  0  0  2  0  0  0  0  0  0
  194.2130  174.9770  139.5120 C   0  0  2  0  0  3  0  0  0  0  0  0
  195.3740  174.0090  139.5630 C   0  0  2  0  0  3  0  0  0  0  0  0
  193.0210  174.1820  139.2800 N   0  0  0  0  0  2  0  0  0  0  0  0
  191.9540  174.5120  141.3340 O   0  0  0  0  0  0  0  0  0  0  0  0
  192.1120  173.7950  140.3080 C   0  0  0  0  0  0  0  0  0  0  0  0
  191.3800  172.5330  140.1590 C   0  0  0  0  0  0  0  0  0  0  0  0
  191.8920  171.4360  140.5280 O   0  0  0  0  0  0  0  0  0  0  0  0
  190.1100  172.5760  139.5810 O   0  0  0  0  0  0  0  0  0  0  0  0
  188.5020  172.7960  141.3640 C   0  0  0  0  0  1  0  0  0  0  0  0
  189.0500  173.3930  140.0770 C   0  0  0  0  0  2  0  0  0  0  0  0
  192.6970  174.9990  146.7540 C   0  0  0  0  0  2  0  0  0  0  0  0
  191.3000  175.4600  146.3730 C   0  0  0  0  0  2  0  0  0  0  0  0
  190.7290  176.2430  147.3890 O   0  0  0  0  0  0  0  0  0  0  0  0
  189.6450  176.8820  146.7560 C   0  0  0  0  0  2  0  0  0  0  0  0
  190.0660  177.5370  145.4390 C   0  0  0  0  0  2  0  0  0  0  0  0
  183.4730  179.0470  143.9750 N   0  0  0  0  0  0  0  0  0  0  0  0
  188.0260  177.2930  143.9760 C   0  0  0  0  0  0  0  0  0  0  0  0
  186.8570  177.5410  140.5060 C   0  0  0  0  0  1  0  0  0  0  0  0
  186.7030  177.2980  141.9310 N   0  0  0  0  0  0  0  0  0  0  0  0
  185.5810  177.8500  142.6460 C   0  0  1  0  0  3  0  0  0  0  0  0
  185.7170  178.2320  144.0070 C   0  0  0  0  0  0  0  0  0  0  0  0
  187.0280  178.0910  144.7580 C   0  0  0  0  0  3  0  0  0  0  0  0
  184.6390  178.8490  144.6420 C   0  0  0  0  0  3  0  0  0  0  0  0
  189.3020  177.0310  144.3060 N   0  0  0  0  0  0  0  0  0  0  0  0
  184.3590  178.0530  141.9950 C   0  0  0  0  0  3  0  0  0  0  0  0
  183.3050  178.6470  142.6860 C   0  0  0  0  0  3  0  0  0  0  0  0
  189.8420  176.4320  143.2190 C   0  0  0  0  0  3  0  0  0  0  0  0
  187.8230  176.8550  142.7010 C   0  0  0  0  0  0  0  0  0  0  0  0
  188.9560  176.3260  142.2010 N   0  0  0  0  0  0  0  0  0  0  0  0
  1  3  1  0  0  0  0
  1  2  1  0  0  0  0
  2  4  1  1  0  0  0
  2 32  1  0  0  0  0
  3 15  1  6  0  0  0
  3  2  1  0  0  0  0
  5 14  1  0  0  0  0
  6 11  2  0  0  0  0
  6  5  1  0  0  0  0
  8  7  2  0  0  0  0
  9  6  1  0  0  0  0
 10  5  2  0  0  0  0
 11  8  1  0  0  0  0
 12  3  1  0  0  0  0
 12 11  1  0  0  0  0
 13  9  2  0  0  0  0
 13 12  1  0  0  0  0
 14  7  1  0  0  0  0
 16 19  1  6  0  0  0
 16 17  1  0  0  0  0
 16 18  1  0  0  0  0
 17 18  1  0  0  0  0
 18 15  1  1  0  0  0
 20 19  1  0  0  0  0
 21 22  1  0  0  0  0
 21 23  1  0  0  0  0
 22 24  1  6  0  0  0
 22 23  1  0  0  0  0
 23 20  1  1  0  0  0
 24 26  1  0  0  0  0
 26 25  2  0  0  0  0
 27 26  1  0  0  0  0
 27 28  2  0  0  0  0
 29 31  1  0  0  0  0
 29 27  1  0  0  0  0
 31 30  1  0  0  0  0
 33 32  1  0  0  0  0
 33 34  1  0  0  0  0
 35 34  1  0  0  0  0
 36 35  1  0  0  0  0
 37 44  2  0  0  0  0
 38 45  1  0  0  0  0
 38 43  1  0  0  0  0
 39 40  1  0  0  0  0
 40 41  1  0  0  0  0
 40 49  1  0  0  0  0
 41 46  1  6  0  0  0
 41 42  1  0  0  0  0
 42 44  1  0  0  0  0
 42 43  2  0  0  0  0
 45 36  1  0  0  0  0
 46 47  2  0  0  0  0
 47 37  1  0  0  0  0
 48 45  1  0  0  0  0
 49 38  2  0  0  0  0
 50 49  1  0  0  0  0
 50 48  2  0  0  0  0
M  END
>  <MODEL>
8

>  <REMARK>
 VINA RESULT:      -6.7      2.879      8.508
  Name = 
  16 active torsions:
  status: ('A' for Active; 'I' for Inactive)
    1  A    between atoms: N_10  and  C_40
    2  A    between atoms: C_11  and  C_19
    3  A    between atoms: C_15  and  C_25
    4  A    between atoms: C_15  and  C_28
    5  A    between atoms: C_16  and  C_20
    6  A    between atoms: C_16  and  N_38
    7  A    between atoms: O_18  and  C_24
    8  A    between atoms: O_18  and  C_44
    9  A    between atoms: C_19  and  C_34
   10  A    between atoms: C_20  and  O_31
   11  A    between atoms: C_23  and  C_47
   12  A    between atoms: C_24  and  C_29
   13  A    between atoms: C_28  and  O_31
   14  A    between atoms: C_34  and  C_49
   15  A    between atoms: C_35  and  N_36
   16  A    between atoms: C_35  and  C_47
                            x       y       z     vdW  Elec       q    Type
                         _______ _______ _______ _____ _____    ______ ____

>  <TORSDO>
F 16

$$$$
=
 OpenBabel11042419463D

 50 57  0  0  1  0  0  0  0  0999 V2000
  193.7320  173.2810  145.6130 C   0  0  0  0  0  2  0  0  0  0  0  0
  194.6830  174.2150  144.8720 C   0  0  1  0  0  0  0  0  0  0  0  0
  193.2720  174.6930  145.2750 C   0  0  1  0  0  0  0  0  0  0  0  0
  195.8640  174.5640  145.7640 C   0  0  0  0  0  1  0  0  0  0  0  0
  189.4290  174.1020  142.1680 C   0  0  0  0  0  0  0  0  0  0  0  0
  190.6170  174.7010  142.7670 C   0  0  0  0  0  0  0  0  0  0  0  0
  189.7730  172.2580  143.8990 C   0  0  0  0  0  3  0  0  0  0  0  0
  190.7830  172.9040  144.4180 N   0  0  0  0  0  0  0  0  0  0  0  0
  191.3120  175.7750  142.3580 N   0  0  0  0  0  0  0  0  0  0  0  0
  188.7570  174.7190  141.3000 O   0  0  0  0  0  0  0  0  0  0  0  0
  191.2300  174.1350  143.8430 C   0  0  0  0  0  0  0  0  0  0  0  0
  192.3270  174.8490  144.1580 N   0  0  0  0  0  0  0  0  0  0  0  0
  192.3530  175.8440  143.2330 C   0  0  0  0  0  3  0  0  0  0  0  0
  188.9980  172.7430  142.6740 C   0  0  0  0  0  2  0  0  0  0  0  0
  193.1740  175.7600  146.3930 C   0  0  0  0  0  2  0  0  0  0  0  0
  190.9230  175.4280  147.2120 C   0  0  2  0  0  3  0  0  0  0  0  0
  191.5300  176.4740  148.0440 N   0  0  0  0  0  2  0  0  0  0  0  0
  191.8020  176.4020  146.5930 C   0  0  1  0  0  3  0  0  0  0  0  0
  189.4510  175.7600  146.9850 C   0  0  0  0  0  2  0  0  0  0  0  0
  189.2360  177.2770  146.9410 C   0  0  0  0  0  2  0  0  0  0  0  0
  186.9100  176.4110  147.2560 C   0  0  0  0  0  2  0  0  0  0  0  0
  187.0860  176.7280  145.7780 C   0  0  2  0  0  3  0  0  0  0  0  0
  187.7500  177.5890  146.8300 C   0  0  2  0  0  3  0  0  0  0  0  0
  185.9310  177.4690  145.3050 N   0  0  0  0  0  2  0  0  0  0  0  0
  185.8180  176.6240  143.1290 O   0  0  0  0  0  0  0  0  0  0  0  0
  185.5500  177.5560  143.9340 C   0  0  0  0  0  0  0  0  0  0  0  0
  184.8600  178.7660  143.4730 C   0  0  0  0  0  0  0  0  0  0  0  0
  185.2050  179.9110  143.8900 O   0  0  0  0  0  0  0  0  0  0  0  0
  183.8010  178.6160  142.5770 O   0  0  0  0  0  0  0  0  0  0  0  0
  182.6190  178.0940  140.5420 C   0  0  0  0  0  1  0  0  0  0  0  0
  183.9740  178.1950  141.2240 C   0  0  0  0  0  2  0  0  0  0  0  0
  194.9300  173.6730  143.4670 C   0  0  0  0  0  2  0  0  0  0  0  0
  196.0890  174.3530  142.7580 C   0  0  0  0  0  2  0  0  0  0  0  0
  195.7140  175.6150  142.2670 O   0  0  0  0  0  0  0  0  0  0  0  0
  196.6990  175.9110  141.3040 C   0  0  0  0  0  2  0  0  0  0  0  0
  197.0690  174.6760  140.4780 C   0  0  0  0  0  2  0  0  0  0  0  0
  190.5230  173.4040  138.6310 N   0  0  0  0  0  0  0  0  0  0  0  0
  195.2750  174.5070  138.7140 C   0  0  0  0  0  0  0  0  0  0  0  0
  193.6860  176.3380  135.9600 C   0  0  0  0  0  1  0  0  0  0  0  0
  193.8770  175.2020  136.8440 N   0  0  0  0  0  0  0  0  0  0  0  0
  192.7410  174.5400  137.4350 C   0  0  1  0  0  3  0  0  0  0  0  0
  192.8440  173.9570  138.7260 C   0  0  0  0  0  0  0  0  0  0  0  0
  194.1250  174.0090  139.5350 C   0  0  0  0  0  3  0  0  0  0  0  0
  191.7000  173.4070  139.3070 C   0  0  0  0  0  3  0  0  0  0  0  0
  196.5330  174.7410  139.1250 N   0  0  0  0  0  0  0  0  0  0  0  0
  191.5150  174.5030  136.7610 C   0  0  0  0  0  3  0  0  0  0  0  0
  190.4130  173.9150  137.3760 C   0  0  0  0  0  3  0  0  0  0  0  0
  197.1500  175.3380  138.0790 C   0  0  0  0  0  3  0  0  0  0  0  0
  195.1560  174.9690  137.4370 C   0  0  0  0  0  0  0  0  0  0  0  0
  196.3190  175.5110  137.0260 N   0  0  0  0  0  0  0  0  0  0  0  0
  2  3  1  0  0  0  0
  2  1  1  0  0  0  0
  2  4  1  1  0  0  0
  3  1  1  0  0  0  0
  3 15  1  1  0  0  0
  5 14  1  0  0  0  0
  5  6  1  0  0  0  0
  6 11  2  0  0  0  0
  7  8  2  0  0  0  0
  9  6  1  0  0  0  0
  9 13  2  0  0  0  0
 10  5  2  0  0  0  0
 11 12  1  0  0  0  0
 11  8  1  0  0  0  0
 12  3  1  0  0  0  0
 13 12  1  0  0  0  0
 14  7  1  0  0  0  0
 16 19  1  6  0  0  0
 16 17  1  0  0  0  0
 18 15  1  1  0  0  0
 18 16  1  0  0  0  0
 18 17  1  0  0  0  0
 20 19  1  0  0  0  0
 22 24  1  1  0  0  0
 22 23  1  0  0  0  0
 22 21  1  0  0  0  0
 23 20  1  6  0  0  0
 23 21  1  0  0  0  0
 25 26  2  0  0  0  0
 26 24  1  0  0  0  0
 27 28  2  0  0  0  0
 27 26  1  0  0  0  0
 29 27  1  0  0  0  0
 30 31  1  0  0  0  0
 31 29  1  0  0  0  0
 32  2  1  0  0  0  0
 33 32  1  0  0  0  0
 34 33  1  0  0  0  0
 35 34  1  0  0  0  0
 36 35  1  0  0  0  0
 37 44  2  0  0  0  0
 38 45  1  0  0  0  0
 38 43  1  0  0  0  0
 39 40  1  0  0  0  0
 40 41  1  0  0  0  0
 40 49  1  0  0  0  0
 41 46  1  1  0  0  0
 41 42  1  0  0  0  0
 42 44  1  0  0  0  0
 42 43  2  0  0  0  0
 45 36  1  0  0  0  0
 46 47  2  0  0  0  0
 47 37  1  0  0  0  0
 48 45  1  0  0  0  0
 49 38  2  0  0  0  0
 50 49  1  0  0  0  0
 50 48  2  0  0  0  0
M  END
>  <MODEL>
9

>  <REMARK>
 VINA RESULT:      -6.7      2.531      5.482
  Name = 
  16 active torsions:
  status: ('A' for Active; 'I' for Inactive)
    1  A    between atoms: N_10  and  C_40
    2  A    between atoms: C_11  and  C_19
    3  A    between atoms: C_15  and  C_25
    4  A    between atoms: C_15  and  C_28
    5  A    between atoms: C_16  and  C_20
    6  A    between atoms: C_16  and  N_38
    7  A    between atoms: O_18  and  C_24
    8  A    between atoms: O_18  and  C_44
    9  A    between atoms: C_19  and  C_34
   10  A    between atoms: C_20  and  O_31
   11  A    between atoms: C_23  and  C_47
   12  A    between atoms: C_24  and  C_29
   13  A    between atoms: C_28  and  O_31
   14  A    between atoms: C_34  and  C_49
   15  A    between atoms: C_35  and  N_36
   16  A    between atoms: C_35  and  C_47
                            x       y       z     vdW  Elec       q    Type
                         _______ _______ _______ _____ _____    ______ ____

>  <TORSDO>
F 16

$$$$
