=
 OpenBabel11042418533D

 27 30  0  0  1  0  0  0  0  0999 V2000
  189.4370  174.5060  141.7820 C   0  0  0  0  0  3  0  0  0  0  0  0
  187.7670  175.6480  140.8440 N   0  0  0  0  0  0  0  0  0  0  0  0
  186.9970  177.6530  146.6940 C   0  0  2  0  0  3  0  0  0  0  0  0
  185.3160  178.1560  144.8330 C   0  0  0  0  0  3  0  0  0  0  0  0
  187.8100  175.8690  142.2400 C   0  0  0  0  0  0  0  0  0  0  0  0
  188.5630  175.8290  146.3930 C   0  0  0  0  0  0  0  0  0  0  0  0
  188.7250  174.8470  140.5790 N   0  0  0  0  0  0  0  0  0  0  0  0
  184.7000  178.4210  147.1910 C   0  0  0  0  0  3  0  0  0  0  0  0
  188.8400  175.1590  142.7610 C   0  0  1  0  0  3  0  0  0  0  0  0
  186.5320  177.4340  145.2670 C   0  0  1  0  0  3  0  0  0  0  0  0
  184.4630  178.6300  145.7460 C   0  0  0  0  0  3  0  0  0  0  0  0
  188.3580  175.9120  144.9290 C   0  0  0  0  0  0  0  0  0  0  0  0
  189.1230  175.1520  144.0860 N   0  0  0  0  0  0  0  0  0  0  0  0
  187.2760  176.6950  144.4200 C   0  0  0  0  0  0  0  0  0  0  0  0
  187.8640  176.5810  147.1880 N   0  0  0  0  0  0  0  0  0  0  0  0
  186.9890  176.6530  143.0370 C   0  0  0  0  0  3  0  0  0  0  0  0
  185.8580  177.9200  147.6370 C   0  0  0  0  0  3  0  0  0  0  0  0
  189.4610  174.7870  146.9790 C   0  0  0  0  0  2  0  0  0  0  0  0
  190.7170  175.4150  147.5700 C   0  0  0  0  0  2  0  0  0  0  0  0
  191.8870  175.3550  146.5950 C   0  0  0  0  0  2  0  0  0  0  0  0
  192.9150  176.4410  146.8890 C   0  0  0  0  0  2  0  0  0  0  0  0
  194.2620  176.0670  146.3580 C   0  0  0  0  0  3  0  0  0  0  0  0
  194.4460  175.9240  145.0960 N   0  0  0  0  0  0  0  0  0  0  0  0
  195.7400  175.5640  144.5770 C   0  0  0  0  0  2  0  0  0  0  0  0
  197.1130  177.0430  143.3080 O   0  0  0  0  0  1  0  0  0  0  0  0
  196.0560  176.3620  143.3580 C   0  0  0  0  0  0  0  0  0  0  0  0
  195.2010  176.3280  142.2640 O   0  0  0  0  0  0  0  0  0  0  0  0
  2  5  2  0  0  0  0
  3 15  1  0  0  0  0
  3 17  1  1  0  0  0
  4 11  2  0  0  0  0
  5  9  1  0  0  0  0
  5 16  1  0  0  0  0
  6 18  1  0  0  0  0
  6 15  2  0  0  0  0
  7  2  1  0  0  0  0
  7  1  2  0  0  0  0
  8 17  2  0  0  0  0
  9  1  1  1  0  0  0
  9 13  1  0  0  0  0
 10  4  1  6  0  0  0
 10  3  1  0  0  0  0
 11  8  1  0  0  0  0
 12  6  1  0  0  0  0
 13 12  2  0  0  0  0
 14 12  1  0  0  0  0
 14 10  1  0  0  0  0
 16 14  2  0  0  0  0
 18 19  1  0  0  0  0
 20 21  1  0  0  0  0
 20 19  1  0  0  0  0
 22 21  1  0  0  0  0
 23 22  2  0  0  0  0
 24 23  1  0  0  0  0
 25 26  1  0  0  0  0
 26 24  1  0  0  0  0
 27 26  2  0  0  0  0
M  END
>  <MODEL>
1

>  <REMARK>
 VINA RESULT:      -7.4      0.000      0.000
  Name = 
  7 active torsions:
  status: ('A' for Active; 'I' for Inactive)
    1  A    between atoms: C_4  and  C_20
    2  A    between atoms: C_4  and  N_24
    3  A    between atoms: C_5  and  C_12
    4  A    between atoms: C_5  and  C_25
    5  A    between atoms: C_6  and  C_7
    6  A    between atoms: C_6  and  C_25
    7  A    between atoms: C_10  and  C_12
                            x       y       z     vdW  Elec       q    Type
                         _______ _______ _______ _____ _____    ______ ____

>  <TORSDO>
F 7

$$$$
=
 OpenBabel11042418533D

 27 30  0  0  1  0  0  0  0  0999 V2000
  189.7210  174.0180  142.1540 C   0  0  0  0  0  3  0  0  0  0  0  0
  188.0720  174.9800  141.0000 N   0  0  0  0  0  0  0  0  0  0  0  0
  186.9180  177.6360  146.5180 C   0  0  2  0  0  3  0  0  0  0  0  0
  185.3300  177.8540  144.5250 C   0  0  0  0  0  3  0  0  0  0  0  0
  188.0310  175.3660  142.3590 C   0  0  0  0  0  0  0  0  0  0  0  0
  188.5510  175.8460  146.5200 C   0  0  0  0  0  0  0  0  0  0  0  0
  189.0670  174.1880  140.8830 N   0  0  0  0  0  0  0  0  0  0  0  0
  184.5750  178.3750  146.7980 C   0  0  0  0  0  3  0  0  0  0  0  0
  189.0500  174.7610  143.0140 C   0  0  0  0  0  0  0  0  0  0  0  0
  186.5410  177.2330  145.1050 C   0  0  1  0  0  3  0  0  0  0  0  0
  184.4130  178.4020  145.3290 C   0  0  0  0  0  3  0  0  0  0  0  0
  188.4260  175.7470  145.0490 C   0  0  0  0  0  0  0  0  0  0  0  0
  189.2590  174.9210  144.3440 N   0  0  0  0  0  0  0  0  0  0  0  0
  187.3520  176.4250  144.3930 C   0  0  0  0  0  0  0  0  0  0  0  0
  187.7870  176.6620  147.1820 N   0  0  0  0  0  0  0  0  0  0  0  0
  187.1440  176.2100  143.0120 C   0  0  0  0  0  2  0  0  0  0  0  0
  185.7210  177.9730  147.3620 C   0  0  0  0  0  3  0  0  0  0  0  0
  189.4450  174.9140  147.2740 C   0  0  0  0  0  2  0  0  0  0  0  0
  190.7480  175.6000  147.6660 C   0  0  0  0  0  2  0  0  0  0  0  0
  191.9460  174.9760  146.9610 C   0  0  0  0  0  2  0  0  0  0  0  0
  193.0710  175.9860  146.7730 C   0  0  0  0  0  2  0  0  0  0  0  0
  193.0870  176.5220  145.3770 C   0  0  0  0  0  3  0  0  0  0  0  0
  192.0260  176.4910  144.6570 N   0  0  0  0  0  0  0  0  0  0  0  0
  192.0330  177.0050  143.3110 C   0  0  0  0  0  2  0  0  0  0  0  0
  191.3440  179.2340  143.7990 O   0  0  0  0  0  1  0  0  0  0  0  0
  191.1010  178.1620  143.1870 C   0  0  0  0  0  0  0  0  0  0  0  0
  189.9830  178.0680  142.3700 O   0  0  0  0  0  0  0  0  0  0  0  0
  1  9  1  0  0  0  0
  2  5  2  0  0  0  0
  3 15  1  0  0  0  0
  3 17  1  1  0  0  0
  4 11  2  0  0  0  0
  5 16  1  0  0  0  0
  5  9  1  0  0  0  0
  6 15  2  0  0  0  0
  6 18  1  0  0  0  0
  7  2  1  0  0  0  0
  7  1  2  0  0  0  0
  8 17  2  0  0  0  0
  9 13  2  0  0  0  0
 10  4  1  6  0  0  0
 10  3  1  0  0  0  0
 11  8  1  0  0  0  0
 12  6  1  0  0  0  0
 13 12  1  0  0  0  0
 14 12  2  0  0  0  0
 14 10  1  0  0  0  0
 16 14  1  0  0  0  0
 18 19  1  0  0  0  0
 20 19  1  0  0  0  0
 21 20  1  0  0  0  0
 22 21  1  0  0  0  0
 23 22  2  0  0  0  0
 24 23  1  0  0  0  0
 26 24  1  0  0  0  0
 26 25  1  0  0  0  0
 27 26  2  0  0  0  0
M  END
>  <MODEL>
2

>  <REMARK>
 VINA RESULT:      -7.3      1.902      2.169
  Name = 
  7 active torsions:
  status: ('A' for Active; 'I' for Inactive)
    1  A    between atoms: C_4  and  C_20
    2  A    between atoms: C_4  and  N_24
    3  A    between atoms: C_5  and  C_12
    4  A    between atoms: C_5  and  C_25
    5  A    between atoms: C_6  and  C_7
    6  A    between atoms: C_6  and  C_25
    7  A    between atoms: C_10  and  C_12
                            x       y       z     vdW  Elec       q    Type
                         _______ _______ _______ _____ _____    ______ ____

>  <TORSDO>
F 7

$$$$
=
 OpenBabel11042418533D

 27 30  0  0  1  0  0  0  0  0999 V2000
  189.5530  174.4200  141.8400 C   0  0  0  0  0  3  0  0  0  0  0  0
  187.8680  175.5100  140.8670 N   0  0  0  0  0  0  0  0  0  0  0  0
  187.0410  177.6470  146.6620 C   0  0  2  0  0  3  0  0  0  0  0  0
  185.3600  178.0760  144.7820 C   0  0  0  0  0  3  0  0  0  0  0  0
  187.9020  175.7670  142.2570 C   0  0  0  0  0  0  0  0  0  0  0  0
  188.6380  175.8420  146.4120 C   0  0  0  0  0  0  0  0  0  0  0  0
  188.8410  174.7190  140.6250 N   0  0  0  0  0  0  0  0  0  0  0  0
  184.7290  178.3900  147.1300 C   0  0  0  0  0  3  0  0  0  0  0  0
  188.9410  175.0870  142.7990 C   0  0  1  0  0  3  0  0  0  0  0  0
  186.5860  177.3850  145.2390 C   0  0  1  0  0  3  0  0  0  0  0  0
  184.4950  178.5580  145.6800 C   0  0  0  0  0  3  0  0  0  0  0  0
  188.4370  175.8850  144.9470 C   0  0  0  0  0  0  0  0  0  0  0  0
  189.2180  175.1170  144.1250 N   0  0  0  0  0  0  0  0  0  0  0  0
  187.3450  176.6380  144.4140 C   0  0  0  0  0  0  0  0  0  0  0  0
  187.9230  176.6030  147.1860 N   0  0  0  0  0  0  0  0  0  0  0  0
  187.0650  176.5570  143.0310 C   0  0  0  0  0  3  0  0  0  0  0  0
  185.8930  177.9190  147.5940 C   0  0  0  0  0  3  0  0  0  0  0  0
  189.5500  174.8300  147.0280 C   0  0  0  0  0  2  0  0  0  0  0  0
  190.6670  175.5050  147.8140 C   0  0  0  0  0  2  0  0  0  0  0  0
  191.6170  176.2670  146.8980 C   0  0  0  0  0  2  0  0  0  0  0  0
  192.8470  175.4360  146.5550 C   0  0  0  0  0  2  0  0  0  0  0  0
  192.7130  174.8030  145.2070 C   0  0  0  0  0  3  0  0  0  0  0  0
  192.5260  173.5380  145.1000 N   0  0  0  0  0  0  0  0  0  0  0  0
  192.3950  172.9200  143.8050 C   0  0  0  0  0  2  0  0  0  0  0  0
  191.6240  170.7350  143.2480 O   0  0  0  0  0  0  0  0  0  0  0  0
  191.3950  171.8150  143.8510 C   0  0  0  0  0  0  0  0  0  0  0  0
  190.2280  171.9650  144.5870 O   0  0  0  0  0  1  0  0  0  0  0  0
  2  5  2  0  0  0  0
  3 15  1  0  0  0  0
  3 17  1  1  0  0  0
  4 11  2  0  0  0  0
  5  9  1  0  0  0  0
  5 16  1  0  0  0  0
  6 18  1  0  0  0  0
  6 15  2  0  0  0  0
  7  2  1  0  0  0  0
  7  1  2  0  0  0  0
  8 17  2  0  0  0  0
  9  1  1  1  0  0  0
  9 13  1  0  0  0  0
 10  4  1  6  0  0  0
 10  3  1  0  0  0  0
 11  8  1  0  0  0  0
 12  6  1  0  0  0  0
 13 12  2  0  0  0  0
 14 12  1  0  0  0  0
 14 10  1  0  0  0  0
 16 14  2  0  0  0  0
 18 19  1  0  0  0  0
 20 19  1  0  0  0  0
 21 20  1  0  0  0  0
 22 21  1  0  0  0  0
 23 22  2  0  0  0  0
 24 26  1  0  0  0  0
 24 23  1  0  0  0  0
 25 26  2  0  0  0  0
 26 27  1  0  0  0  0
M  END
>  <MODEL>
3

>  <REMARK>
 VINA RESULT:      -7.1      2.406      2.706
  Name = 
  7 active torsions:
  status: ('A' for Active; 'I' for Inactive)
    1  A    between atoms: C_4  and  C_20
    2  A    between atoms: C_4  and  N_24
    3  A    between atoms: C_5  and  C_12
    4  A    between atoms: C_5  and  C_25
    5  A    between atoms: C_6  and  C_7
    6  A    between atoms: C_6  and  C_25
    7  A    between atoms: C_10  and  C_12
                            x       y       z     vdW  Elec       q    Type
                         _______ _______ _______ _____ _____    ______ ____

>  <TORSDO>
F 7

$$$$
=
 OpenBabel11042418533D

 27 30  0  0  1  0  0  0  0  0999 V2000
  192.0700  175.7670  145.5450 C   0  0  0  0  0  3  0  0  0  0  0  0
  191.6360  176.5660  147.5810 N   0  0  0  0  0  0  0  0  0  0  0  0
  185.8500  176.8730  145.2880 C   0  0  2  0  0  3  0  0  0  0  0  0
  186.4940  177.8940  147.5430 C   0  0  0  0  0  3  0  0  0  0  0  0
  190.4730  176.5670  146.7780 C   0  0  0  0  0  0  0  0  0  0  0  0
  187.6010  176.3660  143.6910 C   0  0  0  0  0  0  0  0  0  0  0  0
  192.5730  176.0950  146.8530 N   0  0  0  0  0  2  0  0  0  0  0  0
  184.4180  178.5460  146.4130 C   0  0  0  0  0  3  0  0  0  0  0  0
  190.7870  176.0720  145.5570 C   0  0  0  0  0  0  0  0  0  0  0  0
  186.9280  177.2330  146.2920 C   0  0  1  0  0  3  0  0  0  0  0  0
  185.3040  178.5000  147.5960 C   0  0  0  0  0  3  0  0  0  0  0  0
  188.5860  176.3520  144.7960 C   0  0  0  0  0  0  0  0  0  0  0  0
  189.8780  175.9680  144.5570 N   0  0  0  0  0  0  0  0  0  0  0  0
  188.2040  176.8580  146.0770 C   0  0  0  0  0  0  0  0  0  0  0  0
  186.3650  176.6910  143.9300 N   0  0  0  0  0  0  0  0  0  0  0  0
  189.1850  176.9820  147.0870 C   0  0  0  0  0  3  0  0  0  0  0  0
  184.6920  177.8300  145.3150 C   0  0  0  0  0  3  0  0  0  0  0  0
  188.0370  176.1540  142.2770 C   0  0  0  0  0  2  0  0  0  0  0  0
  187.8840  177.4300  141.4590 C   0  0  0  0  0  2  0  0  0  0  0  0
  186.5630  177.4540  140.6990 C   0  0  0  0  0  2  0  0  0  0  0  0
  185.6050  178.4890  141.2780 C   0  0  0  0  0  2  0  0  0  0  0  0
  184.2020  177.9730  141.2990 C   0  0  0  0  0  3  0  0  0  0  0  0
  183.3210  178.4540  140.5000 N   0  0  0  0  0  0  0  0  0  0  0  0
  181.9670  177.9620  140.5150 C   0  0  0  0  0  2  0  0  0  0  0  0
  180.1930  179.5460  140.3450 O   0  0  0  0  0  0  0  0  0  0  0  0
  181.0440  178.9860  141.0840 C   0  0  0  0  0  0  0  0  0  0  0  0
  181.1010  179.2980  142.4350 O   0  0  0  0  0  1  0  0  0  0  0  0
  1  9  2  0  0  0  0
  1  7  1  0  0  0  0
  3 17  1  6  0  0  0
  3 10  1  0  0  0  0
  4 11  2  0  0  0  0
  5 16  1  0  0  0  0
  5  2  2  0  0  0  0
  6 15  2  0  0  0  0
  6 12  1  0  0  0  0
  7  2  1  0  0  0  0
  8 11  1  0  0  0  0
  9  5  1  0  0  0  0
 10  4  1  1  0  0  0
 12 14  1  0  0  0  0
 13 12  2  0  0  0  0
 13  9  1  0  0  0  0
 14 10  1  0  0  0  0
 14 16  2  0  0  0  0
 15  3  1  0  0  0  0
 17  8  2  0  0  0  0
 18  6  1  0  0  0  0
 19 18  1  0  0  0  0
 20 21  1  0  0  0  0
 20 19  1  0  0  0  0
 21 22  1  0  0  0  0
 23 24  1  0  0  0  0
 23 22  2  0  0  0  0
 24 26  1  0  0  0  0
 25 26  2  0  0  0  0
 26 27  1  0  0  0  0
M  END
>  <MODEL>
4

>  <REMARK>
 VINA RESULT:      -7.1      4.770      7.995
  Name = 
  7 active torsions:
  status: ('A' for Active; 'I' for Inactive)
    1  A    between atoms: C_4  and  C_20
    2  A    between atoms: C_4  and  N_24
    3  A    between atoms: C_5  and  C_12
    4  A    between atoms: C_5  and  C_25
    5  A    between atoms: C_6  and  C_7
    6  A    between atoms: C_6  and  C_25
    7  A    between atoms: C_10  and  C_12
                            x       y       z     vdW  Elec       q    Type
                         _______ _______ _______ _____ _____    ______ ____

>  <TORSDO>
F 7

$$$$
=
 OpenBabel11042418533D

 27 30  0  0  1  0  0  0  0  0999 V2000
  184.5460  178.0640  145.6870 C   0  0  0  0  0  3  0  0  0  0  0  0
  185.4750  178.5700  147.6490 N   0  0  0  0  0  0  0  0  0  0  0  0
  190.5180  176.1370  144.9130 C   0  0  2  0  0  3  0  0  0  0  0  0
  190.4590  176.7520  147.3950 C   0  0  0  0  0  3  0  0  0  0  0  0
  186.4040  177.9270  146.7990 C   0  0  0  0  0  0  0  0  0  0  0  0
  188.4230  175.8490  143.7300 C   0  0  0  0  0  0  0  0  0  0  0  0
  184.3840  178.6490  146.9920 N   0  0  0  0  0  2  0  0  0  0  0  0
  192.1960  175.2670  146.5070 C   0  0  0  0  0  3  0  0  0  0  0  0
  185.7950  177.6440  145.6240 C   0  0  0  0  0  0  0  0  0  0  0  0
  189.7240  176.5990  146.1200 C   0  0  1  0  0  3  0  0  0  0  0  0
  191.6300  176.1300  147.5660 C   0  0  0  0  0  3  0  0  0  0  0  0
  187.7420  176.6550  144.7670 C   0  0  0  0  0  0  0  0  0  0  0  0
  186.4280  177.0050  144.6100 N   0  0  0  0  0  0  0  0  0  0  0  0
  188.4320  176.9550  145.9830 C   0  0  0  0  0  0  0  0  0  0  0  0
  189.6820  175.5530  143.8630 N   0  0  0  0  0  0  0  0  0  0  0  0
  187.7310  177.5940  147.0310 C   0  0  0  0  0  3  0  0  0  0  0  0
  191.6550  175.2260  145.2840 C   0  0  0  0  0  3  0  0  0  0  0  0
  187.6490  175.2450  142.6020 C   0  0  0  0  0  2  0  0  0  0  0  0
  188.1120  175.8010  141.2610 C   0  0  0  0  0  2  0  0  0  0  0  0
  187.8180  177.2910  141.1390 C   0  0  0  0  0  2  0  0  0  0  0  0
  186.6840  177.5580  140.1560 C   0  0  0  0  0  2  0  0  0  0  0  0
  185.5510  178.2730  140.8210 C   0  0  0  0  0  3  0  0  0  0  0  0
  184.7190  177.6300  141.5550 N   0  0  0  0  0  0  0  0  0  0  0  0
  183.6250  178.3110  142.1980 C   0  0  0  0  0  2  0  0  0  0  0  0
  182.4710  177.7880  140.1790 O   0  0  0  0  0  0  0  0  0  0  0  0
  182.4120  178.2900  141.3310 C   0  0  0  0  0  0  0  0  0  0  0  0
  181.2090  178.7920  141.8070 O   0  0  0  0  0  1  0  0  0  0  0  0
  1  7  1  0  0  0  0
  3 17  1  1  0  0  0
  3 10  1  0  0  0  0
  4 11  2  0  0  0  0
  5 16  1  0  0  0  0
  5  2  2  0  0  0  0
  6 15  2  0  0  0  0
  6 12  1  0  0  0  0
  7  2  1  0  0  0  0
  8 11  1  0  0  0  0
  9  1  2  0  0  0  0
  9  5  1  0  0  0  0
 10  4  1  6  0  0  0
 12 14  1  0  0  0  0
 13 12  2  0  0  0  0
 13  9  1  0  0  0  0
 14 10  1  0  0  0  0
 14 16  2  0  0  0  0
 15  3  1  0  0  0  0
 17  8  2  0  0  0  0
 18  6  1  0  0  0  0
 19 18  1  0  0  0  0
 20 19  1  0  0  0  0
 21 22  1  0  0  0  0
 21 20  1  0  0  0  0
 22 23  2  0  0  0  0
 23 24  1  0  0  0  0
 25 26  2  0  0  0  0
 26 27  1  0  0  0  0
 26 24  1  0  0  0  0
M  END
>  <MODEL>
5

>  <REMARK>
 VINA RESULT:      -7.0      4.398      8.024
  Name = 
  7 active torsions:
  status: ('A' for Active; 'I' for Inactive)
    1  A    between atoms: C_4  and  C_20
    2  A    between atoms: C_4  and  N_24
    3  A    between atoms: C_5  and  C_12
    4  A    between atoms: C_5  and  C_25
    5  A    between atoms: C_6  and  C_7
    6  A    between atoms: C_6  and  C_25
    7  A    between atoms: C_10  and  C_12
                            x       y       z     vdW  Elec       q    Type
                         _______ _______ _______ _____ _____    ______ ____

>  <TORSDO>
F 7

$$$$
=
 OpenBabel11042418533D

 27 30  0  0  1  0  0  0  0  0999 V2000
  190.1560  174.4410  141.9990 C   0  0  0  0  0  3  0  0  0  0  0  0
  188.5940  174.5390  140.4100 N   0  0  0  0  0  0  0  0  0  0  0  0
  186.1360  178.7510  144.2890 C   0  0  2  0  0  3  0  0  0  0  0  0
  184.8890  177.8780  142.2340 C   0  0  0  0  0  3  0  0  0  0  0  0
  188.2670  175.3850  141.4940 C   0  0  0  0  0  0  0  0  0  0  0  0
  188.0040  177.4720  145.1530 C   0  0  0  0  0  0  0  0  0  0  0  0
  189.7050  173.9860  140.7100 N   0  0  0  0  0  0  0  0  0  0  0  0
  183.6930  179.0370  144.0340 C   0  0  0  0  0  3  0  0  0  0  0  0
  189.2440  175.2930  142.4280 C   0  0  0  0  0  0  0  0  0  0  0  0
  186.0670  177.7830  143.1240 C   0  0  1  0  0  3  0  0  0  0  0  0
  183.7770  178.4820  142.6660 C   0  0  0  0  0  3  0  0  0  0  0  0
  188.1430  176.8110  143.8370 C   0  0  0  0  0  0  0  0  0  0  0  0
  189.2000  175.9740  143.5980 N   0  0  0  0  0  0  0  0  0  0  0  0
  187.1010  176.9570  142.8690 C   0  0  0  0  0  0  0  0  0  0  0  0
  187.0220  178.2980  145.3630 N   0  0  0  0  0  0  0  0  0  0  0  0
  187.1630  176.2070  141.6740 C   0  0  0  0  0  2  0  0  0  0  0  0
  184.7770  179.1200  144.8150 C   0  0  0  0  0  3  0  0  0  0  0  0
  188.8930  177.0950  146.2950 C   0  0  0  0  0  2  0  0  0  0  0  0
  188.4090  175.8140  146.9650 C   0  0  0  0  0  2  0  0  0  0  0  0
  189.5200  174.7750  147.0580 C   0  0  0  0  0  2  0  0  0  0  0  0
  190.7910  175.3690  147.6550 C   0  0  0  0  0  2  0  0  0  0  0  0
  191.9390  175.2500  146.7050 C   0  0  0  0  0  3  0  0  0  0  0  0
  191.7690  174.7360  145.5420 N   0  0  0  0  0  0  0  0  0  0  0  0
  192.8710  174.6180  144.6200 C   0  0  0  0  0  2  0  0  0  0  0  0
  194.5070  176.3430  144.4450 O   0  0  0  0  0  1  0  0  0  0  0  0
  193.3350  175.9660  144.1840 C   0  0  0  0  0  0  0  0  0  0  0  0
  192.4860  176.7930  143.4610 O   0  0  0  0  0  0  0  0  0  0  0  0
  1  9  1  0  0  0  0
  2  7  1  0  0  0  0
  2  5  2  0  0  0  0
  3 17  1  1  0  0  0
  3 15  1  0  0  0  0
  4 11  2  0  0  0  0
  5 16  1  0  0  0  0
  5  9  1  0  0  0  0
  6 15  2  0  0  0  0
  6 18  1  0  0  0  0
  7  1  2  0  0  0  0
  8 17  2  0  0  0  0
  9 13  2  0  0  0  0
 10  4  1  6  0  0  0
 10  3  1  0  0  0  0
 11  8  1  0  0  0  0
 12  6  1  0  0  0  0
 13 12  1  0  0  0  0
 14 10  1  0  0  0  0
 14 12  2  0  0  0  0
 16 14  1  0  0  0  0
 18 19  1  0  0  0  0
 19 20  1  0  0  0  0
 20 21  1  0  0  0  0
 22 21  1  0  0  0  0
 23 22  2  0  0  0  0
 24 23  1  0  0  0  0
 26 25  1  0  0  0  0
 26 24  1  0  0  0  0
 27 26  2  0  0  0  0
M  END
>  <MODEL>
6

>  <REMARK>
 VINA RESULT:      -7.0      1.777      2.362
  Name = 
  7 active torsions:
  status: ('A' for Active; 'I' for Inactive)
    1  A    between atoms: C_4  and  C_20
    2  A    between atoms: C_4  and  N_24
    3  A    between atoms: C_5  and  C_12
    4  A    between atoms: C_5  and  C_25
    5  A    between atoms: C_6  and  C_7
    6  A    between atoms: C_6  and  C_25
    7  A    between atoms: C_10  and  C_12
                            x       y       z     vdW  Elec       q    Type
                         _______ _______ _______ _____ _____    ______ ____

>  <TORSDO>
F 7

$$$$
=
 OpenBabel11042418533D

 27 30  0  0  1  0  0  0  0  0999 V2000
  183.4390  177.9630  140.1490 C   0  0  0  0  0  3  0  0  0  0  0  0
  181.9240  178.6380  141.6400 N   0  0  0  0  0  0  0  0  0  0  0  0
  186.8150  178.2930  145.4850 C   0  0  2  0  0  3  0  0  0  0  0  0
  184.4310  178.6910  146.3210 C   0  0  0  0  0  3  0  0  0  0  0  0
  183.1760  178.4140  142.2560 C   0  0  0  0  0  0  0  0  0  0  0  0
  187.1370  177.3660  143.2700 C   0  0  0  0  0  0  0  0  0  0  0  0
  182.0830  178.3720  140.4010 N   0  0  0  0  0  0  0  0  0  0  0  0
  186.1980  177.9640  147.8570 C   0  0  0  0  0  3  0  0  0  0  0  0
  184.0600  178.0100  141.3130 C   0  0  1  0  0  3  0  0  0  0  0  0
  185.3300  178.3730  145.1900 C   0  0  1  0  0  3  0  0  0  0  0  0
  184.8520  178.5080  147.5770 C   0  0  0  0  0  3  0  0  0  0  0  0
  185.7780  177.8180  142.8980 C   0  0  0  0  0  0  0  0  0  0  0  0
  185.3450  177.6970  141.6040 N   0  0  0  0  0  0  0  0  0  0  0  0
  184.8860  178.2630  143.9220 C   0  0  0  0  0  0  0  0  0  0  0  0
  187.5600  177.5200  144.4890 N   0  0  0  0  0  0  0  0  0  0  0  0
  183.5440  178.5510  143.5870 C   0  0  0  0  0  3  0  0  0  0  0  0
  187.1020  177.8140  146.8810 C   0  0  0  0  0  3  0  0  0  0  0  0
  187.9800  176.6020  142.2990 C   0  0  0  0  0  2  0  0  0  0  0  0
  187.6350  175.1180  142.3240 C   0  0  0  0  0  2  0  0  0  0  0  0
  188.8520  174.2650  142.6620 C   0  0  0  0  0  2  0  0  0  0  0  0
  189.9910  175.1120  143.2160 C   0  0  0  0  0  2  0  0  0  0  0  0
  190.2240  174.8210  144.6640 C   0  0  0  0  0  3  0  0  0  0  0  0
  189.2890  175.0060  145.5230 N   0  0  0  0  0  0  0  0  0  0  0  0
  189.5060  174.7280  146.9190 C   0  0  0  0  0  2  0  0  0  0  0  0
  191.5970  175.1370  147.9880 O   0  0  0  0  0  1  0  0  0  0  0  0
  190.5580  175.6270  147.4750 C   0  0  0  0  0  0  0  0  0  0  0  0
  190.4070  177.0040  147.3950 O   0  0  0  0  0  0  0  0  0  0  0  0
  1  7  2  0  0  0  0
  2  5  2  0  0  0  0
  3 17  1  1  0  0  0
  4 11  2  0  0  0  0
  5 16  1  0  0  0  0
  6 15  2  0  0  0  0
  7  2  1  0  0  0  0
  9  1  1  1  0  0  0
  9 13  1  0  0  0  0
  9  5  1  0  0  0  0
 10  3  1  0  0  0  0
 10  4  1  6  0  0  0
 11  8  1  0  0  0  0
 12  6  1  0  0  0  0
 12 14  1  0  0  0  0
 13 12  2  0  0  0  0
 14 10  1  0  0  0  0
 15  3  1  0  0  0  0
 16 14  2  0  0  0  0
 17  8  2  0  0  0  0
 18 19  1  0  0  0  0
 18  6  1  0  0  0  0
 19 20  1  0  0  0  0
 20 21  1  0  0  0  0
 21 22  1  0  0  0  0
 22 23  2  0  0  0  0
 23 24  1  0  0  0  0
 24 26  1  0  0  0  0
 26 25  1  0  0  0  0
 27 26  2  0  0  0  0
M  END
>  <MODEL>
7

>  <REMARK>
 VINA RESULT:      -7.0      3.213      5.007
  Name = 
  7 active torsions:
  status: ('A' for Active; 'I' for Inactive)
    1  A    between atoms: C_4  and  C_20
    2  A    between atoms: C_4  and  N_24
    3  A    between atoms: C_5  and  C_12
    4  A    between atoms: C_5  and  C_25
    5  A    between atoms: C_6  and  C_7
    6  A    between atoms: C_6  and  C_25
    7  A    between atoms: C_10  and  C_12
                            x       y       z     vdW  Elec       q    Type
                         _______ _______ _______ _____ _____    ______ ____

>  <TORSDO>
F 7

$$$$
=
 OpenBabel11042418533D

 27 30  0  0  1  0  0  0  0  0999 V2000
  191.8660  176.3910  145.3660 C   0  0  0  0  0  3  0  0  0  0  0  0
  191.2050  176.6100  147.4850 N   0  0  0  0  0  0  0  0  0  0  0  0
  185.6530  177.4010  144.7680 C   0  0  2  0  0  3  0  0  0  0  0  0
  186.0330  177.7970  147.2660 C   0  0  0  0  0  3  0  0  0  0  0  0
  190.1240  176.8010  146.5950 C   0  0  0  0  0  0  0  0  0  0  0  0
  187.5680  177.3730  143.2840 C   0  0  0  0  0  0  0  0  0  0  0  0
  192.2270  176.3690  146.7590 N   0  0  0  0  0  2  0  0  0  0  0  0
  184.0450  178.6850  146.1390 C   0  0  0  0  0  3  0  0  0  0  0  0
  190.5740  176.6560  145.3260 C   0  0  0  0  0  0  0  0  0  0  0  0
  186.6130  177.5030  145.9370 C   0  0  1  0  0  3  0  0  0  0  0  0
  184.8160  178.3430  147.3540 C   0  0  0  0  0  3  0  0  0  0  0  0
  188.4440  177.0840  144.4420 C   0  0  0  0  0  0  0  0  0  0  0  0
  189.7700  176.8040  144.2450 N   0  0  0  0  0  0  0  0  0  0  0  0
  187.9200  177.2230  145.7650 C   0  0  0  0  0  0  0  0  0  0  0  0
  186.3020  177.5980  143.4700 N   0  0  0  0  0  0  0  0  0  0  0  0
  188.7950  177.0940  146.8670 C   0  0  0  0  0  3  0  0  0  0  0  0
  184.4540  178.2930  144.9260 C   0  0  0  0  0  3  0  0  0  0  0  0
  188.1460  177.5540  141.9170 C   0  0  0  0  0  2  0  0  0  0  0  0
  187.5950  176.5150  140.9470 C   0  0  0  0  0  2  0  0  0  0  0  0
  187.8300  175.0960  141.4520 C   0  0  0  0  0  2  0  0  0  0  0  0
  188.8910  174.3790  140.6250 C   0  0  0  0  0  2  0  0  0  0  0  0
  189.8370  173.6220  141.5010 C   0  0  0  0  0  3  0  0  0  0  0  0
  190.7360  174.2430  142.1740 N   0  0  0  0  0  0  0  0  0  0  0  0
  191.6520  173.5210  143.0200 C   0  0  0  0  0  2  0  0  0  0  0  0
  191.1850  171.5390  144.2600 O   0  0  0  0  0  0  0  0  0  0  0  0
  190.9090  172.7500  144.0580 C   0  0  0  0  0  0  0  0  0  0  0  0
  189.9370  173.3770  144.8250 O   0  0  0  0  0  1  0  0  0  0  0  0
  1  7  1  0  0  0  0
  3 17  1  1  0  0  0
  3 10  1  0  0  0  0
  4 11  2  0  0  0  0
  5 16  1  0  0  0  0
  5  2  2  0  0  0  0
  6 15  2  0  0  0  0
  6 12  1  0  0  0  0
  7  2  1  0  0  0  0
  8 11  1  0  0  0  0
  9  1  2  0  0  0  0
  9  5  1  0  0  0  0
 10  4  1  1  0  0  0
 12 14  1  0  0  0  0
 13 12  2  0  0  0  0
 13  9  1  0  0  0  0
 14 10  1  0  0  0  0
 14 16  2  0  0  0  0
 15  3  1  0  0  0  0
 17  8  2  0  0  0  0
 18  6  1  0  0  0  0
 19 20  1  0  0  0  0
 19 18  1  0  0  0  0
 21 20  1  0  0  0  0
 21 22  1  0  0  0  0
 22 23  2  0  0  0  0
 23 24  1  0  0  0  0
 24 26  1  0  0  0  0
 26 25  2  0  0  0  0
 26 27  1  0  0  0  0
M  END
>  <MODEL>
8

>  <REMARK>
 VINA RESULT:      -6.8      2.875      5.057
  Name = 
  7 active torsions:
  status: ('A' for Active; 'I' for Inactive)
    1  A    between atoms: C_4  and  C_20
    2  A    between atoms: C_4  and  N_24
    3  A    between atoms: C_5  and  C_12
    4  A    between atoms: C_5  and  C_25
    5  A    between atoms: C_6  and  C_7
    6  A    between atoms: C_6  and  C_25
    7  A    between atoms: C_10  and  C_12
                            x       y       z     vdW  Elec       q    Type
                         _______ _______ _______ _____ _____    ______ ____

>  <TORSDO>
F 7

$$$$
=
 OpenBabel11042418533D

 27 30  0  0  1  0  0  0  0  0999 V2000
  184.4580  178.2240  146.2240 C   0  0  0  0  0  3  0  0  0  0  0  0
  185.9490  178.1030  147.8770 N   0  0  0  0  0  0  0  0  0  0  0  0
  189.8830  177.3050  143.1110 C   0  0  2  0  0  3  0  0  0  0  0  0
  190.5940  177.0030  145.5490 C   0  0  0  0  0  3  0  0  0  0  0  0
  186.5660  177.8960  146.6220 C   0  0  0  0  0  0  0  0  0  0  0  0
  187.5240  177.2380  142.5640 C   0  0  0  0  0  0  0  0  0  0  0  0
  184.7100  178.2970  147.6390 N   0  0  0  0  0  2  0  0  0  0  0  0
  191.9590  176.1060  143.7200 C   0  0  0  0  0  3  0  0  0  0  0  0
  185.6230  177.9820  145.6540 C   0  0  0  0  0  0  0  0  0  0  0  0
  189.5030  177.2330  144.5770 C   0  0  1  0  0  3  0  0  0  0  0  0
  191.7540  176.4820  145.1350 C   0  0  0  0  0  3  0  0  0  0  0  0
  187.2020  177.5570  143.9730 C   0  0  0  0  0  0  0  0  0  0  0  0
  185.9070  177.8060  144.3410 N   0  0  0  0  0  0  0  0  0  0  0  0
  188.2350  177.4810  144.9590 C   0  0  0  0  0  0  0  0  0  0  0  0
  188.7590  177.0440  142.2100 N   0  0  0  0  0  0  0  0  0  0  0  0
  187.8960  177.6390  146.3220 C   0  0  0  0  0  3  0  0  0  0  0  0
  191.0680  176.4420  142.7780 C   0  0  0  0  0  3  0  0  0  0  0  0
  186.4350  176.9920  141.5700 C   0  0  0  0  0  2  0  0  0  0  0  0
  185.9670  178.2970  140.9350 C   0  0  0  0  0  2  0  0  0  0  0  0
  184.5130  178.2140  140.4880 C   0  0  0  0  0  2  0  0  0  0  0  0
  183.5590  178.3130  141.6720 C   0  0  0  0  0  2  0  0  0  0  0  0
  182.1340  178.2460  141.2230 C   0  0  0  0  0  3  0  0  0  0  0  0
  181.2450  178.9940  141.7690 N   0  0  0  0  0  0  0  0  0  0  0  0
  179.8700  178.9350  141.3430 C   0  0  0  0  0  2  0  0  0  0  0  0
  178.5870  177.1460  142.2570 O   0  0  0  0  0  0  0  0  0  0  0  0
  179.0200  178.3190  142.4010 C   0  0  0  0  0  0  0  0  0  0  0  0
  178.7340  179.0250  143.5620 O   0  0  0  0  0  1  0  0  0  0  0  0
  1  7  1  0  0  0  0
  3 17  1  1  0  0  0
  3 10  1  0  0  0  0
  5  2  2  0  0  0  0
  6 12  1  0  0  0  0
  7  2  1  0  0  0  0
  8 11  1  0  0  0  0
  9  1  2  0  0  0  0
  9  5  1  0  0  0  0
 10 14  1  0  0  0  0
 10  4  1  1  0  0  0
 11  4  2  0  0  0  0
 12 13  2  0  0  0  0
 12 14  1  0  0  0  0
 13  9  1  0  0  0  0
 14 16  2  0  0  0  0
 15  6  2  0  0  0  0
 15  3  1  0  0  0  0
 16  5  1  0  0  0  0
 17  8  2  0  0  0  0
 18  6  1  0  0  0  0
 19 18  1  0  0  0  0
 20 19  1  0  0  0  0
 20 21  1  0  0  0  0
 22 21  1  0  0  0  0
 22 23  2  0  0  0  0
 24 23  1  0  0  0  0
 24 26  1  0  0  0  0
 25 26  2  0  0  0  0
 26 27  1  0  0  0  0
M  END
>  <MODEL>
9

>  <REMARK>
 VINA RESULT:      -6.8      5.551      9.566
  Name = 
  7 active torsions:
  status: ('A' for Active; 'I' for Inactive)
    1  A    between atoms: C_4  and  C_20
    2  A    between atoms: C_4  and  N_24
    3  A    between atoms: C_5  and  C_12
    4  A    between atoms: C_5  and  C_25
    5  A    between atoms: C_6  and  C_7
    6  A    between atoms: C_6  and  C_25
    7  A    between atoms: C_10  and  C_12
                            x       y       z     vdW  Elec       q    Type
                         _______ _______ _______ _____ _____    ______ ____

>  <TORSDO>
F 7

$$$$
