=
 OpenBabel11042414223D

 27 30  0  0  1  0  0  0  0  0999 V2000
  187.3900  176.0760  144.5090 C   0  0  2  0  0  3  0  0  0  0  0  0
  189.2240  176.3110  143.1020 N   0  0  0  0  0  0  0  0  0  0  0  0
  189.6670  175.7570  144.3370 C   0  0  2  0  0  3  0  0  0  0  0  0
  187.8480  176.3350  147.3410 C   0  0  0  0  0  3  0  0  0  0  0  0
  186.8790  177.2330  146.6500 C   0  0  0  0  0  0  0  0  0  0  0  0
  186.7250  177.1630  145.3140 C   0  0  0  0  0  3  0  0  0  0  0  0
  188.6450  175.6410  145.1830 C   0  0  1  0  0  3  0  0  0  0  0  0
  188.7150  175.5860  146.6490 C   0  0  0  0  0  3  0  0  0  0  0  0
  187.9530  176.5350  143.2030 C   0  0  0  0  0  0  0  0  0  0  0  0
  193.4460  172.5960  145.1000 C   0  0  0  0  0  1  0  0  0  0  0  0
  191.9770  176.6090  144.8640 C   0  0  0  0  0  3  0  0  0  0  0  0
  191.1000  175.5370  144.6350 C   0  0  0  0  0  0  0  0  0  0  0  0
  193.8030  175.0640  145.2360 C   0  0  0  0  0  3  0  0  0  0  0  0
  192.9380  173.9910  145.0170 C   0  0  0  0  0  0  0  0  0  0  0  0
  193.3230  176.3740  145.1610 C   0  0  0  0  0  0  0  0  0  0  0  0
  194.1820  177.4420  145.3810 O   0  0  0  0  0  1  0  0  0  0  0  0
  191.5910  174.2270  144.7210 C   0  0  0  0  0  3  0  0  0  0  0  0
  185.5980  178.0350  140.7910 C   0  0  0  0  0  0  0  0  0  0  0  0
  187.5620  177.0720  140.8670 N   0  0  0  0  0  0  0  0  0  0  0  0
  186.5900  177.6630  140.0570 N   0  0  0  0  0  0  0  0  0  0  0  0
  187.1610  177.0830  142.0940 C   0  0  0  0  0  0  0  0  0  0  0  0
  185.8170  177.7150  142.2330 C   0  0  0  0  0  2  0  0  0  0  0  0
  183.1600  178.2180  140.5710 C   0  0  0  0  0  1  0  0  0  0  0  0
  184.4720  178.6600  140.2600 O   0  0  0  0  0  0  0  0  0  0  0  0
  186.1450  178.2470  147.4260 C   0  0  0  0  0  0  0  0  0  0  0  0
  184.7420  178.4230  147.2480 N   0  0  0  0  0  1  0  0  0  0  0  0
  186.7530  178.9690  148.2600 O   0  0  0  0  0  0  0  0  0  0  0  0
  1  7  1  0  0  0  0
  1  6  1  1  0  0  0
  2  9  2  0  0  0  0
  2  3  1  0  0  0  0
  3 12  1  1  0  0  0
  3  7  1  0  0  0  0
  5  4  1  0  0  0  0
  5 25  1  0  0  0  0
  6  5  2  0  0  0  0
  7  8  1  1  0  0  0
  8  4  2  0  0  0  0
  9  1  1  0  0  0  0
 11 15  1  0  0  0  0
 12 17  1  0  0  0  0
 12 11  2  0  0  0  0
 14 10  1  0  0  0  0
 14 13  1  0  0  0  0
 15 13  2  0  0  0  0
 15 16  1  0  0  0  0
 17 14  2  0  0  0  0
 18 22  1  0  0  0  0
 19 21  2  0  0  0  0
 20 18  2  0  0  0  0
 20 19  1  0  0  0  0
 21 22  1  0  0  0  0
 21  9  1  0  0  0  0
 24 23  1  0  0  0  0
 24 18  1  0  0  0  0
 25 27  2  0  0  0  0
 26 25  1  0  0  0  0
M  END
>  <MODEL>
1

>  <REMARK>
 VINA RESULT:      -7.5      0.000      0.000
  Name = 
  4 active torsions:
  status: ('A' for Active; 'I' for Inactive)
    1  A    between atoms: C_4  and  O_13
    2  A    between atoms: C_5  and  C_16
    3  A    between atoms: C_6  and  C_11
    4  A    between atoms: C_21  and  C_26
                            x       y       z     vdW  Elec       q    Type
                         _______ _______ _______ _____ _____    ______ ____

>  <TORSDO>
F 4

$$$$
=
 OpenBabel11042414223D

 27 30  0  0  1  0  0  0  0  0999 V2000
  187.3460  176.2840  144.1250 C   0  0  2  0  0  3  0  0  0  0  0  0
  188.9760  176.8220  142.5580 N   0  0  0  0  0  0  0  0  0  0  0  0
  189.6160  176.2970  143.7180 C   0  0  2  0  0  3  0  0  0  0  0  0
  188.0520  176.5130  146.9070 C   0  0  0  0  0  3  0  0  0  0  0  0
  186.9030  177.2860  146.3570 C   0  0  0  0  0  0  0  0  0  0  0  0
  186.6230  177.2390  145.0400 C   0  0  0  0  0  3  0  0  0  0  0  0
  188.7110  176.0100  144.6520 C   0  0  1  0  0  3  0  0  0  0  0  0
  188.9390  175.9180  146.1000 C   0  0  0  0  0  3  0  0  0  0  0  0
  187.7030  176.8600  142.7930 C   0  0  0  0  0  0  0  0  0  0  0  0
  193.6310  176.6080  146.6550 C   0  0  0  0  0  1  0  0  0  0  0  0
  191.9360  176.1190  142.7570 C   0  0  0  0  0  3  0  0  0  0  0  0
  191.0890  176.2730  143.8650 C   0  0  0  0  0  0  0  0  0  0  0  0
  193.8780  176.2740  144.1930 C   0  0  0  0  0  3  0  0  0  0  0  0
  193.0440  176.4360  145.3010 C   0  0  0  0  0  0  0  0  0  0  0  0
  193.3250  176.1170  142.9200 C   0  0  0  0  0  0  0  0  0  0  0  0
  194.1530  175.9590  141.8170 O   0  0  0  0  0  1  0  0  0  0  0  0
  191.6550  176.4380  145.1360 C   0  0  0  0  0  3  0  0  0  0  0  0
  184.9510  178.1440  140.6980 C   0  0  0  0  0  0  0  0  0  0  0  0
  186.9620  177.2980  140.5220 N   0  0  0  0  0  0  0  0  0  0  0  0
  185.8530  177.8050  139.8420 N   0  0  0  0  0  0  0  0  0  0  0  0
  186.7340  177.3260  141.7930 C   0  0  0  0  0  0  0  0  0  0  0  0
  185.3860  177.8850  142.1030 C   0  0  0  0  0  2  0  0  0  0  0  0
  182.4970  178.0830  140.6850 C   0  0  0  0  0  1  0  0  0  0  0  0
  183.7260  178.6870  140.3150 O   0  0  0  0  0  0  0  0  0  0  0  0
  186.1200  178.1600  147.2460 C   0  0  0  0  0  0  0  0  0  0  0  0
  184.7090  178.2850  147.0840 N   0  0  0  0  0  1  0  0  0  0  0  0
  186.6920  178.8060  148.1650 O   0  0  0  0  0  0  0  0  0  0  0  0
  1  7  1  0  0  0  0
  1  6  1  1  0  0  0
  2  9  2  0  0  0  0
  2  3  1  0  0  0  0
  3 12  1  1  0  0  0
  3  7  1  0  0  0  0
  5  4  1  0  0  0  0
  5 25  1  0  0  0  0
  6  5  2  0  0  0  0
  7  8  1  1  0  0  0
  8  4  2  0  0  0  0
  9  1  1  0  0  0  0
 11 15  2  0  0  0  0
 11 12  1  0  0  0  0
 12 17  2  0  0  0  0
 13 14  2  0  0  0  0
 14 10  1  0  0  0  0
 15 13  1  0  0  0  0
 16 15  1  0  0  0  0
 17 14  1  0  0  0  0
 18 22  1  0  0  0  0
 19 21  2  0  0  0  0
 20 19  1  0  0  0  0
 20 18  2  0  0  0  0
 21 22  1  0  0  0  0
 21  9  1  0  0  0  0
 24 23  1  0  0  0  0
 24 18  1  0  0  0  0
 25 27  2  0  0  0  0
 26 25  1  0  0  0  0
M  END
>  <MODEL>
2

>  <REMARK>
 VINA RESULT:      -7.4      1.372      1.546
  Name = 
  4 active torsions:
  status: ('A' for Active; 'I' for Inactive)
    1  A    between atoms: C_4  and  O_13
    2  A    between atoms: C_5  and  C_16
    3  A    between atoms: C_6  and  C_11
    4  A    between atoms: C_21  and  C_26
                            x       y       z     vdW  Elec       q    Type
                         _______ _______ _______ _____ _____    ______ ____

>  <TORSDO>
F 4

$$$$
=
 OpenBabel11042414223D

 27 30  0  0  1  0  0  0  0  0999 V2000
  190.6430  175.8310  142.6150 C   0  0  2  0  0  3  0  0  0  0  0  0
  188.5650  175.0440  143.2920 N   0  0  0  0  0  0  0  0  0  0  0  0
  188.6830  176.4090  143.6820 C   0  0  2  0  0  3  0  0  0  0  0  0
  191.8820  177.8690  144.2290 C   0  0  0  0  0  3  0  0  0  0  0  0
  192.5790  176.5740  143.9870 C   0  0  0  0  0  0  0  0  0  0  0  0
  191.9650  175.5930  143.2980 C   0  0  0  0  0  3  0  0  0  0  0  0
  189.8790  176.8840  143.3400 C   0  0  1  0  0  3  0  0  0  0  0  0
  190.5830  178.0220  143.9460 C   0  0  0  0  0  3  0  0  0  0  0  0
  189.6780  174.6960  142.7310 C   0  0  0  0  0  0  0  0  0  0  0  0
  185.2490  179.9920  144.1570 C   0  0  0  0  0  1  0  0  0  0  0  0
  187.3910  176.6850  145.8260 C   0  0  0  0  0  3  0  0  0  0  0  0
  187.6570  177.0870  144.5080 C   0  0  0  0  0  0  0  0  0  0  0  0
  185.7290  178.4310  146.0450 C   0  0  0  0  0  3  0  0  0  0  0  0
  185.9910  178.8430  144.7370 C   0  0  0  0  0  0  0  0  0  0  0  0
  186.4300  177.3520  146.5910 C   0  0  0  0  0  0  0  0  0  0  0  0
  186.1720  176.9430  147.8920 O   0  0  0  0  0  1  0  0  0  0  0  0
  186.9540  178.1750  143.9730 C   0  0  0  0  0  3  0  0  0  0  0  0
  190.2900  171.1640  141.8590 C   0  0  0  0  0  0  0  0  0  0  0  0
  189.8450  173.0890  140.9180 N   0  0  0  0  0  0  0  0  0  0  0  0
  190.0920  171.7290  140.7180 N   0  0  0  0  0  0  0  0  0  0  0  0
  189.8940  173.3520  142.1810 C   0  0  0  0  0  0  0  0  0  0  0  0
  190.1910  172.1340  142.9900 C   0  0  0  0  0  2  0  0  0  0  0  0
  190.9830  169.0270  140.8690 C   0  0  0  0  0  1  0  0  0  0  0  0
  190.5620  169.8030  141.9790 O   0  0  0  0  0  0  0  0  0  0  0  0
  193.9130  176.3460  144.5670 C   0  0  0  0  0  0  0  0  0  0  0  0
  194.4310  177.2220  145.5660 N   0  0  0  0  0  1  0  0  0  0  0  0
  194.6110  175.3690  144.1870 O   0  0  0  0  0  0  0  0  0  0  0  0
  1  9  1  0  0  0  0
  1  6  1  1  0  0  0
  1  7  1  0  0  0  0
  2  3  1  0  0  0  0
  3 12  1  1  0  0  0
  5  4  1  0  0  0  0
  5 25  1  0  0  0  0
  6  5  2  0  0  0  0
  7  3  1  0  0  0  0
  7  8  1  1  0  0  0
  8  4  2  0  0  0  0
  9  2  2  0  0  0  0
 10 14  1  0  0  0  0
 11 15  1  0  0  0  0
 12 11  2  0  0  0  0
 13 15  2  0  0  0  0
 14 13  1  0  0  0  0
 15 16  1  0  0  0  0
 17 12  1  0  0  0  0
 17 14  2  0  0  0  0
 18 24  1  0  0  0  0
 18 22  1  0  0  0  0
 19 21  2  0  0  0  0
 20 19  1  0  0  0  0
 20 18  2  0  0  0  0
 21  9  1  0  0  0  0
 21 22  1  0  0  0  0
 23 24  1  0  0  0  0
 25 26  1  0  0  0  0
 27 25  2  0  0  0  0
M  END
>  <MODEL>
3

>  <REMARK>
 VINA RESULT:      -7.3      3.277      7.083
  Name = 
  4 active torsions:
  status: ('A' for Active; 'I' for Inactive)
    1  A    between atoms: C_4  and  O_13
    2  A    between atoms: C_5  and  C_16
    3  A    between atoms: C_6  and  C_11
    4  A    between atoms: C_21  and  C_26
                            x       y       z     vdW  Elec       q    Type
                         _______ _______ _______ _____ _____    ______ ____

>  <TORSDO>
F 4

$$$$
=
 OpenBabel11042414223D

 27 30  0  0  1  0  0  0  0  0999 V2000
  190.3220  175.7060  142.5140 C   0  0  2  0  0  3  0  0  0  0  0  0
  188.2330  174.7900  142.9570 N   0  0  0  0  0  0  0  0  0  0  0  0
  188.2120  176.1670  143.3220 C   0  0  2  0  0  3  0  0  0  0  0  0
  191.2170  177.8530  144.2120 C   0  0  0  0  0  3  0  0  0  0  0  0
  192.0220  176.6050  144.0900 C   0  0  0  0  0  0  0  0  0  0  0  0
  191.5640  175.5720  143.3580 C   0  0  0  0  0  3  0  0  0  0  0  0
  189.4070  176.7170  143.1140 C   0  0  1  0  0  3  0  0  0  0  0  0
  189.9550  177.9100  143.7710 C   0  0  0  0  0  3  0  0  0  0  0  0
  189.4270  174.5090  142.5430 C   0  0  0  0  0  0  0  0  0  0  0  0
  185.8580  177.3580  147.5520 C   0  0  0  0  0  1  0  0  0  0  0  0
  185.9870  177.3450  143.2750 C   0  0  0  0  0  3  0  0  0  0  0  0
  187.0510  176.7870  144.0000 C   0  0  0  0  0  0  0  0  0  0  0  0
  184.8530  177.9150  145.3350 C   0  0  0  0  0  3  0  0  0  0  0  0
  185.9020  177.3560  146.0660 C   0  0  0  0  0  0  0  0  0  0  0  0
  184.8940  177.9100  143.9390 C   0  0  0  0  0  0  0  0  0  0  0  0
  183.8500  178.4640  143.2100 O   0  0  0  0  0  1  0  0  0  0  0  0
  186.9950  176.7910  145.4000 C   0  0  0  0  0  3  0  0  0  0  0  0
  190.4200  171.0260  141.8440 C   0  0  0  0  0  0  0  0  0  0  0  0
  189.8240  172.8580  140.8070 N   0  0  0  0  0  0  0  0  0  0  0  0
  190.2120  171.5240  140.6730 N   0  0  0  0  0  0  0  0  0  0  0  0
  189.7970  173.1730  142.0590 C   0  0  0  0  0  0  0  0  0  0  0  0
  190.1810  172.0230  142.9280 C   0  0  0  0  0  2  0  0  0  0  0  0
  190.9640  168.8080  140.9410 C   0  0  0  0  0  1  0  0  0  0  0  0
  190.8200  169.7040  142.0310 O   0  0  0  0  0  0  0  0  0  0  0  0
  193.2880  176.4790  144.8320 C   0  0  0  0  0  0  0  0  0  0  0  0
  193.2920  176.4250  146.2570 N   0  0  0  0  0  1  0  0  0  0  0  0
  194.3830  176.4160  144.2120 O   0  0  0  0  0  0  0  0  0  0  0  0
  1  9  1  0  0  0  0
  1  7  1  0  0  0  0
  1  6  1  1  0  0  0
  2  3  1  0  0  0  0
  3 12  1  1  0  0  0
  5  4  1  0  0  0  0
  5 25  1  0  0  0  0
  6  5  2  0  0  0  0
  7  3  1  0  0  0  0
  7  8  1  1  0  0  0
  8  4  2  0  0  0  0
  9  2  2  0  0  0  0
 11 15  2  0  0  0  0
 11 12  1  0  0  0  0
 12 17  2  0  0  0  0
 13 14  2  0  0  0  0
 14 10  1  0  0  0  0
 15 13  1  0  0  0  0
 16 15  1  0  0  0  0
 17 14  1  0  0  0  0
 18 24  1  0  0  0  0
 18 22  1  0  0  0  0
 19 21  2  0  0  0  0
 20 19  1  0  0  0  0
 20 18  2  0  0  0  0
 21  9  1  0  0  0  0
 21 22  1  0  0  0  0
 23 24  1  0  0  0  0
 25 26  1  0  0  0  0
 27 25  2  0  0  0  0
M  END
>  <MODEL>
4

>  <REMARK>
 VINA RESULT:      -7.1      3.242      7.093
  Name = 
  4 active torsions:
  status: ('A' for Active; 'I' for Inactive)
    1  A    between atoms: C_4  and  O_13
    2  A    between atoms: C_5  and  C_16
    3  A    between atoms: C_6  and  C_11
    4  A    between atoms: C_21  and  C_26
                            x       y       z     vdW  Elec       q    Type
                         _______ _______ _______ _____ _____    ______ ____

>  <TORSDO>
F 4

$$$$
=
 OpenBabel11042414223D

 27 30  0  0  1  0  0  0  0  0999 V2000
  189.9260  175.8270  143.2730 C   0  0  2  0  0  3  0  0  0  0  0  0
  187.8190  175.2520  142.4820 N   0  0  0  0  0  0  0  0  0  0  0  0
  187.7470  176.5510  143.0630 C   0  0  2  0  0  3  0  0  0  0  0  0
  190.0550  177.5390  145.5860 C   0  0  0  0  0  3  0  0  0  0  0  0
  190.6950  176.1930  145.6090 C   0  0  0  0  0  0  0  0  0  0  0  0
  190.5660  175.3630  144.5560 C   0  0  0  0  0  3  0  0  0  0  0  0
  188.9330  176.8990  143.5600 C   0  0  1  0  0  3  0  0  0  0  0  0
  189.1900  177.8790  144.6220 C   0  0  0  0  0  3  0  0  0  0  0  0
  189.0280  174.8180  142.6330 C   0  0  0  0  0  0  0  0  0  0  0  0
  184.3650  178.6650  146.0530 C   0  0  0  0  0  1  0  0  0  0  0  0
  185.6610  177.5980  142.1170 C   0  0  0  0  0  3  0  0  0  0  0  0
  186.4660  177.2770  143.2210 C   0  0  0  0  0  0  0  0  0  0  0  0
  184.0260  178.6190  143.5800 C   0  0  0  0  0  3  0  0  0  0  0  0
  184.8150  178.2970  144.6850 C   0  0  0  0  0  0  0  0  0  0  0  0
  184.4480  178.2690  142.2950 C   0  0  0  0  0  0  0  0  0  0  0  0
  183.6620  178.5860  141.1950 O   0  0  0  0  0  1  0  0  0  0  0  0
  186.0290  177.6260  144.5060 C   0  0  0  0  0  3  0  0  0  0  0  0
  190.0930  171.3710  141.8620 C   0  0  0  0  0  0  0  0  0  0  0  0
  189.7050  173.2860  140.8750 N   0  0  0  0  0  0  0  0  0  0  0  0
  190.0970  171.9560  140.7130 N   0  0  0  0  0  0  0  0  0  0  0  0
  189.4640  173.5110  142.1230 C   0  0  0  0  0  0  0  0  0  0  0  0
  189.6790  172.2950  142.9590 C   0  0  0  0  0  2  0  0  0  0  0  0
  190.8260  169.2290  140.9120 C   0  0  0  0  0  1  0  0  0  0  0  0
  190.4420  170.0310  142.0170 O   0  0  0  0  0  0  0  0  0  0  0  0
  191.4060  175.7460  146.8190 C   0  0  0  0  0  0  0  0  0  0  0  0
  192.8290  175.7920  146.8830 N   0  0  0  0  0  1  0  0  0  0  0  0
  190.7600  175.3190  147.8130 O   0  0  0  0  0  0  0  0  0  0  0  0
  1  7  1  0  0  0  0
  1  6  1  1  0  0  0
  2  9  2  0  0  0  0
  2  3  1  0  0  0  0
  3 12  1  1  0  0  0
  3  7  1  0  0  0  0
  4  5  1  0  0  0  0
  5 25  1  0  0  0  0
  6  5  2  0  0  0  0
  7  8  1  1  0  0  0
  8  4  2  0  0  0  0
  9  1  1  0  0  0  0
 11 15  2  0  0  0  0
 11 12  1  0  0  0  0
 12 17  2  0  0  0  0
 13 14  2  0  0  0  0
 14 10  1  0  0  0  0
 15 13  1  0  0  0  0
 16 15  1  0  0  0  0
 17 14  1  0  0  0  0
 18 24  1  0  0  0  0
 18 22  1  0  0  0  0
 19 21  2  0  0  0  0
 20 19  1  0  0  0  0
 20 18  2  0  0  0  0
 21  9  1  0  0  0  0
 21 22  1  0  0  0  0
 23 24  1  0  0  0  0
 25 26  1  0  0  0  0
 25 27  2  0  0  0  0
M  END
>  <MODEL>
5

>  <REMARK>
 VINA RESULT:      -7.1      3.301      6.981
  Name = 
  4 active torsions:
  status: ('A' for Active; 'I' for Inactive)
    1  A    between atoms: C_4  and  O_13
    2  A    between atoms: C_5  and  C_16
    3  A    between atoms: C_6  and  C_11
    4  A    between atoms: C_21  and  C_26
                            x       y       z     vdW  Elec       q    Type
                         _______ _______ _______ _____ _____    ______ ____

>  <TORSDO>
F 4

$$$$
=
 OpenBabel11042414223D

 27 30  0  0  1  0  0  0  0  0999 V2000
  187.9750  175.6850  144.3470 C   0  0  2  0  0  3  0  0  0  0  0  0
  189.9580  175.9360  143.1630 N   0  0  0  0  0  0  0  0  0  0  0  0
  190.2660  175.4460  144.4650 C   0  0  2  0  0  3  0  0  0  0  0  0
  188.0760  176.0680  147.2000 C   0  0  0  0  0  3  0  0  0  0  0  0
  187.1690  176.9020  146.3610 C   0  0  0  0  0  0  0  0  0  0  0  0
  187.1810  176.7760  145.0190 C   0  0  0  0  0  3  0  0  0  0  0  0
  189.1520  175.3240  145.1850 C   0  0  1  0  0  3  0  0  0  0  0  0
  189.0450  175.3270  146.6500 C   0  0  0  0  0  3  0  0  0  0  0  0
  188.6780  176.1150  143.1000 C   0  0  0  0  0  0  0  0  0  0  0  0
  194.5670  177.5380  145.8700 C   0  0  0  0  0  1  0  0  0  0  0  0
  192.2350  174.0270  145.1350 C   0  0  0  0  0  3  0  0  0  0  0  0
  191.6590  175.2920  144.9420 C   0  0  0  0  0  0  0  0  0  0  0  0
  194.3180  175.0550  145.8120 C   0  0  0  0  0  3  0  0  0  0  0  0
  193.7580  176.3180  145.6170 C   0  0  0  0  0  0  0  0  0  0  0  0
  193.5580  173.9080  145.5700 C   0  0  0  0  0  0  0  0  0  0  0  0
  194.1150  172.6510  145.7620 O   0  0  0  0  0  1  0  0  0  0  0  0
  192.4340  176.4350  145.1810 C   0  0  0  0  0  3  0  0  0  0  0  0
  187.0660  176.8110  139.8560 C   0  0  0  0  0  0  0  0  0  0  0  0
  187.5860  177.8020  141.7360 N   0  0  0  0  0  0  0  0  0  0  0  0
  187.0010  177.9390  140.4760 N   0  0  0  0  0  0  0  0  0  0  0  0
  188.0100  176.5910  141.8820 C   0  0  0  0  0  0  0  0  0  0  0  0
  187.7330  175.7570  140.6760 C   0  0  0  0  0  2  0  0  0  0  0  0
  187.0910  175.6630  137.6850 C   0  0  0  0  0  1  0  0  0  0  0  0
  186.5600  176.6380  138.5690 O   0  0  0  0  0  0  0  0  0  0  0  0
  186.3130  177.9160  146.9990 C   0  0  0  0  0  0  0  0  0  0  0  0
  185.0220  178.2130  146.4720 N   0  0  0  0  0  1  0  0  0  0  0  0
  186.7150  178.5320  148.0220 O   0  0  0  0  0  0  0  0  0  0  0  0
  1  6  1  1  0  0  0
  1  7  1  0  0  0  0
  2  3  1  0  0  0  0
  3 12  1  1  0  0  0
  3  7  1  0  0  0  0
  5 25  1  0  0  0  0
  5  4  1  0  0  0  0
  6  5  2  0  0  0  0
  7  8  1  1  0  0  0
  8  4  2  0  0  0  0
  9  2  2  0  0  0  0
  9  1  1  0  0  0  0
 11 15  1  0  0  0  0
 12 11  2  0  0  0  0
 12 17  1  0  0  0  0
 14 13  1  0  0  0  0
 14 10  1  0  0  0  0
 15 16  1  0  0  0  0
 15 13  2  0  0  0  0
 17 14  2  0  0  0  0
 18 20  2  0  0  0  0
 18 22  1  0  0  0  0
 19 21  2  0  0  0  0
 20 19  1  0  0  0  0
 21  9  1  0  0  0  0
 22 21  1  0  0  0  0
 23 24  1  0  0  0  0
 24 18  1  0  0  0  0
 25 27  2  0  0  0  0
 26 25  1  0  0  0  0
M  END
>  <MODEL>
6

>  <REMARK>
 VINA RESULT:      -7.0      1.672      2.274
  Name = 
  4 active torsions:
  status: ('A' for Active; 'I' for Inactive)
    1  A    between atoms: C_4  and  O_13
    2  A    between atoms: C_5  and  C_16
    3  A    between atoms: C_6  and  C_11
    4  A    between atoms: C_21  and  C_26
                            x       y       z     vdW  Elec       q    Type
                         _______ _______ _______ _____ _____    ______ ____

>  <TORSDO>
F 4

$$$$
=
 OpenBabel11042414223D

 27 30  0  0  1  0  0  0  0  0999 V2000
  190.7830  174.6050  144.0660 C   0  0  2  0  0  3  0  0  0  0  0  0
  190.6630  176.6210  145.2150 N   0  0  0  0  0  0  0  0  0  0  0  0
  189.3380  176.1630  144.9620 C   0  0  2  0  0  3  0  0  0  0  0  0
  188.6590  174.0030  142.2160 C   0  0  0  0  0  3  0  0  0  0  0  0
  190.0730  174.0610  141.7460 C   0  0  0  0  0  0  0  0  0  0  0  0
  191.0550  174.4200  142.5960 C   0  0  0  0  0  3  0  0  0  0  0  0
  189.3690  175.0240  144.2720 C   0  0  1  0  0  3  0  0  0  0  0  0
  188.3060  174.4840  143.4140 C   0  0  0  0  0  3  0  0  0  0  0  0
  191.4820  175.7760  144.6780 C   0  0  0  0  0  0  0  0  0  0  0  0
  185.8500  179.4160  143.5110 C   0  0  0  0  0  1  0  0  0  0  0  0
  187.5900  176.9880  146.5760 C   0  0  0  0  0  3  0  0  0  0  0  0
  188.1450  176.9770  145.2870 C   0  0  0  0  0  0  0  0  0  0  0  0
  185.9040  178.5700  145.8600 C   0  0  0  0  0  3  0  0  0  0  0  0
  186.4520  178.5720  144.5760 C   0  0  0  0  0  0  0  0  0  0  0  0
  186.4730  177.7790  146.8610 C   0  0  0  0  0  0  0  0  0  0  0  0
  185.9300  177.7780  148.1390 O   0  0  0  0  0  1  0  0  0  0  0  0
  187.5700  177.7800  144.2920 C   0  0  0  0  0  3  0  0  0  0  0  0
  195.1200  176.3270  144.4060 C   0  0  0  0  0  0  0  0  0  0  0  0
  193.6120  175.6480  145.8380 N   0  0  0  0  0  0  0  0  0  0  0  0
  194.9670  175.8950  145.6100 N   0  0  0  0  0  0  0  0  0  0  0  0
  192.9400  175.9270  144.7710 C   0  0  0  0  0  0  0  0  0  0  0  0
  193.8230  176.4150  143.6720 C   0  0  0  0  0  2  0  0  0  0  0  0
  196.6260  176.6410  142.4920 C   0  0  0  0  0  1  0  0  0  0  0  0
  196.3690  176.6620  143.8870 O   0  0  0  0  0  0  0  0  0  0  0  0
  190.3810  173.7940  140.3310 C   0  0  0  0  0  0  0  0  0  0  0  0
  189.3340  173.6450  139.3750 N   0  0  0  0  0  1  0  0  0  0  0  0
  191.5780  173.6990  139.9500 O   0  0  0  0  0  0  0  0  0  0  0  0
  1  6  1  6  0  0  0
  1  7  1  0  0  0  0
  1  9  1  0  0  0  0
  3  2  1  0  0  0  0
  3 12  1  6  0  0  0
  4  8  2  0  0  0  0
  5  4  1  0  0  0  0
  5  6  2  0  0  0  0
  7  8  1  6  0  0  0
  7  3  1  0  0  0  0
  9 21  1  0  0  0  0
  9  2  2  0  0  0  0
 10 14  1  0  0  0  0
 11 15  1  0  0  0  0
 12 11  2  0  0  0  0
 13 15  2  0  0  0  0
 14 13  1  0  0  0  0
 15 16  1  0  0  0  0
 17 14  2  0  0  0  0
 17 12  1  0  0  0  0
 18 20  2  0  0  0  0
 20 19  1  0  0  0  0
 21 19  2  0  0  0  0
 22 18  1  0  0  0  0
 22 21  1  0  0  0  0
 23 24  1  0  0  0  0
 24 18  1  0  0  0  0
 25  5  1  0  0  0  0
 26 25  1  0  0  0  0
 27 25  2  0  0  0  0
M  END
>  <MODEL>
7

>  <REMARK>
 VINA RESULT:      -6.9      2.982      7.793
  Name = 
  4 active torsions:
  status: ('A' for Active; 'I' for Inactive)
    1  A    between atoms: C_4  and  O_13
    2  A    between atoms: C_5  and  C_16
    3  A    between atoms: C_6  and  C_11
    4  A    between atoms: C_21  and  C_26
                            x       y       z     vdW  Elec       q    Type
                         _______ _______ _______ _____ _____    ______ ____

>  <TORSDO>
F 4

$$$$
=
 OpenBabel11042414223D

 27 30  0  0  1  0  0  0  0  0999 V2000
  190.4760  174.5860  143.2780 C   0  0  2  0  0  3  0  0  0  0  0  0
  190.5260  176.6200  144.4000 N   0  0  0  0  0  0  0  0  0  0  0  0
  189.1690  176.2080  144.2680 C   0  0  2  0  0  3  0  0  0  0  0  0
  188.1820  174.0400  141.6240 C   0  0  0  0  0  3  0  0  0  0  0  0
  189.5520  174.0390  141.0350 C   0  0  0  0  0  0  0  0  0  0  0  0
  190.6150  174.3720  141.7920 C   0  0  0  0  0  3  0  0  0  0  0  0
  189.1000  175.0600  143.5960 C   0  0  1  0  0  3  0  0  0  0  0  0
  187.9500  174.5490  142.8390 C   0  0  0  0  0  3  0  0  0  0  0  0
  191.2660  175.7380  143.8090 C   0  0  0  0  0  0  0  0  0  0  0  0
  186.0160  177.7320  147.8150 C   0  0  0  0  0  1  0  0  0  0  0  0
  187.3980  177.9270  143.7700 C   0  0  0  0  0  3  0  0  0  0  0  0
  188.0380  177.0700  144.6790 C   0  0  0  0  0  0  0  0  0  0  0  0
  185.8710  178.6560  145.5000 C   0  0  0  0  0  3  0  0  0  0  0  0
  186.4960  177.8020  146.4100 C   0  0  0  0  0  0  0  0  0  0  0  0
  186.3200  178.7180  144.1790 C   0  0  0  0  0  0  0  0  0  0  0  0
  185.6980  179.5650  143.2720 O   0  0  0  0  0  1  0  0  0  0  0  0
  187.5730  177.0100  146.0000 C   0  0  0  0  0  3  0  0  0  0  0  0
  194.8930  176.0200  143.1960 C   0  0  0  0  0  0  0  0  0  0  0  0
  193.4650  175.8070  144.8390 N   0  0  0  0  0  0  0  0  0  0  0  0
  194.8080  175.9200  144.4780 N   0  0  0  0  0  0  0  0  0  0  0  0
  192.7310  175.8360  143.7770 C   0  0  0  0  0  0  0  0  0  0  0  0
  193.5530  175.9810  142.5400 C   0  0  0  0  0  2  0  0  0  0  0  0
  197.2130  176.8230  143.1310 C   0  0  0  0  0  1  0  0  0  0  0  0
  196.1150  176.1480  142.5380 O   0  0  0  0  0  0  0  0  0  0  0  0
  189.7290  173.7430  139.6030 C   0  0  0  0  0  0  0  0  0  0  0  0
  188.6290  173.8340  138.7010 N   0  0  0  0  0  1  0  0  0  0  0  0
  190.8600  173.4090  139.1600 O   0  0  0  0  0  0  0  0  0  0  0  0
  1  6  1  6  0  0  0
  1  7  1  0  0  0  0
  1  9  1  0  0  0  0
  3  2  1  0  0  0  0
  3 12  1  6  0  0  0
  4  8  2  0  0  0  0
  5  4  1  0  0  0  0
  5  6  2  0  0  0  0
  7  8  1  6  0  0  0
  7  3  1  0  0  0  0
  9  2  2  0  0  0  0
 11 15  2  0  0  0  0
 11 12  1  0  0  0  0
 12 17  2  0  0  0  0
 13 14  2  0  0  0  0
 14 10  1  0  0  0  0
 15 13  1  0  0  0  0
 16 15  1  0  0  0  0
 17 14  1  0  0  0  0
 18 20  2  0  0  0  0
 20 19  1  0  0  0  0
 21  9  1  0  0  0  0
 21 19  2  0  0  0  0
 22 18  1  0  0  0  0
 22 21  1  0  0  0  0
 24 23  1  0  0  0  0
 24 18  1  0  0  0  0
 25  5  1  0  0  0  0
 26 25  1  0  0  0  0
 27 25  2  0  0  0  0
M  END
>  <MODEL>
8

>  <REMARK>
 VINA RESULT:      -6.8      3.209      7.734
  Name = 
  4 active torsions:
  status: ('A' for Active; 'I' for Inactive)
    1  A    between atoms: C_4  and  O_13
    2  A    between atoms: C_5  and  C_16
    3  A    between atoms: C_6  and  C_11
    4  A    between atoms: C_21  and  C_26
                            x       y       z     vdW  Elec       q    Type
                         _______ _______ _______ _____ _____    ______ ____

>  <TORSDO>
F 4

$$$$
=
 OpenBabel11042414223D

 27 30  0  0  1  0  0  0  0  0999 V2000
  190.7560  174.6350  145.7620 C   0  0  2  0  0  3  0  0  0  0  0  0
  189.3130  174.3250  143.9680 N   0  0  0  0  0  0  0  0  0  0  0  0
  190.4090  173.4260  143.8300 C   0  0  2  0  0  3  0  0  0  0  0  0
  193.5610  174.1680  145.3050 C   0  0  0  0  0  3  0  0  0  0  0  0
  193.0880  175.4980  145.7870 C   0  0  0  0  0  0  0  0  0  0  0  0
  191.7700  175.7380  145.9250 C   0  0  0  0  0  3  0  0  0  0  0  0
  191.2770  173.6010  144.8250 C   0  0  1  0  0  3  0  0  0  0  0  0
  192.7060  173.2620  144.8200 C   0  0  0  0  0  3  0  0  0  0  0  0
  189.5200  175.0400  145.0270 C   0  0  0  0  0  0  0  0  0  0  0  0
  191.1610  173.0540  138.9160 C   0  0  0  0  0  1  0  0  0  0  0  0
  190.5300  171.1750  142.7080 C   0  0  0  0  0  3  0  0  0  0  0  0
  190.5870  172.5750  142.6310 C   0  0  0  0  0  0  0  0  0  0  0  0
  190.8920  171.0080  140.3210 C   0  0  0  0  0  3  0  0  0  0  0  0
  190.9440  172.4000  140.2320 C   0  0  0  0  0  0  0  0  0  0  0  0
  190.6840  170.3940  141.5580 C   0  0  0  0  0  0  0  0  0  0  0  0
  190.6300  169.0100  141.6470 O   0  0  0  0  0  1  0  0  0  0  0  0
  190.7890  173.1800  141.3830 C   0  0  0  0  0  3  0  0  0  0  0  0
  187.1230  177.3300  146.6460 C   0  0  0  0  0  0  0  0  0  0  0  0
  188.1620  177.0330  144.7420 N   0  0  0  0  0  0  0  0  0  0  0  0
  187.2640  177.8230  145.4630 N   0  0  0  0  0  0  0  0  0  0  0  0
  188.5660  176.0580  145.4860 C   0  0  0  0  0  0  0  0  0  0  0  0
  187.9500  176.1030  146.8440 C   0  0  0  0  0  2  0  0  0  0  0  0
  185.0270  178.4600  147.2460 C   0  0  0  0  0  1  0  0  0  0  0  0
  186.2860  177.9070  147.5980 O   0  0  0  0  0  0  0  0  0  0  0  0
  194.0650  176.5700  146.0420 C   0  0  0  0  0  0  0  0  0  0  0  0
  195.0490  176.9040  145.0660 N   0  0  0  0  0  1  0  0  0  0  0  0
  194.0390  177.2060  147.1290 O   0  0  0  0  0  0  0  0  0  0  0  0
  1  6  1  6  0  0  0
  2  9  2  0  0  0  0
  3 12  1  6  0  0  0
  3  2  1  0  0  0  0
  3  7  1  0  0  0  0
  4  5  1  0  0  0  0
  5  6  2  0  0  0  0
  5 25  1  0  0  0  0
  7  8  1  6  0  0  0
  7  1  1  0  0  0  0
  8  4  2  0  0  0  0
  9 21  1  0  0  0  0
  9  1  1  0  0  0  0
 10 14  1  0  0  0  0
 12 11  1  0  0  0  0
 13 15  1  0  0  0  0
 14 13  2  0  0  0  0
 14 17  1  0  0  0  0
 15 16  1  0  0  0  0
 15 11  2  0  0  0  0
 17 12  2  0  0  0  0
 18 22  1  0  0  0  0
 18 24  1  0  0  0  0
 19 20  1  0  0  0  0
 19 21  2  0  0  0  0
 20 18  2  0  0  0  0
 21 22  1  0  0  0  0
 23 24  1  0  0  0  0
 25 27  2  0  0  0  0
 26 25  1  0  0  0  0
M  END
>  <MODEL>
9

>  <REMARK>
 VINA RESULT:      -6.5      3.460      6.050
  Name = 
  4 active torsions:
  status: ('A' for Active; 'I' for Inactive)
    1  A    between atoms: C_4  and  O_13
    2  A    between atoms: C_5  and  C_16
    3  A    between atoms: C_6  and  C_11
    4  A    between atoms: C_21  and  C_26
                            x       y       z     vdW  Elec       q    Type
                         _______ _______ _______ _____ _____    ______ ____

>  <TORSDO>
F 4

$$$$
