=
 OpenBabel11042418363D

 37 42  0  0  1  0  0  0  0  0999 V2000
  190.2020  176.7530  143.3070 C   0  0  0  0  0  0  0  0  0  0  0  0
  191.5440  174.6490  143.0740 C   0  0  0  0  0  0  0  0  0  0  0  0
  194.8980  175.5660  144.1190 N   0  0  0  0  0  0  0  0  0  0  0  0
  189.3750  174.6290  142.5730 N   0  0  0  0  0  0  0  0  0  0  0  0
  187.7690  176.3900  142.7170 C   0  0  0  0  0  3  0  0  0  0  0  0
  191.5860  177.5990  143.8650 S   0  0  0  0  0  0  0  0  0  0  0  0
  194.3710  173.2900  143.3950 N   0  0  0  0  0  1  0  0  0  0  0  0
  192.7660  175.1830  143.5000 C   0  0  0  0  0  0  0  0  0  0  0  0
  192.9200  176.5520  143.9070 C   0  0  0  0  0  0  0  0  0  0  0  0
  194.0190  174.6420  143.6580 C   0  0  0  0  0  0  0  0  0  0  0  0
  189.8790  173.3900  142.3820 C   0  0  0  0  0  0  0  0  0  0  0  0
  188.8520  177.4150  143.0910 C   0  0  2  0  0  0  0  0  0  0  0  0
  191.2440  173.3520  142.6730 C   0  0  0  0  0  3  0  0  0  0  0  0
  194.2340  176.7420  144.2740 C   0  0  0  0  0  3  0  0  0  0  0  0
  188.0290  175.0990  142.4590 C   0  0  0  0  0  3  0  0  0  0  0  0
  189.0160  178.3830  141.9200 C   0  0  0  0  0  1  0  0  0  0  0  0
  190.3770  175.3970  142.9920 C   0  0  0  0  0  0  0  0  0  0  0  0
  188.5180  178.1070  144.2850 O   0  0  0  0  0  0  0  0  0  0  0  0
  187.8200  177.2610  145.1710 C   0  0  1  0  0  3  0  0  0  0  0  0
  189.6880  174.5830  147.0910 C   0  0  0  0  0  3  0  0  0  0  0  0
  188.7860  176.6080  146.1080 C   0  0  0  0  0  0  0  0  0  0  0  0
  190.6160  175.3440  147.8120 C   0  0  0  0  0  3  0  0  0  0  0  0
  189.7240  177.3690  146.8240 C   0  0  0  0  0  3  0  0  0  0  0  0
  190.6340  176.7360  147.6770 C   0  0  0  0  0  3  0  0  0  0  0  0
  188.7760  175.2150  146.2400 C   0  0  0  0  0  3  0  0  0  0  0  0
  185.4950  178.2480  145.4310 C   0  0  0  0  0  0  0  0  0  0  0  0
  184.6530  178.8940  146.1650 N   0  0  0  0  0  2  0  0  0  0  0  0
  186.8240  178.0340  145.9110 N   0  0  0  0  0  2  0  0  0  0  0  0
  185.0740  177.7690  144.0830 C   0  0  0  0  0  1  0  0  0  0  0  0
  189.0880  172.2280  141.8760 C   0  0  0  0  0  2  0  0  0  0  0  0
  188.2120  172.8910  139.6960 N   0  0  0  0  0  0  0  0  0  0  0  0
  189.0750  172.2260  140.3870 C   0  0  1  0  0  3  0  0  0  0  0  0
  189.7450  171.8640  138.3120 C   0  0  0  0  0  0  0  0  0  0  0  0
  190.0720  171.5700  139.5610 C   0  0  0  0  0  3  0  0  0  0  0  0
  188.5240  172.7280  138.2830 C   0  0  0  0  0  3  0  0  0  0  0  0
  190.5340  171.3940  137.1270 C   0  0  0  0  0  2  0  0  0  0  0  0
  189.6520  171.1350  135.9180 C   0  0  0  0  0  1  0  0  0  0  0  0
  1  6  1  0  0  0  0
  2  8  2  0  0  0  0
  3 14  1  0  0  0  0
  4 17  1  0  0  0  0
  5 12  1  0  0  0  0
  6  9  1  0  0  0  0
  7 10  1  0  0  0  0
  8 10  1  0  0  0  0
  8  9  1  0  0  0  0
  9 14  2  0  0  0  0
 10  3  2  0  0  0  0
 11  4  1  0  0  0  0
 11 13  2  0  0  0  0
 12 16  1  6  0  0  0
 12  1  1  0  0  0  0
 12 18  1  0  0  0  0
 13  2  1  0  0  0  0
 15  4  1  0  0  0  0
 15  5  2  0  0  0  0
 17  2  1  0  0  0  0
 17  1  2  0  0  0  0
 19 18  1  6  0  0  0
 19 28  1  0  0  0  0
 19 21  1  0  0  0  0
 20 22  1  0  0  0  0
 21 25  1  0  0  0  0
 21 23  2  0  0  0  0
 23 24  1  0  0  0  0
 24 22  2  0  0  0  0
 25 20  2  0  0  0  0
 26 28  1  0  0  0  0
 26 27  2  0  0  0  0
 29 26  1  0  0  0  0
 30 11  1  0  0  0  0
 31 32  1  0  0  0  0
 32 30  1  1  0  0  0
 33 34  2  0  0  0  0
 34 32  1  0  0  0  0
 35 33  1  0  0  0  0
 35 31  2  0  0  0  0
 36 33  1  0  0  0  0
 37 36  1  0  0  0  0
M  END
>  <MODEL>
1

>  <REMARK>
 VINA RESULT:      -7.5      0.000      0.000
  Name = 
  7 active torsions:
  status: ('A' for Active; 'I' for Inactive)
    1  A    between atoms: C_5  and  C_6
    2  A    between atoms: C_6  and  O_19
    3  A    between atoms: C_6  and  N_36
    4  A    between atoms: C_8  and  C_13
    5  A    between atoms: C_11  and  C_22
    6  A    between atoms: O_19  and  C_28
    7  A    between atoms: C_22  and  C_27
                            x       y       z     vdW  Elec       q    Type
                         _______ _______ _______ _____ _____    ______ ____

>  <TORSDO>
F 7

$$$$
=
 OpenBabel11042418363D

 37 42  0  0  1  0  0  0  0  0999 V2000
  192.7880  174.9040  142.4920 C   0  0  0  0  0  0  0  0  0  0  0  0
  190.3700  174.6070  141.9000 C   0  0  0  0  0  0  0  0  0  0  0  0
  190.2280  171.4340  140.1390 N   0  0  0  0  0  0  0  0  0  0  0  0
  191.0100  176.4160  143.0300 N   0  0  0  0  0  0  0  0  0  0  0  0
  193.1820  177.0220  143.8180 C   0  0  0  0  0  3  0  0  0  0  0  0
  193.1760  173.4080  141.7460 S   0  0  0  0  0  0  0  0  0  0  0  0
  188.2140  172.7710  140.5150 N   0  0  0  0  0  1  0  0  0  0  0  0
  190.5100  173.3780  141.2450 C   0  0  0  0  0  0  0  0  0  0  0  0
  191.7710  172.7040  141.1090 C   0  0  0  0  0  0  0  0  0  0  0  0
  189.6120  172.5400  140.6280 C   0  0  0  0  0  0  0  0  0  0  0  0
  189.6750  176.4700  142.8380 C   0  0  0  0  0  0  0  0  0  0  0  0
  193.8300  175.8230  143.1070 C   0  0  2  0  0  0  0  0  0  0  0  0
  189.2230  175.3600  142.1220 C   0  0  0  0  0  3  0  0  0  0  0  0
  191.5530  171.5260  140.4290 C   0  0  0  0  0  3  0  0  0  0  0  0
  191.8690  177.2980  143.7560 C   0  0  0  0  0  3  0  0  0  0  0  0
  194.6840  176.3550  141.9570 C   0  0  0  0  0  1  0  0  0  0  0  0
  191.4400  175.2900  142.4640 C   0  0  0  0  0  0  0  0  0  0  0  0
  194.6070  175.0480  144.0070 O   0  0  0  0  0  0  0  0  0  0  0  0
  193.7810  174.2200  144.7930 C   0  0  1  0  0  3  0  0  0  0  0  0
  196.5930  171.9430  145.9130 C   0  0  0  0  0  3  0  0  0  0  0  0
  194.5290  172.9840  145.1810 C   0  0  0  0  0  0  0  0  0  0  0  0
  195.9510  170.7010  145.9650 C   0  0  0  0  0  3  0  0  0  0  0  0
  193.8830  171.7390  145.2430 C   0  0  0  0  0  3  0  0  0  0  0  0
  194.5960  170.6000  145.6310 C   0  0  0  0  0  3  0  0  0  0  0  0
  195.8820  173.0820  145.5230 C   0  0  0  0  0  3  0  0  0  0  0  0
  191.9980  174.8730  146.4790 C   0  0  0  0  0  0  0  0  0  0  0  0
  191.6920  175.5000  147.5640 N   0  0  0  0  0  2  0  0  0  0  0  0
  193.3340  174.9480  145.9790 N   0  0  0  0  0  2  0  0  0  0  0  0
  190.9430  174.1100  145.7530 C   0  0  0  0  0  1  0  0  0  0  0  0
  188.8050  177.5970  143.2890 C   0  0  0  0  0  2  0  0  0  0  0  0
  188.5720  176.6710  145.5360 N   0  0  0  0  0  0  0  0  0  0  0  0
  188.0240  177.1930  144.4910 C   0  0  0  0  0  0  0  0  0  0  0  0
  186.3130  176.9900  145.8760 C   0  0  0  0  0  0  0  0  0  0  0  0
  186.6010  177.4260  144.6590 C   0  0  0  0  0  3  0  0  0  0  0  0
  187.5430  176.4620  146.5440 C   0  0  0  0  0  2  0  0  0  0  0  0
  184.9370  177.0610  146.4660 C   0  0  0  0  0  2  0  0  0  0  0  0
  184.2480  178.3790  146.1550 C   0  0  0  0  0  1  0  0  0  0  0  0
  1 12  1  0  0  0  0
  2 13  1  0  0  0  0
  2 17  1  0  0  0  0
  3 14  1  0  0  0  0
  3 10  2  0  0  0  0
  4 15  1  0  0  0  0
  6  1  1  0  0  0  0
  7 10  1  0  0  0  0
  8  2  2  0  0  0  0
  9  8  1  0  0  0  0
  9  6  1  0  0  0  0
 10  8  1  0  0  0  0
 11  4  1  0  0  0  0
 11 30  1  0  0  0  0
 12 16  1  6  0  0  0
 12  5  1  0  0  0  0
 12 18  1  0  0  0  0
 13 11  2  0  0  0  0
 14  9  2  0  0  0  0
 15  5  2  0  0  0  0
 17  1  2  0  0  0  0
 17  4  1  0  0  0  0
 19 18  1  1  0  0  0
 19 21  1  0  0  0  0
 19 28  1  0  0  0  0
 20 22  1  0  0  0  0
 21 23  2  0  0  0  0
 21 25  1  0  0  0  0
 23 24  1  0  0  0  0
 24 22  2  0  0  0  0
 25 20  2  0  0  0  0
 26 27  2  0  0  0  0
 28 26  1  0  0  0  0
 29 26  1  0  0  0  0
 30 32  1  0  0  0  0
 31 35  1  0  0  0  0
 32 34  1  0  0  0  0
 32 31  2  0  0  0  0
 33 36  1  0  0  0  0
 33 35  1  0  0  0  0
 34 33  2  0  0  0  0
 37 36  1  0  0  0  0
M  END
>  <MODEL>
2

>  <REMARK>
 VINA RESULT:      -7.3      2.607      6.863
  Name = 
  7 active torsions:
  status: ('A' for Active; 'I' for Inactive)
    1  A    between atoms: C_5  and  C_6
    2  A    between atoms: C_6  and  O_19
    3  A    between atoms: C_6  and  N_36
    4  A    between atoms: C_8  and  C_13
    5  A    between atoms: C_11  and  C_22
    6  A    between atoms: O_19  and  C_28
    7  A    between atoms: C_22  and  C_27
                            x       y       z     vdW  Elec       q    Type
                         _______ _______ _______ _____ _____    ______ ____

>  <TORSDO>
F 7

$$$$
=
 OpenBabel11042418363D

 37 42  0  0  1  0  0  0  0  0999 V2000
  190.2340  175.4420  142.7200 C   0  0  0  0  0  0  0  0  0  0  0  0
  191.1620  173.7430  141.1280 C   0  0  0  0  0  0  0  0  0  0  0  0
  194.5810  173.2110  142.2260 N   0  0  0  0  0  0  0  0  0  0  0  0
  189.0510  174.4170  140.9080 N   0  0  0  0  0  0  0  0  0  0  0  0
  187.8030  175.9560  142.2420 C   0  0  0  0  0  3  0  0  0  0  0  0
  191.7280  175.5020  143.5600 S   0  0  0  0  0  0  0  0  0  0  0  0
  193.6630  172.0110  140.3030 N   0  0  0  0  0  1  0  0  0  0  0  0
  192.4430  173.6740  141.6870 C   0  0  0  0  0  0  0  0  0  0  0  0
  192.8360  174.4430  142.8350 C   0  0  0  0  0  0  0  0  0  0  0  0
  193.5630  172.9430  141.3710 C   0  0  0  0  0  0  0  0  0  0  0  0
  189.3190  173.5000  139.9530 C   0  0  0  0  0  0  0  0  0  0  0  0
  189.0440  176.3190  143.0730 C   0  0  2  0  0  0  0  0  0  0  0  0
  190.6380  173.0520  140.0410 C   0  0  0  0  0  3  0  0  0  0  0  0
  194.1460  174.1300  143.1290 C   0  0  0  0  0  3  0  0  0  0  0  0
  187.8250  175.0830  141.2220 C   0  0  0  0  0  3  0  0  0  0  0  0
  189.4390  177.7560  142.7370 C   0  0  0  0  0  1  0  0  0  0  0  0
  190.1620  174.5700  141.6240 C   0  0  0  0  0  0  0  0  0  0  0  0
  188.7970  176.1670  144.4630 O   0  0  0  0  0  0  0  0  0  0  0  0
  188.6490  177.4240  145.0840 C   0  0  1  0  0  3  0  0  0  0  0  0
  185.1620  178.8970  145.2300 C   0  0  0  0  0  3  0  0  0  0  0  0
  187.2170  177.6310  145.4650 C   0  0  0  0  0  0  0  0  0  0  0  0
  184.5200  178.0210  146.1120 C   0  0  0  0  0  3  0  0  0  0  0  0
  186.5690  176.7480  146.3420 C   0  0  0  0  0  3  0  0  0  0  0  0
  185.2230  176.9470  146.6680 C   0  0  0  0  0  3  0  0  0  0  0  0
  186.5080  178.7000  144.9060 C   0  0  0  0  0  3  0  0  0  0  0  0
  189.9860  176.3430  146.9520 C   0  0  0  0  0  0  0  0  0  0  0  0
  190.7930  176.4870  147.9490 N   0  0  0  0  0  2  0  0  0  0  0  0
  189.5140  177.5000  146.2600 N   0  0  0  0  0  2  0  0  0  0  0  0
  189.5390  174.9740  146.5640 C   0  0  0  0  0  1  0  0  0  0  0  0
  188.3450  173.0630  138.9080 C   0  0  0  0  0  2  0  0  0  0  0  0
  189.2450  173.7880  136.7580 N   0  0  0  0  0  0  0  0  0  0  0  0
  188.4160  173.9700  137.7300 C   0  0  1  0  0  3  0  0  0  0  0  0
  187.8610  175.5810  136.3200 C   0  0  0  0  0  0  0  0  0  0  0  0
  187.5120  175.0820  137.4970 C   0  0  0  0  0  3  0  0  0  0  0  0
  189.0030  174.8050  135.7450 C   0  0  0  0  0  3  0  0  0  0  0  0
  187.1620  176.7440  135.6850 C   0  0  0  0  0  2  0  0  0  0  0  0
  188.1320  177.6860  134.9920 C   0  0  0  0  0  1  0  0  0  0  0  0
  1 12  1  0  0  0  0
  1  6  1  0  0  0  0
  2 17  1  0  0  0  0
  2  8  2  0  0  0  0
  3 14  1  0  0  0  0
  4 15  1  0  0  0  0
  4 17  1  0  0  0  0
  5 12  1  0  0  0  0
  7 10  1  0  0  0  0
  8  9  1  0  0  0  0
  9 14  2  0  0  0  0
  9  6  1  0  0  0  0
 10  8  1  0  0  0  0
 10  3  2  0  0  0  0
 11 13  2  0  0  0  0
 11  4  1  0  0  0  0
 12 16  1  6  0  0  0
 12 18  1  0  0  0  0
 13  2  1  0  0  0  0
 15  5  2  0  0  0  0
 17  1  2  0  0  0  0
 19 18  1  1  0  0  0
 19 21  1  0  0  0  0
 19 28  1  0  0  0  0
 20 22  1  0  0  0  0
 21 23  2  0  0  0  0
 22 24  2  0  0  0  0
 23 24  1  0  0  0  0
 25 20  2  0  0  0  0
 25 21  1  0  0  0  0
 26 27  2  0  0  0  0
 28 26  1  0  0  0  0
 29 26  1  0  0  0  0
 30 11  1  0  0  0  0
 31 32  1  0  0  0  0
 32 30  1  6  0  0  0
 33 34  2  0  0  0  0
 34 32  1  0  0  0  0
 35 33  1  0  0  0  0
 35 31  2  0  0  0  0
 36 33  1  0  0  0  0
 37 36  1  0  0  0  0
M  END
>  <MODEL>
3

>  <REMARK>
 VINA RESULT:      -7.2      2.299      3.788
  Name = 
  7 active torsions:
  status: ('A' for Active; 'I' for Inactive)
    1  A    between atoms: C_5  and  C_6
    2  A    between atoms: C_6  and  O_19
    3  A    between atoms: C_6  and  N_36
    4  A    between atoms: C_8  and  C_13
    5  A    between atoms: C_11  and  C_22
    6  A    between atoms: O_19  and  C_28
    7  A    between atoms: C_22  and  C_27
                            x       y       z     vdW  Elec       q    Type
                         _______ _______ _______ _____ _____    ______ ____

>  <TORSDO>
F 7

$$$$
=
 OpenBabel11042418363D

 37 42  0  0  1  0  0  0  0  0999 V2000
  190.5230  173.7580  143.0470 C   0  0  0  0  0  0  0  0  0  0  0  0
  189.5500  175.6830  144.3240 C   0  0  0  0  0  0  0  0  0  0  0  0
  191.7130  176.0670  147.2160 N   0  0  0  0  0  0  0  0  0  0  0  0
  188.5970  175.0350  142.4190 N   0  0  0  0  0  0  0  0  0  0  0  0
  189.2510  173.3060  140.9070 C   0  0  0  0  0  3  0  0  0  0  0  0
  191.7660  173.5830  144.2170 S   0  0  0  0  0  0  0  0  0  0  0  0
  189.7880  177.5360  146.8640 N   0  0  0  0  0  1  0  0  0  0  0  0
  190.4810  175.6760  145.3700 C   0  0  0  0  0  0  0  0  0  0  0  0
  191.5740  174.7470  145.4350 C   0  0  0  0  0  0  0  0  0  0  0  0
  190.6320  176.4530  146.4930 C   0  0  0  0  0  0  0  0  0  0  0  0
  187.9100  176.0870  142.9170 C   0  0  0  0  0  0  0  0  0  0  0  0
  190.3650  172.8300  141.8540 C   0  0  2  0  0  0  0  0  0  0  0  0
  188.4630  176.5250  144.1210 C   0  0  0  0  0  3  0  0  0  0  0  0
  192.2980  175.0200  146.5750 C   0  0  0  0  0  3  0  0  0  0  0  0
  188.4220  174.3220  141.1920 C   0  0  0  0  0  3  0  0  0  0  0  0
  189.9690  171.4630  142.4060 C   0  0  0  0  0  1  0  0  0  0  0  0
  189.5920  174.7840  143.2660 C   0  0  0  0  0  0  0  0  0  0  0  0
  191.6180  172.7720  141.1880 O   0  0  0  0  0  0  0  0  0  0  0  0
  191.4400  172.5040  139.8160 C   0  0  1  0  0  3  0  0  0  0  0  0
  192.5070  174.7500  136.9580 C   0  0  0  0  0  3  0  0  0  0  0  0
  192.2330  173.4800  139.0060 C   0  0  0  0  0  0  0  0  0  0  0  0
  193.6610  175.3440  137.4790 C   0  0  0  0  0  3  0  0  0  0  0  0
  193.3860  174.0840  139.5300 C   0  0  0  0  0  3  0  0  0  0  0  0
  194.1000  175.0120  138.7650 C   0  0  0  0  0  3  0  0  0  0  0  0
  191.7940  173.8210  137.7210 C   0  0  0  0  0  3  0  0  0  0  0  0
  191.0490  170.2270  138.7610 C   0  0  0  0  0  0  0  0  0  0  0  0
  191.5030  169.0490  138.4940 N   0  0  0  0  0  2  0  0  0  0  0  0
  191.8520  171.1320  139.5220 N   0  0  0  0  0  2  0  0  0  0  0  0
  189.6830  170.6070  138.2990 C   0  0  0  0  0  1  0  0  0  0  0  0
  186.6880  176.6690  142.2840 C   0  0  0  0  0  2  0  0  0  0  0  0
  186.1400  178.9670  142.8990 N   0  0  0  0  0  0  0  0  0  0  0  0
  186.0960  177.7060  143.1720 C   0  0  0  0  0  0  0  0  0  0  0  0
  184.9270  178.5940  144.8250 C   0  0  0  0  0  0  0  0  0  0  0  0
  185.3320  177.4170  144.3720 C   0  0  0  0  0  3  0  0  0  0  0  0
  185.4110  179.6910  143.9300 C   0  0  0  0  0  2  0  0  0  0  0  0
  184.0820  178.7510  146.0530 C   0  0  0  0  0  2  0  0  0  0  0  0
  184.8500  178.4210  147.3220 C   0  0  0  0  0  1  0  0  0  0  0  0
  1 17  2  0  0  0  0
  1  6  1  0  0  0  0
  2  8  2  0  0  0  0
  4 11  1  0  0  0  0
  4 17  1  0  0  0  0
  5 15  2  0  0  0  0
  5 12  1  0  0  0  0
  6  9  1  0  0  0  0
  8  9  1  0  0  0  0
  8 10  1  0  0  0  0
  9 14  2  0  0  0  0
 10  7  1  0  0  0  0
 10  3  2  0  0  0  0
 11 13  2  0  0  0  0
 12 16  1  1  0  0  0
 12  1  1  0  0  0  0
 13  2  1  0  0  0  0
 14  3  1  0  0  0  0
 15  4  1  0  0  0  0
 17  2  1  0  0  0  0
 18 12  1  0  0  0  0
 19 28  1  1  0  0  0
 19 18  1  0  0  0  0
 20 22  2  0  0  0  0
 20 25  1  0  0  0  0
 21 23  1  0  0  0  0
 21 19  1  0  0  0  0
 22 24  1  0  0  0  0
 24 23  2  0  0  0  0
 25 21  2  0  0  0  0
 26 28  1  0  0  0  0
 27 26  2  0  0  0  0
 29 26  1  0  0  0  0
 30 11  1  0  0  0  0
 30 32  1  0  0  0  0
 31 32  2  0  0  0  0
 31 35  1  0  0  0  0
 32 34  1  0  0  0  0
 33 36  1  0  0  0  0
 34 33  2  0  0  0  0
 35 33  1  0  0  0  0
 36 37  1  0  0  0  0
M  END
>  <MODEL>
4

>  <REMARK>
 VINA RESULT:      -7.2      2.826      7.873
  Name = 
  7 active torsions:
  status: ('A' for Active; 'I' for Inactive)
    1  A    between atoms: C_5  and  C_6
    2  A    between atoms: C_6  and  O_19
    3  A    between atoms: C_6  and  N_36
    4  A    between atoms: C_8  and  C_13
    5  A    between atoms: C_11  and  C_22
    6  A    between atoms: O_19  and  C_28
    7  A    between atoms: C_22  and  C_27
                            x       y       z     vdW  Elec       q    Type
                         _______ _______ _______ _____ _____    ______ ____

>  <TORSDO>
F 7

$$$$
=
 OpenBabel11042418363D

 37 42  0  0  1  0  0  0  0  0999 V2000
  192.2860  173.3820  143.7440 C   0  0  0  0  0  0  0  0  0  0  0  0
  192.7990  175.3940  145.1480 C   0  0  0  0  0  0  0  0  0  0  0  0
  196.0110  176.5780  143.9370 N   0  0  0  0  0  0  0  0  0  0  0  0
  190.8970  174.2840  145.4730 N   0  0  0  0  0  0  0  0  0  0  0  0
  190.0350  172.3810  144.3170 C   0  0  0  0  0  3  0  0  0  0  0  0
  193.7580  173.5810  142.8840 S   0  0  0  0  0  0  0  0  0  0  0  0
  194.8390  177.7200  145.7550 N   0  0  0  0  0  1  0  0  0  0  0  0
  194.0330  175.6970  144.5590 C   0  0  0  0  0  0  0  0  0  0  0  0
  194.5940  174.9290  143.4830 C   0  0  0  0  0  0  0  0  0  0  0  0
  194.9570  176.6890  144.7820 C   0  0  0  0  0  0  0  0  0  0  0  0
  190.9470  175.3270  146.3300 C   0  0  0  0  0  0  0  0  0  0  0  0
  191.3280  172.2280  143.4990 C   0  0  2  0  0  0  0  0  0  0  0  0
  192.1300  176.0510  146.1740 C   0  0  0  0  0  3  0  0  0  0  0  0
  195.7990  175.5000  143.1350 C   0  0  0  0  0  3  0  0  0  0  0  0
  189.8550  173.3310  145.2470 C   0  0  0  0  0  3  0  0  0  0  0  0
  192.0380  170.9580  143.9630 C   0  0  0  0  0  1  0  0  0  0  0  0
  192.0150  174.3180  144.7530 C   0  0  0  0  0  0  0  0  0  0  0  0
  191.0560  172.1850  142.1070 O   0  0  0  0  0  0  0  0  0  0  0  0
  190.7130  173.4650  141.6260 C   0  0  1  0  0  3  0  0  0  0  0  0
  190.3620  173.5350  137.8550 C   0  0  0  0  0  3  0  0  0  0  0  0
  191.0640  173.5700  140.1760 C   0  0  0  0  0  0  0  0  0  0  0  0
  191.6720  173.8130  137.4520 C   0  0  0  0  0  3  0  0  0  0  0  0
  192.3760  173.8590  139.7710 C   0  0  0  0  0  3  0  0  0  0  0  0
  192.6790  173.9750  138.4100 C   0  0  0  0  0  3  0  0  0  0  0  0
  190.0590  173.4150  139.2150 C   0  0  0  0  0  3  0  0  0  0  0  0
  188.7580  174.9760  142.2140 C   0  0  0  0  0  0  0  0  0  0  0  0
  187.4810  175.1260  142.3220 N   0  0  0  0  0  2  0  0  0  0  0  0
  189.2850  173.7040  141.8320 N   0  0  0  0  0  2  0  0  0  0  0  0
  189.6580  176.1240  142.5230 C   0  0  0  0  0  1  0  0  0  0  0  0
  189.8960  175.6310  147.3470 C   0  0  0  0  0  2  0  0  0  0  0  0
  188.9230  177.1860  145.7360 N   0  0  0  0  0  0  0  0  0  0  0  0
  188.7620  176.3550  146.7110 C   0  0  1  0  0  3  0  0  0  0  0  0
  186.6820  176.9130  146.2100 C   0  0  0  0  0  0  0  0  0  0  0  0
  187.3650  176.1390  147.0400 C   0  0  0  0  0  3  0  0  0  0  0  0
  187.6140  177.6570  145.3070 C   0  0  0  0  0  3  0  0  0  0  0  0
  185.1850  176.9810  146.1990 C   0  0  0  0  0  2  0  0  0  0  0  0
  184.6700  178.3400  146.6410 C   0  0  0  0  0  1  0  0  0  0  0  0
  1 17  2  0  0  0  0
  2 13  1  0  0  0  0
  3 10  2  0  0  0  0
  4 11  1  0  0  0  0
  5 15  2  0  0  0  0
  6  9  1  0  0  0  0
  6  1  1  0  0  0  0
  8 10  1  0  0  0  0
  8  2  2  0  0  0  0
  9  8  1  0  0  0  0
 10  7  1  0  0  0  0
 11 30  1  0  0  0  0
 12  1  1  0  0  0  0
 12 16  1  1  0  0  0
 12  5  1  0  0  0  0
 13 11  2  0  0  0  0
 14  9  2  0  0  0  0
 14  3  1  0  0  0  0
 15  4  1  0  0  0  0
 17  2  1  0  0  0  0
 17  4  1  0  0  0  0
 18 12  1  0  0  0  0
 19 28  1  6  0  0  0
 19 18  1  0  0  0  0
 20 25  1  0  0  0  0
 21 19  1  0  0  0  0
 22 20  2  0  0  0  0
 22 24  1  0  0  0  0
 23 21  1  0  0  0  0
 24 23  2  0  0  0  0
 25 21  2  0  0  0  0
 26 27  2  0  0  0  0
 26 29  1  0  0  0  0
 28 26  1  0  0  0  0
 31 32  1  0  0  0  0
 32 34  1  0  0  0  0
 32 30  1  6  0  0  0
 33 34  2  0  0  0  0
 35 31  2  0  0  0  0
 35 33  1  0  0  0  0
 36 33  1  0  0  0  0
 36 37  1  0  0  0  0
M  END
>  <MODEL>
5

>  <REMARK>
 VINA RESULT:      -7.2      2.310      6.820
  Name = 
  7 active torsions:
  status: ('A' for Active; 'I' for Inactive)
    1  A    between atoms: C_5  and  C_6
    2  A    between atoms: C_6  and  O_19
    3  A    between atoms: C_6  and  N_36
    4  A    between atoms: C_8  and  C_13
    5  A    between atoms: C_11  and  C_22
    6  A    between atoms: O_19  and  C_28
    7  A    between atoms: C_22  and  C_27
                            x       y       z     vdW  Elec       q    Type
                         _______ _______ _______ _____ _____    ______ ____

>  <TORSDO>
F 7

$$$$
=
 OpenBabel11042418363D

 37 42  0  0  1  0  0  0  0  0999 V2000
  189.3070  174.3970  142.5370 C   0  0  0  0  0  0  0  0  0  0  0  0
  189.9970  172.6620  140.8650 C   0  0  0  0  0  0  0  0  0  0  0  0
  192.0950  170.3580  142.7300 N   0  0  0  0  0  0  0  0  0  0  0  0
  188.6600  174.3260  140.2330 N   0  0  0  0  0  0  0  0  0  0  0  0
  187.7480  176.1140  141.5260 C   0  0  0  0  0  3  0  0  0  0  0  0
  190.1990  173.5980  143.7660 S   0  0  0  0  0  0  0  0  0  0  0  0
  191.6350  170.0170  140.3510 N   0  0  0  0  0  1  0  0  0  0  0  0
  190.7780  171.8930  141.7370 C   0  0  0  0  0  0  0  0  0  0  0  0
  190.9490  172.2190  143.1250 C   0  0  0  0  0  0  0  0  0  0  0  0
  191.5080  170.7410  141.5690 C   0  0  0  0  0  0  0  0  0  0  0  0
  188.8840  173.5180  139.1740 C   0  0  0  0  0  0  0  0  0  0  0  0
  188.5660  175.7040  142.7620 C   0  0  2  0  0  0  0  0  0  0  0  0
  189.7280  172.4600  139.5160 C   0  0  0  0  0  3  0  0  0  0  0  0
  191.7590  171.2590  143.6910 C   0  0  0  0  0  3  0  0  0  0  0  0
  187.8170  175.4750  140.3480 C   0  0  0  0  0  3  0  0  0  0  0  0
  189.6260  176.7760  143.0090 C   0  0  0  0  0  1  0  0  0  0  0  0
  189.3310  173.8140  141.2620 C   0  0  0  0  0  0  0  0  0  0  0  0
  187.7330  175.5350  143.8990 O   0  0  0  0  0  0  0  0  0  0  0  0
  188.0760  176.4560  144.9100 C   0  0  1  0  0  3  0  0  0  0  0  0
  185.5550  179.2790  144.7610 C   0  0  0  0  0  3  0  0  0  0  0  0
  186.8940  177.3130  145.2330 C   0  0  0  0  0  0  0  0  0  0  0  0
  184.6600  178.9150  145.7730 C   0  0  0  0  0  3  0  0  0  0  0  0
  185.9890  176.9440  146.2410 C   0  0  0  0  0  3  0  0  0  0  0  0
  184.8770  177.7470  146.5120 C   0  0  0  0  0  3  0  0  0  0  0  0
  186.6690  178.4770  144.4910 C   0  0  0  0  0  3  0  0  0  0  0  0
  189.8330  175.9270  146.6650 C   0  0  0  0  0  0  0  0  0  0  0  0
  190.1480  175.3000  147.7480 N   0  0  0  0  0  2  0  0  0  0  0  0
  188.5360  175.7380  146.0980 N   0  0  0  0  0  2  0  0  0  0  0  0
  190.8410  176.8100  146.0120 C   0  0  0  0  0  1  0  0  0  0  0  0
  188.3380  173.7560  137.8040 C   0  0  0  0  0  2  0  0  0  0  0  0
  190.3270  174.0650  136.4220 N   0  0  0  0  0  0  0  0  0  0  0  0
  189.3270  173.3290  136.7770 C   0  0  1  0  0  3  0  0  0  0  0  0
  190.4050  172.0190  135.3580 C   0  0  0  0  0  0  0  0  0  0  0  0
  189.3370  172.0230  136.1430 C   0  0  0  0  0  3  0  0  0  0  0  0
  191.1290  173.3240  135.4590 C   0  0  0  0  0  3  0  0  0  0  0  0
  190.8020  170.8400  134.5240 C   0  0  0  0  0  2  0  0  0  0  0  0
  191.3890  169.7170  135.3620 C   0  0  0  0  0  1  0  0  0  0  0  0
  1 12  1  0  0  0  0
  1  6  1  0  0  0  0
  2 17  1  0  0  0  0
  2  8  2  0  0  0  0
  3 14  1  0  0  0  0
  4 15  1  0  0  0  0
  4 17  1  0  0  0  0
  5 12  1  0  0  0  0
  7 10  1  0  0  0  0
  8  9  1  0  0  0  0
  9 14  2  0  0  0  0
  9  6  1  0  0  0  0
 10  8  1  0  0  0  0
 10  3  2  0  0  0  0
 11 13  2  0  0  0  0
 11  4  1  0  0  0  0
 12 16  1  1  0  0  0
 12 18  1  0  0  0  0
 13  2  1  0  0  0  0
 15  5  2  0  0  0  0
 17  1  2  0  0  0  0
 19 18  1  6  0  0  0
 19 21  1  0  0  0  0
 19 28  1  0  0  0  0
 20 22  1  0  0  0  0
 21 23  2  0  0  0  0
 22 24  2  0  0  0  0
 23 24  1  0  0  0  0
 25 20  2  0  0  0  0
 25 21  1  0  0  0  0
 26 27  2  0  0  0  0
 28 26  1  0  0  0  0
 29 26  1  0  0  0  0
 30 11  1  0  0  0  0
 31 32  1  0  0  0  0
 32 30  1  1  0  0  0
 33 35  1  0  0  0  0
 33 34  2  0  0  0  0
 34 32  1  0  0  0  0
 35 31  2  0  0  0  0
 36 33  1  0  0  0  0
 36 37  1  0  0  0  0
M  END
>  <MODEL>
6

>  <REMARK>
 VINA RESULT:      -7.1      2.410      4.190
  Name = 
  7 active torsions:
  status: ('A' for Active; 'I' for Inactive)
    1  A    between atoms: C_5  and  C_6
    2  A    between atoms: C_6  and  O_19
    3  A    between atoms: C_6  and  N_36
    4  A    between atoms: C_8  and  C_13
    5  A    between atoms: C_11  and  C_22
    6  A    between atoms: O_19  and  C_28
    7  A    between atoms: C_22  and  C_27
                            x       y       z     vdW  Elec       q    Type
                         _______ _______ _______ _____ _____    ______ ____

>  <TORSDO>
F 7

$$$$
=
 OpenBabel11042418363D

 37 42  0  0  1  0  0  0  0  0999 V2000
  189.6680  175.1750  143.2220 C   0  0  0  0  0  0  0  0  0  0  0  0
  188.0720  175.6610  141.3510 C   0  0  0  0  0  0  0  0  0  0  0  0
  186.2280  178.5930  142.4420 N   0  0  0  0  0  0  0  0  0  0  0  0
  189.4780  173.9440  141.1770 N   0  0  0  0  0  0  0  0  0  0  0  0
  191.1630  173.2030  142.6980 C   0  0  0  0  0  3  0  0  0  0  0  0
  189.0700  176.5170  144.1080 S   0  0  0  0  0  0  0  0  0  0  0  0
  185.7800  177.5410  140.2790 N   0  0  0  0  0  1  0  0  0  0  0  0
  187.4660  176.7790  141.9370 C   0  0  0  0  0  0  0  0  0  0  0  0
  187.8470  177.2890  143.2240 C   0  0  0  0  0  0  0  0  0  0  0  0
  186.4700  177.6290  141.5190 C   0  0  0  0  0  0  0  0  0  0  0  0
  188.7320  174.0140  140.0530 C   0  0  0  0  0  0  0  0  0  0  0  0
  190.7280  174.2280  143.7590 C   0  0  2  0  0  0  0  0  0  0  0  0
  187.8240  175.0720  140.1170 C   0  0  0  0  0  3  0  0  0  0  0  0
  187.0670  178.3920  143.4930 C   0  0  0  0  0  3  0  0  0  0  0  0
  190.5590  173.0680  141.5080 C   0  0  0  0  0  3  0  0  0  0  0  0
  190.0960  173.4700  144.9240 C   0  0  0  0  0  1  0  0  0  0  0  0
  189.0850  174.9380  141.9690 C   0  0  0  0  0  0  0  0  0  0  0  0
  191.8260  175.0170  144.1940 O   0  0  0  0  0  0  0  0  0  0  0  0
  192.1660  174.7050  145.5260 C   0  0  1  0  0  3  0  0  0  0  0  0
  194.9520  172.1420  145.3980 C   0  0  0  0  0  3  0  0  0  0  0  0
  193.5340  174.1010  145.5690 C   0  0  0  0  0  0  0  0  0  0  0  0
  196.0840  172.9420  145.5880 C   0  0  0  0  0  3  0  0  0  0  0  0
  194.6710  174.9040  145.7490 C   0  0  0  0  0  3  0  0  0  0  0  0
  195.9430  174.3230  145.7630 C   0  0  0  0  0  3  0  0  0  0  0  0
  193.6800  172.7220  145.3870 C   0  0  0  0  0  3  0  0  0  0  0  0
  191.1470  176.0960  147.3890 C   0  0  0  0  0  0  0  0  0  0  0  0
  191.1910  177.1660  148.1100 N   0  0  0  0  0  2  0  0  0  0  0  0
  192.1070  175.9120  146.3480 N   0  0  0  0  0  2  0  0  0  0  0  0
  190.0740  175.0910  147.6380 C   0  0  0  0  0  1  0  0  0  0  0  0
  188.8330  173.0520  138.9150 C   0  0  0  0  0  2  0  0  0  0  0  0
  189.1060  174.1660  136.7600 N   0  0  0  0  0  0  0  0  0  0  0  0
  189.6390  173.6450  137.8130 C   0  0  1  0  0  3  0  0  0  0  0  0
  191.3980  174.4220  136.7210 C   0  0  0  0  0  0  0  0  0  0  0  0
  191.0830  173.7910  137.8430 C   0  0  0  0  0  3  0  0  0  0  0  0
  190.1660  174.7120  135.9240 C   0  0  0  0  0  3  0  0  0  0  0  0
  192.8040  174.7920  136.3580 C   0  0  0  0  0  2  0  0  0  0  0  0
  192.9370  176.2660  136.0130 C   0  0  0  0  0  1  0  0  0  0  0  0
  1 12  1  0  0  0  0
  1  6  1  0  0  0  0
  2  8  2  0  0  0  0
  2 17  1  0  0  0  0
  3 14  1  0  0  0  0
  4 15  1  0  0  0  0
  4 17  1  0  0  0  0
  5 12  1  0  0  0  0
  7 10  1  0  0  0  0
  8  9  1  0  0  0  0
  9 14  2  0  0  0  0
  9  6  1  0  0  0  0
 10  8  1  0  0  0  0
 10  3  2  0  0  0  0
 11 13  2  0  0  0  0
 11  4  1  0  0  0  0
 12 18  1  0  0  0  0
 12 16  1  1  0  0  0
 13  2  1  0  0  0  0
 15  5  2  0  0  0  0
 17  1  2  0  0  0  0
 19 18  1  6  0  0  0
 19 21  1  0  0  0  0
 19 28  1  0  0  0  0
 20 22  1  0  0  0  0
 21 23  2  0  0  0  0
 22 24  2  0  0  0  0
 23 24  1  0  0  0  0
 25 20  2  0  0  0  0
 25 21  1  0  0  0  0
 26 29  1  0  0  0  0
 26 27  2  0  0  0  0
 28 26  1  0  0  0  0
 30 11  1  0  0  0  0
 31 32  1  0  0  0  0
 32 34  1  0  0  0  0
 32 30  1  1  0  0  0
 33 34  2  0  0  0  0
 35 33  1  0  0  0  0
 35 31  2  0  0  0  0
 36 33  1  0  0  0  0
 37 36  1  0  0  0  0
M  END
>  <MODEL>
7

>  <REMARK>
 VINA RESULT:      -7.1      2.753      5.333
  Name = 
  7 active torsions:
  status: ('A' for Active; 'I' for Inactive)
    1  A    between atoms: C_5  and  C_6
    2  A    between atoms: C_6  and  O_19
    3  A    between atoms: C_6  and  N_36
    4  A    between atoms: C_8  and  C_13
    5  A    between atoms: C_11  and  C_22
    6  A    between atoms: O_19  and  C_28
    7  A    between atoms: C_22  and  C_27
                            x       y       z     vdW  Elec       q    Type
                         _______ _______ _______ _____ _____    ______ ____

>  <TORSDO>
F 7

$$$$
=
 OpenBabel11042418363D

 37 42  0  0  1  0  0  0  0  0999 V2000
  190.2340  175.4510  143.5530 C   0  0  0  0  0  0  0  0  0  0  0  0
  192.3410  174.9250  142.3010 C   0  0  0  0  0  0  0  0  0  0  0  0
  191.2330  173.2150  139.2950 N   0  0  0  0  0  0  0  0  0  0  0  0
  192.4580  176.0110  144.2420 N   0  0  0  0  0  0  0  0  0  0  0  0
  190.6970  176.7340  145.6830 C   0  0  0  0  0  3  0  0  0  0  0  0
  189.2930  174.7180  142.3200 S   0  0  0  0  0  0  0  0  0  0  0  0
  193.6070  173.6220  139.7240 N   0  0  0  0  0  1  0  0  0  0  0  0
  191.7330  174.2840  141.2150 C   0  0  0  0  0  0  0  0  0  0  0  0
  190.3100  174.1270  141.0980 C   0  0  0  0  0  0  0  0  0  0  0  0
  192.2310  173.7020  140.0740 C   0  0  0  0  0  0  0  0  0  0  0  0
  193.7070  175.8520  143.7530 C   0  0  0  0  0  0  0  0  0  0  0  0
  189.6360  176.0250  144.8260 C   0  0  2  0  0  0  0  0  0  0  0  0
  193.6890  175.1650  142.5380 C   0  0  0  0  0  3  0  0  0  0  0  0
  190.0500  173.4700  139.9150 C   0  0  0  0  0  3  0  0  0  0  0  0
  192.0110  176.7020  145.4100 C   0  0  0  0  0  3  0  0  0  0  0  0
  189.0860  174.8460  145.6280 C   0  0  0  0  0  1  0  0  0  0  0  0
  191.6240  175.4510  143.3680 C   0  0  0  0  0  0  0  0  0  0  0  0
  188.5980  176.9170  144.4480 O   0  0  0  0  0  0  0  0  0  0  0  0
  187.3340  176.3340  144.6710 C   0  0  1  0  0  3  0  0  0  0  0  0
  184.4690  177.9420  146.5580 C   0  0  0  0  0  3  0  0  0  0  0  0
  186.5840  177.1320  145.6910 C   0  0  0  0  0  0  0  0  0  0  0  0
  185.1400  178.5720  147.6110 C   0  0  0  0  0  3  0  0  0  0  0  0
  187.2550  177.7570  146.7530 C   0  0  0  0  0  3  0  0  0  0  0  0
  186.5330  178.4790  147.7090 C   0  0  0  0  0  3  0  0  0  0  0  0
  185.1910  177.2220  145.6010 C   0  0  0  0  0  3  0  0  0  0  0  0
  186.6110  177.3190  142.4460 C   0  0  0  0  0  0  0  0  0  0  0  0
  185.9740  177.1680  141.3340 N   0  0  0  0  0  2  0  0  0  0  0  0
  186.5900  176.2700  143.4150 N   0  0  0  0  0  2  0  0  0  0  0  0
  187.3290  178.5990  142.7080 C   0  0  0  0  0  1  0  0  0  0  0  0
  194.9470  176.3080  144.4490 C   0  0  0  0  0  2  0  0  0  0  0  0
  197.0920  175.1790  144.1540 N   0  0  0  0  0  0  0  0  0  0  0  0
  195.8880  175.1670  144.6210 C   0  0  1  0  0  3  0  0  0  0  0  0
  196.7060  173.2510  145.3610 C   0  0  0  0  0  0  0  0  0  0  0  0
  195.5990  173.9780  145.4000 C   0  0  0  0  0  3  0  0  0  0  0  0
  197.7570  173.9490  144.5570 C   0  0  0  0  0  3  0  0  0  0  0  0
  196.8450  171.9340  146.0620 C   0  0  0  0  0  2  0  0  0  0  0  0
  195.6940  170.9940  145.7480 C   0  0  0  0  0  1  0  0  0  0  0  0
  1 12  1  0  0  0  0
  2 13  1  0  0  0  0
  2 17  1  0  0  0  0
  3 14  1  0  0  0  0
  3 10  2  0  0  0  0
  4 15  1  0  0  0  0
  6  1  1  0  0  0  0
  7 10  1  0  0  0  0
  8  2  2  0  0  0  0
  9  8  1  0  0  0  0
  9  6  1  0  0  0  0
 10  8  1  0  0  0  0
 11  4  1  0  0  0  0
 11 30  1  0  0  0  0
 12 16  1  1  0  0  0
 12  5  1  0  0  0  0
 13 11  2  0  0  0  0
 14  9  2  0  0  0  0
 15  5  2  0  0  0  0
 17  1  2  0  0  0  0
 17  4  1  0  0  0  0
 18 19  1  0  0  0  0
 18 12  1  0  0  0  0
 19 28  1  6  0  0  0
 19 21  1  0  0  0  0
 20 22  1  0  0  0  0
 21 23  2  0  0  0  0
 22 24  2  0  0  0  0
 23 24  1  0  0  0  0
 25 21  1  0  0  0  0
 25 20  2  0  0  0  0
 26 29  1  0  0  0  0
 26 28  1  0  0  0  0
 27 26  2  0  0  0  0
 31 35  2  0  0  0  0
 31 32  1  0  0  0  0
 32 30  1  1  0  0  0
 32 34  1  0  0  0  0
 33 34  2  0  0  0  0
 33 36  1  0  0  0  0
 35 33  1  0  0  0  0
 37 36  1  0  0  0  0
M  END
>  <MODEL>
8

>  <REMARK>
 VINA RESULT:      -7.0      2.431      5.842
  Name = 
  7 active torsions:
  status: ('A' for Active; 'I' for Inactive)
    1  A    between atoms: C_5  and  C_6
    2  A    between atoms: C_6  and  O_19
    3  A    between atoms: C_6  and  N_36
    4  A    between atoms: C_8  and  C_13
    5  A    between atoms: C_11  and  C_22
    6  A    between atoms: O_19  and  C_28
    7  A    between atoms: C_22  and  C_27
                            x       y       z     vdW  Elec       q    Type
                         _______ _______ _______ _____ _____    ______ ____

>  <TORSDO>
F 7

$$$$
=
 OpenBabel11042418363D

 37 42  0  0  1  0  0  0  0  0999 V2000
  191.6010  173.7840  143.1130 C   0  0  0  0  0  0  0  0  0  0  0  0
  192.0960  175.6740  144.6830 C   0  0  0  0  0  0  0  0  0  0  0  0
  195.3270  174.8610  146.1270 N   0  0  0  0  0  0  0  0  0  0  0  0
  190.2080  175.6920  143.5030 N   0  0  0  0  0  0  0  0  0  0  0  0
  189.4160  174.1250  141.8840 C   0  0  0  0  0  3  0  0  0  0  0  0
  193.0880  173.0300  143.5190 S   0  0  0  0  0  0  0  0  0  0  0  0
  194.1320  176.9010  146.7540 N   0  0  0  0  0  1  0  0  0  0  0  0
  193.3330  175.1960  145.1330 C   0  0  0  0  0  0  0  0  0  0  0  0
  193.9150  173.9710  144.6610 C   0  0  0  0  0  0  0  0  0  0  0  0
  194.2540  175.6850  146.0270 C   0  0  0  0  0  0  0  0  0  0  0  0
  190.2600  176.8070  144.2630 C   0  0  0  0  0  0  0  0  0  0  0  0
  190.5870  173.1680  142.1630 C   0  0  2  0  0  0  0  0  0  0  0  0
  191.4230  176.8390  145.0330 C   0  0  0  0  0  3  0  0  0  0  0  0
  195.1280  173.8060  145.2920 C   0  0  0  0  0  3  0  0  0  0  0  0
  189.2410  175.2880  142.5300 C   0  0  0  0  0  3  0  0  0  0  0  0
  190.0320  171.9240  142.8540 C   0  0  0  0  0  1  0  0  0  0  0  0
  191.3170  175.0000  143.7520 C   0  0  0  0  0  0  0  0  0  0  0  0
  191.2720  172.8290  140.9670 O   0  0  0  0  0  0  0  0  0  0  0  0
  190.9590  171.5120  140.5710 C   0  0  1  0  0  3  0  0  0  0  0  0
  189.8370  172.7630  137.1760 C   0  0  0  0  0  3  0  0  0  0  0  0
  190.4440  171.5180  139.1660 C   0  0  0  0  0  0  0  0  0  0  0  0
  189.5340  171.5670  136.5170 C   0  0  0  0  0  3  0  0  0  0  0  0
  190.1490  170.3180  138.5010 C   0  0  0  0  0  3  0  0  0  0  0  0
  189.6900  170.3440  137.1800 C   0  0  0  0  0  3  0  0  0  0  0  0
  190.2930  172.7380  138.4970 C   0  0  0  0  0  3  0  0  0  0  0  0
  192.0960  169.3150  141.1450 C   0  0  0  0  0  0  0  0  0  0  0  0
  193.1770  168.6120  141.1640 N   0  0  0  0  0  2  0  0  0  0  0  0
  192.1460  170.6670  140.6830 N   0  0  0  0  0  2  0  0  0  0  0  0
  190.8230  168.7140  141.6360 C   0  0  0  0  0  1  0  0  0  0  0  0
  189.1850  177.8440  144.3100 C   0  0  0  0  0  2  0  0  0  0  0  0
  188.2870  176.5980  146.2070 N   0  0  0  0  0  0  0  0  0  0  0  0
  188.0930  177.4100  145.2230 C   0  0  0  0  0  0  0  0  0  0  0  0
  186.1040  177.3410  146.1860 C   0  0  0  0  0  0  0  0  0  0  0  0
  186.7340  177.9170  145.1730 C   0  0  0  0  0  3  0  0  0  0  0  0
  187.0360  176.4410  146.9340 C   0  0  0  0  0  2  0  0  0  0  0  0
  184.6650  177.6060  146.5120 C   0  0  0  0  0  2  0  0  0  0  0  0
  184.0660  178.6830  145.6240 C   0  0  0  0  0  1  0  0  0  0  0  0
  1  6  1  0  0  0  0
  1 17  2  0  0  0  0
  2 13  1  0  0  0  0
  2  8  2  0  0  0  0
  4 17  1  0  0  0  0
  4 11  1  0  0  0  0
  5 12  1  0  0  0  0
  5 15  2  0  0  0  0
  6  9  1  0  0  0  0
  8 10  1  0  0  0  0
  9  8  1  0  0  0  0
  9 14  2  0  0  0  0
 10  3  2  0  0  0  0
 10  7  1  0  0  0  0
 11 30  1  0  0  0  0
 11 13  2  0  0  0  0
 12 16  1  1  0  0  0
 12  1  1  0  0  0  0
 14  3  1  0  0  0  0
 15  4  1  0  0  0  0
 17  2  1  0  0  0  0
 18 12  1  0  0  0  0
 19 28  1  6  0  0  0
 19 18  1  0  0  0  0
 20 25  1  0  0  0  0
 21 19  1  0  0  0  0
 22 20  2  0  0  0  0
 22 24  1  0  0  0  0
 23 21  1  0  0  0  0
 24 23  2  0  0  0  0
 25 21  2  0  0  0  0
 26 27  2  0  0  0  0
 26 29  1  0  0  0  0
 28 26  1  0  0  0  0
 30 32  1  0  0  0  0
 31 35  1  0  0  0  0
 32 31  2  0  0  0  0
 33 36  1  0  0  0  0
 33 35  1  0  0  0  0
 34 32  1  0  0  0  0
 34 33  2  0  0  0  0
 37 36  1  0  0  0  0
M  END
>  <MODEL>
9

>  <REMARK>
 VINA RESULT:      -7.0      2.424      7.924
  Name = 
  7 active torsions:
  status: ('A' for Active; 'I' for Inactive)
    1  A    between atoms: C_5  and  C_6
    2  A    between atoms: C_6  and  O_19
    3  A    between atoms: C_6  and  N_36
    4  A    between atoms: C_8  and  C_13
    5  A    between atoms: C_11  and  C_22
    6  A    between atoms: O_19  and  C_28
    7  A    between atoms: C_22  and  C_27
                            x       y       z     vdW  Elec       q    Type
                         _______ _______ _______ _____ _____    ______ ____

>  <TORSDO>
F 7

$$$$
