=
 OpenBabel11042419563D

 41 43  0  0  1  0  0  0  0  0999 V2000
  189.7400  174.3890  146.1530 C   0  0  0  0  0  3  0  0  0  0  0  0
  188.9410  174.9410  147.0650 C   0  0  0  0  0  3  0  0  0  0  0  0
  189.6100  174.6710  144.6930 C   0  0  1  0  0  3  0  0  0  0  0  0
  188.9750  177.0570  144.8300 C   0  0  0  0  0  3  0  0  0  0  0  0
  190.8920  176.5930  143.4440 C   0  0  0  0  0  1  0  0  0  0  0  0
  187.8860  175.9370  146.7810 C   0  0  0  0  0  3  0  0  0  0  0  0
  187.8620  176.8290  145.7800 C   0  0  0  0  0  0  0  0  0  0  0  0
  189.8210  176.1330  144.3740 C   0  0  0  0  0  0  0  0  0  0  0  0
  189.4290  172.6720  143.1470 C   0  0  0  0  0  1  0  0  0  0  0  0
  190.3860  173.6500  143.8320 C   0  0  2  0  0  3  0  0  0  0  0  0
  191.2680  171.4990  144.4510 C   0  0  0  0  0  1  0  0  0  0  0  0
  191.4120  172.9450  144.6200 N   0  0  0  0  0  0  0  0  0  0  0  0
  195.4200  170.6930  143.3150 C   0  0  0  0  0  1  0  0  0  0  0  0
  193.5240  174.0310  145.3550 C   0  0  2  0  0  3  0  0  0  0  0  0
  195.0330  173.8120  145.2600 C   0  0  0  0  0  2  0  0  0  0  0  0
  194.5040  171.4790  144.2340 C   0  0  1  0  0  3  0  0  0  0  0  0
  192.7600  173.3680  144.1970 C   0  0  1  0  0  3  0  0  0  0  0  0
  195.3080  172.3430  145.1700 C   0  0  0  0  0  0  0  0  0  0  0  0
  196.1680  171.8470  145.8810 O   0  0  0  0  0  0  0  0  0  0  0  0
  193.5490  172.3150  143.3800 C   0  0  0  0  0  2  0  0  0  0  0  0
  193.2040  175.5170  145.3730 C   0  0  0  0  0  2  0  0  0  0  0  0
  194.3570  177.2200  146.7720 C   0  0  0  0  0  1  0  0  0  0  0  0
  193.3410  176.0890  146.7730 C   0  0  1  0  0  3  0  0  0  0  0  0
  192.0100  176.6010  147.2160 C   0  0  0  0  0  3  0  0  0  0  0  0
  191.8050  176.9620  148.4810 C   0  0  0  0  0  2  0  0  0  0  0  0
  186.7110  177.7760  145.7260 C   0  0  0  0  0  2  0  0  0  0  0  0
  186.3000  178.0580  144.2870 C   0  0  2  0  0  3  0  0  0  0  0  0
  183.9240  178.8140  144.2010 O   0  0  0  0  0  1  0  0  0  0  0  0
  185.2720  179.1460  144.2210 C   0  0  0  0  0  0  0  0  0  0  0  0
  185.6180  180.3560  144.1790 O   0  0  0  0  0  0  0  0  0  0  0  0
  185.7840  176.7810  143.6410 C   0  0  0  0  0  2  0  0  0  0  0  0
  186.4700  176.5400  142.3390 C   0  0  0  0  0  0  0  0  0  0  0  0
  187.3090  175.5140  142.1180 N   0  0  0  0  0  2  0  0  0  0  0  0
  186.3010  177.2760  141.1900 C   0  0  0  0  0  0  0  0  0  0  0  0
  187.0670  176.7070  140.1940 C   0  0  0  0  0  3  0  0  0  0  0  0
  187.6710  175.6240  140.8200 C   0  0  0  0  0  0  0  0  0  0  0  0
  189.7520  174.5100  140.6340 O   0  0  0  0  0  0  0  0  0  0  0  0
  188.5990  174.6950  140.1630 C   0  0  0  0  0  0  0  0  0  0  0  0
  188.1910  173.9610  138.9340 C   0  0  0  0  0  1  0  0  0  0  0  0
  184.1180  178.3340  140.5010 C   0  0  0  0  0  1  0  0  0  0  0  0
  185.4570  178.4210  141.0570 N   0  0  0  0  0  2  0  0  0  0  0  0
  1  2  2  0  0  0  0
  3 10  1  6  0  0  0
  3  1  1  0  0  0  0
  4  7  1  0  0  0  0
  5  8  1  0  0  0  0
  6  2  1  0  0  0  0
  7  6  2  0  0  0  0
  8  3  1  0  0  0  0
  8  4  2  0  0  0  0
 10  9  1  1  0  0  0
 10 12  1  0  0  0  0
 11 12  1  0  0  0  0
 14 21  1  6  0  0  0
 15 14  1  0  0  0  0
 16 13  1  6  0  0  0
 16 18  1  0  0  0  0
 17 12  1  1  0  0  0
 17 14  1  0  0  0  0
 18 15  1  0  0  0  0
 18 19  2  0  0  0  0
 20 17  1  0  0  0  0
 20 16  1  0  0  0  0
 21 23  1  0  0  0  0
 23 22  1  6  0  0  0
 23 24  1  0  0  0  0
 24 25  2  0  0  0  0
 26  7  1  0  0  0  0
 27 31  1  1  0  0  0
 27 26  1  0  0  0  0
 28 29  1  0  0  0  0
 29 27  1  0  0  0  0
 30 29  2  0  0  0  0
 32 31  1  0  0  0  0
 33 32  1  0  0  0  0
 34 32  2  0  0  0  0
 35 36  2  0  0  0  0
 35 34  1  0  0  0  0
 36 33  1  0  0  0  0
 38 37  2  0  0  0  0
 38 36  1  0  0  0  0
 39 38  1  0  0  0  0
 40 41  1  0  0  0  0
 41 34  1  0  0  0  0
M  END
>  <MODEL>
1

>  <REMARK>
 VINA RESULT:      -7.3      0.000      0.000
  Name = 
  13 active torsions:
  status: ('A' for Active; 'I' for Inactive)
    1  A    between atoms: C_5  and  C_19
    2  A    between atoms: C_5  and  C_33
    3  A    between atoms: C_6  and  C_8
    4  A    between atoms: C_6  and  C_38
    5  A    between atoms: C_9  and  C_36
    6  A    between atoms: C_14  and  N_35
    7  A    between atoms: C_16  and  C_26
    8  A    between atoms: C_19  and  C_21
    9  A    between atoms: C_19  and  C_26
   10  A    between atoms: C_20  and  C_38
   11  A    between atoms: C_23  and  N_32
   12  A    between atoms: N_35  and  C_36
   13  A    between atoms: C_37  and  C_39
                            x       y       z     vdW  Elec       q    Type
                         _______ _______ _______ _____ _____    ______ ____

>  <TORSDO>
F 13

$$$$
=
 OpenBabel11042419563D

 41 43  0  0  1  0  0  0  0  0999 V2000
  191.2120  175.4260  146.0470 C   0  0  0  0  0  3  0  0  0  0  0  0
  190.2740  175.3710  146.9920 C   0  0  0  0  0  3  0  0  0  0  0  0
  190.9250  175.8810  144.6540 C   0  0  1  0  0  3  0  0  0  0  0  0
  189.2600  177.6340  145.1700 C   0  0  0  0  0  3  0  0  0  0  0  0
  191.1340  178.3700  143.8430 C   0  0  0  0  0  1  0  0  0  0  0  0
  188.8700  175.8020  146.8230 C   0  0  0  0  0  3  0  0  0  0  0  0
  188.4070  176.7500  145.9950 C   0  0  0  0  0  0  0  0  0  0  0  0
  190.4240  177.3060  144.6110 C   0  0  0  0  0  0  0  0  0  0  0  0
  191.5370  175.3990  142.2430 C   0  0  0  0  0  1  0  0  0  0  0  0
  192.0620  175.5100  143.6770 C   0  0  2  0  0  3  0  0  0  0  0  0
  192.4220  173.1800  143.1950 C   0  0  0  0  0  1  0  0  0  0  0  0
  192.7590  174.2820  144.0960 N   0  0  0  0  0  0  0  0  0  0  0  0
  195.8360  176.6810  141.3360 C   0  0  0  0  0  1  0  0  0  0  0  0
  194.9770  173.1990  143.7920 C   0  0  2  0  0  3  0  0  0  0  0  0
  196.2990  173.4500  143.0710 C   0  0  0  0  0  2  0  0  0  0  0  0
  195.1330  175.4590  141.8950 C   0  0  1  0  0  3  0  0  0  0  0  0
  194.2180  174.5000  144.0990 C   0  0  1  0  0  3  0  0  0  0  0  0
  196.0360  174.2540  141.8350 C   0  0  0  0  0  0  0  0  0  0  0  0
  196.5350  173.9110  140.7750 O   0  0  0  0  0  0  0  0  0  0  0  0
  194.6920  175.7580  143.3300 C   0  0  0  0  0  2  0  0  0  0  0  0
  195.2160  172.4460  145.0920 C   0  0  0  0  0  2  0  0  0  0  0  0
  197.0390  173.4470  146.4570 C   0  0  0  0  0  1  0  0  0  0  0  0
  196.6960  172.3850  145.4230 C   0  0  1  0  0  3  0  0  0  0  0  0
  197.0120  171.0290  145.9630 C   0  0  0  0  0  3  0  0  0  0  0  0
  196.2570  169.9770  145.6490 C   0  0  0  0  0  2  0  0  0  0  0  0
  186.9470  177.0510  146.0380 C   0  0  0  0  0  2  0  0  0  0  0  0
  186.5020  177.7920  144.7850 C   0  0  2  0  0  3  0  0  0  0  0  0
  184.9480  179.0260  146.2960 O   0  0  0  0  0  1  0  0  0  0  0  0
  185.7030  179.0110  145.1310 C   0  0  0  0  0  0  0  0  0  0  0  0
  185.7040  180.0180  144.3740 O   0  0  0  0  0  0  0  0  0  0  0  0
  185.7070  176.8540  143.8900 C   0  0  0  0  0  2  0  0  0  0  0  0
  186.5480  176.3790  142.7540 C   0  0  0  0  0  0  0  0  0  0  0  0
  187.2070  175.2070  142.7530 N   0  0  0  0  0  2  0  0  0  0  0  0
  186.7160  177.0220  141.5500 C   0  0  0  0  0  0  0  0  0  0  0  0
  187.5210  176.2400  140.7480 C   0  0  0  0  0  3  0  0  0  0  0  0
  187.7980  175.1330  141.5400 C   0  0  0  0  0  0  0  0  0  0  0  0
  189.2140  174.0170  140.0040 O   0  0  0  0  0  0  0  0  0  0  0  0
  188.6360  174.0010  141.1220 C   0  0  0  0  0  0  0  0  0  0  0  0
  188.8140  172.8230  142.0140 C   0  0  0  0  0  1  0  0  0  0  0  0
  184.8160  178.3760  140.5920 C   0  0  0  0  0  1  0  0  0  0  0  0
  186.1340  178.2780  141.1950 N   0  0  0  0  0  2  0  0  0  0  0  0
  1  2  2  0  0  0  0
  3 10  1  6  0  0  0
  3  1  1  0  0  0  0
  4  7  1  0  0  0  0
  5  8  1  0  0  0  0
  6  2  1  0  0  0  0
  7 26  1  0  0  0  0
  7  6  2  0  0  0  0
  8  3  1  0  0  0  0
  8  4  2  0  0  0  0
 10  9  1  6  0  0  0
 10 12  1  0  0  0  0
 11 12  1  0  0  0  0
 14 17  1  0  0  0  0
 14 21  1  1  0  0  0
 15 14  1  0  0  0  0
 16 13  1  1  0  0  0
 16 20  1  0  0  0  0
 17 12  1  6  0  0  0
 18 16  1  0  0  0  0
 18 15  1  0  0  0  0
 19 18  2  0  0  0  0
 20 17  1  0  0  0  0
 21 23  1  0  0  0  0
 23 24  1  0  0  0  0
 23 22  1  1  0  0  0
 25 24  2  0  0  0  0
 27 31  1  6  0  0  0
 27 29  1  0  0  0  0
 27 26  1  0  0  0  0
 29 28  1  0  0  0  0
 30 29  2  0  0  0  0
 32 31  1  0  0  0  0
 33 32  1  0  0  0  0
 34 32  2  0  0  0  0
 35 36  2  0  0  0  0
 35 34  1  0  0  0  0
 36 33  1  0  0  0  0
 37 38  2  0  0  0  0
 38 36  1  0  0  0  0
 38 39  1  0  0  0  0
 40 41  1  0  0  0  0
 41 34  1  0  0  0  0
M  END
>  <MODEL>
2

>  <REMARK>
 VINA RESULT:      -7.2      1.962      3.127
  Name = 
  13 active torsions:
  status: ('A' for Active; 'I' for Inactive)
    1  A    between atoms: C_5  and  C_19
    2  A    between atoms: C_5  and  C_33
    3  A    between atoms: C_6  and  C_8
    4  A    between atoms: C_6  and  C_38
    5  A    between atoms: C_9  and  C_36
    6  A    between atoms: C_14  and  N_35
    7  A    between atoms: C_16  and  C_26
    8  A    between atoms: C_19  and  C_21
    9  A    between atoms: C_19  and  C_26
   10  A    between atoms: C_20  and  C_38
   11  A    between atoms: C_23  and  N_32
   12  A    between atoms: N_35  and  C_36
   13  A    between atoms: C_37  and  C_39
                            x       y       z     vdW  Elec       q    Type
                         _______ _______ _______ _____ _____    ______ ____

>  <TORSDO>
F 13

$$$$
=
 OpenBabel11042419563D

 41 43  0  0  1  0  0  0  0  0999 V2000
  190.0480  174.3260  145.9880 C   0  0  0  0  0  3  0  0  0  0  0  0
  189.3040  174.6830  147.0340 C   0  0  0  0  0  3  0  0  0  0  0  0
  189.9340  174.9900  144.6560 C   0  0  1  0  0  3  0  0  0  0  0  0
  189.5030  177.3000  145.4260 C   0  0  0  0  0  3  0  0  0  0  0  0
  191.3660  177.0630  143.9140 C   0  0  0  0  0  1  0  0  0  0  0  0
  188.3360  175.8000  147.0480 C   0  0  0  0  0  3  0  0  0  0  0  0
  188.3810  176.9220  146.3150 C   0  0  0  0  0  0  0  0  0  0  0  0
  190.2650  176.4630  144.7220 C   0  0  0  0  0  0  0  0  0  0  0  0
  189.7590  174.1560  142.2700 C   0  0  0  0  0  1  0  0  0  0  0  0
  190.6160  174.1700  143.5380 C   0  0  2  0  0  3  0  0  0  0  0  0
  190.1060  171.8320  143.2900 C   0  0  0  0  0  1  0  0  0  0  0  0
  190.9440  172.8070  143.9880 N   0  0  0  0  0  0  0  0  0  0  0  0
  193.5800  168.8370  143.6200 C   0  0  0  0  0  1  0  0  0  0  0  0
  193.2470  172.9760  144.9110 C   0  0  2  0  0  3  0  0  0  0  0  0
  194.4910  172.1070  145.0840 C   0  0  0  0  0  2  0  0  0  0  0  0
  193.0470  170.0960  144.2800 C   0  0  1  0  0  3  0  0  0  0  0  0
  192.3680  172.5150  143.7360 C   0  0  1  0  0  3  0  0  0  0  0  0
  194.0730  170.6760  145.2190 C   0  0  0  0  0  0  0  0  0  0  0  0
  194.5470  169.9910  146.1120 O   0  0  0  0  0  0  0  0  0  0  0  0
  192.6570  171.0960  143.1890 C   0  0  0  0  0  2  0  0  0  0  0  0
  193.6390  174.4290  144.6960 C   0  0  0  0  0  2  0  0  0  0  0  0
  196.0220  175.1160  144.8900 C   0  0  0  0  0  1  0  0  0  0  0  0
  194.7370  174.8460  145.6580 C   0  0  1  0  0  3  0  0  0  0  0  0
  194.3040  176.0810  146.3760 C   0  0  0  0  0  3  0  0  0  0  0  0
  193.1400  176.1210  147.0220 C   0  0  0  0  0  2  0  0  0  0  0  0
  187.3140  177.9380  146.5410 C   0  0  0  0  0  2  0  0  0  0  0  0
  186.5900  178.2710  145.2430 C   0  0  2  0  0  3  0  0  0  0  0  0
  185.2520  180.3150  144.7360 O   0  0  0  0  0  0  0  0  0  0  0  0
  185.4120  179.1620  145.4940 C   0  0  0  0  0  0  0  0  0  0  0  0
  184.5690  178.8790  146.3860 O   0  0  0  0  0  1  0  0  0  0  0  0
  186.1630  176.9860  144.5500 C   0  0  0  0  0  2  0  0  0  0  0  0
  185.5880  177.2830  143.2070 C   0  0  0  0  0  0  0  0  0  0  0  0
  184.2900  177.5590  142.9960 N   0  0  0  0  0  2  0  0  0  0  0  0
  186.2940  177.3770  142.0300 C   0  0  0  0  0  0  0  0  0  0  0  0
  185.4150  177.7170  141.0230 C   0  0  0  0  0  3  0  0  0  0  0  0
  184.1910  177.8140  141.6720 C   0  0  0  0  0  0  0  0  0  0  0  0
  182.7460  177.8740  139.7980 O   0  0  0  0  0  0  0  0  0  0  0  0
  182.9240  178.1550  141.0120 C   0  0  0  0  0  0  0  0  0  0  0  0
  181.8370  178.8340  141.7670 C   0  0  0  0  0  1  0  0  0  0  0  0
  188.6260  178.2790  141.7020 C   0  0  0  0  0  1  0  0  0  0  0  0
  187.7020  177.1740  141.8910 N   0  0  0  0  0  2  0  0  0  0  0  0
  1  2  2  0  0  0  0
  2  6  1  0  0  0  0
  3 10  1  6  0  0  0
  3  8  1  0  0  0  0
  3  1  1  0  0  0  0
  4  7  1  0  0  0  0
  5  8  1  0  0  0  0
  7 26  1  0  0  0  0
  7  6  2  0  0  0  0
  8  4  2  0  0  0  0
 10  9  1  6  0  0  0
 10 12  1  0  0  0  0
 11 12  1  0  0  0  0
 14 21  1  6  0  0  0
 14 15  1  0  0  0  0
 15 18  1  0  0  0  0
 16 13  1  6  0  0  0
 16 18  1  0  0  0  0
 17 12  1  1  0  0  0
 17 14  1  0  0  0  0
 18 19  2  0  0  0  0
 20 17  1  0  0  0  0
 20 16  1  0  0  0  0
 21 23  1  0  0  0  0
 23 22  1  6  0  0  0
 23 24  1  0  0  0  0
 24 25  2  0  0  0  0
 27 31  1  1  0  0  0
 27 29  1  0  0  0  0
 27 26  1  0  0  0  0
 28 29  2  0  0  0  0
 29 30  1  0  0  0  0
 32 31  1  0  0  0  0
 33 32  1  0  0  0  0
 34 32  2  0  0  0  0
 35 36  2  0  0  0  0
 35 34  1  0  0  0  0
 36 33  1  0  0  0  0
 37 38  2  0  0  0  0
 38 36  1  0  0  0  0
 38 39  1  0  0  0  0
 40 41  1  0  0  0  0
 41 34  1  0  0  0  0
M  END
>  <MODEL>
3

>  <REMARK>
 VINA RESULT:      -7.2      1.897      2.842
  Name = 
  13 active torsions:
  status: ('A' for Active; 'I' for Inactive)
    1  A    between atoms: C_5  and  C_19
    2  A    between atoms: C_5  and  C_33
    3  A    between atoms: C_6  and  C_8
    4  A    between atoms: C_6  and  C_38
    5  A    between atoms: C_9  and  C_36
    6  A    between atoms: C_14  and  N_35
    7  A    between atoms: C_16  and  C_26
    8  A    between atoms: C_19  and  C_21
    9  A    between atoms: C_19  and  C_26
   10  A    between atoms: C_20  and  C_38
   11  A    between atoms: C_23  and  N_32
   12  A    between atoms: N_35  and  C_36
   13  A    between atoms: C_37  and  C_39
                            x       y       z     vdW  Elec       q    Type
                         _______ _______ _______ _____ _____    ______ ____

>  <TORSDO>
F 13

$$$$
=
 OpenBabel11042419563D

 41 43  0  0  1  0  0  0  0  0999 V2000
  191.5600  176.8390  144.1260 C   0  0  0  0  0  3  0  0  0  0  0  0
  190.4950  177.6380  144.1840 C   0  0  0  0  0  3  0  0  0  0  0  0
  191.8290  175.7820  145.1460 C   0  0  1  0  0  3  0  0  0  0  0  0
  189.4980  175.0850  145.5860 C   0  0  0  0  0  3  0  0  0  0  0  0
  190.9910  173.3010  144.9540 C   0  0  0  0  0  1  0  0  0  0  0  0
  189.4220  177.5530  145.1970 C   0  0  0  0  0  3  0  0  0  0  0  0
  189.0120  176.4580  145.8540 C   0  0  0  0  0  0  0  0  0  0  0  0
  190.7290  174.7480  145.2000 C   0  0  0  0  0  0  0  0  0  0  0  0
  194.0080  175.4590  146.3970 C   0  0  0  0  0  1  0  0  0  0  0  0
  193.2790  175.2560  145.0670 C   0  0  2  0  0  3  0  0  0  0  0  0
  195.2220  176.5290  144.4380 C   0  0  0  0  0  1  0  0  0  0  0  0
  194.0170  175.8610  143.9450 N   0  0  0  0  0  0  0  0  0  0  0  0
  191.9120  173.9350  140.1110 C   0  0  0  0  0  1  0  0  0  0  0  0
  194.4480  173.4360  143.6070 C   0  0  2  0  0  3  0  0  0  0  0  0
  194.0810  172.3190  142.6320 C   0  0  0  0  0  2  0  0  0  0  0  0
  192.4050  173.9900  141.5450 C   0  0  1  0  0  3  0  0  0  0  0  0
  194.3830  174.8280  142.9580 C   0  0  1  0  0  3  0  0  0  0  0  0
  192.7330  172.6070  142.0450 C   0  0  0  0  0  0  0  0  0  0  0  0
  191.8930  171.7220  142.0020 O   0  0  0  0  0  0  0  0  0  0  0  0
  193.6240  174.9130  141.6120 C   0  0  0  0  0  2  0  0  0  0  0  0
  195.8440  173.2140  144.1660 C   0  0  0  0  0  2  0  0  0  0  0  0
  194.4700  171.8110  145.6940 C   0  0  0  0  0  1  0  0  0  0  0  0
  195.7880  172.5530  145.5320 C   0  0  1  0  0  3  0  0  0  0  0  0
  196.9290  171.5970  145.6510 C   0  0  0  0  0  3  0  0  0  0  0  0
  196.7550  170.3930  146.1930 C   0  0  0  0  0  2  0  0  0  0  0  0
  187.8670  176.6060  146.7970 C   0  0  0  0  0  2  0  0  0  0  0  0
  186.8040  177.5360  146.2280 C   0  0  2  0  0  3  0  0  0  0  0  0
  186.8380  178.9120  148.3080 O   0  0  0  0  0  1  0  0  0  0  0  0
  186.0970  178.2820  147.3170 C   0  0  0  0  0  0  0  0  0  0  0  0
  184.8390  178.3410  147.3460 O   0  0  0  0  0  0  0  0  0  0  0  0
  185.8200  176.7360  145.3880 C   0  0  0  0  0  2  0  0  0  0  0  0
  186.0640  176.9690  143.9350 C   0  0  0  0  0  0  0  0  0  0  0  0
  186.7900  176.1460  143.1600 N   0  0  0  0  0  0  0  0  0  0  0  0
  185.5430  177.9970  143.1840 C   0  0  1  0  0  3  0  0  0  0  0  0
  185.9580  177.8350  141.8790 C   0  0  0  0  0  3  0  0  0  0  0  0
  186.7270  176.6780  141.9190 C   0  0  0  0  0  0  0  0  0  0  0  0
  187.1420  176.4990  139.5950 O   0  0  0  0  0  0  0  0  0  0  0  0
  187.4030  176.0880  140.7560 C   0  0  0  0  0  0  0  0  0  0  0  0
  188.4010  174.9990  140.9340 C   0  0  0  0  0  1  0  0  0  0  0  0
  185.2400  180.2470  144.2800 C   0  0  0  0  0  1  0  0  0  0  0  0
  184.7010  179.0390  143.6800 N   0  0  0  0  0  2  0  0  0  0  0  0
  1  2  2  0  0  0  0
  1  3  1  0  0  0  0
  2  6  1  0  0  0  0
  3 10  1  6  0  0  0
  3  8  1  0  0  0  0
  4  7  1  0  0  0  0
  5  8  1  0  0  0  0
  6  7  2  0  0  0  0
  7 26  1  0  0  0  0
  8  4  2  0  0  0  0
 10  9  1  1  0  0  0
 12 11  1  0  0  0  0
 12 10  1  0  0  0  0
 14 21  1  6  0  0  0
 15 14  1  0  0  0  0
 16 13  1  6  0  0  0
 16 20  1  0  0  0  0
 16 18  1  0  0  0  0
 17 14  1  0  0  0  0
 17 12  1  1  0  0  0
 18 15  1  0  0  0  0
 19 18  2  0  0  0  0
 20 17  1  0  0  0  0
 21 23  1  0  0  0  0
 23 24  1  0  0  0  0
 23 22  1  6  0  0  0
 24 25  2  0  0  0  0
 27 31  1  1  0  0  0
 27 26  1  0  0  0  0
 27 29  1  0  0  0  0
 29 30  2  0  0  0  0
 29 28  1  0  0  0  0
 32 31  1  0  0  0  0
 33 32  2  0  0  0  0
 34 41  1  6  0  0  0
 34 32  1  0  0  0  0
 35 36  2  0  0  0  0
 35 34  1  0  0  0  0
 36 33  1  0  0  0  0
 37 38  2  0  0  0  0
 38 39  1  0  0  0  0
 38 36  1  0  0  0  0
 41 40  1  0  0  0  0
M  END
>  <MODEL>
4

>  <REMARK>
 VINA RESULT:      -7.2      2.041      3.904
  Name = 
  13 active torsions:
  status: ('A' for Active; 'I' for Inactive)
    1  A    between atoms: C_5  and  C_19
    2  A    between atoms: C_5  and  C_33
    3  A    between atoms: C_6  and  C_8
    4  A    between atoms: C_6  and  C_38
    5  A    between atoms: C_9  and  C_36
    6  A    between atoms: C_14  and  N_35
    7  A    between atoms: C_16  and  C_26
    8  A    between atoms: C_19  and  C_21
    9  A    between atoms: C_19  and  C_26
   10  A    between atoms: C_20  and  C_38
   11  A    between atoms: C_23  and  N_32
   12  A    between atoms: N_35  and  C_36
   13  A    between atoms: C_37  and  C_39
                            x       y       z     vdW  Elec       q    Type
                         _______ _______ _______ _____ _____    ______ ____

>  <TORSDO>
F 13

$$$$
=
 OpenBabel11042419563D

 41 43  0  0  1  0  0  0  0  0999 V2000
  191.6150  177.1450  143.7770 C   0  0  0  0  0  3  0  0  0  0  0  0
  190.6260  177.9080  143.3140 C   0  0  0  0  0  3  0  0  0  0  0  0
  191.5510  176.4610  145.1020 C   0  0  1  0  0  3  0  0  0  0  0  0
  189.1420  175.9050  145.1190 C   0  0  0  0  0  3  0  0  0  0  0  0
  190.6200  174.0320  145.4640 C   0  0  0  0  0  1  0  0  0  0  0  0
  189.3320  178.1280  143.9940 C   0  0  0  0  0  3  0  0  0  0  0  0
  188.6990  177.2860  144.8240 C   0  0  0  0  0  0  0  0  0  0  0  0
  190.4040  175.4810  145.1840 C   0  0  0  0  0  0  0  0  0  0  0  0
  193.1220  176.1610  147.0670 C   0  0  0  0  0  1  0  0  0  0  0  0
  192.9360  175.9550  145.5620 C   0  0  2  0  0  3  0  0  0  0  0  0
  194.8870  177.3580  145.6780 C   0  0  0  0  0  1  0  0  0  0  0  0
  194.0250  176.5770  144.7910 N   0  0  0  0  0  0  0  0  0  0  0  0
  195.1380  175.6230  140.2420 C   0  0  0  0  0  1  0  0  0  0  0  0
  194.1530  174.1620  144.2170 C   0  0  2  0  0  3  0  0  0  0  0  0
  194.4430  173.2720  143.0090 C   0  0  0  0  0  2  0  0  0  0  0  0
  194.4180  175.4380  141.5650 C   0  0  1  0  0  3  0  0  0  0  0  0
  194.8190  175.5420  144.1020 C   0  0  1  0  0  3  0  0  0  0  0  0
  194.0350  173.9940  141.7620 C   0  0  0  0  0  0  0  0  0  0  0  0
  193.3670  173.4140  140.9210 O   0  0  0  0  0  0  0  0  0  0  0  0
  195.3240  175.9370  142.6930 C   0  0  0  0  0  2  0  0  0  0  0  0
  194.6230  173.4890  145.4960 C   0  0  0  0  0  2  0  0  0  0  0  0
  197.0080  173.6500  146.1850 C   0  0  0  0  0  1  0  0  0  0  0  0
  196.0090  172.8930  145.3230 C   0  0  1  0  0  3  0  0  0  0  0  0
  195.9700  171.4580  145.7310 C   0  0  0  0  0  3  0  0  0  0  0  0
  197.0710  170.7100  145.7000 C   0  0  0  0  0  2  0  0  0  0  0  0
  187.3670  177.7050  145.3500 C   0  0  0  0  0  2  0  0  0  0  0  0
  186.4490  178.1580  144.2230 C   0  0  2  0  0  3  0  0  0  0  0  0
  184.4310  178.6840  145.5900 O   0  0  0  0  0  1  0  0  0  0  0  0
  185.4180  179.1240  144.7190 C   0  0  0  0  0  0  0  0  0  0  0  0
  185.4350  180.3280  144.3500 O   0  0  0  0  0  0  0  0  0  0  0  0
  185.7950  176.9450  143.5780 C   0  0  0  0  0  2  0  0  0  0  0  0
  186.5550  176.5250  142.3650 C   0  0  0  0  0  0  0  0  0  0  0  0
  187.3260  175.4260  142.3140 N   0  0  0  0  0  2  0  0  0  0  0  0
  186.5270  177.1480  141.1400 C   0  0  0  0  0  0  0  0  0  0  0  0
  187.3190  176.4290  140.2690 C   0  0  0  0  0  3  0  0  0  0  0  0
  187.7900  175.3770  141.0450 C   0  0  0  0  0  0  0  0  0  0  0  0
  188.3490  173.5930  139.5910 O   0  0  0  0  0  0  0  0  0  0  0  0
  188.6910  174.3230  140.5580 C   0  0  0  0  0  0  0  0  0  0  0  0
  190.0160  174.1060  141.1990 C   0  0  0  0  0  1  0  0  0  0  0  0
  184.3880  178.2830  140.4360 C   0  0  0  0  0  1  0  0  0  0  0  0
  185.7860  178.3300  140.8290 N   0  0  0  0  0  2  0  0  0  0  0  0
  1  3  1  0  0  0  0
  2  1  2  0  0  0  0
  2  6  1  0  0  0  0
  3  8  1  0  0  0  0
  3 10  1  6  0  0  0
  4  8  2  0  0  0  0
  6  7  2  0  0  0  0
  7  4  1  0  0  0  0
  7 26  1  0  0  0  0
  8  5  1  0  0  0  0
 10  9  1  1  0  0  0
 12 10  1  0  0  0  0
 12 11  1  0  0  0  0
 14 21  1  1  0  0  0
 15 14  1  0  0  0  0
 16 13  1  6  0  0  0
 16 18  1  0  0  0  0
 16 20  1  0  0  0  0
 17 14  1  0  0  0  0
 17 12  1  6  0  0  0
 18 15  1  0  0  0  0
 19 18  2  0  0  0  0
 20 17  1  0  0  0  0
 23 21  1  0  0  0  0
 23 24  1  0  0  0  0
 23 22  1  1  0  0  0
 25 24  2  0  0  0  0
 27 31  1  1  0  0  0
 27 29  1  0  0  0  0
 27 26  1  0  0  0  0
 29 28  1  0  0  0  0
 30 29  2  0  0  0  0
 32 31  1  0  0  0  0
 33 32  1  0  0  0  0
 34 32  2  0  0  0  0
 35 36  2  0  0  0  0
 35 34  1  0  0  0  0
 36 33  1  0  0  0  0
 37 38  2  0  0  0  0
 38 36  1  0  0  0  0
 38 39  1  0  0  0  0
 40 41  1  0  0  0  0
 41 34  1  0  0  0  0
M  END
>  <MODEL>
5

>  <REMARK>
 VINA RESULT:      -7.1      1.815      3.583
  Name = 
  13 active torsions:
  status: ('A' for Active; 'I' for Inactive)
    1  A    between atoms: C_5  and  C_19
    2  A    between atoms: C_5  and  C_33
    3  A    between atoms: C_6  and  C_8
    4  A    between atoms: C_6  and  C_38
    5  A    between atoms: C_9  and  C_36
    6  A    between atoms: C_14  and  N_35
    7  A    between atoms: C_16  and  C_26
    8  A    between atoms: C_19  and  C_21
    9  A    between atoms: C_19  and  C_26
   10  A    between atoms: C_20  and  C_38
   11  A    between atoms: C_23  and  N_32
   12  A    between atoms: N_35  and  C_36
   13  A    between atoms: C_37  and  C_39
                            x       y       z     vdW  Elec       q    Type
                         _______ _______ _______ _____ _____    ______ ____

>  <TORSDO>
F 13

$$$$
=
 OpenBabel11042419563D

 41 43  0  0  1  0  0  0  0  0999 V2000
  190.7200  176.8320  143.3850 C   0  0  0  0  0  3  0  0  0  0  0  0
  192.0250  177.0080  143.1870 C   0  0  0  0  0  3  0  0  0  0  0  0
  189.9540  175.7130  142.7600 C   0  0  1  0  0  3  0  0  0  0  0  0
  191.6990  173.9640  142.8630 C   0  0  0  0  0  3  0  0  0  0  0  0
  189.5970  173.3640  143.8800 C   0  0  0  0  0  1  0  0  0  0  0  0
  192.8950  176.1090  142.3980 C   0  0  0  0  0  3  0  0  0  0  0  0
  192.7360  174.7920  142.2050 C   0  0  0  0  0  0  0  0  0  0  0  0
  190.4690  174.3590  143.1910 C   0  0  0  0  0  0  0  0  0  0  0  0
  187.8140  176.0250  141.4400 C   0  0  0  0  0  1  0  0  0  0  0  0
  188.4280  175.9370  142.8390 C   0  0  2  0  0  3  0  0  0  0  0  0
  187.3880  178.1070  142.8400 C   0  0  0  0  0  1  0  0  0  0  0  0
  188.0940  177.1180  143.6540 N   0  0  0  0  0  0  0  0  0  0  0  0
  183.9860  178.6620  145.5450 C   0  0  0  0  0  1  0  0  0  0  0  0
  187.9680  177.0200  146.1350 C   0  0  2  0  0  3  0  0  0  0  0  0
  186.9880  177.3510  147.2590 C   0  0  0  0  0  2  0  0  0  0  0  0
  185.4890  178.4750  145.4510 C   0  0  1  0  0  3  0  0  0  0  0  0
  187.2590  176.7250  144.8040 C   0  0  1  0  0  3  0  0  0  0  0  0
  186.1110  178.4840  146.8240 C   0  0  0  0  0  0  0  0  0  0  0  0
  185.9260  179.4270  147.5770 O   0  0  0  0  0  0  0  0  0  0  0  0
  185.7770  177.1650  144.7140 C   0  0  0  0  0  2  0  0  0  0  0  0
  188.8270  175.8240  146.5150 C   0  0  0  0  0  2  0  0  0  0  0  0
  190.5120  177.2330  147.6830 C   0  0  0  0  0  1  0  0  0  0  0  0
  190.2950  176.2040  146.5840 C   0  0  1  0  0  3  0  0  0  0  0  0
  191.0960  174.9770  146.8690 C   0  0  0  0  0  3  0  0  0  0  0  0
  192.3310  174.8430  146.3890 C   0  0  0  0  0  2  0  0  0  0  0  0
  193.7780  174.0800  141.4110 C   0  0  0  0  0  2  0  0  0  0  0  0
  195.0170  174.9460  141.2290 C   0  0  2  0  0  3  0  0  0  0  0  0
  194.1260  175.2900  138.9250 O   0  0  0  0  0  0  0  0  0  0  0  0
  195.2100  175.3220  139.7920 C   0  0  0  0  0  0  0  0  0  0  0  0
  196.3450  175.6600  139.3620 O   0  0  0  0  0  1  0  0  0  0  0  0
  196.2370  174.2160  141.7700 C   0  0  0  0  0  2  0  0  0  0  0  0
  195.9950  173.7620  143.1700 C   0  0  0  0  0  0  0  0  0  0  0  0
  195.9090  172.4700  143.5300 N   0  0  0  0  0  0  0  0  0  0  0  0
  195.8910  174.5740  144.2750 C   0  0  1  0  0  3  0  0  0  0  0  0
  195.7210  173.7760  145.3870 C   0  0  0  0  0  3  0  0  0  0  0  0
  195.7370  172.4860  144.8710 C   0  0  0  0  0  0  0  0  0  0  0  0
  196.4630  170.9530  146.5240 O   0  0  0  0  0  0  0  0  0  0  0  0
  195.5870  171.2660  145.6770 C   0  0  0  0  0  0  0  0  0  0  0  0
  194.3980  170.3870  145.5020 C   0  0  0  0  0  1  0  0  0  0  0  0
  195.1970  176.8220  145.1830 C   0  0  0  0  0  1  0  0  0  0  0  0
  195.9650  176.0010  144.2630 N   0  0  0  0  0  2  0  0  0  0  0  0
  2  1  2  0  0  0  0
  3 10  1  1  0  0  0
  3  8  1  0  0  0  0
  3  1  1  0  0  0  0
  4  8  2  0  0  0  0
  6  2  1  0  0  0  0
  7  6  2  0  0  0  0
  7  4  1  0  0  0  0
  8  5  1  0  0  0  0
 10  9  1  6  0  0  0
 10 12  1  0  0  0  0
 11 12  1  0  0  0  0
 14 21  1  1  0  0  0
 14 15  1  0  0  0  0
 16 13  1  1  0  0  0
 16 18  1  0  0  0  0
 17 12  1  6  0  0  0
 17 14  1  0  0  0  0
 18 15  1  0  0  0  0
 18 19  2  0  0  0  0
 20 17  1  0  0  0  0
 20 16  1  0  0  0  0
 21 23  1  0  0  0  0
 23 24  1  0  0  0  0
 23 22  1  1  0  0  0
 25 24  2  0  0  0  0
 26  7  1  0  0  0  0
 27 26  1  6  0  0  0
 27 31  1  0  0  0  0
 28 29  2  0  0  0  0
 29 27  1  0  0  0  0
 30 29  1  0  0  0  0
 31 32  1  0  0  0  0
 32 33  2  0  0  0  0
 32 34  1  0  0  0  0
 33 36  1  0  0  0  0
 34 41  1  1  0  0  0
 34 35  1  0  0  0  0
 36 35  2  0  0  0  0
 36 38  1  0  0  0  0
 38 37  2  0  0  0  0
 39 38  1  0  0  0  0
 41 40  1  0  0  0  0
M  END
>  <MODEL>
6

>  <REMARK>
 VINA RESULT:      -6.9      2.555      8.551
  Name = 
  13 active torsions:
  status: ('A' for Active; 'I' for Inactive)
    1  A    between atoms: C_5  and  C_19
    2  A    between atoms: C_5  and  C_33
    3  A    between atoms: C_6  and  C_8
    4  A    between atoms: C_6  and  C_38
    5  A    between atoms: C_9  and  C_36
    6  A    between atoms: C_14  and  N_35
    7  A    between atoms: C_16  and  C_26
    8  A    between atoms: C_19  and  C_21
    9  A    between atoms: C_19  and  C_26
   10  A    between atoms: C_20  and  C_38
   11  A    between atoms: C_23  and  N_32
   12  A    between atoms: N_35  and  C_36
   13  A    between atoms: C_37  and  C_39
                            x       y       z     vdW  Elec       q    Type
                         _______ _______ _______ _____ _____    ______ ____

>  <TORSDO>
F 13

$$$$
=
 OpenBabel11042419563D

 41 43  0  0  1  0  0  0  0  0999 V2000
  192.2810  176.4050  145.8610 C   0  0  0  0  0  3  0  0  0  0  0  0
  193.3790  176.3870  146.6160 C   0  0  0  0  0  3  0  0  0  0  0  0
  192.1340  175.5660  144.6350 C   0  0  1  0  0  3  0  0  0  0  0  0
  193.3420  173.5540  145.4140 C   0  0  0  0  0  3  0  0  0  0  0  0
  191.1020  173.1500  144.6170 C   0  0  0  0  0  1  0  0  0  0  0  0
  194.5480  175.5100  146.3960 C   0  0  0  0  0  3  0  0  0  0  0  0
  194.5550  174.2960  145.8260 C   0  0  0  0  0  0  0  0  0  0  0  0
  192.2160  174.0880  144.9420 C   0  0  0  0  0  0  0  0  0  0  0  0
  191.4050  177.1100  142.7630 C   0  0  0  0  0  1  0  0  0  0  0  0
  190.9560  176.0310  143.7500 C   0  0  2  0  0  3  0  0  0  0  0  0
  189.6650  177.9310  144.4650 C   0  0  0  0  0  1  0  0  0  0  0  0
  189.8110  176.4790  144.5620 N   0  0  0  0  0  0  0  0  0  0  0  0
  188.2670  174.6430  140.4290 C   0  0  0  0  0  1  0  0  0  0  0  0
  187.3890  176.7970  144.1020 C   0  0  2  0  0  3  0  0  0  0  0  0
  186.3620  176.4640  143.0210 C   0  0  0  0  0  2  0  0  0  0  0  0
  188.3550  175.6610  141.5510 C   0  0  1  0  0  3  0  0  0  0  0  0
  188.5730  175.8180  144.1080 C   0  0  1  0  0  3  0  0  0  0  0  0
  187.0520  176.4050  141.6940 C   0  0  0  0  0  0  0  0  0  0  0  0
  186.5680  176.9870  140.7360 O   0  0  0  0  0  0  0  0  0  0  0  0
  188.7300  174.9360  142.8450 C   0  0  0  0  0  2  0  0  0  0  0  0
  186.7350  176.7920  145.4740 C   0  0  0  0  0  2  0  0  0  0  0  0
  184.8120  177.5700  146.8470 C   0  0  0  0  0  1  0  0  0  0  0  0
  185.4990  177.6730  145.4940 C   0  0  1  0  0  3  0  0  0  0  0  0
  185.9110  179.0860  145.2390 C   0  0  0  0  0  3  0  0  0  0  0  0
  185.3470  179.7940  144.2620 C   0  0  0  0  0  2  0  0  0  0  0  0
  195.8570  173.5710  145.7620 C   0  0  0  0  0  2  0  0  0  0  0  0
  195.7650  172.3590  144.8440 C   0  0  2  0  0  3  0  0  0  0  0  0
  197.5660  170.7700  145.5170 O   0  0  0  0  0  0  0  0  0  0  0  0
  196.2210  171.1150  145.5420 C   0  0  0  0  0  0  0  0  0  0  0  0
  195.3980  170.3780  146.1460 O   0  0  0  0  0  1  0  0  0  0  0  0
  196.5820  172.6080  143.5850 C   0  0  0  0  0  2  0  0  0  0  0  0
  195.8150  173.4530  142.6240 C   0  0  0  0  0  0  0  0  0  0  0  0
  194.6700  173.0630  142.0390 N   0  0  0  0  0  0  0  0  0  0  0  0
  196.1260  174.7410  142.2560 C   0  0  1  0  0  3  0  0  0  0  0  0
  195.1490  175.1940  141.3940 C   0  0  0  0  0  3  0  0  0  0  0  0
  194.2760  174.1190  141.2910 C   0  0  0  0  0  0  0  0  0  0  0  0
  193.0920  174.5300  139.2820 O   0  0  0  0  0  0  0  0  0  0  0  0
  193.0580  174.1120  140.4690 C   0  0  0  0  0  0  0  0  0  0  0  0
  191.7730  173.6110  141.0260 C   0  0  0  0  0  1  0  0  0  0  0  0
  197.1580  176.8660  143.1390 C   0  0  0  0  0  1  0  0  0  0  0  0
  197.2600  175.4810  142.7110 N   0  0  0  0  0  2  0  0  0  0  0  0
  1  2  2  0  0  0  0
  3 10  1  1  0  0  0
  3  8  1  0  0  0  0
  3  1  1  0  0  0  0
  4  7  1  0  0  0  0
  5  8  1  0  0  0  0
  6  2  1  0  0  0  0
  7  6  2  0  0  0  0
  8  4  2  0  0  0  0
 10  9  1  1  0  0  0
 10 12  1  0  0  0  0
 11 12  1  0  0  0  0
 14 17  1  0  0  0  0
 14 21  1  1  0  0  0
 15 14  1  0  0  0  0
 16 13  1  6  0  0  0
 16 18  1  0  0  0  0
 16 20  1  0  0  0  0
 17 12  1  6  0  0  0
 18 15  1  0  0  0  0
 19 18  2  0  0  0  0
 20 17  1  0  0  0  0
 21 23  1  0  0  0  0
 23 22  1  1  0  0  0
 24 23  1  0  0  0  0
 25 24  2  0  0  0  0
 26  7  1  0  0  0  0
 27 31  1  6  0  0  0
 27 29  1  0  0  0  0
 27 26  1  0  0  0  0
 28 29  2  0  0  0  0
 29 30  1  0  0  0  0
 32 31  1  0  0  0  0
 33 32  2  0  0  0  0
 34 32  1  0  0  0  0
 34 41  1  1  0  0  0
 35 34  1  0  0  0  0
 36 35  2  0  0  0  0
 36 33  1  0  0  0  0
 37 38  2  0  0  0  0
 38 39  1  0  0  0  0
 38 36  1  0  0  0  0
 41 40  1  0  0  0  0
M  END
>  <MODEL>
7

>  <REMARK>
 VINA RESULT:      -6.9      2.378      8.431
  Name = 
  13 active torsions:
  status: ('A' for Active; 'I' for Inactive)
    1  A    between atoms: C_5  and  C_19
    2  A    between atoms: C_5  and  C_33
    3  A    between atoms: C_6  and  C_8
    4  A    between atoms: C_6  and  C_38
    5  A    between atoms: C_9  and  C_36
    6  A    between atoms: C_14  and  N_35
    7  A    between atoms: C_16  and  C_26
    8  A    between atoms: C_19  and  C_21
    9  A    between atoms: C_19  and  C_26
   10  A    between atoms: C_20  and  C_38
   11  A    between atoms: C_23  and  N_32
   12  A    between atoms: N_35  and  C_36
   13  A    between atoms: C_37  and  C_39
                            x       y       z     vdW  Elec       q    Type
                         _______ _______ _______ _____ _____    ______ ____

>  <TORSDO>
F 13

$$$$
=
 OpenBabel11042419563D

 41 43  0  0  1  0  0  0  0  0999 V2000
  190.0220  174.5480  145.5150 C   0  0  0  0  0  3  0  0  0  0  0  0
  189.2140  174.7500  146.5550 C   0  0  0  0  0  3  0  0  0  0  0  0
  189.9160  175.3350  144.2500 C   0  0  1  0  0  3  0  0  0  0  0  0
  189.3010  177.5240  145.2230 C   0  0  0  0  0  3  0  0  0  0  0  0
  191.2340  177.5590  143.7840 C   0  0  0  0  0  1  0  0  0  0  0  0
  188.1730  175.7960  146.6340 C   0  0  0  0  0  3  0  0  0  0  0  0
  188.1720  176.9870  146.0180 C   0  0  0  0  0  0  0  0  0  0  0  0
  190.1450  176.8120  144.4770 C   0  0  0  0  0  0  0  0  0  0  0  0
  189.7590  173.8730  142.1870 C   0  0  0  0  0  1  0  0  0  0  0  0
  190.6960  174.6780  143.0900 C   0  0  2  0  0  3  0  0  0  0  0  0
  191.9530  172.6520  142.7640 C   0  0  0  0  0  1  0  0  0  0  0  0
  191.8140  173.8560  143.5840 N   0  0  0  0  0  0  0  0  0  0  0  0
  195.0110  175.0140  140.2260 C   0  0  0  0  0  1  0  0  0  0  0  0
  194.1780  173.9220  144.3510 C   0  0  2  0  0  3  0  0  0  0  0  0
  195.5700  174.2050  143.7900 C   0  0  0  0  0  2  0  0  0  0  0  0
  194.4690  174.2670  141.4310 C   0  0  1  0  0  3  0  0  0  0  0  0
  193.0690  174.6300  143.5570 C   0  0  1  0  0  3  0  0  0  0  0  0
  195.5940  173.8390  142.3380 C   0  0  0  0  0  0  0  0  0  0  0  0
  196.5160  173.1690  141.9010 O   0  0  0  0  0  0  0  0  0  0  0  0
  193.4720  175.1690  142.1620 C   0  0  0  0  0  2  0  0  0  0  0  0
  194.0960  174.3520  145.8070 C   0  0  0  0  0  2  0  0  0  0  0  0
  192.6450  175.8960  147.1110 C   0  0  0  0  0  1  0  0  0  0  0  0
  193.5960  175.7800  145.9290 C   0  0  1  0  0  3  0  0  0  0  0  0
  194.7670  176.6840  146.1270 C   0  0  0  0  0  3  0  0  0  0  0  0
  194.9170  177.7790  145.3830 C   0  0  0  0  0  2  0  0  0  0  0  0
  187.0300  177.9060  146.2930 C   0  0  0  0  0  2  0  0  0  0  0  0
  186.3740  178.3690  144.9980 C   0  0  2  0  0  3  0  0  0  0  0  0
  185.1700  180.5100  144.5650 O   0  0  0  0  0  0  0  0  0  0  0  0
  185.2470  179.3170  145.2720 C   0  0  0  0  0  0  0  0  0  0  0  0
  184.3740  179.0460  146.1380 O   0  0  0  0  0  1  0  0  0  0  0  0
  185.8910  177.1610  144.2090 C   0  0  0  0  0  2  0  0  0  0  0  0
  185.0870  177.5960  143.0310 C   0  0  0  0  0  0  0  0  0  0  0  0
  183.7640  177.8260  143.0750 N   0  0  0  0  0  2  0  0  0  0  0  0
  185.5800  177.8770  141.7780 C   0  0  0  0  0  0  0  0  0  0  0  0
  184.5320  178.2940  140.9830 C   0  0  0  0  0  3  0  0  0  0  0  0
  183.4340  178.2420  141.8320 C   0  0  0  0  0  0  0  0  0  0  0  0
  181.3720  179.3580  142.1660 O   0  0  0  0  0  0  0  0  0  0  0  0
  182.0630  178.5960  141.4400 C   0  0  0  0  0  0  0  0  0  0  0  0
  181.4740  178.0590  140.1830 C   0  0  0  0  0  1  0  0  0  0  0  0
  187.4410  176.6450  140.6060 C   0  0  0  0  0  1  0  0  0  0  0  0
  186.9490  177.7680  141.3830 N   0  0  0  0  0  2  0  0  0  0  0  0
  1  2  2  0  0  0  0
  2  6  1  0  0  0  0
  3 10  1  6  0  0  0
  3  8  1  0  0  0  0
  3  1  1  0  0  0  0
  4  7  1  0  0  0  0
  5  8  1  0  0  0  0
  7 26  1  0  0  0  0
  7  6  2  0  0  0  0
  8  4  2  0  0  0  0
 10  9  1  1  0  0  0
 10 12  1  0  0  0  0
 11 12  1  0  0  0  0
 14 21  1  1  0  0  0
 15 14  1  0  0  0  0
 16 13  1  6  0  0  0
 16 20  1  0  0  0  0
 16 18  1  0  0  0  0
 17 12  1  6  0  0  0
 17 14  1  0  0  0  0
 18 15  1  0  0  0  0
 19 18  2  0  0  0  0
 20 17  1  0  0  0  0
 21 23  1  0  0  0  0
 23 24  1  0  0  0  0
 23 22  1  1  0  0  0
 25 24  2  0  0  0  0
 27 31  1  1  0  0  0
 27 29  1  0  0  0  0
 27 26  1  0  0  0  0
 28 29  2  0  0  0  0
 29 30  1  0  0  0  0
 32 33  1  0  0  0  0
 32 31  1  0  0  0  0
 34 32  2  0  0  0  0
 35 34  1  0  0  0  0
 35 36  2  0  0  0  0
 36 33  1  0  0  0  0
 38 36  1  0  0  0  0
 38 37  2  0  0  0  0
 39 38  1  0  0  0  0
 40 41  1  0  0  0  0
 41 34  1  0  0  0  0
M  END
>  <MODEL>
8

>  <REMARK>
 VINA RESULT:      -6.8      1.942      3.308
  Name = 
  13 active torsions:
  status: ('A' for Active; 'I' for Inactive)
    1  A    between atoms: C_5  and  C_19
    2  A    between atoms: C_5  and  C_33
    3  A    between atoms: C_6  and  C_8
    4  A    between atoms: C_6  and  C_38
    5  A    between atoms: C_9  and  C_36
    6  A    between atoms: C_14  and  N_35
    7  A    between atoms: C_16  and  C_26
    8  A    between atoms: C_19  and  C_21
    9  A    between atoms: C_19  and  C_26
   10  A    between atoms: C_20  and  C_38
   11  A    between atoms: C_23  and  N_32
   12  A    between atoms: N_35  and  C_36
   13  A    between atoms: C_37  and  C_39
                            x       y       z     vdW  Elec       q    Type
                         _______ _______ _______ _____ _____    ______ ____

>  <TORSDO>
F 13

$$$$
=
 OpenBabel11042419563D

 41 43  0  0  1  0  0  0  0  0999 V2000
  192.6380  175.9100  146.7220 C   0  0  0  0  0  3  0  0  0  0  0  0
  191.7410  175.8810  147.7080 C   0  0  0  0  0  3  0  0  0  0  0  0
  192.2730  175.6620  145.2960 C   0  0  1  0  0  3  0  0  0  0  0  0
  190.0500  176.7460  145.2860 C   0  0  0  0  0  3  0  0  0  0  0  0
  191.5800  177.5470  143.6030 C   0  0  0  0  0  1  0  0  0  0  0  0
  190.2890  175.6740  147.5310 C   0  0  0  0  0  3  0  0  0  0  0  0
  189.5480  175.9970  146.4610 C   0  0  0  0  0  0  0  0  0  0  0  0
  191.2800  176.6760  144.7770 C   0  0  0  0  0  0  0  0  0  0  0  0
  194.5450  176.5090  144.5610 C   0  0  0  0  0  1  0  0  0  0  0  0
  193.5140  175.3870  144.4180 C   0  0  2  0  0  3  0  0  0  0  0  0
  194.3200  175.3160  142.1520 C   0  0  0  0  0  1  0  0  0  0  0  0
  193.1440  175.1640  143.0100 N   0  0  0  0  0  0  0  0  0  0  0  0
  188.7210  173.3700  142.7670 C   0  0  0  0  0  1  0  0  0  0  0  0
  192.8470  172.9340  144.0670 C   0  0  2  0  0  3  0  0  0  0  0  0
  191.7450  171.9030  144.3060 C   0  0  0  0  0  2  0  0  0  0  0  0
  190.0650  173.6750  143.4040 C   0  0  1  0  0  3  0  0  0  0  0  0
  192.5690  173.8170  142.8400 C   0  0  1  0  0  3  0  0  0  0  0  0
  190.4290  172.6100  144.4060 C   0  0  0  0  0  0  0  0  0  0  0  0
  189.6670  172.3380  145.3200 O   0  0  0  0  0  0  0  0  0  0  0  0
  191.1180  173.7900  142.3000 C   0  0  0  0  0  2  0  0  0  0  0  0
  194.1890  172.2430  143.8870 C   0  0  0  0  0  2  0  0  0  0  0  0
  195.3090  170.7390  145.5220 C   0  0  0  0  0  1  0  0  0  0  0  0
  194.9530  172.1810  145.1980 C   0  0  1  0  0  3  0  0  0  0  0  0
  196.1970  172.9960  145.0680 C   0  0  0  0  0  3  0  0  0  0  0  0
  196.6620  173.7000  146.0990 C   0  0  0  0  0  2  0  0  0  0  0  0
  188.0810  175.7410  146.5330 C   0  0  0  0  0  2  0  0  0  0  0  0
  187.2870  176.9880  146.1690 C   0  0  2  0  0  3  0  0  0  0  0  0
  185.6470  177.4720  147.9850 O   0  0  0  0  0  1  0  0  0  0  0  0
  186.8730  177.7430  147.3940 C   0  0  0  0  0  0  0  0  0  0  0  0
  187.6240  178.6250  147.8900 O   0  0  0  0  0  0  0  0  0  0  0  0
  186.0760  176.5980  145.3340 C   0  0  0  0  0  2  0  0  0  0  0  0
  186.1940  177.1500  143.9540 C   0  0  0  0  0  0  0  0  0  0  0  0
  186.6800  176.4540  142.9120 N   0  0  0  0  0  0  0  0  0  0  0  0
  185.7770  178.3950  143.5440 C   0  0  1  0  0  3  0  0  0  0  0  0
  186.0120  178.5070  142.1890 C   0  0  0  0  0  3  0  0  0  0  0  0
  186.5730  177.2830  141.8500 C   0  0  0  0  0  0  0  0  0  0  0  0
  186.6680  177.6170  139.5070 O   0  0  0  0  0  0  0  0  0  0  0  0
  187.0060  176.9140  140.4950 C   0  0  0  0  0  0  0  0  0  0  0  0
  187.8480  175.7070  140.2740 C   0  0  0  0  0  1  0  0  0  0  0  0
  184.1140  179.0720  145.3140 C   0  0  0  0  0  1  0  0  0  0  0  0
  185.1840  179.3870  144.3840 N   0  0  0  0  0  2  0  0  0  0  0  0
  1  2  2  0  0  0  0
  3 10  1  6  0  0  0
  3  1  1  0  0  0  0
  4  7  1  0  0  0  0
  5  8  1  0  0  0  0
  6  2  1  0  0  0  0
  7 26  1  0  0  0  0
  7  6  2  0  0  0  0
  8  4  2  0  0  0  0
  8  3  1  0  0  0  0
 10  9  1  6  0  0  0
 11 12  1  0  0  0  0
 12 10  1  0  0  0  0
 14 21  1  6  0  0  0
 14 15  1  0  0  0  0
 15 18  1  0  0  0  0
 16 13  1  6  0  0  0
 16 18  1  0  0  0  0
 17 12  1  1  0  0  0
 17 14  1  0  0  0  0
 18 19  2  0  0  0  0
 20 17  1  0  0  0  0
 20 16  1  0  0  0  0
 21 23  1  0  0  0  0
 23 22  1  6  0  0  0
 24 23  1  0  0  0  0
 24 25  2  0  0  0  0
 27 31  1  1  0  0  0
 27 26  1  0  0  0  0
 27 29  1  0  0  0  0
 29 30  2  0  0  0  0
 29 28  1  0  0  0  0
 32 31  1  0  0  0  0
 33 32  2  0  0  0  0
 34 32  1  0  0  0  0
 34 41  1  6  0  0  0
 35 34  1  0  0  0  0
 36 35  2  0  0  0  0
 36 33  1  0  0  0  0
 37 38  2  0  0  0  0
 38 36  1  0  0  0  0
 39 38  1  0  0  0  0
 41 40  1  0  0  0  0
M  END
>  <MODEL>
9

>  <REMARK>
 VINA RESULT:      -6.8      2.074      3.928
  Name = 
  13 active torsions:
  status: ('A' for Active; 'I' for Inactive)
    1  A    between atoms: C_5  and  C_19
    2  A    between atoms: C_5  and  C_33
    3  A    between atoms: C_6  and  C_8
    4  A    between atoms: C_6  and  C_38
    5  A    between atoms: C_9  and  C_36
    6  A    between atoms: C_14  and  N_35
    7  A    between atoms: C_16  and  C_26
    8  A    between atoms: C_19  and  C_21
    9  A    between atoms: C_19  and  C_26
   10  A    between atoms: C_20  and  C_38
   11  A    between atoms: C_23  and  N_32
   12  A    between atoms: N_35  and  C_36
   13  A    between atoms: C_37  and  C_39
                            x       y       z     vdW  Elec       q    Type
                         _______ _______ _______ _____ _____    ______ ____

>  <TORSDO>
F 13

$$$$
