=
 OpenBabel11042417203D

 26 28  0  0  1  0  0  0  0  0999 V2000
  191.4570  175.4640  147.5120 C   0  0  0  0  0  2  0  0  0  0  0  0
  190.5290  175.8050  145.3020 C   0  0  2  0  0  3  0  0  0  0  0  0
  192.9120  176.5650  145.7700 C   0  0  0  0  0  0  0  0  0  0  0  0
  194.0200  176.6130  146.6640 N   0  0  0  0  0  1  0  0  0  0  0  0
  190.0110  175.0060  147.5450 C   0  0  0  0  0  2  0  0  0  0  0  0
  192.9980  177.1320  144.6490 O   0  0  0  0  0  0  0  0  0  0  0  0
  191.7060  175.8880  146.1490 N   0  0  0  0  0  0  0  0  0  0  0  0
  189.3800  175.4550  146.2330 C   0  0  1  0  0  3  0  0  0  0  0  0
  188.5250  176.6850  146.4820 C   0  0  0  0  0  2  0  0  0  0  0  0
  188.4110  177.6870  144.9680 S   0  0  0  0  0  0  0  0  0  0  0  0
  184.9060  178.1780  146.9140 C   0  0  0  0  0  3  0  0  0  0  0  0
  185.7700  178.5080  144.2500 C   0  0  0  0  0  0  0  0  0  0  0  0
  186.2310  177.9140  146.5740 C   0  0  0  0  0  3  0  0  0  0  0  0
  186.6790  178.0670  145.2570 C   0  0  0  0  0  0  0  0  0  0  0  0
  184.4360  178.7660  144.6160 C   0  0  0  0  0  0  0  0  0  0  0  0
  184.0100  178.6020  145.9360 C   0  0  0  0  0  3  0  0  0  0  0  0
  183.5180  179.1910  143.6620 O   0  0  0  0  0  1  0  0  0  0  0  0
  186.3160  177.8060  141.9900 C   0  0  0  0  0  0  0  0  0  0  0  0
  186.5130  176.9350  141.1330 O   0  0  0  0  0  0  0  0  0  0  0  0
  186.1150  178.7080  142.8650 N   0  0  0  0  0  0  0  0  0  0  0  0
  190.6890  174.6840  144.2800 C   0  0  0  0  0  2  0  0  0  0  0  0
  189.3940  174.1280  143.9270 N   0  0  0  0  0  0  0  0  0  0  0  0
  189.0190  174.7060  142.6470 C   0  0  0  0  0  2  0  0  0  0  0  0
  188.2990  173.6360  141.8570 C   0  0  0  0  0  2  0  0  0  0  0  0
  189.5870  172.7090  143.6640 C   0  0  0  0  0  2  0  0  0  0  0  0
  188.7020  172.3300  142.4960 C   0  0  0  0  0  2  0  0  0  0  0  0
  1  5  1  0  0  0  0
  2 21  1  6  0  0  0
  2  7  1  0  0  0  0
  2  8  1  0  0  0  0
  3  7  1  0  0  0  0
  3  4  1  0  0  0  0
  6  3  2  0  0  0  0
  7  1  1  0  0  0  0
  8  9  1  1  0  0  0
  8  5  1  0  0  0  0
 10 14  1  0  0  0  0
 10  9  1  0  0  0  0
 12 15  2  0  0  0  0
 12 14  1  0  0  0  0
 13 11  1  0  0  0  0
 14 13  2  0  0  0  0
 15 16  1  0  0  0  0
 16 11  2  0  0  0  0
 17 15  1  0  0  0  0
 18 20  2  0  0  0  0
 19 18  2  0  0  0  0
 20 12  1  0  0  0  0
 22 21  1  0  0  0  0
 23 22  1  0  0  0  0
 24 26  1  0  0  0  0
 24 23  1  0  0  0  0
 25 22  1  0  0  0  0
 26 25  1  0  0  0  0
M  END
>  <MODEL>
1

>  <REMARK>
 VINA RESULT:      -6.9      0.000      0.000
  Name = 
  6 active torsions:
  status: ('A' for Active; 'I' for Inactive)
    1  A    between atoms: N_2  and  C_15
    2  A    between atoms: C_4  and  S_13
    3  A    between atoms: C_4  and  C_25
    4  A    between atoms: C_5  and  N_22
    5  A    between atoms: C_10  and  C_15
    6  A    between atoms: S_13  and  C_14
                            x       y       z     vdW  Elec       q    Type
                         _______ _______ _______ _____ _____    ______ ____

>  <TORSDO>
F 6

$$$$
=
 OpenBabel11042417203D

 26 28  0  0  1  0  0  0  0  0999 V2000
  190.0290  177.1340  142.7720 C   0  0  0  0  0  2  0  0  0  0  0  0
  190.2130  175.7000  144.7140 C   0  0  2  0  0  3  0  0  0  0  0  0
  189.3180  174.7250  142.5400 C   0  0  0  0  0  0  0  0  0  0  0  0
  189.0470  174.8940  141.1530 N   0  0  0  0  0  1  0  0  0  0  0  0
  190.4970  177.9910  143.9330 C   0  0  0  0  0  2  0  0  0  0  0  0
  189.0160  173.6380  143.1010 O   0  0  0  0  0  0  0  0  0  0  0  0
  189.9180  175.7880  143.2940 N   0  0  0  0  0  0  0  0  0  0  0  0
  190.3690  177.1350  145.1880 C   0  0  1  0  0  3  0  0  0  0  0  0
  189.1320  177.5600  145.9590 C   0  0  0  0  0  2  0  0  0  0  0  0
  188.0680  176.1210  146.2820 S   0  0  0  0  0  0  0  0  0  0  0  0
  184.9370  178.4670  147.2840 C   0  0  0  0  0  3  0  0  0  0  0  0
  185.8590  177.2880  144.8950 C   0  0  0  0  0  0  0  0  0  0  0  0
  186.0940  177.6920  147.2930 C   0  0  0  0  0  3  0  0  0  0  0  0
  186.5670  177.0940  146.1180 C   0  0  0  0  0  0  0  0  0  0  0  0
  184.6910  178.0730  144.9120 C   0  0  0  0  0  0  0  0  0  0  0  0
  184.2370  178.6550  146.0960 C   0  0  0  0  0  3  0  0  0  0  0  0
  183.9710  178.2800  143.7410 O   0  0  0  0  0  1  0  0  0  0  0  0
  186.5690  177.3720  142.5730 C   0  0  0  0  0  0  0  0  0  0  0  0
  186.8800  177.9890  141.5470 O   0  0  0  0  0  0  0  0  0  0  0  0
  186.2510  176.7300  143.6250 N   0  0  0  0  0  0  0  0  0  0  0  0
  191.5310  174.9660  144.9370 C   0  0  0  0  0  2  0  0  0  0  0  0
  192.5890  175.9060  145.2670 N   0  0  0  0  0  0  0  0  0  0  0  0
  193.2820  175.3730  146.4280 C   0  0  0  0  0  2  0  0  0  0  0  0
  194.7510  175.6980  146.2700 C   0  0  0  0  0  2  0  0  0  0  0  0
  193.5630  175.8620  144.1860 C   0  0  0  0  0  2  0  0  0  0  0  0
  194.9410  175.9780  144.8000 C   0  0  0  0  0  2  0  0  0  0  0  0
  1  7  1  0  0  0  0
  1  5  1  0  0  0  0
  2 21  1  6  0  0  0
  2  8  1  0  0  0  0
  3  6  2  0  0  0  0
  3  7  1  0  0  0  0
  4  3  1  0  0  0  0
  5  8  1  0  0  0  0
  7  2  1  0  0  0  0
  8  9  1  6  0  0  0
  9 10  1  0  0  0  0
 11 13  1  0  0  0  0
 12 15  2  0  0  0  0
 12 14  1  0  0  0  0
 14 10  1  0  0  0  0
 14 13  2  0  0  0  0
 15 16  1  0  0  0  0
 16 11  2  0  0  0  0
 17 15  1  0  0  0  0
 18 20  2  0  0  0  0
 19 18  2  0  0  0  0
 20 12  1  0  0  0  0
 21 22  1  0  0  0  0
 22 23  1  0  0  0  0
 24 23  1  0  0  0  0
 25 26  1  0  0  0  0
 25 22  1  0  0  0  0
 26 24  1  0  0  0  0
M  END
>  <MODEL>
2

>  <REMARK>
 VINA RESULT:      -6.5      1.881      3.913
  Name = 
  6 active torsions:
  status: ('A' for Active; 'I' for Inactive)
    1  A    between atoms: N_2  and  C_15
    2  A    between atoms: C_4  and  S_13
    3  A    between atoms: C_4  and  C_25
    4  A    between atoms: C_5  and  N_22
    5  A    between atoms: C_10  and  C_15
    6  A    between atoms: S_13  and  C_14
                            x       y       z     vdW  Elec       q    Type
                         _______ _______ _______ _____ _____    ______ ____

>  <TORSDO>
F 6

$$$$
=
 OpenBabel11042417203D

 26 28  0  0  1  0  0  0  0  0999 V2000
  187.9920  175.5790  141.0010 C   0  0  0  0  0  2  0  0  0  0  0  0
  187.2520  177.1500  142.6870 C   0  0  2  0  0  3  0  0  0  0  0  0
  186.4120  177.4170  140.3000 C   0  0  0  0  0  0  0  0  0  0  0  0
  186.3380  176.9060  138.9730 N   0  0  0  0  0  1  0  0  0  0  0  0
  188.7130  175.2400  142.2910 C   0  0  0  0  0  2  0  0  0  0  0  0
  185.8600  178.5160  140.5710 O   0  0  0  0  0  0  0  0  0  0  0  0
  187.1190  176.6910  141.3160 N   0  0  0  0  0  0  0  0  0  0  0  0
  188.4280  176.3780  143.2640 C   0  0  1  0  0  3  0  0  0  0  0  0
  189.6450  177.2820  143.3490 C   0  0  0  0  0  2  0  0  0  0  0  0
  190.1200  177.5360  145.0860 S   0  0  0  0  0  0  0  0  0  0  0  0
  193.9200  176.3070  144.4860 C   0  0  0  0  0  3  0  0  0  0  0  0
  191.4900  175.0290  145.1290 C   0  0  0  0  0  0  0  0  0  0  0  0
  192.7540  177.0570  144.6260 C   0  0  0  0  0  3  0  0  0  0  0  0
  191.5370  176.4420  144.9410 C   0  0  0  0  0  0  0  0  0  0  0  0
  192.6790  174.2910  144.9790 C   0  0  0  0  0  0  0  0  0  0  0  0
  193.8800  174.9260  144.6600 C   0  0  0  0  0  3  0  0  0  0  0  0
  192.6720  172.9110  145.1480 O   0  0  0  0  0  1  0  0  0  0  0  0
  189.5940  174.4030  146.5130 C   0  0  0  0  0  0  0  0  0  0  0  0
  188.9030  174.5100  147.5330 O   0  0  0  0  0  0  0  0  0  0  0  0
  190.2990  174.2860  145.4600 N   0  0  0  0  0  0  0  0  0  0  0  0
  186.0000  176.8020  143.4870 C   0  0  0  0  0  2  0  0  0  0  0  0
  185.8690  177.6820  144.6360 N   0  0  0  0  0  0  0  0  0  0  0  0
  184.6990  178.5130  144.4030 C   0  0  0  0  0  2  0  0  0  0  0  0
  184.0160  178.7230  145.7360 C   0  0  0  0  0  2  0  0  0  0  0  0
  185.5260  176.8520  145.7820 C   0  0  0  0  0  2  0  0  0  0  0  0
  184.5260  177.6150  146.6230 C   0  0  0  0  0  2  0  0  0  0  0  0
  1  7  1  0  0  0  0
  1  5  1  0  0  0  0
  2  8  1  0  0  0  0
  2 21  1  1  0  0  0
  3  6  2  0  0  0  0
  3  7  1  0  0  0  0
  4  3  1  0  0  0  0
  5  8  1  0  0  0  0
  7  2  1  0  0  0  0
  8  9  1  6  0  0  0
  9 10  1  0  0  0  0
 11 13  2  0  0  0  0
 11 16  1  0  0  0  0
 12 20  1  0  0  0  0
 13 14  1  0  0  0  0
 14 10  1  0  0  0  0
 14 12  2  0  0  0  0
 15 12  1  0  0  0  0
 15 17  1  0  0  0  0
 16 15  2  0  0  0  0
 18 19  2  0  0  0  0
 20 18  2  0  0  0  0
 21 22  1  0  0  0  0
 22 25  1  0  0  0  0
 23 22  1  0  0  0  0
 23 24  1  0  0  0  0
 24 26  1  0  0  0  0
 25 26  1  0  0  0  0
M  END
>  <MODEL>
3

>  <REMARK>
 VINA RESULT:      -6.4      2.272      7.225
  Name = 
  6 active torsions:
  status: ('A' for Active; 'I' for Inactive)
    1  A    between atoms: N_2  and  C_15
    2  A    between atoms: C_4  and  S_13
    3  A    between atoms: C_4  and  C_25
    4  A    between atoms: C_5  and  N_22
    5  A    between atoms: C_10  and  C_15
    6  A    between atoms: S_13  and  C_14
                            x       y       z     vdW  Elec       q    Type
                         _______ _______ _______ _____ _____    ______ ____

>  <TORSDO>
F 6

$$$$
=
 OpenBabel11042417203D

 26 28  0  0  1  0  0  0  0  0999 V2000
  187.2880  176.0730  141.2440 C   0  0  0  0  0  2  0  0  0  0  0  0
  187.6050  177.0380  143.4420 C   0  0  2  0  0  3  0  0  0  0  0  0
  186.1700  178.2780  141.7460 C   0  0  0  0  0  0  0  0  0  0  0  0
  185.5360  178.2950  140.4700 N   0  0  0  0  0  1  0  0  0  0  0  0
  188.2490  175.1780  142.0040 C   0  0  0  0  0  2  0  0  0  0  0  0
  186.0740  179.2840  142.4970 O   0  0  0  0  0  0  0  0  0  0  0  0
  186.9200  177.1290  142.1650 N   0  0  0  0  0  0  0  0  0  0  0  0
  188.6270  175.9240  143.2780 C   0  0  1  0  0  3  0  0  0  0  0  0
  190.0150  176.5190  143.1180 C   0  0  0  0  0  2  0  0  0  0  0  0
  190.2400  177.9100  144.2690 S   0  0  0  0  0  0  0  0  0  0  0  0
  190.6720  175.6150  147.5640 C   0  0  0  0  0  3  0  0  0  0  0  0
  192.3800  176.4580  145.4850 C   0  0  0  0  0  0  0  0  0  0  0  0
  190.1800  176.4300  146.5470 C   0  0  0  0  0  3  0  0  0  0  0  0
  191.0120  176.8630  145.5070 C   0  0  0  0  0  0  0  0  0  0  0  0
  192.8550  175.6390  146.5250 C   0  0  0  0  0  0  0  0  0  0  0  0
  192.0070  175.2230  147.5540 C   0  0  0  0  0  3  0  0  0  0  0  0
  194.1830  175.2290  146.5410 O   0  0  0  0  0  1  0  0  0  0  0  0
  193.6060  176.1900  143.4050 C   0  0  0  0  0  0  0  0  0  0  0  0
  193.8820  175.5690  142.3710 O   0  0  0  0  0  0  0  0  0  0  0  0
  193.3280  176.8350  144.4670 N   0  0  0  0  0  0  0  0  0  0  0  0
  186.6260  176.6440  144.5430 C   0  0  0  0  0  2  0  0  0  0  0  0
  186.3180  177.7880  145.3850 N   0  0  0  0  0  0  0  0  0  0  0  0
  184.8700  177.8670  145.4810 C   0  0  0  0  0  2  0  0  0  0  0  0
  184.5300  178.3230  146.8820 C   0  0  0  0  0  2  0  0  0  0  0  0
  186.7740  177.4710  146.7310 C   0  0  0  0  0  2  0  0  0  0  0  0
  185.7590  178.0280  147.7060 C   0  0  0  0  0  2  0  0  0  0  0  0
  1  5  1  0  0  0  0
  1  7  1  0  0  0  0
  2 21  1  1  0  0  0
  3  7  1  0  0  0  0
  3  6  2  0  0  0  0
  4  3  1  0  0  0  0
  5  8  1  0  0  0  0
  7  2  1  0  0  0  0
  8  9  1  6  0  0  0
  8  2  1  0  0  0  0
  9 10  1  0  0  0  0
 10 14  1  0  0  0  0
 12 14  2  0  0  0  0
 12 15  1  0  0  0  0
 13 11  2  0  0  0  0
 14 13  1  0  0  0  0
 15 17  1  0  0  0  0
 15 16  2  0  0  0  0
 16 11  1  0  0  0  0
 18 20  2  0  0  0  0
 19 18  2  0  0  0  0
 20 12  1  0  0  0  0
 21 22  1  0  0  0  0
 22 23  1  0  0  0  0
 22 25  1  0  0  0  0
 23 24  1  0  0  0  0
 24 26  1  0  0  0  0
 25 26  1  0  0  0  0
M  END
>  <MODEL>
4

>  <REMARK>
 VINA RESULT:      -6.4      2.019      6.957
  Name = 
  6 active torsions:
  status: ('A' for Active; 'I' for Inactive)
    1  A    between atoms: N_2  and  C_15
    2  A    between atoms: C_4  and  S_13
    3  A    between atoms: C_4  and  C_25
    4  A    between atoms: C_5  and  N_22
    5  A    between atoms: C_10  and  C_15
    6  A    between atoms: S_13  and  C_14
                            x       y       z     vdW  Elec       q    Type
                         _______ _______ _______ _____ _____    ______ ____

>  <TORSDO>
F 6

$$$$
=
 OpenBabel11042417203D

 26 28  0  0  1  0  0  0  0  0999 V2000
  193.2440  175.5280  146.0560 C   0  0  0  0  0  2  0  0  0  0  0  0
  191.3280  175.4060  144.5820 C   0  0  2  0  0  3  0  0  0  0  0  0
  193.5880  176.0610  143.6150 C   0  0  0  0  0  0  0  0  0  0  0  0
  194.9890  176.2320  143.8050 N   0  0  0  0  0  1  0  0  0  0  0  0
  192.0300  175.2100  146.9080 C   0  0  0  0  0  2  0  0  0  0  0  0
  193.0790  176.3350  142.4960 O   0  0  0  0  0  0  0  0  0  0  0  0
  192.7640  175.5930  144.6910 N   0  0  0  0  0  0  0  0  0  0  0  0
  190.8090  175.3810  146.0110 C   0  0  1  0  0  3  0  0  0  0  0  0
  190.1310  176.7010  146.3350 C   0  0  0  0  0  2  0  0  0  0  0  0
  189.6850  177.5710  144.8020 S   0  0  0  0  0  0  0  0  0  0  0  0
  186.2560  176.8820  146.8220 C   0  0  0  0  0  3  0  0  0  0  0  0
  186.8940  177.7930  144.2310 C   0  0  0  0  0  0  0  0  0  0  0  0
  187.5890  177.0110  146.4380 C   0  0  0  0  0  3  0  0  0  0  0  0
  187.9280  177.4580  145.1550 C   0  0  0  0  0  0  0  0  0  0  0  0
  185.5550  177.6520  144.6400 C   0  0  0  0  0  0  0  0  0  0  0  0
  185.2420  177.2000  145.9230 C   0  0  0  0  0  3  0  0  0  0  0  0
  184.5200  177.9630  143.7650 O   0  0  0  0  0  1  0  0  0  0  0  0
  187.3080  177.5580  141.8490 C   0  0  0  0  0  0  0  0  0  0  0  0
  187.4920  176.8760  140.8330 O   0  0  0  0  0  0  0  0  0  0  0  0
  187.1180  178.2680  142.8880 N   0  0  0  0  0  0  0  0  0  0  0  0
  191.0160  174.0650  143.9270 C   0  0  0  0  0  2  0  0  0  0  0  0
  190.3030  174.2620  142.6760 N   0  0  0  0  0  0  0  0  0  0  0  0
  190.4880  173.0540  141.8870 C   0  0  0  0  0  2  0  0  0  0  0  0
  189.2010  172.7990  141.1360 C   0  0  0  0  0  2  0  0  0  0  0  0
  188.8810  174.3010  142.9860 C   0  0  0  0  0  2  0  0  0  0  0  0
  188.1450  173.5810  141.8780 C   0  0  0  0  0  2  0  0  0  0  0  0
  1  5  1  0  0  0  0
  2 21  1  1  0  0  0
  2  7  1  0  0  0  0
  2  8  1  0  0  0  0
  3  4  1  0  0  0  0
  3  7  1  0  0  0  0
  6  3  2  0  0  0  0
  7  1  1  0  0  0  0
  8  9  1  1  0  0  0
  8  5  1  0  0  0  0
 10 14  1  0  0  0  0
 10  9  1  0  0  0  0
 12 15  2  0  0  0  0
 12 14  1  0  0  0  0
 13 11  1  0  0  0  0
 14 13  2  0  0  0  0
 15 16  1  0  0  0  0
 16 11  2  0  0  0  0
 17 15  1  0  0  0  0
 18 20  2  0  0  0  0
 19 18  2  0  0  0  0
 20 12  1  0  0  0  0
 22 25  1  0  0  0  0
 22 21  1  0  0  0  0
 23 22  1  0  0  0  0
 24 26  1  0  0  0  0
 24 23  1  0  0  0  0
 26 25  1  0  0  0  0
M  END
>  <MODEL>
5

>  <REMARK>
 VINA RESULT:      -6.4      1.442      1.740
  Name = 
  6 active torsions:
  status: ('A' for Active; 'I' for Inactive)
    1  A    between atoms: N_2  and  C_15
    2  A    between atoms: C_4  and  S_13
    3  A    between atoms: C_4  and  C_25
    4  A    between atoms: C_5  and  N_22
    5  A    between atoms: C_10  and  C_15
    6  A    between atoms: S_13  and  C_14
                            x       y       z     vdW  Elec       q    Type
                         _______ _______ _______ _____ _____    ______ ____

>  <TORSDO>
F 6

$$$$
=
 OpenBabel11042417203D

 26 28  0  0  1  0  0  0  0  0999 V2000
  188.9800  173.7680  142.3020 C   0  0  0  0  0  2  0  0  0  0  0  0
  188.3630  176.0110  141.6310 C   0  0  2  0  0  3  0  0  0  0  0  0
  188.1820  174.1220  139.9360 C   0  0  0  0  0  0  0  0  0  0  0  0
  188.2600  172.7280  139.6550 N   0  0  0  0  0  1  0  0  0  0  0  0
  189.2720  174.6930  143.4680 C   0  0  0  0  0  2  0  0  0  0  0  0
  187.9190  174.9260  139.0030 O   0  0  0  0  0  0  0  0  0  0  0  0
  188.4120  174.6060  141.2660 N   0  0  0  0  0  0  0  0  0  0  0  0
  189.1150  176.1170  142.9480 C   0  0  1  0  0  3  0  0  0  0  0  0
  190.4890  176.7190  142.7110 C   0  0  0  0  0  2  0  0  0  0  0  0
  190.8070  178.0510  143.9080 S   0  0  0  0  0  0  0  0  0  0  0  0
  193.4810  175.4900  145.5210 C   0  0  0  0  0  3  0  0  0  0  0  0
  191.0090  176.5690  146.3430 C   0  0  0  0  0  0  0  0  0  0  0  0
  192.7990  176.3790  144.6920 C   0  0  0  0  0  3  0  0  0  0  0  0
  191.5690  176.9230  145.0790 C   0  0  0  0  0  0  0  0  0  0  0  0
  191.7130  175.6670  147.1610 C   0  0  0  0  0  0  0  0  0  0  0  0
  192.9370  175.1340  146.7520 C   0  0  0  0  0  3  0  0  0  0  0  0
  191.1960  175.2940  148.3970 O   0  0  0  0  0  1  0  0  0  0  0  0
  188.6000  176.5710  146.6550 C   0  0  0  0  0  0  0  0  0  0  0  0
  187.4730  176.0940  146.4700 O   0  0  0  0  0  0  0  0  0  0  0  0
  189.7550  177.0680  146.8510 N   0  0  0  0  0  0  0  0  0  0  0  0
  186.9210  176.4520  141.8550 C   0  0  0  0  0  2  0  0  0  0  0  0
  186.8280  177.3220  143.0150 N   0  0  0  0  0  0  0  0  0  0  0  0
  186.5550  178.6610  142.5190 C   0  0  0  0  0  2  0  0  0  0  0  0
  185.6180  179.3290  143.5010 C   0  0  0  0  0  2  0  0  0  0  0  0
  185.6330  176.9370  143.7530 C   0  0  0  0  0  2  0  0  0  0  0  0
  184.9870  178.2010  144.2780 C   0  0  0  0  0  2  0  0  0  0  0  0
  1  5  1  0  0  0  0
  2 21  1  1  0  0  0
  2  8  1  0  0  0  0
  3  7  1  0  0  0  0
  4  3  1  0  0  0  0
  6  3  2  0  0  0  0
  7  2  1  0  0  0  0
  7  1  1  0  0  0  0
  8  9  1  6  0  0  0
  8  5  1  0  0  0  0
  9 10  1  0  0  0  0
 10 14  1  0  0  0  0
 11 16  1  0  0  0  0
 12 20  1  0  0  0  0
 12 15  1  0  0  0  0
 13 14  1  0  0  0  0
 13 11  2  0  0  0  0
 14 12  2  0  0  0  0
 15 17  1  0  0  0  0
 16 15  2  0  0  0  0
 18 20  2  0  0  0  0
 19 18  2  0  0  0  0
 21 22  1  0  0  0  0
 22 25  1  0  0  0  0
 23 22  1  0  0  0  0
 23 24  1  0  0  0  0
 24 26  1  0  0  0  0
 25 26  1  0  0  0  0
M  END
>  <MODEL>
6

>  <REMARK>
 VINA RESULT:      -6.3      2.392      6.497
  Name = 
  6 active torsions:
  status: ('A' for Active; 'I' for Inactive)
    1  A    between atoms: N_2  and  C_15
    2  A    between atoms: C_4  and  S_13
    3  A    between atoms: C_4  and  C_25
    4  A    between atoms: C_5  and  N_22
    5  A    between atoms: C_10  and  C_15
    6  A    between atoms: S_13  and  C_14
                            x       y       z     vdW  Elec       q    Type
                         _______ _______ _______ _____ _____    ______ ____

>  <TORSDO>
F 6

$$$$
=
 OpenBabel11042417203D

 26 28  0  0  1  0  0  0  0  0999 V2000
  189.4140  173.6330  141.6460 C   0  0  0  0  0  2  0  0  0  0  0  0
  190.7020  174.4290  143.5350 C   0  0  2  0  0  3  0  0  0  0  0  0
  190.6060  171.9290  143.0730 C   0  0  0  0  0  0  0  0  0  0  0  0
  190.1940  170.8650  142.2210 N   0  0  0  0  0  1  0  0  0  0  0  0
  189.2200  175.1350  141.7340 C   0  0  0  0  0  2  0  0  0  0  0  0
  191.2060  171.6630  144.1480 O   0  0  0  0  0  0  0  0  0  0  0  0
  190.3280  173.2890  142.7150 N   0  0  0  0  0  0  0  0  0  0  0  0
  189.8280  175.5780  143.0590 C   0  0  1  0  0  3  0  0  0  0  0  0
  188.7160  175.8290  144.0620 C   0  0  0  0  0  2  0  0  0  0  0  0
  188.9630  177.4330  144.8850 S   0  0  0  0  0  0  0  0  0  0  0  0
  185.4950  177.1070  146.9300 C   0  0  0  0  0  3  0  0  0  0  0  0
  186.2480  178.2080  144.4450 C   0  0  0  0  0  0  0  0  0  0  0  0
  186.8240  177.0480  146.5160 C   0  0  0  0  0  3  0  0  0  0  0  0
  187.2190  177.5850  145.2850 C   0  0  0  0  0  0  0  0  0  0  0  0
  184.9110  178.2520  144.8820 C   0  0  0  0  0  0  0  0  0  0  0  0
  184.5410  177.7060  146.1120 C   0  0  0  0  0  3  0  0  0  0  0  0
  183.9360  178.8460  144.0890 O   0  0  0  0  0  1  0  0  0  0  0  0
  186.6210  178.1950  142.0450 C   0  0  0  0  0  0  0  0  0  0  0  0
  186.7060  177.6170  140.9550 O   0  0  0  0  0  0  0  0  0  0  0  0
  186.5350  178.7990  143.1620 N   0  0  0  0  0  0  0  0  0  0  0  0
  192.1630  174.7960  143.2980 C   0  0  0  0  0  2  0  0  0  0  0  0
  192.9170  174.7160  144.5380 N   0  0  0  0  0  0  0  0  0  0  0  0
  193.5740  175.9990  144.7200 C   0  0  0  0  0  2  0  0  0  0  0  0
  193.5690  176.3090  146.2000 C   0  0  0  0  0  2  0  0  0  0  0  0
  191.9540  174.6210  145.6270 C   0  0  0  0  0  2  0  0  0  0  0  0
  192.4840  175.4380  146.7850 C   0  0  0  0  0  2  0  0  0  0  0  0
  1  5  1  0  0  0  0
  1  7  1  0  0  0  0
  2 21  1  6  0  0  0
  3  6  2  0  0  0  0
  4  3  1  0  0  0  0
  5  8  1  0  0  0  0
  7  3  1  0  0  0  0
  7  2  1  0  0  0  0
  8  2  1  0  0  0  0
  8  9  1  1  0  0  0
  9 10  1  0  0  0  0
 10 14  1  0  0  0  0
 12 15  2  0  0  0  0
 12 14  1  0  0  0  0
 13 11  1  0  0  0  0
 14 13  2  0  0  0  0
 15 16  1  0  0  0  0
 16 11  2  0  0  0  0
 17 15  1  0  0  0  0
 18 20  2  0  0  0  0
 19 18  2  0  0  0  0
 20 12  1  0  0  0  0
 21 22  1  0  0  0  0
 22 23  1  0  0  0  0
 22 25  1  0  0  0  0
 23 24  1  0  0  0  0
 24 26  1  0  0  0  0
 25 26  1  0  0  0  0
M  END
>  <MODEL>
7

>  <REMARK>
 VINA RESULT:      -6.2      1.826      3.985
  Name = 
  6 active torsions:
  status: ('A' for Active; 'I' for Inactive)
    1  A    between atoms: N_2  and  C_15
    2  A    between atoms: C_4  and  S_13
    3  A    between atoms: C_4  and  C_25
    4  A    between atoms: C_5  and  N_22
    5  A    between atoms: C_10  and  C_15
    6  A    between atoms: S_13  and  C_14
                            x       y       z     vdW  Elec       q    Type
                         _______ _______ _______ _____ _____    ______ ____

>  <TORSDO>
F 6

$$$$
=
 OpenBabel11042417203D

 26 28  0  0  1  0  0  0  0  0999 V2000
  190.0010  176.5880  142.3110 C   0  0  0  0  0  2  0  0  0  0  0  0
  190.4590  175.4520  144.4000 C   0  0  2  0  0  3  0  0  0  0  0  0
  189.3770  174.1510  142.4990 C   0  0  0  0  0  0  0  0  0  0  0  0
  188.9500  174.1120  141.1410 N   0  0  0  0  0  1  0  0  0  0  0  0
  190.5530  177.6160  143.2810 C   0  0  0  0  0  2  0  0  0  0  0  0
  189.1870  173.1480  143.2360 O   0  0  0  0  0  0  0  0  0  0  0  0
  190.0070  175.3280  143.0250 N   0  0  0  0  0  0  0  0  0  0  0  0
  190.6010  176.9450  144.6490 C   0  0  1  0  0  3  0  0  0  0  0  0
  189.4370  177.4400  145.4900 C   0  0  0  0  0  2  0  0  0  0  0  0
  188.3730  176.0450  145.9730 S   0  0  0  0  0  0  0  0  0  0  0  0
  185.6850  177.2410  143.2070 C   0  0  0  0  0  3  0  0  0  0  0  0
  185.9170  177.5050  146.0050 C   0  0  0  0  0  0  0  0  0  0  0  0
  186.7770  176.6860  143.8700 C   0  0  0  0  0  3  0  0  0  0  0  0
  186.9140  176.8090  145.2580 C   0  0  0  0  0  0  0  0  0  0  0  0
  184.8250  178.0600  145.3130 C   0  0  0  0  0  0  0  0  0  0  0  0
  184.7120  177.9280  143.9280 C   0  0  0  0  0  3  0  0  0  0  0  0
  183.8370  178.7510  146.0060 O   0  0  0  0  0  1  0  0  0  0  0  0
  186.6140  178.5620  148.0770 C   0  0  0  0  0  0  0  0  0  0  0  0
  187.2600  179.4070  148.7110 O   0  0  0  0  0  0  0  0  0  0  0  0
  185.9460  177.6910  147.4340 N   0  0  0  0  0  0  0  0  0  0  0  0
  191.8250  174.7970  144.5710 C   0  0  0  0  0  2  0  0  0  0  0  0
  192.8190  175.7830  144.9600 N   0  0  0  0  0  0  0  0  0  0  0  0
  193.4340  175.3040  146.1860 C   0  0  0  0  0  2  0  0  0  0  0  0
  194.8990  175.6790  146.1380 C   0  0  0  0  0  2  0  0  0  0  0  0
  193.8790  175.7490  143.9610 C   0  0  0  0  0  2  0  0  0  0  0  0
  195.1980  175.9310  144.6810 C   0  0  0  0  0  2  0  0  0  0  0  0
  1  7  1  0  0  0  0
  1  5  1  0  0  0  0
  2 21  1  6  0  0  0
  2  8  1  0  0  0  0
  3  7  1  0  0  0  0
  3  6  2  0  0  0  0
  4  3  1  0  0  0  0
  5  8  1  0  0  0  0
  7  2  1  0  0  0  0
  8  9  1  1  0  0  0
  9 10  1  0  0  0  0
 11 13  2  0  0  0  0
 11 16  1  0  0  0  0
 12 20  1  0  0  0  0
 13 14  1  0  0  0  0
 14 10  1  0  0  0  0
 14 12  2  0  0  0  0
 15 12  1  0  0  0  0
 15 17  1  0  0  0  0
 16 15  2  0  0  0  0
 18 19  2  0  0  0  0
 20 18  2  0  0  0  0
 21 22  1  0  0  0  0
 22 23  1  0  0  0  0
 24 23  1  0  0  0  0
 25 26  1  0  0  0  0
 25 22  1  0  0  0  0
 26 24  1  0  0  0  0
M  END
>  <MODEL>
8

>  <REMARK>
 VINA RESULT:      -6.2      2.487      4.701
  Name = 
  6 active torsions:
  status: ('A' for Active; 'I' for Inactive)
    1  A    between atoms: N_2  and  C_15
    2  A    between atoms: C_4  and  S_13
    3  A    between atoms: C_4  and  C_25
    4  A    between atoms: C_5  and  N_22
    5  A    between atoms: C_10  and  C_15
    6  A    between atoms: S_13  and  C_14
                            x       y       z     vdW  Elec       q    Type
                         _______ _______ _______ _____ _____    ______ ____

>  <TORSDO>
F 6

$$$$
=
 OpenBabel11042417203D

 26 28  0  0  1  0  0  0  0  0999 V2000
  193.6720  176.4950  146.3440 C   0  0  0  0  0  2  0  0  0  0  0  0
  192.0380  175.3450  144.9770 C   0  0  2  0  0  3  0  0  0  0  0  0
  194.3040  175.9170  143.9710 C   0  0  0  0  0  0  0  0  0  0  0  0
  195.6220  176.4260  144.1530 N   0  0  0  0  0  1  0  0  0  0  0  0
  192.4000  176.3670  147.1590 C   0  0  0  0  0  2  0  0  0  0  0  0
  193.9370  175.5490  142.8240 O   0  0  0  0  0  0  0  0  0  0  0  0
  193.4000  175.8380  145.0820 N   0  0  0  0  0  0  0  0  0  0  0  0
  191.3170  175.8710  146.2080 C   0  0  1  0  0  3  0  0  0  0  0  0
  190.4190  177.0320  145.8220 C   0  0  0  0  0  2  0  0  0  0  0  0
  188.7320  176.7550  146.4440 S   0  0  0  0  0  0  0  0  0  0  0  0
  188.4260  177.9150  142.5880 C   0  0  0  0  0  3  0  0  0  0  0  0
  186.5930  177.1700  144.5960 C   0  0  0  0  0  0  0  0  0  0  0  0
  188.8870  177.5570  143.8530 C   0  0  0  0  0  3  0  0  0  0  0  0
  187.9940  177.1880  144.8650 C   0  0  0  0  0  0  0  0  0  0  0  0
  186.1500  177.5390  143.3120 C   0  0  0  0  0  0  0  0  0  0  0  0
  187.0600  177.9070  142.3190 C   0  0  0  0  0  3  0  0  0  0  0  0
  184.7930  177.5400  143.0140 O   0  0  0  0  0  1  0  0  0  0  0  0
  185.0390  177.5610  146.4220 C   0  0  0  0  0  0  0  0  0  0  0  0
  184.5090  178.2910  147.2690 O   0  0  0  0  0  0  0  0  0  0  0  0
  185.5790  176.8040  145.5540 N   0  0  0  0  0  0  0  0  0  0  0  0
  192.0210  173.8210  145.0150 C   0  0  0  0  0  2  0  0  0  0  0  0
  191.4160  173.2870  143.8060 N   0  0  0  0  0  0  0  0  0  0  0  0
  190.4450  172.2890  144.2240 C   0  0  0  0  0  2  0  0  0  0  0  0
  189.2670  172.3760  143.2790 C   0  0  0  0  0  2  0  0  0  0  0  0
  190.6310  174.3550  143.2040 C   0  0  0  0  0  2  0  0  0  0  0  0
  189.3660  173.7410  142.6440 C   0  0  0  0  0  2  0  0  0  0  0  0
  1  5  1  0  0  0  0
  2 21  1  1  0  0  0
  2  7  1  0  0  0  0
  2  8  1  0  0  0  0
  3  4  1  0  0  0  0
  3  7  1  0  0  0  0
  6  3  2  0  0  0  0
  7  1  1  0  0  0  0
  8  9  1  6  0  0  0
  8  5  1  0  0  0  0
  9 10  1  0  0  0  0
 11 13  1  0  0  0  0
 12 14  1  0  0  0  0
 12 20  1  0  0  0  0
 13 14  2  0  0  0  0
 14 10  1  0  0  0  0
 15 12  2  0  0  0  0
 16 11  2  0  0  0  0
 16 15  1  0  0  0  0
 17 15  1  0  0  0  0
 18 19  2  0  0  0  0
 20 18  2  0  0  0  0
 22 23  1  0  0  0  0
 22 21  1  0  0  0  0
 24 23  1  0  0  0  0
 25 22  1  0  0  0  0
 26 25  1  0  0  0  0
 26 24  1  0  0  0  0
M  END
>  <MODEL>
9

>  <REMARK>
 VINA RESULT:      -6.2      1.941      3.064
  Name = 
  6 active torsions:
  status: ('A' for Active; 'I' for Inactive)
    1  A    between atoms: N_2  and  C_15
    2  A    between atoms: C_4  and  S_13
    3  A    between atoms: C_4  and  C_25
    4  A    between atoms: C_5  and  N_22
    5  A    between atoms: C_10  and  C_15
    6  A    between atoms: S_13  and  C_14
                            x       y       z     vdW  Elec       q    Type
                         _______ _______ _______ _____ _____    ______ ____

>  <TORSDO>
F 6

$$$$
