=
 OpenBabel11042414413D

 28 31  0  0  1  0  0  0  0  0999 V2000
  189.7480  174.8220  144.7950 C   0  0  2  0  0  3  0  0  0  0  0  0
  192.2180  174.6960  145.4910 C   0  0  0  0  0  3  0  0  0  0  0  0
  191.6840  176.4810  146.9340 C   0  0  0  0  0  3  0  0  0  0  0  0
  192.7260  175.6030  146.3400 C   0  0  2  0  0  3  0  0  0  0  0  0
  188.7990  175.8490  145.3130 C   0  0  0  0  0  0  0  0  0  0  0  0
  190.5550  175.9430  146.5180 C   0  0  0  0  0  0  0  0  0  0  0  0
  187.5130  176.1080  144.7320 N   0  0  0  0  0  2  0  0  0  0  0  0
  189.2870  176.5410  146.3070 N   0  0  0  0  0  0  0  0  0  0  0  0
  190.7890  174.9060  145.6100 C   0  0  0  0  0  0  0  0  0  0  0  0
  186.5540  177.0830  145.1630 C   0  0  0  0  0  0  0  0  0  0  0  0
  184.6260  177.7630  146.4640 C   0  0  0  0  0  3  0  0  0  0  0  0
  185.5380  176.7790  146.0780 C   0  0  0  0  0  3  0  0  0  0  0  0
  186.6310  178.3810  144.6520 C   0  0  0  0  0  3  0  0  0  0  0  0
  185.7350  179.3270  145.0400 N   0  0  0  0  0  0  0  0  0  0  0  0
  184.7430  179.0460  145.9290 C   0  0  0  0  0  3  0  0  0  0  0  0
  189.4440  172.6940  143.5110 C   0  0  0  0  0  3  0  0  0  0  0  0
  189.3690  171.9950  142.3040 C   0  0  0  0  0  3  0  0  0  0  0  0
  189.7500  174.0480  141.0910 C   0  0  0  0  0  3  0  0  0  0  0  0
  189.6760  174.0770  143.5200 C   0  0  0  0  0  0  0  0  0  0  0  0
  189.8260  174.7470  142.2970 C   0  0  0  0  0  3  0  0  0  0  0  0
  189.5230  172.6680  141.0840 C   0  0  0  0  0  0  0  0  0  0  0  0
  191.6200  171.0800  139.7550 O   0  0  0  0  0  0  0  0  0  0  0  0
  189.4540  171.9860  139.8240 N   0  0  0  0  0  2  0  0  0  0  0  0
  190.2430  170.5780  137.8900 C   0  0  0  0  0  1  0  0  0  0  0  0
  190.4950  171.2200  139.2070 C   0  0  0  0  0  0  0  0  0  0  0  0
  194.1870  175.8170  146.5230 C   0  0  0  0  0  2  0  0  0  0  0  0
  194.6000  177.0190  145.8200 N   0  0  0  0  0  2  0  0  0  0  0  0
  195.2670  176.5840  144.6070 C   0  0  0  0  0  1  0  0  0  0  0  0
  1 19  1  6  0  0  0
  1  5  1  0  0  0  0
  1  9  1  0  0  0  0
  2  9  2  0  0  0  0
  2  4  1  0  0  0  0
  4 26  1  6  0  0  0
  4  3  1  0  0  0  0
  5  8  2  0  0  0  0
  6  3  2  0  0  0  0
  7 10  1  0  0  0  0
  7  5  1  0  0  0  0
  8  6  1  0  0  0  0
  9  6  1  0  0  0  0
 10 12  1  0  0  0  0
 12 11  2  0  0  0  0
 13 14  1  0  0  0  0
 13 10  2  0  0  0  0
 14 15  2  0  0  0  0
 15 11  1  0  0  0  0
 16 19  1  0  0  0  0
 17 16  2  0  0  0  0
 18 20  1  0  0  0  0
 20 19  2  0  0  0  0
 21 18  2  0  0  0  0
 21 17  1  0  0  0  0
 23 21  1  0  0  0  0
 24 25  1  0  0  0  0
 25 22  2  0  0  0  0
 25 23  1  0  0  0  0
 27 26  1  0  0  0  0
 28 27  1  0  0  0  0
M  END
>  <MODEL>
1

>  <REMARK>
 VINA RESULT:      -6.9      0.000      0.000
  Name = 
  5 active torsions:
  status: ('A' for Active; 'I' for Inactive)
    1  A    between atoms: C_1  and  N_26
    2  A    between atoms: C_4  and  C_13
    3  A    between atoms: C_4  and  N_15
    4  A    between atoms: C_5  and  C_16
    5  A    between atoms: N_17  and  C_24
                            x       y       z     vdW  Elec       q    Type
                         _______ _______ _______ _____ _____    ______ ____

>  <TORSDO>
F 5

$$$$
=
 OpenBabel11042414413D

 28 31  0  0  1  0  0  0  0  0999 V2000
  189.7910  174.9360  144.6280 C   0  0  2  0  0  3  0  0  0  0  0  0
  192.2160  174.7900  145.4590 C   0  0  0  0  0  3  0  0  0  0  0  0
  191.5760  176.4780  146.9730 C   0  0  0  0  0  3  0  0  0  0  0  0
  192.6620  175.6490  146.3900 C   0  0  2  0  0  3  0  0  0  0  0  0
  188.7990  175.9190  145.1490 C   0  0  0  0  0  0  0  0  0  0  0  0
  190.4790  175.9570  146.4600 C   0  0  0  0  0  0  0  0  0  0  0  0
  187.5460  176.2010  144.5100 N   0  0  0  0  0  2  0  0  0  0  0  0
  189.2190  176.5540  146.2110 N   0  0  0  0  0  0  0  0  0  0  0  0
  190.7800  174.9790  145.5060 C   0  0  0  0  0  0  0  0  0  0  0  0
  186.5510  177.1390  144.9420 C   0  0  0  0  0  0  0  0  0  0  0  0
  185.5120  179.3280  144.9140 C   0  0  0  0  0  3  0  0  0  0  0  0
  186.5000  178.4520  144.4590 C   0  0  0  0  0  3  0  0  0  0  0  0
  185.5990  176.7310  145.8810 C   0  0  0  0  0  3  0  0  0  0  0  0
  184.6450  177.5980  146.3130 N   0  0  0  0  0  0  0  0  0  0  0  0
  184.5830  178.8770  145.8520 C   0  0  0  0  0  3  0  0  0  0  0  0
  189.1160  173.0630  143.1080 C   0  0  0  0  0  3  0  0  0  0  0  0
  189.1240  172.4400  141.8580 C   0  0  0  0  0  3  0  0  0  0  0  0
  190.4990  174.2210  140.9790 C   0  0  0  0  0  3  0  0  0  0  0  0
  189.8020  174.2700  143.3070 C   0  0  0  0  0  0  0  0  0  0  0  0
  190.4920  174.8430  142.2290 C   0  0  0  0  0  3  0  0  0  0  0  0
  189.8180  173.0160  140.7830 C   0  0  0  0  0  0  0  0  0  0  0  0
  188.1490  173.6430  138.4360 O   0  0  0  0  0  0  0  0  0  0  0  0
  189.8500  172.4070  139.4850 N   0  0  0  0  0  2  0  0  0  0  0  0
  189.1980  171.9980  137.0870 C   0  0  0  0  0  1  0  0  0  0  0  0
  189.0230  172.7380  138.3630 C   0  0  0  0  0  0  0  0  0  0  0  0
  194.1070  175.8650  146.6730 C   0  0  0  0  0  2  0  0  0  0  0  0
  194.7080  176.6320  145.5970 N   0  0  0  0  0  2  0  0  0  0  0  0
  195.5930  175.7290  144.8840 C   0  0  0  0  0  1  0  0  0  0  0  0
  1 19  1  6  0  0  0
  1  5  1  0  0  0  0
  1  9  1  0  0  0  0
  2  9  2  0  0  0  0
  2  4  1  0  0  0  0
  4 26  1  6  0  0  0
  4  3  1  0  0  0  0
  5  8  2  0  0  0  0
  6  3  2  0  0  0  0
  7 10  1  0  0  0  0
  7  5  1  0  0  0  0
  8  6  1  0  0  0  0
  9  6  1  0  0  0  0
 10 13  1  0  0  0  0
 11 15  2  0  0  0  0
 12 11  1  0  0  0  0
 12 10  2  0  0  0  0
 13 14  2  0  0  0  0
 15 14  1  0  0  0  0
 16 19  1  0  0  0  0
 17 16  2  0  0  0  0
 18 20  1  0  0  0  0
 20 19  2  0  0  0  0
 21 18  2  0  0  0  0
 21 17  1  0  0  0  0
 23 21  1  0  0  0  0
 24 25  1  0  0  0  0
 25 22  2  0  0  0  0
 25 23  1  0  0  0  0
 27 26  1  0  0  0  0
 28 27  1  0  0  0  0
M  END
>  <MODEL>
2

>  <REMARK>
 VINA RESULT:      -6.6      1.212      1.422
  Name = 
  5 active torsions:
  status: ('A' for Active; 'I' for Inactive)
    1  A    between atoms: C_1  and  N_26
    2  A    between atoms: C_4  and  C_13
    3  A    between atoms: C_4  and  N_15
    4  A    between atoms: C_5  and  C_16
    5  A    between atoms: N_17  and  C_24
                            x       y       z     vdW  Elec       q    Type
                         _______ _______ _______ _____ _____    ______ ____

>  <TORSDO>
F 5

$$$$
=
 OpenBabel11042414413D

 28 31  0  0  1  0  0  0  0  0999 V2000
  188.8560  176.0790  143.5480 C   0  0  2  0  0  3  0  0  0  0  0  0
  186.4390  176.4300  144.3420 C   0  0  0  0  0  3  0  0  0  0  0  0
  187.4280  177.4170  146.2390 C   0  0  0  0  0  3  0  0  0  0  0  0
  186.1960  176.9330  145.5630 C   0  0  2  0  0  3  0  0  0  0  0  0
  190.0510  176.4380  144.3650 C   0  0  0  0  0  0  0  0  0  0  0  0
  188.3520  177.3190  145.3040 C   0  0  0  0  0  0  0  0  0  0  0  0
  191.3820  175.9950  144.0640 N   0  0  0  0  0  2  0  0  0  0  0  0
  189.7520  177.1390  145.4260 N   0  0  0  0  0  0  0  0  0  0  0  0
  187.8520  176.6900  144.1600 C   0  0  0  0  0  0  0  0  0  0  0  0
  192.5740  176.2870  144.8050 C   0  0  0  0  0  0  0  0  0  0  0  0
  193.7760  176.6360  146.8800 C   0  0  0  0  0  3  0  0  0  0  0  0
  192.5900  176.3450  146.2040 C   0  0  0  0  0  3  0  0  0  0  0  0
  193.7620  176.5280  144.1100 C   0  0  0  0  0  3  0  0  0  0  0  0
  194.9080  176.8100  144.7850 N   0  0  0  0  0  0  0  0  0  0  0  0
  194.9380  176.8690  146.1440 C   0  0  0  0  0  3  0  0  0  0  0  0
  188.9030  173.7000  142.7660 C   0  0  0  0  0  3  0  0  0  0  0  0
  188.8040  172.7450  141.7520 C   0  0  0  0  0  3  0  0  0  0  0  0
  188.4090  174.4990  140.1380 C   0  0  0  0  0  3  0  0  0  0  0  0
  188.7590  175.0650  142.4760 C   0  0  0  0  0  0  0  0  0  0  0  0
  188.5080  175.4540  141.1530 C   0  0  0  0  0  3  0  0  0  0  0  0
  188.5570  173.1390  140.4280 C   0  0  0  0  0  0  0  0  0  0  0  0
  190.7280  171.7280  139.0210 O   0  0  0  0  0  0  0  0  0  0  0  0
  188.4490  172.1900  139.3590 N   0  0  0  0  0  2  0  0  0  0  0  0
  189.2280  170.5600  137.6030 C   0  0  0  0  0  1  0  0  0  0  0  0
  189.5290  171.5200  138.6970 C   0  0  0  0  0  0  0  0  0  0  0  0
  184.8690  176.8480  146.2300 C   0  0  0  0  0  2  0  0  0  0  0  0
  184.4870  178.1560  146.7330 N   0  0  0  0  0  2  0  0  0  0  0  0
  183.9940  178.9120  145.5970 C   0  0  0  0  0  1  0  0  0  0  0  0
  1 19  1  1  0  0  0
  1  9  1  0  0  0  0
  1  5  1  0  0  0  0
  2  4  1  0  0  0  0
  4 26  1  1  0  0  0
  4  3  1  0  0  0  0
  5  8  2  0  0  0  0
  6  8  1  0  0  0  0
  6  3  2  0  0  0  0
  7  5  1  0  0  0  0
  7 10  1  0  0  0  0
  9  2  2  0  0  0  0
  9  6  1  0  0  0  0
 10 12  1  0  0  0  0
 12 11  2  0  0  0  0
 13 14  1  0  0  0  0
 13 10  2  0  0  0  0
 14 15  2  0  0  0  0
 15 11  1  0  0  0  0
 17 16  2  0  0  0  0
 18 21  2  0  0  0  0
 18 20  1  0  0  0  0
 19 16  1  0  0  0  0
 20 19  2  0  0  0  0
 21 17  1  0  0  0  0
 23 21  1  0  0  0  0
 24 25  1  0  0  0  0
 25 22  2  0  0  0  0
 25 23  1  0  0  0  0
 26 27  1  0  0  0  0
 28 27  1  0  0  0  0
M  END
>  <MODEL>
3

>  <REMARK>
 VINA RESULT:      -6.3      1.459      5.729
  Name = 
  5 active torsions:
  status: ('A' for Active; 'I' for Inactive)
    1  A    between atoms: C_1  and  N_26
    2  A    between atoms: C_4  and  C_13
    3  A    between atoms: C_4  and  N_15
    4  A    between atoms: C_5  and  C_16
    5  A    between atoms: N_17  and  C_24
                            x       y       z     vdW  Elec       q    Type
                         _______ _______ _______ _____ _____    ______ ____

>  <TORSDO>
F 5

$$$$
=
 OpenBabel11042414413D

 28 31  0  0  1  0  0  0  0  0999 V2000
  190.3600  174.2390  143.4790 C   0  0  2  0  0  3  0  0  0  0  0  0
  188.7800  173.3090  141.6810 C   0  0  0  0  0  3  0  0  0  0  0  0
  190.7590  172.7330  140.5390 C   0  0  0  0  0  3  0  0  0  0  0  0
  189.2760  172.8340  140.5270 C   0  0  0  0  0  0  0  0  0  0  0  0
  191.8450  174.2570  143.3400 C   0  0  0  0  0  0  0  0  0  0  0  0
  191.0780  173.0170  141.7860 C   0  0  0  0  0  0  0  0  0  0  0  0
  192.7140  175.0180  144.1920 N   0  0  0  0  0  2  0  0  0  0  0  0
  192.2710  173.5670  142.3170 N   0  0  0  0  0  0  0  0  0  0  0  0
  189.9570  173.4220  142.5180 C   0  0  1  0  0  3  0  0  0  0  0  0
  194.1430  175.0950  144.1130 C   0  0  0  0  0  0  0  0  0  0  0  0
  196.3680  174.4040  144.7820 C   0  0  0  0  0  3  0  0  0  0  0  0
  194.9810  174.2880  144.8940 C   0  0  0  0  0  3  0  0  0  0  0  0
  194.7250  176.0100  143.2310 C   0  0  0  0  0  3  0  0  0  0  0  0
  196.0780  176.1090  143.1360 N   0  0  0  0  0  0  0  0  0  0  0  0
  196.9030  175.3310  143.8880 C   0  0  0  0  0  3  0  0  0  0  0  0
  189.3540  174.8870  145.6790 C   0  0  0  0  0  3  0  0  0  0  0  0
  188.5590  175.7300  146.4580 C   0  0  0  0  0  3  0  0  0  0  0  0
  188.0710  177.0710  144.5090 C   0  0  0  0  0  3  0  0  0  0  0  0
  189.5130  175.1260  144.3060 C   0  0  0  0  0  0  0  0  0  0  0  0
  188.8660  176.2280  143.7300 C   0  0  0  0  0  3  0  0  0  0  0  0
  187.9100  176.8300  145.8770 C   0  0  0  0  0  0  0  0  0  0  0  0
  184.9990  176.6880  146.3130 O   0  0  0  0  0  0  0  0  0  0  0  0
  187.0850  177.7180  146.6420 N   0  0  0  0  0  2  0  0  0  0  0  0
  184.9740  178.6360  147.6670 C   0  0  0  0  0  1  0  0  0  0  0  0
  185.6680  177.6190  146.8350 C   0  0  0  0  0  0  0  0  0  0  0  0
  188.4430  172.6040  139.3160 C   0  0  0  0  0  2  0  0  0  0  0  0
  188.2000  173.8670  138.6410 N   0  0  0  0  0  2  0  0  0  0  0  0
  188.9480  173.8260  137.3980 C   0  0  0  0  0  1  0  0  0  0  0  0
  1 19  1  6  0  0  0
  3  6  2  0  0  0  0
  4  3  1  0  0  0  0
  4  2  2  0  0  0  0
  5  1  1  0  0  0  0
  5  7  1  0  0  0  0
  6  8  1  0  0  0  0
  6  9  1  0  0  0  0
  8  5  2  0  0  0  0
  9  2  1  6  0  0  0
  9  1  1  0  0  0  0
 10  7  1  0  0  0  0
 10 12  1  0  0  0  0
 11 12  2  0  0  0  0
 13 10  2  0  0  0  0
 14 13  1  0  0  0  0
 14 15  2  0  0  0  0
 15 11  1  0  0  0  0
 16 17  1  0  0  0  0
 18 21  1  0  0  0  0
 19 16  2  0  0  0  0
 20 19  1  0  0  0  0
 20 18  2  0  0  0  0
 21 17  2  0  0  0  0
 21 23  1  0  0  0  0
 22 25  2  0  0  0  0
 23 25  1  0  0  0  0
 25 24  1  0  0  0  0
 26  4  1  0  0  0  0
 27 26  1  0  0  0  0
 28 27  1  0  0  0  0
M  END
>  <MODEL>
4

>  <REMARK>
 VINA RESULT:      -6.3      2.894      8.148
  Name = 
  5 active torsions:
  status: ('A' for Active; 'I' for Inactive)
    1  A    between atoms: C_1  and  N_26
    2  A    between atoms: C_4  and  C_13
    3  A    between atoms: C_4  and  N_15
    4  A    between atoms: C_5  and  C_16
    5  A    between atoms: N_17  and  C_24
                            x       y       z     vdW  Elec       q    Type
                         _______ _______ _______ _____ _____    ______ ____

>  <TORSDO>
F 5

$$$$
=
 OpenBabel11042414413D

 28 31  0  0  1  0  0  0  0  0999 V2000
  188.0040  176.1950  142.4800 C   0  0  2  0  0  3  0  0  0  0  0  0
  185.7610  177.2710  141.8440 C   0  0  0  0  0  3  0  0  0  0  0  0
  185.9060  178.3180  143.9500 C   0  0  0  0  0  3  0  0  0  0  0  0
  185.1040  178.0360  142.7310 C   0  0  2  0  0  3  0  0  0  0  0  0
  188.6670  176.3930  143.8010 C   0  0  0  0  0  0  0  0  0  0  0  0
  187.0930  177.8230  143.6600 C   0  0  0  0  0  0  0  0  0  0  0  0
  189.7570  175.5880  144.2730 N   0  0  0  0  0  2  0  0  0  0  0  0
  188.1060  177.3300  144.5180 N   0  0  0  0  0  0  0  0  0  0  0  0
  187.0730  177.1360  142.4420 C   0  0  0  0  0  0  0  0  0  0  0  0
  190.4350  175.7100  145.5300 C   0  0  0  0  0  0  0  0  0  0  0  0
  192.3070  176.4170  146.8970 C   0  0  0  0  0  3  0  0  0  0  0  0
  191.6860  176.3270  145.6490 C   0  0  0  0  0  3  0  0  0  0  0  0
  189.8300  175.1920  146.6790 C   0  0  0  0  0  3  0  0  0  0  0  0
  190.4500  175.2890  147.8850 N   0  0  0  0  0  0  0  0  0  0  0  0
  191.6650  175.8860  148.0150 C   0  0  0  0  0  3  0  0  0  0  0  0
  188.2510  173.7430  142.0340 C   0  0  0  0  0  3  0  0  0  0  0  0
  188.3870  172.6690  141.1510 C   0  0  0  0  0  3  0  0  0  0  0  0
  188.3270  174.1970  139.2820 C   0  0  0  0  0  3  0  0  0  0  0  0
  188.1550  175.0550  141.5490 C   0  0  0  0  0  0  0  0  0  0  0  0
  188.1920  175.2710  140.1650 C   0  0  0  0  0  3  0  0  0  0  0  0
  188.4270  172.8900  139.7670 C   0  0  0  0  0  0  0  0  0  0  0  0
  190.9060  171.7860  138.6160 O   0  0  0  0  0  0  0  0  0  0  0  0
  188.5660  171.8140  138.8290 N   0  0  0  0  0  2  0  0  0  0  0  0
  189.7440  170.1730  137.3230 C   0  0  0  0  0  1  0  0  0  0  0  0
  189.7910  171.3010  138.2890 C   0  0  0  0  0  0  0  0  0  0  0  0
  183.6700  178.4050  142.5840 C   0  0  0  0  0  2  0  0  0  0  0  0
  183.2740  178.2910  141.1910 N   0  0  0  0  0  2  0  0  0  0  0  0
  181.8230  178.2870  141.1690 C   0  0  0  0  0  1  0  0  0  0  0  0
  1 19  1  1  0  0  0
  1  5  1  0  0  0  0
  2  9  2  0  0  0  0
  2  4  1  0  0  0  0
  4 26  1  1  0  0  0
  4  3  1  0  0  0  0
  5  7  1  0  0  0  0
  5  8  2  0  0  0  0
  6  3  2  0  0  0  0
  6  8  1  0  0  0  0
  7 10  1  0  0  0  0
  9  1  1  0  0  0  0
  9  6  1  0  0  0  0
 10 12  2  0  0  0  0
 10 13  1  0  0  0  0
 11 15  2  0  0  0  0
 12 11  1  0  0  0  0
 13 14  2  0  0  0  0
 14 15  1  0  0  0  0
 17 16  2  0  0  0  0
 18 21  2  0  0  0  0
 18 20  1  0  0  0  0
 19 16  1  0  0  0  0
 20 19  2  0  0  0  0
 21 17  1  0  0  0  0
 23 21  1  0  0  0  0
 24 25  1  0  0  0  0
 25 22  2  0  0  0  0
 25 23  1  0  0  0  0
 27 26  1  0  0  0  0
 28 27  1  0  0  0  0
M  END
>  <MODEL>
5

>  <REMARK>
 VINA RESULT:      -6.1      2.272      6.054
  Name = 
  5 active torsions:
  status: ('A' for Active; 'I' for Inactive)
    1  A    between atoms: C_1  and  N_26
    2  A    between atoms: C_4  and  C_13
    3  A    between atoms: C_4  and  N_15
    4  A    between atoms: C_5  and  C_16
    5  A    between atoms: N_17  and  C_24
                            x       y       z     vdW  Elec       q    Type
                         _______ _______ _______ _____ _____    ______ ____

>  <TORSDO>
F 5

$$$$
=
 OpenBabel11042414413D

 28 31  0  0  1  0  0  0  0  0999 V2000
  191.1480  175.6820  143.3270 C   0  0  2  0  0  3  0  0  0  0  0  0
  193.1520  176.0540  144.8890 C   0  0  0  0  0  3  0  0  0  0  0  0
  194.2570  174.5080  143.4950 C   0  0  0  0  0  3  0  0  0  0  0  0
  194.2720  175.3290  144.7340 C   0  0  2  0  0  3  0  0  0  0  0  0
  191.1530  174.7070  142.1980 C   0  0  0  0  0  0  0  0  0  0  0  0
  193.1650  174.9080  142.8730 C   0  0  0  0  0  0  0  0  0  0  0  0
  189.9700  174.2870  141.5050 N   0  0  0  0  0  2  0  0  0  0  0  0
  192.3380  174.2170  141.9530 N   0  0  0  0  0  0  0  0  0  0  0  0
  192.4240  175.7910  143.6650 C   0  0  0  0  0  0  0  0  0  0  0  0
  189.8930  173.3480  140.4240 C   0  0  0  0  0  0  0  0  0  0  0  0
  190.2210  171.1430  139.4730 C   0  0  0  0  0  3  0  0  0  0  0  0
  190.3130  172.0180  140.5570 C   0  0  0  0  0  3  0  0  0  0  0  0
  189.3880  173.7720  139.1920 C   0  0  0  0  0  3  0  0  0  0  0  0
  189.3060  172.9060  138.1480 N   0  0  0  0  0  0  0  0  0  0  0  0
  189.7090  171.6110  138.2630 C   0  0  0  0  0  3  0  0  0  0  0  0
  189.3730  177.4070  143.7070 C   0  0  0  0  0  3  0  0  0  0  0  0
  188.2690  177.8900  144.4130 C   0  0  0  0  0  3  0  0  0  0  0  0
  188.3570  175.9630  145.8670 C   0  0  0  0  0  3  0  0  0  0  0  0
  189.9820  176.1990  144.0760 C   0  0  0  0  0  0  0  0  0  0  0  0
  189.4620  175.4820  145.1620 C   0  0  0  0  0  3  0  0  0  0  0  0
  187.7530  177.1700  145.5010 C   0  0  0  0  0  0  0  0  0  0  0  0
  184.9860  177.5630  144.5650 O   0  0  0  0  0  0  0  0  0  0  0  0
  186.6210  177.6310  146.2500 N   0  0  0  0  0  2  0  0  0  0  0  0
  184.2320  178.3000  146.6900 C   0  0  0  0  0  1  0  0  0  0  0  0
  185.2860  177.8110  145.7630 C   0  0  0  0  0  0  0  0  0  0  0  0
  195.3270  175.2260  145.7780 C   0  0  0  0  0  2  0  0  0  0  0  0
  196.5080  174.5900  145.2220 N   0  0  0  0  0  2  0  0  0  0  0  0
  196.8940  173.5440  146.1500 C   0  0  0  0  0  1  0  0  0  0  0  0
  1  9  1  0  0  0  0
  1 19  1  1  0  0  0
  3  4  1  0  0  0  0
  4  2  1  0  0  0  0
  4 26  1  1  0  0  0
  5  1  1  0  0  0  0
  6  3  2  0  0  0  0
  6  9  1  0  0  0  0
  7  5  1  0  0  0  0
  8  5  2  0  0  0  0
  8  6  1  0  0  0  0
  9  2  2  0  0  0  0
 10 12  1  0  0  0  0
 10  7  1  0  0  0  0
 11 12  2  0  0  0  0
 13 10  2  0  0  0  0
 14 15  2  0  0  0  0
 14 13  1  0  0  0  0
 15 11  1  0  0  0  0
 16 19  2  0  0  0  0
 16 17  1  0  0  0  0
 17 21  2  0  0  0  0
 19 20  1  0  0  0  0
 20 18  2  0  0  0  0
 21 18  1  0  0  0  0
 21 23  1  0  0  0  0
 22 25  2  0  0  0  0
 25 23  1  0  0  0  0
 25 24  1  0  0  0  0
 27 26  1  0  0  0  0
 27 28  1  0  0  0  0
M  END
>  <MODEL>
6

>  <REMARK>
 VINA RESULT:      -6.1      2.809      6.895
  Name = 
  5 active torsions:
  status: ('A' for Active; 'I' for Inactive)
    1  A    between atoms: C_1  and  N_26
    2  A    between atoms: C_4  and  C_13
    3  A    between atoms: C_4  and  N_15
    4  A    between atoms: C_5  and  C_16
    5  A    between atoms: N_17  and  C_24
                            x       y       z     vdW  Elec       q    Type
                         _______ _______ _______ _____ _____    ______ ____

>  <TORSDO>
F 5

$$$$
=
 OpenBabel11042414413D

 28 31  0  0  1  0  0  0  0  0999 V2000
  188.6000  176.4350  142.4710 C   0  0  2  0  0  3  0  0  0  0  0  0
  189.4870  177.1660  144.7680 C   0  0  0  0  0  3  0  0  0  0  0  0
  191.1560  175.5430  144.4050 C   0  0  0  0  0  3  0  0  0  0  0  0
  190.5210  176.5170  145.3290 C   0  0  2  0  0  3  0  0  0  0  0  0
  189.1950  175.3240  141.6740 C   0  0  0  0  0  0  0  0  0  0  0  0
  190.5540  175.7700  143.2540 C   0  0  0  0  0  0  0  0  0  0  0  0
  188.5510  174.7240  140.5410 N   0  0  0  0  0  2  0  0  0  0  0  0
  190.3320  174.9010  142.1570 N   0  0  0  0  0  0  0  0  0  0  0  0
  189.5100  176.6880  143.4000 C   0  0  0  0  0  0  0  0  0  0  0  0
  189.0510  173.6480  139.7370 C   0  0  0  0  0  0  0  0  0  0  0  0
  189.7810  172.7110  137.6240 C   0  0  0  0  0  3  0  0  0  0  0  0
  189.2960  173.7900  138.3650 C   0  0  0  0  0  3  0  0  0  0  0  0
  189.3010  172.4110  140.3380 C   0  0  0  0  0  3  0  0  0  0  0  0
  189.7730  171.3710  139.6010 N   0  0  0  0  0  0  0  0  0  0  0  0
  190.0160  171.4960  138.2680 C   0  0  0  0  0  3  0  0  0  0  0  0
  186.7720  177.6960  141.3130 C   0  0  0  0  0  3  0  0  0  0  0  0
  185.4620  178.1780  141.2630 C   0  0  0  0  0  3  0  0  0  0  0  0
  185.0120  177.1790  143.4160 C   0  0  0  0  0  3  0  0  0  0  0  0
  187.2160  176.9530  142.4170 C   0  0  0  0  0  0  0  0  0  0  0  0
  186.3220  176.6980  143.4660 C   0  0  0  0  0  3  0  0  0  0  0  0
  184.5720  177.9220  142.3170 C   0  0  0  0  0  0  0  0  0  0  0  0
  182.5970  177.7340  140.1380 O   0  0  0  0  0  0  0  0  0  0  0  0
  183.2200  178.4000  142.3030 N   0  0  0  0  0  2  0  0  0  0  0  0
  180.9160  178.8460  141.3880 C   0  0  0  0  0  1  0  0  0  0  0  0
  182.2840  178.2910  141.2230 C   0  0  0  0  0  0  0  0  0  0  0  0
  190.8710  176.6370  146.7700 C   0  0  0  0  0  2  0  0  0  0  0  0
  190.8970  175.3190  147.3800 N   0  0  0  0  0  2  0  0  0  0  0  0
  189.5150  174.9160  147.5620 C   0  0  0  0  0  1  0  0  0  0  0  0
  1 19  1  1  0  0  0
  1  9  1  0  0  0  0
  2  4  1  0  0  0  0
  3  4  1  0  0  0  0
  4 26  1  1  0  0  0
  5  8  2  0  0  0  0
  5  1  1  0  0  0  0
  6  9  1  0  0  0  0
  6  3  2  0  0  0  0
  7  5  1  0  0  0  0
  8  6  1  0  0  0  0
  9  2  2  0  0  0  0
 10 13  1  0  0  0  0
 10  7  1  0  0  0  0
 11 15  2  0  0  0  0
 11 12  1  0  0  0  0
 12 10  2  0  0  0  0
 14 13  2  0  0  0  0
 15 14  1  0  0  0  0
 16 19  1  0  0  0  0
 17 16  2  0  0  0  0
 17 21  1  0  0  0  0
 18 20  1  0  0  0  0
 19 20  2  0  0  0  0
 21 18  2  0  0  0  0
 22 25  2  0  0  0  0
 23 21  1  0  0  0  0
 25 24  1  0  0  0  0
 25 23  1  0  0  0  0
 26 27  1  0  0  0  0
 27 28  1  0  0  0  0
M  END
>  <MODEL>
7

>  <REMARK>
 VINA RESULT:      -6.0      3.401      7.270
  Name = 
  5 active torsions:
  status: ('A' for Active; 'I' for Inactive)
    1  A    between atoms: C_1  and  N_26
    2  A    between atoms: C_4  and  C_13
    3  A    between atoms: C_4  and  N_15
    4  A    between atoms: C_5  and  C_16
    5  A    between atoms: N_17  and  C_24
                            x       y       z     vdW  Elec       q    Type
                         _______ _______ _______ _____ _____    ______ ____

>  <TORSDO>
F 5

$$$$
=
 OpenBabel11042414413D

 28 31  0  0  1  0  0  0  0  0999 V2000
  189.9690  175.6820  143.3300 C   0  0  2  0  0  3  0  0  0  0  0  0
  190.0900  174.1730  141.2560 C   0  0  0  0  0  3  0  0  0  0  0  0
  187.7570  174.4910  141.1480 C   0  0  0  0  0  3  0  0  0  0  0  0
  188.9630  173.7910  140.6330 C   0  0  0  0  0  0  0  0  0  0  0  0
  188.6920  176.2110  143.8900 C   0  0  0  0  0  0  0  0  0  0  0  0
  188.2520  175.3930  141.9710 C   0  0  0  0  0  0  0  0  0  0  0  0
  188.5810  176.8090  145.1890 N   0  0  0  0  0  2  0  0  0  0  0  0
  187.6670  176.0060  143.1070 N   0  0  0  0  0  0  0  0  0  0  0  0
  189.6330  175.2340  142.1300 C   0  0  1  0  0  3  0  0  0  0  0  0
  187.3910  177.3260  145.8000 C   0  0  0  0  0  0  0  0  0  0  0  0
  185.7160  177.3480  147.5510 C   0  0  0  0  0  3  0  0  0  0  0  0
  186.8800  176.8120  146.9980 C   0  0  0  0  0  3  0  0  0  0  0  0
  186.7120  178.3780  145.1770 C   0  0  0  0  0  3  0  0  0  0  0  0
  185.5790  178.8870  145.7300 N   0  0  0  0  0  0  0  0  0  0  0  0
  185.0720  178.3980  146.8940 C   0  0  0  0  0  3  0  0  0  0  0  0
  191.3520  174.4750  145.0320 C   0  0  0  0  0  3  0  0  0  0  0  0
  192.5640  174.2610  145.6940 C   0  0  0  0  0  3  0  0  0  0  0  0
  193.5920  176.0020  144.3740 C   0  0  0  0  0  3  0  0  0  0  0  0
  191.2480  175.4570  144.0370 C   0  0  0  0  0  0  0  0  0  0  0  0
  192.3810  176.2170  143.7130 C   0  0  0  0  0  3  0  0  0  0  0  0
  193.6940  175.0250  145.3690 C   0  0  0  0  0  0  0  0  0  0  0  0
  195.7530  172.9940  144.8050 O   0  0  0  0  0  0  0  0  0  0  0  0
  194.9540  174.8360  146.0250 N   0  0  0  0  0  2  0  0  0  0  0  0
  197.1940  173.7900  146.5130 C   0  0  0  0  0  1  0  0  0  0  0  0
  195.9350  173.8360  145.7240 C   0  0  0  0  0  0  0  0  0  0  0  0
  188.9100  172.6640  139.6620 C   0  0  0  0  0  2  0  0  0  0  0  0
  189.9020  171.6650  140.0160 N   0  0  0  0  0  2  0  0  0  0  0  0
  190.6330  171.3540  138.8010 C   0  0  0  0  0  1  0  0  0  0  0  0
  1  5  1  0  0  0  0
  1 19  1  1  0  0  0
  3  6  2  0  0  0  0
  4  3  1  0  0  0  0
  4  2  2  0  0  0  0
  5  7  1  0  0  0  0
  6  9  1  0  0  0  0
  6  8  1  0  0  0  0
  7 10  1  0  0  0  0
  8  5  2  0  0  0  0
  9  2  1  1  0  0  0
  9  1  1  0  0  0  0
 10 12  1  0  0  0  0
 12 11  2  0  0  0  0
 13 14  1  0  0  0  0
 13 10  2  0  0  0  0
 14 15  2  0  0  0  0
 15 11  1  0  0  0  0
 16 17  1  0  0  0  0
 18 21  1  0  0  0  0
 19 16  2  0  0  0  0
 20 19  1  0  0  0  0
 20 18  2  0  0  0  0
 21 17  2  0  0  0  0
 21 23  1  0  0  0  0
 22 25  2  0  0  0  0
 25 23  1  0  0  0  0
 25 24  1  0  0  0  0
 26 27  1  0  0  0  0
 26  4  1  0  0  0  0
 28 27  1  0  0  0  0
M  END
>  <MODEL>
8

>  <REMARK>
 VINA RESULT:      -5.9      2.028      5.679
  Name = 
  5 active torsions:
  status: ('A' for Active; 'I' for Inactive)
    1  A    between atoms: C_1  and  N_26
    2  A    between atoms: C_4  and  C_13
    3  A    between atoms: C_4  and  N_15
    4  A    between atoms: C_5  and  C_16
    5  A    between atoms: N_17  and  C_24
                            x       y       z     vdW  Elec       q    Type
                         _______ _______ _______ _____ _____    ______ ____

>  <TORSDO>
F 5

$$$$
=
 OpenBabel11042414413D

 28 31  0  0  1  0  0  0  0  0999 V2000
  196.0120  173.7210  144.7240 C   0  0  2  0  0  3  0  0  0  0  0  0
  196.4960  171.6870  146.2150 C   0  0  0  0  0  3  0  0  0  0  0  0
  197.7400  170.8990  144.3750 C   0  0  0  0  0  3  0  0  0  0  0  0
  197.1730  170.6360  145.7230 C   0  0  2  0  0  3  0  0  0  0  0  0
  196.4760  173.8360  143.3110 C   0  0  0  0  0  0  0  0  0  0  0  0
  197.4980  172.1810  144.1830 C   0  0  0  0  0  0  0  0  0  0  0  0
  195.9820  174.8190  142.3900 N   0  0  0  0  0  2  0  0  0  0  0  0
  197.3260  172.9030  142.9760 N   0  0  0  0  0  0  0  0  0  0  0  0
  196.7140  172.7100  145.2130 C   0  0  0  0  0  0  0  0  0  0  0  0
  196.3690  174.9830  141.0190 C   0  0  0  0  0  0  0  0  0  0  0  0
  197.9390  175.6590  139.3010 C   0  0  0  0  0  3  0  0  0  0  0  0
  197.6100  175.5170  140.6500 C   0  0  0  0  0  3  0  0  0  0  0  0
  195.4770  174.6020  140.0130 C   0  0  0  0  0  3  0  0  0  0  0  0
  195.8140  174.7480  138.7040 N   0  0  0  0  0  0  0  0  0  0  0  0
  197.0170  175.2650  138.3310 C   0  0  0  0  0  3  0  0  0  0  0  0
  194.9810  175.6690  145.9140 C   0  0  0  0  0  3  0  0  0  0  0  0
  193.8840  176.2980  146.5050 C   0  0  0  0  0  3  0  0  0  0  0  0
  192.5070  174.3810  145.9910 C   0  0  0  0  0  3  0  0  0  0  0  0
  194.8530  174.3880  145.3570 C   0  0  0  0  0  0  0  0  0  0  0  0
  193.6050  173.7520  145.4000 C   0  0  0  0  0  3  0  0  0  0  0  0
  192.6370  175.6560  146.5490 C   0  0  0  0  0  0  0  0  0  0  0  0
  190.4470  177.1100  145.2160 O   0  0  0  0  0  0  0  0  0  0  0  0
  191.4870  176.2690  147.1480 N   0  0  0  0  0  2  0  0  0  0  0  0
  189.3160  177.5420  147.2560 C   0  0  0  0  0  1  0  0  0  0  0  0
  190.4380  176.9690  146.4680 C   0  0  0  0  0  0  0  0  0  0  0  0
  197.1970  169.3020  146.3810 C   0  0  0  0  0  2  0  0  0  0  0  0
  195.9240  169.0530  147.0340 N   0  0  0  0  0  2  0  0  0  0  0  0
  195.0630  168.4340  146.0450 C   0  0  0  0  0  1  0  0  0  0  0  0
  1  9  1  0  0  0  0
  1 19  1  6  0  0  0
  3  4  1  0  0  0  0
  4  2  1  0  0  0  0
  4 26  1  6  0  0  0
  5  1  1  0  0  0  0
  6  3  2  0  0  0  0
  6  9  1  0  0  0  0
  7  5  1  0  0  0  0
  8  5  2  0  0  0  0
  8  6  1  0  0  0  0
  9  2  2  0  0  0  0
 10  7  1  0  0  0  0
 11 12  2  0  0  0  0
 12 10  1  0  0  0  0
 13 10  2  0  0  0  0
 14 13  1  0  0  0  0
 15 14  2  0  0  0  0
 15 11  1  0  0  0  0
 16 17  1  0  0  0  0
 17 21  2  0  0  0  0
 18 21  1  0  0  0  0
 19 20  1  0  0  0  0
 19 16  2  0  0  0  0
 20 18  2  0  0  0  0
 21 23  1  0  0  0  0
 22 25  2  0  0  0  0
 25 23  1  0  0  0  0
 25 24  1  0  0  0  0
 26 27  1  0  0  0  0
 28 27  1  0  0  0  0
M  END
>  <MODEL>
9

>  <REMARK>
 VINA RESULT:      -5.9      4.843      9.157
  Name = 
  5 active torsions:
  status: ('A' for Active; 'I' for Inactive)
    1  A    between atoms: C_1  and  N_26
    2  A    between atoms: C_4  and  C_13
    3  A    between atoms: C_4  and  N_15
    4  A    between atoms: C_5  and  C_16
    5  A    between atoms: N_17  and  C_24
                            x       y       z     vdW  Elec       q    Type
                         _______ _______ _______ _____ _____    ______ ____

>  <TORSDO>
F 5

$$$$
