=
 OpenBabel11042419363D

 56 60  0  0  1  0  0  0  0  0999 V2000
  193.0830  176.7420  144.4570 N   0  0  0  0  0  2  0  0  0  0  0  0
  194.3550  176.1900  144.1140 C   0  0  0  0  0  0  0  0  0  0  0  0
  194.7160  176.1180  142.9090 O   0  0  0  0  0  0  0  0  0  0  0  0
  194.5480  174.9500  146.2630 C   0  0  0  0  0  1  0  0  0  0  0  0
  195.2790  175.7690  145.2110 C   0  0  1  0  0  3  0  0  0  0  0  0
  196.4440  174.9810  144.6390 C   0  0  0  0  0  2  0  0  0  0  0  0
  196.0310  170.6630  144.3640 O   0  0  0  0  0  0  0  0  0  0  0  0
  196.1970  173.5210  144.7700 C   0  0  0  0  0  0  0  0  0  0  0  0
  196.6440  172.9050  145.7720 O   0  0  0  0  0  0  0  0  0  0  0  0
  195.4210  172.8430  143.7800 N   0  0  0  0  0  2  0  0  0  0  0  0
  195.3090  171.4230  143.6610 C   0  0  0  0  0  0  0  0  0  0  0  0
  196.2080  170.8910  141.0650 O   0  0  0  0  0  0  0  0  0  0  0  0
  191.3580  168.9590  142.3630 F   0  0  0  0  0  0  0  0  0  0  0  0
  192.5310  168.5330  139.6790 O   0  0  0  0  0  1  0  0  0  0  0  0
  192.9120  169.5220  140.5830 C   0  0  1  0  0  0  0  0  0  0  0  0
  195.0280  170.5350  141.3210 C   0  0  0  0  0  0  0  0  0  0  0  0
  194.3530  168.6800  143.6980 O   0  0  0  0  0  1  0  0  0  0  0  0
  192.6970  168.9840  142.0150 C   0  0  1  0  0  3  0  0  0  0  0  0
  194.3710  170.8550  142.6310 C   0  0  1  0  0  3  0  0  0  0  0  0
  194.2910  169.8410  140.3650 O   0  0  0  0  0  0  0  0  0  0  0  0
  193.5350  169.6540  143.1230 C   0  0  2  0  0  3  0  0  0  0  0  0
  192.0530  170.7670  140.3500 C   0  0  0  0  0  2  0  0  0  0  0  0
  192.1100  171.1550  139.0100 O   0  0  0  0  0  0  0  0  0  0  0  0
  189.3170  173.9570  138.2350 O   0  0  0  0  0  0  0  0  0  0  0  0
  189.7310  171.5770  138.6960 C   0  0  2  0  0  3  0  0  0  0  0  0
  191.5300  173.1290  137.7550 C   0  0  0  0  0  2  0  0  0  0  0  0
  189.7060  170.4860  137.6320 C   0  0  0  0  0  1  0  0  0  0  0  0
  188.7250  172.6740  138.3010 C   0  0  0  0  0  2  0  0  0  0  0  0
  190.3030  173.8900  137.2370 C   0  0  0  0  0  2  0  0  0  0  0  0
  191.1470  172.1580  138.8770 C   0  0  2  0  0  3  0  0  0  0  0  0
  192.1520  177.2510  143.4600 C   0  0  0  0  0  2  0  0  0  0  0  0
  190.7890  177.4890  144.0800 C   0  0  0  0  0  2  0  0  0  0  0  0
  190.6330  176.6810  145.2100 O   0  0  0  0  0  0  0  0  0  0  0  0
  184.5650  177.9680  144.0730 C   0  0  0  0  0  2  0  0  0  0  0  0
  188.3500  174.9590  141.4440 C   0  0  0  0  0  2  0  0  0  0  0  0
  188.0350  174.4130  142.8270 C   0  0  0  0  0  2  0  0  0  0  0  0
  186.8180  177.2050  145.3810 C   0  0  1  0  0  3  0  0  0  0  0  0
  186.2020  178.7300  142.3610 N   0  0  0  0  0  2  0  0  0  0  0  0
  185.7870  178.8360  143.7620 C   0  0  2  0  0  3  0  0  0  0  0  0
  190.7960  171.9480  143.6750 C   0  0  0  0  0  3  0  0  0  0  0  0
  191.5040  172.6360  144.6610 C   0  0  0  0  0  3  0  0  0  0  0  0
  186.9410  178.5920  144.7470 C   0  0  0  0  0  2  0  0  0  0  0  0
  189.9760  174.5150  144.4570 C   0  0  0  0  0  0  0  0  0  0  0  0
  187.8810  177.0030  146.4480 C   0  0  0  0  0  2  0  0  0  0  0  0
  189.5280  175.8680  144.9300 C   0  0  1  0  0  3  0  0  0  0  0  0
  191.0920  173.9100  145.0530 C   0  0  0  0  0  3  0  0  0  0  0  0
  186.7450  177.4030  142.0740 C   0  0  0  0  0  2  0  0  0  0  0  0
  189.2530  173.8140  143.4640 C   0  0  0  0  0  0  0  0  0  0  0  0
  189.6760  172.5270  143.0790 C   0  0  0  0  0  0  0  0  0  0  0  0
  188.6580  175.7240  146.1760 C   0  0  0  0  0  2  0  0  0  0  0  0
  188.9660  176.2730  141.5350 N   0  0  0  0  0  2  0  0  0  0  0  0
  188.8370  178.5670  141.8650 O   0  0  0  0  0  0  0  0  0  0  0  0
  188.9840  171.8170  142.1000 O   0  0  0  0  0  1  0  0  0  0  0  0
  185.4080  176.9510  145.9450 C   0  0  0  0  0  2  0  0  0  0  0  0
  184.4240  177.8520  145.4670 O   0  0  0  0  0  0  0  0  0  0  0  0
  188.2290  177.4610  141.8350 C   0  0  0  0  0  0  0  0  0  0  0  0
  2  1  1  0  0  0  0
  2  5  1  0  0  0  0
  3  2  2  0  0  0  0
  5  4  1  1  0  0  0
  6  8  1  0  0  0  0
  6  5  1  0  0  0  0
  8  9  2  0  0  0  0
 10  8  1  0  0  0  0
 11 10  1  0  0  0  0
 11  7  2  0  0  0  0
 12 16  2  0  0  0  0
 15 14  1  6  0  0  0
 15 18  1  0  0  0  0
 16 19  1  0  0  0  0
 18 13  1  1  0  0  0
 18 21  1  0  0  0  0
 19 21  1  0  0  0  0
 19 11  1  1  0  0  0
 20 15  1  0  0  0  0
 20 16  1  0  0  0  0
 21 17  1  6  0  0  0
 22 15  1  0  0  0  0
 23 22  1  0  0  0  0
 24 28  1  0  0  0  0
 25 27  1  6  0  0  0
 25 30  1  0  0  0  0
 26 30  1  0  0  0  0
 28 25  1  0  0  0  0
 29 26  1  0  0  0  0
 29 24  1  0  0  0  0
 30 23  1  6  0  0  0
 31 32  1  0  0  0  0
 31  1  1  0  0  0  0
 32 33  1  0  0  0  0
 34 55  1  0  0  0  0
 35 51  1  0  0  0  0
 35 36  1  0  0  0  0
 36 48  1  0  0  0  0
 37 42  1  1  0  0  0
 37 54  1  0  0  0  0
 37 44  1  0  0  0  0
 38 39  1  0  0  0  0
 39 34  1  1  0  0  0
 39 42  1  0  0  0  0
 40 41  1  0  0  0  0
 41 46  2  0  0  0  0
 43 45  1  0  0  0  0
 43 46  1  0  0  0  0
 45 33  1  1  0  0  0
 45 50  1  0  0  0  0
 47 38  1  0  0  0  0
 48 43  2  0  0  0  0
 49 48  1  0  0  0  0
 49 40  2  0  0  0  0
 50 44  1  0  0  0  0
 51 56  1  0  0  0  0
 53 49  1  0  0  0  0
 55 54  1  0  0  0  0
 56 52  2  0  0  0  0
 56 47  1  0  0  0  0
M  END
>  <MODEL>
1

>  <REMARK>
 VINA RESULT:      -7.7      0.000      0.000
  Name = 
  11 active torsions:
  status: ('A' for Active; 'I' for Inactive)
    1  A    between atoms: N_1  and  C_24
    2  A    between atoms: C_8  and  C_30
    3  A    between atoms: C_10  and  C_35
    4  A    between atoms: C_20  and  C_49
    5  A    between atoms: C_24  and  C_51
    6  A    between atoms: C_25  and  O_39
    7  A    between atoms: C_30  and  C_35
    8  A    between atoms: O_39  and  C_51
    9  A    between atoms: C_40  and  C_50
   10  A    between atoms: C_46  and  O_54
   11  A    between atoms: C_49  and  O_54
                            x       y       z     vdW  Elec       q    Type
                         _______ _______ _______ _____ _____    ______ ____

>  <TORSDO>
F 11

$$$$
=
 OpenBabel11042419363D

 56 60  0  0  1  0  0  0  0  0999 V2000
  193.8530  171.3660  143.7230 N   0  0  0  0  0  2  0  0  0  0  0  0
  194.6360  171.2880  144.9150 C   0  0  0  0  0  0  0  0  0  0  0  0
  194.6400  170.2360  145.6090 O   0  0  0  0  0  0  0  0  0  0  0  0
  196.8260  171.9770  145.8750 C   0  0  0  0  0  1  0  0  0  0  0  0
  195.5050  172.4460  145.2850 C   0  0  1  0  0  3  0  0  0  0  0  0
  195.7470  173.3270  144.0720 C   0  0  0  0  0  2  0  0  0  0  0  0
  193.9100  177.0440  145.3790 O   0  0  0  0  0  0  0  0  0  0  0  0
  195.1560  174.6760  144.2850 C   0  0  0  0  0  0  0  0  0  0  0  0
  195.8360  175.6980  144.0140 O   0  0  0  0  0  0  0  0  0  0  0  0
  193.8120  174.7930  144.7550 N   0  0  0  0  0  2  0  0  0  0  0  0
  193.2120  176.0040  145.2210 C   0  0  0  0  0  0  0  0  0  0  0  0
  191.8180  173.5870  145.4250 O   0  0  0  0  0  0  0  0  0  0  0  0
  189.2980  177.9680  147.2680 F   0  0  0  0  0  0  0  0  0  0  0  0
  188.0350  175.2930  147.3690 O   0  0  0  0  0  1  0  0  0  0  0  0
  189.0920  175.6600  146.5390 C   0  0  1  0  0  0  0  0  0  0  0  0
  191.1770  174.6200  145.7530 C   0  0  0  0  0  0  0  0  0  0  0  0
  192.2230  176.5930  147.8880 O   0  0  0  0  0  1  0  0  0  0  0  0
  189.9300  176.7370  147.2630 C   0  0  1  0  0  3  0  0  0  0  0  0
  191.7530  175.9950  145.5880 C   0  0  1  0  0  3  0  0  0  0  0  0
  189.8880  174.5020  146.2650 O   0  0  0  0  0  0  0  0  0  0  0  0
  191.3940  176.8790  146.8020 C   0  0  2  0  0  3  0  0  0  0  0  0
  188.5270  176.2190  145.2310 C   0  0  0  0  0  2  0  0  0  0  0  0
  187.1490  176.4170  145.3410 O   0  0  0  0  0  0  0  0  0  0  0  0
  185.8690  179.0560  142.5760 O   0  0  0  0  0  0  0  0  0  0  0  0
  186.1240  178.5980  144.9780 C   0  0  2  0  0  3  0  0  0  0  0  0
  186.0430  176.7410  143.2250 C   0  0  0  0  0  2  0  0  0  0  0  0
  184.9790  178.1810  145.8930 C   0  0  0  0  0  1  0  0  0  0  0  0
  185.5660  179.5190  143.8780 C   0  0  0  0  0  2  0  0  0  0  0  0
  185.2530  177.8010  142.4460 C   0  0  0  0  0  2  0  0  0  0  0  0
  186.8380  177.3740  144.3720 C   0  0  2  0  0  3  0  0  0  0  0  0
  193.0380  170.2580  143.2430 C   0  0  0  0  0  2  0  0  0  0  0  0
  192.4490  170.5830  141.8850 C   0  0  0  0  0  2  0  0  0  0  0  0
  193.4190  170.4120  140.8930 O   0  0  0  0  0  0  0  0  0  0  0  0
  188.6730  173.4920  138.1050 C   0  0  0  0  0  2  0  0  0  0  0  0
  192.7000  175.0450  141.5200 C   0  0  0  0  0  2  0  0  0  0  0  0
  193.2320  174.5410  140.1880 C   0  0  0  0  0  2  0  0  0  0  0  0
  190.8410  171.8920  138.4380 C   0  0  1  0  0  3  0  0  0  0  0  0
  188.6640  173.4540  140.5930 N   0  0  0  0  0  2  0  0  0  0  0  0
  188.6260  172.6390  139.3770 C   0  0  2  0  0  3  0  0  0  0  0  0
  196.9470  173.9180  140.6710 C   0  0  0  0  0  3  0  0  0  0  0  0
  197.0110  172.5250  140.6490 C   0  0  0  0  0  3  0  0  0  0  0  0
  189.6840  171.5260  139.3710 C   0  0  0  0  0  2  0  0  0  0  0  0
  194.6010  172.4120  140.3490 C   0  0  0  0  0  0  0  0  0  0  0  0
  191.8300  170.7440  138.3280 C   0  0  0  0  0  2  0  0  0  0  0  0
  193.3680  171.5830  140.1270 C   0  0  1  0  0  3  0  0  0  0  0  0
  195.8450  171.7770  140.4830 C   0  0  0  0  0  3  0  0  0  0  0  0
  189.9680  174.0940  140.7560 C   0  0  0  0  0  2  0  0  0  0  0  0
  194.5380  173.8240  140.3620 C   0  0  0  0  0  0  0  0  0  0  0  0
  195.7220  174.5700  140.5260 C   0  0  0  0  0  0  0  0  0  0  0  0
  193.2360  171.2330  138.6470 C   0  0  0  0  0  2  0  0  0  0  0  0
  192.0330  173.9760  142.2480 N   0  0  0  0  0  2  0  0  0  0  0  0
  190.2100  172.5860  142.6110 O   0  0  0  0  0  0  0  0  0  0  0  0
  195.6860  175.9620  140.5480 O   0  0  0  0  0  1  0  0  0  0  0  0
  190.3440  172.3340  137.0490 C   0  0  0  0  0  2  0  0  0  0  0  0
  188.9670  172.6650  137.0060 O   0  0  0  0  0  0  0  0  0  0  0  0
  190.7290  173.4970  141.9080 C   0  0  0  0  0  0  0  0  0  0  0  0
  1  2  1  0  0  0  0
  2  5  1  0  0  0  0
  2  3  2  0  0  0  0
  5  4  1  6  0  0  0
  6  8  1  0  0  0  0
  6  5  1  0  0  0  0
  8 10  1  0  0  0  0
  9  8  2  0  0  0  0
 10 11  1  0  0  0  0
 11  7  2  0  0  0  0
 12 16  2  0  0  0  0
 15 18  1  0  0  0  0
 15 14  1  1  0  0  0
 16 20  1  0  0  0  0
 18 13  1  6  0  0  0
 19 11  1  1  0  0  0
 19 16  1  0  0  0  0
 19 21  1  0  0  0  0
 20 15  1  0  0  0  0
 21 18  1  0  0  0  0
 21 17  1  1  0  0  0
 22 23  1  0  0  0  0
 22 15  1  0  0  0  0
 24 28  1  0  0  0  0
 25 27  1  1  0  0  0
 26 30  1  0  0  0  0
 28 25  1  0  0  0  0
 29 24  1  0  0  0  0
 29 26  1  0  0  0  0
 30 25  1  0  0  0  0
 30 23  1  1  0  0  0
 31  1  1  0  0  0  0
 32 31  1  0  0  0  0
 33 32  1  0  0  0  0
 35 51  1  0  0  0  0
 36 48  1  0  0  0  0
 36 35  1  0  0  0  0
 37 54  1  6  0  0  0
 37 42  1  0  0  0  0
 38 47  1  0  0  0  0
 39 34  1  6  0  0  0
 39 38  1  0  0  0  0
 41 40  1  0  0  0  0
 42 39  1  0  0  0  0
 43 48  2  0  0  0  0
 43 46  1  0  0  0  0
 44 37  1  0  0  0  0
 44 50  1  0  0  0  0
 45 43  1  0  0  0  0
 45 33  1  1  0  0  0
 46 41  2  0  0  0  0
 47 56  1  0  0  0  0
 48 49  1  0  0  0  0
 49 53  1  0  0  0  0
 49 40  2  0  0  0  0
 50 45  1  0  0  0  0
 55 54  1  0  0  0  0
 55 34  1  0  0  0  0
 56 51  1  0  0  0  0
 56 52  2  0  0  0  0
M  END
>  <MODEL>
2

>  <REMARK>
 VINA RESULT:      -7.6      2.589      7.690
  Name = 
  11 active torsions:
  status: ('A' for Active; 'I' for Inactive)
    1  A    between atoms: N_1  and  C_24
    2  A    between atoms: C_8  and  C_30
    3  A    between atoms: C_10  and  C_35
    4  A    between atoms: C_20  and  C_49
    5  A    between atoms: C_24  and  C_51
    6  A    between atoms: C_25  and  O_39
    7  A    between atoms: C_30  and  C_35
    8  A    between atoms: O_39  and  C_51
    9  A    between atoms: C_40  and  C_50
   10  A    between atoms: C_46  and  O_54
   11  A    between atoms: C_49  and  O_54
                            x       y       z     vdW  Elec       q    Type
                         _______ _______ _______ _____ _____    ______ ____

>  <TORSDO>
F 11

$$$$
=
 OpenBabel11042419363D

 56 60  0  0  1  0  0  0  0  0999 V2000
  194.9280  171.7950  143.6290 N   0  0  0  0  0  2  0  0  0  0  0  0
  195.3110  171.9800  144.9930 C   0  0  0  0  0  0  0  0  0  0  0  0
  194.5730  171.5620  145.9250 O   0  0  0  0  0  0  0  0  0  0  0  0
  197.5870  172.4730  144.1160 C   0  0  0  0  0  1  0  0  0  0  0  0
  196.6330  172.6080  145.2930 C   0  0  1  0  0  3  0  0  0  0  0  0
  196.4470  174.0690  145.6610 C   0  0  0  0  0  2  0  0  0  0  0  0
  193.4660  176.4330  143.5600 O   0  0  0  0  0  0  0  0  0  0  0  0
  195.4490  174.7070  144.7620 C   0  0  0  0  0  0  0  0  0  0  0  0
  195.7810  175.0100  143.5870 O   0  0  0  0  0  0  0  0  0  0  0  0
  194.1170  174.9300  145.2280 N   0  0  0  0  0  2  0  0  0  0  0  0
  193.1420  175.7360  144.5610 C   0  0  0  0  0  0  0  0  0  0  0  0
  191.7030  173.3820  145.0240 O   0  0  0  0  0  0  0  0  0  0  0  0
  189.6120  177.9050  147.0510 F   0  0  0  0  0  0  0  0  0  0  0  0
  188.2800  175.2860  147.4030 O   0  0  0  0  0  1  0  0  0  0  0  0
  189.2270  175.5890  146.4280 C   0  0  1  0  0  0  0  0  0  0  0  0
  191.1490  174.4470  145.4030 C   0  0  0  0  0  0  0  0  0  0  0  0
  192.5430  176.4320  147.3170 O   0  0  0  0  0  1  0  0  0  0  0  0
  190.1940  176.6500  147.0000 C   0  0  1  0  0  3  0  0  0  0  0  0
  191.7470  175.7940  145.1200 C   0  0  1  0  0  3  0  0  0  0  0  0
  189.9380  174.3940  146.0860 O   0  0  0  0  0  0  0  0  0  0  0  0
  191.5870  176.7230  146.3430 C   0  0  2  0  0  3  0  0  0  0  0  0
  188.5120  176.1360  145.1910 C   0  0  0  0  0  2  0  0  0  0  0  0
  187.2790  176.6880  145.5460 O   0  0  0  0  0  0  0  0  0  0  0  0
  185.9340  178.9490  142.4910 O   0  0  0  0  0  0  0  0  0  0  0  0
  185.9790  178.6550  144.9320 C   0  0  2  0  0  3  0  0  0  0  0  0
  186.3870  176.7260  143.3070 C   0  0  0  0  0  2  0  0  0  0  0  0
  184.8150  178.1040  145.7460 C   0  0  0  0  0  1  0  0  0  0  0  0
  185.4160  179.4190  143.7210 C   0  0  0  0  0  2  0  0  0  0  0  0
  185.5380  177.6060  142.3810 C   0  0  0  0  0  2  0  0  0  0  0  0
  186.9380  177.5330  144.4870 C   0  0  2  0  0  3  0  0  0  0  0  0
  193.6950  171.1230  143.2420 C   0  0  0  0  0  2  0  0  0  0  0  0
  193.1240  171.7460  141.9840 C   0  0  0  0  0  2  0  0  0  0  0  0
  193.2280  173.1380  142.0530 O   0  0  0  0  0  0  0  0  0  0  0  0
  195.9870  173.0540  136.3830 C   0  0  0  0  0  2  0  0  0  0  0  0
  191.0330  171.4910  138.2010 C   0  0  0  0  0  2  0  0  0  0  0  0
  191.2610  172.9870  138.3540 C   0  0  0  0  0  2  0  0  0  0  0  0
  195.0910  173.9590  138.7800 C   0  0  1  0  0  3  0  0  0  0  0  0
  195.3360  170.8490  137.3350 N   0  0  0  0  0  2  0  0  0  0  0  0
  196.1530  172.0490  137.5270 C   0  0  2  0  0  3  0  0  0  0  0  0
  188.5670  174.2590  140.7080 C   0  0  0  0  0  3  0  0  0  0  0  0
  189.3010  174.5410  141.8610 C   0  0  0  0  0  3  0  0  0  0  0  0
  195.9470  172.6970  138.9050 C   0  0  0  0  0  2  0  0  0  0  0  0
  191.3330  173.7910  140.7580 C   0  0  0  0  0  0  0  0  0  0  0  0
  194.9870  174.6750  140.1160 C   0  0  0  0  0  2  0  0  0  0  0  0
  192.8220  173.5990  140.7950 C   0  0  1  0  0  3  0  0  0  0  0  0
  190.6770  174.3130  141.8820 C   0  0  0  0  0  3  0  0  0  0  0  0
  193.9120  171.1570  137.4610 C   0  0  0  0  0  2  0  0  0  0  0  0
  190.5900  173.5140  139.5880 C   0  0  0  0  0  0  0  0  0  0  0  0
  189.2020  173.7510  139.5750 C   0  0  0  0  0  0  0  0  0  0  0  0
  193.5260  174.9140  140.4690 C   0  0  0  0  0  2  0  0  0  0  0  0
  191.9530  170.7400  139.0390 N   0  0  0  0  0  2  0  0  0  0  0  0
  194.0580  169.8690  139.4850 O   0  0  0  0  0  0  0  0  0  0  0  0
  188.4470  173.4810  138.4360 O   0  0  0  0  0  1  0  0  0  0  0  0
  195.6130  174.9040  137.6810 C   0  0  0  0  0  2  0  0  0  0  0  0
  196.5180  174.2950  136.7780 O   0  0  0  0  0  0  0  0  0  0  0  0
  193.3350  170.5620  138.7170 C   0  0  0  0  0  0  0  0  0  0  0  0
  1  2  1  0  0  0  0
  2  5  1  0  0  0  0
  2  3  2  0  0  0  0
  5  4  1  6  0  0  0
  5  6  1  0  0  0  0
  7 11  2  0  0  0  0
  8 10  1  0  0  0  0
  8  6  1  0  0  0  0
  9  8  2  0  0  0  0
 11 10  1  0  0  0  0
 12 16  2  0  0  0  0
 15 18  1  0  0  0  0
 15 14  1  1  0  0  0
 16 20  1  0  0  0  0
 18 13  1  6  0  0  0
 19 11  1  1  0  0  0
 19 16  1  0  0  0  0
 19 21  1  0  0  0  0
 20 15  1  0  0  0  0
 21 18  1  0  0  0  0
 21 17  1  1  0  0  0
 22 23  1  0  0  0  0
 22 15  1  0  0  0  0
 24 28  1  0  0  0  0
 25 27  1  6  0  0  0
 26 30  1  0  0  0  0
 28 25  1  0  0  0  0
 29 24  1  0  0  0  0
 29 26  1  0  0  0  0
 30 25  1  0  0  0  0
 30 23  1  1  0  0  0
 31  1  1  0  0  0  0
 32 33  1  0  0  0  0
 32 31  1  0  0  0  0
 34 55  1  0  0  0  0
 35 36  1  0  0  0  0
 35 51  1  0  0  0  0
 36 48  1  0  0  0  0
 37 54  1  6  0  0  0
 37 42  1  0  0  0  0
 37 44  1  0  0  0  0
 38 47  1  0  0  0  0
 38 39  1  0  0  0  0
 39 34  1  6  0  0  0
 39 42  1  0  0  0  0
 40 41  1  0  0  0  0
 41 46  2  0  0  0  0
 43 45  1  0  0  0  0
 43 46  1  0  0  0  0
 44 50  1  0  0  0  0
 45 33  1  1  0  0  0
 47 56  1  0  0  0  0
 48 43  2  0  0  0  0
 49 48  1  0  0  0  0
 49 40  2  0  0  0  0
 50 45  1  0  0  0  0
 53 49  1  0  0  0  0
 55 54  1  0  0  0  0
 56 51  1  0  0  0  0
 56 52  2  0  0  0  0
M  END
>  <MODEL>
3

>  <REMARK>
 VINA RESULT:      -7.6      3.010      8.218
  Name = 
  11 active torsions:
  status: ('A' for Active; 'I' for Inactive)
    1  A    between atoms: N_1  and  C_24
    2  A    between atoms: C_8  and  C_30
    3  A    between atoms: C_10  and  C_35
    4  A    between atoms: C_20  and  C_49
    5  A    between atoms: C_24  and  C_51
    6  A    between atoms: C_25  and  O_39
    7  A    between atoms: C_30  and  C_35
    8  A    between atoms: O_39  and  C_51
    9  A    between atoms: C_40  and  C_50
   10  A    between atoms: C_46  and  O_54
   11  A    between atoms: C_49  and  O_54
                            x       y       z     vdW  Elec       q    Type
                         _______ _______ _______ _____ _____    ______ ____

>  <TORSDO>
F 11

$$$$
=
 OpenBabel11042419363D

 56 60  0  0  1  0  0  0  0  0999 V2000
  193.7760  171.8170  144.3220 N   0  0  0  0  0  2  0  0  0  0  0  0
  194.7580  171.7520  145.3580 C   0  0  0  0  0  0  0  0  0  0  0  0
  194.7880  170.7690  146.1470 O   0  0  0  0  0  0  0  0  0  0  0  0
  197.1840  172.2420  145.6210 C   0  0  0  0  0  1  0  0  0  0  0  0
  195.7910  172.8280  145.4420 C   0  0  1  0  0  3  0  0  0  0  0  0
  195.7380  173.7030  144.2030 C   0  0  0  0  0  2  0  0  0  0  0  0
  193.5490  177.1730  145.6390 O   0  0  0  0  0  0  0  0  0  0  0  0
  195.1170  175.0160  144.5220 C   0  0  0  0  0  0  0  0  0  0  0  0
  195.8530  175.9940  144.8100 O   0  0  0  0  0  0  0  0  0  0  0  0
  193.6970  175.1620  144.4560 N   0  0  0  0  0  2  0  0  0  0  0  0
  192.9670  176.2840  144.9580 C   0  0  0  0  0  0  0  0  0  0  0  0
  191.9570  176.8690  142.4160 O   0  0  0  0  0  0  0  0  0  0  0  0
  188.4060  175.1210  146.0590 F   0  0  0  0  0  0  0  0  0  0  0  0
  187.5880  175.8080  143.2980 O   0  0  0  0  0  1  0  0  0  0  0  0
  188.7510  176.2400  143.9300 C   0  0  1  0  0  0  0  0  0  0  0  0
  191.1030  176.5710  143.2900 C   0  0  0  0  0  0  0  0  0  0  0  0
  191.2520  173.9400  144.9030 O   0  0  0  0  0  1  0  0  0  0  0  0
  189.2000  175.1480  144.9260 C   0  0  1  0  0  3  0  0  0  0  0  0
  191.4820  176.3450  144.7240 C   0  0  1  0  0  3  0  0  0  0  0  0
  189.7600  176.4640  142.9390 O   0  0  0  0  0  0  0  0  0  0  0  0
  190.6940  175.1530  145.3090 C   0  0  2  0  0  3  0  0  0  0  0  0
  188.4590  177.5450  144.6730 C   0  0  0  0  0  2  0  0  0  0  0  0
  187.3440  178.1800  144.1220 O   0  0  0  0  0  0  0  0  0  0  0  0
  184.4360  177.9500  146.9050 O   0  0  0  0  0  0  0  0  0  0  0  0
  185.0310  178.7340  144.6510 C   0  0  2  0  0  3  0  0  0  0  0  0
  186.7800  178.2980  146.4620 C   0  0  0  0  0  2  0  0  0  0  0  0
  185.3290  180.1870  144.3060 C   0  0  0  0  0  1  0  0  0  0  0  0
  183.9950  178.7000  145.7890 C   0  0  0  0  0  2  0  0  0  0  0  0
  185.5900  178.5900  147.3850 C   0  0  0  0  0  2  0  0  0  0  0  0
  186.3120  177.9700  145.0400 C   0  0  2  0  0  3  0  0  0  0  0  0
  192.7810  170.7740  144.1150 C   0  0  0  0  0  2  0  0  0  0  0  0
  192.2980  170.7800  142.6780 C   0  0  0  0  0  2  0  0  0  0  0  0
  193.0050  169.8310  141.9350 O   0  0  0  0  0  0  0  0  0  0  0  0
  189.9500  172.1840  136.9450 C   0  0  0  0  0  2  0  0  0  0  0  0
  193.6230  174.2830  140.4650 C   0  0  0  0  0  2  0  0  0  0  0  0
  194.1950  173.1370  139.6470 C   0  0  0  0  0  2  0  0  0  0  0  0
  191.4460  170.5150  138.4760 C   0  0  1  0  0  3  0  0  0  0  0  0
  189.5120  173.2810  139.1350 N   0  0  0  0  0  2  0  0  0  0  0  0
  189.4350  172.0290  138.3780 C   0  0  2  0  0  3  0  0  0  0  0  0
  197.4120  172.0770  141.3650 C   0  0  0  0  0  3  0  0  0  0  0  0
  197.0550  170.8440  141.9100 C   0  0  0  0  0  3  0  0  0  0  0  0
  190.0930  170.8490  139.1090 C   0  0  0  0  0  2  0  0  0  0  0  0
  194.8100  171.0880  141.0090 C   0  0  0  0  0  0  0  0  0  0  0  0
  192.0460  169.2720  139.1100 C   0  0  0  0  0  2  0  0  0  0  0  0
  193.4400  170.5110  140.7910 C   0  0  1  0  0  3  0  0  0  0  0  0
  195.7630  170.3500  141.7280 C   0  0  0  0  0  3  0  0  0  0  0  0
  190.9020  173.6530  139.3950 C   0  0  0  0  0  2  0  0  0  0  0  0
  195.1750  172.3340  140.4500 C   0  0  0  0  0  0  0  0  0  0  0  0
  196.4830  172.8210  140.6360 C   0  0  0  0  0  0  0  0  0  0  0  0
  193.4590  169.5620  139.5950 C   0  0  0  0  0  2  0  0  0  0  0  0
  192.5520  173.8170  141.3320 N   0  0  0  0  0  2  0  0  0  0  0  0
  190.3610  173.1350  141.6790 O   0  0  0  0  0  0  0  0  0  0  0  0
  196.8660  174.0480  140.1000 O   0  0  0  0  0  1  0  0  0  0  0  0
  191.3470  170.3680  136.9470 C   0  0  0  0  0  2  0  0  0  0  0  0
  190.1620  170.9100  136.3900 O   0  0  0  0  0  0  0  0  0  0  0  0
  191.2410  173.5050  140.8530 C   0  0  0  0  0  0  0  0  0  0  0  0
  1  2  1  0  0  0  0
  2  5  1  0  0  0  0
  2  3  2  0  0  0  0
  5  4  1  6  0  0  0
  6  8  1  0  0  0  0
  6  5  1  0  0  0  0
  8  9  2  0  0  0  0
 10  8  1  0  0  0  0
 10 11  1  0  0  0  0
 11  7  2  0  0  0  0
 12 16  2  0  0  0  0
 15 14  1  6  0  0  0
 15 22  1  0  0  0  0
 15 18  1  0  0  0  0
 16 19  1  0  0  0  0
 18 21  1  0  0  0  0
 18 13  1  1  0  0  0
 19 11  1  6  0  0  0
 19 21  1  0  0  0  0
 20 16  1  0  0  0  0
 20 15  1  0  0  0  0
 21 17  1  6  0  0  0
 23 22  1  0  0  0  0
 24 29  1  0  0  0  0
 25 27  1  1  0  0  0
 25 30  1  0  0  0  0
 25 28  1  0  0  0  0
 26 29  1  0  0  0  0
 28 24  1  0  0  0  0
 30 23  1  6  0  0  0
 30 26  1  0  0  0  0
 31  1  1  0  0  0  0
 32 31  1  0  0  0  0
 33 32  1  0  0  0  0
 35 51  1  0  0  0  0
 36 48  1  0  0  0  0
 36 35  1  0  0  0  0
 37 54  1  6  0  0  0
 37 42  1  0  0  0  0
 37 44  1  0  0  0  0
 38 47  1  0  0  0  0
 39 34  1  6  0  0  0
 39 42  1  0  0  0  0
 39 38  1  0  0  0  0
 40 41  1  0  0  0  0
 43 46  1  0  0  0  0
 44 50  1  0  0  0  0
 45 43  1  0  0  0  0
 45 33  1  1  0  0  0
 46 41  2  0  0  0  0
 47 56  1  0  0  0  0
 48 49  1  0  0  0  0
 48 43  2  0  0  0  0
 49 40  2  0  0  0  0
 50 45  1  0  0  0  0
 53 49  1  0  0  0  0
 55 34  1  0  0  0  0
 55 54  1  0  0  0  0
 56 51  1  0  0  0  0
 56 52  2  0  0  0  0
M  END
>  <MODEL>
4

>  <REMARK>
 VINA RESULT:      -7.6      2.427      8.057
  Name = 
  11 active torsions:
  status: ('A' for Active; 'I' for Inactive)
    1  A    between atoms: N_1  and  C_24
    2  A    between atoms: C_8  and  C_30
    3  A    between atoms: C_10  and  C_35
    4  A    between atoms: C_20  and  C_49
    5  A    between atoms: C_24  and  C_51
    6  A    between atoms: C_25  and  O_39
    7  A    between atoms: C_30  and  C_35
    8  A    between atoms: O_39  and  C_51
    9  A    between atoms: C_40  and  C_50
   10  A    between atoms: C_46  and  O_54
   11  A    between atoms: C_49  and  O_54
                            x       y       z     vdW  Elec       q    Type
                         _______ _______ _______ _____ _____    ______ ____

>  <TORSDO>
F 11

$$$$
=
 OpenBabel11042419363D

 56 60  0  0  1  0  0  0  0  0999 V2000
  190.3510  173.9780  141.5330 N   0  0  0  0  0  2  0  0  0  0  0  0
  190.1280  173.1510  140.3900 C   0  0  0  0  0  0  0  0  0  0  0  0
  189.9450  171.9110  140.5250 O   0  0  0  0  0  0  0  0  0  0  0  0
  191.0870  173.2210  138.0940 C   0  0  0  0  0  1  0  0  0  0  0  0
  190.0420  173.7910  139.0420 C   0  0  1  0  0  3  0  0  0  0  0  0
  188.6480  173.6120  138.4670 C   0  0  0  0  0  2  0  0  0  0  0  0
  186.8290  177.4100  139.5420 O   0  0  0  0  0  0  0  0  0  0  0  0
  187.8160  174.8130  138.7430 C   0  0  0  0  0  0  0  0  0  0  0  0
  187.1750  175.3510  137.8030 O   0  0  0  0  0  0  0  0  0  0  0  0
  187.7210  175.3160  140.0770 N   0  0  0  0  0  2  0  0  0  0  0  0
  187.1560  176.5800  140.4350 C   0  0  0  0  0  0  0  0  0  0  0  0
  188.9710  178.3420  141.6310 O   0  0  0  0  0  0  0  0  0  0  0  0
  184.6190  177.0610  144.5210 F   0  0  0  0  0  0  0  0  0  0  0  0
  186.6870  178.9040  145.5640 O   0  0  0  0  0  1  0  0  0  0  0  0
  186.8640  177.9870  144.5300 C   0  0  1  0  0  0  0  0  0  0  0  0
  188.0170  177.9600  142.3580 C   0  0  0  0  0  0  0  0  0  0  0  0
  185.0670  178.2930  141.5020 O   0  0  0  0  0  1  0  0  0  0  0  0
  185.5180  177.8180  143.7910 C   0  0  1  0  0  3  0  0  0  0  0  0
  187.0310  176.9300  141.8930 C   0  0  1  0  0  3  0  0  0  0  0  0
  187.8690  178.4840  143.6390 O   0  0  0  0  0  0  0  0  0  0  0  0
  185.6020  177.3110  142.3370 C   0  0  2  0  0  3  0  0  0  0  0  0
  187.3150  176.6500  145.1220 C   0  0  0  0  0  2  0  0  0  0  0  0
  187.8410  176.8360  146.4020 O   0  0  0  0  0  0  0  0  0  0  0  0
  191.8180  176.1780  146.4120 O   0  0  0  0  0  0  0  0  0  0  0  0
  189.5890  175.1390  146.4090 C   0  0  2  0  0  3  0  0  0  0  0  0
  189.9950  177.5220  147.2370 C   0  0  0  0  0  2  0  0  0  0  0  0
  188.9380  174.5140  147.6360 C   0  0  0  0  0  1  0  0  0  0  0  0
  191.1140  174.9550  146.5110 C   0  0  0  0  0  2  0  0  0  0  0  0
  191.4010  176.9660  147.4960 C   0  0  0  0  0  2  0  0  0  0  0  0
  189.2160  176.6280  146.2670 C   0  0  2  0  0  3  0  0  0  0  0  0
  190.3710  173.4530  142.8920 C   0  0  0  0  0  2  0  0  0  0  0  0
  191.7950  173.1680  143.3290 C   0  0  0  0  0  2  0  0  0  0  0  0
  192.1120  171.8320  143.0720 O   0  0  0  0  0  0  0  0  0  0  0  0
  196.1180  175.2350  139.5870 C   0  0  0  0  0  2  0  0  0  0  0  0
  195.9110  173.9460  144.9340 C   0  0  0  0  0  2  0  0  0  0  0  0
  196.0910  172.7230  144.0490 C   0  0  0  0  0  2  0  0  0  0  0  0
  194.5570  173.1720  140.4100 C   0  0  1  0  0  3  0  0  0  0  0  0
  194.9220  176.4440  141.4040 N   0  0  0  0  0  2  0  0  0  0  0  0
  194.7700  175.6700  140.1690 C   0  0  2  0  0  3  0  0  0  0  0  0
  195.3300  169.6980  146.2160 C   0  0  0  0  0  3  0  0  0  0  0  0
  194.1090  169.2700  145.6950 C   0  0  0  0  0  3  0  0  0  0  0  0
  193.7930  174.4940  140.3180 C   0  0  0  0  0  2  0  0  0  0  0  0
  194.1390  171.1030  144.0990 C   0  0  0  0  0  0  0  0  0  0  0  0
  193.5980  171.9940  140.4310 C   0  0  0  0  0  2  0  0  0  0  0  0
  193.5050  171.8060  142.9330 C   0  0  1  0  0  3  0  0  0  0  0  0
  193.5200  169.9660  144.6390 C   0  0  0  0  0  3  0  0  0  0  0  0
  195.4170  175.6030  142.4920 C   0  0  0  0  0  2  0  0  0  0  0  0
  195.3810  171.5310  144.6220 C   0  0  0  0  0  0  0  0  0  0  0  0
  195.9680  170.8190  145.6850 C   0  0  0  0  0  0  0  0  0  0  0  0
  193.8870  171.1050  141.6310 C   0  0  0  0  0  2  0  0  0  0  0  0
  194.6240  174.5770  144.6880 N   0  0  0  0  0  2  0  0  0  0  0  0
  193.2180  175.9100  143.4110 O   0  0  0  0  0  0  0  0  0  0  0  0
  197.1890  171.2230  146.2210 O   0  0  0  0  0  1  0  0  0  0  0  0
  195.5950  173.0260  139.2820 C   0  0  0  0  0  2  0  0  0  0  0  0
  195.9020  174.2390  138.6180 O   0  0  0  0  0  0  0  0  0  0  0  0
  194.3540  175.3740  143.5320 C   0  0  0  0  0  0  0  0  0  0  0  0
  1 31  1  0  0  0  0
  2  3  2  0  0  0  0
  2  1  1  0  0  0  0
  5  4  1  6  0  0  0
  5  2  1  0  0  0  0
  6  8  1  0  0  0  0
  6  5  1  0  0  0  0
  7 11  2  0  0  0  0
  8 10  1  0  0  0  0
  9  8  2  0  0  0  0
 10 11  1  0  0  0  0
 12 16  2  0  0  0  0
 15 22  1  0  0  0  0
 15 14  1  1  0  0  0
 16 20  1  0  0  0  0
 18 13  1  1  0  0  0
 18 15  1  0  0  0  0
 19 11  1  6  0  0  0
 19 21  1  0  0  0  0
 19 16  1  0  0  0  0
 20 15  1  0  0  0  0
 21 17  1  6  0  0  0
 21 18  1  0  0  0  0
 22 23  1  0  0  0  0
 24 28  1  0  0  0  0
 24 29  1  0  0  0  0
 25 28  1  0  0  0  0
 25 27  1  1  0  0  0
 26 29  1  0  0  0  0
 30 23  1  1  0  0  0
 30 25  1  0  0  0  0
 30 26  1  0  0  0  0
 31 32  1  0  0  0  0
 33 32  1  0  0  0  0
 36 48  1  0  0  0  0
 36 35  1  0  0  0  0
 37 54  1  6  0  0  0
 37 44  1  0  0  0  0
 38 47  1  0  0  0  0
 39 34  1  1  0  0  0
 39 42  1  0  0  0  0
 39 38  1  0  0  0  0
 41 40  1  0  0  0  0
 42 37  1  0  0  0  0
 43 48  2  0  0  0  0
 43 46  1  0  0  0  0
 44 50  1  0  0  0  0
 45 33  1  1  0  0  0
 45 43  1  0  0  0  0
 46 41  2  0  0  0  0
 47 56  1  0  0  0  0
 48 49  1  0  0  0  0
 49 40  2  0  0  0  0
 49 53  1  0  0  0  0
 50 45  1  0  0  0  0
 51 35  1  0  0  0  0
 52 56  2  0  0  0  0
 55 54  1  0  0  0  0
 55 34  1  0  0  0  0
 56 51  1  0  0  0  0
M  END
>  <MODEL>
5

>  <REMARK>
 VINA RESULT:      -7.6      2.676      9.315
  Name = 
  11 active torsions:
  status: ('A' for Active; 'I' for Inactive)
    1  A    between atoms: N_1  and  C_24
    2  A    between atoms: C_8  and  C_30
    3  A    between atoms: C_10  and  C_35
    4  A    between atoms: C_20  and  C_49
    5  A    between atoms: C_24  and  C_51
    6  A    between atoms: C_25  and  O_39
    7  A    between atoms: C_30  and  C_35
    8  A    between atoms: O_39  and  C_51
    9  A    between atoms: C_40  and  C_50
   10  A    between atoms: C_46  and  O_54
   11  A    between atoms: C_49  and  O_54
                            x       y       z     vdW  Elec       q    Type
                         _______ _______ _______ _____ _____    ______ ____

>  <TORSDO>
F 11

$$$$
=
 OpenBabel11042419363D

 56 60  0  0  1  0  0  0  0  0999 V2000
  192.1360  172.1160  139.2120 N   0  0  0  0  0  2  0  0  0  0  0  0
  191.5200  173.2330  138.5690 C   0  0  0  0  0  0  0  0  0  0  0  0
  192.2250  174.1550  138.0780 O   0  0  0  0  0  0  0  0  0  0  0  0
  189.5500  172.1090  137.5460 C   0  0  0  0  0  1  0  0  0  0  0  0
  190.0330  173.2530  138.4240 C   0  0  1  0  0  3  0  0  0  0  0  0
  189.3740  173.1890  139.7900 C   0  0  0  0  0  2  0  0  0  0  0  0
  187.2290  176.8800  140.6080 O   0  0  0  0  0  0  0  0  0  0  0  0
  188.4430  174.3350  139.9710 C   0  0  0  0  0  0  0  0  0  0  0  0
  187.8220  174.7900  138.9760 O   0  0  0  0  0  0  0  0  0  0  0  0
  188.2350  174.8780  141.2760 N   0  0  0  0  0  2  0  0  0  0  0  0
  187.5620  176.1100  141.5510 C   0  0  0  0  0  0  0  0  0  0  0  0
  188.9430  178.2680  142.6740 O   0  0  0  0  0  0  0  0  0  0  0  0
  184.8660  176.2700  145.5600 F   0  0  0  0  0  0  0  0  0  0  0  0
  186.4830  178.5520  146.5300 O   0  0  0  0  0  1  0  0  0  0  0  0
  186.8730  177.6390  145.5540 C   0  0  1  0  0  0  0  0  0  0  0  0
  188.0670  177.7370  143.4050 C   0  0  0  0  0  0  0  0  0  0  0  0
  185.1360  177.4090  142.4840 O   0  0  0  0  0  1  0  0  0  0  0  0
  185.6110  177.1570  144.8030 C   0  0  1  0  0  3  0  0  0  0  0  0
  187.3270  176.5020  142.9840 C   0  0  1  0  0  3  0  0  0  0  0  0
  187.7790  178.2850  144.6520 O   0  0  0  0  0  0  0  0  0  0  0  0
  185.8380  176.6030  143.3820 C   0  0  2  0  0  3  0  0  0  0  0  0
  187.5710  176.4560  146.2280 C   0  0  0  0  0  2  0  0  0  0  0  0
  188.4070  176.9040  147.2530 O   0  0  0  0  0  0  0  0  0  0  0  0
  191.5840  174.4570  146.8330 O   0  0  0  0  0  0  0  0  0  0  0  0
  190.8370  176.7830  147.1150 C   0  0  2  0  0  3  0  0  0  0  0  0
  189.3220  174.9580  146.1640 C   0  0  0  0  0  2  0  0  0  0  0  0
  190.7960  177.8080  145.9890 C   0  0  0  0  0  1  0  0  0  0  0  0
  192.0000  175.8090  146.8540 C   0  0  0  0  0  2  0  0  0  0  0  0
  190.6700  174.3380  145.7730 C   0  0  0  0  0  2  0  0  0  0  0  0
  189.4980  176.0310  147.2440 C   0  0  2  0  0  3  0  0  0  0  0  0
  193.5810  171.9730  139.3290 C   0  0  0  0  0  2  0  0  0  0  0  0
  193.9820  171.8100  140.7810 C   0  0  0  0  0  2  0  0  0  0  0  0
  192.8410  171.7540  141.5860 O   0  0  0  0  0  0  0  0  0  0  0  0
  196.8470  169.7380  146.0220 C   0  0  0  0  0  2  0  0  0  0  0  0
  196.2630  174.5080  143.3380 C   0  0  0  0  0  2  0  0  0  0  0  0
  195.0540  174.1750  144.1970 C   0  0  0  0  0  2  0  0  0  0  0  0
  194.5230  170.2710  144.7220 C   0  0  1  0  0  3  0  0  0  0  0  0
  197.8440  170.3940  143.8380 N   0  0  0  0  0  2  0  0  0  0  0  0
  196.9090  169.4900  144.5120 C   0  0  2  0  0  3  0  0  0  0  0  0
  192.2510  176.4720  143.0610 C   0  0  0  0  0  3  0  0  0  0  0  0
  191.3980  175.5840  142.4060 C   0  0  0  0  0  3  0  0  0  0  0  0
  195.5150  169.4830  143.8650 C   0  0  0  0  0  2  0  0  0  0  0  0
  192.9250  173.7540  142.8840 C   0  0  0  0  0  0  0  0  0  0  0  0
  193.1170  170.1640  144.1570 C   0  0  0  0  0  2  0  0  0  0  0  0
  193.2360  172.2860  142.8200 C   0  0  1  0  0  3  0  0  0  0  0  0
  191.7310  174.2320  142.3240 C   0  0  0  0  0  3  0  0  0  0  0  0
  197.3490  171.7700  143.8560 C   0  0  0  0  0  2  0  0  0  0  0  0
  193.7850  174.6530  143.5560 C   0  0  0  0  0  0  0  0  0  0  0  0
  193.4370  176.0150  143.6370 C   0  0  0  0  0  0  0  0  0  0  0  0
  192.5270  171.5520  143.9560 C   0  0  0  0  0  2  0  0  0  0  0  0
  196.4210  173.5360  142.2690 N   0  0  0  0  0  2  0  0  0  0  0  0
  197.0680  171.4470  141.4910 O   0  0  0  0  0  0  0  0  0  0  0  0
  194.2700  176.9220  144.2880 O   0  0  0  0  0  1  0  0  0  0  0  0
  194.5650  169.8370  146.1990 C   0  0  0  0  0  2  0  0  0  0  0  0
  195.7160  169.0900  146.5500 O   0  0  0  0  0  0  0  0  0  0  0  0
  196.9360  172.2180  142.4810 C   0  0  0  0  0  0  0  0  0  0  0  0
  1 31  1  0  0  0  0
  2  1  1  0  0  0  0
  3  2  2  0  0  0  0
  5  4  1  6  0  0  0
  5  2  1  0  0  0  0
  5  6  1  0  0  0  0
  6  8  1  0  0  0  0
  7 11  2  0  0  0  0
  8 10  1  0  0  0  0
  9  8  2  0  0  0  0
 10 11  1  0  0  0  0
 12 16  2  0  0  0  0
 15 22  1  0  0  0  0
 15 14  1  1  0  0  0
 16 20  1  0  0  0  0
 18 15  1  0  0  0  0
 18 13  1  1  0  0  0
 19 11  1  6  0  0  0
 19 21  1  0  0  0  0
 19 16  1  0  0  0  0
 20 15  1  0  0  0  0
 21 17  1  6  0  0  0
 21 18  1  0  0  0  0
 22 23  1  0  0  0  0
 24 28  1  0  0  0  0
 25 27  1  6  0  0  0
 25 30  1  0  0  0  0
 26 30  1  0  0  0  0
 28 25  1  0  0  0  0
 29 26  1  0  0  0  0
 29 24  1  0  0  0  0
 30 23  1  6  0  0  0
 31 32  1  0  0  0  0
 32 33  1  0  0  0  0
 34 55  1  0  0  0  0
 35 36  1  0  0  0  0
 37 42  1  6  0  0  0
 37 54  1  0  0  0  0
 38 47  1  0  0  0  0
 38 39  1  0  0  0  0
 39 42  1  6  0  0  0
 39 34  1  0  0  0  0
 40 49  1  0  0  0  0
 41 40  2  0  0  0  0
 43 48  1  0  0  0  0
 44 37  1  0  0  0  0
 45 33  1  6  0  0  0
 45 43  1  0  0  0  0
 45 50  1  0  0  0  0
 46 41  1  0  0  0  0
 46 43  2  0  0  0  0
 48 49  2  0  0  0  0
 48 36  1  0  0  0  0
 49 53  1  0  0  0  0
 50 44  1  0  0  0  0
 51 56  1  0  0  0  0
 51 35  1  0  0  0  0
 52 56  2  0  0  0  0
 54 55  1  0  0  0  0
 56 47  1  0  0  0  0
M  END
>  <MODEL>
6

>  <REMARK>
 VINA RESULT:      -7.4      2.556      9.651
  Name = 
  11 active torsions:
  status: ('A' for Active; 'I' for Inactive)
    1  A    between atoms: N_1  and  C_24
    2  A    between atoms: C_8  and  C_30
    3  A    between atoms: C_10  and  C_35
    4  A    between atoms: C_20  and  C_49
    5  A    between atoms: C_24  and  C_51
    6  A    between atoms: C_25  and  O_39
    7  A    between atoms: C_30  and  C_35
    8  A    between atoms: O_39  and  C_51
    9  A    between atoms: C_40  and  C_50
   10  A    between atoms: C_46  and  O_54
   11  A    between atoms: C_49  and  O_54
                            x       y       z     vdW  Elec       q    Type
                         _______ _______ _______ _____ _____    ______ ____

>  <TORSDO>
F 11

$$$$
=
 OpenBabel11042419363D

 56 60  0  0  1  0  0  0  0  0999 V2000
  194.8490  175.3120  141.7660 N   0  0  0  0  0  2  0  0  0  0  0  0
  195.9560  175.1190  142.6480 C   0  0  0  0  0  0  0  0  0  0  0  0
  197.1180  174.9600  142.1870 O   0  0  0  0  0  0  0  0  0  0  0  0
  196.8710  174.5410  144.8890 C   0  0  0  0  0  1  0  0  0  0  0  0
  195.7240  175.1830  144.1230 C   0  0  1  0  0  3  0  0  0  0  0  0
  195.5340  176.6240  144.5600 C   0  0  0  0  0  2  0  0  0  0  0  0
  191.6640  176.3860  146.5260 O   0  0  0  0  0  0  0  0  0  0  0  0
  194.2600  176.7730  145.3140 C   0  0  0  0  0  0  0  0  0  0  0  0
  194.2960  177.0650  146.5370 O   0  0  0  0  0  0  0  0  0  0  0  0
  193.0140  176.6250  144.6310 N   0  0  0  0  0  2  0  0  0  0  0  0
  191.7410  176.5090  145.2720 C   0  0  0  0  0  0  0  0  0  0  0  0
  190.8900  178.7850  143.8840 O   0  0  0  0  0  0  0  0  0  0  0  0
  188.4530  174.1590  142.6200 F   0  0  0  0  0  0  0  0  0  0  0  0
  187.7330  176.7060  141.2950 O   0  0  0  0  0  1  0  0  0  0  0  0
  188.3870  176.5850  142.5180 C   0  0  1  0  0  0  0  0  0  0  0  0
  190.2370  177.7320  143.6630 C   0  0  0  0  0  0  0  0  0  0  0  0
  191.5980  175.1220  142.7230 O   0  0  0  0  0  1  0  0  0  0  0  0
  189.2350  175.2940  142.4930 C   0  0  1  0  0  3  0  0  0  0  0  0
  190.5030  176.4630  144.4180 C   0  0  1  0  0  3  0  0  0  0  0  0
  189.2220  177.7320  142.7100 O   0  0  0  0  0  0  0  0  0  0  0  0
  190.4260  175.2460  143.4710 C   0  0  2  0  0  3  0  0  0  0  0  0
  187.3450  176.5130  143.6360 C   0  0  0  0  0  2  0  0  0  0  0  0
  186.1470  177.0990  143.2230 O   0  0  0  0  0  0  0  0  0  0  0  0
  184.3140  177.9460  146.7130 O   0  0  0  0  0  0  0  0  0  0  0  0
  184.6580  178.6430  144.3800 C   0  0  2  0  0  3  0  0  0  0  0  0
  186.3140  177.1490  145.6270 C   0  0  0  0  0  2  0  0  0  0  0  0
  185.5670  179.7910  143.9590 C   0  0  0  0  0  1  0  0  0  0  0  0
  184.0660  178.9650  145.7640 C   0  0  0  0  0  2  0  0  0  0  0  0
  185.7100  177.8570  146.8460 C   0  0  0  0  0  2  0  0  0  0  0  0
  185.4140  177.2990  144.3960 C   0  0  2  0  0  3  0  0  0  0  0  0
  194.9930  175.3450  140.3170 C   0  0  0  0  0  2  0  0  0  0  0  0
  194.4840  174.0550  139.7040 C   0  0  0  0  0  2  0  0  0  0  0  0
  193.3840  173.5860  140.4280 O   0  0  0  0  0  0  0  0  0  0  0  0
  195.7160  168.9770  144.0480 C   0  0  0  0  0  2  0  0  0  0  0  0
  190.8170  169.8180  141.6850 C   0  0  0  0  0  2  0  0  0  0  0  0
  191.9320  169.6600  140.6650 C   0  0  0  0  0  2  0  0  0  0  0  0
  195.4900  170.7850  142.0350 C   0  0  1  0  0  3  0  0  0  0  0  0
  193.7740  170.2360  144.9640 N   0  0  0  0  0  2  0  0  0  0  0  0
  195.1570  170.3330  144.4910 C   0  0  2  0  0  3  0  0  0  0  0  0
  190.5510  170.8900  137.3480 C   0  0  0  0  0  3  0  0  0  0  0  0
  191.2450  172.0870  137.1720 C   0  0  0  0  0  3  0  0  0  0  0  0
  195.3470  171.4190  143.4200 C   0  0  0  0  0  2  0  0  0  0  0  0
  192.3910  171.7400  139.2880 C   0  0  0  0  0  0  0  0  0  0  0  0
  195.8030  171.8410  140.9880 C   0  0  0  0  0  2  0  0  0  0  0  0
  193.4180  172.1930  140.2850 C   0  0  1  0  0  3  0  0  0  0  0  0
  192.1640  172.5060  138.1350 C   0  0  0  0  0  3  0  0  0  0  0  0
  192.8630  169.9250  143.8640 C   0  0  0  0  0  2  0  0  0  0  0  0
  191.6930  170.5230  139.4610 C   0  0  0  0  0  0  0  0  0  0  0  0
  190.7710  170.1070  138.4820 C   0  0  0  0  0  0  0  0  0  0  0  0
  194.8090  171.7490  139.8400 C   0  0  0  0  0  2  0  0  0  0  0  0
  191.0150  171.0150  142.4870 N   0  0  0  0  0  2  0  0  0  0  0  0
  192.0710  172.1690  144.2020 O   0  0  0  0  0  0  0  0  0  0  0  0
  190.0670  168.9150  138.6310 O   0  0  0  0  0  1  0  0  0  0  0  0
  196.5390  169.6580  142.0220 C   0  0  0  0  0  2  0  0  0  0  0  0
  196.8940  169.1830  143.3080 O   0  0  0  0  0  0  0  0  0  0  0  0
  191.9850  171.1010  143.5340 C   0  0  0  0  0  0  0  0  0  0  0  0
  1  2  1  0  0  0  0
  2  5  1  0  0  0  0
  3  2  2  0  0  0  0
  5  6  1  0  0  0  0
  5  4  1  1  0  0  0
  6  8  1  0  0  0  0
  8  9  2  0  0  0  0
 10 11  1  0  0  0  0
 10  8  1  0  0  0  0
 11  7  2  0  0  0  0
 15 14  1  6  0  0  0
 15 20  1  0  0  0  0
 15 22  1  0  0  0  0
 16 12  2  0  0  0  0
 16 19  1  0  0  0  0
 18 15  1  0  0  0  0
 18 13  1  1  0  0  0
 18 21  1  0  0  0  0
 19 11  1  6  0  0  0
 20 16  1  0  0  0  0
 21 17  1  6  0  0  0
 21 19  1  0  0  0  0
 23 22  1  0  0  0  0
 24 29  1  0  0  0  0
 25 27  1  1  0  0  0
 25 30  1  0  0  0  0
 25 28  1  0  0  0  0
 26 29  1  0  0  0  0
 28 24  1  0  0  0  0
 30 23  1  6  0  0  0
 30 26  1  0  0  0  0
 31  1  1  0  0  0  0
 32 31  1  0  0  0  0
 32 33  1  0  0  0  0
 34 39  1  0  0  0  0
 35 51  1  0  0  0  0
 36 35  1  0  0  0  0
 37 44  1  6  0  0  0
 37 42  1  0  0  0  0
 39 42  1  6  0  0  0
 39 38  1  0  0  0  0
 40 49  1  0  0  0  0
 41 40  2  0  0  0  0
 41 46  1  0  0  0  0
 43 48  1  0  0  0  0
 43 45  1  0  0  0  0
 45 33  1  6  0  0  0
 46 43  2  0  0  0  0
 47 38  1  0  0  0  0
 48 36  1  0  0  0  0
 49 53  1  0  0  0  0
 49 48  2  0  0  0  0
 50 45  1  0  0  0  0
 50 44  1  0  0  0  0
 51 56  1  0  0  0  0
 54 37  1  0  0  0  0
 54 55  1  0  0  0  0
 55 34  1  0  0  0  0
 56 47  1  0  0  0  0
 56 52  2  0  0  0  0
M  END
>  <MODEL>
7

>  <REMARK>
 VINA RESULT:      -7.4      2.441      8.413
  Name = 
  11 active torsions:
  status: ('A' for Active; 'I' for Inactive)
    1  A    between atoms: N_1  and  C_24
    2  A    between atoms: C_8  and  C_30
    3  A    between atoms: C_10  and  C_35
    4  A    between atoms: C_20  and  C_49
    5  A    between atoms: C_24  and  C_51
    6  A    between atoms: C_25  and  O_39
    7  A    between atoms: C_30  and  C_35
    8  A    between atoms: O_39  and  C_51
    9  A    between atoms: C_40  and  C_50
   10  A    between atoms: C_46  and  O_54
   11  A    between atoms: C_49  and  O_54
                            x       y       z     vdW  Elec       q    Type
                         _______ _______ _______ _____ _____    ______ ____

>  <TORSDO>
F 11

$$$$
=
 OpenBabel11042419363D

 56 60  0  0  1  0  0  0  0  0999 V2000
  192.5440  173.3400  138.6140 N   0  0  0  0  0  2  0  0  0  0  0  0
  191.3760  173.7520  137.9040 C   0  0  0  0  0  0  0  0  0  0  0  0
  191.4420  174.6740  137.0470 O   0  0  0  0  0  0  0  0  0  0  0  0
  190.2980  171.5180  138.1030 C   0  0  0  0  0  1  0  0  0  0  0  0
  190.0920  173.0250  138.1410 C   0  0  1  0  0  3  0  0  0  0  0  0
  189.4890  173.4460  139.4690 C   0  0  0  0  0  2  0  0  0  0  0  0
  186.7590  176.8010  139.0500 O   0  0  0  0  0  0  0  0  0  0  0  0
  188.3890  174.4230  139.2530 C   0  0  0  0  0  0  0  0  0  0  0  0
  187.8180  174.4730  138.1330 O   0  0  0  0  0  0  0  0  0  0  0  0
  187.9670  175.2620  140.3300 N   0  0  0  0  0  2  0  0  0  0  0  0
  187.0980  176.3890  140.1940 C   0  0  0  0  0  0  0  0  0  0  0  0
  188.6750  178.4330  141.2720 O   0  0  0  0  0  0  0  0  0  0  0  0
  183.7150  177.9180  143.2890 F   0  0  0  0  0  0  0  0  0  0  0  0
  185.5780  180.0030  144.2630 O   0  0  0  0  0  1  0  0  0  0  0  0
  185.9410  178.8440  143.5810 C   0  0  1  0  0  0  0  0  0  0  0  0
  187.5610  178.2490  141.8280 C   0  0  0  0  0  0  0  0  0  0  0  0
  184.9070  178.2980  140.2460 O   0  0  0  0  0  1  0  0  0  0  0  0
  184.7950  178.4630  142.6180 C   0  0  1  0  0  3  0  0  0  0  0  0
  186.6580  177.1170  141.4350 C   0  0  1  0  0  3  0  0  0  0  0  0
  187.1490  179.0960  142.8530 O   0  0  0  0  0  0  0  0  0  0  0  0
  185.1860  177.5840  141.4130 C   0  0  2  0  0  3  0  0  0  0  0  0
  186.1760  177.7220  144.5950 C   0  0  0  0  0  2  0  0  0  0  0  0
  187.3840  177.9180  145.2670 O   0  0  0  0  0  0  0  0  0  0  0  0
  189.3030  174.4020  145.7280 O   0  0  0  0  0  0  0  0  0  0  0  0
  188.4830  176.4290  146.8530 C   0  0  2  0  0  3  0  0  0  0  0  0
  188.9620  176.3470  144.3440 C   0  0  0  0  0  2  0  0  0  0  0  0
  189.3750  177.5880  147.2790 C   0  0  0  0  0  1  0  0  0  0  0  0
  189.2920  175.1230  146.9450 C   0  0  0  0  0  2  0  0  0  0  0  0
  189.9220  175.2320  144.7790 C   0  0  0  0  0  2  0  0  0  0  0  0
  187.9230  176.6390  145.4320 C   0  0  2  0  0  3  0  0  0  0  0  0
  193.8540  173.9380  138.3900 C   0  0  0  0  0  2  0  0  0  0  0  0
  194.6890  173.8720  139.6540 C   0  0  0  0  0  2  0  0  0  0  0  0
  195.3590  172.6470  139.7180 O   0  0  0  0  0  0  0  0  0  0  0  0
  195.9320  174.4950  145.7210 C   0  0  0  0  0  2  0  0  0  0  0  0
  191.6710  172.8030  142.6750 C   0  0  0  0  0  2  0  0  0  0  0  0
  192.7270  171.7220  142.8460 C   0  0  0  0  0  2  0  0  0  0  0  0
  196.3880  173.1680  143.3960 C   0  0  1  0  0  3  0  0  0  0  0  0
  194.4500  175.8710  144.2710 N   0  0  0  0  0  2  0  0  0  0  0  0
  195.8120  175.3720  144.4710 C   0  0  2  0  0  3  0  0  0  0  0  0
  191.9660  169.0450  140.2620 C   0  0  0  0  0  3  0  0  0  0  0  0
  193.0120  169.2140  139.3560 C   0  0  0  0  0  3  0  0  0  0  0  0
  196.3880  174.6880  143.2220 C   0  0  0  0  0  2  0  0  0  0  0  0
  193.8860  171.0440  140.6950 C   0  0  0  0  0  0  0  0  0  0  0  0
  197.0690  172.4900  142.2200 C   0  0  0  0  0  2  0  0  0  0  0  0
  194.9560  172.0720  140.9290 C   0  0  1  0  0  3  0  0  0  0  0  0
  193.9690  170.2050  139.5750 C   0  0  0  0  0  3  0  0  0  0  0  0
  193.5400  174.7830  143.9140 C   0  0  0  0  0  2  0  0  0  0  0  0
  192.8310  170.8660  141.6190 C   0  0  0  0  0  0  0  0  0  0  0  0
  191.8720  169.8610  141.3900 C   0  0  0  0  0  0  0  0  0  0  0  0
  196.1530  171.4300  141.6250 C   0  0  0  0  0  2  0  0  0  0  0  0
  192.2020  173.9270  141.9200 N   0  0  0  0  0  2  0  0  0  0  0  0
  193.4860  175.8540  141.7630 O   0  0  0  0  0  0  0  0  0  0  0  0
  190.8200  169.6690  142.2820 O   0  0  0  0  0  1  0  0  0  0  0  0
  197.0250  172.7410  144.7310 C   0  0  0  0  0  2  0  0  0  0  0  0
  197.1480  173.7900  145.6750 O   0  0  0  0  0  0  0  0  0  0  0  0
  193.0970  174.8910  142.4800 C   0  0  0  0  0  0  0  0  0  0  0  0
  2  5  1  0  0  0  0
  2  1  1  0  0  0  0
  3  2  2  0  0  0  0
  5  4  1  1  0  0  0
  5  6  1  0  0  0  0
  7 11  2  0  0  0  0
  8  6  1  0  0  0  0
  8 10  1  0  0  0  0
  9  8  2  0  0  0  0
 11 10  1  0  0  0  0
 12 16  2  0  0  0  0
 15 14  1  1  0  0  0
 15 22  1  0  0  0  0
 16 20  1  0  0  0  0
 18 13  1  1  0  0  0
 18 15  1  0  0  0  0
 19 11  1  6  0  0  0
 19 16  1  0  0  0  0
 20 15  1  0  0  0  0
 21 17  1  6  0  0  0
 21 19  1  0  0  0  0
 21 18  1  0  0  0  0
 22 23  1  0  0  0  0
 24 28  1  0  0  0  0
 25 28  1  0  0  0  0
 25 27  1  6  0  0  0
 26 29  1  0  0  0  0
 26 30  1  0  0  0  0
 29 24  1  0  0  0  0
 30 23  1  1  0  0  0
 30 25  1  0  0  0  0
 31  1  1  0  0  0  0
 31 32  1  0  0  0  0
 32 33  1  0  0  0  0
 35 36  1  0  0  0  0
 37 44  1  6  0  0  0
 37 54  1  0  0  0  0
 38 39  1  0  0  0  0
 39 42  1  6  0  0  0
 39 34  1  0  0  0  0
 40 49  1  0  0  0  0
 41 46  1  0  0  0  0
 41 40  2  0  0  0  0
 42 37  1  0  0  0  0
 43 45  1  0  0  0  0
 43 48  1  0  0  0  0
 45 33  1  6  0  0  0
 45 50  1  0  0  0  0
 46 43  2  0  0  0  0
 47 38  1  0  0  0  0
 48 36  1  0  0  0  0
 49 48  2  0  0  0  0
 49 53  1  0  0  0  0
 50 44  1  0  0  0  0
 51 56  1  0  0  0  0
 51 35  1  0  0  0  0
 52 56  2  0  0  0  0
 54 55  1  0  0  0  0
 55 34  1  0  0  0  0
 56 47  1  0  0  0  0
M  END
>  <MODEL>
8

>  <REMARK>
 VINA RESULT:      -7.3      2.585      9.338
  Name = 
  11 active torsions:
  status: ('A' for Active; 'I' for Inactive)
    1  A    between atoms: N_1  and  C_24
    2  A    between atoms: C_8  and  C_30
    3  A    between atoms: C_10  and  C_35
    4  A    between atoms: C_20  and  C_49
    5  A    between atoms: C_24  and  C_51
    6  A    between atoms: C_25  and  O_39
    7  A    between atoms: C_30  and  C_35
    8  A    between atoms: O_39  and  C_51
    9  A    between atoms: C_40  and  C_50
   10  A    between atoms: C_46  and  O_54
   11  A    between atoms: C_49  and  O_54
                            x       y       z     vdW  Elec       q    Type
                         _______ _______ _______ _____ _____    ______ ____

>  <TORSDO>
F 11

$$$$
=
 OpenBabel11042419363D

 56 60  0  0  1  0  0  0  0  0999 V2000
  192.7350  170.0070  143.3760 N   0  0  0  0  0  2  0  0  0  0  0  0
  193.5880  169.4620  144.3830 C   0  0  0  0  0  0  0  0  0  0  0  0
  193.7690  168.2160  144.4610 O   0  0  0  0  0  0  0  0  0  0  0  0
  194.9130  169.6520  146.4810 C   0  0  0  0  0  1  0  0  0  0  0  0
  194.3170  170.3950  145.2940 C   0  0  1  0  0  3  0  0  0  0  0  0
  195.4020  171.1320  144.5290 C   0  0  0  0  0  2  0  0  0  0  0  0
  195.0550  175.1080  146.2510 O   0  0  0  0  0  0  0  0  0  0  0  0
  195.4570  172.5570  144.9510 C   0  0  0  0  0  0  0  0  0  0  0  0
  196.5600  173.0590  145.2890 O   0  0  0  0  0  0  0  0  0  0  0  0
  194.2670  173.3470  144.9290 N   0  0  0  0  0  2  0  0  0  0  0  0
  194.1350  174.6410  145.5240 C   0  0  0  0  0  0  0  0  0  0  0  0
  192.3150  174.9100  147.6320 O   0  0  0  0  0  0  0  0  0  0  0  0
  191.4100  177.9460  143.2840 F   0  0  0  0  0  0  0  0  0  0  0  0
  189.6290  178.0470  145.6460 O   0  0  0  0  0  1  0  0  0  0  0  0
  190.5030  177.0090  145.3330 C   0  0  1  0  0  0  0  0  0  0  0  0
  192.0310  175.5380  146.5790 C   0  0  0  0  0  0  0  0  0  0  0  0
  193.9980  177.5320  145.2750 O   0  0  0  0  0  1  0  0  0  0  0  0
  191.7190  177.6020  144.5880 C   0  0  1  0  0  3  0  0  0  0  0  0
  192.8500  175.3990  145.3290 C   0  0  1  0  0  3  0  0  0  0  0  0
  190.9170  176.3720  146.5470 O   0  0  0  0  0  0  0  0  0  0  0  0
  193.0160  176.7700  144.6390 C   0  0  2  0  0  3  0  0  0  0  0  0
  189.7780  175.9980  144.4420 C   0  0  0  0  0  2  0  0  0  0  0  0
  188.3960  176.1840  144.5200 O   0  0  0  0  0  0  0  0  0  0  0  0
  187.1160  178.1790  141.2580 O   0  0  0  0  0  0  0  0  0  0  0  0
  186.9150  177.9350  143.6980 C   0  0  2  0  0  3  0  0  0  0  0  0
  187.7760  176.0570  142.1940 C   0  0  0  0  0  2  0  0  0  0  0  0
  185.7520  177.2380  144.3920 C   0  0  0  0  0  1  0  0  0  0  0  0
  186.3970  178.5910  142.4050 C   0  0  0  0  0  2  0  0  0  0  0  0
  186.9270  176.7910  141.1480 C   0  0  0  0  0  2  0  0  0  0  0  0
  188.0670  176.9540  143.4020 C   0  0  2  0  0  3  0  0  0  0  0  0
  192.0460  169.1790  142.3950 C   0  0  0  0  0  2  0  0  0  0  0  0
  191.9320  169.9090  141.0710 C   0  0  0  0  0  2  0  0  0  0  0  0
  193.2020  170.0910  140.5170 O   0  0  0  0  0  0  0  0  0  0  0  0
  188.7940  173.6290  137.7190 C   0  0  0  0  0  2  0  0  0  0  0  0
  192.1160  174.4380  142.0320 C   0  0  0  0  0  2  0  0  0  0  0  0
  192.8850  174.2660  140.7330 C   0  0  0  0  0  2  0  0  0  0  0  0
  190.9720  172.0420  138.0510 C   0  0  1  0  0  3  0  0  0  0  0  0
  188.3860  173.0190  140.0960 N   0  0  0  0  0  2  0  0  0  0  0  0
  188.5940  172.5060  138.7400 C   0  0  2  0  0  3  0  0  0  0  0  0
  196.5040  173.6280  141.6920 C   0  0  0  0  0  3  0  0  0  0  0  0
  196.6540  172.2790  141.3710 C   0  0  0  0  0  3  0  0  0  0  0  0
  189.7040  171.4460  138.6670 C   0  0  0  0  0  2  0  0  0  0  0  0
  194.3360  172.1870  140.6450 C   0  0  0  0  0  0  0  0  0  0  0  0
  192.0330  170.9710  137.8590 C   0  0  0  0  0  2  0  0  0  0  0  0
  193.2070  171.4060  140.0350 C   0  0  1  0  0  3  0  0  0  0  0  0
  195.5770  171.5650  140.8450 C   0  0  0  0  0  3  0  0  0  0  0  0
  189.6060  173.6310  140.6190 C   0  0  0  0  0  2  0  0  0  0  0  0
  194.1870  173.5570  140.9630 C   0  0  0  0  0  0  0  0  0  0  0  0
  195.2820  174.2690  141.4900 C   0  0  0  0  0  0  0  0  0  0  0  0
  193.3360  171.4030  138.5140 C   0  0  0  0  0  2  0  0  0  0  0  0
  191.4050  173.2170  142.3770 N   0  0  0  0  0  2  0  0  0  0  0  0
  189.6340  171.7420  142.1030 O   0  0  0  0  0  0  0  0  0  0  0  0
  195.1590  175.6170  141.8160 O   0  0  0  0  0  1  0  0  0  0  0  0
  190.6810  172.7820  136.7330 C   0  0  0  0  0  2  0  0  0  0  0  0
  189.3120  173.0840  136.5300 O   0  0  0  0  0  0  0  0  0  0  0  0
  190.2040  172.8010  141.7210 C   0  0  0  0  0  0  0  0  0  0  0  0
  1  2  1  0  0  0  0
  2  3  2  0  0  0  0
  2  5  1  0  0  0  0
  5  4  1  1  0  0  0
  6  8  1  0  0  0  0
  6  5  1  0  0  0  0
  8  9  2  0  0  0  0
 10  8  1  0  0  0  0
 10 11  1  0  0  0  0
 11  7  2  0  0  0  0
 15 14  1  1  0  0  0
 15 20  1  0  0  0  0
 16 12  2  0  0  0  0
 18 13  1  6  0  0  0
 18 21  1  0  0  0  0
 18 15  1  0  0  0  0
 19 11  1  1  0  0  0
 19 16  1  0  0  0  0
 20 16  1  0  0  0  0
 21 17  1  1  0  0  0
 21 19  1  0  0  0  0
 22 23  1  0  0  0  0
 22 15  1  0  0  0  0
 24 28  1  0  0  0  0
 25 27  1  6  0  0  0
 26 30  1  0  0  0  0
 28 25  1  0  0  0  0
 29 24  1  0  0  0  0
 29 26  1  0  0  0  0
 30 25  1  0  0  0  0
 30 23  1  1  0  0  0
 31  1  1  0  0  0  0
 32 31  1  0  0  0  0
 33 32  1  0  0  0  0
 35 51  1  0  0  0  0
 36 48  1  0  0  0  0
 36 35  1  0  0  0  0
 37 54  1  6  0  0  0
 37 42  1  0  0  0  0
 38 47  1  0  0  0  0
 39 34  1  6  0  0  0
 39 38  1  0  0  0  0
 41 40  2  0  0  0  0
 42 39  1  0  0  0  0
 43 46  2  0  0  0  0
 43 48  1  0  0  0  0
 44 37  1  0  0  0  0
 44 50  1  0  0  0  0
 45 33  1  1  0  0  0
 45 43  1  0  0  0  0
 46 41  1  0  0  0  0
 47 56  1  0  0  0  0
 48 49  2  0  0  0  0
 49 40  1  0  0  0  0
 49 53  1  0  0  0  0
 50 45  1  0  0  0  0
 55 54  1  0  0  0  0
 55 34  1  0  0  0  0
 56 52  2  0  0  0  0
 56 51  1  0  0  0  0
M  END
>  <MODEL>
9

>  <REMARK>
 VINA RESULT:      -7.3      2.360      7.486
  Name = 
  11 active torsions:
  status: ('A' for Active; 'I' for Inactive)
    1  A    between atoms: N_1  and  C_24
    2  A    between atoms: C_8  and  C_30
    3  A    between atoms: C_10  and  C_35
    4  A    between atoms: C_20  and  C_49
    5  A    between atoms: C_24  and  C_51
    6  A    between atoms: C_25  and  O_39
    7  A    between atoms: C_30  and  C_35
    8  A    between atoms: O_39  and  C_51
    9  A    between atoms: C_40  and  C_50
   10  A    between atoms: C_46  and  O_54
   11  A    between atoms: C_49  and  O_54
                            x       y       z     vdW  Elec       q    Type
                         _______ _______ _______ _____ _____    ______ ____

>  <TORSDO>
F 11

$$$$
