=
 OpenBabel11042419333D

 32 38  0  0  1  0  0  0  0  0999 V2000
  190.2340  174.5710  142.3310 C   0  0  0  0  0  0  0  0  0  0  0  0
  192.5520  174.9370  143.9520 C   0  0  0  0  0  0  0  0  0  0  0  0
  189.5860  177.4320  147.1450 C   0  0  0  0  0  2  0  0  0  0  0  0
  186.3880  177.2640  145.3960 N   0  0  0  0  0  2  0  0  0  0  0  0
  184.9660  178.6400  147.2950 N   0  0  0  0  0  0  0  0  0  0  0  0
  189.9260  176.6770  145.9080 C   0  0  0  0  0  0  0  0  0  0  0  0
  191.4730  174.0140  141.9830 O   0  0  0  0  0  0  0  0  0  0  0  0
  193.5600  174.9570  144.7670 N   0  0  0  0  0  0  0  0  0  0  0  0
  188.1520  177.6890  146.9710 N   0  0  0  0  0  0  0  0  0  0  0  0
  190.1230  175.3080  143.5260 C   0  0  0  0  0  0  0  0  0  0  0  0
  184.0840  178.3190  146.3070 C   0  0  0  0  0  2  0  0  0  0  0  0
  185.3740  177.9210  146.1520 C   0  0  0  0  0  0  0  0  0  0  0  0
  187.8580  174.9070  141.9400 C   0  0  0  0  0  3  0  0  0  0  0  0
  192.7140  174.4600  142.5350 C   0  0  0  0  0  2  0  0  0  0  0  0
  188.8720  175.8350  143.9220 C   0  0  0  0  0  0  0  0  0  0  0  0
  189.0870  174.3650  141.5220 C   0  0  0  0  0  0  0  0  0  0  0  0
  191.1310  176.1660  145.5470 N   0  0  0  0  0  0  0  0  0  0  0  0
  187.7470  175.6340  143.1250 C   0  0  0  0  0  3  0  0  0  0  0  0
  191.2520  175.4870  144.3650 C   0  0  0  0  0  0  0  0  0  0  0  0
  188.8150  176.5290  145.1310 C   0  0  0  0  0  0  0  0  0  0  0  0
  187.7400  177.1800  145.8490 C   0  0  0  0  0  0  0  0  0  0  0  0
  189.1300  173.6030  140.2410 C   0  0  0  0  0  0  0  0  0  0  0  0
  189.6810  172.3120  140.1720 C   0  0  0  0  0  3  0  0  0  0  0  0
  189.2300  172.2070  137.7970 C   0  0  0  0  0  3  0  0  0  0  0  0
  188.6390  174.1860  139.0590 C   0  0  0  0  0  3  0  0  0  0  0  0
  189.7280  171.6170  138.9610 C   0  0  0  0  0  3  0  0  0  0  0  0
  188.6850  173.4920  137.8460 C   0  0  0  0  0  3  0  0  0  0  0  0
  194.8010  174.4940  144.3930 O   0  0  0  0  0  0  0  0  0  0  0  0
  197.1940  176.7750  143.0730 C   0  0  0  0  0  1  0  0  0  0  0  0
  196.4440  175.5330  143.0700 N   0  0  0  0  0  0  0  0  0  0  0  0
  195.9220  175.3580  144.4330 C   0  0  2  0  0  3  0  0  0  0  0  0
  197.1150  174.6330  144.0170 C   0  0  0  0  0  2  0  0  0  0  0  0
  1 10  1  0  0  0  0
  2 19  1  0  0  0  0
  2  8  2  0  0  0  0
  4 21  1  0  0  0  0
  4 12  1  0  0  0  0
  6  3  1  0  0  0  0
  7  1  1  0  0  0  0
  7 14  1  0  0  0  0
  9  3  1  0  0  0  0
 10 15  2  0  0  0  0
 10 19  1  0  0  0  0
 11  5  1  0  0  0  0
 12 11  1  0  0  0  0
 12  5  2  0  0  0  0
 13 18  2  0  0  0  0
 14  2  1  0  0  0  0
 15 20  1  0  0  0  0
 16 13  1  0  0  0  0
 16  1  2  0  0  0  0
 17  6  1  0  0  0  0
 18 15  1  0  0  0  0
 19 17  2  0  0  0  0
 20 21  1  0  0  0  0
 20  6  2  0  0  0  0
 21  9  2  0  0  0  0
 22 16  1  0  0  0  0
 23 22  1  0  0  0  0
 24 27  2  0  0  0  0
 24 26  1  0  0  0  0
 25 22  2  0  0  0  0
 26 23  2  0  0  0  0
 27 25  1  0  0  0  0
 28  8  1  0  0  0  0
 30 29  1  0  0  0  0
 30 32  1  0  0  0  0
 30 31  1  0  0  0  0
 31 28  1  6  0  0  0
 32 31  1  0  0  0  0
M  END
>  <MODEL>
1

>  <REMARK>
 VINA RESULT:      -7.7      0.000      0.000
  Name = 
  3 active torsions:
  status: ('A' for Active; 'I' for Inactive)
    1  A    between atoms: C_3  and  C_21
    2  A    between atoms: O_8  and  N_11
    3  A    between atoms: O_8  and  C_28
                            x       y       z     vdW  Elec       q    Type
                         _______ _______ _______ _____ _____    ______ ____

>  <TORSDO>
F 3

$$$$
=
 OpenBabel11042419333D

 32 38  0  0  1  0  0  0  0  0999 V2000
  191.4940  174.2540  143.6190 C   0  0  0  0  0  0  0  0  0  0  0  0
  190.2580  173.7840  141.0920 C   0  0  0  0  0  0  0  0  0  0  0  0
  186.3420  176.4020  142.8320 C   0  0  0  0  0  2  0  0  0  0  0  0
  187.4880  177.2060  146.2020 N   0  0  0  0  0  2  0  0  0  0  0  0
  185.2490  178.6150  146.9230 N   0  0  0  0  0  0  0  0  0  0  0  0
  187.6830  175.7580  142.8860 C   0  0  0  0  0  0  0  0  0  0  0  0
  192.1570  173.5710  142.5890 O   0  0  0  0  0  0  0  0  0  0  0  0
  189.7680  173.7190  139.8940 N   0  0  0  0  0  0  0  0  0  0  0  0
  186.2280  177.0020  144.1670 N   0  0  0  0  0  0  0  0  0  0  0  0
  190.1940  174.7450  143.3920 C   0  0  0  0  0  0  0  0  0  0  0  0
  186.0840  178.6390  147.9990 C   0  0  0  0  0  2  0  0  0  0  0  0
  186.5050  177.9760  146.8900 C   0  0  0  0  0  0  0  0  0  0  0  0
  191.4380  175.2240  145.8480 C   0  0  0  0  0  3  0  0  0  0  0  0
  191.4790  172.9940  141.4700 C   0  0  0  0  0  2  0  0  0  0  0  0
  189.5270  175.4810  144.3990 C   0  0  0  0  0  0  0  0  0  0  0  0
  192.1300  174.4940  144.8640 C   0  0  0  0  0  0  0  0  0  0  0  0
  188.3160  175.0650  141.9070 N   0  0  0  0  0  0  0  0  0  0  0  0
  190.1520  175.7130  145.6230 C   0  0  0  0  0  3  0  0  0  0  0  0
  189.5620  174.5490  142.1380 C   0  0  0  0  0  0  0  0  0  0  0  0
  188.2530  175.9700  144.1080 C   0  0  0  0  0  0  0  0  0  0  0  0
  187.2970  176.7540  144.8610 C   0  0  0  0  0  0  0  0  0  0  0  0
  193.5010  173.9990  145.1780 C   0  0  0  0  0  0  0  0  0  0  0  0
  193.7750  172.6270  145.3060 C   0  0  0  0  0  3  0  0  0  0  0  0
  196.0950  173.1010  145.8090 C   0  0  0  0  0  3  0  0  0  0  0  0
  194.5500  174.9140  145.3820 C   0  0  0  0  0  3  0  0  0  0  0  0
  195.0630  172.1800  145.6160 C   0  0  0  0  0  3  0  0  0  0  0  0
  195.8390  174.4690  145.6920 C   0  0  0  0  0  3  0  0  0  0  0  0
  190.3700  172.9730  138.9060 O   0  0  0  0  0  0  0  0  0  0  0  0
  189.8510  169.6170  137.8390 C   0  0  0  0  0  1  0  0  0  0  0  0
  190.6210  170.8420  137.9460 N   0  0  0  0  0  0  0  0  0  0  0  0
  189.6690  171.9050  138.2970 C   0  0  2  0  0  3  0  0  0  0  0  0
  190.1070  171.7550  136.9160 C   0  0  0  0  0  2  0  0  0  0  0  0
  1 16  1  0  0  0  0
  2 14  1  0  0  0  0
  2 19  1  0  0  0  0
  3  6  1  0  0  0  0
  3  9  1  0  0  0  0
  4 12  1  0  0  0  0
  5 11  1  0  0  0  0
  6 20  2  0  0  0  0
  7  1  1  0  0  0  0
  8  2  2  0  0  0  0
  9 21  2  0  0  0  0
 10  1  2  0  0  0  0
 10 15  1  0  0  0  0
 12  5  2  0  0  0  0
 12 11  1  0  0  0  0
 14  7  1  0  0  0  0
 15 18  2  0  0  0  0
 16 22  1  0  0  0  0
 16 13  2  0  0  0  0
 17 19  2  0  0  0  0
 17  6  1  0  0  0  0
 18 13  1  0  0  0  0
 19 10  1  0  0  0  0
 20 15  1  0  0  0  0
 20 21  1  0  0  0  0
 21  4  1  0  0  0  0
 22 23  2  0  0  0  0
 22 25  1  0  0  0  0
 23 26  1  0  0  0  0
 25 27  2  0  0  0  0
 26 24  2  0  0  0  0
 27 24  1  0  0  0  0
 28  8  1  0  0  0  0
 29 30  1  0  0  0  0
 30 31  1  0  0  0  0
 31 28  1  1  0  0  0
 32 30  1  0  0  0  0
 32 31  1  0  0  0  0
M  END
>  <MODEL>
2

>  <REMARK>
 VINA RESULT:      -7.6      2.606      6.000
  Name = 
  3 active torsions:
  status: ('A' for Active; 'I' for Inactive)
    1  A    between atoms: C_3  and  C_21
    2  A    between atoms: O_8  and  N_11
    3  A    between atoms: O_8  and  C_28
                            x       y       z     vdW  Elec       q    Type
                         _______ _______ _______ _____ _____    ______ ____

>  <TORSDO>
F 3

$$$$
=
 OpenBabel11042419333D

 32 38  0  0  1  0  0  0  0  0999 V2000
  191.4600  174.2690  143.6530 C   0  0  0  0  0  0  0  0  0  0  0  0
  190.2190  173.7360  141.1410 C   0  0  0  0  0  0  0  0  0  0  0  0
  186.3090  176.4020  142.8220 C   0  0  0  0  0  2  0  0  0  0  0  0
  187.4630  177.2910  146.1670 N   0  0  0  0  0  2  0  0  0  0  0  0
  185.2260  178.7200  146.8560 N   0  0  0  0  0  0  0  0  0  0  0  0
  187.6490  175.7580  142.8900 C   0  0  0  0  0  0  0  0  0  0  0  0
  192.1210  173.5590  142.6400 O   0  0  0  0  0  0  0  0  0  0  0  0
  189.7260  173.6410  139.9460 N   0  0  0  0  0  0  0  0  0  0  0  0
  186.1980  177.0360  144.1410 N   0  0  0  0  0  0  0  0  0  0  0  0
  190.1610  174.7560  143.4160 C   0  0  0  0  0  0  0  0  0  0  0  0
  186.0640  178.7710  147.9290 C   0  0  0  0  0  2  0  0  0  0  0  0
  186.4820  178.0800  146.8370 C   0  0  0  0  0  0  0  0  0  0  0  0
  191.4100  175.2950  145.8570 C   0  0  0  0  0  3  0  0  0  0  0  0
  191.4400  172.9540  141.5370 C   0  0  0  0  0  2  0  0  0  0  0  0
  189.4960  175.5170  144.4060 C   0  0  0  0  0  0  0  0  0  0  0  0
  192.0990  174.5400  144.8900 C   0  0  0  0  0  0  0  0  0  0  0  0
  188.2800  175.0400  141.9270 N   0  0  0  0  0  0  0  0  0  0  0  0
  190.1240  175.7810  145.6210 C   0  0  0  0  0  3  0  0  0  0  0  0
  189.5260  174.5280  142.1690 C   0  0  0  0  0  0  0  0  0  0  0  0
  188.2220  176.0010  144.1040 C   0  0  0  0  0  0  0  0  0  0  0  0
  187.2690  176.8040  144.8380 C   0  0  0  0  0  0  0  0  0  0  0  0
  193.4700  174.0510  145.2140 C   0  0  0  0  0  0  0  0  0  0  0  0
  194.5380  174.9400  145.4180 C   0  0  0  0  0  3  0  0  0  0  0  0
  196.0550  173.0910  145.7860 C   0  0  0  0  0  3  0  0  0  0  0  0
  193.7240  172.6700  145.2920 C   0  0  0  0  0  3  0  0  0  0  0  0
  195.8210  174.4650  145.7050 C   0  0  0  0  0  3  0  0  0  0  0  0
  195.0070  172.1920  145.5790 C   0  0  0  0  0  3  0  0  0  0  0  0
  190.3260  172.8690  138.9760 O   0  0  0  0  0  0  0  0  0  0  0  0
  189.7250  171.1560  135.9150 C   0  0  0  0  0  1  0  0  0  0  0  0
  190.3030  172.2160  136.7180 N   0  0  0  0  0  0  0  0  0  0  0  0
  189.5390  172.2540  137.9730 C   0  0  2  0  0  3  0  0  0  0  0  0
  189.2460  173.2160  136.9200 C   0  0  0  0  0  2  0  0  0  0  0  0
  1 16  1  0  0  0  0
  2 14  1  0  0  0  0
  2 19  1  0  0  0  0
  3  6  1  0  0  0  0
  3  9  1  0  0  0  0
  4 12  1  0  0  0  0
  5 11  1  0  0  0  0
  6 20  2  0  0  0  0
  7  1  1  0  0  0  0
  8  2  2  0  0  0  0
  9 21  2  0  0  0  0
 10  1  2  0  0  0  0
 10 15  1  0  0  0  0
 12  5  2  0  0  0  0
 12 11  1  0  0  0  0
 14  7  1  0  0  0  0
 15 18  2  0  0  0  0
 16 22  1  0  0  0  0
 16 13  2  0  0  0  0
 17 19  2  0  0  0  0
 17  6  1  0  0  0  0
 18 13  1  0  0  0  0
 19 10  1  0  0  0  0
 20 15  1  0  0  0  0
 20 21  1  0  0  0  0
 21  4  1  0  0  0  0
 22 25  2  0  0  0  0
 22 23  1  0  0  0  0
 23 26  2  0  0  0  0
 25 27  1  0  0  0  0
 26 24  1  0  0  0  0
 27 24  2  0  0  0  0
 28  8  1  0  0  0  0
 29 30  1  0  0  0  0
 30 32  1  0  0  0  0
 30 31  1  0  0  0  0
 31 28  1  1  0  0  0
 32 31  1  0  0  0  0
M  END
>  <MODEL>
3

>  <REMARK>
 VINA RESULT:      -7.5      2.659      6.088
  Name = 
  3 active torsions:
  status: ('A' for Active; 'I' for Inactive)
    1  A    between atoms: C_3  and  C_21
    2  A    between atoms: O_8  and  N_11
    3  A    between atoms: O_8  and  C_28
                            x       y       z     vdW  Elec       q    Type
                         _______ _______ _______ _____ _____    ______ ____

>  <TORSDO>
F 3

$$$$
=
 OpenBabel11042419333D

 32 38  0  0  1  0  0  0  0  0999 V2000
  190.7700  175.7060  143.1290 C   0  0  0  0  0  0  0  0  0  0  0  0
  188.4200  176.8700  142.0060 C   0  0  0  0  0  0  0  0  0  0  0  0
  188.1890  172.8420  139.0160 C   0  0  0  0  0  2  0  0  0  0  0  0
  191.1510  171.0050  140.0970 N   0  0  0  0  0  2  0  0  0  0  0  0
  190.8050  168.8950  138.3800 N   0  0  0  0  0  0  0  0  0  0  0  0
  188.7570  173.7250  140.0710 C   0  0  0  0  0  0  0  0  0  0  0  0
  190.2380  176.9090  143.6150 O   0  0  0  0  0  0  0  0  0  0  0  0
  187.2650  177.3100  141.6150 N   0  0  0  0  0  0  0  0  0  0  0  0
  189.1390  171.7230  138.9990 N   0  0  0  0  0  0  0  0  0  0  0  0
  190.1120  175.0390  142.0770 C   0  0  0  0  0  0  0  0  0  0  0  0
  191.9360  168.6320  139.0930 C   0  0  0  0  0  2  0  0  0  0  0  0
  191.2760  169.7890  139.3640 C   0  0  0  0  0  0  0  0  0  0  0  0
  192.3960  173.9000  143.2160 C   0  0  0  0  0  3  0  0  0  0  0  0
  189.3130  177.7100  142.8750 C   0  0  0  0  0  2  0  0  0  0  0  0
  190.6030  173.7990  141.6060 C   0  0  0  0  0  0  0  0  0  0  0  0
  191.9290  175.1330  143.7100 C   0  0  0  0  0  0  0  0  0  0  0  0
  188.2690  174.9080  140.5220 N   0  0  0  0  0  0  0  0  0  0  0  0
  191.7430  173.2380  142.1760 C   0  0  0  0  0  3  0  0  0  0  0  0
  188.9290  175.5800  141.5140 C   0  0  0  0  0  0  0  0  0  0  0  0
  189.8930  173.1680  140.5830 C   0  0  0  0  0  0  0  0  0  0  0  0
  190.0770  171.9200  139.8750 C   0  0  0  0  0  0  0  0  0  0  0  0
  192.6810  175.7840  144.8210 C   0  0  0  0  0  0  0  0  0  0  0  0
  192.1910  175.7870  146.1380 C   0  0  0  0  0  3  0  0  0  0  0  0
  194.1080  177.0580  146.8880 C   0  0  0  0  0  3  0  0  0  0  0  0
  193.8960  176.4410  144.5570 C   0  0  0  0  0  3  0  0  0  0  0  0
  192.9000  176.4160  147.1650 C   0  0  0  0  0  3  0  0  0  0  0  0
  194.6070  177.0710  145.5830 C   0  0  0  0  0  3  0  0  0  0  0  0
  186.7840  178.5340  142.0190 O   0  0  0  0  0  0  0  0  0  0  0  0
  184.4410  179.4160  144.5510 C   0  0  0  0  0  1  0  0  0  0  0  0
  185.6670  178.8060  144.0700 N   0  0  0  0  0  0  0  0  0  0  0  0
  185.5050  178.6300  142.6200 C   0  0  2  0  0  3  0  0  0  0  0  0
  185.2970  177.4980  143.5130 C   0  0  0  0  0  2  0  0  0  0  0  0
  1  7  1  0  0  0  0
  1 16  1  0  0  0  0
  2 14  1  0  0  0  0
  3  6  1  0  0  0  0
  5 11  1  0  0  0  0
  5 12  2  0  0  0  0
  6 17  1  0  0  0  0
  6 20  2  0  0  0  0
  8  2  2  0  0  0  0
  8 28  1  0  0  0  0
  9  3  1  0  0  0  0
  9 21  2  0  0  0  0
 10  1  2  0  0  0  0
 11 12  1  0  0  0  0
 12  4  1  0  0  0  0
 13 16  2  0  0  0  0
 14  7  1  0  0  0  0
 15 10  1  0  0  0  0
 15 18  2  0  0  0  0
 16 22  1  0  0  0  0
 17 19  2  0  0  0  0
 18 13  1  0  0  0  0
 19  2  1  0  0  0  0
 19 10  1  0  0  0  0
 20 15  1  0  0  0  0
 21  4  1  0  0  0  0
 21 20  1  0  0  0  0
 22 23  1  0  0  0  0
 23 26  2  0  0  0  0
 24 26  1  0  0  0  0
 25 22  2  0  0  0  0
 25 27  1  0  0  0  0
 27 24  2  0  0  0  0
 30 29  1  0  0  0  0
 31 28  1  6  0  0  0
 31 32  1  0  0  0  0
 31 30  1  0  0  0  0
 32 30  1  0  0  0  0
M  END
>  <MODEL>
4

>  <REMARK>
 VINA RESULT:      -7.5      3.542      8.620
  Name = 
  3 active torsions:
  status: ('A' for Active; 'I' for Inactive)
    1  A    between atoms: C_3  and  C_21
    2  A    between atoms: O_8  and  N_11
    3  A    between atoms: O_8  and  C_28
                            x       y       z     vdW  Elec       q    Type
                         _______ _______ _______ _____ _____    ______ ____

>  <TORSDO>
F 3

$$$$
=
 OpenBabel11042419333D

 32 38  0  0  1  0  0  0  0  0999 V2000
  187.8150  176.1430  143.6960 C   0  0  0  0  0  0  0  0  0  0  0  0
  187.6360  176.0140  140.8520 C   0  0  0  0  0  0  0  0  0  0  0  0
  191.6610  173.0150  141.0130 C   0  0  0  0  0  2  0  0  0  0  0  0
  192.3140  172.9240  144.6020 N   0  0  0  0  0  2  0  0  0  0  0  0
  194.4850  171.2550  144.4420 N   0  0  0  0  0  0  0  0  0  0  0  0
  190.5910  173.8900  141.5650 C   0  0  0  0  0  0  0  0  0  0  0  0
  186.7810  176.7780  142.9920 O   0  0  0  0  0  0  0  0  0  0  0  0
  187.4570  175.8160  139.5830 N   0  0  0  0  0  0  0  0  0  0  0  0
  192.3840  172.6030  142.2220 N   0  0  0  0  0  0  0  0  0  0  0  0
  188.7750  175.3990  142.9830 C   0  0  0  0  0  0  0  0  0  0  0  0
  194.3100  171.5370  145.7630 C   0  0  0  0  0  2  0  0  0  0  0  0
  193.4420  172.0970  144.8800 C   0  0  0  0  0  0  0  0  0  0  0  0
  188.9090  175.5110  145.7720 C   0  0  0  0  0  3  0  0  0  0  0  0
  186.8450  177.0570  141.5910 C   0  0  0  0  0  2  0  0  0  0  0  0
  189.7960  174.7090  143.6780 C   0  0  0  0  0  0  0  0  0  0  0  0
  187.8780  176.2040  145.1110 C   0  0  0  0  0  0  0  0  0  0  0  0
  189.6090  174.5370  140.8870 N   0  0  0  0  0  0  0  0  0  0  0  0
  189.8590  174.7710  145.0680 C   0  0  0  0  0  3  0  0  0  0  0  0
  188.7000  175.2960  141.5710 C   0  0  0  0  0  0  0  0  0  0  0  0
  190.7010  173.9620  142.9230 C   0  0  0  0  0  0  0  0  0  0  0  0
  191.8380  173.1370  143.2720 C   0  0  0  0  0  0  0  0  0  0  0  0
  186.9010  176.9770  145.9300 C   0  0  0  0  0  0  0  0  0  0  0  0
  185.5150  176.8200  145.7620 C   0  0  0  0  0  3  0  0  0  0  0  0
  185.0840  178.4820  147.4680 C   0  0  0  0  0  3  0  0  0  0  0  0
  187.3610  177.9100  146.8770 C   0  0  0  0  0  3  0  0  0  0  0  0
  184.6130  177.5650  146.5270 C   0  0  0  0  0  3  0  0  0  0  0  0
  186.4590  178.6560  147.6430 C   0  0  0  0  0  3  0  0  0  0  0  0
  186.5020  176.5080  138.8720 O   0  0  0  0  0  0  0  0  0  0  0  0
  185.6840  176.4160  135.4090 C   0  0  0  0  0  1  0  0  0  0  0  0
  185.8870  175.8120  136.7130 N   0  0  0  0  0  0  0  0  0  0  0  0
  186.6910  176.7630  137.4930 C   0  0  2  0  0  3  0  0  0  0  0  0
  187.3350  175.6160  136.8660 C   0  0  0  0  0  2  0  0  0  0  0  0
  1 16  1  0  0  0  0
  2 19  1  0  0  0  0
  2 14  1  0  0  0  0
  3  6  1  0  0  0  0
  3  9  1  0  0  0  0
  4 12  1  0  0  0  0
  5 12  2  0  0  0  0
  5 11  1  0  0  0  0
  6 20  2  0  0  0  0
  7  1  1  0  0  0  0
  8  2  2  0  0  0  0
  9 21  2  0  0  0  0
 10 15  1  0  0  0  0
 10  1  2  0  0  0  0
 12 11  1  0  0  0  0
 14  7  1  0  0  0  0
 15 18  2  0  0  0  0
 16 13  2  0  0  0  0
 16 22  1  0  0  0  0
 17  6  1  0  0  0  0
 17 19  2  0  0  0  0
 18 13  1  0  0  0  0
 19 10  1  0  0  0  0
 20 21  1  0  0  0  0
 20 15  1  0  0  0  0
 21  4  1  0  0  0  0
 22 25  1  0  0  0  0
 23 22  2  0  0  0  0
 23 26  1  0  0  0  0
 24 27  1  0  0  0  0
 25 27  2  0  0  0  0
 26 24  2  0  0  0  0
 28  8  1  0  0  0  0
 29 30  1  0  0  0  0
 30 32  1  0  0  0  0
 30 31  1  0  0  0  0
 31 28  1  1  0  0  0
 32 31  1  0  0  0  0
M  END
>  <MODEL>
5

>  <REMARK>
 VINA RESULT:      -7.5      3.767      8.405
  Name = 
  3 active torsions:
  status: ('A' for Active; 'I' for Inactive)
    1  A    between atoms: C_3  and  C_21
    2  A    between atoms: O_8  and  N_11
    3  A    between atoms: O_8  and  C_28
                            x       y       z     vdW  Elec       q    Type
                         _______ _______ _______ _____ _____    ______ ____

>  <TORSDO>
F 3

$$$$
=
 OpenBabel11042419333D

 32 38  0  0  1  0  0  0  0  0999 V2000
  188.5880  175.1120  143.5380 C   0  0  0  0  0  0  0  0  0  0  0  0
  190.6050  173.1020  143.3650 C   0  0  0  0  0  0  0  0  0  0  0  0
  189.8230  173.1370  138.4050 C   0  0  0  0  0  2  0  0  0  0  0  0
  187.1730  175.6320  138.1380 N   0  0  0  0  0  2  0  0  0  0  0  0
  186.9390  175.4910  135.4100 N   0  0  0  0  0  0  0  0  0  0  0  0
  189.6040  173.5380  139.8210 C   0  0  0  0  0  0  0  0  0  0  0  0
  189.2910  174.6720  144.6700 O   0  0  0  0  0  0  0  0  0  0  0  0
  191.6320  172.3180  143.2650 N   0  0  0  0  0  0  0  0  0  0  0  0
  188.8490  173.9710  137.6890 N   0  0  0  0  0  0  0  0  0  0  0  0
  188.9050  174.5680  142.2790 C   0  0  0  0  0  0  0  0  0  0  0  0
  186.0300  176.4150  135.8290 C   0  0  0  0  0  2  0  0  0  0  0  0
  186.7950  175.8110  136.7750 C   0  0  0  0  0  0  0  0  0  0  0  0
  186.9580  176.5640  142.4680 C   0  0  0  0  0  3  0  0  0  0  0  0
  190.0220  173.4440  144.7080 C   0  0  0  0  0  2  0  0  0  0  0  0
  188.2450  175.0350  141.1180 C   0  0  0  0  0  0  0  0  0  0  0  0
  187.6010  176.1250  143.6400 C   0  0  0  0  0  0  0  0  0  0  0  0
  190.2530  173.0900  140.9250 N   0  0  0  0  0  0  0  0  0  0  0  0
  187.2730  176.0280  141.2190 C   0  0  0  0  0  3  0  0  0  0  0  0
  189.9190  173.5850  142.1560 C   0  0  0  0  0  0  0  0  0  0  0  0
  188.6210  174.4820  139.8930 C   0  0  0  0  0  0  0  0  0  0  0  0
  188.1920  174.7110  138.5300 C   0  0  0  0  0  0  0  0  0  0  0  0
  187.2090  176.7420  144.9400 C   0  0  0  0  0  0  0  0  0  0  0  0
  185.8680  176.7910  145.3550 C   0  0  0  0  0  3  0  0  0  0  0  0
  186.5010  177.9490  147.3840 C   0  0  0  0  0  3  0  0  0  0  0  0
  188.1890  177.3180  145.7680 C   0  0  0  0  0  3  0  0  0  0  0  0
  185.5160  177.3870  146.5700 C   0  0  0  0  0  3  0  0  0  0  0  0
  187.8380  177.9150  146.9840 C   0  0  0  0  0  3  0  0  0  0  0  0
  192.2650  171.8110  144.3770 O   0  0  0  0  0  0  0  0  0  0  0  0
  195.4470  171.0180  145.7610 C   0  0  0  0  0  1  0  0  0  0  0  0
  194.1920  171.7450  145.7220 N   0  0  0  0  0  0  0  0  0  0  0  0
  193.6640  171.5920  144.3600 C   0  0  2  0  0  3  0  0  0  0  0  0
  194.3570  172.8170  144.7320 C   0  0  0  0  0  2  0  0  0  0  0  0
  1 16  1  0  0  0  0
  1  7  1  0  0  0  0
  2 14  1  0  0  0  0
  3  6  1  0  0  0  0
  4 21  1  0  0  0  0
  5 11  1  0  0  0  0
  5 12  2  0  0  0  0
  6 20  2  0  0  0  0
  6 17  1  0  0  0  0
  7 14  1  0  0  0  0
  8  2  2  0  0  0  0
  8 28  1  0  0  0  0
  9  3  1  0  0  0  0
  9 21  2  0  0  0  0
 10  1  2  0  0  0  0
 11 12  1  0  0  0  0
 12  4  1  0  0  0  0
 13 16  2  0  0  0  0
 15 18  2  0  0  0  0
 15 10  1  0  0  0  0
 16 22  1  0  0  0  0
 17 19  2  0  0  0  0
 18 13  1  0  0  0  0
 19 10  1  0  0  0  0
 19  2  1  0  0  0  0
 20 15  1  0  0  0  0
 21 20  1  0  0  0  0
 22 23  2  0  0  0  0
 22 25  1  0  0  0  0
 23 26  1  0  0  0  0
 25 27  2  0  0  0  0
 26 24  2  0  0  0  0
 27 24  1  0  0  0  0
 30 29  1  0  0  0  0
 31 28  1  1  0  0  0
 31 32  1  0  0  0  0
 31 30  1  0  0  0  0
 32 30  1  0  0  0  0
M  END
>  <MODEL>
6

>  <REMARK>
 VINA RESULT:      -7.0      3.563      6.824
  Name = 
  3 active torsions:
  status: ('A' for Active; 'I' for Inactive)
    1  A    between atoms: C_3  and  C_21
    2  A    between atoms: O_8  and  N_11
    3  A    between atoms: O_8  and  C_28
                            x       y       z     vdW  Elec       q    Type
                         _______ _______ _______ _____ _____    ______ ____

>  <TORSDO>
F 3

$$$$
=
 OpenBabel11042419333D

 32 38  0  0  1  0  0  0  0  0999 V2000
  190.1350  174.8970  142.0980 C   0  0  0  0  0  0  0  0  0  0  0  0
  188.9340  176.7770  143.8750 C   0  0  0  0  0  0  0  0  0  0  0  0
  193.0250  176.2610  146.7420 C   0  0  0  0  0  2  0  0  0  0  0  0
  194.9170  173.8060  144.8150 N   0  0  0  0  0  2  0  0  0  0  0  0
  197.0570  173.7070  146.5260 N   0  0  0  0  0  0  0  0  0  0  0  0
  192.1330  175.9960  145.5800 C   0  0  0  0  0  0  0  0  0  0  0  0
  188.9060  175.5070  141.8070 O   0  0  0  0  0  0  0  0  0  0  0  0
  188.4720  177.7520  144.5940 N   0  0  0  0  0  0  0  0  0  0  0  0
  194.1700  175.3860  146.4640 N   0  0  0  0  0  0  0  0  0  0  0  0
  190.8080  175.2410  143.2860 C   0  0  0  0  0  0  0  0  0  0  0  0
  197.3340  172.8430  145.5100 C   0  0  0  0  0  2  0  0  0  0  0  0
  196.1530  173.5130  145.4610 C   0  0  0  0  0  0  0  0  0  0  0  0
  191.9830  173.4280  141.5130 C   0  0  0  0  0  3  0  0  0  0  0  0
  188.0980  176.1490  142.7960 C   0  0  0  0  0  2  0  0  0  0  0  0
  192.0730  174.6770  143.5750 C   0  0  0  0  0  0  0  0  0  0  0  0
  190.7260  173.9770  141.1940 C   0  0  0  0  0  0  0  0  0  0  0  0
  190.9260  176.5540  145.3100 N   0  0  0  0  0  0  0  0  0  0  0  0
  192.6520  173.7710  142.6870 C   0  0  0  0  0  3  0  0  0  0  0  0
  190.2490  176.1900  144.1780 C   0  0  0  0  0  0  0  0  0  0  0  0
  192.7080  175.0780  144.7500 C   0  0  0  0  0  0  0  0  0  0  0  0
  193.9780  174.7370  145.3550 C   0  0  0  0  0  0  0  0  0  0  0  0
  190.0690  173.5610  139.9230 C   0  0  0  0  0  0  0  0  0  0  0  0
  188.7600  173.0510  139.9040 C   0  0  0  0  0  3  0  0  0  0  0  0
  188.8730  172.7470  137.5060 C   0  0  0  0  0  3  0  0  0  0  0  0
  190.7730  173.6450  138.7070 C   0  0  0  0  0  3  0  0  0  0  0  0
  188.1640  172.6510  138.7050 C   0  0  0  0  0  3  0  0  0  0  0  0
  190.1780  173.2450  137.5060 C   0  0  0  0  0  3  0  0  0  0  0  0
  187.2260  178.2890  144.3660 O   0  0  0  0  0  0  0  0  0  0  0  0
  184.0460  178.6510  145.9260 C   0  0  0  0  0  1  0  0  0  0  0  0
  185.3890  179.0900  145.5960 N   0  0  0  0  0  0  0  0  0  0  0  0
  186.1250  177.8940  145.1650 C   0  0  2  0  0  3  0  0  0  0  0  0
  186.2980  178.3980  146.5200 C   0  0  0  0  0  2  0  0  0  0  0  0
  1 10  1  0  0  0  0
  2 19  1  0  0  0  0
  2  8  2  0  0  0  0
  4 21  1  0  0  0  0
  4 12  1  0  0  0  0
  6  3  1  0  0  0  0
  7  1  1  0  0  0  0
  7 14  1  0  0  0  0
  9  3  1  0  0  0  0
 10 15  2  0  0  0  0
 10 19  1  0  0  0  0
 11  5  1  0  0  0  0
 12 11  1  0  0  0  0
 12  5  2  0  0  0  0
 13 18  2  0  0  0  0
 14  2  1  0  0  0  0
 15 20  1  0  0  0  0
 16 13  1  0  0  0  0
 16  1  2  0  0  0  0
 17  6  1  0  0  0  0
 18 15  1  0  0  0  0
 19 17  2  0  0  0  0
 20 21  1  0  0  0  0
 20  6  2  0  0  0  0
 21  9  2  0  0  0  0
 22 16  1  0  0  0  0
 23 22  1  0  0  0  0
 24 27  2  0  0  0  0
 24 26  1  0  0  0  0
 25 22  2  0  0  0  0
 26 23  2  0  0  0  0
 27 25  1  0  0  0  0
 28  8  1  0  0  0  0
 30 29  1  0  0  0  0
 30 32  1  0  0  0  0
 31 28  1  6  0  0  0
 31 30  1  0  0  0  0
 31 32  1  0  0  0  0
M  END
>  <MODEL>
7

>  <REMARK>
 VINA RESULT:      -7.0      2.098      6.894
  Name = 
  3 active torsions:
  status: ('A' for Active; 'I' for Inactive)
    1  A    between atoms: C_3  and  C_21
    2  A    between atoms: O_8  and  N_11
    3  A    between atoms: O_8  and  C_28
                            x       y       z     vdW  Elec       q    Type
                         _______ _______ _______ _____ _____    ______ ____

>  <TORSDO>
F 3

$$$$
=
 OpenBabel11042419333D

 32 38  0  0  1  0  0  0  0  0999 V2000
  190.7040  173.9610  141.1450 C   0  0  0  0  0  0  0  0  0  0  0  0
  192.5440  174.4860  143.2610 C   0  0  0  0  0  0  0  0  0  0  0  0
  188.9810  177.4060  145.2610 C   0  0  0  0  0  2  0  0  0  0  0  0
  186.3350  177.0750  142.7700 N   0  0  0  0  0  2  0  0  0  0  0  0
  184.5410  178.6980  144.0610 N   0  0  0  0  0  0  0  0  0  0  0  0
  189.5910  176.4980  144.2510 C   0  0  0  0  0  0  0  0  0  0  0  0
  191.9630  173.3450  141.1980 O   0  0  0  0  0  0  0  0  0  0  0  0
  193.3080  174.5910  144.3020 N   0  0  0  0  0  0  0  0  0  0  0  0
  187.6530  177.6620  144.6910 N   0  0  0  0  0  0  0  0  0  0  0  0
  190.3270  174.8410  142.1770 C   0  0  0  0  0  0  0  0  0  0  0  0
  183.9270  178.2720  142.9220 C   0  0  0  0  0  2  0  0  0  0  0  0
  185.1930  177.8370  143.1550 C   0  0  0  0  0  0  0  0  0  0  0  0
  188.5270  174.2850  140.1120 C   0  0  0  0  0  3  0  0  0  0  0  0
  193.0410  173.8350  142.0000 C   0  0  0  0  0  2  0  0  0  0  0  0
  189.0420  175.4340  142.1690 C   0  0  0  0  0  0  0  0  0  0  0  0
  189.7960  173.6750  140.0940 C   0  0  0  0  0  0  0  0  0  0  0  0
  190.8210  175.9260  144.2770 N   0  0  0  0  0  0  0  0  0  0  0  0
  188.1510  175.1540  141.1350 C   0  0  0  0  0  3  0  0  0  0  0  0
  191.2090  175.1040  143.2550 C   0  0  0  0  0  0  0  0  0  0  0  0
  188.7100  176.2730  143.2330 C   0  0  0  0  0  0  0  0  0  0  0  0
  187.5190  177.0260  143.5670 C   0  0  0  0  0  0  0  0  0  0  0  0
  190.1290  172.7600  138.9660 C   0  0  0  0  0  0  0  0  0  0  0  0
  190.8320  173.2110  137.8360 C   0  0  0  0  0  3  0  0  0  0  0  0
  190.7090  171.0110  136.8350 C   0  0  0  0  0  3  0  0  0  0  0  0
  189.7130  171.4160  139.0040 C   0  0  0  0  0  3  0  0  0  0  0  0
  191.1240  172.3430  136.7800 C   0  0  0  0  0  3  0  0  0  0  0  0
  190.0030  170.5470  137.9470 C   0  0  0  0  0  3  0  0  0  0  0  0
  194.5800  174.0650  144.3210 O   0  0  0  0  0  0  0  0  0  0  0  0
  196.5620  171.6060  145.9650 C   0  0  0  0  0  1  0  0  0  0  0  0
  195.7270  172.0900  144.8810 N   0  0  0  0  0  0  0  0  0  0  0  0
  194.9970  173.2540  145.4040 C   0  0  2  0  0  3  0  0  0  0  0  0
  194.3350  171.9590  145.3310 C   0  0  0  0  0  2  0  0  0  0  0  0
  1  7  1  0  0  0  0
  1 10  1  0  0  0  0
  2  8  2  0  0  0  0
  4 12  1  0  0  0  0
  4 21  1  0  0  0  0
  6 17  1  0  0  0  0
  6  3  1  0  0  0  0
  7 14  1  0  0  0  0
  8 28  1  0  0  0  0
  9  3  1  0  0  0  0
 10 19  1  0  0  0  0
 11 12  1  0  0  0  0
 11  5  1  0  0  0  0
 12  5  2  0  0  0  0
 13 18  2  0  0  0  0
 14  2  1  0  0  0  0
 15 10  2  0  0  0  0
 15 20  1  0  0  0  0
 16 13  1  0  0  0  0
 16  1  2  0  0  0  0
 18 15  1  0  0  0  0
 19  2  1  0  0  0  0
 19 17  2  0  0  0  0
 20 21  1  0  0  0  0
 20  6  2  0  0  0  0
 21  9  2  0  0  0  0
 22 25  1  0  0  0  0
 22 16  1  0  0  0  0
 23 22  2  0  0  0  0
 24 27  1  0  0  0  0
 26 24  2  0  0  0  0
 26 23  1  0  0  0  0
 27 25  2  0  0  0  0
 30 32  1  0  0  0  0
 30 31  1  0  0  0  0
 30 29  1  0  0  0  0
 31 28  1  6  0  0  0
 32 31  1  0  0  0  0
M  END
>  <MODEL>
8

>  <REMARK>
 VINA RESULT:      -6.9      1.925      2.504
  Name = 
  3 active torsions:
  status: ('A' for Active; 'I' for Inactive)
    1  A    between atoms: C_3  and  C_21
    2  A    between atoms: O_8  and  N_11
    3  A    between atoms: O_8  and  C_28
                            x       y       z     vdW  Elec       q    Type
                         _______ _______ _______ _____ _____    ______ ____

>  <TORSDO>
F 3

$$$$
=
 OpenBabel11042419333D

 32 38  0  0  1  0  0  0  0  0999 V2000
  187.8700  176.0320  142.7050 C   0  0  0  0  0  0  0  0  0  0  0  0
  189.4630  173.8000  141.9190 C   0  0  0  0  0  0  0  0  0  0  0  0
  192.0910  174.5460  146.1330 C   0  0  0  0  0  2  0  0  0  0  0  0
  190.3790  177.4590  147.5110 N   0  0  0  0  0  2  0  0  0  0  0  0
  191.9410  177.6560  149.7570 N   0  0  0  0  0  0  0  0  0  0  0  0
  191.0370  174.8190  145.1190 C   0  0  0  0  0  0  0  0  0  0  0  0
  187.5850  175.2930  141.5480 O   0  0  0  0  0  0  0  0  0  0  0  0
  190.0780  172.6900  141.6530 N   0  0  0  0  0  0  0  0  0  0  0  0
  191.8540  175.6020  147.1240 N   0  0  0  0  0  0  0  0  0  0  0  0
  188.9550  175.6470  143.5160 C   0  0  0  0  0  0  0  0  0  0  0  0
  191.0310  178.6660  149.8290 C   0  0  0  0  0  2  0  0  0  0  0  0
  190.9740  177.8450  148.7480 C   0  0  0  0  0  0  0  0  0  0  0  0
  187.3590  177.8080  144.2850 C   0  0  0  0  0  3  0  0  0  0  0  0
  188.5340  174.4280  140.9180 C   0  0  0  0  0  2  0  0  0  0  0  0
  189.2300  176.3470  144.7140 C   0  0  0  0  0  0  0  0  0  0  0  0
  187.0570  177.1280  143.0900 C   0  0  0  0  0  0  0  0  0  0  0  0
  190.7780  174.1300  143.9780 N   0  0  0  0  0  0  0  0  0  0  0  0
  188.4310  177.4260  145.0900 C   0  0  0  0  0  3  0  0  0  0  0  0
  189.7510  174.5270  143.1650 C   0  0  0  0  0  0  0  0  0  0  0  0
  190.2970  175.9020  145.4940 C   0  0  0  0  0  0  0  0  0  0  0  0
  190.8550  176.3450  146.7540 C   0  0  0  0  0  0  0  0  0  0  0  0
  185.8980  177.5970  142.2780 C   0  0  0  0  0  0  0  0  0  0  0  0
  186.0150  177.8370  140.8990 C   0  0  0  0  0  3  0  0  0  0  0  0
  183.6960  178.5180  140.7830 C   0  0  0  0  0  3  0  0  0  0  0  0
  184.6570  177.8360  142.8970 C   0  0  0  0  0  3  0  0  0  0  0  0
  184.9220  178.2910  140.1550 C   0  0  0  0  0  3  0  0  0  0  0  0
  183.5630  178.2910  142.1540 C   0  0  0  0  0  3  0  0  0  0  0  0
  189.8660  172.0120  140.4740 O   0  0  0  0  0  0  0  0  0  0  0  0
  191.4320  169.9580  138.0250 C   0  0  0  0  0  1  0  0  0  0  0  0
  190.4760  170.2160  139.0860 N   0  0  0  0  0  0  0  0  0  0  0  0
  190.9530  171.4110  139.7960 C   0  0  2  0  0  3  0  0  0  0  0  0
  191.2080  170.0890  140.3530 C   0  0  0  0  0  2  0  0  0  0  0  0
  1 16  2  0  0  0  0
  1 10  1  0  0  0  0
  2 19  1  0  0  0  0
  3  9  1  0  0  0  0
  4 12  1  0  0  0  0
  5 11  1  0  0  0  0
  6 20  1  0  0  0  0
  6  3  1  0  0  0  0
  7  1  1  0  0  0  0
  8  2  2  0  0  0  0
 10 15  1  0  0  0  0
 12  5  2  0  0  0  0
 12 11  1  0  0  0  0
 13 18  2  0  0  0  0
 14  7  1  0  0  0  0
 14  2  1  0  0  0  0
 15 18  1  0  0  0  0
 15 20  2  0  0  0  0
 16 13  1  0  0  0  0
 17  6  2  0  0  0  0
 19 10  2  0  0  0  0
 19 17  1  0  0  0  0
 20 21  1  0  0  0  0
 21  9  2  0  0  0  0
 21  4  1  0  0  0  0
 22 25  1  0  0  0  0
 22 16  1  0  0  0  0
 23 22  2  0  0  0  0
 24 27  1  0  0  0  0
 26 24  2  0  0  0  0
 26 23  1  0  0  0  0
 27 25  2  0  0  0  0
 28  8  1  0  0  0  0
 29 30  1  0  0  0  0
 30 31  1  0  0  0  0
 30 32  1  0  0  0  0
 31 32  1  0  0  0  0
 31 28  1  1  0  0  0
M  END
>  <MODEL>
9

>  <REMARK>
 VINA RESULT:      -6.8      3.153      5.759
  Name = 
  3 active torsions:
  status: ('A' for Active; 'I' for Inactive)
    1  A    between atoms: C_3  and  C_21
    2  A    between atoms: O_8  and  N_11
    3  A    between atoms: O_8  and  C_28
                            x       y       z     vdW  Elec       q    Type
                         _______ _______ _______ _____ _____    ______ ____

>  <TORSDO>
F 3

$$$$
