=
 OpenBabel11042418223D

 37 39  0  0  1  0  0  0  0  0999 V2000
  189.4710  172.8270  144.9620 N   0  0  0  0  0  2  0  0  0  0  0  0
  190.0830  173.8850  145.6970 C   0  0  0  0  0  0  0  0  0  0  0  0
  189.2360  174.7460  146.5970 C   0  0  0  0  0  2  0  0  0  0  0  0
  192.0270  175.1690  146.3490 C   0  0  2  0  0  3  0  0  0  0  0  0
  191.3610  174.1150  145.5770 N   0  0  0  0  0  0  0  0  0  0  0  0
  189.7970  176.1430  146.6830 C   0  0  0  0  0  0  0  0  0  0  0  0
  191.1150  176.3510  146.5370 C   0  0  0  0  0  3  0  0  0  0  0  0
  193.3110  175.5830  145.7060 C   0  0  0  0  0  0  0  0  0  0  0  0
  195.5260  175.6910  144.5980 C   0  0  0  0  0  0  0  0  0  0  0  0
  195.1110  176.9220  145.0880 C   0  0  0  0  0  3  0  0  0  0  0  0
  194.3720  174.5240  144.9500 S   0  0  0  0  0  0  0  0  0  0  0  0
  193.8600  176.8620  145.7180 C   0  0  0  0  0  3  0  0  0  0  0  0
  196.8400  175.4160  143.9460 C   0  0  0  0  0  2  0  0  0  0  0  0
  197.0420  176.3030  142.7220 C   0  0  0  0  0  2  0  0  0  0  0  0
  197.9390  174.8800  141.0720 O   0  0  0  0  0  0  0  0  0  0  0  0
  196.9670  175.5120  141.4530 C   0  0  0  0  0  0  0  0  0  0  0  0
  194.6480  174.2360  141.3620 O   0  0  0  0  0  1  0  0  0  0  0  0
  194.6080  176.7950  141.2440 O   0  0  0  0  0  1  0  0  0  0  0  0
  195.4250  175.4880  140.4480 P   0  0  0  0  0  0  0  0  0  0  0  0
  188.8660  177.2950  146.8770 C   0  0  0  0  0  2  0  0  0  0  0  0
  187.4350  176.8830  146.5900 C   0  0  0  0  0  2  0  0  0  0  0  0
  186.5040  177.6400  147.5130 C   0  0  0  0  0  2  0  0  0  0  0  0
  184.7120  178.4240  146.4960 C   0  0  0  0  0  1  0  0  0  0  0  0
  186.0130  178.7700  146.8640 O   0  0  0  0  0  0  0  0  0  0  0  0
  190.1700  172.0880  144.0670 O   0  0  0  0  0  0  0  0  0  0  0  0
  189.2750  171.8390  143.0250 C   0  0  0  0  0  2  0  0  0  0  0  0
  189.7140  172.5920  141.7860 C   0  0  0  0  0  2  0  0  0  0  0  0
  189.0410  173.8440  141.7240 O   0  0  0  0  0  0  0  0  0  0  0  0
  189.3030  177.2610  143.1210 C   0  0  0  0  0  3  0  0  0  0  0  0
  190.6900  177.4160  143.2140 C   0  0  0  0  0  0  0  0  0  0  0  0
  191.5350  176.3860  142.7970 C   0  0  0  0  0  3  0  0  0  0  0  0
  188.7510  176.0720  142.6140 C   0  0  0  0  0  0  0  0  0  0  0  0
  191.2620  178.6840  143.7360 C   0  0  0  0  0  1  0  0  0  0  0  0
  189.6010  175.0330  142.2040 C   0  0  0  0  0  0  0  0  0  0  0  0
  190.9940  175.1980  142.2940 C   0  0  0  0  0  3  0  0  0  0  0  0
  187.3640  175.9020  142.5100 O   0  0  0  0  0  0  0  0  0  0  0  0
  186.5230  176.8320  141.8390 C   0  0  0  0  0  1  0  0  0  0  0  0
  1  2  1  0  0  0  0
  2  3  1  0  0  0  0
  3  6  1  0  0  0  0
  4  8  1  6  0  0  0
  4  7  1  0  0  0  0
  5  2  2  0  0  0  0
  5  4  1  0  0  0  0
  6 20  1  0  0  0  0
  7  6  2  0  0  0  0
  8 12  2  0  0  0  0
  9 11  1  0  0  0  0
  9 10  2  0  0  0  0
 10 12  1  0  0  0  0
 11  8  1  0  0  0  0
 13  9  1  0  0  0  0
 14 13  1  0  0  0  0
 15 16  2  0  0  0  0
 16 14  1  0  0  0  0
 19 18  1  0  0  0  0
 19 17  1  0  0  0  0
 19 16  1  0  0  0  0
 21 20  1  0  0  0  0
 21 22  1  0  0  0  0
 23 24  1  0  0  0  0
 24 22  1  0  0  0  0
 25  1  1  0  0  0  0
 26 25  1  0  0  0  0
 27 26  1  0  0  0  0
 28 27  1  0  0  0  0
 28 34  1  0  0  0  0
 29 30  1  0  0  0  0
 30 33  1  0  0  0  0
 31 30  2  0  0  0  0
 32 29  2  0  0  0  0
 34 35  2  0  0  0  0
 34 32  1  0  0  0  0
 35 31  1  0  0  0  0
 36 32  1  0  0  0  0
 37 36  1  0  0  0  0
M  END
>  <MODEL>
1

>  <REMARK>
 VINA RESULT:      -5.8      0.000      0.000
  Name = 
  15 active torsions:
  status: ('A' for Active; 'I' for Inactive)
    1  A    between atoms: N_1  and  O_21
    2  A    between atoms: C_3  and  C_23
    3  A    between atoms: C_3  and  O_37
    4  A    between atoms: C_6  and  C_19
    5  A    between atoms: O_7  and  C_22
    6  A    between atoms: O_7  and  C_31
    7  A    between atoms: C_10  and  C_24
    8  A    between atoms: C_13  and  C_23
    9  A    between atoms: C_13  and  C_32
   10  A    between atoms: C_17  and  O_20
   11  A    between atoms: P_18  and  C_33
   12  A    between atoms: O_21  and  C_35
   13  A    between atoms: C_22  and  C_35
   14  A    between atoms: C_24  and  C_30
   15  A    between atoms: C_30  and  C_33
                            x       y       z     vdW  Elec       q    Type
                         _______ _______ _______ _____ _____    ______ ____

>  <TORSDO>
F 15

$$$$
=
 OpenBabel11042418223D

 37 39  0  0  1  0  0  0  0  0999 V2000
  194.4170  175.5310  141.0280 N   0  0  0  0  0  2  0  0  0  0  0  0
  193.1640  174.9770  141.4280 C   0  0  0  0  0  0  0  0  0  0  0  0
  192.5750  173.8370  140.6390 C   0  0  0  0  0  2  0  0  0  0  0  0
  191.2600  174.8900  142.9190 C   0  0  2  0  0  3  0  0  0  0  0  0
  192.5290  175.4630  142.4580 N   0  0  0  0  0  0  0  0  0  0  0  0
  191.0680  173.8760  140.6900 C   0  0  0  0  0  0  0  0  0  0  0  0
  190.4420  174.4000  141.7540 C   0  0  0  0  0  3  0  0  0  0  0  0
  190.4870  175.8720  143.7380 C   0  0  0  0  0  0  0  0  0  0  0  0
  188.7850  177.0910  145.0650 C   0  0  0  0  0  0  0  0  0  0  0  0
  189.8630  177.8920  144.7100 C   0  0  0  0  0  3  0  0  0  0  0  0
  188.9970  175.5480  144.4410 S   0  0  0  0  0  0  0  0  0  0  0  0
  190.8240  177.2040  143.9570 C   0  0  0  0  0  3  0  0  0  0  0  0
  187.5690  177.5500  145.8000 C   0  0  0  0  0  2  0  0  0  0  0  0
  186.3400  176.7500  145.3790 C   0  0  0  0  0  2  0  0  0  0  0  0
  184.4950  178.1640  145.7610 O   0  0  0  0  0  0  0  0  0  0  0  0
  185.2270  177.6490  144.9340 C   0  0  0  0  0  0  0  0  0  0  0  0
  186.1270  179.2380  143.0160 O   0  0  0  0  0  1  0  0  0  0  0  0
  185.9700  176.7310  142.5130 O   0  0  0  0  0  1  0  0  0  0  0  0
  184.9420  177.9780  143.1450 P   0  0  0  0  0  0  0  0  0  0  0  0
  190.2840  173.3760  139.5210 C   0  0  0  0  0  2  0  0  0  0  0  0
  188.8680  173.9190  139.5530 C   0  0  0  0  0  2  0  0  0  0  0  0
  188.3190  173.9620  138.1430 C   0  0  0  0  0  2  0  0  0  0  0  0
  189.1060  174.5110  136.1580 C   0  0  0  0  0  1  0  0  0  0  0  0
  189.3280  173.6510  137.2350 O   0  0  0  0  0  0  0  0  0  0  0  0
  194.9410  176.6170  141.6460 O   0  0  0  0  0  0  0  0  0  0  0  0
  196.2730  176.2830  141.8960 C   0  0  0  0  0  2  0  0  0  0  0  0
  196.6170  176.6090  143.3350 C   0  0  0  0  0  2  0  0  0  0  0  0
  196.2720  175.5100  144.1710 O   0  0  0  0  0  0  0  0  0  0  0  0
  193.2570  174.2670  145.9190 C   0  0  0  0  0  3  0  0  0  0  0  0
  192.8380  175.4150  146.5990 C   0  0  0  0  0  0  0  0  0  0  0  0
  193.5540  176.6060  146.4610 C   0  0  0  0  0  3  0  0  0  0  0  0
  194.3980  174.3000  145.1000 C   0  0  0  0  0  0  0  0  0  0  0  0
  191.6200  175.3720  147.4480 C   0  0  0  0  0  1  0  0  0  0  0  0
  195.1240  175.4950  144.9700 C   0  0  0  0  0  0  0  0  0  0  0  0
  194.6930  176.6470  145.6500 C   0  0  0  0  0  3  0  0  0  0  0  0
  194.8290  173.1600  144.4090 O   0  0  0  0  0  0  0  0  0  0  0  0
  194.7740  171.8540  144.9690 C   0  0  0  0  0  1  0  0  0  0  0  0
  1  2  1  0  0  0  0
  1 25  1  0  0  0  0
  2  5  2  0  0  0  0
  3  6  1  0  0  0  0
  3  2  1  0  0  0  0
  4  8  1  6  0  0  0
  5  4  1  0  0  0  0
  6  7  2  0  0  0  0
  7  4  1  0  0  0  0
  8 12  2  0  0  0  0
  8 11  1  0  0  0  0
  9 13  1  0  0  0  0
 10  9  2  0  0  0  0
 11  9  1  0  0  0  0
 12 10  1  0  0  0  0
 14 13  1  0  0  0  0
 16 14  1  0  0  0  0
 16 15  2  0  0  0  0
 17 19  1  0  0  0  0
 18 19  1  0  0  0  0
 19 16  1  0  0  0  0
 20 21  1  0  0  0  0
 20  6  1  0  0  0  0
 22 21  1  0  0  0  0
 23 24  1  0  0  0  0
 24 22  1  0  0  0  0
 25 26  1  0  0  0  0
 26 27  1  0  0  0  0
 27 28  1  0  0  0  0
 28 34  1  0  0  0  0
 29 30  1  0  0  0  0
 30 33  1  0  0  0  0
 31 30  2  0  0  0  0
 32 29  2  0  0  0  0
 34 32  1  0  0  0  0
 34 35  2  0  0  0  0
 35 31  1  0  0  0  0
 36 37  1  0  0  0  0
 36 32  1  0  0  0  0
M  END
>  <MODEL>
2

>  <REMARK>
 VINA RESULT:      -5.6      3.242      7.984
  Name = 
  15 active torsions:
  status: ('A' for Active; 'I' for Inactive)
    1  A    between atoms: N_1  and  O_21
    2  A    between atoms: C_3  and  C_23
    3  A    between atoms: C_3  and  O_37
    4  A    between atoms: C_6  and  C_19
    5  A    between atoms: O_7  and  C_22
    6  A    between atoms: O_7  and  C_31
    7  A    between atoms: C_10  and  C_24
    8  A    between atoms: C_13  and  C_23
    9  A    between atoms: C_13  and  C_32
   10  A    between atoms: C_17  and  O_20
   11  A    between atoms: P_18  and  C_33
   12  A    between atoms: O_21  and  C_35
   13  A    between atoms: C_22  and  C_35
   14  A    between atoms: C_24  and  C_30
   15  A    between atoms: C_30  and  C_33
                            x       y       z     vdW  Elec       q    Type
                         _______ _______ _______ _____ _____    ______ ____

>  <TORSDO>
F 15

$$$$
=
 OpenBabel11042418223D

 37 39  0  0  1  0  0  0  0  0999 V2000
  195.5700  175.8690  141.9350 N   0  0  0  0  0  2  0  0  0  0  0  0
  195.4130  175.8640  143.3530 C   0  0  0  0  0  0  0  0  0  0  0  0
  196.5160  175.3060  144.2160 C   0  0  0  0  0  2  0  0  0  0  0  0
  194.1460  176.3690  145.3510 C   0  0  2  0  0  3  0  0  0  0  0  0
  194.3200  176.3230  143.8960 N   0  0  0  0  0  0  0  0  0  0  0  0
  195.9530  174.7100  145.4810 C   0  0  0  0  0  0  0  0  0  0  0  0
  194.8160  175.1900  146.0060 C   0  0  0  0  0  3  0  0  0  0  0  0
  192.7000  176.4340  145.7220 C   0  0  0  0  0  0  0  0  0  0  0  0
  190.2540  176.8210  145.8240 C   0  0  0  0  0  0  0  0  0  0  0  0
  190.7780  176.3860  147.0330 C   0  0  0  0  0  3  0  0  0  0  0  0
  191.4840  176.9610  144.6910 S   0  0  0  0  0  0  0  0  0  0  0  0
  192.1620  176.1690  146.9780 C   0  0  0  0  0  3  0  0  0  0  0  0
  188.8320  177.2080  145.5830 C   0  0  0  0  0  2  0  0  0  0  0  0
  187.9340  176.7280  146.7200 C   0  0  0  0  0  2  0  0  0  0  0  0
  186.3970  178.1030  147.8590 O   0  0  0  0  0  0  0  0  0  0  0  0
  186.6830  177.5460  146.8130 C   0  0  0  0  0  0  0  0  0  0  0  0
  184.1410  178.0810  146.2930 O   0  0  0  0  0  1  0  0  0  0  0  0
  185.9240  179.3660  144.9780 O   0  0  0  0  0  1  0  0  0  0  0  0
  185.5590  177.7150  145.3640 P   0  0  0  0  0  0  0  0  0  0  0  0
  196.6440  173.5460  146.1120 C   0  0  0  0  0  2  0  0  0  0  0  0
  197.0100  172.5080  145.0670 C   0  0  0  0  0  2  0  0  0  0  0  0
  196.3220  171.2020  145.3990 C   0  0  0  0  0  2  0  0  0  0  0  0
  194.2930  170.3490  145.2650 C   0  0  0  0  0  1  0  0  0  0  0  0
  195.0000  171.4460  145.7620 O   0  0  0  0  0  0  0  0  0  0  0  0
  194.5700  176.2700  141.1130 O   0  0  0  0  0  0  0  0  0  0  0  0
  194.4650  175.2620  140.1530 C   0  0  0  0  0  2  0  0  0  0  0  0
  194.0710  173.9610  140.8220 C   0  0  0  0  0  2  0  0  0  0  0  0
  192.6520  173.8600  140.8740 O   0  0  0  0  0  0  0  0  0  0  0  0
  189.8410  173.7600  143.2790 C   0  0  0  0  0  3  0  0  0  0  0  0
  190.4890  173.3420  144.4450 C   0  0  0  0  0  0  0  0  0  0  0  0
  191.8660  173.1090  144.4310 C   0  0  0  0  0  3  0  0  0  0  0  0
  190.5640  173.9430  142.0870 C   0  0  0  0  0  0  0  0  0  0  0  0
  189.7170  173.1690  145.7020 C   0  0  0  0  0  1  0  0  0  0  0  0
  191.9460  173.6980  142.0710 C   0  0  0  0  0  0  0  0  0  0  0  0
  192.5930  173.2860  143.2490 C   0  0  0  0  0  3  0  0  0  0  0  0
  189.9300  174.3640  140.9110 O   0  0  0  0  0  0  0  0  0  0  0  0
  189.0540  173.5270  140.1670 C   0  0  0  0  0  1  0  0  0  0  0  0
  1  2  1  0  0  0  0
  2  5  2  0  0  0  0
  2  3  1  0  0  0  0
  3  6  1  0  0  0  0
  4  8  1  6  0  0  0
  4  7  1  0  0  0  0
  5  4  1  0  0  0  0
  6  7  2  0  0  0  0
  6 20  1  0  0  0  0
  8 12  2  0  0  0  0
  9 10  2  0  0  0  0
 11  8  1  0  0  0  0
 11  9  1  0  0  0  0
 12 10  1  0  0  0  0
 13  9  1  0  0  0  0
 13 14  1  0  0  0  0
 14 16  1  0  0  0  0
 16 15  2  0  0  0  0
 18 19  1  0  0  0  0
 19 17  1  0  0  0  0
 19 16  1  0  0  0  0
 21 22  1  0  0  0  0
 21 20  1  0  0  0  0
 22 24  1  0  0  0  0
 23 24  1  0  0  0  0
 25  1  1  0  0  0  0
 26 27  1  0  0  0  0
 26 25  1  0  0  0  0
 27 28  1  0  0  0  0
 28 34  1  0  0  0  0
 29 30  1  0  0  0  0
 30 33  1  0  0  0  0
 31 30  2  0  0  0  0
 32 29  2  0  0  0  0
 34 32  1  0  0  0  0
 34 35  2  0  0  0  0
 35 31  1  0  0  0  0
 36 32  1  0  0  0  0
 37 36  1  0  0  0  0
M  END
>  <MODEL>
3

>  <REMARK>
 VINA RESULT:      -5.5      3.120      7.468
  Name = 
  15 active torsions:
  status: ('A' for Active; 'I' for Inactive)
    1  A    between atoms: N_1  and  O_21
    2  A    between atoms: C_3  and  C_23
    3  A    between atoms: C_3  and  O_37
    4  A    between atoms: C_6  and  C_19
    5  A    between atoms: O_7  and  C_22
    6  A    between atoms: O_7  and  C_31
    7  A    between atoms: C_10  and  C_24
    8  A    between atoms: C_13  and  C_23
    9  A    between atoms: C_13  and  C_32
   10  A    between atoms: C_17  and  O_20
   11  A    between atoms: P_18  and  C_33
   12  A    between atoms: O_21  and  C_35
   13  A    between atoms: C_22  and  C_35
   14  A    between atoms: C_24  and  C_30
   15  A    between atoms: C_30  and  C_33
                            x       y       z     vdW  Elec       q    Type
                         _______ _______ _______ _____ _____    ______ ____

>  <TORSDO>
F 15

$$$$
=
 OpenBabel11042418223D

 37 39  0  0  1  0  0  0  0  0999 V2000
  197.3730  175.8360  142.9770 N   0  0  0  0  0  2  0  0  0  0  0  0
  196.7790  175.3070  144.1610 C   0  0  0  0  0  0  0  0  0  0  0  0
  197.4510  174.1630  144.8760 C   0  0  0  0  0  2  0  0  0  0  0  0
  195.0440  175.3020  145.8470 C   0  0  2  0  0  3  0  0  0  0  0  0
  195.6580  175.7970  144.6110 N   0  0  0  0  0  0  0  0  0  0  0  0
  196.4320  173.2940  145.5690 C   0  0  0  0  0  0  0  0  0  0  0  0
  195.2780  173.8230  146.0040 C   0  0  0  0  0  3  0  0  0  0  0  0
  193.5840  175.6180  145.8920 C   0  0  0  0  0  0  0  0  0  0  0  0
  191.3240  176.6020  145.6360 C   0  0  0  0  0  0  0  0  0  0  0  0
  191.3680  175.6030  146.5990 C   0  0  0  0  0  3  0  0  0  0  0  0
  192.8510  176.8220  144.9780 S   0  0  0  0  0  0  0  0  0  0  0  0
  192.6470  175.0480  146.7470 C   0  0  0  0  0  3  0  0  0  0  0  0
  190.1280  177.4320  145.3020 C   0  0  0  0  0  2  0  0  0  0  0  0
  188.9140  176.5540  145.0180 C   0  0  0  0  0  2  0  0  0  0  0  0
  188.5800  177.1250  142.7560 O   0  0  0  0  0  0  0  0  0  0  0  0
  188.1030  177.0910  143.8780 C   0  0  0  0  0  0  0  0  0  0  0  0
  185.6600  176.7410  142.9160 O   0  0  0  0  0  1  0  0  0  0  0  0
  185.9660  176.6550  145.4580 O   0  0  0  0  0  1  0  0  0  0  0  0
  186.3930  177.7140  144.1520 P   0  0  0  0  0  0  0  0  0  0  0  0
  196.6950  171.8310  145.7150 C   0  0  0  0  0  2  0  0  0  0  0  0
  195.4030  171.0410  145.6300 C   0  0  0  0  0  2  0  0  0  0  0  0
  195.6940  169.5790  145.8940 C   0  0  0  0  0  2  0  0  0  0  0  0
  195.0200  168.4260  147.6470 C   0  0  0  0  0  1  0  0  0  0  0  0
  195.9500  169.3880  147.2490 O   0  0  0  0  0  0  0  0  0  0  0  0
  196.7600  176.7980  142.2460 O   0  0  0  0  0  0  0  0  0  0  0  0
  196.1620  176.1180  141.1830 C   0  0  0  0  0  2  0  0  0  0  0  0
  194.6640  176.3370  141.2180 C   0  0  0  0  0  2  0  0  0  0  0  0
  193.9940  175.1160  140.9250 O   0  0  0  0  0  0  0  0  0  0  0  0
  192.6750  172.8600  143.5460 C   0  0  0  0  0  3  0  0  0  0  0  0
  191.3480  173.2900  143.6390 C   0  0  0  0  0  0  0  0  0  0  0  0
  190.8910  174.3220  142.8160 C   0  0  0  0  0  3  0  0  0  0  0  0
  193.5580  173.4620  142.6330 C   0  0  0  0  0  0  0  0  0  0  0  0
  190.4200  172.6340  144.5960 C   0  0  0  0  0  1  0  0  0  0  0  0
  193.1010  174.5070  141.8140 C   0  0  0  0  0  0  0  0  0  0  0  0
  191.7640  174.9290  141.9070 C   0  0  0  0  0  3  0  0  0  0  0  0
  194.8900  173.0410  142.5240 O   0  0  0  0  0  0  0  0  0  0  0  0
  195.2620  171.8210  141.8960 C   0  0  0  0  0  1  0  0  0  0  0  0
  1  2  1  0  0  0  0
  2  5  2  0  0  0  0
  2  3  1  0  0  0  0
  3  6  1  0  0  0  0
  4  8  1  6  0  0  0
  4  7  1  0  0  0  0
  5  4  1  0  0  0  0
  6 20  1  0  0  0  0
  6  7  2  0  0  0  0
  8 12  2  0  0  0  0
  9 10  2  0  0  0  0
 10 12  1  0  0  0  0
 11  9  1  0  0  0  0
 11  8  1  0  0  0  0
 13  9  1  0  0  0  0
 14 13  1  0  0  0  0
 15 16  2  0  0  0  0
 16 19  1  0  0  0  0
 16 14  1  0  0  0  0
 17 19  1  0  0  0  0
 19 18  1  0  0  0  0
 21 20  1  0  0  0  0
 21 22  1  0  0  0  0
 22 24  1  0  0  0  0
 24 23  1  0  0  0  0
 25  1  1  0  0  0  0
 26 27  1  0  0  0  0
 26 25  1  0  0  0  0
 28 27  1  0  0  0  0
 28 34  1  0  0  0  0
 29 30  1  0  0  0  0
 30 33  1  0  0  0  0
 31 30  2  0  0  0  0
 32 29  2  0  0  0  0
 34 35  2  0  0  0  0
 34 32  1  0  0  0  0
 35 31  1  0  0  0  0
 36 32  1  0  0  0  0
 37 36  1  0  0  0  0
M  END
>  <MODEL>
4

>  <REMARK>
 VINA RESULT:      -5.4      3.572      7.684
  Name = 
  15 active torsions:
  status: ('A' for Active; 'I' for Inactive)
    1  A    between atoms: N_1  and  O_21
    2  A    between atoms: C_3  and  C_23
    3  A    between atoms: C_3  and  O_37
    4  A    between atoms: C_6  and  C_19
    5  A    between atoms: O_7  and  C_22
    6  A    between atoms: O_7  and  C_31
    7  A    between atoms: C_10  and  C_24
    8  A    between atoms: C_13  and  C_23
    9  A    between atoms: C_13  and  C_32
   10  A    between atoms: C_17  and  O_20
   11  A    between atoms: P_18  and  C_33
   12  A    between atoms: O_21  and  C_35
   13  A    between atoms: C_22  and  C_35
   14  A    between atoms: C_24  and  C_30
   15  A    between atoms: C_30  and  C_33
                            x       y       z     vdW  Elec       q    Type
                         _______ _______ _______ _____ _____    ______ ____

>  <TORSDO>
F 15

$$$$
=
 OpenBabel11042418223D

 37 39  0  0  1  0  0  0  0  0999 V2000
  189.8270  172.6960  143.9730 N   0  0  0  0  0  2  0  0  0  0  0  0
  190.4890  173.5250  144.9260 C   0  0  0  0  0  0  0  0  0  0  0  0
  189.6730  174.2710  145.9500 C   0  0  0  0  0  2  0  0  0  0  0  0
  192.5000  174.4620  145.8920 C   0  0  2  0  0  3  0  0  0  0  0  0
  191.7870  173.6490  144.9010 N   0  0  0  0  0  0  0  0  0  0  0  0
  190.3490  175.5630  146.3340 C   0  0  0  0  0  0  0  0  0  0  0  0
  191.6850  175.6670  146.2800 C   0  0  0  0  0  3  0  0  0  0  0  0
  193.8480  174.8690  145.3910 C   0  0  0  0  0  0  0  0  0  0  0  0
  195.7710  175.9180  144.2310 C   0  0  0  0  0  0  0  0  0  0  0  0
  196.1270  174.7720  144.9310 C   0  0  0  0  0  3  0  0  0  0  0  0
  194.1240  176.1930  144.3950 S   0  0  0  0  0  0  0  0  0  0  0  0
  195.0390  174.1760  145.5840 C   0  0  0  0  0  3  0  0  0  0  0  0
  196.6870  176.7310  143.3770 C   0  0  0  0  0  2  0  0  0  0  0  0
  197.7150  175.8470  142.6790 C   0  0  0  0  0  2  0  0  0  0  0  0
  197.0240  176.0830  140.4390 O   0  0  0  0  0  0  0  0  0  0  0  0
  197.1940  175.3220  141.3770 C   0  0  0  0  0  0  0  0  0  0  0  0
  195.1420  173.6760  141.6830 O   0  0  0  0  0  1  0  0  0  0  0  0
  196.4390  173.5690  139.4760 O   0  0  0  0  0  1  0  0  0  0  0  0
  196.7940  173.5370  141.1740 P   0  0  0  0  0  0  0  0  0  0  0  0
  189.5140  176.7390  146.7210 C   0  0  0  0  0  2  0  0  0  0  0  0
  188.0400  176.4440  146.5110 C   0  0  0  0  0  2  0  0  0  0  0  0
  187.2250  177.6440  146.9420 C   0  0  0  0  0  2  0  0  0  0  0  0
  185.2620  178.4370  147.5570 C   0  0  0  0  0  1  0  0  0  0  0  0
  185.9050  177.2610  147.1650 O   0  0  0  0  0  0  0  0  0  0  0  0
  190.5070  172.0820  142.9740 O   0  0  0  0  0  0  0  0  0  0  0  0
  190.7240  173.0780  142.0200 C   0  0  0  0  0  2  0  0  0  0  0  0
  189.4110  173.7520  141.6800 C   0  0  0  0  0  2  0  0  0  0  0  0
  189.5310  175.1580  141.8700 O   0  0  0  0  0  0  0  0  0  0  0  0
  187.6910  178.1090  143.1350 C   0  0  0  0  0  3  0  0  0  0  0  0
  186.4130  177.5760  143.3290 C   0  0  0  0  0  0  0  0  0  0  0  0
  186.1710  176.2290  143.0520 C   0  0  0  0  0  3  0  0  0  0  0  0
  188.7370  177.3000  142.6570 C   0  0  0  0  0  0  0  0  0  0  0  0
  185.3210  178.4370  143.8520 C   0  0  0  0  0  1  0  0  0  0  0  0
  188.4900  175.9480  142.3680 C   0  0  0  0  0  0  0  0  0  0  0  0
  187.2040  175.4170  142.5730 C   0  0  0  0  0  3  0  0  0  0  0  0
  190.0240  177.8170  142.4610 O   0  0  0  0  0  0  0  0  0  0  0  0
  190.8950  178.1400  143.5360 C   0  0  0  0  0  1  0  0  0  0  0  0
  1  2  1  0  0  0  0
  2  3  1  0  0  0  0
  3  6  1  0  0  0  0
  4  8  1  6  0  0  0
  4  7  1  0  0  0  0
  5  2  2  0  0  0  0
  5  4  1  0  0  0  0
  6 20  1  0  0  0  0
  7  6  2  0  0  0  0
  8 12  2  0  0  0  0
  9 11  1  0  0  0  0
  9 10  2  0  0  0  0
 10 12  1  0  0  0  0
 11  8  1  0  0  0  0
 13  9  1  0  0  0  0
 14 13  1  0  0  0  0
 15 16  2  0  0  0  0
 16 14  1  0  0  0  0
 18 19  1  0  0  0  0
 19 16  1  0  0  0  0
 19 17  1  0  0  0  0
 21 20  1  0  0  0  0
 21 22  1  0  0  0  0
 22 24  1  0  0  0  0
 24 23  1  0  0  0  0
 25  1  1  0  0  0  0
 26 25  1  0  0  0  0
 27 28  1  0  0  0  0
 27 26  1  0  0  0  0
 28 34  1  0  0  0  0
 29 30  1  0  0  0  0
 30 33  1  0  0  0  0
 31 30  2  0  0  0  0
 32 29  2  0  0  0  0
 34 35  2  0  0  0  0
 34 32  1  0  0  0  0
 35 31  1  0  0  0  0
 36 32  1  0  0  0  0
 36 37  1  0  0  0  0
M  END
>  <MODEL>
5

>  <REMARK>
 VINA RESULT:      -5.3      1.412      2.371
  Name = 
  15 active torsions:
  status: ('A' for Active; 'I' for Inactive)
    1  A    between atoms: N_1  and  O_21
    2  A    between atoms: C_3  and  C_23
    3  A    between atoms: C_3  and  O_37
    4  A    between atoms: C_6  and  C_19
    5  A    between atoms: O_7  and  C_22
    6  A    between atoms: O_7  and  C_31
    7  A    between atoms: C_10  and  C_24
    8  A    between atoms: C_13  and  C_23
    9  A    between atoms: C_13  and  C_32
   10  A    between atoms: C_17  and  O_20
   11  A    between atoms: P_18  and  C_33
   12  A    between atoms: O_21  and  C_35
   13  A    between atoms: C_22  and  C_35
   14  A    between atoms: C_24  and  C_30
   15  A    between atoms: C_30  and  C_33
                            x       y       z     vdW  Elec       q    Type
                         _______ _______ _______ _____ _____    ______ ____

>  <TORSDO>
F 15

$$$$
=
 OpenBabel11042418223D

 37 39  0  0  1  0  0  0  0  0999 V2000
  192.3340  177.5640  144.2630 N   0  0  0  0  0  2  0  0  0  0  0  0
  191.0350  177.2680  143.7510 C   0  0  0  0  0  0  0  0  0  0  0  0
  189.8620  178.1080  144.1840 C   0  0  0  0  0  2  0  0  0  0  0  0
  189.5500  175.9660  142.3550 C   0  0  2  0  0  3  0  0  0  0  0  0
  190.8640  176.2710  142.9290 N   0  0  0  0  0  0  0  0  0  0  0  0
  188.5940  177.2930  144.1880 C   0  0  0  0  0  0  0  0  0  0  0  0
  188.4530  176.2590  143.3440 C   0  0  0  0  0  3  0  0  0  0  0  0
  189.4790  174.5490  141.8840 C   0  0  0  0  0  0  0  0  0  0  0  0
  189.8550  172.3430  140.8200 C   0  0  0  0  0  0  0  0  0  0  0  0
  188.5950  172.4540  141.3930 C   0  0  0  0  0  3  0  0  0  0  0  0
  190.7000  173.7770  141.0280 S   0  0  0  0  0  0  0  0  0  0  0  0
  188.3800  173.7030  141.9930 C   0  0  0  0  0  3  0  0  0  0  0  0
  190.3540  171.1690  140.0450 C   0  0  0  0  0  2  0  0  0  0  0  0
  189.9480  171.2670  138.5780 C   0  0  0  0  0  2  0  0  0  0  0  0
  192.1850  171.8990  138.1960 O   0  0  0  0  0  0  0  0  0  0  0  0
  191.0590  171.8160  137.7360 C   0  0  0  0  0  0  0  0  0  0  0  0
  189.2740  171.4810  135.8080 O   0  0  0  0  0  1  0  0  0  0  0  0
  189.9580  173.8780  136.3990 O   0  0  0  0  0  1  0  0  0  0  0  0
  190.7430  172.3800  136.0130 P   0  0  0  0  0  0  0  0  0  0  0  0
  187.5210  177.6120  145.1770 C   0  0  0  0  0  2  0  0  0  0  0  0
  186.2000  176.9960  144.7550 C   0  0  0  0  0  2  0  0  0  0  0  0
  185.3140  176.8360  145.9710 C   0  0  0  0  0  2  0  0  0  0  0  0
  184.0510  178.6310  146.1940 C   0  0  0  0  0  1  0  0  0  0  0  0
  185.2320  178.0460  146.6560 O   0  0  0  0  0  0  0  0  0  0  0  0
  193.4020  176.7810  143.9810 O   0  0  0  0  0  0  0  0  0  0  0  0
  194.0680  176.6240  145.1980 C   0  0  0  0  0  2  0  0  0  0  0  0
  194.8010  175.2990  145.2100 C   0  0  0  0  0  2  0  0  0  0  0  0
  193.9510  174.2860  145.7360 O   0  0  0  0  0  0  0  0  0  0  0  0
  190.2520  174.1910  145.7630 C   0  0  0  0  0  3  0  0  0  0  0  0
  189.9630  174.9610  146.8950 C   0  0  0  0  0  0  0  0  0  0  0  0
  191.0040  175.5230  147.6380 C   0  0  0  0  0  3  0  0  0  0  0  0
  191.5830  173.9730  145.3690 C   0  0  0  0  0  0  0  0  0  0  0  0
  188.5520  175.1990  147.2910 C   0  0  0  0  0  1  0  0  0  0  0  0
  192.6290  174.5290  146.1230 C   0  0  0  0  0  0  0  0  0  0  0  0
  192.3320  175.3080  147.2550 C   0  0  0  0  0  3  0  0  0  0  0  0
  191.8890  173.2070  144.2370 O   0  0  0  0  0  0  0  0  0  0  0  0
  191.8350  171.7860  144.2310 C   0  0  0  0  0  1  0  0  0  0  0  0
  2  3  1  0  0  0  0
  2  1  1  0  0  0  0
  3  6  1  0  0  0  0
  4  8  1  1  0  0  0
  4  5  1  0  0  0  0
  4  7  1  0  0  0  0
  5  2  2  0  0  0  0
  6 20  1  0  0  0  0
  7  6  2  0  0  0  0
  8 12  2  0  0  0  0
  9 11  1  0  0  0  0
  9 10  2  0  0  0  0
 10 12  1  0  0  0  0
 11  8  1  0  0  0  0
 13  9  1  0  0  0  0
 14 13  1  0  0  0  0
 16 15  2  0  0  0  0
 16 14  1  0  0  0  0
 17 19  1  0  0  0  0
 19 18  1  0  0  0  0
 19 16  1  0  0  0  0
 21 20  1  0  0  0  0
 21 22  1  0  0  0  0
 22 24  1  0  0  0  0
 23 24  1  0  0  0  0
 25  1  1  0  0  0  0
 25 26  1  0  0  0  0
 26 27  1  0  0  0  0
 27 28  1  0  0  0  0
 28 34  1  0  0  0  0
 29 30  1  0  0  0  0
 30 33  1  0  0  0  0
 30 31  2  0  0  0  0
 32 29  2  0  0  0  0
 32 34  1  0  0  0  0
 34 35  2  0  0  0  0
 35 31  1  0  0  0  0
 36 32  1  0  0  0  0
 37 36  1  0  0  0  0
M  END
>  <MODEL>
6

>  <REMARK>
 VINA RESULT:      -5.1      2.889      5.849
  Name = 
  15 active torsions:
  status: ('A' for Active; 'I' for Inactive)
    1  A    between atoms: N_1  and  O_21
    2  A    between atoms: C_3  and  C_23
    3  A    between atoms: C_3  and  O_37
    4  A    between atoms: C_6  and  C_19
    5  A    between atoms: O_7  and  C_22
    6  A    between atoms: O_7  and  C_31
    7  A    between atoms: C_10  and  C_24
    8  A    between atoms: C_13  and  C_23
    9  A    between atoms: C_13  and  C_32
   10  A    between atoms: C_17  and  O_20
   11  A    between atoms: P_18  and  C_33
   12  A    between atoms: O_21  and  C_35
   13  A    between atoms: C_22  and  C_35
   14  A    between atoms: C_24  and  C_30
   15  A    between atoms: C_30  and  C_33
                            x       y       z     vdW  Elec       q    Type
                         _______ _______ _______ _____ _____    ______ ____

>  <TORSDO>
F 15

$$$$
=
 OpenBabel11042418223D

 37 39  0  0  1  0  0  0  0  0999 V2000
  186.1090  177.5150  140.0000 N   0  0  0  0  0  2  0  0  0  0  0  0
  186.4370  177.4100  141.3840 C   0  0  0  0  0  0  0  0  0  0  0  0
  185.4010  177.7670  142.4180 C   0  0  0  0  0  2  0  0  0  0  0  0
  187.9840  176.8690  143.1650 C   0  0  2  0  0  3  0  0  0  0  0  0
  187.6280  177.0250  141.7510 N   0  0  0  0  0  0  0  0  0  0  0  0
  186.0540  178.3040  143.6660 C   0  0  0  0  0  0  0  0  0  0  0  0
  187.2890  177.9050  144.0070 C   0  0  0  0  0  3  0  0  0  0  0  0
  189.4640  176.9270  143.3610 C   0  0  0  0  0  0  0  0  0  0  0  0
  191.8280  176.5290  143.9920 C   0  0  0  0  0  0  0  0  0  0  0  0
  191.6220  177.7920  143.4540 C   0  0  0  0  0  3  0  0  0  0  0  0
  190.3730  175.6950  144.0520 S   0  0  0  0  0  0  0  0  0  0  0  0
  190.2840  178.0200  143.1010 C   0  0  0  0  0  3  0  0  0  0  0  0
  193.1220  176.0160  144.5310 C   0  0  0  0  0  2  0  0  0  0  0  0
  194.1280  175.7800  143.4080 C   0  0  0  0  0  2  0  0  0  0  0  0
  196.0510  177.0320  143.9440 O   0  0  0  0  0  0  0  0  0  0  0  0
  195.5370  175.9270  143.8950 C   0  0  0  0  0  0  0  0  0  0  0  0
  196.0700  174.5390  146.0870 O   0  0  0  0  0  1  0  0  0  0  0  0
  195.3400  173.2430  144.0020 O   0  0  0  0  0  1  0  0  0  0  0  0
  196.5130  174.4540  144.4120 P   0  0  0  0  0  0  0  0  0  0  0  0
  185.3370  179.3270  144.4850 C   0  0  0  0  0  2  0  0  0  0  0  0
  184.0670  178.7450  145.0780 C   0  0  0  0  0  2  0  0  0  0  0  0
  184.3280  178.3380  146.5120 C   0  0  0  0  0  2  0  0  0  0  0  0
  185.9460  177.1750  147.4570 C   0  0  0  0  0  1  0  0  0  0  0  0
  184.8950  177.0660  146.5440 O   0  0  0  0  0  0  0  0  0  0  0  0
  187.0340  177.2990  139.0340 O   0  0  0  0  0  0  0  0  0  0  0  0
  186.3690  176.5610  138.0530 C   0  0  0  0  0  2  0  0  0  0  0  0
  187.2300  175.3920  137.6250 C   0  0  0  0  0  2  0  0  0  0  0  0
  187.8110  174.7790  138.7700 O   0  0  0  0  0  0  0  0  0  0  0  0
  190.4080  172.3470  139.7900 C   0  0  0  0  0  3  0  0  0  0  0  0
  190.7610  171.7870  138.5590 C   0  0  0  0  0  0  0  0  0  0  0  0
  190.1420  172.2320  137.3880 C   0  0  0  0  0  3  0  0  0  0  0  0
  189.4290  173.3540  139.8620 C   0  0  0  0  0  0  0  0  0  0  0  0
  191.8090  170.7350  138.4940 C   0  0  0  0  0  1  0  0  0  0  0  0
  188.8000  173.7940  138.6860 C   0  0  0  0  0  0  0  0  0  0  0  0
  189.1660  173.2310  137.4500 C   0  0  0  0  0  3  0  0  0  0  0  0
  189.0660  173.9280  141.0870 O   0  0  0  0  0  0  0  0  0  0  0  0
  188.1980  173.2850  142.0110 C   0  0  0  0  0  1  0  0  0  0  0  0
  1  2  1  0  0  0  0
  2  5  2  0  0  0  0
  2  3  1  0  0  0  0
  3  6  1  0  0  0  0
  4  8  1  6  0  0  0
  4  7  1  0  0  0  0
  5  4  1  0  0  0  0
  6  7  2  0  0  0  0
  6 20  1  0  0  0  0
  8 11  1  0  0  0  0
  9 11  1  0  0  0  0
  9 13  1  0  0  0  0
 10  9  2  0  0  0  0
 12  8  2  0  0  0  0
 12 10  1  0  0  0  0
 14 16  1  0  0  0  0
 14 13  1  0  0  0  0
 16 15  2  0  0  0  0
 16 19  1  0  0  0  0
 18 19  1  0  0  0  0
 19 17  1  0  0  0  0
 20 21  1  0  0  0  0
 21 22  1  0  0  0  0
 22 24  1  0  0  0  0
 24 23  1  0  0  0  0
 25  1  1  0  0  0  0
 26 25  1  0  0  0  0
 27 26  1  0  0  0  0
 27 28  1  0  0  0  0
 29 32  1  0  0  0  0
 30 29  2  0  0  0  0
 31 35  2  0  0  0  0
 31 30  1  0  0  0  0
 32 36  1  0  0  0  0
 33 30  1  0  0  0  0
 34 28  1  0  0  0  0
 34 32  2  0  0  0  0
 35 34  1  0  0  0  0
 36 37  1  0  0  0  0
M  END
>  <MODEL>
7

>  <REMARK>
 VINA RESULT:      -5.0      3.114      5.179
  Name = 
  15 active torsions:
  status: ('A' for Active; 'I' for Inactive)
    1  A    between atoms: N_1  and  O_21
    2  A    between atoms: C_3  and  C_23
    3  A    between atoms: C_3  and  O_37
    4  A    between atoms: C_6  and  C_19
    5  A    between atoms: O_7  and  C_22
    6  A    between atoms: O_7  and  C_31
    7  A    between atoms: C_10  and  C_24
    8  A    between atoms: C_13  and  C_23
    9  A    between atoms: C_13  and  C_32
   10  A    between atoms: C_17  and  O_20
   11  A    between atoms: P_18  and  C_33
   12  A    between atoms: O_21  and  C_35
   13  A    between atoms: C_22  and  C_35
   14  A    between atoms: C_24  and  C_30
   15  A    between atoms: C_30  and  C_33
                            x       y       z     vdW  Elec       q    Type
                         _______ _______ _______ _____ _____    ______ ____

>  <TORSDO>
F 15

$$$$
=
 OpenBabel11042418223D

 37 39  0  0  1  0  0  0  0  0999 V2000
  193.5340  171.7850  144.3200 N   0  0  0  0  0  2  0  0  0  0  0  0
  192.2860  172.2670  143.8250 C   0  0  0  0  0  0  0  0  0  0  0  0
  191.9850  172.1610  142.3520 C   0  0  0  0  0  2  0  0  0  0  0  0
  190.1130  173.2770  144.1650 C   0  0  2  0  0  3  0  0  0  0  0  0
  191.4210  172.8090  144.6360 N   0  0  0  0  0  0  0  0  0  0  0  0
  191.0850  173.2870  141.9090 C   0  0  0  0  0  0  0  0  0  0  0  0
  190.2180  173.8380  142.7720 C   0  0  0  0  0  3  0  0  0  0  0  0
  189.5280  174.2830  145.1020 C   0  0  0  0  0  0  0  0  0  0  0  0
  188.4450  176.2460  146.1600 C   0  0  0  0  0  0  0  0  0  0  0  0
  189.0810  175.4230  147.0810 C   0  0  0  0  0  3  0  0  0  0  0  0
  188.6510  175.6290  144.6130 S   0  0  0  0  0  0  0  0  0  0  0  0
  189.6970  174.3140  146.4820 C   0  0  0  0  0  3  0  0  0  0  0  0
  187.7670  177.5380  146.4760 C   0  0  0  0  0  2  0  0  0  0  0  0
  186.3220  177.3070  146.9050 C   0  0  0  0  0  2  0  0  0  0  0  0
  184.1840  178.0370  146.2350 O   0  0  0  0  0  0  0  0  0  0  0  0
  185.3570  177.9080  145.9290 C   0  0  0  0  0  0  0  0  0  0  0  0
  184.4370  178.0580  143.4500 O   0  0  0  0  0  1  0  0  0  0  0  0
  185.5670  180.1370  144.4320 O   0  0  0  0  0  1  0  0  0  0  0  0
  185.9200  178.4470  144.2620 P   0  0  0  0  0  0  0  0  0  0  0  0
  191.2080  173.8180  140.5180 C   0  0  0  0  0  2  0  0  0  0  0  0
  190.1030  173.2700  139.6340 C   0  0  0  0  0  2  0  0  0  0  0  0
  190.5720  173.2650  138.1950 C   0  0  0  0  0  2  0  0  0  0  0  0
  189.6970  171.2480  138.3570 C   0  0  0  0  0  1  0  0  0  0  0  0
  190.7440  171.9530  137.7610 O   0  0  0  0  0  0  0  0  0  0  0  0
  193.8900  171.9440  145.6170 O   0  0  0  0  0  0  0  0  0  0  0  0
  195.2700  172.1570  145.5890 C   0  0  0  0  0  2  0  0  0  0  0  0
  195.6380  172.9480  144.3510 C   0  0  0  0  0  2  0  0  0  0  0  0
  195.6080  174.3400  144.6440 O   0  0  0  0  0  0  0  0  0  0  0  0
  193.2800  176.4230  142.6600 C   0  0  0  0  0  3  0  0  0  0  0  0
  192.3330  176.7770  143.6260 C   0  0  0  0  0  0  0  0  0  0  0  0
  192.4810  176.3330  144.9420 C   0  0  0  0  0  3  0  0  0  0  0  0
  194.3800  175.6170  143.0010 C   0  0  0  0  0  0  0  0  0  0  0  0
  191.1840  177.6440  143.2580 C   0  0  0  0  0  1  0  0  0  0  0  0
  194.5220  175.1610  144.3210 C   0  0  0  0  0  0  0  0  0  0  0  0
  193.5710  175.5270  145.2890 C   0  0  0  0  0  3  0  0  0  0  0  0
  195.3390  175.2560  142.0460 O   0  0  0  0  0  0  0  0  0  0  0  0
  196.2060  176.2010  141.4310 C   0  0  0  0  0  1  0  0  0  0  0  0
  1 25  1  0  0  0  0
  2  1  1  0  0  0  0
  2  5  2  0  0  0  0
  3  2  1  0  0  0  0
  4  5  1  0  0  0  0
  4  8  1  1  0  0  0
  6  3  1  0  0  0  0
  6  7  2  0  0  0  0
  7  4  1  0  0  0  0
  8 12  2  0  0  0  0
  9 13  1  0  0  0  0
  9 10  2  0  0  0  0
 11  8  1  0  0  0  0
 11  9  1  0  0  0  0
 12 10  1  0  0  0  0
 13 14  1  0  0  0  0
 16 15  2  0  0  0  0
 16 14  1  0  0  0  0
 17 19  1  0  0  0  0
 19 18  1  0  0  0  0
 19 16  1  0  0  0  0
 20  6  1  0  0  0  0
 21 20  1  0  0  0  0
 22 21  1  0  0  0  0
 24 22  1  0  0  0  0
 24 23  1  0  0  0  0
 26 25  1  0  0  0  0
 27 28  1  0  0  0  0
 27 26  1  0  0  0  0
 29 32  2  0  0  0  0
 29 30  1  0  0  0  0
 30 31  2  0  0  0  0
 31 35  1  0  0  0  0
 32 34  1  0  0  0  0
 33 30  1  0  0  0  0
 34 28  1  0  0  0  0
 34 35  2  0  0  0  0
 36 32  1  0  0  0  0
 37 36  1  0  0  0  0
M  END
>  <MODEL>
8

>  <REMARK>
 VINA RESULT:      -5.0      3.037      7.730
  Name = 
  15 active torsions:
  status: ('A' for Active; 'I' for Inactive)
    1  A    between atoms: N_1  and  O_21
    2  A    between atoms: C_3  and  C_23
    3  A    between atoms: C_3  and  O_37
    4  A    between atoms: C_6  and  C_19
    5  A    between atoms: O_7  and  C_22
    6  A    between atoms: O_7  and  C_31
    7  A    between atoms: C_10  and  C_24
    8  A    between atoms: C_13  and  C_23
    9  A    between atoms: C_13  and  C_32
   10  A    between atoms: C_17  and  O_20
   11  A    between atoms: P_18  and  C_33
   12  A    between atoms: O_21  and  C_35
   13  A    between atoms: C_22  and  C_35
   14  A    between atoms: C_24  and  C_30
   15  A    between atoms: C_30  and  C_33
                            x       y       z     vdW  Elec       q    Type
                         _______ _______ _______ _____ _____    ______ ____

>  <TORSDO>
F 15

$$$$
=
 OpenBabel11042418223D

 37 39  0  0  1  0  0  0  0  0999 V2000
  189.4090  175.7620  147.3110 N   0  0  0  0  0  2  0  0  0  0  0  0
  190.4510  175.0250  146.6720 C   0  0  0  0  0  0  0  0  0  0  0  0
  191.8800  175.2510  147.0930 C   0  0  0  0  0  2  0  0  0  0  0  0
  191.2120  173.3740  145.0760 C   0  0  2  0  0  3  0  0  0  0  0  0
  190.1690  174.1760  145.7240 N   0  0  0  0  0  0  0  0  0  0  0  0
  192.8190  175.0210  145.9360 C   0  0  0  0  0  0  0  0  0  0  0  0
  192.4940  174.1560  144.9630 C   0  0  0  0  0  3  0  0  0  0  0  0
  190.7670  172.8850  143.7360 C   0  0  0  0  0  0  0  0  0  0  0  0
  190.5800  172.2020  141.3610 C   0  0  0  0  0  0  0  0  0  0  0  0
  189.3480  172.2700  141.9980 C   0  0  0  0  0  3  0  0  0  0  0  0
  191.7960  172.6370  142.4320 S   0  0  0  0  0  0  0  0  0  0  0  0
  189.4530  172.6590  143.3400 C   0  0  0  0  0  3  0  0  0  0  0  0
  190.7940  171.8920  139.9160 C   0  0  0  0  0  2  0  0  0  0  0  0
  190.0680  172.8970  139.0260 C   0  0  0  0  0  2  0  0  0  0  0  0
  191.9050  174.1520  138.2500 O   0  0  0  0  0  0  0  0  0  0  0  0
  190.9690  173.4290  137.9540 C   0  0  0  0  0  0  0  0  0  0  0  0
  189.4320  171.8420  136.4930 O   0  0  0  0  0  1  0  0  0  0  0  0
  189.5780  174.3100  135.8220 O   0  0  0  0  0  1  0  0  0  0  0  0
  190.6730  173.0140  136.1850 P   0  0  0  0  0  0  0  0  0  0  0  0
  194.0860  175.8080  145.8550 C   0  0  0  0  0  2  0  0  0  0  0  0
  195.2930  174.8900  145.9110 C   0  0  0  0  0  2  0  0  0  0  0  0
  196.1170  175.0730  144.6550 C   0  0  0  0  0  2  0  0  0  0  0  0
  197.4030  173.3000  144.4000 C   0  0  0  0  0  1  0  0  0  0  0  0
  196.2020  173.8650  143.9670 O   0  0  0  0  0  0  0  0  0  0  0  0
  188.1210  175.6660  146.9030 O   0  0  0  0  0  0  0  0  0  0  0  0
  187.6960  176.9850  146.7330 C   0  0  0  0  0  2  0  0  0  0  0  0
  186.9510  177.1140  145.4200 C   0  0  0  0  0  2  0  0  0  0  0  0
  187.7040  177.9190  144.5200 O   0  0  0  0  0  0  0  0  0  0  0  0
  190.2510  176.2380  142.4270 C   0  0  0  0  0  3  0  0  0  0  0  0
  191.4340  176.7670  142.9520 C   0  0  0  0  0  0  0  0  0  0  0  0
  191.3800  177.6730  144.0140 C   0  0  0  0  0  3  0  0  0  0  0  0
  189.0040  176.6140  142.9560 C   0  0  0  0  0  0  0  0  0  0  0  0
  192.7460  176.3480  142.3960 C   0  0  0  0  0  1  0  0  0  0  0  0
  188.9510  177.5330  144.0160 C   0  0  0  0  0  0  0  0  0  0  0  0
  190.1440  178.0550  144.5450 C   0  0  0  0  0  3  0  0  0  0  0  0
  187.8100  176.0910  142.4430 O   0  0  0  0  0  0  0  0  0  0  0  0
  187.1780  176.6120  141.2820 C   0  0  0  0  0  1  0  0  0  0  0  0
  2  3  1  0  0  0  0
  2  1  1  0  0  0  0
  4  8  1  6  0  0  0
  4  5  1  0  0  0  0
  5  2  2  0  0  0  0
  6  3  1  0  0  0  0
  7  4  1  0  0  0  0
  7  6  2  0  0  0  0
  9 10  2  0  0  0  0
  9 11  1  0  0  0  0
 10 12  1  0  0  0  0
 11  8  1  0  0  0  0
 12  8  2  0  0  0  0
 13  9  1  0  0  0  0
 14 13  1  0  0  0  0
 16 15  2  0  0  0  0
 16 14  1  0  0  0  0
 18 19  1  0  0  0  0
 19 17  1  0  0  0  0
 19 16  1  0  0  0  0
 20 21  1  0  0  0  0
 20  6  1  0  0  0  0
 22 21  1  0  0  0  0
 24 23  1  0  0  0  0
 24 22  1  0  0  0  0
 25  1  1  0  0  0  0
 26 25  1  0  0  0  0
 27 26  1  0  0  0  0
 28 27  1  0  0  0  0
 29 30  2  0  0  0  0
 29 32  1  0  0  0  0
 30 31  1  0  0  0  0
 31 35  2  0  0  0  0
 32 34  2  0  0  0  0
 33 30  1  0  0  0  0
 34 28  1  0  0  0  0
 34 35  1  0  0  0  0
 36 32  1  0  0  0  0
 37 36  1  0  0  0  0
M  END
>  <MODEL>
9

>  <REMARK>
 VINA RESULT:      -4.9      2.619      6.038
  Name = 
  15 active torsions:
  status: ('A' for Active; 'I' for Inactive)
    1  A    between atoms: N_1  and  O_21
    2  A    between atoms: C_3  and  C_23
    3  A    between atoms: C_3  and  O_37
    4  A    between atoms: C_6  and  C_19
    5  A    between atoms: O_7  and  C_22
    6  A    between atoms: O_7  and  C_31
    7  A    between atoms: C_10  and  C_24
    8  A    between atoms: C_13  and  C_23
    9  A    between atoms: C_13  and  C_32
   10  A    between atoms: C_17  and  O_20
   11  A    between atoms: P_18  and  C_33
   12  A    between atoms: O_21  and  C_35
   13  A    between atoms: C_22  and  C_35
   14  A    between atoms: C_24  and  C_30
   15  A    between atoms: C_30  and  C_33
                            x       y       z     vdW  Elec       q    Type
                         _______ _______ _______ _____ _____    ______ ____

>  <TORSDO>
F 15

$$$$
