=
 OpenBabel11042418553D

 31 34  0  0  1  0  0  0  0  0999 V2000
  189.0630  174.7400  142.8490 C   0  0  1  0  0  3  0  0  0  0  0  0
  189.4220  177.1910  144.0420 N   0  0  0  0  0  0  0  0  0  0  0  0
  187.4400  175.7710  141.4350 C   0  0  0  0  0  2  0  0  0  0  0  0
  188.8610  176.2520  143.3770 C   0  0  0  0  0  0  0  0  0  0  0  0
  188.6080  174.8860  141.4140 C   0  0  2  0  0  3  0  0  0  0  0  0
  187.8640  176.7230  142.5760 C   0  0  2  0  0  3  0  0  0  0  0  0
  190.5650  176.7580  146.0430 C   0  0  0  0  0  3  0  0  0  0  0  0
  194.0640  175.8060  146.6780 O   0  0  0  0  0  1  0  0  0  0  0  0
  194.3430  176.4910  144.2940 O   0  0  0  0  0  1  0  0  0  0  0  0
  190.6000  177.2990  144.7240 C   0  0  0  0  0  0  0  0  0  0  0  0
  192.9650  176.4290  146.0600 C   0  0  0  0  0  0  0  0  0  0  0  0
  191.7680  175.8680  148.0980 C   0  0  0  0  0  1  0  0  0  0  0  0
  193.0640  176.8690  144.8150 C   0  0  0  0  0  0  0  0  0  0  0  0
  191.8990  177.4000  144.0790 C   0  0  0  0  0  3  0  0  0  0  0  0
  191.7260  176.3870  146.7390 C   0  0  0  0  0  0  0  0  0  0  0  0
  187.1000  177.7990  143.1780 C   0  0  0  0  0  0  0  0  0  0  0  0
  186.5850  179.1040  142.7170 C   0  0  0  0  0  3  0  0  0  0  0  0
  186.3010  176.4620  145.1140 C   0  0  0  0  0  3  0  0  0  0  0  0
  185.5100  178.4700  144.4130 N   0  0  0  0  0  0  0  0  0  0  0  0
  185.2590  176.8920  145.9860 C   0  0  0  0  0  3  0  0  0  0  0  0
  185.5730  179.4970  143.5750 N   0  0  0  0  0  2  0  0  0  0  0  0
  186.3440  177.5580  144.2130 C   0  0  0  0  0  0  0  0  0  0  0  0
  183.7030  178.8200  146.0500 N   0  0  0  0  0  1  0  0  0  0  0  0
  184.7820  178.0420  145.4780 C   0  0  0  0  0  0  0  0  0  0  0  0
  188.5640  173.6880  140.5340 C   0  0  0  0  0  0  0  0  0  0  0  0
  189.5790  173.6980  139.4060 C   0  0  0  0  0  1  0  0  0  0  0  0
  187.9200  172.7310  140.8080 O   0  0  0  0  0  0  0  0  0  0  0  0
  191.5490  174.5840  142.7420 O   0  0  0  0  0  1  0  0  0  0  0  0
  190.3400  173.9760  143.1460 C   0  0  1  0  0  3  0  0  0  0  0  0
  191.6920  173.3440  144.9780 O   0  0  0  0  0  1  0  0  0  0  0  0
  190.3840  173.6520  144.6060 C   0  0  0  0  0  2  0  0  0  0  0  0
  1 29  1  6  0  0  0
  1  4  1  0  0  0  0
  2 10  1  0  0  0  0
  3  6  1  0  0  0  0
  4  2  2  0  0  0  0
  5 25  1  1  0  0  0
  5  3  1  0  0  0  0
  5  1  1  0  0  0  0
  6 16  1  1  0  0  0
  6  4  1  0  0  0  0
  7 15  1  0  0  0  0
  9 13  1  0  0  0  0
 10  7  2  0  0  0  0
 11  8  1  0  0  0  0
 11 15  2  0  0  0  0
 13 11  1  0  0  0  0
 14 10  1  0  0  0  0
 14 13  2  0  0  0  0
 15 12  1  0  0  0  0
 16 22  1  0  0  0  0
 17 16  2  0  0  0  0
 17 21  1  0  0  0  0
 18 20  1  0  0  0  0
 19 24  1  0  0  0  0
 21 19  1  0  0  0  0
 22 19  1  0  0  0  0
 22 18  2  0  0  0  0
 24 20  2  0  0  0  0
 24 23  1  0  0  0  0
 25 27  2  0  0  0  0
 26 25  1  0  0  0  0
 29 28  1  1  0  0  0
 29 31  1  0  0  0  0
 31 30  1  0  0  0  0
M  END
>  <MODEL>
1

>  <REMARK>
 VINA RESULT:      -7.4      0.000      0.000
  Name = 
  5 active torsions:
  status: ('A' for Active; 'I' for Inactive)
    1  A    between atoms: C_3  and  C_31
    2  A    between atoms: C_6  and  C_28
    3  A    between atoms: C_9  and  C_27
    4  A    between atoms: C_11  and  N_21
    5  A    between atoms: C_26  and  C_27
                            x       y       z     vdW  Elec       q    Type
                         _______ _______ _______ _____ _____    ______ ____

>  <TORSDO>
F 5

$$$$
=
 OpenBabel11042418553D

 31 34  0  0  1  0  0  0  0  0999 V2000
  188.3020  175.3520  142.6720 C   0  0  1  0  0  3  0  0  0  0  0  0
  188.7640  176.4140  145.1660 N   0  0  0  0  0  0  0  0  0  0  0  0
  189.9700  173.7160  143.1630 C   0  0  0  0  0  2  0  0  0  0  0  0
  188.9680  175.7580  144.0860 C   0  0  0  0  0  0  0  0  0  0  0  0
  188.6110  173.8720  142.6370 C   0  0  2  0  0  3  0  0  0  0  0  0
  189.9550  174.8310  144.2350 C   0  0  2  0  0  3  0  0  0  0  0  0
  187.3900  178.2650  144.7360 C   0  0  0  0  0  3  0  0  0  0  0  0
  183.8480  178.8880  145.5240 O   0  0  0  0  0  1  0  0  0  0  0  0
  184.1610  176.8970  146.9960 O   0  0  0  0  0  1  0  0  0  0  0  0
  187.7470  177.2040  145.6190 C   0  0  0  0  0  0  0  0  0  0  0  0
  185.1600  178.4040  145.6720 C   0  0  0  0  0  0  0  0  0  0  0  0
  185.7290  180.0220  143.9520 C   0  0  0  0  0  1  0  0  0  0  0  0
  185.4050  177.3870  146.4830 C   0  0  0  0  0  0  0  0  0  0  0  0
  186.7390  176.7560  146.5650 C   0  0  0  0  0  3  0  0  0  0  0  0
  186.1450  178.9100  144.7940 C   0  0  0  0  0  0  0  0  0  0  0  0
  191.0480  175.2810  145.0760 C   0  0  0  0  0  0  0  0  0  0  0  0
  191.4170  175.1070  146.4950 C   0  0  0  0  0  3  0  0  0  0  0  0
  192.5420  175.9200  143.1960 C   0  0  0  0  0  3  0  0  0  0  0  0
  193.1140  175.6600  145.3770 N   0  0  0  0  0  0  0  0  0  0  0  0
  193.9260  176.2130  143.3620 C   0  0  0  0  0  3  0  0  0  0  0  0
  192.7640  175.3920  146.6290 N   0  0  0  0  0  2  0  0  0  0  0  0
  192.1860  175.6170  144.5370 C   0  0  0  0  0  0  0  0  0  0  0  0
  195.5290  176.1300  145.2510 N   0  0  0  0  0  1  0  0  0  0  0  0
  194.2210  175.9690  144.6500 C   0  0  0  0  0  0  0  0  0  0  0  0
  188.2250  173.0720  141.4440 C   0  0  0  0  0  0  0  0  0  0  0  0
  189.3020  172.9680  140.3800 C   0  0  0  0  0  1  0  0  0  0  0  0
  187.2330  172.4230  141.4180 O   0  0  0  0  0  0  0  0  0  0  0  0
  185.9470  175.8280  143.3370 O   0  0  0  0  0  1  0  0  0  0  0  0
  186.9090  175.8270  142.3030 C   0  0  1  0  0  3  0  0  0  0  0  0
  185.7710  177.5440  141.1450 O   0  0  0  0  0  1  0  0  0  0  0  0
  187.0070  177.1850  141.6820 C   0  0  0  0  0  2  0  0  0  0  0  0
  1 29  1  1  0  0  0
  1  4  1  0  0  0  0
  2 10  1  0  0  0  0
  3  6  1  0  0  0  0
  4  6  1  0  0  0  0
  4  2  2  0  0  0  0
  5 25  1  6  0  0  0
  5  1  1  0  0  0  0
  5  3  1  0  0  0  0
  6 16  1  6  0  0  0
  7 15  2  0  0  0  0
  7 10  1  0  0  0  0
  8 11  1  0  0  0  0
 10 14  2  0  0  0  0
 11 13  2  0  0  0  0
 12 15  1  0  0  0  0
 13 14  1  0  0  0  0
 13  9  1  0  0  0  0
 15 11  1  0  0  0  0
 16 17  2  0  0  0  0
 17 21  1  0  0  0  0
 18 20  1  0  0  0  0
 18 22  2  0  0  0  0
 19 21  1  0  0  0  0
 20 24  2  0  0  0  0
 22 16  1  0  0  0  0
 22 19  1  0  0  0  0
 24 23  1  0  0  0  0
 24 19  1  0  0  0  0
 26 25  1  0  0  0  0
 27 25  2  0  0  0  0
 29 28  1  1  0  0  0
 30 31  1  0  0  0  0
 31 29  1  0  0  0  0
M  END
>  <MODEL>
2

>  <REMARK>
 VINA RESULT:      -7.1      3.234      6.560
  Name = 
  5 active torsions:
  status: ('A' for Active; 'I' for Inactive)
    1  A    between atoms: C_3  and  C_31
    2  A    between atoms: C_6  and  C_28
    3  A    between atoms: C_9  and  C_27
    4  A    between atoms: C_11  and  N_21
    5  A    between atoms: C_26  and  C_27
                            x       y       z     vdW  Elec       q    Type
                         _______ _______ _______ _____ _____    ______ ____

>  <TORSDO>
F 5

$$$$
=
 OpenBabel11042418553D

 31 34  0  0  1  0  0  0  0  0999 V2000
  186.2240  177.2270  143.9030 C   0  0  1  0  0  3  0  0  0  0  0  0
  188.6460  175.9340  143.7540 N   0  0  0  0  0  0  0  0  0  0  0  0
  186.9960  178.2410  145.9210 C   0  0  0  0  0  2  0  0  0  0  0  0
  187.6490  176.5560  144.2600 C   0  0  0  0  0  0  0  0  0  0  0  0
  186.3440  178.5400  144.6430 C   0  0  2  0  0  3  0  0  0  0  0  0
  187.9610  177.1260  145.4580 C   0  0  2  0  0  3  0  0  0  0  0  0
  190.3320  175.2500  142.2740 C   0  0  0  0  0  3  0  0  0  0  0  0
  190.3730  172.6210  139.6980 O   0  0  0  0  0  1  0  0  0  0  0  0
  187.9070  172.6600  140.0790 O   0  0  0  0  0  1  0  0  0  0  0  0
  188.9420  175.4700  142.5050 C   0  0  0  0  0  0  0  0  0  0  0  0
  189.8710  173.6470  140.5180 C   0  0  0  0  0  0  0  0  0  0  0  0
  192.2060  174.1680  140.9410 C   0  0  0  0  0  1  0  0  0  0  0  0
  188.5670  173.7600  140.7150 C   0  0  0  0  0  0  0  0  0  0  0  0
  188.0030  174.7310  141.6760 C   0  0  0  0  0  3  0  0  0  0  0  0
  190.8050  174.4070  141.2570 C   0  0  0  0  0  0  0  0  0  0  0  0
  188.8500  176.3150  146.2690 C   0  0  0  0  0  0  0  0  0  0  0  0
  188.7030  175.0840  147.0720 C   0  0  0  0  0  3  0  0  0  0  0  0
  190.9480  177.2720  145.3440 C   0  0  0  0  0  3  0  0  0  0  0  0
  190.7300  175.3820  146.5820 N   0  0  0  0  0  0  0  0  0  0  0  0
  192.2320  176.6940  145.5580 C   0  0  0  0  0  3  0  0  0  0  0  0
  189.9620  174.5410  147.2620 N   0  0  0  0  0  2  0  0  0  0  0  0
  190.1350  176.3510  146.0580 C   0  0  0  0  0  0  0  0  0  0  0  0
  193.0760  174.6330  146.6450 N   0  0  0  0  0  1  0  0  0  0  0  0
  192.0320  175.5460  146.2270 C   0  0  0  0  0  0  0  0  0  0  0  0
  185.1970  179.4870  144.6450 C   0  0  0  0  0  0  0  0  0  0  0  0
  184.0150  179.0410  145.4850 C   0  0  0  0  0  1  0  0  0  0  0  0
  185.2800  180.5740  144.1810 O   0  0  0  0  0  0  0  0  0  0  0  0
  184.3330  177.5410  142.3090 O   0  0  0  0  0  1  0  0  0  0  0  0
  185.6990  177.2250  142.4790 C   0  0  1  0  0  3  0  0  0  0  0  0
  186.6870  177.5960  140.3650 O   0  0  0  0  0  1  0  0  0  0  0  0
  186.5500  178.1300  141.6460 C   0  0  0  0  0  2  0  0  0  0  0  0
  1 29  1  6  0  0  0
  1  4  1  0  0  0  0
  1  5  1  0  0  0  0
  2  4  2  0  0  0  0
  4  6  1  0  0  0  0
  5 25  1  1  0  0  0
  5  3  1  0  0  0  0
  6  3  1  0  0  0  0
  6 16  1  1  0  0  0
  7 10  1  0  0  0  0
  8 11  1  0  0  0  0
  9 13  1  0  0  0  0
 10  2  1  0  0  0  0
 11 13  2  0  0  0  0
 11 15  1  0  0  0  0
 12 15  1  0  0  0  0
 13 14  1  0  0  0  0
 14 10  2  0  0  0  0
 15  7  2  0  0  0  0
 16 17  2  0  0  0  0
 17 21  1  0  0  0  0
 18 20  1  0  0  0  0
 18 22  2  0  0  0  0
 19 21  1  0  0  0  0
 20 24  2  0  0  0  0
 22 16  1  0  0  0  0
 22 19  1  0  0  0  0
 24 19  1  0  0  0  0
 24 23  1  0  0  0  0
 25 26  1  0  0  0  0
 27 25  2  0  0  0  0
 29 28  1  1  0  0  0
 30 31  1  0  0  0  0
 31 29  1  0  0  0  0
M  END
>  <MODEL>
3

>  <REMARK>
 VINA RESULT:      -7.1      3.058      6.521
  Name = 
  5 active torsions:
  status: ('A' for Active; 'I' for Inactive)
    1  A    between atoms: C_3  and  C_31
    2  A    between atoms: C_6  and  C_28
    3  A    between atoms: C_9  and  C_27
    4  A    between atoms: C_11  and  N_21
    5  A    between atoms: C_26  and  C_27
                            x       y       z     vdW  Elec       q    Type
                         _______ _______ _______ _____ _____    ______ ____

>  <TORSDO>
F 5

$$$$
=
 OpenBabel11042418553D

 31 34  0  0  1  0  0  0  0  0999 V2000
  190.9750  175.8180  145.3420 C   0  0  1  0  0  3  0  0  0  0  0  0
  188.6000  176.3740  144.0750 N   0  0  0  0  0  0  0  0  0  0  0  0
  191.9330  175.4580  143.1850 C   0  0  0  0  0  2  0  0  0  0  0  0
  189.7750  175.9050  144.2660 C   0  0  0  0  0  0  0  0  0  0  0  0
  192.1610  176.1430  144.4600 C   0  0  2  0  0  3  0  0  0  0  0  0
  190.3970  175.6010  143.0910 C   0  0  2  0  0  3  0  0  0  0  0  0
  187.2020  178.2500  144.2320 C   0  0  0  0  0  3  0  0  0  0  0  0
  183.9240  178.7010  145.8460 O   0  0  0  0  0  1  0  0  0  0  0  0
  184.5060  176.5150  146.9010 O   0  0  0  0  0  1  0  0  0  0  0  0
  187.7190  177.0730  144.8490 C   0  0  0  0  0  0  0  0  0  0  0  0
  185.2270  178.2180  145.6350 C   0  0  0  0  0  0  0  0  0  0  0  0
  185.4460  180.0840  144.0950 C   0  0  0  0  0  1  0  0  0  0  0  0
  185.6200  177.0940  146.2130 C   0  0  0  0  0  0  0  0  0  0  0  0
  186.9280  176.4750  145.9110 C   0  0  0  0  0  3  0  0  0  0  0  0
  186.0110  178.8630  144.6520 C   0  0  0  0  0  0  0  0  0  0  0  0
  189.5030  175.0460  142.0920 C   0  0  0  0  0  0  0  0  0  0  0  0
  188.5280  175.6050  141.1340 C   0  0  0  0  0  3  0  0  0  0  0  0
  190.6120  172.8250  141.9930 C   0  0  0  0  0  3  0  0  0  0  0  0
  189.1100  173.6760  140.5200 N   0  0  0  0  0  0  0  0  0  0  0  0
  190.3520  171.8650  140.9730 C   0  0  0  0  0  3  0  0  0  0  0  0
  188.2960  174.6570  140.1530 N   0  0  0  0  0  2  0  0  0  0  0  0
  189.7510  173.8750  141.5770 C   0  0  0  0  0  0  0  0  0  0  0  0
  189.0040  171.8290  138.8940 N   0  0  0  0  0  1  0  0  0  0  0  0
  189.5200  172.4510  140.0950 C   0  0  0  0  0  0  0  0  0  0  0  0
  193.5310  176.1150  145.0360 C   0  0  0  0  0  0  0  0  0  0  0  0
  194.0290  174.7310  145.4090 C   0  0  0  0  0  1  0  0  0  0  0  0
  194.2350  177.0690  145.0280 O   0  0  0  0  0  0  0  0  0  0  0  0
  189.8990  177.5210  146.8100 O   0  0  0  0  0  1  0  0  0  0  0  0
  190.8560  176.4890  146.6970 C   0  0  1  0  0  3  0  0  0  0  0  0
  189.4520  174.7340  147.4300 O   0  0  0  0  0  1  0  0  0  0  0  0
  190.6140  175.4400  147.7380 C   0  0  0  0  0  2  0  0  0  0  0  0
  1 29  1  1  0  0  0
  2  4  2  0  0  0  0
  2 10  1  0  0  0  0
  3  5  1  0  0  0  0
  4  1  1  0  0  0  0
  5 25  1  1  0  0  0
  5  1  1  0  0  0  0
  6 16  1  1  0  0  0
  6  3  1  0  0  0  0
  6  4  1  0  0  0  0
  7 15  2  0  0  0  0
  7 10  1  0  0  0  0
 10 14  2  0  0  0  0
 11  8  1  0  0  0  0
 11 13  2  0  0  0  0
 12 15  1  0  0  0  0
 13  9  1  0  0  0  0
 14 13  1  0  0  0  0
 15 11  1  0  0  0  0
 17 16  2  0  0  0  0
 19 22  1  0  0  0  0
 20 18  1  0  0  0  0
 21 19  1  0  0  0  0
 21 17  1  0  0  0  0
 22 18  2  0  0  0  0
 22 16  1  0  0  0  0
 23 24  1  0  0  0  0
 24 19  1  0  0  0  0
 24 20  2  0  0  0  0
 25 26  1  0  0  0  0
 27 25  2  0  0  0  0
 29 28  1  6  0  0  0
 29 31  1  0  0  0  0
 30 31  1  0  0  0  0
M  END
>  <MODEL>
4

>  <REMARK>
 VINA RESULT:      -7.1      3.235      6.528
  Name = 
  5 active torsions:
  status: ('A' for Active; 'I' for Inactive)
    1  A    between atoms: C_3  and  C_31
    2  A    between atoms: C_6  and  C_28
    3  A    between atoms: C_9  and  C_27
    4  A    between atoms: C_11  and  N_21
    5  A    between atoms: C_26  and  C_27
                            x       y       z     vdW  Elec       q    Type
                         _______ _______ _______ _____ _____    ______ ____

>  <TORSDO>
F 5

$$$$
=
 OpenBabel11042418553D

 31 34  0  0  1  0  0  0  0  0999 V2000
  191.0220  175.8890  144.2960 C   0  0  1  0  0  3  0  0  0  0  0  0
  188.7630  175.4980  142.7790 N   0  0  0  0  0  0  0  0  0  0  0  0
  189.7690  177.4600  145.5860 C   0  0  0  0  0  2  0  0  0  0  0  0
  189.5900  176.0670  143.5730 C   0  0  0  0  0  0  0  0  0  0  0  0
  190.6730  176.3130  145.7060 C   0  0  2  0  0  3  0  0  0  0  0  0
  188.9900  177.0360  144.3200 C   0  0  2  0  0  3  0  0  0  0  0  0
  189.2060  174.4750  140.7160 C   0  0  0  0  0  3  0  0  0  0  0  0
  190.6100  171.1700  139.9030 O   0  0  0  0  0  1  0  0  0  0  0  0
  190.1570  170.7420  142.3190 O   0  0  0  0  0  1  0  0  0  0  0  0
  188.7780  174.3320  142.0690 C   0  0  0  0  0  0  0  0  0  0  0  0
  189.8820  172.1510  140.5980 C   0  0  0  0  0  0  0  0  0  0  0  0
  190.1040  173.4610  138.5650 C   0  0  0  0  0  1  0  0  0  0  0  0
  189.5570  171.9610  141.8680 C   0  0  0  0  0  0  0  0  0  0  0  0
  188.9180  173.0190  142.6780 C   0  0  0  0  0  3  0  0  0  0  0  0
  189.6890  173.3960  139.9580 C   0  0  0  0  0  0  0  0  0  0  0  0
  187.9860  177.7880  143.5920 C   0  0  0  0  0  0  0  0  0  0  0  0
  187.8160  178.2250  142.1920 C   0  0  0  0  0  3  0  0  0  0  0  0
  186.2190  177.5570  145.3240 C   0  0  0  0  0  3  0  0  0  0  0  0
  185.9530  178.2350  143.1740 N   0  0  0  0  0  0  0  0  0  0  0  0
  184.8500  177.8770  145.0930 C   0  0  0  0  0  3  0  0  0  0  0  0
  186.4800  178.5250  141.9910 N   0  0  0  0  0  2  0  0  0  0  0  0
  186.7660  177.8520  144.0470 C   0  0  0  0  0  0  0  0  0  0  0  0
  183.5150  178.5810  143.1270 N   0  0  0  0  0  1  0  0  0  0  0  0
  184.7430  178.1960  143.7920 C   0  0  0  0  0  0  0  0  0  0  0  0
  191.7420  176.3660  146.7400 C   0  0  0  0  0  0  0  0  0  0  0  0
  191.4010  175.6510  148.0340 C   0  0  0  0  0  1  0  0  0  0  0  0
  192.8290  176.7710  146.4980 O   0  0  0  0  0  0  0  0  0  0  0  0
  191.2680  173.4160  144.4870 O   0  0  0  0  0  1  0  0  0  0  0  0
  191.8510  174.6370  144.0840 C   0  0  1  0  0  3  0  0  0  0  0  0
  192.7270  173.2830  142.3560 O   0  0  0  0  0  1  0  0  0  0  0  0
  192.2640  174.5660  142.6470 C   0  0  0  0  0  2  0  0  0  0  0  0
  1 29  1  1  0  0  0
  1  5  1  0  0  0  0
  2  4  2  0  0  0  0
  3  5  1  0  0  0  0
  4  1  1  0  0  0  0
  4  6  1  0  0  0  0
  5 25  1  1  0  0  0
  6 16  1  6  0  0  0
  6  3  1  0  0  0  0
  7 10  1  0  0  0  0
  8 11  1  0  0  0  0
 10 14  2  0  0  0  0
 10  2  1  0  0  0  0
 11 13  2  0  0  0  0
 12 15  1  0  0  0  0
 13  9  1  0  0  0  0
 13 14  1  0  0  0  0
 15 11  1  0  0  0  0
 15  7  2  0  0  0  0
 16 22  1  0  0  0  0
 17 16  2  0  0  0  0
 19 24  1  0  0  0  0
 19 22  1  0  0  0  0
 20 18  1  0  0  0  0
 21 17  1  0  0  0  0
 21 19  1  0  0  0  0
 22 18  2  0  0  0  0
 23 24  1  0  0  0  0
 24 20  2  0  0  0  0
 25 26  1  0  0  0  0
 27 25  2  0  0  0  0
 29 28  1  6  0  0  0
 30 31  1  0  0  0  0
 31 29  1  0  0  0  0
M  END
>  <MODEL>
5

>  <REMARK>
 VINA RESULT:      -7.0      1.619      5.099
  Name = 
  5 active torsions:
  status: ('A' for Active; 'I' for Inactive)
    1  A    between atoms: C_3  and  C_31
    2  A    between atoms: C_6  and  C_28
    3  A    between atoms: C_9  and  C_27
    4  A    between atoms: C_11  and  N_21
    5  A    between atoms: C_26  and  C_27
                            x       y       z     vdW  Elec       q    Type
                         _______ _______ _______ _____ _____    ______ ____

>  <TORSDO>
F 5

$$$$
=
 OpenBabel11042418553D

 31 34  0  0  1  0  0  0  0  0999 V2000
  189.2920  176.0400  142.8850 C   0  0  1  0  0  3  0  0  0  0  0  0
  190.9880  174.0570  143.7520 N   0  0  0  0  0  0  0  0  0  0  0  0
  187.8820  174.3230  142.0140 C   0  0  0  0  0  2  0  0  0  0  0  0
  190.0730  174.6400  143.0720 C   0  0  0  0  0  0  0  0  0  0  0  0
  187.8620  175.5510  142.8130 C   0  0  2  0  0  3  0  0  0  0  0  0
  189.2400  173.7440  142.4710 C   0  0  2  0  0  3  0  0  0  0  0  0
  193.0980  174.9510  144.2480 C   0  0  0  0  0  3  0  0  0  0  0  0
  194.1790  177.2990  146.8690 O   0  0  0  0  0  1  0  0  0  0  0  0
  191.9290  176.7760  147.8130 O   0  0  0  0  0  1  0  0  0  0  0  0
  191.8470  174.4640  144.7310 C   0  0  0  0  0  0  0  0  0  0  0  0
  193.4540  176.2650  146.2520 C   0  0  0  0  0  0  0  0  0  0  0  0
  195.2340  176.2850  144.5990 C   0  0  0  0  0  1  0  0  0  0  0  0
  192.2790  175.8970  146.7380 C   0  0  0  0  0  0  0  0  0  0  0  0
  191.4180  174.9160  146.0440 C   0  0  0  0  0  3  0  0  0  0  0  0
  193.9310  175.7850  145.0110 C   0  0  0  0  0  0  0  0  0  0  0  0
  189.9210  172.5600  141.9830 C   0  0  0  0  0  0  0  0  0  0  0  0
  190.0660  171.1680  142.4530 C   0  0  0  0  0  3  0  0  0  0  0  0
  190.2510  173.4160  139.6740 C   0  0  0  0  0  3  0  0  0  0  0  0
  190.4820  171.2740  140.3900 N   0  0  0  0  0  0  0  0  0  0  0  0
  190.6580  172.5920  138.5850 C   0  0  0  0  0  3  0  0  0  0  0  0
  190.4570  170.3880  141.3780 N   0  0  0  0  0  2  0  0  0  0  0  0
  190.2090  172.4520  140.7170 C   0  0  0  0  0  0  0  0  0  0  0  0
  191.0660  170.1680  138.2690 N   0  0  0  0  0  1  0  0  0  0  0  0
  190.7030  171.3320  139.0500 C   0  0  0  0  0  0  0  0  0  0  0  0
  186.7660  176.5270  142.5730 C   0  0  0  0  0  0  0  0  0  0  0  0
  185.9370  176.8560  143.8010 C   0  0  0  0  0  1  0  0  0  0  0  0
  186.6730  177.1290  141.5570 O   0  0  0  0  0  0  0  0  0  0  0  0
  189.4310  177.0780  145.1480 O   0  0  0  0  0  1  0  0  0  0  0  0
  189.6210  177.2370  143.7580 C   0  0  1  0  0  3  0  0  0  0  0  0
  191.1930  178.9960  143.8880 O   0  0  0  0  0  1  0  0  0  0  0  0
  191.0230  177.6770  143.4710 C   0  0  0  0  0  2  0  0  0  0  0  0
  1  4  1  0  0  0  0
  1 29  1  1  0  0  0
  2 10  1  0  0  0  0
  3  6  1  0  0  0  0
  3  5  1  0  0  0  0
  4  2  2  0  0  0  0
  5 25  1  6  0  0  0
  5  1  1  0  0  0  0
  6 16  1  6  0  0  0
  6  4  1  0  0  0  0
  7 10  2  0  0  0  0
  7 15  1  0  0  0  0
 10 14  1  0  0  0  0
 11 13  1  0  0  0  0
 11  8  1  0  0  0  0
 12 15  1  0  0  0  0
 13  9  1  0  0  0  0
 14 13  2  0  0  0  0
 15 11  2  0  0  0  0
 16 17  2  0  0  0  0
 18 22  2  0  0  0  0
 19 22  1  0  0  0  0
 19 21  1  0  0  0  0
 20 24  2  0  0  0  0
 20 18  1  0  0  0  0
 21 17  1  0  0  0  0
 22 16  1  0  0  0  0
 23 24  1  0  0  0  0
 24 19  1  0  0  0  0
 25 26  1  0  0  0  0
 27 25  2  0  0  0  0
 29 28  1  1  0  0  0
 31 29  1  0  0  0  0
 31 30  1  0  0  0  0
M  END
>  <MODEL>
6

>  <REMARK>
 VINA RESULT:      -6.6      3.206      6.017
  Name = 
  5 active torsions:
  status: ('A' for Active; 'I' for Inactive)
    1  A    between atoms: C_3  and  C_31
    2  A    between atoms: C_6  and  C_28
    3  A    between atoms: C_9  and  C_27
    4  A    between atoms: C_11  and  N_21
    5  A    between atoms: C_26  and  C_27
                            x       y       z     vdW  Elec       q    Type
                         _______ _______ _______ _____ _____    ______ ____

>  <TORSDO>
F 5

$$$$
=
 OpenBabel11042418553D

 31 34  0  0  1  0  0  0  0  0999 V2000
  190.2380  173.1020  141.5360 C   0  0  1  0  0  3  0  0  0  0  0  0
  190.2200  175.0940  143.4310 N   0  0  0  0  0  0  0  0  0  0  0  0
  192.2350  172.2810  142.5540 C   0  0  0  0  0  2  0  0  0  0  0  0
  190.6680  174.1670  142.6710 C   0  0  0  0  0  0  0  0  0  0  0  0
  190.9250  171.8570  142.0510 C   0  0  2  0  0  3  0  0  0  0  0  0
  191.8500  173.6640  143.1270 C   0  0  2  0  0  3  0  0  0  0  0  0
  188.6240  175.9100  144.9430 C   0  0  0  0  0  3  0  0  0  0  0  0
  186.3630  178.8080  144.7510 O   0  0  0  0  0  1  0  0  0  0  0  0
  187.0420  178.7690  142.3500 O   0  0  0  0  0  1  0  0  0  0  0  0
  189.0010  175.6890  143.5860 C   0  0  0  0  0  0  0  0  0  0  0  0
  187.1230  177.7060  144.3210 C   0  0  0  0  0  0  0  0  0  0  0  0
  187.1930  177.1020  146.6730 C   0  0  0  0  0  1  0  0  0  0  0  0
  187.4680  177.5940  143.0480 C   0  0  0  0  0  0  0  0  0  0  0  0
  188.3810  176.5320  142.5760 C   0  0  0  0  0  3  0  0  0  0  0  0
  187.6530  176.8530  145.3150 C   0  0  0  0  0  0  0  0  0  0  0  0
  192.7210  174.6710  143.7030 C   0  0  0  0  0  0  0  0  0  0  0  0
  193.1160  175.0550  145.0720 C   0  0  0  0  0  3  0  0  0  0  0  0
  193.9290  175.1700  141.5890 C   0  0  0  0  0  3  0  0  0  0  0  0
  194.5380  175.7680  143.6920 N   0  0  0  0  0  0  0  0  0  0  0  0
  195.1330  175.9300  141.5370 C   0  0  0  0  0  3  0  0  0  0  0  0
  194.2880  175.7860  144.9950 N   0  0  0  0  0  2  0  0  0  0  0  0
  193.6850  175.1810  142.9880 C   0  0  0  0  0  0  0  0  0  0  0  0
  196.6560  176.9330  143.2150 N   0  0  0  0  0  1  0  0  0  0  0  0
  195.4820  176.1880  142.8090 C   0  0  0  0  0  0  0  0  0  0  0  0
  190.8510  170.6000  141.2600 C   0  0  0  0  0  0  0  0  0  0  0  0
  191.4470  170.6970  139.8670 C   0  0  0  0  0  1  0  0  0  0  0  0
  190.5250  169.5700  141.7470 O   0  0  0  0  0  0  0  0  0  0  0  0
  187.8000  173.0580  142.0550 O   0  0  0  0  0  1  0  0  0  0  0  0
  188.8000  173.0110  141.0600 C   0  0  1  0  0  3  0  0  0  0  0  0
  189.3230  173.8000  138.8940 O   0  0  0  0  0  1  0  0  0  0  0  0
  188.5610  174.0710  140.0310 C   0  0  0  0  0  2  0  0  0  0  0  0
  1 29  1  1  0  0  0
  1  5  1  0  0  0  0
  1  4  1  0  0  0  0
  2 10  1  0  0  0  0
  3  6  1  0  0  0  0
  4  6  1  0  0  0  0
  4  2  2  0  0  0  0
  5 25  1  6  0  0  0
  5  3  1  0  0  0  0
  6 16  1  6  0  0  0
  7 15  1  0  0  0  0
  9 13  1  0  0  0  0
 10  7  2  0  0  0  0
 11  8  1  0  0  0  0
 11 15  2  0  0  0  0
 13 11  1  0  0  0  0
 14 13  2  0  0  0  0
 14 10  1  0  0  0  0
 15 12  1  0  0  0  0
 16 17  2  0  0  0  0
 18 22  2  0  0  0  0
 19 21  1  0  0  0  0
 20 18  1  0  0  0  0
 20 24  2  0  0  0  0
 21 17  1  0  0  0  0
 22 19  1  0  0  0  0
 22 16  1  0  0  0  0
 24 23  1  0  0  0  0
 24 19  1  0  0  0  0
 25 27  2  0  0  0  0
 26 25  1  0  0  0  0
 29 28  1  1  0  0  0
 30 31  1  0  0  0  0
 31 29  1  0  0  0  0
M  END
>  <MODEL>
7

>  <REMARK>
 VINA RESULT:      -6.5      3.544      6.613
  Name = 
  5 active torsions:
  status: ('A' for Active; 'I' for Inactive)
    1  A    between atoms: C_3  and  C_31
    2  A    between atoms: C_6  and  C_28
    3  A    between atoms: C_9  and  C_27
    4  A    between atoms: C_11  and  N_21
    5  A    between atoms: C_26  and  C_27
                            x       y       z     vdW  Elec       q    Type
                         _______ _______ _______ _____ _____    ______ ____

>  <TORSDO>
F 5

$$$$
=
 OpenBabel11042418553D

 31 34  0  0  1  0  0  0  0  0999 V2000
  192.8290  175.5990  143.1450 C   0  0  1  0  0  3  0  0  0  0  0  0
  190.1350  175.0590  143.0610 N   0  0  0  0  0  0  0  0  0  0  0  0
  192.4220  176.8440  145.1410 C   0  0  0  0  0  2  0  0  0  0  0  0
  191.2300  175.6520  143.3570 C   0  0  0  0  0  0  0  0  0  0  0  0
  193.3030  175.8250  144.5640 C   0  0  2  0  0  3  0  0  0  0  0  0
  191.0940  176.4490  144.4540 C   0  0  2  0  0  3  0  0  0  0  0  0
  190.0790  174.1710  140.8920 C   0  0  0  0  0  3  0  0  0  0  0  0
  190.6640  170.7520  139.6580 O   0  0  0  0  0  1  0  0  0  0  0  0
  190.4640  170.1900  142.0810 O   0  0  0  0  0  1  0  0  0  0  0  0
  189.8180  173.9840  142.2820 C   0  0  0  0  0  0  0  0  0  0  0  0
  190.2500  171.7830  140.5190 C   0  0  0  0  0  0  0  0  0  0  0  0
  190.4550  173.2140  138.5670 C   0  0  0  0  0  1  0  0  0  0  0  0
  190.0680  171.5390  141.8070 C   0  0  0  0  0  0  0  0  0  0  0  0
  189.7700  172.6170  142.7730 C   0  0  0  0  0  3  0  0  0  0  0  0
  190.2270  173.0970  140.0000 C   0  0  0  0  0  0  0  0  0  0  0  0
  189.8130  177.1260  144.5210 C   0  0  0  0  0  0  0  0  0  0  0  0
  188.9860  177.8980  143.5720 C   0  0  0  0  0  3  0  0  0  0  0  0
  189.0650  176.0060  146.6090 C   0  0  0  0  0  3  0  0  0  0  0  0
  187.7890  177.1950  145.1560 N   0  0  0  0  0  0  0  0  0  0  0  0
  187.7240  176.0550  147.0860 C   0  0  0  0  0  3  0  0  0  0  0  0
  187.6890  177.9270  144.0540 N   0  0  0  0  0  2  0  0  0  0  0  0
  188.9390  176.7740  145.4210 C   0  0  0  0  0  0  0  0  0  0  0  0
  185.5840  176.9690  146.2310 N   0  0  0  0  0  1  0  0  0  0  0  0
  187.0060  176.7020  146.1520 C   0  0  0  0  0  0  0  0  0  0  0  0
  194.7610  175.9190  144.8430 C   0  0  0  0  0  0  0  0  0  0  0  0
  195.2970  174.8360  145.7610 C   0  0  0  0  0  1  0  0  0  0  0  0
  195.4670  176.6630  144.2490 O   0  0  0  0  0  0  0  0  0  0  0  0
  194.7760  174.7430  141.8440 O   0  0  0  0  0  1  0  0  0  0  0  0
  193.4690  174.5000  142.3180 C   0  0  1  0  0  3  0  0  0  0  0  0
  193.3990  172.1400  142.2140 O   0  0  0  0  0  1  0  0  0  0  0  0
  193.4270  173.2210  143.0940 C   0  0  0  0  0  2  0  0  0  0  0  0
  1 29  1  1  0  0  0
  1  4  1  0  0  0  0
  1  5  1  0  0  0  0
  2  4  2  0  0  0  0
  4  6  1  0  0  0  0
  5 25  1  6  0  0  0
  5  3  1  0  0  0  0
  6 16  1  6  0  0  0
  6  3  1  0  0  0  0
  7 10  1  0  0  0  0
  8 11  1  0  0  0  0
 10 14  2  0  0  0  0
 10  2  1  0  0  0  0
 11 13  2  0  0  0  0
 12 15  1  0  0  0  0
 13  9  1  0  0  0  0
 13 14  1  0  0  0  0
 15 11  1  0  0  0  0
 15  7  2  0  0  0  0
 16 22  1  0  0  0  0
 17 21  1  0  0  0  0
 17 16  2  0  0  0  0
 18 20  1  0  0  0  0
 19 22  1  0  0  0  0
 19 24  1  0  0  0  0
 21 19  1  0  0  0  0
 22 18  2  0  0  0  0
 24 23  1  0  0  0  0
 24 20  2  0  0  0  0
 25 26  1  0  0  0  0
 27 25  2  0  0  0  0
 29 28  1  1  0  0  0
 29 31  1  0  0  0  0
 30 31  1  0  0  0  0
M  END
>  <MODEL>
8

>  <REMARK>
 VINA RESULT:      -6.5      2.195      5.517
  Name = 
  5 active torsions:
  status: ('A' for Active; 'I' for Inactive)
    1  A    between atoms: C_3  and  C_31
    2  A    between atoms: C_6  and  C_28
    3  A    between atoms: C_9  and  C_27
    4  A    between atoms: C_11  and  N_21
    5  A    between atoms: C_26  and  C_27
                            x       y       z     vdW  Elec       q    Type
                         _______ _______ _______ _____ _____    ______ ____

>  <TORSDO>
F 5

$$$$
=
 OpenBabel11042418553D

 31 34  0  0  1  0  0  0  0  0999 V2000
  190.2450  173.0170  141.0730 C   0  0  1  0  0  3  0  0  0  0  0  0
  190.3060  175.0320  142.9420 N   0  0  0  0  0  0  0  0  0  0  0  0
  192.3240  172.2550  141.9650 C   0  0  0  0  0  2  0  0  0  0  0  0
  190.7240  174.1050  142.1650 C   0  0  0  0  0  0  0  0  0  0  0  0
  190.9950  171.7950  141.5540 C   0  0  2  0  0  3  0  0  0  0  0  0
  191.9450  173.6360  142.5470 C   0  0  2  0  0  3  0  0  0  0  0  0
  188.7720  175.7800  144.5510 C   0  0  0  0  0  3  0  0  0  0  0  0
  186.4550  178.6400  144.5440 O   0  0  0  0  0  1  0  0  0  0  0  0
  187.0160  178.6740  142.1120 O   0  0  0  0  0  1  0  0  0  0  0  0
  189.0860  175.6000  143.1710 C   0  0  0  0  0  0  0  0  0  0  0  0
  187.2110  177.5640  144.0490 C   0  0  0  0  0  0  0  0  0  0  0  0
  187.4070  176.9020  146.3780 C   0  0  0  0  0  1  0  0  0  0  0  0
  187.4960  177.4890  142.7580 C   0  0  0  0  0  0  0  0  0  0  0  0
  188.4030  176.4560  142.2150 C   0  0  0  0  0  3  0  0  0  0  0  0
  187.8040  176.6950  144.9940 C   0  0  0  0  0  0  0  0  0  0  0  0
  192.8280  174.6700  143.0520 C   0  0  0  0  0  0  0  0  0  0  0  0
  193.3640  175.9400  142.5220 C   0  0  0  0  0  3  0  0  0  0  0  0
  192.6560  173.9820  145.4330 C   0  0  0  0  0  3  0  0  0  0  0  0
  193.4850  175.9340  144.6250 N   0  0  0  0  0  0  0  0  0  0  0  0
  193.1140  174.7870  146.5150 C   0  0  0  0  0  3  0  0  0  0  0  0
  193.7970  176.7050  143.5910 N   0  0  0  0  0  2  0  0  0  0  0  0
  192.9770  174.8260  144.3370 C   0  0  0  0  0  0  0  0  0  0  0  0
  194.0560  177.0690  146.7350 N   0  0  0  0  0  1  0  0  0  0  0  0
  193.5200  175.9530  145.9840 C   0  0  0  0  0  0  0  0  0  0  0  0
  190.8980  170.5260  140.7840 C   0  0  0  0  0  0  0  0  0  0  0  0
  190.8150  169.2750  141.6380 C   0  0  0  0  0  1  0  0  0  0  0  0
  190.7160  170.5160  139.6120 O   0  0  0  0  0  0  0  0  0  0  0  0
  187.8470  172.9520  141.7500 O   0  0  0  0  0  1  0  0  0  0  0  0
  188.7820  172.8860  140.6940 C   0  0  1  0  0  3  0  0  0  0  0  0
  188.1950  173.2670  138.4370 O   0  0  0  0  0  1  0  0  0  0  0  0
  188.4570  173.9060  139.6480 C   0  0  0  0  0  2  0  0  0  0  0  0
  1 29  1  1  0  0  0
  1  5  1  0  0  0  0
  1  4  1  0  0  0  0
  2 10  1  0  0  0  0
  3  6  1  0  0  0  0
  4  6  1  0  0  0  0
  4  2  2  0  0  0  0
  5 25  1  6  0  0  0
  5  3  1  0  0  0  0
  6 16  1  6  0  0  0
  7 15  1  0  0  0  0
  9 13  1  0  0  0  0
 10  7  2  0  0  0  0
 11  8  1  0  0  0  0
 11 15  2  0  0  0  0
 13 11  1  0  0  0  0
 14 13  2  0  0  0  0
 14 10  1  0  0  0  0
 15 12  1  0  0  0  0
 16 22  1  0  0  0  0
 17 16  2  0  0  0  0
 17 21  1  0  0  0  0
 18 20  1  0  0  0  0
 19 24  1  0  0  0  0
 21 19  1  0  0  0  0
 22 19  1  0  0  0  0
 22 18  2  0  0  0  0
 24 20  2  0  0  0  0
 24 23  1  0  0  0  0
 25 26  1  0  0  0  0
 27 25  2  0  0  0  0
 29 28  1  1  0  0  0
 30 31  1  0  0  0  0
 31 29  1  0  0  0  0
M  END
>  <MODEL>
9

>  <REMARK>
 VINA RESULT:      -6.4      3.577      6.086
  Name = 
  5 active torsions:
  status: ('A' for Active; 'I' for Inactive)
    1  A    between atoms: C_3  and  C_31
    2  A    between atoms: C_6  and  C_28
    3  A    between atoms: C_9  and  C_27
    4  A    between atoms: C_11  and  N_21
    5  A    between atoms: C_26  and  C_27
                            x       y       z     vdW  Elec       q    Type
                         _______ _______ _______ _____ _____    ______ ____

>  <TORSDO>
F 5

$$$$
