=
 OpenBabel11042416093D

 34 38  0  0  1  0  0  0  0  0999 V2000
  184.3220  178.2530  143.1800 N   0  0  0  0  0  0  0  0  0  0  0  0
  188.1230  175.7400  147.1190 N   0  0  0  0  0  2  0  0  0  0  0  0
  186.2590  177.0080  143.1910 C   0  0  0  0  0  0  0  0  0  0  0  0
  187.7730  176.1670  145.7950 C   0  0  0  0  0  0  0  0  0  0  0  0
  184.2200  178.6640  145.5040 C   0  0  0  0  0  3  0  0  0  0  0  0
  188.4960  175.7040  144.8130 N   0  0  0  0  0  0  0  0  0  0  0  0
  185.2190  177.5560  142.2700 C   0  0  0  0  0  3  0  0  0  0  0  0
  187.4740  176.3820  142.6950 C   0  0  0  0  0  3  0  0  0  0  0  0
  184.8560  178.4600  146.7270 C   0  0  0  0  0  3  0  0  0  0  0  0
  186.6020  177.0870  145.6490 C   0  0  0  0  0  0  0  0  0  0  0  0
  185.9470  177.3480  144.4280 C   0  0  0  0  0  0  0  0  0  0  0  0
  186.0300  177.6930  146.8090 C   0  0  0  0  0  0  0  0  0  0  0  0
  184.7880  178.0990  144.3710 C   0  0  2  0  0  3  0  0  0  0  0  0
  188.4740  175.8380  143.3840 C   0  0  0  0  0  0  0  0  0  0  0  0
  186.5970  177.5650  148.0340 F   0  0  0  0  0  0  0  0  0  0  0  0
  191.6050  174.9630  141.7360 O   0  0  0  0  0  0  0  0  0  0  0  0
  190.9040  175.7400  142.5210 C   0  0  0  0  0  0  0  0  0  0  0  0
  189.5440  174.1280  141.8140 C   0  0  0  0  0  3  0  0  0  0  0  0
  190.8220  174.0040  141.3020 C   0  0  0  0  0  0  0  0  0  0  0  0
  189.6020  175.2670  142.6080 C   0  0  0  0  0  0  0  0  0  0  0  0
  191.4780  176.9320  143.2040 C   0  0  0  0  0  1  0  0  0  0  0  0
  191.2740  172.9120  140.3960 C   0  0  0  0  0  2  0  0  0  0  0  0
  189.6080  171.7360  139.1620 O   0  0  0  0  0  1  0  0  0  0  0  0
  190.2070  173.7810  138.3170 O   0  0  0  0  0  0  0  0  0  0  0  0
  190.3260  172.7650  139.2560 C   0  0  0  0  0  0  0  0  0  0  0  0
  189.3140  174.9620  147.4360 C   0  0  0  0  0  2  0  0  0  0  0  0
  190.4990  175.8860  147.6810 C   0  0  0  0  0  2  0  0  0  0  0  0
  191.7480  175.1350  147.6570 N   0  0  0  0  0  2  0  0  0  0  0  0
  192.7620  175.3090  146.6640 C   0  0  0  0  0  0  0  0  0  0  0  0
  194.7430  175.6060  144.7030 C   0  0  0  0  0  3  0  0  0  0  0  0
  193.5770  176.4530  146.6480 C   0  0  0  0  0  3  0  0  0  0  0  0
  194.5640  176.6000  145.6690 C   0  0  0  0  0  3  0  0  0  0  0  0
  193.9350  174.4650  144.7160 C   0  0  0  0  0  3  0  0  0  0  0  0
  192.9480  174.3180  145.6960 C   0  0  0  0  0  3  0  0  0  0  0  0
  1 13  1  0  0  0  0
  2 26  1  0  0  0  0
  3 11  2  0  0  0  0
  4  2  1  0  0  0  0
  5  9  2  0  0  0  0
  6  4  2  0  0  0  0
  7  1  2  0  0  0  0
  7  3  1  0  0  0  0
  8  3  1  0  0  0  0
  8 14  2  0  0  0  0
  9 12  1  0  0  0  0
 10  4  1  0  0  0  0
 10 12  2  0  0  0  0
 11 10  1  0  0  0  0
 12 15  1  0  0  0  0
 13 11  1  0  0  0  0
 13  5  1  6  0  0  0
 14  6  1  0  0  0  0
 16 17  1  0  0  0  0
 17 20  2  0  0  0  0
 17 21  1  0  0  0  0
 18 20  1  0  0  0  0
 19 16  1  0  0  0  0
 19 18  2  0  0  0  0
 20 14  1  0  0  0  0
 22 19  1  0  0  0  0
 23 25  1  0  0  0  0
 24 25  2  0  0  0  0
 25 22  1  0  0  0  0
 26 27  1  0  0  0  0
 28 27  1  0  0  0  0
 29 28  1  0  0  0  0
 30 33  2  0  0  0  0
 30 32  1  0  0  0  0
 31 29  1  0  0  0  0
 32 31  2  0  0  0  0
 33 34  1  0  0  0  0
 34 29  2  0  0  0  0
M  END
>  <MODEL>
1

>  <REMARK>
 VINA RESULT:      -8.0      0.000      0.000
  Name = 
  7 active torsions:
  status: ('A' for Active; 'I' for Inactive)
    1  A    between atoms: C_2  and  C_18
    2  A    between atoms: C_2  and  C_33
    3  A    between atoms: C_5  and  N_12
    4  A    between atoms: N_6  and  C_26
    5  A    between atoms: C_10  and  N_12
    6  A    between atoms: C_10  and  C_26
    7  A    between atoms: C_28  and  C_32
                            x       y       z     vdW  Elec       q    Type
                         _______ _______ _______ _____ _____    ______ ____

>  <TORSDO>
F 7

$$$$
=
 OpenBabel11042416093D

 34 38  0  0  1  0  0  0  0  0999 V2000
  185.6810  178.9900  142.7530 N   0  0  0  0  0  0  0  0  0  0  0  0
  188.6160  175.8160  146.9480 N   0  0  0  0  0  2  0  0  0  0  0  0
  187.5880  177.7170  142.9680 C   0  0  0  0  0  0  0  0  0  0  0  0
  188.5420  176.4500  145.6640 C   0  0  0  0  0  0  0  0  0  0  0  0
  185.0970  179.0370  145.0420 C   0  0  0  0  0  3  0  0  0  0  0  0
  189.4570  176.1310  144.7910 N   0  0  0  0  0  0  0  0  0  0  0  0
  186.7540  178.4230  141.9500 C   0  0  0  0  0  3  0  0  0  0  0  0
  188.8870  177.1510  142.6410 C   0  0  0  0  0  3  0  0  0  0  0  0
  185.4700  178.6320  146.3220 C   0  0  0  0  0  3  0  0  0  0  0  0
  187.4150  177.4070  145.4250 C   0  0  0  0  0  0  0  0  0  0  0  0
  187.0240  177.8680  144.1520 C   0  0  0  0  0  0  0  0  0  0  0  0
  186.6100  177.8370  146.5230 C   0  0  0  0  0  0  0  0  0  0  0  0
  185.8930  178.6430  143.9760 C   0  0  2  0  0  3  0  0  0  0  0  0
  189.7290  176.4850  143.4280 C   0  0  0  0  0  0  0  0  0  0  0  0
  186.9130  177.5090  147.8040 F   0  0  0  0  0  0  0  0  0  0  0  0
  192.4680  174.8170  141.6950 O   0  0  0  0  0  0  0  0  0  0  0  0
  191.2090  174.8870  142.0440 C   0  0  0  0  0  0  0  0  0  0  0  0
  192.2300  176.6530  142.9300 C   0  0  0  0  0  3  0  0  0  0  0  0
  193.0940  175.8490  142.2100 C   0  0  0  0  0  0  0  0  0  0  0  0
  190.9990  176.0180  142.8210 C   0  0  0  0  0  0  0  0  0  0  0  0
  190.1960  173.8790  141.6250 C   0  0  0  0  0  1  0  0  0  0  0  0
  194.5450  176.1200  142.0120 C   0  0  0  0  0  2  0  0  0  0  0  0
  195.5810  173.9850  141.8030 O   0  0  0  0  0  1  0  0  0  0  0  0
  195.2660  175.1290  139.8420 O   0  0  0  0  0  0  0  0  0  0  0  0
  195.1700  175.0230  141.2230 C   0  0  0  0  0  0  0  0  0  0  0  0
  189.7240  174.9730  147.3780 C   0  0  0  0  0  2  0  0  0  0  0  0
  190.8030  175.8170  148.0420 C   0  0  0  0  0  2  0  0  0  0  0  0
  191.7100  176.3700  147.0440 N   0  0  0  0  0  2  0  0  0  0  0  0
  192.7880  175.6360  146.4570 C   0  0  0  0  0  0  0  0  0  0  0  0
  194.9310  174.2360  145.3130 C   0  0  0  0  0  3  0  0  0  0  0  0
  192.5720  174.3970  145.8330 C   0  0  0  0  0  3  0  0  0  0  0  0
  193.6400  173.6990  145.2640 C   0  0  0  0  0  3  0  0  0  0  0  0
  195.1500  175.4710  145.9310 C   0  0  0  0  0  3  0  0  0  0  0  0
  194.0800  176.1680  146.5010 C   0  0  0  0  0  3  0  0  0  0  0  0
  1 13  1  0  0  0  0
  2 26  1  0  0  0  0
  3 11  2  0  0  0  0
  4  2  1  0  0  0  0
  5  9  2  0  0  0  0
  6  4  2  0  0  0  0
  7  1  2  0  0  0  0
  7  3  1  0  0  0  0
  8  3  1  0  0  0  0
  8 14  2  0  0  0  0
  9 12  1  0  0  0  0
 10  4  1  0  0  0  0
 10 12  2  0  0  0  0
 11 10  1  0  0  0  0
 12 15  1  0  0  0  0
 13 11  1  0  0  0  0
 13  5  1  1  0  0  0
 14  6  1  0  0  0  0
 16 17  1  0  0  0  0
 16 19  1  0  0  0  0
 17 20  2  0  0  0  0
 19 18  2  0  0  0  0
 20 18  1  0  0  0  0
 20 14  1  0  0  0  0
 21 17  1  0  0  0  0
 22 19  1  0  0  0  0
 24 25  2  0  0  0  0
 25 23  1  0  0  0  0
 25 22  1  0  0  0  0
 26 27  1  0  0  0  0
 28 27  1  0  0  0  0
 29 34  1  0  0  0  0
 29 28  1  0  0  0  0
 30 33  1  0  0  0  0
 31 29  2  0  0  0  0
 32 30  2  0  0  0  0
 32 31  1  0  0  0  0
 33 34  2  0  0  0  0
M  END
>  <MODEL>
2

>  <REMARK>
 VINA RESULT:      -8.0      1.622      2.578
  Name = 
  7 active torsions:
  status: ('A' for Active; 'I' for Inactive)
    1  A    between atoms: C_2  and  C_18
    2  A    between atoms: C_2  and  C_33
    3  A    between atoms: C_5  and  N_12
    4  A    between atoms: N_6  and  C_26
    5  A    between atoms: C_10  and  N_12
    6  A    between atoms: C_10  and  C_26
    7  A    between atoms: C_28  and  C_32
                            x       y       z     vdW  Elec       q    Type
                         _______ _______ _______ _____ _____    ______ ____

>  <TORSDO>
F 7

$$$$
=
 OpenBabel11042416093D

 34 38  0  0  0  0  0  0  0  0999 V2000
  185.0800  178.9790  147.4700 N   0  0  0  0  0  0  0  0  0  0  0  0
  187.2490  177.3140  142.1030 N   0  0  0  0  0  2  0  0  0  0  0  0
  186.9660  178.0120  146.5690 C   0  0  0  0  0  0  0  0  0  0  0  0
  187.2860  177.3150  143.5380 C   0  0  0  0  0  0  0  0  0  0  0  0
  183.7700  178.9610  145.5050 C   0  0  0  0  0  3  0  0  0  0  0  0
  188.3870  176.9030  144.1030 N   0  0  0  0  0  0  0  0  0  0  0  0
  186.4180  178.5510  147.8500 C   0  0  0  0  0  2  0  0  0  0  0  0
  188.2300  177.2970  146.5130 C   0  0  0  0  0  3  0  0  0  0  0  0
  183.7350  178.5940  144.1610 C   0  0  0  0  0  3  0  0  0  0  0  0
  186.0710  177.8030  144.2630 C   0  0  0  0  0  0  0  0  0  0  0  0
  186.0510  178.1540  145.6280 C   0  0  0  0  0  0  0  0  0  0  0  0
  184.8570  178.0190  143.5420 C   0  0  0  0  0  0  0  0  0  0  0  0
  184.9390  178.7270  146.2150 C   0  0  0  0  0  0  0  0  0  0  0  0
  188.8500  176.7800  145.4550 C   0  0  0  0  0  0  0  0  0  0  0  0
  184.7290  177.6700  142.2380 F   0  0  0  0  0  0  0  0  0  0  0  0
  191.6810  174.7460  146.5220 O   0  0  0  0  0  0  0  0  0  0  0  0
  190.4220  175.0920  146.6130 C   0  0  0  0  0  0  0  0  0  0  0  0
  191.3310  176.3480  145.0180 C   0  0  0  0  0  3  0  0  0  0  0  0
  192.2410  175.4770  145.5880 C   0  0  0  0  0  0  0  0  0  0  0  0
  190.1440  176.0950  145.6940 C   0  0  0  0  0  0  0  0  0  0  0  0
  189.4750  174.4570  147.5700 C   0  0  0  0  0  1  0  0  0  0  0  0
  193.6690  175.3540  145.1840 C   0  0  0  0  0  2  0  0  0  0  0  0
  194.2420  177.0270  146.7810 O   0  0  0  0  0  1  0  0  0  0  0  0
  195.3860  177.1200  144.7960 O   0  0  0  0  0  0  0  0  0  0  0  0
  194.4340  176.5510  145.6330 C   0  0  0  0  0  0  0  0  0  0  0  0
  188.2920  176.7410  141.2630 C   0  0  0  0  0  2  0  0  0  0  0  0
  188.2350  175.2200  141.3100 C   0  0  0  0  0  2  0  0  0  0  0  0
  189.5780  174.6550  141.2980 N   0  0  0  0  0  2  0  0  0  0  0  0
  190.0860  173.7910  142.3180 C   0  0  0  0  0  0  0  0  0  0  0  0
  191.0390  172.1000  144.3410 C   0  0  0  0  0  3  0  0  0  0  0  0
  191.4440  173.4350  142.3620 C   0  0  0  0  0  3  0  0  0  0  0  0
  191.9180  172.5910  143.3700 C   0  0  0  0  0  3  0  0  0  0  0  0
  189.6870  172.4540  144.3020 C   0  0  0  0  0  3  0  0  0  0  0  0
  189.2130  173.2980  143.2930 C   0  0  0  0  0  3  0  0  0  0  0  0
  1  7  1  0  0  0  0
  2  4  1  0  0  0  0
  3  7  1  0  0  0  0
  4  6  2  0  0  0  0
  4 10  1  0  0  0  0
  5 13  1  0  0  0  0
  6 14  1  0  0  0  0
  8  3  1  0  0  0  0
  9  5  2  0  0  0  0
 10 11  1  0  0  0  0
 11 13  1  0  0  0  0
 11  3  2  0  0  0  0
 12  9  1  0  0  0  0
 12 10  2  0  0  0  0
 13  1  2  0  0  0  0
 14 20  1  0  0  0  0
 14  8  2  0  0  0  0
 15 12  1  0  0  0  0
 16 17  1  0  0  0  0
 17 21  1  0  0  0  0
 18 19  2  0  0  0  0
 18 20  1  0  0  0  0
 19 16  1  0  0  0  0
 20 17  2  0  0  0  0
 22 19  1  0  0  0  0
 22 25  1  0  0  0  0
 24 25  2  0  0  0  0
 25 23  1  0  0  0  0
 26 27  1  0  0  0  0
 26  2  1  0  0  0  0
 28 27  1  0  0  0  0
 28 29  1  0  0  0  0
 29 31  2  0  0  0  0
 29 34  1  0  0  0  0
 31 32  1  0  0  0  0
 32 30  2  0  0  0  0
 33 30  1  0  0  0  0
 34 33  2  0  0  0  0
M  END
>  <MODEL>
3

>  <REMARK>
 VINA RESULT:      -7.9      2.969      5.137
  Name = 
  7 active torsions:
  status: ('A' for Active; 'I' for Inactive)
    1  A    between atoms: C_2  and  C_18
    2  A    between atoms: C_2  and  C_33
    3  A    between atoms: C_5  and  N_12
    4  A    between atoms: N_6  and  C_26
    5  A    between atoms: C_10  and  N_12
    6  A    between atoms: C_10  and  C_26
    7  A    between atoms: C_28  and  C_32
                            x       y       z     vdW  Elec       q    Type
                         _______ _______ _______ _____ _____    ______ ____

>  <TORSDO>
F 7

$$$$
=
 OpenBabel11042416093D

 34 38  0  0  0  0  0  0  0  0999 V2000
  195.1990  176.8020  144.8270 N   0  0  0  0  0  0  0  0  0  0  0  0
  190.8030  173.4460  142.4400 N   0  0  0  0  0  2  0  0  0  0  0  0
  192.9490  176.4060  145.1130 C   0  0  0  0  0  0  0  0  0  0  0  0
  191.2660  174.5160  143.2760 C   0  0  0  0  0  0  0  0  0  0  0  0
  195.4650  175.5690  142.8290 C   0  0  0  0  0  3  0  0  0  0  0  0
  190.4150  175.0080  144.1340 N   0  0  0  0  0  0  0  0  0  0  0  0
  194.1050  177.1230  145.7310 C   0  0  0  0  0  2  0  0  0  0  0  0
  191.5860  176.5950  145.5830 C   0  0  0  0  0  3  0  0  0  0  0  0
  194.8110  174.7990  141.8690 C   0  0  0  0  0  3  0  0  0  0  0  0
  192.6840  174.9660  143.1080 C   0  0  0  0  0  0  0  0  0  0  0  0
  193.3740  175.7710  144.0370 C   0  0  0  0  0  0  0  0  0  0  0  0
  193.4440  174.5020  141.9920 C   0  0  0  0  0  0  0  0  0  0  0  0
  194.7220  176.0440  143.9010 C   0  0  0  0  0  0  0  0  0  0  0  0
  190.4670  176.0200  145.1500 C   0  0  0  0  0  0  0  0  0  0  0  0
  192.8820  173.7670  141.0010 F   0  0  0  0  0  0  0  0  0  0  0  0
  187.4510  176.3920  147.1640 O   0  0  0  0  0  0  0  0  0  0  0  0
  188.5350  175.7350  146.8370 C   0  0  0  0  0  0  0  0  0  0  0  0
  188.4480  177.5390  145.5390 C   0  0  0  0  0  3  0  0  0  0  0  0
  187.3760  177.4610  146.4080 C   0  0  0  0  0  0  0  0  0  0  0  0
  189.2020  176.4060  145.8210 C   0  0  0  0  0  0  0  0  0  0  0  0
  188.9460  174.4680  147.5030 C   0  0  0  0  0  1  0  0  0  0  0  0
  186.2830  178.4680  146.5040 C   0  0  0  0  0  2  0  0  0  0  0  0
  183.9520  178.5010  146.0070 O   0  0  0  0  0  0  0  0  0  0  0  0
  184.8480  176.4310  146.4170 O   0  0  0  0  0  1  0  0  0  0  0  0
  184.9600  177.8100  146.3060 C   0  0  0  0  0  0  0  0  0  0  0  0
  189.4190  172.9950  142.3860 C   0  0  0  0  0  2  0  0  0  0  0  0
  188.5970  173.9120  141.4910 C   0  0  0  0  0  2  0  0  0  0  0  0
  187.5020  174.5150  142.2400 N   0  0  0  0  0  2  0  0  0  0  0  0
  187.2600  175.9230  142.2990 C   0  0  0  0  0  0  0  0  0  0  0  0
  186.8310  178.6910  142.4010 C   0  0  0  0  0  3  0  0  0  0  0  0
  186.0730  176.4360  142.8460 C   0  0  0  0  0  3  0  0  0  0  0  0
  185.8590  177.8160  142.8960 C   0  0  0  0  0  3  0  0  0  0  0  0
  188.0150  178.1850  141.8580 C   0  0  0  0  0  3  0  0  0  0  0  0
  188.2280  176.8040  141.8080 C   0  0  0  0  0  3  0  0  0  0  0  0
  1  7  1  0  0  0  0
  2  4  1  0  0  0  0
  3  8  1  0  0  0  0
  3  7  1  0  0  0  0
  4  6  2  0  0  0  0
  5 13  1  0  0  0  0
  6 14  1  0  0  0  0
  9 12  1  0  0  0  0
  9  5  2  0  0  0  0
 10  4  1  0  0  0  0
 10 11  1  0  0  0  0
 11  3  2  0  0  0  0
 12 10  2  0  0  0  0
 13 11  1  0  0  0  0
 13  1  2  0  0  0  0
 14  8  2  0  0  0  0
 14 20  1  0  0  0  0
 15 12  1  0  0  0  0
 17 16  1  0  0  0  0
 17 21  1  0  0  0  0
 18 20  1  0  0  0  0
 18 19  2  0  0  0  0
 19 22  1  0  0  0  0
 19 16  1  0  0  0  0
 20 17  2  0  0  0  0
 23 25  2  0  0  0  0
 25 24  1  0  0  0  0
 25 22  1  0  0  0  0
 26  2  1  0  0  0  0
 27 28  1  0  0  0  0
 27 26  1  0  0  0  0
 28 29  1  0  0  0  0
 29 31  1  0  0  0  0
 30 32  1  0  0  0  0
 31 32  2  0  0  0  0
 33 30  2  0  0  0  0
 34 33  1  0  0  0  0
 34 29  2  0  0  0  0
M  END
>  <MODEL>
4

>  <REMARK>
 VINA RESULT:      -7.9      3.687      7.966
  Name = 
  7 active torsions:
  status: ('A' for Active; 'I' for Inactive)
    1  A    between atoms: C_2  and  C_18
    2  A    between atoms: C_2  and  C_33
    3  A    between atoms: C_5  and  N_12
    4  A    between atoms: N_6  and  C_26
    5  A    between atoms: C_10  and  N_12
    6  A    between atoms: C_10  and  C_26
    7  A    between atoms: C_28  and  C_32
                            x       y       z     vdW  Elec       q    Type
                         _______ _______ _______ _____ _____    ______ ____

>  <TORSDO>
F 7

$$$$
=
 OpenBabel11042416093D

 34 38  0  0  1  0  0  0  0  0999 V2000
  189.7390  172.7590  139.5370 N   0  0  0  0  0  0  0  0  0  0  0  0
  189.6960  173.9680  145.4380 N   0  0  0  0  0  2  0  0  0  0  0  0
  188.9440  174.3590  140.9890 C   0  0  0  0  0  0  0  0  0  0  0  0
  189.2330  174.1870  144.0980 C   0  0  0  0  0  0  0  0  0  0  0  0
  190.4740  171.2180  141.1690 C   0  0  0  0  0  3  0  0  0  0  0  0
  188.5610  175.2830  143.8760 N   0  0  0  0  0  0  0  0  0  0  0  0
  189.0890  174.0610  139.5330 C   0  0  0  0  0  3  0  0  0  0  0  0
  188.1710  175.4940  141.4690 C   0  0  0  0  0  3  0  0  0  0  0  0
  190.5650  170.9600  142.5350 C   0  0  0  0  0  3  0  0  0  0  0  0
  189.5710  173.1550  143.0680 C   0  0  0  0  0  0  0  0  0  0  0  0
  189.4650  173.3610  141.6770 C   0  0  0  0  0  0  0  0  0  0  0  0
  190.1180  171.9010  143.4770 C   0  0  0  0  0  0  0  0  0  0  0  0
  189.9180  172.4240  140.7680 C   0  0  2  0  0  3  0  0  0  0  0  0
  187.9670  175.8940  142.7220 C   0  0  0  0  0  0  0  0  0  0  0  0
  190.2210  171.5600  144.7850 F   0  0  0  0  0  0  0  0  0  0  0  0
  185.8110  178.8270  142.5270 O   0  0  0  0  0  0  0  0  0  0  0  0
  186.4410  177.8300  141.9590 C   0  0  0  0  0  0  0  0  0  0  0  0
  186.8730  177.7190  144.1380 C   0  0  0  0  0  3  0  0  0  0  0  0
  186.0540  178.7850  143.8160 C   0  0  0  0  0  0  0  0  0  0  0  0
  187.1260  177.1000  142.9200 C   0  0  0  0  0  0  0  0  0  0  0  0
  186.3790  177.5620  140.4960 C   0  0  0  0  0  1  0  0  0  0  0  0
  185.4910  179.7530  144.7970 C   0  0  0  0  0  2  0  0  0  0  0  0
  184.0620  178.3250  146.0620 O   0  0  0  0  0  0  0  0  0  0  0  0
  185.8840  179.1500  147.1840 O   0  0  0  0  0  1  0  0  0  0  0  0
  185.0940  179.0450  146.0460 C   0  0  0  0  0  0  0  0  0  0  0  0
  189.3310  174.8040  146.5730 C   0  0  0  0  0  2  0  0  0  0  0  0
  190.5790  175.2700  147.3100 C   0  0  0  0  0  2  0  0  0  0  0  0
  190.9870  176.5890  146.8420 N   0  0  0  0  0  2  0  0  0  0  0  0
  191.2300  176.9050  145.4690 C   0  0  0  0  0  0  0  0  0  0  0  0
  191.6660  177.5530  142.7760 C   0  0  0  0  0  3  0  0  0  0  0  0
  192.2080  176.2250  144.7260 C   0  0  0  0  0  3  0  0  0  0  0  0
  192.4260  176.5490  143.3840 C   0  0  0  0  0  3  0  0  0  0  0  0
  190.6890  178.2310  143.5120 C   0  0  0  0  0  3  0  0  0  0  0  0
  190.4720  177.9070  144.8540 C   0  0  0  0  0  3  0  0  0  0  0  0
  1 13  1  0  0  0  0
  2 26  1  0  0  0  0
  3  8  1  0  0  0  0
  3 11  2  0  0  0  0
  4  2  1  0  0  0  0
  5  9  2  0  0  0  0
  6  4  2  0  0  0  0
  7  1  2  0  0  0  0
  7  3  1  0  0  0  0
  8 14  2  0  0  0  0
  9 12  1  0  0  0  0
 10 12  2  0  0  0  0
 10  4  1  0  0  0  0
 11 10  1  0  0  0  0
 12 15  1  0  0  0  0
 13  5  1  1  0  0  0
 13 11  1  0  0  0  0
 14 20  1  0  0  0  0
 14  6  1  0  0  0  0
 16 19  1  0  0  0  0
 17 16  1  0  0  0  0
 17 20  2  0  0  0  0
 19 18  2  0  0  0  0
 19 22  1  0  0  0  0
 20 18  1  0  0  0  0
 21 17  1  0  0  0  0
 22 25  1  0  0  0  0
 25 23  2  0  0  0  0
 25 24  1  0  0  0  0
 26 27  1  0  0  0  0
 28 27  1  0  0  0  0
 29 28  1  0  0  0  0
 30 32  2  0  0  0  0
 30 33  1  0  0  0  0
 31 29  2  0  0  0  0
 32 31  1  0  0  0  0
 33 34  2  0  0  0  0
 34 29  1  0  0  0  0
M  END
>  <MODEL>
5

>  <REMARK>
 VINA RESULT:      -7.5      3.403      6.352
  Name = 
  7 active torsions:
  status: ('A' for Active; 'I' for Inactive)
    1  A    between atoms: C_2  and  C_18
    2  A    between atoms: C_2  and  C_33
    3  A    between atoms: C_5  and  N_12
    4  A    between atoms: N_6  and  C_26
    5  A    between atoms: C_10  and  N_12
    6  A    between atoms: C_10  and  C_26
    7  A    between atoms: C_28  and  C_32
                            x       y       z     vdW  Elec       q    Type
                         _______ _______ _______ _____ _____    ______ ____

>  <TORSDO>
F 7

$$$$
=
 OpenBabel11042416093D

 34 38  0  0  0  0  0  0  0  0999 V2000
  189.5860  173.3230  140.1010 N   0  0  0  0  0  0  0  0  0  0  0  0
  193.1690  176.2620  143.9490 N   0  0  0  0  0  2  0  0  0  0  0  0
  189.4280  174.6100  142.0050 C   0  0  0  0  0  0  0  0  0  0  0  0
  191.8990  175.7120  143.5720 C   0  0  0  0  0  0  0  0  0  0  0  0
  191.9390  173.1170  140.0790 C   0  0  0  0  0  3  0  0  0  0  0  0
  190.8580  176.1030  144.2540 N   0  0  0  0  0  0  0  0  0  0  0  0
  188.5910  173.9590  140.9520 C   0  0  0  0  0  2  0  0  0  0  0  0
  188.8410  175.2180  143.1880 C   0  0  0  0  0  3  0  0  0  0  0  0
  193.1190  173.4420  140.7450 C   0  0  0  0  0  3  0  0  0  0  0  0
  191.8710  174.7550  142.4210 C   0  0  0  0  0  0  0  0  0  0  0  0
  190.6990  174.3720  141.7380 C   0  0  0  0  0  0  0  0  0  0  0  0
  193.0970  174.2410  141.9000 C   0  0  0  0  0  0  0  0  0  0  0  0
  190.7440  173.5920  140.5980 C   0  0  0  0  0  0  0  0  0  0  0  0
  189.4480  175.8440  144.1930 C   0  0  0  0  0  0  0  0  0  0  0  0
  194.2880  174.4890  142.4990 F   0  0  0  0  0  0  0  0  0  0  0  0
  187.6340  176.6460  147.2510 O   0  0  0  0  0  0  0  0  0  0  0  0
  188.5070  175.9250  146.5940 C   0  0  0  0  0  0  0  0  0  0  0  0
  187.6990  177.4300  145.1700 C   0  0  0  0  0  3  0  0  0  0  0  0
  187.1390  177.5410  146.4290 C   0  0  0  0  0  0  0  0  0  0  0  0
  188.5900  176.3710  145.2820 C   0  0  0  0  0  0  0  0  0  0  0  0
  189.2770  174.8160  147.2210 C   0  0  0  0  0  1  0  0  0  0  0  0
  186.1250  178.5570  146.8250 C   0  0  0  0  0  2  0  0  0  0  0  0
  184.4430  176.8980  146.5120 O   0  0  0  0  0  1  0  0  0  0  0  0
  183.8370  179.0390  145.9580 O   0  0  0  0  0  0  0  0  0  0  0  0
  184.7640  178.1110  146.4140 C   0  0  0  0  0  0  0  0  0  0  0  0
  193.3800  177.0920  145.1280 C   0  0  0  0  0  2  0  0  0  0  0  0
  194.0150  176.2750  146.2450 C   0  0  0  0  0  2  0  0  0  0  0  0
  195.2310  175.6240  145.7750 N   0  0  0  0  0  2  0  0  0  0  0  0
  195.4020  174.2050  145.7170 C   0  0  0  0  0  0  0  0  0  0  0  0
  195.6880  171.4180  145.6080 C   0  0  0  0  0  3  0  0  0  0  0  0
  196.6740  173.6190  145.8160 C   0  0  0  0  0  3  0  0  0  0  0  0
  196.8160  172.2300  145.7600 C   0  0  0  0  0  3  0  0  0  0  0  0
  194.4190  171.9970  145.5110 C   0  0  0  0  0  3  0  0  0  0  0  0
  194.2780  173.3870  145.5670 C   0  0  0  0  0  3  0  0  0  0  0  0
  1 13  2  0  0  0  0
  1  7  1  0  0  0  0
  2 26  1  0  0  0  0
  3  8  1  0  0  0  0
  4  2  1  0  0  0  0
  4  6  2  0  0  0  0
  5 13  1  0  0  0  0
  5  9  2  0  0  0  0
  7  3  1  0  0  0  0
  8 14  2  0  0  0  0
  9 12  1  0  0  0  0
 10  4  1  0  0  0  0
 11  3  2  0  0  0  0
 11 10  1  0  0  0  0
 12 10  2  0  0  0  0
 12 15  1  0  0  0  0
 13 11  1  0  0  0  0
 14  6  1  0  0  0  0
 14 20  1  0  0  0  0
 17 21  1  0  0  0  0
 17 16  1  0  0  0  0
 18 20  1  0  0  0  0
 18 19  2  0  0  0  0
 19 22  1  0  0  0  0
 19 16  1  0  0  0  0
 20 17  2  0  0  0  0
 24 25  2  0  0  0  0
 25 23  1  0  0  0  0
 25 22  1  0  0  0  0
 26 27  1  0  0  0  0
 28 27  1  0  0  0  0
 29 28  1  0  0  0  0
 29 31  1  0  0  0  0
 30 32  1  0  0  0  0
 32 31  2  0  0  0  0
 33 34  1  0  0  0  0
 33 30  2  0  0  0  0
 34 29  2  0  0  0  0
M  END
>  <MODEL>
6

>  <REMARK>
 VINA RESULT:      -7.4      3.758      6.700
  Name = 
  7 active torsions:
  status: ('A' for Active; 'I' for Inactive)
    1  A    between atoms: C_2  and  C_18
    2  A    between atoms: C_2  and  C_33
    3  A    between atoms: C_5  and  N_12
    4  A    between atoms: N_6  and  C_26
    5  A    between atoms: C_10  and  N_12
    6  A    between atoms: C_10  and  C_26
    7  A    between atoms: C_28  and  C_32
                            x       y       z     vdW  Elec       q    Type
                         _______ _______ _______ _____ _____    ______ ____

>  <TORSDO>
F 7

$$$$
=
 OpenBabel11042416093D

 34 38  0  0  0  0  0  0  0  0999 V2000
  185.7610  178.7120  147.9400 N   0  0  0  0  0  0  0  0  0  0  0  0
  186.8740  177.6840  142.1100 N   0  0  0  0  0  2  0  0  0  0  0  0
  187.4500  177.9110  146.5960 C   0  0  0  0  0  0  0  0  0  0  0  0
  187.1870  177.5400  143.5020 C   0  0  0  0  0  0  0  0  0  0  0  0
  184.0950  178.8480  146.2710 C   0  0  0  0  0  3  0  0  0  0  0  0
  188.3830  177.1120  143.7990 N   0  0  0  0  0  0  0  0  0  0  0  0
  187.1530  178.2950  148.0090 C   0  0  0  0  0  2  0  0  0  0  0  0
  188.6910  177.2510  146.2230 C   0  0  0  0  0  3  0  0  0  0  0  0
  183.8060  178.6200  144.9270 C   0  0  0  0  0  3  0  0  0  0  0  0
  186.1280  177.9070  144.4950 C   0  0  0  0  0  0  0  0  0  0  0  0
  186.3690  178.1160  145.8680 C   0  0  0  0  0  0  0  0  0  0  0  0
  184.7950  178.1520  144.0470 C   0  0  0  0  0  0  0  0  0  0  0  0
  185.3820  178.5850  146.7150 C   0  0  0  0  0  0  0  0  0  0  0  0
  189.1020  176.8670  145.0160 C   0  0  0  0  0  0  0  0  0  0  0  0
  184.4220  177.9340  142.7610 F   0  0  0  0  0  0  0  0  0  0  0  0
  192.4940  175.7270  144.3240 O   0  0  0  0  0  0  0  0  0  0  0  0
  191.4980  176.5480  144.1120 C   0  0  0  0  0  0  0  0  0  0  0  0
  190.8360  175.1080  145.6710 C   0  0  0  0  0  3  0  0  0  0  0  0
  192.1260  174.8630  145.2400 C   0  0  0  0  0  0  0  0  0  0  0  0
  190.4280  176.2090  144.9290 C   0  0  0  0  0  0  0  0  0  0  0  0
  191.5670  177.6720  143.1370 C   0  0  0  0  0  1  0  0  0  0  0  0
  193.0070  173.7800  145.7590 C   0  0  0  0  0  2  0  0  0  0  0  0
  195.0150  173.4590  144.5170 O   0  0  0  0  0  0  0  0  0  0  0  0
  195.1030  175.0730  146.1430 O   0  0  0  0  0  1  0  0  0  0  0  0
  194.4310  174.0810  145.4420 C   0  0  0  0  0  0  0  0  0  0  0  0
  187.7420  177.2380  141.0290 C   0  0  0  0  0  2  0  0  0  0  0  0
  187.8180  175.7180  141.0040 C   0  0  0  0  0  2  0  0  0  0  0  0
  189.2060  175.2730  141.0350 N   0  0  0  0  0  2  0  0  0  0  0  0
  189.6710  174.1760  141.8260 C   0  0  0  0  0  0  0  0  0  0  0  0
  190.6240  172.0250  143.3490 C   0  0  0  0  0  3  0  0  0  0  0  0
  188.8360  173.5480  142.7640 C   0  0  0  0  0  3  0  0  0  0  0  0
  189.3120  172.4760  143.5240 C   0  0  0  0  0  3  0  0  0  0  0  0
  191.4580  172.6460  142.4150 C   0  0  0  0  0  3  0  0  0  0  0  0
  190.9820  173.7190  141.6550 C   0  0  0  0  0  3  0  0  0  0  0  0
  1  7  1  0  0  0  0
  2  4  1  0  0  0  0
  3  7  1  0  0  0  0
  4  6  2  0  0  0  0
  4 10  1  0  0  0  0
  5 13  1  0  0  0  0
  6 14  1  0  0  0  0
  8  3  1  0  0  0  0
  9  5  2  0  0  0  0
 10 11  1  0  0  0  0
 11  3  2  0  0  0  0
 11 13  1  0  0  0  0
 12 10  2  0  0  0  0
 12  9  1  0  0  0  0
 13  1  2  0  0  0  0
 14  8  2  0  0  0  0
 15 12  1  0  0  0  0
 16 19  1  0  0  0  0
 17 16  1  0  0  0  0
 17 20  2  0  0  0  0
 19 18  2  0  0  0  0
 19 22  1  0  0  0  0
 20 14  1  0  0  0  0
 20 18  1  0  0  0  0
 21 17  1  0  0  0  0
 23 25  2  0  0  0  0
 25 22  1  0  0  0  0
 25 24  1  0  0  0  0
 26  2  1  0  0  0  0
 27 26  1  0  0  0  0
 27 28  1  0  0  0  0
 28 29  1  0  0  0  0
 29 31  1  0  0  0  0
 30 32  1  0  0  0  0
 31 32  2  0  0  0  0
 33 30  2  0  0  0  0
 34 29  2  0  0  0  0
 34 33  1  0  0  0  0
M  END
>  <MODEL>
7

>  <REMARK>
 VINA RESULT:      -7.4      2.730      4.949
  Name = 
  7 active torsions:
  status: ('A' for Active; 'I' for Inactive)
    1  A    between atoms: C_2  and  C_18
    2  A    between atoms: C_2  and  C_33
    3  A    between atoms: C_5  and  N_12
    4  A    between atoms: N_6  and  C_26
    5  A    between atoms: C_10  and  N_12
    6  A    between atoms: C_10  and  C_26
    7  A    between atoms: C_28  and  C_32
                            x       y       z     vdW  Elec       q    Type
                         _______ _______ _______ _____ _____    ______ ____

>  <TORSDO>
F 7

$$$$
=
 OpenBabel11042416093D

 34 38  0  0  1  0  0  0  0  0999 V2000
  188.9260  172.9110  137.3930 N   0  0  0  0  0  0  0  0  0  0  0  0
  190.6490  172.4500  143.1470 N   0  0  0  0  0  2  0  0  0  0  0  0
  188.6840  174.0370  139.3880 C   0  0  0  0  0  0  0  0  0  0  0  0
  189.8370  173.0220  142.1120 C   0  0  0  0  0  0  0  0  0  0  0  0
  189.9970  170.9940  138.2640 C   0  0  0  0  0  3  0  0  0  0  0  0
  189.2020  174.1250  142.3970 N   0  0  0  0  0  0  0  0  0  0  0  0
  188.3880  174.1530  137.9280 C   0  0  0  0  0  3  0  0  0  0  0  0
  188.1550  174.9820  140.3580 C   0  0  0  0  0  3  0  0  0  0  0  0
  190.4570  170.3730  139.4230 C   0  0  0  0  0  3  0  0  0  0  0  0
  189.8000  172.3190  140.7900 C   0  0  0  0  0  0  0  0  0  0  0  0
  189.3140  172.8970  139.5990 C   0  0  0  0  0  0  0  0  0  0  0  0
  190.3600  171.0110  140.6700 C   0  0  0  0  0  0  0  0  0  0  0  0
  189.4280  172.2540  138.3810 C   0  0  2  0  0  3  0  0  0  0  0  0
  188.3430  175.0190  141.6750 C   0  0  0  0  0  0  0  0  0  0  0  0
  190.8090  170.3240  141.7500 F   0  0  0  0  0  0  0  0  0  0  0  0
  187.2890  178.0330  143.4330 O   0  0  0  0  0  0  0  0  0  0  0  0
  188.1870  177.3500  142.7690 C   0  0  0  0  0  0  0  0  0  0  0  0
  186.3770  176.0680  142.9270 C   0  0  0  0  0  3  0  0  0  0  0  0
  186.2100  177.2940  143.5420 C   0  0  0  0  0  0  0  0  0  0  0  0
  187.6720  176.1080  142.4260 C   0  0  0  0  0  0  0  0  0  0  0  0
  189.5380  177.8880  142.4480 C   0  0  0  0  0  1  0  0  0  0  0  0
  184.9630  177.7440  144.2210 C   0  0  0  0  0  2  0  0  0  0  0  0
  184.9410  176.7540  146.3880 O   0  0  0  0  0  1  0  0  0  0  0  0
  185.6400  178.9360  146.3030 O   0  0  0  0  0  0  0  0  0  0  0  0
  185.1670  177.7800  145.6960 C   0  0  0  0  0  0  0  0  0  0  0  0
  190.6770  172.9360  144.5210 C   0  0  0  0  0  2  0  0  0  0  0  0
  192.0150  173.5980  144.8200 C   0  0  0  0  0  2  0  0  0  0  0  0
  191.8950  174.5050  145.9550 N   0  0  0  0  0  2  0  0  0  0  0  0
  190.7450  175.3170  146.2050 C   0  0  0  0  0  0  0  0  0  0  0  0
  188.4650  176.8690  146.7090 C   0  0  0  0  0  3  0  0  0  0  0  0
  190.7130  176.6710  145.8320 C   0  0  0  0  0  3  0  0  0  0  0  0
  189.5760  177.4440  146.0850 C   0  0  0  0  0  3  0  0  0  0  0  0
  188.4920  175.5210  147.0790 C   0  0  0  0  0  3  0  0  0  0  0  0
  189.6290  174.7480  146.8270 C   0  0  0  0  0  3  0  0  0  0  0  0
  1  7  2  0  0  0  0
  1 13  1  0  0  0  0
  2 26  1  0  0  0  0
  3 11  2  0  0  0  0
  3  8  1  0  0  0  0
  4  6  2  0  0  0  0
  4  2  1  0  0  0  0
  5  9  2  0  0  0  0
  7  3  1  0  0  0  0
  8 14  2  0  0  0  0
  9 12  1  0  0  0  0
 10  4  1  0  0  0  0
 11 10  1  0  0  0  0
 12 10  2  0  0  0  0
 12 15  1  0  0  0  0
 13  5  1  1  0  0  0
 13 11  1  0  0  0  0
 14  6  1  0  0  0  0
 14 20  1  0  0  0  0
 16 19  1  0  0  0  0
 17 16  1  0  0  0  0
 18 19  2  0  0  0  0
 19 22  1  0  0  0  0
 20 17  2  0  0  0  0
 20 18  1  0  0  0  0
 21 17  1  0  0  0  0
 22 25  1  0  0  0  0
 25 24  2  0  0  0  0
 25 23  1  0  0  0  0
 26 27  1  0  0  0  0
 27 28  1  0  0  0  0
 28 29  1  0  0  0  0
 29 34  1  0  0  0  0
 30 33  1  0  0  0  0
 31 32  1  0  0  0  0
 31 29  2  0  0  0  0
 32 30  2  0  0  0  0
 34 33  2  0  0  0  0
M  END
>  <MODEL>
8

>  <REMARK>
 VINA RESULT:      -7.3      3.643      6.844
  Name = 
  7 active torsions:
  status: ('A' for Active; 'I' for Inactive)
    1  A    between atoms: C_2  and  C_18
    2  A    between atoms: C_2  and  C_33
    3  A    between atoms: C_5  and  N_12
    4  A    between atoms: N_6  and  C_26
    5  A    between atoms: C_10  and  N_12
    6  A    between atoms: C_10  and  C_26
    7  A    between atoms: C_28  and  C_32
                            x       y       z     vdW  Elec       q    Type
                         _______ _______ _______ _____ _____    ______ ____

>  <TORSDO>
F 7

$$$$
=
 OpenBabel11042416093D

 34 38  0  0  1  0  0  0  0  0999 V2000
  193.0680  173.9500  145.9420 N   0  0  0  0  0  0  0  0  0  0  0  0
  189.0840  177.6140  143.2990 N   0  0  0  0  0  2  0  0  0  0  0  0
  191.8090  174.0690  144.0170 C   0  0  0  0  0  0  0  0  0  0  0  0
  189.7640  176.3560  143.4130 C   0  0  0  0  0  0  0  0  0  0  0  0
  192.1080  175.8090  147.0390 C   0  0  0  0  0  3  0  0  0  0  0  0
  189.6800  175.5430  142.3960 N   0  0  0  0  0  0  0  0  0  0  0  0
  192.8840  173.2640  144.6710 C   0  0  0  0  0  3  0  0  0  0  0  0
  191.1660  173.6380  142.7870 C   0  0  0  0  0  3  0  0  0  0  0  0
  191.1490  176.8150  146.9490 C   0  0  0  0  0  3  0  0  0  0  0  0
  190.5240  176.0890  144.6750 C   0  0  1  0  0  3  0  0  0  0  0  0
  191.4800  175.0630  144.8210 C   0  0  0  0  0  0  0  0  0  0  0  0
  190.3610  176.9590  145.7960 C   0  0  0  0  0  0  0  0  0  0  0  0
  192.2510  174.9450  145.9620 C   0  0  0  0  0  0  0  0  0  0  0  0
  190.2160  174.2500  142.0830 C   0  0  0  0  0  0  0  0  0  0  0  0
  189.4350  177.9490  145.8020 F   0  0  0  0  0  0  0  0  0  0  0  0
  188.4860  172.4380  139.4350 O   0  0  0  0  0  0  0  0  0  0  0  0
  188.5380  172.9040  140.6570 C   0  0  0  0  0  0  0  0  0  0  0  0
  190.4350  173.4880  139.6530 C   0  0  0  0  0  3  0  0  0  0  0  0
  189.5980  172.7680  138.8220 C   0  0  0  0  0  0  0  0  0  0  0  0
  189.7400  173.5710  140.8530 C   0  0  0  0  0  0  0  0  0  0  0  0
  187.4340  172.7260  141.6400 C   0  0  0  0  0  1  0  0  0  0  0  0
  189.8940  172.4260  137.4030 C   0  0  0  0  0  2  0  0  0  0  0  0
  190.6180  173.8680  135.6490 O   0  0  0  0  0  0  0  0  0  0  0  0
  188.6870  174.4950  136.7130 O   0  0  0  0  0  1  0  0  0  0  0  0
  189.7660  173.6380  136.5460 C   0  0  0  0  0  0  0  0  0  0  0  0
  188.1920  177.9610  142.2000 C   0  0  0  0  0  2  0  0  0  0  0  0
  186.8800  178.5170  142.7390 C   0  0  0  0  0  2  0  0  0  0  0  0
  186.2420  177.5540  143.6270 N   0  0  0  0  0  2  0  0  0  0  0  0
  186.1580  177.7150  145.0450 C   0  0  0  0  0  0  0  0  0  0  0  0
  185.9850  178.0790  147.8200 C   0  0  0  0  0  3  0  0  0  0  0  0
  186.5030  176.6720  145.9190 C   0  0  0  0  0  3  0  0  0  0  0  0
  186.4160  176.8530  147.3020 C   0  0  0  0  0  3  0  0  0  0  0  0
  185.6420  179.1210  146.9530 C   0  0  0  0  0  3  0  0  0  0  0  0
  185.7290  178.9390  145.5700 C   0  0  0  0  0  3  0  0  0  0  0  0
  1 13  1  0  0  0  0
  2  4  1  0  0  0  0
  3  7  1  0  0  0  0
  3 11  2  0  0  0  0
  6  4  2  0  0  0  0
  7  1  2  0  0  0  0
  8  3  1  0  0  0  0
  9  5  1  0  0  0  0
 10  4  1  6  0  0  0
 10 11  1  0  0  0  0
 10 12  1  0  0  0  0
 11 13  1  0  0  0  0
 12 15  1  0  0  0  0
 12  9  2  0  0  0  0
 13  5  2  0  0  0  0
 14  6  1  0  0  0  0
 14  8  2  0  0  0  0
 16 17  1  0  0  0  0
 17 20  2  0  0  0  0
 17 21  1  0  0  0  0
 18 20  1  0  0  0  0
 19 16  1  0  0  0  0
 19 18  2  0  0  0  0
 20 14  1  0  0  0  0
 22 19  1  0  0  0  0
 23 25  2  0  0  0  0
 25 24  1  0  0  0  0
 25 22  1  0  0  0  0
 26 27  1  0  0  0  0
 26  2  1  0  0  0  0
 27 28  1  0  0  0  0
 28 29  1  0  0  0  0
 29 34  2  0  0  0  0
 29 31  1  0  0  0  0
 31 32  2  0  0  0  0
 32 30  1  0  0  0  0
 33 30  2  0  0  0  0
 34 33  1  0  0  0  0
M  END
>  <MODEL>
9

>  <REMARK>
 VINA RESULT:      -7.2      2.050      6.104
  Name = 
  7 active torsions:
  status: ('A' for Active; 'I' for Inactive)
    1  A    between atoms: C_2  and  C_18
    2  A    between atoms: C_2  and  C_33
    3  A    between atoms: C_5  and  N_12
    4  A    between atoms: N_6  and  C_26
    5  A    between atoms: C_10  and  N_12
    6  A    between atoms: C_10  and  C_26
    7  A    between atoms: C_28  and  C_32
                            x       y       z     vdW  Elec       q    Type
                         _______ _______ _______ _____ _____    ______ ____

>  <TORSDO>
F 7

$$$$
