=
 OpenBabel11042416013D

 43 48  0  0  1  0  0  0  0  0999 V2000
  195.0910  172.6150  142.4750 N   0  0  0  0  0  2  0  0  0  0  0  0
  194.8650  174.2460  144.1590 N   0  0  0  0  0  0  0  0  0  0  0  0
  190.8070  174.6820  146.1460 C   0  0  0  0  0  0  0  0  0  0  0  0
  192.8540  174.6670  145.3980 C   0  0  0  0  0  0  0  0  0  0  0  0
  192.7850  172.9840  143.5760 C   0  0  2  0  0  3  0  0  0  0  0  0
  192.5410  176.3410  147.0660 C   0  0  0  0  0  3  0  0  0  0  0  0
  194.1590  174.9910  145.1640 C   0  0  0  0  0  0  0  0  0  0  0  0
  190.8830  173.7280  145.1710 N   0  0  0  0  0  0  0  0  0  0  0  0
  192.0510  175.2870  146.2930 C   0  0  0  0  0  0  0  0  0  0  0  0
  192.1350  173.3240  142.4030 F   0  0  0  0  0  0  0  0  0  0  0  0
  193.9000  176.7070  146.8800 C   0  0  0  0  0  3  0  0  0  0  0  0
  192.1610  173.7360  144.7200 C   0  0  0  0  0  0  0  0  0  0  0  0
  194.7150  176.0330  145.9280 C   0  0  0  0  0  3  0  0  0  0  0  0
  194.2880  173.3080  143.4390 C   0  0  0  0  0  0  0  0  0  0  0  0
  194.5850  170.2000  142.3590 O   0  0  0  0  0  0  0  0  0  0  0  0
  194.2180  169.0790  141.6350 N   0  0  0  0  0  2  0  0  0  0  0  0
  194.7120  171.4500  141.7360 C   0  0  0  0  0  0  0  0  0  0  0  0
  193.9690  169.1850  140.2290 C   0  0  0  0  0  3  0  0  0  0  0  0
  194.0970  170.3720  139.6370 C   0  0  0  0  0  3  0  0  0  0  0  0
  194.4870  171.5550  140.4230 C   0  0  0  0  0  3  0  0  0  0  0  0
  189.7790  172.9380  144.6400 C   0  0  0  0  0  2  0  0  0  0  0  0
  189.2170  173.5910  143.3910 C   0  0  0  0  0  1  0  0  0  0  0  0
  189.5540  175.0390  146.8980 C   0  0  0  0  0  2  0  0  0  0  0  0
  189.5570  177.5520  147.0770 C   0  0  0  0  0  1  0  0  0  0  0  0
  188.8880  176.3480  146.4330 C   0  0  2  0  0  0  0  0  0  0  0  0
  187.4160  176.3420  146.8450 C   0  0  0  0  0  2  0  0  0  0  0  0
  186.5990  176.8370  145.8240 O   0  0  0  0  0  0  0  0  0  0  0  0
  186.2210  178.3250  147.9410 O   0  0  0  0  0  1  0  0  0  0  0  0
  185.7090  178.0900  146.5380 P   0  0  0  0  0  0  0  0  0  0  0  0
  185.8940  179.5090  145.6350 O   0  0  0  0  0  0  0  0  0  0  0  0
  184.0700  177.6730  146.6070 O   0  0  0  0  0  1  0  0  0  0  0  0
  188.9860  176.5150  144.9150 C   0  0  0  0  0  2  0  0  0  0  0  0
  190.0620  177.5230  144.4930 C   0  0  1  0  0  3  0  0  0  0  0  0
  190.7360  177.0170  143.2350 C   0  0  1  0  0  3  0  0  0  0  0  0
  189.8210  178.2280  143.1500 C   0  0  1  0  0  3  0  0  0  0  0  0
  192.1770  177.4800  143.2300 C   0  0  0  0  0  1  0  0  0  0  0  0
  187.3630  178.6460  142.7490 C   0  0  0  0  0  3  0  0  0  0  0  0
  186.1030  177.1840  141.2950 C   0  0  0  0  0  3  0  0  0  0  0  0
  186.1560  178.2890  142.1450 C   0  0  0  0  0  0  0  0  0  0  0  0
  187.2660  176.4470  141.0640 C   0  0  0  0  0  3  0  0  0  0  0  0
  188.4350  176.8120  141.6580 N   0  0  0  0  0  0  0  0  0  0  0  0
  185.0360  179.0100  142.3910 F   0  0  0  0  0  0  0  0  0  0  0  0
  188.5150  177.8980  142.4770 C   0  0  0  0  0  0  0  0  0  0  0  0
  1 14  1  0  0  0  0
  2  7  1  0  0  0  0
  3  9  2  0  0  0  0
  3 23  1  0  0  0  0
  4  9  1  0  0  0  0
  5 10  1  6  0  0  0
  5 12  1  0  0  0  0
  7  4  1  0  0  0  0
  7 13  2  0  0  0  0
  8  3  1  0  0  0  0
  9  6  1  0  0  0  0
 11  6  2  0  0  0  0
 12  8  1  0  0  0  0
 12  4  2  0  0  0  0
 13 11  1  0  0  0  0
 14  5  1  0  0  0  0
 14  2  2  0  0  0  0
 16 15  1  0  0  0  0
 17 15  1  0  0  0  0
 17  1  1  0  0  0  0
 18 16  1  0  0  0  0
 19 18  2  0  0  0  0
 19 20  1  0  0  0  0
 20 17  2  0  0  0  0
 21  8  1  0  0  0  0
 22 21  1  0  0  0  0
 25 26  1  0  0  0  0
 25 23  1  0  0  0  0
 25 24  1  1  0  0  0
 27 29  1  0  0  0  0
 27 26  1  0  0  0  0
 29 31  1  0  0  0  0
 29 28  1  0  0  0  0
 30 29  2  0  0  0  0
 32 25  1  0  0  0  0
 33 32  1  6  0  0  0
 34 36  1  1  0  0  0
 34 33  1  0  0  0  0
 35 43  1  6  0  0  0
 35 34  1  0  0  0  0
 35 33  1  0  0  0  0
 38 39  1  0  0  0  0
 39 42  1  0  0  0  0
 39 37  2  0  0  0  0
 40 38  2  0  0  0  0
 40 41  1  0  0  0  0
 41 43  2  0  0  0  0
 43 37  1  0  0  0  0
M  END
>  <MODEL>
1

>  <REMARK>
 VINA RESULT:      -7.6      0.000      0.000
  Name = 
  10 active torsions:
  status: ('A' for Active; 'I' for Inactive)
    1  A    between atoms: C_1  and  C_21
    2  A    between atoms: N_3  and  C_17
    3  A    between atoms: C_6  and  C_38
    4  A    between atoms: C_9  and  O_20
    5  A    between atoms: C_9  and  C_35
    6  A    between atoms: P_15  and  O_20
    7  A    between atoms: N_16  and  C_26
    8  A    between atoms: C_21  and  C_35
    9  A    between atoms: C_29  and  C_41
   10  A    between atoms: C_35  and  C_38
                            x       y       z     vdW  Elec       q    Type
                         _______ _______ _______ _____ _____    ______ ____

>  <TORSDO>
F 10

$$$$
=
 OpenBabel11042416013D

 43 48  0  0  1  0  0  0  0  0999 V2000
  185.5990  178.4920  143.9380 N   0  0  0  0  0  2  0  0  0  0  0  0
  187.4190  177.9810  145.3440 N   0  0  0  0  0  0  0  0  0  0  0  0
  190.0110  174.4230  144.2340 C   0  0  0  0  0  0  0  0  0  0  0  0
  188.9700  176.1870  144.9800 C   0  0  0  0  0  0  0  0  0  0  0  0
  187.0540  176.4220  143.4210 C   0  0  2  0  0  3  0  0  0  0  0  0
  190.7890  175.5780  146.3950 C   0  0  0  0  0  3  0  0  0  0  0  0
  188.5710  177.2330  145.7620 C   0  0  0  0  0  0  0  0  0  0  0  0
  188.9650  174.6730  143.3910 N   0  0  0  0  0  0  0  0  0  0  0  0
  190.0180  175.3760  145.2490 C   0  0  0  0  0  0  0  0  0  0  0  0
  186.0200  175.5090  143.5210 F   0  0  0  0  0  0  0  0  0  0  0  0
  190.4330  176.6660  147.2340 C   0  0  0  0  0  3  0  0  0  0  0  0
  188.3320  175.7700  143.8730 C   0  0  0  0  0  0  0  0  0  0  0  0
  189.3220  177.4980  146.9210 C   0  0  0  0  0  3  0  0  0  0  0  0
  186.7210  177.6650  144.2730 C   0  0  0  0  0  0  0  0  0  0  0  0
  185.4570  178.4960  141.4710 O   0  0  0  0  0  0  0  0  0  0  0  0
  184.7100  178.4410  140.3070 N   0  0  0  0  0  2  0  0  0  0  0  0
  184.8370  178.4360  142.7280 C   0  0  0  0  0  0  0  0  0  0  0  0
  183.2840  178.3300  140.3770 C   0  0  0  0  0  3  0  0  0  0  0  0
  182.6960  178.2810  141.5710 C   0  0  0  0  0  3  0  0  0  0  0  0
  183.5060  178.3380  142.8000 C   0  0  0  0  0  3  0  0  0  0  0  0
  188.5440  173.8510  142.2630 C   0  0  0  0  0  2  0  0  0  0  0  0
  189.0310  174.4560  140.9600 C   0  0  0  0  0  1  0  0  0  0  0  0
  190.9650  173.2690  144.0970 C   0  0  0  0  0  2  0  0  0  0  0  0
  192.2040  174.9730  142.7160 C   0  0  0  0  0  1  0  0  0  0  0  0
  192.3010  173.6280  143.4180 C   0  0  2  0  0  0  0  0  0  0  0  0
  192.6400  172.5660  142.3730 C   0  0  0  0  0  2  0  0  0  0  0  0
  191.4980  171.8710  141.9640 O   0  0  0  0  0  0  0  0  0  0  0  0
  192.8880  170.0180  140.7520 O   0  0  0  0  0  0  0  0  0  0  0  0
  191.9610  170.2420  141.9240 P   0  0  0  0  0  0  0  0  0  0  0  0
  192.7710  169.8440  143.3560 O   0  0  0  0  0  1  0  0  0  0  0  0
  190.5980  169.2530  141.7520 O   0  0  0  0  0  1  0  0  0  0  0  0
  193.4390  173.7130  144.4370 C   0  0  0  0  0  2  0  0  0  0  0  0
  193.9610  175.1420  144.6310 C   0  0  1  0  0  3  0  0  0  0  0  0
  194.5200  175.2690  146.0330 C   0  0  1  0  0  3  0  0  0  0  0  0
  195.4760  175.2710  144.8500 C   0  0  1  0  0  3  0  0  0  0  0  0
  194.3200  176.6900  146.5140 C   0  0  0  0  0  1  0  0  0  0  0  0
  196.2160  173.0500  145.7970 C   0  0  0  0  0  3  0  0  0  0  0  0
  197.7790  171.6690  144.5760 C   0  0  0  0  0  3  0  0  0  0  0  0
  196.9780  171.8850  145.6990 C   0  0  0  0  0  0  0  0  0  0  0  0
  197.8070  172.6310  143.5650 C   0  0  0  0  0  3  0  0  0  0  0  0
  197.0540  173.7600  143.6760 N   0  0  0  0  0  0  0  0  0  0  0  0
  196.9460  170.9690  146.6950 F   0  0  0  0  0  0  0  0  0  0  0  0
  196.2500  173.9840  144.7530 C   0  0  0  0  0  0  0  0  0  0  0  0
  1 14  1  0  0  0  0
  2  7  1  0  0  0  0
  3  9  2  0  0  0  0
  4  9  1  0  0  0  0
  4  7  1  0  0  0  0
  5 10  1  1  0  0  0
  5 12  1  0  0  0  0
  5 14  1  0  0  0  0
  6 11  2  0  0  0  0
  7 13  2  0  0  0  0
  8 12  1  0  0  0  0
  8  3  1  0  0  0  0
  9  6  1  0  0  0  0
 12  4  2  0  0  0  0
 13 11  1  0  0  0  0
 14  2  2  0  0  0  0
 15 17  1  0  0  0  0
 16 18  1  0  0  0  0
 16 15  1  0  0  0  0
 17 20  2  0  0  0  0
 17  1  1  0  0  0  0
 18 19  2  0  0  0  0
 19 20  1  0  0  0  0
 21  8  1  0  0  0  0
 22 21  1  0  0  0  0
 23  3  1  0  0  0  0
 25 24  1  6  0  0  0
 25 23  1  0  0  0  0
 25 32  1  0  0  0  0
 26 25  1  0  0  0  0
 27 26  1  0  0  0  0
 28 29  2  0  0  0  0
 29 27  1  0  0  0  0
 29 30  1  0  0  0  0
 31 29  1  0  0  0  0
 33 32  1  1  0  0  0
 33 35  1  0  0  0  0
 33 34  1  0  0  0  0
 34 36  1  6  0  0  0
 35 43  1  1  0  0  0
 35 34  1  0  0  0  0
 38 39  2  0  0  0  0
 39 37  1  0  0  0  0
 39 42  1  0  0  0  0
 40 41  2  0  0  0  0
 40 38  1  0  0  0  0
 41 43  1  0  0  0  0
 43 37  2  0  0  0  0
M  END
>  <MODEL>
2

>  <REMARK>
 VINA RESULT:      -7.3      3.327      8.968
  Name = 
  10 active torsions:
  status: ('A' for Active; 'I' for Inactive)
    1  A    between atoms: C_1  and  C_21
    2  A    between atoms: N_3  and  C_17
    3  A    between atoms: C_6  and  C_38
    4  A    between atoms: C_9  and  O_20
    5  A    between atoms: C_9  and  C_35
    6  A    between atoms: P_15  and  O_20
    7  A    between atoms: N_16  and  C_26
    8  A    between atoms: C_21  and  C_35
    9  A    between atoms: C_29  and  C_41
   10  A    between atoms: C_35  and  C_38
                            x       y       z     vdW  Elec       q    Type
                         _______ _______ _______ _____ _____    ______ ____

>  <TORSDO>
F 10

$$$$
=
 OpenBabel11042416013D

 43 48  0  0  1  0  0  0  0  0999 V2000
  189.5070  177.3510  146.2800 N   0  0  0  0  0  2  0  0  0  0  0  0
  191.7610  176.6710  146.3170 N   0  0  0  0  0  0  0  0  0  0  0  0
  192.7340  172.4990  144.8130 C   0  0  0  0  0  0  0  0  0  0  0  0
  192.5640  174.5430  145.5510 C   0  0  0  0  0  0  0  0  0  0  0  0
  190.1170  174.9560  145.5330 C   0  0  2  0  0  3  0  0  0  0  0  0
  194.8170  173.7690  145.6210 C   0  0  0  0  0  3  0  0  0  0  0  0
  192.8500  175.7580  146.1030 C   0  0  0  0  0  0  0  0  0  0  0  0
  191.4120  172.8420  144.7780 N   0  0  0  0  0  0  0  0  0  0  0  0
  193.4710  173.5700  145.3080 C   0  0  0  0  0  0  0  0  0  0  0  0
  189.3450  174.3220  146.4890 F   0  0  0  0  0  0  0  0  0  0  0  0
  195.1760  175.0240  146.1780 C   0  0  0  0  0  3  0  0  0  0  0  0
  191.3290  174.1130  145.2410 C   0  0  0  0  0  0  0  0  0  0  0  0
  194.1940  176.0240  146.4210 C   0  0  0  0  0  3  0  0  0  0  0  0
  190.5120  176.3570  146.0430 C   0  0  0  0  0  0  0  0  0  0  0  0
  187.7410  177.6130  144.5720 O   0  0  0  0  0  0  0  0  0  0  0  0
  186.4120  177.5420  144.1920 N   0  0  0  0  0  2  0  0  0  0  0  0
  188.1360  177.2810  145.8770 C   0  0  0  0  0  0  0  0  0  0  0  0
  185.4180  177.1330  145.1380 C   0  0  0  0  0  3  0  0  0  0  0  0
  185.7930  176.8260  146.3790 C   0  0  0  0  0  3  0  0  0  0  0  0
  187.2120  176.9040  146.7660 C   0  0  0  0  0  3  0  0  0  0  0  0
  190.2970  171.9710  144.4220 C   0  0  0  0  0  2  0  0  0  0  0  0
  189.7960  172.3000  143.0290 C   0  0  0  0  0  1  0  0  0  0  0  0
  193.2800  171.1540  144.4200 C   0  0  0  0  0  2  0  0  0  0  0  0
  192.8640  170.6280  141.9910 C   0  0  0  0  0  1  0  0  0  0  0  0
  193.8910  171.1080  143.0060 C   0  0  2  0  0  0  0  0  0  0  0  0
  195.0670  170.1320  142.9940 C   0  0  0  0  0  2  0  0  0  0  0  0
  195.3050  169.6040  144.2660 O   0  0  0  0  0  0  0  0  0  0  0  0
  197.6560  168.5980  144.8110 O   0  0  0  0  0  1  0  0  0  0  0  0
  196.9430  169.9090  144.5720 P   0  0  0  0  0  0  0  0  0  0  0  0
  197.6390  170.6850  143.2390 O   0  0  0  0  0  0  0  0  0  0  0  0
  197.1060  170.8880  145.9440 O   0  0  0  0  0  1  0  0  0  0  0  0
  194.3770  172.4890  142.5620 C   0  0  0  0  0  2  0  0  0  0  0  0
  193.6380  173.0130  141.3250 C   0  0  1  0  0  3  0  0  0  0  0  0
  192.9230  174.2960  141.6920 C   0  0  1  0  0  3  0  0  0  0  0  0
  194.1350  174.3590  140.7750 C   0  0  1  0  0  3  0  0  0  0  0  0
  191.6640  174.4120  140.8610 C   0  0  0  0  0  1  0  0  0  0  0  0
  195.1870  175.8880  142.4880 C   0  0  0  0  0  3  0  0  0  0  0  0
  197.5920  176.0410  142.6660 C   0  0  0  0  0  3  0  0  0  0  0  0
  196.3210  176.4340  143.0890 C   0  0  0  0  0  0  0  0  0  0  0  0
  197.7070  175.1030  141.6380 C   0  0  0  0  0  3  0  0  0  0  0  0
  196.5890  174.5770  141.0660 N   0  0  0  0  0  0  0  0  0  0  0  0
  196.1900  177.3510  144.0770 F   0  0  0  0  0  0  0  0  0  0  0  0
  195.3380  174.9320  141.4750 C   0  0  0  0  0  0  0  0  0  0  0  0
  3  9  2  0  0  0  0
  4  7  1  0  0  0  0
  5 14  1  0  0  0  0
  5 10  1  1  0  0  0
  6 11  2  0  0  0  0
  7  2  1  0  0  0  0
  7 13  2  0  0  0  0
  8  3  1  0  0  0  0
  8 12  1  0  0  0  0
  9  4  1  0  0  0  0
  9  6  1  0  0  0  0
 11 13  1  0  0  0  0
 12  5  1  0  0  0  0
 12  4  2  0  0  0  0
 14  1  1  0  0  0  0
 14  2  2  0  0  0  0
 15 17  1  0  0  0  0
 16 15  1  0  0  0  0
 16 18  1  0  0  0  0
 17  1  1  0  0  0  0
 17 20  2  0  0  0  0
 18 19  2  0  0  0  0
 19 20  1  0  0  0  0
 21  8  1  0  0  0  0
 22 21  1  0  0  0  0
 23  3  1  0  0  0  0
 25 24  1  6  0  0  0
 25 23  1  0  0  0  0
 26 25  1  0  0  0  0
 26 27  1  0  0  0  0
 27 29  1  0  0  0  0
 29 28  1  0  0  0  0
 29 31  1  0  0  0  0
 30 29  2  0  0  0  0
 32 25  1  0  0  0  0
 33 34  1  0  0  0  0
 33 32  1  1  0  0  0
 34 36  1  6  0  0  0
 35 33  1  0  0  0  0
 35 43  1  1  0  0  0
 35 34  1  0  0  0  0
 37 39  1  0  0  0  0
 38 39  2  0  0  0  0
 39 42  1  0  0  0  0
 40 38  1  0  0  0  0
 41 43  1  0  0  0  0
 41 40  2  0  0  0  0
 43 37  2  0  0  0  0
M  END
>  <MODEL>
3

>  <REMARK>
 VINA RESULT:      -7.1      3.549      8.522
  Name = 
  10 active torsions:
  status: ('A' for Active; 'I' for Inactive)
    1  A    between atoms: C_1  and  C_21
    2  A    between atoms: N_3  and  C_17
    3  A    between atoms: C_6  and  C_38
    4  A    between atoms: C_9  and  O_20
    5  A    between atoms: C_9  and  C_35
    6  A    between atoms: P_15  and  O_20
    7  A    between atoms: N_16  and  C_26
    8  A    between atoms: C_21  and  C_35
    9  A    between atoms: C_29  and  C_41
   10  A    between atoms: C_35  and  C_38
                            x       y       z     vdW  Elec       q    Type
                         _______ _______ _______ _____ _____    ______ ____

>  <TORSDO>
F 10

$$$$
=
 OpenBabel11042416013D

 43 48  0  0  1  0  0  0  0  0999 V2000
  185.8750  178.4470  143.7920 N   0  0  0  0  0  2  0  0  0  0  0  0
  187.7700  177.8590  145.0620 N   0  0  0  0  0  0  0  0  0  0  0  0
  190.0300  174.1070  143.8700 C   0  0  0  0  0  0  0  0  0  0  0  0
  189.1680  175.9570  144.6360 C   0  0  0  0  0  0  0  0  0  0  0  0
  187.1470  176.2710  143.2320 C   0  0  2  0  0  3  0  0  0  0  0  0
  191.0580  175.2710  145.9180 C   0  0  0  0  0  3  0  0  0  0  0  0
  188.9030  177.0490  145.4100 C   0  0  0  0  0  0  0  0  0  0  0  0
  188.9350  174.3990  143.1080 N   0  0  0  0  0  0  0  0  0  0  0  0
  190.1820  175.0860  144.8470 C   0  0  0  0  0  0  0  0  0  0  0  0
  186.0690  175.4320  143.4480 F   0  0  0  0  0  0  0  0  0  0  0  0
  190.8430  176.4050  146.7450 C   0  0  0  0  0  3  0  0  0  0  0  0
  188.4150  175.5500  143.6000 C   0  0  0  0  0  0  0  0  0  0  0  0
  189.7640  177.2990  146.4940 C   0  0  0  0  0  3  0  0  0  0  0  0
  186.9670  177.5580  144.0630 C   0  0  0  0  0  0  0  0  0  0  0  0
  185.5230  178.4640  141.3470 O   0  0  0  0  0  0  0  0  0  0  0  0
  184.6800  178.4240  140.2500 N   0  0  0  0  0  2  0  0  0  0  0  0
  185.0120  178.4060  142.6520 C   0  0  0  0  0  0  0  0  0  0  0  0
  183.2640  178.3280  140.4400 C   0  0  0  0  0  3  0  0  0  0  0  0
  182.7780  178.2800  141.6800 C   0  0  0  0  0  3  0  0  0  0  0  0
  183.6910  178.3220  142.8360 C   0  0  0  0  0  3  0  0  0  0  0  0
  188.3690  173.5740  142.0470 C   0  0  0  0  0  2  0  0  0  0  0  0
  188.6300  174.2050  140.6920 C   0  0  0  0  0  1  0  0  0  0  0  0
  190.8940  172.8880  143.6960 C   0  0  0  0  0  2  0  0  0  0  0  0
  192.1000  174.4790  142.1590 C   0  0  0  0  0  1  0  0  0  0  0  0
  191.9830  173.0330  142.6170 C   0  0  2  0  0  0  0  0  0  0  0  0
  191.6130  172.1770  141.4060 C   0  0  0  0  0  2  0  0  0  0  0  0
  190.6910  171.1840  141.7460 O   0  0  0  0  0  0  0  0  0  0  0  0
  192.7350  169.8250  140.8450 O   0  0  0  0  0  1  0  0  0  0  0  0
  191.2290  169.7880  140.9490 P   0  0  0  0  0  0  0  0  0  0  0  0
  190.7660  168.4160  141.8250 O   0  0  0  0  0  1  0  0  0  0  0  0
  190.5660  169.7160  139.3930 O   0  0  0  0  0  0  0  0  0  0  0  0
  193.3520  172.5970  143.1430 C   0  0  0  0  0  2  0  0  0  0  0  0
  193.2890  172.0160  144.5600 C   0  0  1  0  0  3  0  0  0  0  0  0
  194.6710  171.5350  144.9510 C   0  0  1  0  0  3  0  0  0  0  0  0
  194.1000  172.7720  145.6250 C   0  0  1  0  0  3  0  0  0  0  0  0
  194.5340  170.3510  145.8840 C   0  0  0  0  0  1  0  0  0  0  0  0
  194.2450  175.2890  145.4710 C   0  0  0  0  0  3  0  0  0  0  0  0
  195.9790  176.3270  144.1460 C   0  0  0  0  0  3  0  0  0  0  0  0
  194.8620  176.4380  144.9750 C   0  0  0  0  0  0  0  0  0  0  0  0
  196.4620  175.0580  143.8220 C   0  0  0  0  0  3  0  0  0  0  0  0
  195.8500  173.9480  144.3180 N   0  0  0  0  0  0  0  0  0  0  0  0
  194.3720  177.6610  145.2920 F   0  0  0  0  0  0  0  0  0  0  0  0
  194.7700  174.0320  145.1440 C   0  0  0  0  0  0  0  0  0  0  0  0
  1 14  1  0  0  0  0
  2  7  1  0  0  0  0
  3  9  2  0  0  0  0
  4  9  1  0  0  0  0
  4  7  1  0  0  0  0
  5 10  1  1  0  0  0
  5 12  1  0  0  0  0
  5 14  1  0  0  0  0
  6 11  2  0  0  0  0
  7 13  2  0  0  0  0
  8 12  1  0  0  0  0
  8  3  1  0  0  0  0
  9  6  1  0  0  0  0
 12  4  2  0  0  0  0
 13 11  1  0  0  0  0
 14  2  2  0  0  0  0
 15 17  1  0  0  0  0
 16 18  1  0  0  0  0
 16 15  1  0  0  0  0
 17 20  2  0  0  0  0
 17  1  1  0  0  0  0
 18 19  2  0  0  0  0
 19 20  1  0  0  0  0
 21  8  1  0  0  0  0
 22 21  1  0  0  0  0
 23  3  1  0  0  0  0
 25 24  1  6  0  0  0
 25 32  1  0  0  0  0
 25 23  1  0  0  0  0
 26 27  1  0  0  0  0
 26 25  1  0  0  0  0
 28 29  1  0  0  0  0
 29 27  1  0  0  0  0
 29 30  1  0  0  0  0
 31 29  2  0  0  0  0
 33 32  1  6  0  0  0
 33 34  1  0  0  0  0
 33 35  1  0  0  0  0
 34 35  1  0  0  0  0
 34 36  1  1  0  0  0
 35 43  1  6  0  0  0
 38 39  1  0  0  0  0
 39 42  1  0  0  0  0
 39 37  2  0  0  0  0
 40 38  2  0  0  0  0
 40 41  1  0  0  0  0
 41 43  2  0  0  0  0
 43 37  1  0  0  0  0
M  END
>  <MODEL>
4

>  <REMARK>
 VINA RESULT:      -7.1      3.332      8.607
  Name = 
  10 active torsions:
  status: ('A' for Active; 'I' for Inactive)
    1  A    between atoms: C_1  and  C_21
    2  A    between atoms: N_3  and  C_17
    3  A    between atoms: C_6  and  C_38
    4  A    between atoms: C_9  and  O_20
    5  A    between atoms: C_9  and  C_35
    6  A    between atoms: P_15  and  O_20
    7  A    between atoms: N_16  and  C_26
    8  A    between atoms: C_21  and  C_35
    9  A    between atoms: C_29  and  C_41
   10  A    between atoms: C_35  and  C_38
                            x       y       z     vdW  Elec       q    Type
                         _______ _______ _______ _____ _____    ______ ____

>  <TORSDO>
F 10

$$$$
=
 OpenBabel11042416013D

 43 48  0  0  1  0  0  0  0  0999 V2000
  186.6750  178.2650  143.7540 N   0  0  0  0  0  2  0  0  0  0  0  0
  188.5530  177.5250  144.9690 N   0  0  0  0  0  0  0  0  0  0  0  0
  190.3350  173.5010  143.8560 C   0  0  0  0  0  0  0  0  0  0  0  0
  189.7160  175.4650  144.5720 C   0  0  0  0  0  0  0  0  0  0  0  0
  187.6770  175.9420  143.2410 C   0  0  2  0  0  3  0  0  0  0  0  0
  191.5780  174.6280  145.8040 C   0  0  0  0  0  3  0  0  0  0  0  0
  189.6070  176.6100  145.3060 C   0  0  0  0  0  0  0  0  0  0  0  0
  189.2430  173.8810  143.1280 N   0  0  0  0  0  0  0  0  0  0  0  0
  190.6380  174.4970  144.7800 C   0  0  0  0  0  0  0  0  0  0  0  0
  186.5260  175.2360  143.5410 F   0  0  0  0  0  0  0  0  0  0  0  0
  191.5260  175.8110  146.5860 C   0  0  0  0  0  3  0  0  0  0  0  0
  188.8750  175.1010  143.5890 C   0  0  0  0  0  0  0  0  0  0  0  0
  190.5400  176.8080  146.3400 C   0  0  0  0  0  3  0  0  0  0  0  0
  187.6760  177.2740  144.0190 C   0  0  0  0  0  0  0  0  0  0  0  0
  186.2150  178.2840  141.3270 O   0  0  0  0  0  0  0  0  0  0  0  0
  185.3220  178.2910  140.2700 N   0  0  0  0  0  2  0  0  0  0  0  0
  185.7610  178.2730  142.6540 C   0  0  0  0  0  0  0  0  0  0  0  0
  183.9130  178.2950  140.5240 C   0  0  0  0  0  3  0  0  0  0  0  0
  183.4820  178.2930  141.7840 C   0  0  0  0  0  3  0  0  0  0  0  0
  184.4470  178.2830  142.8980 C   0  0  0  0  0  3  0  0  0  0  0  0
  188.5430  173.0800  142.1300 C   0  0  0  0  0  2  0  0  0  0  0  0
  188.7920  173.6340  140.7400 C   0  0  0  0  0  1  0  0  0  0  0  0
  191.0530  172.1880  143.7020 C   0  0  0  0  0  2  0  0  0  0  0  0
  191.7980  171.6290  141.3620 C   0  0  0  0  0  1  0  0  0  0  0  0
  192.2210  172.2190  142.6980 C   0  0  2  0  0  0  0  0  0  0  0  0
  193.3800  171.3860  143.2440 C   0  0  0  0  0  2  0  0  0  0  0  0
  193.2830  171.2230  144.6290 O   0  0  0  0  0  0  0  0  0  0  0  0
  195.3600  170.7140  146.1330 O   0  0  0  0  0  1  0  0  0  0  0  0
  194.5090  170.1250  145.0320 P   0  0  0  0  0  0  0  0  0  0  0  0
  193.8230  168.6770  145.5750 O   0  0  0  0  0  1  0  0  0  0  0  0
  195.4820  169.8180  143.6810 O   0  0  0  0  0  0  0  0  0  0  0  0
  192.7030  173.6500  142.4460 C   0  0  0  0  0  2  0  0  0  0  0  0
  193.8460  173.7240  141.4280 C   0  0  1  0  0  3  0  0  0  0  0  0
  194.1470  175.1790  141.1390 C   0  0  1  0  0  3  0  0  0  0  0  0
  195.1490  174.3600  141.9380 C   0  0  1  0  0  3  0  0  0  0  0  0
  194.6330  175.3070  139.7120 C   0  0  0  0  0  1  0  0  0  0  0  0
  194.7580  176.0230  143.7970 C   0  0  0  0  0  3  0  0  0  0  0  0
  195.2680  175.4310  146.0840 C   0  0  0  0  0  3  0  0  0  0  0  0
  194.8110  176.3620  145.1500 C   0  0  0  0  0  0  0  0  0  0  0  0
  195.6710  174.1690  145.6450 C   0  0  0  0  0  3  0  0  0  0  0  0
  195.6100  173.8540  144.3220 N   0  0  0  0  0  0  0  0  0  0  0  0
  194.4250  177.5950  145.5560 F   0  0  0  0  0  0  0  0  0  0  0  0
  195.1490  174.7400  143.3940 C   0  0  0  0  0  0  0  0  0  0  0  0
  1 14  1  0  0  0  0
  2  7  1  0  0  0  0
  3  9  2  0  0  0  0
  4  9  1  0  0  0  0
  4  7  1  0  0  0  0
  5 10  1  1  0  0  0
  5 12  1  0  0  0  0
  5 14  1  0  0  0  0
  6 11  2  0  0  0  0
  7 13  2  0  0  0  0
  8 12  1  0  0  0  0
  8  3  1  0  0  0  0
  9  6  1  0  0  0  0
 12  4  2  0  0  0  0
 13 11  1  0  0  0  0
 14  2  2  0  0  0  0
 15 17  1  0  0  0  0
 16 18  1  0  0  0  0
 16 15  1  0  0  0  0
 17 20  2  0  0  0  0
 17  1  1  0  0  0  0
 18 19  2  0  0  0  0
 19 20  1  0  0  0  0
 21  8  1  0  0  0  0
 22 21  1  0  0  0  0
 23  3  1  0  0  0  0
 25 24  1  6  0  0  0
 25 26  1  0  0  0  0
 25 23  1  0  0  0  0
 26 27  1  0  0  0  0
 27 29  1  0  0  0  0
 29 30  1  0  0  0  0
 29 28  1  0  0  0  0
 31 29  2  0  0  0  0
 32 25  1  0  0  0  0
 33 35  1  0  0  0  0
 33 32  1  1  0  0  0
 34 36  1  6  0  0  0
 34 33  1  0  0  0  0
 34 35  1  0  0  0  0
 35 43  1  1  0  0  0
 37 39  1  0  0  0  0
 39 42  1  0  0  0  0
 39 38  2  0  0  0  0
 40 38  1  0  0  0  0
 41 40  2  0  0  0  0
 43 37  2  0  0  0  0
 43 41  1  0  0  0  0
M  END
>  <MODEL>
5

>  <REMARK>
 VINA RESULT:      -7.0      3.331      8.399
  Name = 
  10 active torsions:
  status: ('A' for Active; 'I' for Inactive)
    1  A    between atoms: C_1  and  C_21
    2  A    between atoms: N_3  and  C_17
    3  A    between atoms: C_6  and  C_38
    4  A    between atoms: C_9  and  O_20
    5  A    between atoms: C_9  and  C_35
    6  A    between atoms: P_15  and  O_20
    7  A    between atoms: N_16  and  C_26
    8  A    between atoms: C_21  and  C_35
    9  A    between atoms: C_29  and  C_41
   10  A    between atoms: C_35  and  C_38
                            x       y       z     vdW  Elec       q    Type
                         _______ _______ _______ _____ _____    ______ ____

>  <TORSDO>
F 10

$$$$
=
 OpenBabel11042416013D

 43 48  0  0  1  0  0  0  0  0999 V2000
  186.6930  177.1720  142.2740 N   0  0  0  0  0  2  0  0  0  0  0  0
  187.7780  175.6610  140.8280 N   0  0  0  0  0  0  0  0  0  0  0  0
  190.2420  172.3420  142.7050 C   0  0  0  0  0  0  0  0  0  0  0  0
  189.1100  173.7980  141.5420 C   0  0  0  0  0  0  0  0  0  0  0  0
  188.1920  175.3220  143.2720 C   0  0  2  0  0  3  0  0  0  0  0  0
  190.2850  172.2730  140.1350 C   0  0  0  0  0  3  0  0  0  0  0  0
  188.6010  174.5280  140.5080 C   0  0  0  0  0  0  0  0  0  0  0  0
  189.6400  173.1950  143.5850 N   0  0  0  0  0  0  0  0  0  0  0  0
  189.9170  172.7200  141.4060 C   0  0  0  0  0  0  0  0  0  0  0  0
  189.0650  176.1890  143.9030 F   0  0  0  0  0  0  0  0  0  0  0  0
  189.7660  172.9830  139.0210 C   0  0  0  0  0  3  0  0  0  0  0  0
  188.9440  174.0910  142.8440 C   0  0  0  0  0  0  0  0  0  0  0  0
  188.9210  174.1140  139.2030 C   0  0  0  0  0  3  0  0  0  0  0  0
  187.5430  176.0360  142.0680 C   0  0  0  0  0  0  0  0  0  0  0  0
  185.7010  176.7120  144.4890 O   0  0  0  0  0  0  0  0  0  0  0  0
  185.1930  177.1560  145.6970 N   0  0  0  0  0  2  0  0  0  0  0  0
  186.1660  177.6200  143.5260 C   0  0  0  0  0  0  0  0  0  0  0  0
  185.1290  178.5590  145.9740 C   0  0  0  0  0  3  0  0  0  0  0  0
  185.5640  179.4210  145.0560 C   0  0  0  0  0  3  0  0  0  0  0  0
  186.1040  178.9310  143.7760 C   0  0  0  0  0  3  0  0  0  0  0  0
  189.8070  173.2100  145.0340 C   0  0  0  0  0  2  0  0  0  0  0  0
  190.9260  174.1580  145.4250 C   0  0  0  0  0  1  0  0  0  0  0  0
  191.1480  171.2070  143.0960 C   0  0  0  0  0  2  0  0  0  0  0  0
  193.2770  170.8920  141.7850 C   0  0  0  0  0  1  0  0  0  0  0  0
  192.6500  171.5390  143.0120 C   0  0  2  0  0  0  0  0  0  0  0  0
  193.3590  170.9970  144.2520 C   0  0  0  0  0  2  0  0  0  0  0  0
  193.8600  172.0330  145.0460 O   0  0  0  0  0  0  0  0  0  0  0  0
  196.1200  171.4820  143.8510 O   0  0  0  0  0  0  0  0  0  0  0  0
  195.5130  171.7000  145.2180 P   0  0  0  0  0  0  0  0  0  0  0  0
  196.2840  173.0070  145.9660 O   0  0  0  0  0  1  0  0  0  0  0  0
  195.7310  170.3050  146.1510 O   0  0  0  0  0  1  0  0  0  0  0  0
  192.8850  173.0480  142.9160 C   0  0  0  0  0  2  0  0  0  0  0  0
  193.7720  173.4400  141.7290 C   0  0  1  0  0  3  0  0  0  0  0  0
  193.0950  174.5580  140.9630 C   0  0  1  0  0  3  0  0  0  0  0  0
  194.3470  174.8650  141.7710 C   0  0  1  0  0  3  0  0  0  0  0  0
  193.4630  174.4440  139.5000 C   0  0  0  0  0  1  0  0  0  0  0  0
  192.8620  176.4150  143.1020 C   0  0  0  0  0  3  0  0  0  0  0  0
  193.5400  177.1570  145.3000 C   0  0  0  0  0  3  0  0  0  0  0  0
  192.6160  177.1640  144.2540 C   0  0  0  0  0  0  0  0  0  0  0  0
  194.7040  176.3970  145.1740 C   0  0  0  0  0  3  0  0  0  0  0  0
  194.9260  175.6690  144.0450 N   0  0  0  0  0  0  0  0  0  0  0  0
  191.4860  177.9040  144.3530 F   0  0  0  0  0  0  0  0  0  0  0  0
  194.0300  175.6460  143.0190 C   0  0  0  0  0  0  0  0  0  0  0  0
  1 17  1  0  0  0  0
  2 14  2  0  0  0  0
  3 23  1  0  0  0  0
  3  8  1  0  0  0  0
  4 12  2  0  0  0  0
  5 10  1  6  0  0  0
  6  9  1  0  0  0  0
  7  2  1  0  0  0  0
  7  4  1  0  0  0  0
  8 21  1  0  0  0  0
  9  4  1  0  0  0  0
  9  3  2  0  0  0  0
 11 13  1  0  0  0  0
 11  6  2  0  0  0  0
 12  5  1  0  0  0  0
 12  8  1  0  0  0  0
 13  7  2  0  0  0  0
 14  1  1  0  0  0  0
 14  5  1  0  0  0  0
 15 16  1  0  0  0  0
 16 18  1  0  0  0  0
 17 20  2  0  0  0  0
 17 15  1  0  0  0  0
 19 18  2  0  0  0  0
 20 19  1  0  0  0  0
 21 22  1  0  0  0  0
 25 24  1  6  0  0  0
 25 23  1  0  0  0  0
 25 26  1  0  0  0  0
 26 27  1  0  0  0  0
 27 29  1  0  0  0  0
 28 29  2  0  0  0  0
 29 30  1  0  0  0  0
 29 31  1  0  0  0  0
 32 25  1  0  0  0  0
 33 35  1  0  0  0  0
 33 32  1  1  0  0  0
 34 36  1  6  0  0  0
 34 33  1  0  0  0  0
 34 35  1  0  0  0  0
 35 43  1  1  0  0  0
 37 39  1  0  0  0  0
 39 42  1  0  0  0  0
 39 38  2  0  0  0  0
 40 38  1  0  0  0  0
 41 40  2  0  0  0  0
 43 37  2  0  0  0  0
 43 41  1  0  0  0  0
M  END
>  <MODEL>
6

>  <REMARK>
 VINA RESULT:      -7.0      3.171      8.411
  Name = 
  10 active torsions:
  status: ('A' for Active; 'I' for Inactive)
    1  A    between atoms: C_1  and  C_21
    2  A    between atoms: N_3  and  C_17
    3  A    between atoms: C_6  and  C_38
    4  A    between atoms: C_9  and  O_20
    5  A    between atoms: C_9  and  C_35
    6  A    between atoms: P_15  and  O_20
    7  A    between atoms: N_16  and  C_26
    8  A    between atoms: C_21  and  C_35
    9  A    between atoms: C_29  and  C_41
   10  A    between atoms: C_35  and  C_38
                            x       y       z     vdW  Elec       q    Type
                         _______ _______ _______ _____ _____    ______ ____

>  <TORSDO>
F 10

$$$$
=
 OpenBabel11042416013D

 43 48  0  0  1  0  0  0  0  0999 V2000
  194.1010  170.1700  143.0780 N   0  0  0  0  0  2  0  0  0  0  0  0
  192.4220  170.9440  141.6190 N   0  0  0  0  0  0  0  0  0  0  0  0
  190.7330  175.0930  142.3560 C   0  0  0  0  0  0  0  0  0  0  0  0
  191.3810  173.1010  141.7500 C   0  0  0  0  0  0  0  0  0  0  0  0
  193.0260  172.4790  143.5000 C   0  0  2  0  0  3  0  0  0  0  0  0
  189.6340  173.9200  140.3490 C   0  0  0  0  0  3  0  0  0  0  0  0
  191.4680  171.8940  141.1200 C   0  0  0  0  0  0  0  0  0  0  0  0
  191.6980  174.6880  143.2340 N   0  0  0  0  0  0  0  0  0  0  0  0
  190.5200  174.0900  141.4150 C   0  0  0  0  0  0  0  0  0  0  0  0
  192.5480  172.1700  144.7610 F   0  0  0  0  0  0  0  0  0  0  0  0
  189.6960  172.6910  139.6430 C   0  0  0  0  0  3  0  0  0  0  0  0
  192.0850  173.4500  142.8400 C   0  0  0  0  0  0  0  0  0  0  0  0
  190.6130  171.6720  140.0250 C   0  0  0  0  0  3  0  0  0  0  0  0
  193.1690  171.1820  142.6760 C   0  0  0  0  0  0  0  0  0  0  0  0
  196.1860  171.2080  143.9030 O   0  0  0  0  0  0  0  0  0  0  0  0
  197.1710  171.3310  144.8680 N   0  0  0  0  0  2  0  0  0  0  0  0
  195.1250  170.3050  144.0690 C   0  0  0  0  0  0  0  0  0  0  0  0
  197.1190  170.5260  146.0510 C   0  0  0  0  0  3  0  0  0  0  0  0
  196.1150  169.6630  146.2030 C   0  0  0  0  0  3  0  0  0  0  0  0
  195.0730  169.5470  145.1680 C   0  0  0  0  0  3  0  0  0  0  0  0
  192.1410  175.4000  144.4270 C   0  0  0  0  0  2  0  0  0  0  0  0
  193.4050  176.1860  144.1330 C   0  0  0  0  0  1  0  0  0  0  0  0
  189.9940  176.4000  142.4390 C   0  0  0  0  0  2  0  0  0  0  0  0
  188.1890  174.8660  143.2960 C   0  0  0  0  0  1  0  0  0  0  0  0
  188.6310  176.3140  143.1520 C   0  0  2  0  0  0  0  0  0  0  0  0
  187.5800  177.0560  142.3280 C   0  0  0  0  0  2  0  0  0  0  0  0
  186.2890  176.7980  142.7990 O   0  0  0  0  0  0  0  0  0  0  0  0
  185.8910  179.3560  143.1710 O   0  0  0  0  0  1  0  0  0  0  0  0
  185.3840  178.1700  142.3840 P   0  0  0  0  0  0  0  0  0  0  0  0
  185.5550  178.4870  140.7300 O   0  0  0  0  0  0  0  0  0  0  0  0
  183.7500  177.9200  142.7460 O   0  0  0  0  0  1  0  0  0  0  0  0
  188.6960  176.9240  144.5540 C   0  0  0  0  0  2  0  0  0  0  0  0
  189.0060  175.8900  145.6420 C   0  0  1  0  0  3  0  0  0  0  0  0
  189.4510  176.6170  146.8930 C   0  0  1  0  0  3  0  0  0  0  0  0
  188.0940  175.9310  146.8780 C   0  0  1  0  0  3  0  0  0  0  0  0
  190.4390  175.7500  147.6420 C   0  0  0  0  0  1  0  0  0  0  0  0
  187.0610  178.1620  147.4560 C   0  0  0  0  0  3  0  0  0  0  0  0
  184.8130  178.6830  146.7390 C   0  0  0  0  0  3  0  0  0  0  0  0
  185.9810  179.0450  147.4110 C   0  0  0  0  0  0  0  0  0  0  0  0
  184.7430  177.4330  146.1220 C   0  0  0  0  0  3  0  0  0  0  0  0
  185.8070  176.5860  146.1730 N   0  0  0  0  0  0  0  0  0  0  0  0
  186.0640  180.2490  148.0250 F   0  0  0  0  0  0  0  0  0  0  0  0
  186.9650  176.9240  146.8070 C   0  0  0  0  0  0  0  0  0  0  0  0
  1 17  1  0  0  0  0
  2 14  2  0  0  0  0
  3 23  1  0  0  0  0
  3  8  1  0  0  0  0
  4 12  2  0  0  0  0
  5 10  1  1  0  0  0
  6  9  1  0  0  0  0
  7  2  1  0  0  0  0
  7  4  1  0  0  0  0
  8 21  1  0  0  0  0
  9  4  1  0  0  0  0
  9  3  2  0  0  0  0
 11 13  1  0  0  0  0
 11  6  2  0  0  0  0
 12  8  1  0  0  0  0
 12  5  1  0  0  0  0
 13  7  2  0  0  0  0
 14  1  1  0  0  0  0
 14  5  1  0  0  0  0
 15 17  1  0  0  0  0
 15 16  1  0  0  0  0
 16 18  1  0  0  0  0
 17 20  2  0  0  0  0
 18 19  2  0  0  0  0
 20 19  1  0  0  0  0
 22 21  1  0  0  0  0
 23 25  1  0  0  0  0
 25 24  1  1  0  0  0
 25 32  1  0  0  0  0
 26 27  1  0  0  0  0
 26 25  1  0  0  0  0
 29 31  1  0  0  0  0
 29 27  1  0  0  0  0
 29 28  1  0  0  0  0
 30 29  2  0  0  0  0
 33 32  1  6  0  0  0
 33 35  1  0  0  0  0
 33 34  1  0  0  0  0
 34 36  1  1  0  0  0
 35 43  1  6  0  0  0
 35 34  1  0  0  0  0
 38 39  2  0  0  0  0
 39 37  1  0  0  0  0
 39 42  1  0  0  0  0
 40 41  2  0  0  0  0
 40 38  1  0  0  0  0
 41 43  1  0  0  0  0
 43 37  2  0  0  0  0
M  END
>  <MODEL>
7

>  <REMARK>
 VINA RESULT:      -7.0      2.915      4.808
  Name = 
  10 active torsions:
  status: ('A' for Active; 'I' for Inactive)
    1  A    between atoms: C_1  and  C_21
    2  A    between atoms: N_3  and  C_17
    3  A    between atoms: C_6  and  C_38
    4  A    between atoms: C_9  and  O_20
    5  A    between atoms: C_9  and  C_35
    6  A    between atoms: P_15  and  O_20
    7  A    between atoms: N_16  and  C_26
    8  A    between atoms: C_21  and  C_35
    9  A    between atoms: C_29  and  C_41
   10  A    between atoms: C_35  and  C_38
                            x       y       z     vdW  Elec       q    Type
                         _______ _______ _______ _____ _____    ______ ____

>  <TORSDO>
F 10

$$$$
=
 OpenBabel11042416013D

 43 48  0  0  1  0  0  0  0  0999 V2000
  196.8990  171.9460  143.8600 N   0  0  0  0  0  2  0  0  0  0  0  0
  195.8560  173.6970  145.0390 N   0  0  0  0  0  0  0  0  0  0  0  0
  192.1520  175.5690  143.1990 C   0  0  0  0  0  0  0  0  0  0  0  0
  193.8710  174.8390  144.3230 C   0  0  0  0  0  0  0  0  0  0  0  0
  194.8480  173.1220  142.8230 C   0  0  2  0  0  3  0  0  0  0  0  0
  192.8040  176.6590  145.4340 C   0  0  0  0  0  3  0  0  0  0  0  0
  194.8600  174.7090  145.2550 C   0  0  0  0  0  0  0  0  0  0  0  0
  192.7230  174.5630  142.4730 N   0  0  0  0  0  0  0  0  0  0  0  0
  192.8770  175.7560  144.3720 C   0  0  0  0  0  0  0  0  0  0  0  0
  195.5070  173.5530  141.6850 F   0  0  0  0  0  0  0  0  0  0  0  0
  193.7940  176.5550  146.4450 C   0  0  0  0  0  3  0  0  0  0  0  0
  193.7880  174.1260  143.1870 C   0  0  0  0  0  0  0  0  0  0  0  0
  194.8270  175.5790  146.3600 C   0  0  0  0  0  3  0  0  0  0  0  0
  195.8690  172.9360  143.9650 C   0  0  0  0  0  0  0  0  0  0  0  0
  197.4040  171.1680  141.5700 O   0  0  0  0  0  0  0  0  0  0  0  0
  197.4770  170.1540  140.6300 N   0  0  0  0  0  2  0  0  0  0  0  0
  196.9780  170.9060  142.8800 C   0  0  0  0  0  0  0  0  0  0  0  0
  197.1090  168.8180  140.9890 C   0  0  0  0  0  3  0  0  0  0  0  0
  196.6980  168.5710  142.2320 C   0  0  0  0  0  3  0  0  0  0  0  0
  196.6280  169.6610  143.2200 C   0  0  0  0  0  3  0  0  0  0  0  0
  192.3330  174.1260  141.1370 C   0  0  0  0  0  2  0  0  0  0  0  0
  191.9330  172.6630  141.1580 C   0  0  0  0  0  1  0  0  0  0  0  0
  190.9560  176.3690  142.7610 C   0  0  0  0  0  2  0  0  0  0  0  0
  189.6920  174.2860  143.4050 C   0  0  0  0  0  1  0  0  0  0  0  0
  189.6040  175.7940  143.2270 C   0  0  2  0  0  0  0  0  0  0  0  0
  188.5370  176.0900  142.1740 C   0  0  0  0  0  2  0  0  0  0  0  0
  188.4120  177.4640  141.9480 O   0  0  0  0  0  0  0  0  0  0  0  0
  186.0010  176.5430  142.3690 O   0  0  0  0  0  1  0  0  0  0  0  0
  186.7440  177.7420  141.8270 P   0  0  0  0  0  0  0  0  0  0  0  0
  186.3260  179.1090  142.7330 O   0  0  0  0  0  1  0  0  0  0  0  0
  186.3100  177.9810  140.2090 O   0  0  0  0  0  0  0  0  0  0  0  0
  189.1730  176.3990  144.5650 C   0  0  0  0  0  2  0  0  0  0  0  0
  189.3230  175.4220  145.7370 C   0  0  1  0  0  3  0  0  0  0  0  0
  189.7120  176.2030  146.9750 C   0  0  1  0  0  3  0  0  0  0  0  0
  188.3180  175.6030  146.8860 C   0  0  1  0  0  3  0  0  0  0  0  0
  190.5760  175.3280  147.8570 C   0  0  0  0  0  1  0  0  0  0  0  0
  187.2850  177.8520  147.3890 C   0  0  0  0  0  3  0  0  0  0  0  0
  185.2470  178.5290  146.2790 C   0  0  0  0  0  3  0  0  0  0  0  0
  186.2730  178.7930  147.1880 C   0  0  0  0  0  0  0  0  0  0  0  0
  185.2490  177.3180  145.5840 C   0  0  0  0  0  3  0  0  0  0  0  0
  186.2460  176.4140  145.7890 N   0  0  0  0  0  0  0  0  0  0  0  0
  186.2830  179.9570  147.8800 F   0  0  0  0  0  0  0  0  0  0  0  0
  187.2680  176.6570  146.6580 C   0  0  0  0  0  0  0  0  0  0  0  0
  1 14  1  0  0  0  0
  2  7  1  0  0  0  0
  3  9  2  0  0  0  0
  4  9  1  0  0  0  0
  4  7  1  0  0  0  0
  5 10  1  6  0  0  0
  5 12  1  0  0  0  0
  5 14  1  0  0  0  0
  6 11  2  0  0  0  0
  7 13  2  0  0  0  0
  8 12  1  0  0  0  0
  8  3  1  0  0  0  0
  9  6  1  0  0  0  0
 12  4  2  0  0  0  0
 13 11  1  0  0  0  0
 14  2  2  0  0  0  0
 15 17  1  0  0  0  0
 16 18  1  0  0  0  0
 16 15  1  0  0  0  0
 17 20  2  0  0  0  0
 17  1  1  0  0  0  0
 18 19  2  0  0  0  0
 19 20  1  0  0  0  0
 21 22  1  0  0  0  0
 21  8  1  0  0  0  0
 23  3  1  0  0  0  0
 23 25  1  0  0  0  0
 25 24  1  1  0  0  0
 25 32  1  0  0  0  0
 26 25  1  0  0  0  0
 27 26  1  0  0  0  0
 29 27  1  0  0  0  0
 29 28  1  0  0  0  0
 29 30  1  0  0  0  0
 31 29  2  0  0  0  0
 33 32  1  6  0  0  0
 33 35  1  0  0  0  0
 33 34  1  0  0  0  0
 34 36  1  1  0  0  0
 35 43  1  6  0  0  0
 35 34  1  0  0  0  0
 38 39  2  0  0  0  0
 39 37  1  0  0  0  0
 39 42  1  0  0  0  0
 40 41  2  0  0  0  0
 40 38  1  0  0  0  0
 41 43  1  0  0  0  0
 43 37  2  0  0  0  0
M  END
>  <MODEL>
8

>  <REMARK>
 VINA RESULT:      -7.0      2.679      3.834
  Name = 
  10 active torsions:
  status: ('A' for Active; 'I' for Inactive)
    1  A    between atoms: C_1  and  C_21
    2  A    between atoms: N_3  and  C_17
    3  A    between atoms: C_6  and  C_38
    4  A    between atoms: C_9  and  O_20
    5  A    between atoms: C_9  and  C_35
    6  A    between atoms: P_15  and  O_20
    7  A    between atoms: N_16  and  C_26
    8  A    between atoms: C_21  and  C_35
    9  A    between atoms: C_29  and  C_41
   10  A    between atoms: C_35  and  C_38
                            x       y       z     vdW  Elec       q    Type
                         _______ _______ _______ _____ _____    ______ ____

>  <TORSDO>
F 10

$$$$
=
 OpenBabel11042416013D

 43 48  0  0  1  0  0  0  0  0999 V2000
  185.4840  178.3450  144.0160 N   0  0  0  0  0  2  0  0  0  0  0  0
  187.3250  177.9040  145.4170 N   0  0  0  0  0  0  0  0  0  0  0  0
  190.3150  174.7720  144.0520 C   0  0  0  0  0  0  0  0  0  0  0  0
  189.0720  176.3330  144.9310 C   0  0  0  0  0  0  0  0  0  0  0  0
  187.1680  176.5050  143.3490 C   0  0  2  0  0  3  0  0  0  0  0  0
  190.9240  175.7930  146.3310 C   0  0  0  0  0  3  0  0  0  0  0  0
  188.5470  177.2490  145.7950 C   0  0  0  0  0  0  0  0  0  0  0  0
  189.2620  174.9850  143.2080 N   0  0  0  0  0  0  0  0  0  0  0  0
  190.1990  175.6180  145.1510 C   0  0  0  0  0  0  0  0  0  0  0  0
  186.2400  175.4790  143.3360 F   0  0  0  0  0  0  0  0  0  0  0  0
  190.4350  176.7500  147.2580 C   0  0  0  0  0  3  0  0  0  0  0  0
  188.5030  175.9560  143.7720 C   0  0  0  0  0  0  0  0  0  0  0  0
  189.2440  177.4820  146.9940 C   0  0  0  0  0  3  0  0  0  0  0  0
  186.6850  177.6180  144.3030 C   0  0  0  0  0  0  0  0  0  0  0  0
  183.3500  178.2960  142.7720 O   0  0  0  0  0  0  0  0  0  0  0  0
  182.6530  178.2750  141.5770 N   0  0  0  0  0  2  0  0  0  0  0  0
  184.7530  178.3230  142.7870 C   0  0  0  0  0  0  0  0  0  0  0  0
  183.3630  178.2730  140.3340 C   0  0  0  0  0  3  0  0  0  0  0  0
  184.6950  178.2910  140.3490 C   0  0  0  0  0  3  0  0  0  0  0  0
  185.4220  178.3160  141.6300 C   0  0  0  0  0  3  0  0  0  0  0  0
  188.9530  174.2340  141.9970 C   0  0  0  0  0  2  0  0  0  0  0  0
  188.5060  172.8270  142.3490 C   0  0  0  0  0  1  0  0  0  0  0  0
  191.3930  173.7470  143.8340 C   0  0  0  0  0  2  0  0  0  0  0  0
  192.2740  175.5630  142.3270 C   0  0  0  0  0  1  0  0  0  0  0  0
  192.6100  174.2650  143.0450 C   0  0  2  0  0  0  0  0  0  0  0  0
  193.0130  173.2300  141.9960 C   0  0  0  0  0  2  0  0  0  0  0  0
  194.3580  173.3640  141.6380 O   0  0  0  0  0  0  0  0  0  0  0  0
  195.7440  172.8820  139.4740 O   0  0  0  0  0  1  0  0  0  0  0  0
  194.3720  173.3060  139.9440 P   0  0  0  0  0  0  0  0  0  0  0  0
  193.2280  172.1840  139.4010 O   0  0  0  0  0  1  0  0  0  0  0  0
  194.0130  174.8330  139.3070 O   0  0  0  0  0  0  0  0  0  0  0  0
  193.8000  174.5370  143.9680 C   0  0  0  0  0  2  0  0  0  0  0  0
  193.8040  175.9620  144.5330 C   0  0  1  0  0  3  0  0  0  0  0  0
  194.9200  176.0790  145.5510 C   0  0  1  0  0  3  0  0  0  0  0  0
  195.0550  176.7980  144.2170 C   0  0  1  0  0  3  0  0  0  0  0  0
  194.5120  177.0750  146.6140 C   0  0  0  0  0  1  0  0  0  0  0  0
  196.0980  176.4150  141.9490 C   0  0  0  0  0  3  0  0  0  0  0  0
  197.8680  174.7910  141.6850 C   0  0  0  0  0  3  0  0  0  0  0  0
  197.0130  175.7470  141.1340 C   0  0  0  0  0  0  0  0  0  0  0  0
  197.7900  174.5140  143.0510 C   0  0  0  0  0  3  0  0  0  0  0  0
  196.8940  175.1780  143.8310 N   0  0  0  0  0  0  0  0  0  0  0  0
  197.0670  176.0220  139.8090 F   0  0  0  0  0  0  0  0  0  0  0  0
  196.0620  176.1290  143.3200 C   0  0  0  0  0  0  0  0  0  0  0  0
  1 14  1  0  0  0  0
  2  7  1  0  0  0  0
  3  9  2  0  0  0  0
  4  9  1  0  0  0  0
  4  7  1  0  0  0  0
  5 10  1  1  0  0  0
  5 12  1  0  0  0  0
  5 14  1  0  0  0  0
  6 11  2  0  0  0  0
  7 13  2  0  0  0  0
  8 12  1  0  0  0  0
  8  3  1  0  0  0  0
  9  6  1  0  0  0  0
 12  4  2  0  0  0  0
 13 11  1  0  0  0  0
 14  2  2  0  0  0  0
 15 17  1  0  0  0  0
 16 15  1  0  0  0  0
 17  1  1  0  0  0  0
 18 19  2  0  0  0  0
 18 16  1  0  0  0  0
 19 20  1  0  0  0  0
 20 17  2  0  0  0  0
 21 22  1  0  0  0  0
 21  8  1  0  0  0  0
 23  3  1  0  0  0  0
 25 24  1  6  0  0  0
 25 23  1  0  0  0  0
 25 32  1  0  0  0  0
 26 25  1  0  0  0  0
 27 26  1  0  0  0  0
 28 29  1  0  0  0  0
 29 27  1  0  0  0  0
 30 29  1  0  0  0  0
 31 29  2  0  0  0  0
 33 32  1  6  0  0  0
 33 34  1  0  0  0  0
 34 36  1  1  0  0  0
 35 43  1  6  0  0  0
 35 33  1  0  0  0  0
 35 34  1  0  0  0  0
 37 43  1  0  0  0  0
 38 40  2  0  0  0  0
 39 38  1  0  0  0  0
 39 37  2  0  0  0  0
 40 41  1  0  0  0  0
 42 39  1  0  0  0  0
 43 41  2  0  0  0  0
M  END
>  <MODEL>
9

>  <REMARK>
 VINA RESULT:      -6.9      3.400      8.766
  Name = 
  10 active torsions:
  status: ('A' for Active; 'I' for Inactive)
    1  A    between atoms: C_1  and  C_21
    2  A    between atoms: N_3  and  C_17
    3  A    between atoms: C_6  and  C_38
    4  A    between atoms: C_9  and  O_20
    5  A    between atoms: C_9  and  C_35
    6  A    between atoms: P_15  and  O_20
    7  A    between atoms: N_16  and  C_26
    8  A    between atoms: C_21  and  C_35
    9  A    between atoms: C_29  and  C_41
   10  A    between atoms: C_35  and  C_38
                            x       y       z     vdW  Elec       q    Type
                         _______ _______ _______ _____ _____    ______ ____

>  <TORSDO>
F 10

$$$$
