=
 OpenBabel11042419033D

 43 46  0  0  1  0  0  0  0  0999 V2000
  190.1140  175.4380  145.8420 C   0  0  0  0  0  0  0  0  0  0  0  0
  189.2060  176.4130  145.8870 C   0  0  0  0  0  3  0  0  0  0  0  0
  193.8880  175.9740  145.0930 C   0  0  0  0  0  0  0  0  0  0  0  0
  194.5690  176.0200  143.9840 N   0  0  0  0  0  0  0  0  0  0  0  0
  191.9190  175.9410  147.2870 O   0  0  0  0  0  0  0  0  0  0  0  0
  191.5360  175.7290  146.1050 C   0  0  0  0  0  0  0  0  0  0  0  0
  194.5660  176.1440  146.4150 C   0  0  0  0  0  1  0  0  0  0  0  0
  192.4730  175.7640  145.0080 N   0  0  0  0  0  2  0  0  0  0  0  0
  196.6230  173.9020  141.5770 C   0  0  0  0  0  1  0  0  0  0  0  0
  196.8630  174.6540  144.1850 S   0  0  0  0  0  0  0  0  0  0  0  0
  197.2950  174.9410  142.4470 C   0  0  2  0  0  3  0  0  0  0  0  0
  196.0100  176.2350  143.9010 C   0  0  1  0  0  3  0  0  0  0  0  0
  196.4920  176.5460  142.1750 S   0  0  0  0  0  0  0  0  0  0  0  0
  187.8270  176.1390  145.6420 N   0  0  0  0  0  2  0  0  0  0  0  0
  187.0110  176.9240  144.7340 C   0  0  1  0  0  3  0  0  0  0  0  0
  184.7440  177.8630  145.0790 O   0  0  0  0  0  0  0  0  0  0  0  0
  184.8900  178.6840  147.1110 C   0  0  0  0  0  3  0  0  0  0  0  0
  186.1020  178.0880  146.8120 C   0  0  0  0  0  3  0  0  0  0  0  0
  184.0780  178.5170  145.9980 C   0  0  0  0  0  3  0  0  0  0  0  0
  185.9420  177.5960  145.5350 C   0  0  0  0  0  0  0  0  0  0  0  0
  187.8790  177.9550  144.0090 C   0  0  0  0  0  2  0  0  0  0  0  0
  187.6710  177.8810  142.5330 C   0  0  0  0  0  0  0  0  0  0  0  0
  186.3600  178.0630  141.9950 N   0  0  0  0  0  2  0  0  0  0  0  0
  188.6400  177.6180  141.7730 O   0  0  0  0  0  0  0  0  0  0  0  0
  186.0800  177.9040  140.5780 C   0  0  0  0  0  1  0  0  0  0  0  0
  189.6790  174.0320  145.5160 C   0  0  0  0  0  2  0  0  0  0  0  0
  188.7290  173.7530  142.3280 C   0  0  2  0  0  3  0  0  0  0  0  0
  189.6920  172.1440  143.8020 C   0  0  0  0  0  2  0  0  0  0  0  0
  189.8260  174.4690  143.0860 C   0  0  0  0  0  2  0  0  0  0  0  0
  189.0500  172.2850  142.4360 C   0  0  0  0  0  2  0  0  0  0  0  0
  190.2490  173.5170  144.1880 C   0  0  1  0  0  3  0  0  0  0  0  0
  188.6110  173.3890  139.7980 C   0  0  0  0  0  0  0  0  0  0  0  0
  187.7740  172.4520  139.7420 O   0  0  0  0  0  0  0  0  0  0  0  0
  188.6630  174.2340  140.9530 N   0  0  0  0  0  2  0  0  0  0  0  0
  189.5240  173.6780  138.6670 C   0  0  0  0  0  0  0  0  0  0  0  0
  191.7670  173.6980  137.5430 C   0  0  0  0  0  2  0  0  0  0  0  0
  193.7040  174.0130  139.1300 N   0  0  0  0  0  0  0  0  0  0  0  0
  193.6670  174.9490  140.1000 O   0  0  0  0  0  1  0  0  0  0  0  0
  193.1320  172.7730  139.6930 C   0  0  0  0  0  2  0  0  0  0  0  0
  192.9590  174.5570  137.9770 C   0  0  0  0  0  2  0  0  0  0  0  0
  191.6140  172.8830  139.9150 C   0  0  0  0  0  2  0  0  0  0  0  0
  190.9440  173.3930  138.7160 N   0  0  0  0  0  0  0  0  0  0  0  0
  189.0390  174.2350  137.6350 O   0  0  0  0  0  0  0  0  0  0  0  0
  1  2  2  0  0  0  0
  1  6  1  0  0  0  0
  3  7  1  0  0  0  0
  4  3  2  0  0  0  0
  6  5  2  0  0  0  0
  8  3  1  0  0  0  0
  8  6  1  0  0  0  0
 11  9  1  6  0  0  0
 11 10  1  0  0  0  0
 12  4  1  6  0  0  0
 12 10  1  0  0  0  0
 13 11  1  0  0  0  0
 13 12  1  0  0  0  0
 14  2  1  0  0  0  0
 15 21  1  1  0  0  0
 15 20  1  0  0  0  0
 15 14  1  0  0  0  0
 16 20  1  0  0  0  0
 16 19  1  0  0  0  0
 18 17  1  0  0  0  0
 19 17  2  0  0  0  0
 20 18  2  0  0  0  0
 22 21  1  0  0  0  0
 23 22  1  0  0  0  0
 24 22  2  0  0  0  0
 25 23  1  0  0  0  0
 26  1  1  0  0  0  0
 27 34  1  6  0  0  0
 27 30  1  0  0  0  0
 27 29  1  0  0  0  0
 28 31  1  0  0  0  0
 29 31  1  0  0  0  0
 30 28  1  0  0  0  0
 31 26  1  1  0  0  0
 32 34  1  0  0  0  0
 33 32  2  0  0  0  0
 35 42  1  0  0  0  0
 35 32  1  0  0  0  0
 36 40  1  0  0  0  0
 36 42  1  0  0  0  0
 37 39  1  0  0  0  0
 37 38  1  0  0  0  0
 39 41  1  0  0  0  0
 40 37  1  0  0  0  0
 42 41  1  0  0  0  0
 43 35  2  0  0  0  0
M  END
>  <MODEL>
1

>  <REMARK>
 VINA RESULT:      -7.6      0.000      0.000
  Name = 
  11 active torsions:
  status: ('A' for Active; 'I' for Inactive)
    1  A    between atoms: C_1  and  C_11
    2  A    between atoms: C_6  and  C_23
    3  A    between atoms: C_7  and  C_11
    4  A    between atoms: C_7  and  N_13
    5  A    between atoms: C_7  and  C_38
    6  A    between atoms: C_8  and  N_40
    7  A    between atoms: N_10  and  C_24
    8  A    between atoms: N_13  and  C_43
    9  A    between atoms: C_17  and  C_32
   10  A    between atoms: C_17  and  C_37
   11  A    between atoms: C_36  and  C_37
                            x       y       z     vdW  Elec       q    Type
                         _______ _______ _______ _____ _____    ______ ____

>  <TORSDO>
F 11

$$$$
=
 OpenBabel11042419033D

 43 46  0  0  1  0  0  0  0  0999 V2000
  188.7020  175.4540  143.7230 C   0  0  0  0  0  0  0  0  0  0  0  0
  188.0000  176.3890  143.0830 C   0  0  0  0  0  3  0  0  0  0  0  0
  190.0290  173.3640  140.7300 C   0  0  0  0  0  0  0  0  0  0  0  0
  190.3280  173.6750  139.5010 N   0  0  0  0  0  0  0  0  0  0  0  0
  189.3730  173.1880  143.5990 O   0  0  0  0  0  0  0  0  0  0  0  0
  189.2270  174.2850  142.9930 C   0  0  0  0  0  0  0  0  0  0  0  0
  190.1730  171.9590  141.2210 C   0  0  0  0  0  1  0  0  0  0  0  0
  189.5640  174.4070  141.5960 N   0  0  0  0  0  2  0  0  0  0  0  0
  190.0850  174.5910  135.8130 C   0  0  0  0  0  1  0  0  0  0  0  0
  189.4950  172.3890  137.3060 S   0  0  0  0  0  0  0  0  0  0  0  0
  190.6710  173.2620  136.2350 C   0  0  2  0  0  3  0  0  0  0  0  0
  190.8220  172.7340  138.5020 C   0  0  1  0  0  3  0  0  0  0  0  0
  192.0210  173.5600  137.4110 S   0  0  0  0  0  0  0  0  0  0  0  0
  187.4950  177.5290  143.7800 N   0  0  0  0  0  2  0  0  0  0  0  0
  186.0830  177.7390  144.0390 C   0  0  1  0  0  3  0  0  0  0  0  0
  185.7230  179.1710  146.0300 O   0  0  0  0  0  0  0  0  0  0  0  0
  185.8620  177.7190  147.6720 C   0  0  0  0  0  3  0  0  0  0  0  0
  186.0100  177.0240  146.4860 C   0  0  0  0  0  3  0  0  0  0  0  0
  185.6870  179.0530  147.3340 C   0  0  0  0  0  3  0  0  0  0  0  0
  185.9120  177.9860  145.5040 C   0  0  0  0  0  0  0  0  0  0  0  0
  185.5720  178.9290  143.2230 C   0  0  0  0  0  2  0  0  0  0  0  0
  184.8440  178.4660  142.0060 C   0  0  0  0  0  0  0  0  0  0  0  0
  183.4150  178.4890  141.9890 N   0  0  0  0  0  2  0  0  0  0  0  0
  185.4850  178.0180  141.0200 O   0  0  0  0  0  0  0  0  0  0  0  0
  182.6500  177.9590  140.8720 C   0  0  0  0  0  1  0  0  0  0  0  0
  188.9550  175.5960  145.2020 C   0  0  0  0  0  2  0  0  0  0  0  0
  191.9310  175.3190  146.6900 C   0  0  2  0  0  3  0  0  0  0  0  0
  190.1950  176.9280  146.9890 C   0  0  0  0  0  2  0  0  0  0  0  0
  191.4250  175.6650  145.3060 C   0  0  0  0  0  2  0  0  0  0  0  0
  191.5140  176.4650  147.5750 C   0  0  0  0  0  2  0  0  0  0  0  0
  190.1660  176.4820  145.5240 C   0  0  1  0  0  3  0  0  0  0  0  0
  194.3100  175.9300  145.9750 C   0  0  0  0  0  0  0  0  0  0  0  0
  194.2840  177.1760  146.1390 O   0  0  0  0  0  0  0  0  0  0  0  0
  193.3720  175.0970  146.6660 N   0  0  0  0  0  2  0  0  0  0  0  0
  195.3300  175.2840  145.1150 C   0  0  0  0  0  0  0  0  0  0  0  0
  196.3640  174.7150  142.9000 C   0  0  0  0  0  2  0  0  0  0  0  0
  194.6950  174.4790  141.0220 N   0  0  0  0  0  0  0  0  0  0  0  0
  193.5510  173.7850  141.1880 O   0  0  0  0  0  1  0  0  0  0  0  0
  194.4200  175.8770  141.4120 C   0  0  0  0  0  2  0  0  0  0  0  0
  195.7260  173.8110  141.8400 C   0  0  0  0  0  2  0  0  0  0  0  0
  194.2210  176.0280  142.9300 C   0  0  0  0  0  2  0  0  0  0  0  0
  195.3040  175.3730  143.6690 N   0  0  0  0  0  0  0  0  0  0  0  0
  196.2350  174.5930  145.6760 O   0  0  0  0  0  0  0  0  0  0  0  0
  1 26  1  0  0  0  0
  2  1  2  0  0  0  0
  2 14  1  0  0  0  0
  3  7  1  0  0  0  0
  3  8  1  0  0  0  0
  4  3  2  0  0  0  0
  6  5  2  0  0  0  0
  6  1  1  0  0  0  0
  8  6  1  0  0  0  0
 10 12  1  0  0  0  0
 11  9  1  1  0  0  0
 11 10  1  0  0  0  0
 11 13  1  0  0  0  0
 12  4  1  1  0  0  0
 13 12  1  0  0  0  0
 14 15  1  0  0  0  0
 15 21  1  6  0  0  0
 15 20  1  0  0  0  0
 16 19  1  0  0  0  0
 18 17  1  0  0  0  0
 19 17  2  0  0  0  0
 20 16  1  0  0  0  0
 20 18  2  0  0  0  0
 22 21  1  0  0  0  0
 23 22  1  0  0  0  0
 24 22  2  0  0  0  0
 25 23  1  0  0  0  0
 27 34  1  6  0  0  0
 27 30  1  0  0  0  0
 28 30  1  0  0  0  0
 29 31  1  0  0  0  0
 29 27  1  0  0  0  0
 31 26  1  1  0  0  0
 31 28  1  0  0  0  0
 32 33  2  0  0  0  0
 32 34  1  0  0  0  0
 35 43  2  0  0  0  0
 35 32  1  0  0  0  0
 36 42  1  0  0  0  0
 37 38  1  0  0  0  0
 37 39  1  0  0  0  0
 37 40  1  0  0  0  0
 39 41  1  0  0  0  0
 40 36  1  0  0  0  0
 41 42  1  0  0  0  0
 42 35  1  0  0  0  0
M  END
>  <MODEL>
2

>  <REMARK>
 VINA RESULT:      -7.6      2.688      5.755
  Name = 
  11 active torsions:
  status: ('A' for Active; 'I' for Inactive)
    1  A    between atoms: C_1  and  C_11
    2  A    between atoms: C_6  and  C_23
    3  A    between atoms: C_7  and  C_11
    4  A    between atoms: C_7  and  N_13
    5  A    between atoms: C_7  and  C_38
    6  A    between atoms: C_8  and  N_40
    7  A    between atoms: N_10  and  C_24
    8  A    between atoms: N_13  and  C_43
    9  A    between atoms: C_17  and  C_32
   10  A    between atoms: C_17  and  C_37
   11  A    between atoms: C_36  and  C_37
                            x       y       z     vdW  Elec       q    Type
                         _______ _______ _______ _____ _____    ______ ____

>  <TORSDO>
F 11

$$$$
=
 OpenBabel11042419033D

 43 46  0  0  1  0  0  0  0  0999 V2000
  190.4740  175.8000  146.1640 C   0  0  0  0  0  0  0  0  0  0  0  0
  189.8230  176.9400  146.3970 C   0  0  0  0  0  3  0  0  0  0  0  0
  194.0700  175.8340  144.6960 C   0  0  0  0  0  0  0  0  0  0  0  0
  194.5280  176.0140  143.4910 N   0  0  0  0  0  0  0  0  0  0  0  0
  192.5790  175.6380  147.2320 O   0  0  0  0  0  0  0  0  0  0  0  0
  191.9480  175.7720  146.1490 C   0  0  0  0  0  0  0  0  0  0  0  0
  195.0000  175.5750  145.8390 C   0  0  0  0  0  1  0  0  0  0  0  0
  192.6520  175.8970  144.8950 N   0  0  0  0  0  2  0  0  0  0  0  0
  195.5530  174.5220  140.1410 C   0  0  0  0  0  1  0  0  0  0  0  0
  196.4190  174.2850  142.7140 S   0  0  0  0  0  0  0  0  0  0  0  0
  196.5990  175.0680  141.0880 C   0  0  2  0  0  3  0  0  0  0  0  0
  195.9410  175.9910  143.1260 C   0  0  1  0  0  3  0  0  0  0  0  0
  196.1770  176.7830  141.5060 S   0  0  0  0  0  0  0  0  0  0  0  0
  188.3960  176.9740  146.4220 N   0  0  0  0  0  2  0  0  0  0  0  0
  187.5830  177.0500  145.2220 C   0  0  1  0  0  3  0  0  0  0  0  0
  185.9320  178.8790  145.4890 O   0  0  0  0  0  0  0  0  0  0  0  0
  184.2370  177.8380  146.4200 C   0  0  0  0  0  3  0  0  0  0  0  0
  185.2250  176.9000  146.1810 C   0  0  0  0  0  3  0  0  0  0  0  0
  184.7280  179.0560  145.9730 C   0  0  0  0  0  3  0  0  0  0  0  0
  186.2500  177.6140  145.6010 C   0  0  0  0  0  0  0  0  0  0  0  0
  188.2700  177.9330  144.1780 C   0  0  0  0  0  2  0  0  0  0  0  0
  187.6540  177.7440  142.8320 C   0  0  0  0  0  0  0  0  0  0  0  0
  187.9230  176.5510  142.0950 N   0  0  0  0  0  2  0  0  0  0  0  0
  186.9390  178.6530  142.3350 O   0  0  0  0  0  0  0  0  0  0  0  0
  187.4320  176.3540  140.7410 C   0  0  0  0  0  1  0  0  0  0  0  0
  189.6930  174.5360  145.9130 C   0  0  0  0  0  2  0  0  0  0  0  0
  189.4530  173.3670  142.7950 C   0  0  2  0  0  3  0  0  0  0  0  0
  189.6890  172.2090  144.8680 C   0  0  0  0  0  2  0  0  0  0  0  0
  190.4760  174.1370  143.6020 C   0  0  0  0  0  2  0  0  0  0  0  0
  189.4190  171.9840  143.3940 C   0  0  0  0  0  2  0  0  0  0  0  0
  190.4250  173.5460  144.9970 C   0  0  1  0  0  3  0  0  0  0  0  0
  189.1330  172.6180  140.3690 C   0  0  0  0  0  0  0  0  0  0  0  0
  187.8790  172.6560  140.2830 O   0  0  0  0  0  0  0  0  0  0  0  0
  189.8040  173.3790  141.3800 N   0  0  0  0  0  2  0  0  0  0  0  0
  189.9500  171.8370  139.4120 C   0  0  0  0  0  0  0  0  0  0  0  0
  191.3390  171.5740  137.3380 C   0  0  0  0  0  2  0  0  0  0  0  0
  190.6380  173.0830  135.4400 N   0  0  0  0  0  0  0  0  0  0  0  0
  189.3390  173.2310  135.1090 O   0  0  0  0  0  1  0  0  0  0  0  0
  190.9520  174.1070  136.4570 C   0  0  0  0  0  2  0  0  0  0  0  0
  190.8080  171.6920  135.9060 C   0  0  0  0  0  2  0  0  0  0  0  0
  190.2840  173.8050  137.8090 C   0  0  0  0  0  2  0  0  0  0  0  0
  190.5300  172.4210  138.2190 N   0  0  0  0  0  0  0  0  0  0  0  0
  190.1080  170.5970  139.6340 O   0  0  0  0  0  0  0  0  0  0  0  0
  1  2  2  0  0  0  0
  2 14  1  0  0  0  0
  3  8  1  0  0  0  0
  3  7  1  0  0  0  0
  4  3  2  0  0  0  0
  6  1  1  0  0  0  0
  6  5  2  0  0  0  0
  8  6  1  0  0  0  0
 10 12  1  0  0  0  0
 11  9  1  6  0  0  0
 11 13  1  0  0  0  0
 11 10  1  0  0  0  0
 12  4  1  6  0  0  0
 13 12  1  0  0  0  0
 15 21  1  6  0  0  0
 15 20  1  0  0  0  0
 15 14  1  0  0  0  0
 16 20  1  0  0  0  0
 16 19  1  0  0  0  0
 18 17  1  0  0  0  0
 19 17  2  0  0  0  0
 20 18  2  0  0  0  0
 22 21  1  0  0  0  0
 23 22  1  0  0  0  0
 24 22  2  0  0  0  0
 25 23  1  0  0  0  0
 26  1  1  0  0  0  0
 27 34  1  6  0  0  0
 27 30  1  0  0  0  0
 27 29  1  0  0  0  0
 28 31  1  0  0  0  0
 29 31  1  0  0  0  0
 30 28  1  0  0  0  0
 31 26  1  1  0  0  0
 32 34  1  0  0  0  0
 33 32  2  0  0  0  0
 35 43  2  0  0  0  0
 35 32  1  0  0  0  0
 36 42  1  0  0  0  0
 37 40  1  0  0  0  0
 37 39  1  0  0  0  0
 38 37  1  0  0  0  0
 39 41  1  0  0  0  0
 40 36  1  0  0  0  0
 41 42  1  0  0  0  0
 42 35  1  0  0  0  0
M  END
>  <MODEL>
3

>  <REMARK>
 VINA RESULT:      -7.2      1.661      2.077
  Name = 
  11 active torsions:
  status: ('A' for Active; 'I' for Inactive)
    1  A    between atoms: C_1  and  C_11
    2  A    between atoms: C_6  and  C_23
    3  A    between atoms: C_7  and  C_11
    4  A    between atoms: C_7  and  N_13
    5  A    between atoms: C_7  and  C_38
    6  A    between atoms: C_8  and  N_40
    7  A    between atoms: N_10  and  C_24
    8  A    between atoms: N_13  and  C_43
    9  A    between atoms: C_17  and  C_32
   10  A    between atoms: C_17  and  C_37
   11  A    between atoms: C_36  and  C_37
                            x       y       z     vdW  Elec       q    Type
                         _______ _______ _______ _____ _____    ______ ____

>  <TORSDO>
F 11

$$$$
=
 OpenBabel11042419033D

 43 46  0  0  1  0  0  0  0  0999 V2000
  188.9930  176.0740  143.4980 C   0  0  0  0  0  0  0  0  0  0  0  0
  187.7600  176.4640  143.8230 C   0  0  0  0  0  3  0  0  0  0  0  0
  189.9150  172.7070  141.7930 C   0  0  0  0  0  0  0  0  0  0  0  0
  190.2290  172.3970  140.5680 N   0  0  0  0  0  0  0  0  0  0  0  0
  189.3070  173.9140  144.4140 O   0  0  0  0  0  0  0  0  0  0  0  0
  189.3160  174.6390  143.3820 C   0  0  0  0  0  0  0  0  0  0  0  0
  189.8550  171.6590  142.8580 C   0  0  0  0  0  1  0  0  0  0  0  0
  189.6350  174.0810  142.0900 N   0  0  0  0  0  2  0  0  0  0  0  0
  192.3490  171.9650  137.4350 C   0  0  0  0  0  1  0  0  0  0  0  0
  190.0330  170.8770  138.3730 S   0  0  0  0  0  0  0  0  0  0  0  0
  191.8330  170.7550  138.1830 C   0  0  2  0  0  3  0  0  0  0  0  0
  190.5500  171.0500  140.1080 C   0  0  1  0  0  3  0  0  0  0  0  0
  192.3500  170.8710  139.9190 S   0  0  0  0  0  0  0  0  0  0  0  0
  187.4370  177.8500  143.9310 N   0  0  0  0  0  2  0  0  0  0  0  0
  186.0740  178.3480  143.9590 C   0  0  1  0  0  3  0  0  0  0  0  0
  186.2440  178.2690  141.4880 O   0  0  0  0  0  0  0  0  0  0  0  0
  184.1340  178.1820  140.8840 C   0  0  0  0  0  3  0  0  0  0  0  0
  184.1730  178.1900  142.2660 C   0  0  0  0  0  3  0  0  0  0  0  0
  185.4490  178.2330  140.4470 C   0  0  0  0  0  3  0  0  0  0  0  0
  185.5150  178.2440  142.5760 C   0  0  0  0  0  0  0  0  0  0  0  0
  185.2390  177.5300  144.9460 C   0  0  0  0  0  2  0  0  0  0  0  0
  185.6450  177.8190  146.3530 C   0  0  0  0  0  0  0  0  0  0  0  0
  185.7340  179.1740  146.7970 N   0  0  0  0  0  2  0  0  0  0  0  0
  185.9480  176.8740  147.1280 O   0  0  0  0  0  0  0  0  0  0  0  0
  186.2190  179.5200  148.1230 C   0  0  0  0  0  1  0  0  0  0  0  0
  190.0600  177.1090  143.2530 C   0  0  0  0  0  2  0  0  0  0  0  0
  191.9140  175.4580  145.4850 C   0  0  2  0  0  3  0  0  0  0  0  0
  190.1760  177.0610  145.8000 C   0  0  0  0  0  2  0  0  0  0  0  0
  192.1440  176.5470  144.4590 C   0  0  0  0  0  2  0  0  0  0  0  0
  191.0520  176.0790  146.5530 C   0  0  0  0  0  2  0  0  0  0  0  0
  190.9020  177.4150  144.4990 C   0  0  1  0  0  3  0  0  0  0  0  0
  194.3990  175.7120  146.0400 C   0  0  0  0  0  0  0  0  0  0  0  0
  194.3990  176.8570  146.5610 O   0  0  0  0  0  0  0  0  0  0  0  0
  193.1860  174.9520  145.9860 N   0  0  0  0  0  2  0  0  0  0  0  0
  195.6430  175.0990  145.5200 C   0  0  0  0  0  0  0  0  0  0  0  0
  197.4700  174.8250  143.8210 C   0  0  0  0  0  2  0  0  0  0  0  0
  196.7240  175.2220  141.4440 N   0  0  0  0  0  0  0  0  0  0  0  0
  195.5750  174.6930  140.9740 O   0  0  0  0  0  1  0  0  0  0  0  0
  196.3960  176.5420  142.0210 C   0  0  0  0  0  2  0  0  0  0  0  0
  197.2790  174.2560  142.4120 C   0  0  0  0  0  2  0  0  0  0  0  0
  195.5920  176.4190  143.3270 C   0  0  0  0  0  2  0  0  0  0  0  0
  196.2270  175.4730  144.2480 N   0  0  0  0  0  0  0  0  0  0  0  0
  196.1890  174.1810  146.2050 O   0  0  0  0  0  0  0  0  0  0  0  0
  1  2  2  0  0  0  0
  2 14  1  0  0  0  0
  3  8  1  0  0  0  0
  3  7  1  0  0  0  0
  4  3  2  0  0  0  0
  6  1  1  0  0  0  0
  6  5  2  0  0  0  0
  8  6  1  0  0  0  0
 10 12  1  0  0  0  0
 11  9  1  6  0  0  0
 11 10  1  0  0  0  0
 11 13  1  0  0  0  0
 12  4  1  6  0  0  0
 13 12  1  0  0  0  0
 14 15  1  0  0  0  0
 15 21  1  1  0  0  0
 16 20  1  0  0  0  0
 17 18  1  0  0  0  0
 18 20  2  0  0  0  0
 19 17  2  0  0  0  0
 19 16  1  0  0  0  0
 20 15  1  0  0  0  0
 21 22  1  0  0  0  0
 22 23  1  0  0  0  0
 22 24  2  0  0  0  0
 23 25  1  0  0  0  0
 26  1  1  0  0  0  0
 27 34  1  1  0  0  0
 27 30  1  0  0  0  0
 28 30  1  0  0  0  0
 29 31  1  0  0  0  0
 29 27  1  0  0  0  0
 31 26  1  6  0  0  0
 31 28  1  0  0  0  0
 32 33  2  0  0  0  0
 34 32  1  0  0  0  0
 35 32  1  0  0  0  0
 35 43  2  0  0  0  0
 36 42  1  0  0  0  0
 37 39  1  0  0  0  0
 37 40  1  0  0  0  0
 38 37  1  0  0  0  0
 39 41  1  0  0  0  0
 40 36  1  0  0  0  0
 41 42  1  0  0  0  0
 42 35  1  0  0  0  0
M  END
>  <MODEL>
4

>  <REMARK>
 VINA RESULT:      -7.2      2.756      6.183
  Name = 
  11 active torsions:
  status: ('A' for Active; 'I' for Inactive)
    1  A    between atoms: C_1  and  C_11
    2  A    between atoms: C_6  and  C_23
    3  A    between atoms: C_7  and  C_11
    4  A    between atoms: C_7  and  N_13
    5  A    between atoms: C_7  and  C_38
    6  A    between atoms: C_8  and  N_40
    7  A    between atoms: N_10  and  C_24
    8  A    between atoms: N_13  and  C_43
    9  A    between atoms: C_17  and  C_32
   10  A    between atoms: C_17  and  C_37
   11  A    between atoms: C_36  and  C_37
                            x       y       z     vdW  Elec       q    Type
                         _______ _______ _______ _____ _____    ______ ____

>  <TORSDO>
F 11

$$$$
=
 OpenBabel11042419033D

 43 46  0  0  1  0  0  0  0  0999 V2000
  188.7900  175.1960  143.2420 C   0  0  0  0  0  0  0  0  0  0  0  0
  187.9990  176.1410  142.7350 C   0  0  0  0  0  3  0  0  0  0  0  0
  191.0280  172.1980  142.1930 C   0  0  0  0  0  0  0  0  0  0  0  0
  191.7860  171.3860  142.8720 N   0  0  0  0  0  0  0  0  0  0  0  0
  189.0960  174.1590  141.1370 O   0  0  0  0  0  0  0  0  0  0  0  0
  189.3920  174.1760  142.3620 C   0  0  0  0  0  0  0  0  0  0  0  0
  190.9010  172.0690  140.7090 C   0  0  0  0  0  1  0  0  0  0  0  0
  190.3150  173.2130  142.9130 N   0  0  0  0  0  2  0  0  0  0  0  0
  194.7150  169.9510  144.8380 C   0  0  0  0  0  1  0  0  0  0  0  0
  194.3220  170.7740  142.2700 S   0  0  0  0  0  0  0  0  0  0  0  0
  194.3760  169.4110  143.4660 C   0  0  2  0  0  3  0  0  0  0  0  0
  192.5670  170.2980  142.2910 C   0  0  1  0  0  3  0  0  0  0  0  0
  192.6350  168.8970  143.4490 S   0  0  0  0  0  0  0  0  0  0  0  0
  187.4180  177.1370  143.5780 N   0  0  0  0  0  2  0  0  0  0  0  0
  186.0000  177.4480  143.5780 C   0  0  1  0  0  3  0  0  0  0  0  0
  186.1940  177.1620  146.0320 O   0  0  0  0  0  0  0  0  0  0  0  0
  184.4210  178.2340  146.7620 C   0  0  0  0  0  3  0  0  0  0  0  0
  184.4460  178.3560  145.3850 C   0  0  0  0  0  3  0  0  0  0  0  0
  185.5310  177.4800  147.1160 C   0  0  0  0  0  3  0  0  0  0  0  0
  185.5750  177.6680  144.9950 C   0  0  0  0  0  0  0  0  0  0  0  0
  185.7370  178.6940  142.7300 C   0  0  0  0  0  2  0  0  0  0  0  0
  184.9650  178.3480  141.5010 C   0  0  0  0  0  0  0  0  0  0  0  0
  183.5370  178.3340  141.5450 N   0  0  0  0  0  2  0  0  0  0  0  0
  185.5720  178.0280  140.4450 O   0  0  0  0  0  0  0  0  0  0  0  0
  182.7340  177.9090  140.4100 C   0  0  0  0  0  1  0  0  0  0  0  0
  189.0640  175.1720  144.7230 C   0  0  0  0  0  2  0  0  0  0  0  0
  191.8820  175.0490  146.5100 C   0  0  2  0  0  3  0  0  0  0  0  0
  190.0650  176.5930  146.5890 C   0  0  0  0  0  2  0  0  0  0  0  0
  191.5060  175.3430  145.0730 C   0  0  0  0  0  2  0  0  0  0  0  0
  191.3340  176.1970  147.3170 C   0  0  0  0  0  2  0  0  0  0  0  0
  190.2020  176.1130  145.1410 C   0  0  1  0  0  3  0  0  0  0  0  0
  194.2960  175.7870  146.0920 C   0  0  0  0  0  0  0  0  0  0  0  0
  194.1970  177.0210  146.3080 O   0  0  0  0  0  0  0  0  0  0  0  0
  193.3250  174.8850  146.6360 N   0  0  0  0  0  2  0  0  0  0  0  0
  195.4310  175.2250  145.3230 C   0  0  0  0  0  0  0  0  0  0  0  0
  196.7700  174.8770  143.2300 C   0  0  0  0  0  2  0  0  0  0  0  0
  195.3830  174.8450  141.1220 N   0  0  0  0  0  0  0  0  0  0  0  0
  194.2320  174.1440  141.0540 O   0  0  0  0  0  1  0  0  0  0  0  0
  195.0460  176.1970  141.6090 C   0  0  0  0  0  2  0  0  0  0  0  0
  196.2950  174.0900  142.0050 C   0  0  0  0  0  2  0  0  0  0  0  0
  194.6350  176.1940  143.0910 C   0  0  0  0  0  2  0  0  0  0  0  0
  195.6080  175.4600  143.9040 N   0  0  0  0  0  0  0  0  0  0  0  0
  196.2530  174.4750  145.9330 O   0  0  0  0  0  0  0  0  0  0  0  0
  1 26  1  0  0  0  0
  2  1  2  0  0  0  0
  2 14  1  0  0  0  0
  3  4  2  0  0  0  0
  3  8  1  0  0  0  0
  5  6  2  0  0  0  0
  6  8  1  0  0  0  0
  6  1  1  0  0  0  0
  7  3  1  0  0  0  0
 10 12  1  0  0  0  0
 10 11  1  0  0  0  0
 11  9  1  1  0  0  0
 12  4  1  1  0  0  0
 12 13  1  0  0  0  0
 13 11  1  0  0  0  0
 15 21  1  6  0  0  0
 15 14  1  0  0  0  0
 15 20  1  0  0  0  0
 16 19  1  0  0  0  0
 17 19  2  0  0  0  0
 18 17  1  0  0  0  0
 20 18  2  0  0  0  0
 20 16  1  0  0  0  0
 22 23  1  0  0  0  0
 22 21  1  0  0  0  0
 24 22  2  0  0  0  0
 25 23  1  0  0  0  0
 27 34  1  6  0  0  0
 27 30  1  0  0  0  0
 28 30  1  0  0  0  0
 29 31  1  0  0  0  0
 29 27  1  0  0  0  0
 31 26  1  1  0  0  0
 31 28  1  0  0  0  0
 32 33  2  0  0  0  0
 32 34  1  0  0  0  0
 35 43  2  0  0  0  0
 35 32  1  0  0  0  0
 36 42  1  0  0  0  0
 37 39  1  0  0  0  0
 37 40  1  0  0  0  0
 38 37  1  0  0  0  0
 39 41  1  0  0  0  0
 40 36  1  0  0  0  0
 41 42  1  0  0  0  0
 42 35  1  0  0  0  0
M  END
>  <MODEL>
5

>  <REMARK>
 VINA RESULT:      -7.1      2.688      5.443
  Name = 
  11 active torsions:
  status: ('A' for Active; 'I' for Inactive)
    1  A    between atoms: C_1  and  C_11
    2  A    between atoms: C_6  and  C_23
    3  A    between atoms: C_7  and  C_11
    4  A    between atoms: C_7  and  N_13
    5  A    between atoms: C_7  and  C_38
    6  A    between atoms: C_8  and  N_40
    7  A    between atoms: N_10  and  C_24
    8  A    between atoms: N_13  and  C_43
    9  A    between atoms: C_17  and  C_32
   10  A    between atoms: C_17  and  C_37
   11  A    between atoms: C_36  and  C_37
                            x       y       z     vdW  Elec       q    Type
                         _______ _______ _______ _____ _____    ______ ____

>  <TORSDO>
F 11

$$$$
=
 OpenBabel11042419033D

 43 46  0  0  1  0  0  0  0  0999 V2000
  191.2110  173.7870  142.6420 C   0  0  0  0  0  0  0  0  0  0  0  0
  192.3550  173.1360  142.8550 C   0  0  0  0  0  3  0  0  0  0  0  0
  189.6110  173.4060  139.1230 C   0  0  0  0  0  0  0  0  0  0  0  0
  189.9710  173.8200  137.9420 N   0  0  0  0  0  0  0  0  0  0  0  0
  189.3040  172.5770  141.9360 O   0  0  0  0  0  0  0  0  0  0  0  0
  190.2690  173.3200  141.6080 C   0  0  0  0  0  0  0  0  0  0  0  0
  188.3530  172.6200  139.3080 C   0  0  0  0  0  1  0  0  0  0  0  0
  190.4590  173.7210  140.2350 N   0  0  0  0  0  2  0  0  0  0  0  0
  191.8490  173.6770  134.6320 C   0  0  0  0  0  1  0  0  0  0  0  0
  189.5850  174.9040  135.5240 S   0  0  0  0  0  0  0  0  0  0  0  0
  190.3470  173.4970  134.6690 C   0  0  2  0  0  3  0  0  0  0  0  0
  189.2250  173.5740  136.7120 C   0  0  1  0  0  3  0  0  0  0  0  0
  189.9420  172.1580  135.8240 S   0  0  0  0  0  0  0  0  0  0  0  0
  193.2690  173.5750  143.8600 N   0  0  0  0  0  2  0  0  0  0  0  0
  194.2740  174.5960  143.6260 C   0  0  1  0  0  3  0  0  0  0  0  0
  194.7650  176.7650  144.7200 O   0  0  0  0  0  0  0  0  0  0  0  0
  193.8470  176.5020  146.6980 C   0  0  0  0  0  3  0  0  0  0  0  0
  193.6030  175.3530  145.9670 C   0  0  0  0  0  3  0  0  0  0  0  0
  194.5750  177.3500  145.8770 C   0  0  0  0  0  3  0  0  0  0  0  0
  194.2000  175.5840  144.7470 C   0  0  0  0  0  0  0  0  0  0  0  0
  195.6630  173.9580  143.5550 C   0  0  0  0  0  2  0  0  0  0  0  0
  196.3120  174.2420  142.2410 C   0  0  0  0  0  0  0  0  0  0  0  0
  195.5470  174.8350  141.1910 N   0  0  0  0  0  2  0  0  0  0  0  0
  197.5140  173.9190  142.0500 O   0  0  0  0  0  0  0  0  0  0  0  0
  196.0960  175.0440  139.8610 C   0  0  0  0  0  1  0  0  0  0  0  0
  190.8870  175.0070  143.4630 C   0  0  0  0  0  2  0  0  0  0  0  0
  189.6130  176.4000  146.2170 C   0  0  2  0  0  3  0  0  0  0  0  0
  190.1130  174.1200  145.7250 C   0  0  0  0  0  2  0  0  0  0  0  0
  189.1500  176.1560  144.7970 C   0  0  0  0  0  2  0  0  0  0  0  0
  189.6980  175.0380  146.8580 C   0  0  0  0  0  2  0  0  0  0  0  0
  189.7010  174.7970  144.4150 C   0  0  1  0  0  3  0  0  0  0  0  0
  187.3120  177.0470  147.1300 C   0  0  0  0  0  0  0  0  0  0  0  0
  186.9530  175.9540  147.6370 O   0  0  0  0  0  0  0  0  0  0  0  0
  188.7010  177.3080  146.9020 N   0  0  0  0  0  2  0  0  0  0  0  0
  186.3290  178.1060  146.8000 C   0  0  0  0  0  0  0  0  0  0  0  0
  184.6250  179.2060  145.3230 C   0  0  0  0  0  2  0  0  0  0  0  0
  185.0690  178.9140  142.8560 N   0  0  0  0  0  0  0  0  0  0  0  0
  186.3040  179.0880  142.3430 O   0  0  0  0  0  1  0  0  0  0  0  0
  184.9520  177.4950  143.2480 C   0  0  0  0  0  2  0  0  0  0  0  0
  184.9290  179.8670  143.9750 C   0  0  0  0  0  2  0  0  0  0  0  0
  185.8130  177.1600  144.4780 C   0  0  0  0  0  2  0  0  0  0  0  0
  185.5890  178.1280  145.5550 N   0  0  0  0  0  0  0  0  0  0  0  0
  186.1670  179.0510  147.6330 O   0  0  0  0  0  0  0  0  0  0  0  0
  1  2  2  0  0  0  0
  1 26  1  0  0  0  0
  2 14  1  0  0  0  0
  3  7  1  0  0  0  0
  3  8  1  0  0  0  0
  4  3  2  0  0  0  0
  6  5  2  0  0  0  0
  6  1  1  0  0  0  0
  8  6  1  0  0  0  0
 10 12  1  0  0  0  0
 11  9  1  1  0  0  0
 11 10  1  0  0  0  0
 11 13  1  0  0  0  0
 12  4  1  1  0  0  0
 13 12  1  0  0  0  0
 15 21  1  1  0  0  0
 15 14  1  0  0  0  0
 15 20  1  0  0  0  0
 16 20  1  0  0  0  0
 16 19  1  0  0  0  0
 18 17  1  0  0  0  0
 19 17  2  0  0  0  0
 20 18  2  0  0  0  0
 22 21  1  0  0  0  0
 23 22  1  0  0  0  0
 24 22  2  0  0  0  0
 25 23  1  0  0  0  0
 27 30  1  0  0  0  0
 27 34  1  1  0  0  0
 28 30  1  0  0  0  0
 29 27  1  0  0  0  0
 31 26  1  6  0  0  0
 31 29  1  0  0  0  0
 31 28  1  0  0  0  0
 32 33  2  0  0  0  0
 34 32  1  0  0  0  0
 35 32  1  0  0  0  0
 35 43  2  0  0  0  0
 36 42  1  0  0  0  0
 37 39  1  0  0  0  0
 37 40  1  0  0  0  0
 38 37  1  0  0  0  0
 39 41  1  0  0  0  0
 40 36  1  0  0  0  0
 41 42  1  0  0  0  0
 42 35  1  0  0  0  0
M  END
>  <MODEL>
6

>  <REMARK>
 VINA RESULT:      -7.0      3.164      8.503
  Name = 
  11 active torsions:
  status: ('A' for Active; 'I' for Inactive)
    1  A    between atoms: C_1  and  C_11
    2  A    between atoms: C_6  and  C_23
    3  A    between atoms: C_7  and  C_11
    4  A    between atoms: C_7  and  N_13
    5  A    between atoms: C_7  and  C_38
    6  A    between atoms: C_8  and  N_40
    7  A    between atoms: N_10  and  C_24
    8  A    between atoms: N_13  and  C_43
    9  A    between atoms: C_17  and  C_32
   10  A    between atoms: C_17  and  C_37
   11  A    between atoms: C_36  and  C_37
                            x       y       z     vdW  Elec       q    Type
                         _______ _______ _______ _____ _____    ______ ____

>  <TORSDO>
F 11

$$$$
=
 OpenBabel11042419033D

 43 46  0  0  1  0  0  0  0  0999 V2000
  189.6050  176.6600  144.7450 C   0  0  0  0  0  0  0  0  0  0  0  0
  188.7560  177.6800  144.8680 C   0  0  0  0  0  3  0  0  0  0  0  0
  193.4770  176.5170  145.0290 C   0  0  0  0  0  0  0  0  0  0  0  0
  194.4220  176.3970  144.1400 N   0  0  0  0  0  0  0  0  0  0  0  0
  191.0270  176.9140  146.6200 O   0  0  0  0  0  0  0  0  0  0  0  0
  190.9370  176.7170  145.3780 C   0  0  0  0  0  0  0  0  0  0  0  0
  193.8030  176.6280  146.4840 C   0  0  0  0  0  1  0  0  0  0  0  0
  192.1200  176.5460  144.5690 N   0  0  0  0  0  2  0  0  0  0  0  0
  196.7220  174.2570  141.9880 C   0  0  0  0  0  1  0  0  0  0  0  0
  196.3650  174.6310  144.6640 S   0  0  0  0  0  0  0  0  0  0  0  0
  197.2790  175.0470  143.1520 C   0  0  2  0  0  3  0  0  0  0  0  0
  195.8490  176.3610  144.4440 C   0  0  1  0  0  3  0  0  0  0  0  0
  196.8100  176.7900  142.9600 S   0  0  0  0  0  0  0  0  0  0  0  0
  187.4620  177.6300  144.2660 N   0  0  0  0  0  2  0  0  0  0  0  0
  186.8730  178.7510  143.5570 C   0  0  1  0  0  3  0  0  0  0  0  0
  185.4360  178.4700  141.5580 O   0  0  0  0  0  0  0  0  0  0  0  0
  186.7600  177.3780  140.1880 C   0  0  0  0  0  3  0  0  0  0  0  0
  187.4740  177.6330  141.3460 C   0  0  0  0  0  3  0  0  0  0  0  0
  185.4960  177.9190  140.3710 C   0  0  0  0  0  3  0  0  0  0  0  0
  186.5910  178.3150  142.1550 C   0  0  0  0  0  0  0  0  0  0  0  0
  185.5870  179.1960  144.2580 C   0  0  0  0  0  2  0  0  0  0  0  0
  185.4030  178.4670  145.5460 C   0  0  0  0  0  0  0  0  0  0  0  0
  185.9460  179.0130  146.7500 N   0  0  0  0  0  2  0  0  0  0  0  0
  184.8120  177.3550  145.5620 O   0  0  0  0  0  0  0  0  0  0  0  0
  185.8850  178.3020  148.0160 C   0  0  0  0  0  1  0  0  0  0  0  0
  189.1990  175.4460  143.9510 C   0  0  0  0  0  2  0  0  0  0  0  0
  189.3400  172.1890  143.2320 C   0  0  2  0  0  3  0  0  0  0  0  0
  189.8660  173.3530  145.2470 C   0  0  0  0  0  2  0  0  0  0  0  0
  190.0930  173.4360  142.8220 C   0  0  0  0  0  2  0  0  0  0  0  0
  189.6900  171.9580  144.6790 C   0  0  0  0  0  2  0  0  0  0  0  0
  190.1930  174.2830  144.0750 C   0  0  1  0  0  3  0  0  0  0  0  0
  190.9190  170.9640  141.6340 C   0  0  0  0  0  0  0  0  0  0  0  0
  192.0160  171.1360  142.2240 O   0  0  0  0  0  0  0  0  0  0  0  0
  189.6910  171.0720  142.3630 N   0  0  0  0  0  2  0  0  0  0  0  0
  190.8610  170.6000  140.1990 C   0  0  0  0  0  0  0  0  0  0  0  0
  190.9720  171.1170  137.7460 C   0  0  0  0  0  2  0  0  0  0  0  0
  190.1420  173.4240  137.1480 N   0  0  0  0  0  0  0  0  0  0  0  0
  188.9980  173.9120  137.6700 O   0  0  0  0  0  1  0  0  0  0  0  0
  191.2380  173.7940  138.0670 C   0  0  0  0  0  2  0  0  0  0  0  0
  189.9540  171.9690  136.9820 C   0  0  0  0  0  2  0  0  0  0  0  0
  191.1770  173.0080  139.3880 C   0  0  0  0  0  2  0  0  0  0  0  0
  191.0280  171.5720  139.1380 N   0  0  0  0  0  0  0  0  0  0  0  0
  190.6130  169.3920  139.8990 O   0  0  0  0  0  0  0  0  0  0  0  0
  1  2  2  0  0  0  0
  1  6  1  0  0  0  0
  3  7  1  0  0  0  0
  4  3  2  0  0  0  0
  6  5  2  0  0  0  0
  8  3  1  0  0  0  0
  8  6  1  0  0  0  0
 11  9  1  6  0  0  0
 11 10  1  0  0  0  0
 12  4  1  6  0  0  0
 12 10  1  0  0  0  0
 13 11  1  0  0  0  0
 13 12  1  0  0  0  0
 14  2  1  0  0  0  0
 15 21  1  1  0  0  0
 15 14  1  0  0  0  0
 16 20  1  0  0  0  0
 17 19  2  0  0  0  0
 17 18  1  0  0  0  0
 18 20  2  0  0  0  0
 19 16  1  0  0  0  0
 20 15  1  0  0  0  0
 21 22  1  0  0  0  0
 22 24  2  0  0  0  0
 22 23  1  0  0  0  0
 23 25  1  0  0  0  0
 26  1  1  0  0  0  0
 27 34  1  6  0  0  0
 27 30  1  0  0  0  0
 29 27  1  0  0  0  0
 29 31  1  0  0  0  0
 30 28  1  0  0  0  0
 31 26  1  6  0  0  0
 31 28  1  0  0  0  0
 32 33  2  0  0  0  0
 32 34  1  0  0  0  0
 35 32  1  0  0  0  0
 36 42  1  0  0  0  0
 37 38  1  0  0  0  0
 37 39  1  0  0  0  0
 39 41  1  0  0  0  0
 40 37  1  0  0  0  0
 40 36  1  0  0  0  0
 42 41  1  0  0  0  0
 42 35  1  0  0  0  0
 43 35  2  0  0  0  0
M  END
>  <MODEL>
7

>  <REMARK>
 VINA RESULT:      -7.0      1.834      3.398
  Name = 
  11 active torsions:
  status: ('A' for Active; 'I' for Inactive)
    1  A    between atoms: C_1  and  C_11
    2  A    between atoms: C_6  and  C_23
    3  A    between atoms: C_7  and  C_11
    4  A    between atoms: C_7  and  N_13
    5  A    between atoms: C_7  and  C_38
    6  A    between atoms: C_8  and  N_40
    7  A    between atoms: N_10  and  C_24
    8  A    between atoms: N_13  and  C_43
    9  A    between atoms: C_17  and  C_32
   10  A    between atoms: C_17  and  C_37
   11  A    between atoms: C_36  and  C_37
                            x       y       z     vdW  Elec       q    Type
                         _______ _______ _______ _____ _____    ______ ____

>  <TORSDO>
F 11

$$$$
=
 OpenBabel11042419033D

 43 46  0  0  1  0  0  0  0  0999 V2000
  192.3320  172.6470  142.6510 C   0  0  0  0  0  0  0  0  0  0  0  0
  193.2680  173.0160  143.5260 C   0  0  0  0  0  3  0  0  0  0  0  0
  193.7410  172.8060  139.0340 C   0  0  0  0  0  0  0  0  0  0  0  0
  194.3600  173.7400  138.3700 N   0  0  0  0  0  0  0  0  0  0  0  0
  192.4660  170.9850  140.9720 O   0  0  0  0  0  0  0  0  0  0  0  0
  192.7130  172.1760  141.3060 C   0  0  0  0  0  0  0  0  0  0  0  0
  193.4460  171.4830  138.4030 C   0  0  0  0  0  1  0  0  0  0  0  0
  193.3590  173.0820  140.3880 N   0  0  0  0  0  2  0  0  0  0  0  0
  197.4910  175.6140  137.2840 C   0  0  0  0  0  1  0  0  0  0  0  0
  194.9870  175.2710  136.2650 S   0  0  0  0  0  0  0  0  0  0  0  0
  196.7280  174.7610  136.2940 C   0  0  2  0  0  3  0  0  0  0  0  0
  194.8210  173.6120  136.9920 C   0  0  1  0  0  3  0  0  0  0  0  0
  196.5620  173.0840  136.9670 S   0  0  0  0  0  0  0  0  0  0  0  0
  192.9090  173.4660  144.8330 N   0  0  0  0  0  2  0  0  0  0  0  0
  192.8730  174.8680  145.2080 C   0  0  1  0  0  3  0  0  0  0  0  0
  191.6980  175.2490  147.3560 O   0  0  0  0  0  0  0  0  0  0  0  0
  189.5910  175.2410  146.7370 C   0  0  0  0  0  3  0  0  0  0  0  0
  190.3620  175.0730  145.6010 C   0  0  0  0  0  3  0  0  0  0  0  0
  190.4710  175.3440  147.8050 C   0  0  0  0  0  3  0  0  0  0  0  0
  191.6620  175.0880  146.0570 C   0  0  0  0  0  0  0  0  0  0  0  0
  194.1470  175.2400  145.9690 C   0  0  0  0  0  2  0  0  0  0  0  0
  194.9360  176.2600  145.2180 C   0  0  0  0  0  0  0  0  0  0  0  0
  195.7600  175.8490  144.1260 N   0  0  0  0  0  2  0  0  0  0  0  0
  194.9080  177.4660  145.5760 O   0  0  0  0  0  0  0  0  0  0  0  0
  196.6270  176.7800  143.4220 C   0  0  0  0  0  1  0  0  0  0  0  0
  190.8790  172.7170  143.0430 C   0  0  0  0  0  2  0  0  0  0  0  0
  188.3860  174.8580  142.4560 C   0  0  2  0  0  3  0  0  0  0  0  0
  188.5560  172.5200  142.0090 C   0  0  0  0  0  2  0  0  0  0  0  0
  189.7810  174.6250  141.9180 C   0  0  0  0  0  2  0  0  0  0  0  0
  187.5720  173.6730  142.0050 C   0  0  0  0  0  2  0  0  0  0  0  0
  189.9590  173.1200  141.8830 C   0  0  1  0  0  3  0  0  0  0  0  0
  188.0550  177.3870  142.6550 C   0  0  0  0  0  0  0  0  0  0  0  0
  189.2080  177.7400  143.0100 O   0  0  0  0  0  0  0  0  0  0  0  0
  187.8640  176.1350  141.9860 N   0  0  0  0  0  2  0  0  0  0  0  0
  186.8780  178.2630  142.8670 C   0  0  0  0  0  0  0  0  0  0  0  0
  185.2250  179.4930  144.2990 C   0  0  0  0  0  2  0  0  0  0  0  0
  184.7030  178.3370  146.4810 N   0  0  0  0  0  0  0  0  0  0  0  0
  184.4560  177.0120  146.5270 O   0  0  0  0  0  1  0  0  0  0  0  0
  186.1580  178.5190  146.6490 C   0  0  0  0  0  2  0  0  0  0  0  0
  184.1730  178.8290  145.1930 C   0  0  0  0  0  2  0  0  0  0  0  0
  186.9480  178.0460  145.4170 C   0  0  0  0  0  2  0  0  0  0  0  0
  186.3860  178.6060  144.1860 N   0  0  0  0  0  0  0  0  0  0  0  0
  186.2600  178.6910  141.8450 O   0  0  0  0  0  0  0  0  0  0  0  0
  1 26  1  0  0  0  0
  1  2  2  0  0  0  0
  2 14  1  0  0  0  0
  3  8  1  0  0  0  0
  4  3  2  0  0  0  0
  5  6  2  0  0  0  0
  6  1  1  0  0  0  0
  7  3  1  0  0  0  0
  8  6  1  0  0  0  0
 10 11  1  0  0  0  0
 10 12  1  0  0  0  0
 11 13  1  0  0  0  0
 11  9  1  1  0  0  0
 12  4  1  1  0  0  0
 13 12  1  0  0  0  0
 14 15  1  0  0  0  0
 15 21  1  1  0  0  0
 15 20  1  0  0  0  0
 16 19  1  0  0  0  0
 17 19  2  0  0  0  0
 18 20  2  0  0  0  0
 18 17  1  0  0  0  0
 20 16  1  0  0  0  0
 22 24  2  0  0  0  0
 22 21  1  0  0  0  0
 23 22  1  0  0  0  0
 25 23  1  0  0  0  0
 27 34  1  6  0  0  0
 29 27  1  0  0  0  0
 30 28  1  0  0  0  0
 30 27  1  0  0  0  0
 31 29  1  0  0  0  0
 31 28  1  0  0  0  0
 31 26  1  1  0  0  0
 32 35  1  0  0  0  0
 32 33  2  0  0  0  0
 34 32  1  0  0  0  0
 35 42  1  0  0  0  0
 36 40  1  0  0  0  0
 37 38  1  0  0  0  0
 37 39  1  0  0  0  0
 40 37  1  0  0  0  0
 41 39  1  0  0  0  0
 42 36  1  0  0  0  0
 42 41  1  0  0  0  0
 43 35  2  0  0  0  0
M  END
>  <MODEL>
8

>  <REMARK>
 VINA RESULT:      -6.9      2.608      7.287
  Name = 
  11 active torsions:
  status: ('A' for Active; 'I' for Inactive)
    1  A    between atoms: C_1  and  C_11
    2  A    between atoms: C_6  and  C_23
    3  A    between atoms: C_7  and  C_11
    4  A    between atoms: C_7  and  N_13
    5  A    between atoms: C_7  and  C_38
    6  A    between atoms: C_8  and  N_40
    7  A    between atoms: N_10  and  C_24
    8  A    between atoms: N_13  and  C_43
    9  A    between atoms: C_17  and  C_32
   10  A    between atoms: C_17  and  C_37
   11  A    between atoms: C_36  and  C_37
                            x       y       z     vdW  Elec       q    Type
                         _______ _______ _______ _____ _____    ______ ____

>  <TORSDO>
F 11

$$$$
=
 OpenBabel11042419033D

 43 46  0  0  1  0  0  0  0  0999 V2000
  192.9300  173.8240  144.7530 C   0  0  2  0  0  3  0  0  0  0  0  0
  194.0390  173.6670  144.0300 C   0  0  0  0  0  3  0  0  0  0  0  0
  190.2320  172.9730  142.0900 C   0  0  0  0  0  0  0  0  0  0  0  0
  190.2770  172.8680  140.7930 N   0  0  0  0  0  0  0  0  0  0  0  0
  190.6680  173.1760  144.9990 O   0  0  0  0  0  0  0  0  0  0  0  0
  191.6210  173.4170  144.2090 C   0  0  0  0  0  0  0  0  0  0  0  0
  188.9540  172.7510  142.8330 C   0  0  0  0  0  1  0  0  0  0  0  0
  191.4450  173.3000  142.7820 N   0  0  0  0  0  2  0  0  0  0  0  0
  190.3750  173.7930  137.1000 C   0  0  0  0  0  1  0  0  0  0  0  0
  188.5540  174.0410  139.1120 S   0  0  0  0  0  0  0  0  0  0  0  0
  189.1630  173.1020  137.6840 C   0  0  2  0  0  3  0  0  0  0  0  0
  189.1370  172.5330  139.9460 C   0  0  1  0  0  3  0  0  0  0  0  0
  189.6950  171.5730  138.5050 S   0  0  0  0  0  0  0  0  0  0  0  0
  195.3110  174.0510  144.5510 N   0  0  0  0  0  0  0  0  0  0  0  0
  196.5680  173.5480  144.0280 C   0  0  1  0  0  3  0  0  0  0  0  0
  196.3060  171.8440  145.8070 O   0  0  0  0  0  0  0  0  0  0  0  0
  197.7310  170.2960  145.1770 C   0  0  0  0  0  3  0  0  0  0  0  0
  197.7570  171.3010  144.2270 C   0  0  0  0  0  3  0  0  0  0  0  0
  196.8120  170.6820  146.1410 C   0  0  0  0  0  3  0  0  0  0  0  0
  196.8470  172.2320  144.6790 C   0  0  0  0  0  0  0  0  0  0  0  0
  196.4790  173.3960  142.5080 C   0  0  0  0  0  2  0  0  0  0  0  0
  197.1800  174.5180  141.8180 C   0  0  0  0  0  0  0  0  0  0  0  0
  197.0680  174.6550  140.4010 N   0  0  0  0  0  2  0  0  0  0  0  0
  197.9010  175.3110  142.4790 O   0  0  0  0  0  0  0  0  0  0  0  0
  197.8060  175.6670  139.6630 C   0  0  0  0  0  1  0  0  0  0  0  0
  193.0210  174.4260  146.1310 C   0  0  0  0  0  2  0  0  0  0  0  0
  190.3570  176.4310  145.9640 C   0  0  2  0  0  3  0  0  0  0  0  0
  192.4160  176.4900  144.7610 C   0  0  0  0  0  2  0  0  0  0  0  0
  191.4490  176.1410  146.9700 C   0  0  0  0  0  2  0  0  0  0  0  0
  191.0380  177.1200  144.8100 C   0  0  0  0  0  2  0  0  0  0  0  0
  192.7100  175.9290  146.1550 C   0  0  1  0  0  3  0  0  0  0  0  0
  187.9800  176.7490  146.8560 C   0  0  0  0  0  0  0  0  0  0  0  0
  187.8240  175.6670  147.4780 O   0  0  0  0  0  0  0  0  0  0  0  0
  189.2990  177.2280  146.5740 N   0  0  0  0  0  2  0  0  0  0  0  0
  186.8220  177.5780  146.4440 C   0  0  0  0  0  0  0  0  0  0  0  0
  185.0610  178.3240  144.8210 C   0  0  0  0  0  2  0  0  0  0  0  0
  185.7820  178.2100  142.4050 N   0  0  0  0  0  0  0  0  0  0  0  0
  186.9900  178.6650  142.0140 O   0  0  0  0  0  1  0  0  0  0  0  0
  185.9450  176.7890  142.7710 C   0  0  0  0  0  2  0  0  0  0  0  0
  185.3340  179.0760  143.5140 C   0  0  0  0  0  2  0  0  0  0  0  0
  186.7420  176.6130  144.0740 C   0  0  0  0  0  2  0  0  0  0  0  0
  186.2130  177.4750  145.1340 N   0  0  0  0  0  0  0  0  0  0  0  0
  186.3810  178.4390  147.2660 O   0  0  0  0  0  0  0  0  0  0  0  0
  1  2  1  6  0  0  0
  1 26  1  0  0  0  0
  2 14  2  0  0  0  0
  3  8  1  0  0  0  0
  3  7  1  0  0  0  0
  4  3  2  0  0  0  0
  6  1  1  0  0  0  0
  6  5  2  0  0  0  0
  8  6  1  0  0  0  0
 10 12  1  0  0  0  0
 11  9  1  1  0  0  0
 11 13  1  0  0  0  0
 11 10  1  0  0  0  0
 12  4  1  1  0  0  0
 13 12  1  0  0  0  0
 15 21  1  6  0  0  0
 15 14  1  0  0  0  0
 15 20  1  0  0  0  0
 16 19  1  0  0  0  0
 17 19  2  0  0  0  0
 18 20  2  0  0  0  0
 18 17  1  0  0  0  0
 20 16  1  0  0  0  0
 22 24  2  0  0  0  0
 22 21  1  0  0  0  0
 23 22  1  0  0  0  0
 25 23  1  0  0  0  0
 27 34  1  1  0  0  0
 27 29  1  0  0  0  0
 28 30  1  0  0  0  0
 28 31  1  0  0  0  0
 30 27  1  0  0  0  0
 31 26  1  6  0  0  0
 31 29  1  0  0  0  0
 32 33  2  0  0  0  0
 34 32  1  0  0  0  0
 35 32  1  0  0  0  0
 35 43  2  0  0  0  0
 36 42  1  0  0  0  0
 37 39  1  0  0  0  0
 37 40  1  0  0  0  0
 38 37  1  0  0  0  0
 39 41  1  0  0  0  0
 40 36  1  0  0  0  0
 41 42  1  0  0  0  0
 42 35  1  0  0  0  0
M  END
>  <MODEL>
9

>  <REMARK>
 VINA RESULT:      -6.9      3.286      8.907
  Name = 
  11 active torsions:
  status: ('A' for Active; 'I' for Inactive)
    1  A    between atoms: C_1  and  C_11
    2  A    between atoms: C_6  and  C_23
    3  A    between atoms: C_7  and  C_11
    4  A    between atoms: C_7  and  N_13
    5  A    between atoms: C_7  and  C_38
    6  A    between atoms: C_8  and  N_40
    7  A    between atoms: N_10  and  C_24
    8  A    between atoms: N_13  and  C_43
    9  A    between atoms: C_17  and  C_32
   10  A    between atoms: C_17  and  C_37
   11  A    between atoms: C_36  and  C_37
                            x       y       z     vdW  Elec       q    Type
                         _______ _______ _______ _____ _____    ______ ____

>  <TORSDO>
F 11

$$$$
