=
 OpenBabel11042416593D

 67 72  0  0  1  0  0  0  0  0999 V2000
  187.2930  175.8910  144.8890 O   0  0  0  0  0  0  0  0  0  0  0  0
  186.9210  176.9560  145.7180 C   0  0  2  0  0  3  0  0  0  0  0  0
  188.5880  175.8700  147.3610 C   0  0  2  0  0  3  0  0  0  0  0  0
  189.7530  176.7310  146.9080 C   0  0  2  0  0  3  0  0  0  0  0  0
  189.3580  175.5220  146.0770 C   0  0  2  0  0  3  0  0  0  0  0  0
  188.6880  175.9930  144.7770 C   0  0  1  0  0  3  0  0  0  0  0  0
  187.2460  176.6030  147.1730 C   0  0  0  0  0  2  0  0  0  0  0  0
  185.4360  177.3070  145.5510 C   0  0  0  0  0  0  0  0  0  0  0  0
  185.2220  178.5570  146.1030 F   0  0  0  0  0  0  0  0  0  0  0  0
  184.6400  176.4000  146.2480 F   0  0  0  0  0  0  0  0  0  0  0  0
  185.0980  177.3880  144.1810 O   0  0  0  0  0  0  0  0  0  0  0  0
  185.7630  178.3010  142.0820 C   0  0  0  0  0  1  0  0  0  0  0  0
  185.7640  178.4720  143.5880 C   0  0  0  0  0  2  0  0  0  0  0  0
  189.2050  175.1540  143.6030 C   0  0  2  0  0  3  0  0  0  0  0  0
  190.3260  175.9010  142.8890 C   0  0  0  0  0  2  0  0  0  0  0  0
  190.1660  177.2790  143.0540 O   0  0  0  0  0  1  0  0  0  0  0  0
  188.1010  174.8440  142.6030 C   0  0  0  0  0  2  0  0  0  0  0  0
  188.1980  173.3970  142.1620 C   0  0  0  0  0  2  0  0  0  0  0  0
  189.2910  172.7030  142.9400 C   0  0  0  0  0  2  0  0  0  0  0  0
  191.0060  170.9030  142.5420 C   0  0  0  0  0  0  0  0  0  0  0  0
  189.8620  171.6510  142.1250 N   0  0  0  0  0  2  0  0  0  0  0  0
  191.6140  171.2100  143.6050 O   0  0  0  0  0  0  0  0  0  0  0  0
  193.6740  169.7880  140.7100 C   0  0  0  0  0  3  0  0  0  0  0  0
  194.3140  169.0470  141.8520 C   0  0  0  0  0  2  0  0  0  0  0  0
  192.3550  170.0270  140.6120 C   0  0  0  0  0  0  0  0  0  0  0  0
  191.9690  168.6200  142.6840 C   0  0  0  0  0  2  0  0  0  0  0  0
  191.4100  169.6920  141.7480 C   0  0  1  0  0  3  0  0  0  0  0  0
  193.4030  168.9780  143.0790 C   0  0  1  0  0  3  0  0  0  0  0  0
  191.8100  170.6910  139.4600 N   0  0  0  0  0  2  0  0  0  0  0  0
  192.4100  172.9080  139.9660 O   0  0  0  0  0  0  0  0  0  0  0  0
  191.8460  172.0990  139.1800 C   0  0  0  0  0  0  0  0  0  0  0  0
  191.2170  172.6210  137.9330 C   0  0  0  0  0  2  0  0  0  0  0  0
  192.8900  172.8670  136.0410 N   0  0  0  0  0  2  0  0  0  0  0  0
  191.8960  172.0900  136.7120 C   0  0  0  0  0  0  0  0  0  0  0  0
  191.5610  170.9730  136.2380 O   0  0  0  0  0  0  0  0  0  0  0  0
  193.3080  174.0660  136.5220 O   0  0  0  0  0  0  0  0  0  0  0  0
  194.9950  173.9260  138.2160 C   0  0  0  0  0  1  0  0  0  0  0  0
  194.6840  173.9220  136.7280 C   0  0  2  0  0  3  0  0  0  0  0  0
  194.5490  175.8990  135.3700 O   0  0  0  0  0  1  0  0  0  0  0  0
  195.4340  175.0450  136.0260 C   0  0  0  0  0  2  0  0  0  0  0  0
  193.9240  168.1660  144.1120 O   0  0  0  0  0  0  0  0  0  0  0  0
  195.1820  168.6620  144.4990 C   0  0  0  0  0  2  0  0  0  0  0  0
  196.4270  169.4240  146.3860 O   0  0  0  0  0  1  0  0  0  0  0  0
  195.1300  169.1940  145.9220 C   0  0  0  0  0  0  0  0  0  0  0  0
  194.4040  170.3850  145.9600 O   0  0  0  0  0  1  0  0  0  0  0  0
  194.4560  168.1700  146.8120 C   0  0  0  0  0  1  0  0  0  0  0  0
  190.9410  176.4000  147.6800 N   0  0  0  0  0  2  0  0  0  0  0  0
  191.8970  175.7560  146.7870 C   0  0  0  0  0  2  0  0  0  0  0  0
  193.2090  176.5270  146.7410 C   0  0  0  0  0  2  0  0  0  0  0  0
  193.2560  175.1260  144.6960 C   0  0  0  0  0  2  0  0  0  0  0  0
  195.0510  175.8040  143.0450 C   0  0  1  0  0  3  0  0  0  0  0  0
  194.0790  176.0470  145.5940 C   0  0  2  0  0  3  0  0  0  0  0  0
  195.3910  172.8350  144.6290 C   0  0  0  0  0  2  0  0  0  0  0  0
  194.0020  174.7420  143.4170 C   0  0  1  0  0  3  0  0  0  0  0  0
  194.4920  173.2830  143.4570 C   0  0  1  0  0  3  0  0  0  0  0  0
  197.3060  173.0830  146.2080 C   0  0  0  0  0  1  0  0  0  0  0  0
  194.8990  172.7270  142.1060 C   0  0  0  0  0  1  0  0  0  0  0  0
  196.3570  175.1160  145.1870 C   0  0  1  0  0  3  0  0  0  0  0  0
  195.2360  175.3410  146.1290 N   0  0  0  0  0  2  0  0  0  0  0  0
  197.3580  174.8220  143.0230 C   0  0  0  0  0  2  0  0  0  0  0  0
  196.6740  173.6560  144.9520 C   0  0  2  0  0  0  0  0  0  0  0  0
  197.6840  173.6840  143.8840 N   0  0  0  0  0  0  0  0  0  0  0  0
  197.7580  172.4600  143.0940 C   0  0  0  0  0  1  0  0  0  0  0  0
  196.3990  175.7460  143.7840 C   0  0  1  0  0  3  0  0  0  0  0  0
  194.1730  175.8310  140.8310 O   0  0  0  0  0  0  0  0  0  0  0  0
  195.1050  176.1870  141.6000 C   0  0  0  0  0  0  0  0  0  0  0  0
  196.1460  176.9630  141.1040 O   0  0  0  0  0  1  0  0  0  0  0  0
  1  2  1  0  0  0  0
  2  8  1  1  0  0  0
  2  7  1  0  0  0  0
  3  7  1  6  0  0  0
  4  3  1  0  0  0  0
  4 47  1  1  0  0  0
  5  4  1  0  0  0  0
  5  3  1  0  0  0  0
  6  1  1  0  0  0  0
  6  5  1  0  0  0  0
  8  9  1  0  0  0  0
  8 10  1  0  0  0  0
 11  8  1  0  0  0  0
 12 13  1  0  0  0  0
 13 11  1  0  0  0  0
 14  6  1  0  0  0  0
 15 16  1  0  0  0  0
 15 14  1  0  0  0  0
 17 14  1  0  0  0  0
 18 17  1  0  0  0  0
 18 19  1  0  0  0  0
 20 22  2  0  0  0  0
 21 20  1  0  0  0  0
 21 19  1  0  0  0  0
 23 24  1  0  0  0  0
 24 28  1  0  0  0  0
 25 23  2  0  0  0  0
 25 27  1  0  0  0  0
 26 28  1  0  0  0  0
 27 20  1  0  0  0  0
 27 26  1  0  0  0  0
 28 41  1  0  0  0  0
 29 25  1  0  0  0  0
 31 29  1  0  0  0  0
 31 30  2  0  0  0  0
 32 31  1  0  0  0  0
 33 36  1  0  0  0  0
 33 34  1  0  0  0  0
 34 32  1  0  0  0  0
 35 34  2  0  0  0  0
 36 38  1  0  0  0  0
 38 37  1  0  0  0  0
 39 40  1  0  0  0  0
 40 38  1  0  0  0  0
 41 42  1  0  0  0  0
 42 44  1  0  0  0  0
 44 45  1  0  0  0  0
 44 43  1  0  0  0  0
 44 46  1  0  0  0  0
 48 47  1  0  0  0  0
 49 48  1  0  0  0  0
 50 52  1  0  0  0  0
 51 54  1  0  0  0  0
 51 64  1  0  0  0  0
 52 59  1  0  0  0  0
 52 49  1  0  0  0  0
 53 61  1  0  0  0  0
 54 55  1  0  0  0  0
 54 50  1  0  0  0  0
 55 53  1  0  0  0  0
 57 55  1  0  0  0  0
 58 59  1  0  0  0  0
 60 64  1  0  0  0  0
 60 62  1  0  0  0  0
 61 58  1  0  0  0  0
 61 56  1  0  0  0  0
 62 61  1  0  0  0  0
 63 62  1  0  0  0  0
 64 58  1  0  0  0  0
 65 66  2  0  0  0  0
 66 51  1  0  0  0  0
 67 66  1  0  0  0  0
M  END
>  <MODEL>
1

>  <REMARK>
 VINA RESULT:      -6.1      0.000      0.000
  Name = 
  24 active torsions:
  status: ('A' for Active; 'I' for Inactive)
    1  A    between atoms: C_4  and  C_8
    2  A    between atoms: N_5  and  O_43
    3  A    between atoms: C_7  and  C_25
    4  A    between atoms: N_9  and  C_15
    5  A    between atoms: N_9  and  C_29
    6  A    between atoms: C_10  and  C_54
    7  A    between atoms: C_11  and  C_20
    8  A    between atoms: C_13  and  C_62
    9  A    between atoms: C_15  and  C_20
   10  A    between atoms: C_16  and  C_66
   11  A    between atoms: C_16  and  C_67
   12  A    between atoms: C_17  and  C_51
   13  A    between atoms: C_17  and  C_60
   14  A    between atoms: C_17  and  C_66
   15  A    between atoms: N_19  and  C_27
   16  A    between atoms: O_22  and  C_39
   17  A    between atoms: O_22  and  C_55
   18  A    between atoms: C_24  and  C_39
   19  A    between atoms: C_25  and  O_49
   20  A    between atoms: N_30  and  C_67
   21  A    between atoms: C_38  and  C_41
   22  A    between atoms: C_38  and  O_43
   23  A    between atoms: O_49  and  C_59
   24  A    between atoms: C_58  and  C_62
                            x       y       z     vdW  Elec       q    Type
                         _______ _______ _______ _____ _____    ______ ____

>  <TORSDO>
F 24

$$$$
=
 OpenBabel11042416593D

 67 72  0  0  1  0  0  0  0  0999 V2000
  187.5260  175.7360  141.2940 O   0  0  0  0  0  0  0  0  0  0  0  0
  187.5050  177.1030  140.9920 C   0  0  2  0  0  3  0  0  0  0  0  0
  188.9550  177.2920  143.1180 C   0  0  2  0  0  3  0  0  0  0  0  0
  190.2650  177.2230  142.3540 C   0  0  2  0  0  3  0  0  0  0  0  0
  189.5110  175.9380  142.6490 C   0  0  2  0  0  3  0  0  0  0  0  0
  188.8890  175.4030  141.3500 C   0  0  1  0  0  3  0  0  0  0  0  0
  187.8370  177.9060  142.2550 C   0  0  0  0  0  2  0  0  0  0  0  0
  186.1520  177.5280  140.4050 C   0  0  0  0  0  0  0  0  0  0  0  0
  185.8860  176.7270  139.3090 F   0  0  0  0  0  0  0  0  0  0  0  0
  186.2080  178.8470  139.9570 F   0  0  0  0  0  0  0  0  0  0  0  0
  185.1170  177.3150  141.3440 O   0  0  0  0  0  0  0  0  0  0  0  0
  183.0170  177.9810  140.4350 C   0  0  0  0  0  1  0  0  0  0  0  0
  184.2010  178.3770  141.2940 C   0  0  0  0  0  2  0  0  0  0  0  0
  189.0830  173.8840  141.2790 C   0  0  2  0  0  3  0  0  0  0  0  0
  189.5480  173.4870  139.8830 C   0  0  0  0  0  2  0  0  0  0  0  0
  189.9830  172.1590  139.8810 O   0  0  0  0  0  1  0  0  0  0  0  0
  187.7980  173.1360  141.6050 C   0  0  0  0  0  2  0  0  0  0  0  0
  187.8400  172.6410  143.0370 C   0  0  0  0  0  2  0  0  0  0  0  0
  189.2540  172.2520  143.3970 C   0  0  0  0  0  2  0  0  0  0  0  0
  190.4800  173.6290  145.1120 C   0  0  0  0  0  0  0  0  0  0  0  0
  189.5170  172.6300  144.7700 N   0  0  0  0  0  2  0  0  0  0  0  0
  191.2050  174.1460  144.2170 O   0  0  0  0  0  0  0  0  0  0  0  0
  191.1200  176.5270  146.8180 C   0  0  0  0  0  3  0  0  0  0  0  0
  189.6770  176.9390  146.9170 C   0  0  0  0  0  2  0  0  0  0  0  0
  191.5340  175.2520  146.7140 C   0  0  0  0  0  0  0  0  0  0  0  0
  189.1410  174.4730  147.0230 C   0  0  0  0  0  2  0  0  0  0  0  0
  190.5450  174.1180  146.5320 C   0  0  1  0  0  3  0  0  0  0  0  0
  188.7260  175.8320  146.4560 C   0  0  1  0  0  3  0  0  0  0  0  0
  192.9340  174.9320  146.6830 N   0  0  0  0  0  2  0  0  0  0  0  0
  193.7760  176.9460  145.8070 O   0  0  0  0  0  0  0  0  0  0  0  0
  194.0010  175.7780  146.2270 C   0  0  0  0  0  0  0  0  0  0  0  0
  195.4050  175.2780  146.2550 C   0  0  0  0  0  2  0  0  0  0  0  0
  195.8730  173.4170  144.5940 N   0  0  0  0  0  2  0  0  0  0  0  0
  195.8490  174.8120  144.9050 C   0  0  0  0  0  0  0  0  0  0  0  0
  196.2510  175.6430  144.0500 O   0  0  0  0  0  0  0  0  0  0  0  0
  195.4270  172.4790  145.4680 O   0  0  0  0  0  0  0  0  0  0  0  0
  194.1870  170.4300  145.4830 C   0  0  0  0  0  1  0  0  0  0  0  0
  194.4780  171.7340  144.7590 C   0  0  2  0  0  3  0  0  0  0  0  0
  194.0130  170.7960  142.5970 O   0  0  0  0  0  1  0  0  0  0  0  0
  194.9820  171.4580  143.3500 C   0  0  0  0  0  2  0  0  0  0  0  0
  187.3650  176.1430  146.6730 O   0  0  0  0  0  0  0  0  0  0  0  0
  186.7560  176.4430  145.4410 C   0  0  0  0  0  2  0  0  0  0  0  0
  186.5590  178.8200  145.4740 O   0  0  0  0  0  1  0  0  0  0  0  0
  185.8260  177.6370  145.5820 C   0  0  0  0  0  0  0  0  0  0  0  0
  184.8500  177.6010  144.5860 O   0  0  0  0  0  1  0  0  0  0  0  0
  185.1560  177.5870  146.9400 C   0  0  0  0  0  1  0  0  0  0  0  0
  191.3830  177.3320  143.2790 N   0  0  0  0  0  2  0  0  0  0  0  0
  192.6180  177.2580  142.5080 C   0  0  0  0  0  2  0  0  0  0  0  0
  193.2290  175.8650  142.5850 C   0  0  0  0  0  2  0  0  0  0  0  0
  193.1010  173.9060  141.0710 C   0  0  0  0  0  2  0  0  0  0  0  0
  193.2280  174.5130  138.6170 C   0  0  1  0  0  3  0  0  0  0  0  0
  193.5780  175.3510  141.2010 C   0  0  2  0  0  3  0  0  0  0  0  0
  195.8240  172.8190  139.9690 C   0  0  0  0  0  2  0  0  0  0  0  0
  193.2500  173.3700  139.6460 C   0  0  1  0  0  3  0  0  0  0  0  0
  194.4140  172.3690  139.5310 C   0  0  1  0  0  3  0  0  0  0  0  0
  197.7470  174.4060  140.0560 C   0  0  0  0  0  1  0  0  0  0  0  0
  194.3890  171.5290  138.2680 C   0  0  0  0  0  1  0  0  0  0  0  0
  195.4970  175.3110  139.6080 C   0  0  1  0  0  3  0  0  0  0  0  0
  195.0200  175.4340  141.0050 N   0  0  0  0  0  2  0  0  0  0  0  0
  195.3710  174.5960  137.3180 C   0  0  0  0  0  2  0  0  0  0  0  0
  196.4160  174.1320  139.3780 C   0  0  2  0  0  0  0  0  0  0  0  0
  196.6190  174.1250  137.9210 N   0  0  0  0  0  0  0  0  0  0  0  0
  196.9840  172.8240  137.3710 C   0  0  0  0  0  1  0  0  0  0  0  0
  194.5390  175.2890  138.4040 C   0  0  1  0  0  3  0  0  0  0  0  0
  191.8200  173.1640  137.2490 O   0  0  0  0  0  1  0  0  0  0  0  0
  192.3960  174.2750  137.3970 C   0  0  0  0  0  0  0  0  0  0  0  0
  192.2170  175.2730  136.4470 O   0  0  0  0  0  0  0  0  0  0  0  0
  1  6  1  0  0  0  0
  2  8  1  1  0  0  0
  2  1  1  0  0  0  0
  2  7  1  0  0  0  0
  3  7  1  6  0  0  0
  4  5  1  0  0  0  0
  4  3  1  0  0  0  0
  4 47  1  1  0  0  0
  5  3  1  0  0  0  0
  6  5  1  0  0  0  0
  8 11  1  0  0  0  0
  9  8  1  0  0  0  0
 10  8  1  0  0  0  0
 12 13  1  0  0  0  0
 13 11  1  0  0  0  0
 14  6  1  0  0  0  0
 14 17  1  0  0  0  0
 15 14  1  0  0  0  0
 16 15  1  0  0  0  0
 17 18  1  0  0  0  0
 18 19  1  0  0  0  0
 19 21  1  0  0  0  0
 20 27  1  0  0  0  0
 21 20  1  0  0  0  0
 22 20  2  0  0  0  0
 23 24  1  0  0  0  0
 25 23  2  0  0  0  0
 27 25  1  0  0  0  0
 27 26  1  0  0  0  0
 28 41  1  0  0  0  0
 28 24  1  0  0  0  0
 28 26  1  0  0  0  0
 29 25  1  0  0  0  0
 30 31  2  0  0  0  0
 31 32  1  0  0  0  0
 31 29  1  0  0  0  0
 33 34  1  0  0  0  0
 33 36  1  0  0  0  0
 34 32  1  0  0  0  0
 35 34  2  0  0  0  0
 38 36  1  0  0  0  0
 38 37  1  0  0  0  0
 39 40  1  0  0  0  0
 40 38  1  0  0  0  0
 42 44  1  0  0  0  0
 42 41  1  0  0  0  0
 43 44  1  0  0  0  0
 44 46  1  0  0  0  0
 45 44  1  0  0  0  0
 48 49  1  0  0  0  0
 48 47  1  0  0  0  0
 50 52  1  0  0  0  0
 51 54  1  0  0  0  0
 52 49  1  0  0  0  0
 54 50  1  0  0  0  0
 55 54  1  0  0  0  0
 55 53  1  0  0  0  0
 57 55  1  0  0  0  0
 58 59  1  0  0  0  0
 59 52  1  0  0  0  0
 60 62  1  0  0  0  0
 60 64  1  0  0  0  0
 61 58  1  0  0  0  0
 61 53  1  0  0  0  0
 61 56  1  0  0  0  0
 62 61  1  0  0  0  0
 63 62  1  0  0  0  0
 64 51  1  0  0  0  0
 64 58  1  0  0  0  0
 65 66  1  0  0  0  0
 66 51  1  0  0  0  0
 67 66  2  0  0  0  0
M  END
>  <MODEL>
2

>  <REMARK>
 VINA RESULT:      -6.1      2.559      6.929
  Name = 
  24 active torsions:
  status: ('A' for Active; 'I' for Inactive)
    1  A    between atoms: C_4  and  C_8
    2  A    between atoms: N_5  and  O_43
    3  A    between atoms: C_7  and  C_25
    4  A    between atoms: N_9  and  C_15
    5  A    between atoms: N_9  and  C_29
    6  A    between atoms: C_10  and  C_54
    7  A    between atoms: C_11  and  C_20
    8  A    between atoms: C_13  and  C_62
    9  A    between atoms: C_15  and  C_20
   10  A    between atoms: C_16  and  C_66
   11  A    between atoms: C_16  and  C_67
   12  A    between atoms: C_17  and  C_51
   13  A    between atoms: C_17  and  C_60
   14  A    between atoms: C_17  and  C_66
   15  A    between atoms: N_19  and  C_27
   16  A    between atoms: O_22  and  C_39
   17  A    between atoms: O_22  and  C_55
   18  A    between atoms: C_24  and  C_39
   19  A    between atoms: C_25  and  O_49
   20  A    between atoms: N_30  and  C_67
   21  A    between atoms: C_38  and  C_41
   22  A    between atoms: C_38  and  O_43
   23  A    between atoms: O_49  and  C_59
   24  A    between atoms: C_58  and  C_62
                            x       y       z     vdW  Elec       q    Type
                         _______ _______ _______ _____ _____    ______ ____

>  <TORSDO>
F 24

$$$$
=
 OpenBabel11042416593D

 67 72  0  0  1  0  0  0  0  0999 V2000
  191.9810  175.1610  145.4480 O   0  0  0  0  0  0  0  0  0  0  0  0
  191.2530  174.4640  146.4200 C   0  0  2  0  0  3  0  0  0  0  0  0
  190.2690  173.2360  144.3760 C   0  0  2  0  0  3  0  0  0  0  0  0
  191.2820  172.1070  144.4370 C   0  0  2  0  0  3  0  0  0  0  0  0
  191.6810  173.4270  143.7990 C   0  0  2  0  0  3  0  0  0  0  0  0
  192.6580  174.1660  144.7250 C   0  0  1  0  0  3  0  0  0  0  0  0
  190.0150  173.8360  145.7720 C   0  0  0  0  0  2  0  0  0  0  0  0
  190.8620  175.3760  147.5910 C   0  0  0  0  0  0  0  0  0  0  0  0
  191.3480  174.8140  148.7580 F   0  0  0  0  0  0  0  0  0  0  0  0
  189.4760  175.4520  147.7080 F   0  0  0  0  0  0  0  0  0  0  0  0
  191.4680  176.6460  147.4520 O   0  0  0  0  0  0  0  0  0  0  0  0
  191.4710  177.9630  149.4390 C   0  0  0  0  0  1  0  0  0  0  0  0
  190.7320  177.6060  148.1640 C   0  0  0  0  0  2  0  0  0  0  0  0
  193.7920  174.7730  143.8910 C   0  0  2  0  0  3  0  0  0  0  0  0
  195.1380  174.2950  144.4240 C   0  0  0  0  0  2  0  0  0  0  0  0
  195.4690  174.9940  145.5880 O   0  0  0  0  0  1  0  0  0  0  0  0
  193.7590  176.2940  143.9180 C   0  0  0  0  0  2  0  0  0  0  0  0
  192.7750  176.8060  142.8860 C   0  0  0  0  0  2  0  0  0  0  0  0
  191.8360  177.7990  143.5300 C   0  0  0  0  0  2  0  0  0  0  0  0
  189.5470  177.2360  142.6450 C   0  0  0  0  0  0  0  0  0  0  0  0
  190.7230  178.0490  142.6380 N   0  0  0  0  0  2  0  0  0  0  0  0
  189.4900  176.2070  143.3720 O   0  0  0  0  0  0  0  0  0  0  0  0
  186.3340  176.2300  142.0250 C   0  0  0  0  0  3  0  0  0  0  0  0
  185.7220  177.0790  143.1050 C   0  0  0  0  0  2  0  0  0  0  0  0
  187.4860  176.5240  141.3970 C   0  0  0  0  0  0  0  0  0  0  0  0
  187.5690  178.7350  142.6330 C   0  0  0  0  0  2  0  0  0  0  0  0
  188.3530  177.6820  141.8480 C   0  0  1  0  0  3  0  0  0  0  0  0
  186.7320  178.0520  143.7170 C   0  0  1  0  0  3  0  0  0  0  0  0
  187.9770  175.6950  140.3320 N   0  0  0  0  0  2  0  0  0  0  0  0
  188.3040  173.6900  141.5180 O   0  0  0  0  0  0  0  0  0  0  0  0
  188.3760  174.3180  140.4270 C   0  0  0  0  0  0  0  0  0  0  0  0
  188.8760  173.6080  139.2140 C   0  0  0  0  0  2  0  0  0  0  0  0
  189.1210  174.1230  136.7420 N   0  0  0  0  0  2  0  0  0  0  0  0
  188.3840  174.2540  137.9580 C   0  0  0  0  0  0  0  0  0  0  0  0
  187.3420  174.9600  137.9770 O   0  0  0  0  0  0  0  0  0  0  0  0
  190.2360  173.3530  136.6570 O   0  0  0  0  0  0  0  0  0  0  0  0
  189.8180  171.0070  136.4190 C   0  0  0  0  0  1  0  0  0  0  0  0
  189.9290  172.3560  135.7260 C   0  0  2  0  0  3  0  0  0  0  0  0
  191.6250  173.5480  134.5130 O   0  0  0  0  0  1  0  0  0  0  0  0
  190.9960  172.3100  134.6430 C   0  0  0  0  0  2  0  0  0  0  0  0
  186.1470  178.9560  144.6320 O   0  0  0  0  0  0  0  0  0  0  0  0
  186.3510  178.4850  145.9420 C   0  0  0  0  0  2  0  0  0  0  0  0
  184.8880  176.7090  146.5680 O   0  0  0  0  0  1  0  0  0  0  0  0
  185.0280  178.0970  146.5810 C   0  0  0  0  0  0  0  0  0  0  0  0
  184.9820  178.5570  147.8980 O   0  0  0  0  0  1  0  0  0  0  0  0
  183.8940  178.7220  145.7950 C   0  0  0  0  0  1  0  0  0  0  0  0
  191.0100  171.1410  143.3830 N   0  0  0  0  0  2  0  0  0  0  0  0
  192.2860  170.6240  142.9030 C   0  0  0  0  0  2  0  0  0  0  0  0
  192.2570  170.4080  141.3960 C   0  0  0  0  0  2  0  0  0  0  0  0
  192.6840  172.6870  140.5200 C   0  0  0  0  0  2  0  0  0  0  0  0
  195.1430  173.2670  140.3630 C   0  0  1  0  0  3  0  0  0  0  0  0
  193.2770  171.2920  140.7040 C   0  0  2  0  0  3  0  0  0  0  0  0
  193.4150  172.8950  137.4810 C   0  0  0  0  0  2  0  0  0  0  0  0
  193.7120  173.6910  139.9930 C   0  0  1  0  0  3  0  0  0  0  0  0
  193.4640  174.0400  138.5140 C   0  0  1  0  0  3  0  0  0  0  0  0
  194.2470  170.7990  136.4140 C   0  0  0  0  0  1  0  0  0  0  0  0
  194.1920  175.2820  138.0390 C   0  0  0  0  0  1  0  0  0  0  0  0
  194.8460  171.2360  138.7650 C   0  0  1  0  0  3  0  0  0  0  0  0
  193.6230  170.7080  139.4130 N   0  0  0  0  0  2  0  0  0  0  0  0
  196.5300  172.8880  138.3090 C   0  0  0  0  0  2  0  0  0  0  0  0
  194.5950  171.8810  137.4200 C   0  0  2  0  0  0  0  0  0  0  0  0
  195.8980  172.4600  137.0600 N   0  0  0  0  0  0  0  0  0  0  0  0
  195.8220  173.5780  136.1260 C   0  0  0  0  0  1  0  0  0  0  0  0
  195.8100  172.2020  139.4770 C   0  0  1  0  0  3  0  0  0  0  0  0
  197.0340  174.0580  141.5760 O   0  0  0  0  0  1  0  0  0  0  0  0
  196.0350  174.3570  140.8710 C   0  0  0  0  0  0  0  0  0  0  0  0
  195.7980  175.6860  140.5420 O   0  0  0  0  0  0  0  0  0  0  0  0
  1  2  1  0  0  0  0
  2  8  1  1  0  0  0
  3  4  1  0  0  0  0
  3  7  1  1  0  0  0
  4 47  1  6  0  0  0
  5  3  1  0  0  0  0
  5  4  1  0  0  0  0
  5  6  1  0  0  0  0
  6  1  1  0  0  0  0
  7  2  1  0  0  0  0
  8 10  1  0  0  0  0
  8  9  1  0  0  0  0
 11  8  1  0  0  0  0
 11 13  1  0  0  0  0
 13 12  1  0  0  0  0
 14 17  1  0  0  0  0
 14 15  1  0  0  0  0
 14  6  1  0  0  0  0
 15 16  1  0  0  0  0
 18 19  1  0  0  0  0
 18 17  1  0  0  0  0
 20 22  2  0  0  0  0
 21 20  1  0  0  0  0
 21 19  1  0  0  0  0
 23 24  1  0  0  0  0
 24 28  1  0  0  0  0
 25 27  1  0  0  0  0
 25 23  2  0  0  0  0
 26 28  1  0  0  0  0
 27 26  1  0  0  0  0
 27 20  1  0  0  0  0
 28 41  1  0  0  0  0
 29 31  1  0  0  0  0
 29 25  1  0  0  0  0
 31 30  2  0  0  0  0
 32 31  1  0  0  0  0
 33 34  1  0  0  0  0
 34 35  2  0  0  0  0
 34 32  1  0  0  0  0
 36 33  1  0  0  0  0
 38 37  1  0  0  0  0
 38 36  1  0  0  0  0
 39 40  1  0  0  0  0
 40 38  1  0  0  0  0
 41 42  1  0  0  0  0
 42 44  1  0  0  0  0
 43 44  1  0  0  0  0
 44 45  1  0  0  0  0
 46 44  1  0  0  0  0
 48 47  1  0  0  0  0
 49 48  1  0  0  0  0
 50 52  1  0  0  0  0
 51 66  1  0  0  0  0
 52 49  1  0  0  0  0
 53 55  1  0  0  0  0
 54 51  1  0  0  0  0
 54 50  1  0  0  0  0
 55 54  1  0  0  0  0
 56 61  1  0  0  0  0
 57 55  1  0  0  0  0
 58 59  1  0  0  0  0
 58 64  1  0  0  0  0
 59 52  1  0  0  0  0
 60 64  1  0  0  0  0
 61 53  1  0  0  0  0
 61 58  1  0  0  0  0
 62 61  1  0  0  0  0
 62 60  1  0  0  0  0
 63 62  1  0  0  0  0
 64 51  1  0  0  0  0
 66 65  1  0  0  0  0
 67 66  2  0  0  0  0
M  END
>  <MODEL>
3

>  <REMARK>
 VINA RESULT:      -6.0      2.975      7.339
  Name = 
  24 active torsions:
  status: ('A' for Active; 'I' for Inactive)
    1  A    between atoms: C_4  and  C_8
    2  A    between atoms: N_5  and  O_43
    3  A    between atoms: C_7  and  C_25
    4  A    between atoms: N_9  and  C_15
    5  A    between atoms: N_9  and  C_29
    6  A    between atoms: C_10  and  C_54
    7  A    between atoms: C_11  and  C_20
    8  A    between atoms: C_13  and  C_62
    9  A    between atoms: C_15  and  C_20
   10  A    between atoms: C_16  and  C_66
   11  A    between atoms: C_16  and  C_67
   12  A    between atoms: C_17  and  C_51
   13  A    between atoms: C_17  and  C_60
   14  A    between atoms: C_17  and  C_66
   15  A    between atoms: N_19  and  C_27
   16  A    between atoms: O_22  and  C_39
   17  A    between atoms: O_22  and  C_55
   18  A    between atoms: C_24  and  C_39
   19  A    between atoms: C_25  and  O_49
   20  A    between atoms: N_30  and  C_67
   21  A    between atoms: C_38  and  C_41
   22  A    between atoms: C_38  and  O_43
   23  A    between atoms: O_49  and  C_59
   24  A    between atoms: C_58  and  C_62
                            x       y       z     vdW  Elec       q    Type
                         _______ _______ _______ _____ _____    ______ ____

>  <TORSDO>
F 24

$$$$
=
 OpenBabel11042416593D

 67 72  0  0  1  0  0  0  0  0999 V2000
  192.5880  175.2760  146.4000 O   0  0  0  0  0  0  0  0  0  0  0  0
  193.5090  175.2680  145.3460 C   0  0  2  0  0  3  0  0  0  0  0  0
  192.5850  172.8920  144.9500 C   0  0  2  0  0  3  0  0  0  0  0  0
  191.5500  173.3520  143.9390 C   0  0  2  0  0  3  0  0  0  0  0  0
  191.2620  173.5160  145.4210 C   0  0  2  0  0  3  0  0  0  0  0  0
  191.3500  175.0030  145.7960 C   0  0  1  0  0  3  0  0  0  0  0  0
  193.8150  173.8190  144.9520 C   0  0  0  0  0  2  0  0  0  0  0  0
  194.7930  176.0240  145.7150 C   0  0  0  0  0  0  0  0  0  0  0  0
  195.8290  175.1090  145.7830 F   0  0  0  0  0  0  0  0  0  0  0  0
  194.6690  176.6100  146.9730 F   0  0  0  0  0  0  0  0  0  0  0  0
  195.1230  176.9590  144.7080 O   0  0  0  0  0  0  0  0  0  0  0  0
  196.9290  176.8860  143.1540 C   0  0  0  0  0  1  0  0  0  0  0  0
  195.6000  176.2870  143.5710 C   0  0  0  0  0  2  0  0  0  0  0  0
  190.1930  175.3630  146.7360 C   0  0  2  0  0  3  0  0  0  0  0  0
  189.3920  174.1110  147.0710 C   0  0  0  0  0  2  0  0  0  0  0  0
  188.4060  174.4110  148.0150 O   0  0  0  0  0  1  0  0  0  0  0  0
  189.2640  176.3970  146.1150 C   0  0  0  0  0  2  0  0  0  0  0  0
  189.8480  177.7840  146.2900 C   0  0  0  0  0  2  0  0  0  0  0  0
  190.5260  178.2140  145.0100 C   0  0  0  0  0  2  0  0  0  0  0  0
  189.8870  177.2050  142.7940 C   0  0  0  0  0  0  0  0  0  0  0  0
  189.6030  178.0560  143.9060 N   0  0  0  0  0  2  0  0  0  0  0  0
  191.0090  176.6340  142.7000 O   0  0  0  0  0  0  0  0  0  0  0  0
  187.3000  175.0080  142.3400 C   0  0  0  0  0  3  0  0  0  0  0  0
  186.2650  175.8960  142.9750 C   0  0  0  0  0  2  0  0  0  0  0  0
  188.4160  175.4610  141.7410 C   0  0  0  0  0  0  0  0  0  0  0  0
  187.5990  177.8380  142.0680 C   0  0  0  0  0  2  0  0  0  0  0  0
  188.7970  176.9270  141.7970 C   0  0  1  0  0  3  0  0  0  0  0  0
  186.8020  177.3000  143.2580 C   0  0  1  0  0  3  0  0  0  0  0  0
  189.3300  174.5540  141.1040 N   0  0  0  0  0  2  0  0  0  0  0  0
  188.3350  174.4280  138.9770 O   0  0  0  0  0  0  0  0  0  0  0  0
  189.2570  174.0640  139.7570 C   0  0  0  0  0  0  0  0  0  0  0  0
  190.2920  173.1130  139.2590 C   0  0  0  0  0  2  0  0  0  0  0  0
  190.1720  173.0060  136.7270 N   0  0  0  0  0  2  0  0  0  0  0  0
  189.8550  172.4370  137.9980 C   0  0  0  0  0  0  0  0  0  0  0  0
  189.1620  171.3880  138.0510 O   0  0  0  0  0  0  0  0  0  0  0  0
  190.9380  174.1210  136.6100 O   0  0  0  0  0  0  0  0  0  0  0  0
  189.2920  174.1770  134.8700 C   0  0  0  0  0  1  0  0  0  0  0  0
  190.2200  174.9780  135.7690 C   0  0  2  0  0  3  0  0  0  0  0  0
  192.3000  175.0610  134.5710 O   0  0  0  0  0  1  0  0  0  0  0  0
  191.1820  175.8100  134.9320 C   0  0  0  0  0  2  0  0  0  0  0  0
  185.8080  178.1920  143.7220 O   0  0  0  0  0  0  0  0  0  0  0  0
  186.1870  178.6910  144.9820 C   0  0  0  0  0  2  0  0  0  0  0  0
  185.3500  179.1920  147.1580 O   0  0  0  0  0  1  0  0  0  0  0  0
  185.0800  178.4640  145.9990 C   0  0  0  0  0  0  0  0  0  0  0  0
  183.8550  178.8700  145.4690 O   0  0  0  0  0  1  0  0  0  0  0  0
  185.0120  176.9890  146.3400 C   0  0  0  0  0  1  0  0  0  0  0  0
  190.8020  172.2070  143.4410 N   0  0  0  0  0  2  0  0  0  0  0  0
  191.7570  171.1710  143.0670 C   0  0  0  0  0  2  0  0  0  0  0  0
  191.9650  171.1370  141.5590 C   0  0  0  0  0  2  0  0  0  0  0  0
  193.4100  173.1340  141.2870 C   0  0  0  0  0  2  0  0  0  0  0  0
  195.8810  172.6340  141.5130 C   0  0  1  0  0  3  0  0  0  0  0  0
  193.3600  171.6110  141.1960 C   0  0  2  0  0  3  0  0  0  0  0  0
  194.7160  173.5330  138.4680 C   0  0  0  0  0  2  0  0  0  0  0  0
  194.8280  173.6820  141.1140 C   0  0  1  0  0  3  0  0  0  0  0  0
  195.0180  174.3520  139.7420 C   0  0  1  0  0  3  0  0  0  0  0  0
  194.8400  171.5010  137.0270 C   0  0  0  0  0  1  0  0  0  0  0  0
  196.2510  175.2300  139.6440 C   0  0  0  0  0  1  0  0  0  0  0  0
  195.1140  171.2300  139.4620 C   0  0  1  0  0  3  0  0  0  0  0  0
  193.6840  171.1680  139.8450 N   0  0  0  0  0  2  0  0  0  0  0  0
  197.3640  172.0640  139.5740 C   0  0  0  0  0  2  0  0  0  0  0  0
  195.3920  172.1420  138.2880 C   0  0  2  0  0  0  0  0  0  0  0  0
  196.8600  172.1660  138.2030 N   0  0  0  0  0  0  0  0  0  0  0  0
  197.4050  173.3540  137.5540 C   0  0  0  0  0  1  0  0  0  0  0  0
  196.2280  171.5570  140.4710 C   0  0  1  0  0  3  0  0  0  0  0  0
  197.9410  173.7950  141.7980 O   0  0  0  0  0  0  0  0  0  0  0  0
  197.0170  173.1370  142.3470 C   0  0  0  0  0  0  0  0  0  0  0  0
  197.0480  172.9240  143.7200 O   0  0  0  0  0  1  0  0  0  0  0  0
  2  8  1  1  0  0  0
  2  1  1  0  0  0  0
  3  7  1  6  0  0  0
  3  5  1  0  0  0  0
  4 47  1  1  0  0  0
  4  3  1  0  0  0  0
  4  5  1  0  0  0  0
  5  6  1  0  0  0  0
  6  1  1  0  0  0  0
  6 14  1  0  0  0  0
  7  2  1  0  0  0  0
  8  9  1  0  0  0  0
  8 10  1  0  0  0  0
 11  8  1  0  0  0  0
 12 13  1  0  0  0  0
 13 11  1  0  0  0  0
 14 15  1  0  0  0  0
 15 16  1  0  0  0  0
 17 18  1  0  0  0  0
 17 14  1  0  0  0  0
 19 18  1  0  0  0  0
 20 21  1  0  0  0  0
 21 19  1  0  0  0  0
 22 20  2  0  0  0  0
 23 24  1  0  0  0  0
 24 28  1  0  0  0  0
 25 27  1  0  0  0  0
 25 23  2  0  0  0  0
 26 28  1  0  0  0  0
 27 26  1  0  0  0  0
 27 20  1  0  0  0  0
 28 41  1  0  0  0  0
 29 25  1  0  0  0  0
 30 31  2  0  0  0  0
 31 29  1  0  0  0  0
 32 31  1  0  0  0  0
 33 34  1  0  0  0  0
 34 35  2  0  0  0  0
 34 32  1  0  0  0  0
 36 33  1  0  0  0  0
 37 38  1  0  0  0  0
 38 36  1  0  0  0  0
 39 40  1  0  0  0  0
 40 38  1  0  0  0  0
 41 42  1  0  0  0  0
 42 44  1  0  0  0  0
 44 46  1  0  0  0  0
 44 43  1  0  0  0  0
 45 44  1  0  0  0  0
 48 47  1  0  0  0  0
 49 48  1  0  0  0  0
 51 66  1  0  0  0  0
 52 50  1  0  0  0  0
 52 49  1  0  0  0  0
 53 55  1  0  0  0  0
 54 50  1  0  0  0  0
 54 51  1  0  0  0  0
 55 54  1  0  0  0  0
 56 61  1  0  0  0  0
 57 55  1  0  0  0  0
 58 59  1  0  0  0  0
 58 64  1  0  0  0  0
 59 52  1  0  0  0  0
 60 64  1  0  0  0  0
 61 53  1  0  0  0  0
 61 58  1  0  0  0  0
 62 61  1  0  0  0  0
 62 60  1  0  0  0  0
 63 62  1  0  0  0  0
 64 51  1  0  0  0  0
 65 66  2  0  0  0  0
 66 67  1  0  0  0  0
M  END
>  <MODEL>
4

>  <REMARK>
 VINA RESULT:      -6.0      3.208      7.337
  Name = 
  24 active torsions:
  status: ('A' for Active; 'I' for Inactive)
    1  A    between atoms: C_4  and  C_8
    2  A    between atoms: N_5  and  O_43
    3  A    between atoms: C_7  and  C_25
    4  A    between atoms: N_9  and  C_15
    5  A    between atoms: N_9  and  C_29
    6  A    between atoms: C_10  and  C_54
    7  A    between atoms: C_11  and  C_20
    8  A    between atoms: C_13  and  C_62
    9  A    between atoms: C_15  and  C_20
   10  A    between atoms: C_16  and  C_66
   11  A    between atoms: C_16  and  C_67
   12  A    between atoms: C_17  and  C_51
   13  A    between atoms: C_17  and  C_60
   14  A    between atoms: C_17  and  C_66
   15  A    between atoms: N_19  and  C_27
   16  A    between atoms: O_22  and  C_39
   17  A    between atoms: O_22  and  C_55
   18  A    between atoms: C_24  and  C_39
   19  A    between atoms: C_25  and  O_49
   20  A    between atoms: N_30  and  C_67
   21  A    between atoms: C_38  and  C_41
   22  A    between atoms: C_38  and  O_43
   23  A    between atoms: O_49  and  C_59
   24  A    between atoms: C_58  and  C_62
                            x       y       z     vdW  Elec       q    Type
                         _______ _______ _______ _____ _____    ______ ____

>  <TORSDO>
F 24

$$$$
=
 OpenBabel11042416593D

 67 72  0  0  1  0  0  0  0  0999 V2000
  193.6850  174.7470  145.6790 O   0  0  0  0  0  0  0  0  0  0  0  0
  193.0590  175.9480  145.3230 C   0  0  2  0  0  3  0  0  0  0  0  0
  195.4730  176.7210  144.8470 C   0  0  2  0  0  3  0  0  0  0  0  0
  195.4130  176.3440  143.3770 C   0  0  2  0  0  3  0  0  0  0  0  0
  195.6700  175.2600  144.4100 C   0  0  2  0  0  3  0  0  0  0  0  0
  194.4200  174.3760  144.5430 C   0  0  1  0  0  3  0  0  0  0  0  0
  194.0790  177.0890  145.3860 C   0  0  0  0  0  2  0  0  0  0  0  0
  191.8470  176.2370  146.2200 C   0  0  0  0  0  0  0  0  0  0  0  0
  191.2850  175.0280  146.5920 F   0  0  0  0  0  0  0  0  0  0  0  0
  190.8780  176.9490  145.5150 F   0  0  0  0  0  0  0  0  0  0  0  0
  192.2530  176.8940  147.4040 O   0  0  0  0  0  0  0  0  0  0  0  0
  191.5550  177.8050  149.4920 C   0  0  0  0  0  1  0  0  0  0  0  0
  191.2050  176.8880  148.3370 C   0  0  0  0  0  2  0  0  0  0  0  0
  194.8420  172.9050  144.6220 C   0  0  2  0  0  3  0  0  0  0  0  0
  196.2370  172.7990  145.2260 C   0  0  0  0  0  2  0  0  0  0  0  0
  196.2870  173.4860  146.4420 O   0  0  0  0  0  1  0  0  0  0  0  0
  194.8450  172.2450  143.2500 C   0  0  0  0  0  2  0  0  0  0  0  0
  194.2860  170.8400  143.3550 C   0  0  0  0  0  2  0  0  0  0  0  0
  193.0640  170.8450  144.2420 C   0  0  0  0  0  2  0  0  0  0  0  0
  190.9820  172.0170  143.4470 C   0  0  0  0  0  0  0  0  0  0  0  0
  191.8750  170.9020  143.4160 N   0  0  0  0  0  2  0  0  0  0  0  0
  191.1580  172.9510  144.2780 O   0  0  0  0  0  0  0  0  0  0  0  0
  189.9950  174.0820  140.9010 C   0  0  0  0  0  3  0  0  0  0  0  0
  190.7260  173.3230  139.8280 C   0  0  0  0  0  2  0  0  0  0  0  0
  189.5500  173.5320  142.0440 C   0  0  0  0  0  0  0  0  0  0  0  0
  190.2640  171.2520  141.1980 C   0  0  0  0  0  2  0  0  0  0  0  0
  189.8940  172.1030  142.4130 C   0  0  1  0  0  3  0  0  0  0  0  0
  191.2900  171.9960  140.3420 C   0  0  1  0  0  3  0  0  0  0  0  0
  188.8070  174.3100  142.9970 N   0  0  0  0  0  2  0  0  0  0  0  0
  189.4810  176.4680  142.3480 O   0  0  0  0  0  0  0  0  0  0  0  0
  188.8030  175.7400  143.1230 C   0  0  0  0  0  0  0  0  0  0  0  0
  187.9760  176.3860  144.1830 C   0  0  0  0  0  2  0  0  0  0  0  0
  185.8780  177.8100  144.2940 N   0  0  0  0  0  2  0  0  0  0  0  0
  186.6230  176.7640  143.6680 C   0  0  0  0  0  0  0  0  0  0  0  0
  186.1120  176.1290  142.7090 O   0  0  0  0  0  0  0  0  0  0  0  0
  186.3900  178.5440  145.3140 O   0  0  0  0  0  0  0  0  0  0  0  0
  184.0780  178.6710  145.9300 C   0  0  0  0  0  1  0  0  0  0  0  0
  185.4990  178.3710  146.3790 C   0  0  2  0  0  3  0  0  0  0  0  0
  186.9720  178.7450  148.2400 O   0  0  0  0  0  1  0  0  0  0  0  0
  185.8920  179.2780  147.5370 C   0  0  0  0  0  2  0  0  0  0  0  0
  191.8560  171.2010  139.3190 O   0  0  0  0  0  0  0  0  0  0  0  0
  190.8410  170.4410  138.7090 C   0  0  0  0  0  2  0  0  0  0  0  0
  192.7070  169.9620  137.3050 O   0  0  0  0  0  1  0  0  0  0  0  0
  191.3150  169.8920  137.3740 C   0  0  0  0  0  0  0  0  0  0  0  0
  190.9080  168.5650  137.2320 O   0  0  0  0  0  1  0  0  0  0  0  0
  190.7170  170.7200  136.2550 C   0  0  0  0  0  1  0  0  0  0  0  0
  196.6710  176.6800  142.7280 N   0  0  0  0  0  2  0  0  0  0  0  0
  196.4110  176.8690  141.3060 C   0  0  0  0  0  2  0  0  0  0  0  0
  195.3560  175.8910  140.8080 C   0  0  0  0  0  2  0  0  0  0  0  0
  194.4880  175.0000  138.6620 C   0  0  0  0  0  2  0  0  0  0  0  0
  196.1520  175.1450  136.7600 C   0  0  1  0  0  3  0  0  0  0  0  0
  195.7510  175.3070  139.4650 C   0  0  2  0  0  3  0  0  0  0  0  0
  195.3380  172.0770  137.9250 C   0  0  0  0  0  2  0  0  0  0  0  0
  194.8010  174.5780  137.2250 C   0  0  1  0  0  3  0  0  0  0  0  0
  194.5850  173.0680  137.0140 C   0  0  1  0  0  3  0  0  0  0  0  0
  197.3570  171.1990  139.1000 C   0  0  0  0  0  1  0  0  0  0  0  0
  194.5100  172.6490  135.5580 C   0  0  0  0  0  1  0  0  0  0  0  0
  197.2910  173.5920  138.5090 C   0  0  1  0  0  3  0  0  0  0  0  0
  196.5310  174.0940  139.6780 N   0  0  0  0  0  2  0  0  0  0  0  0
  197.7460  173.3030  136.1680 C   0  0  0  0  0  2  0  0  0  0  0  0
  196.8840  172.2050  138.0650 C   0  0  2  0  0  0  0  0  0  0  0  0
  197.6430  171.9980  136.8220 N   0  0  0  0  0  0  0  0  0  0  0  0
  197.0510  171.0240  135.9110 C   0  0  0  0  0  1  0  0  0  0  0  0
  197.4180  174.3900  137.1990 C   0  0  1  0  0  3  0  0  0  0  0  0
  197.1970  176.3500  134.9910 O   0  0  0  0  0  1  0  0  0  0  0  0
  196.1750  175.7270  135.3810 C   0  0  0  0  0  0  0  0  0  0  0  0
  195.1020  175.5550  134.5150 O   0  0  0  0  0  0  0  0  0  0  0  0
  2  7  1  0  0  0  0
  2  1  1  0  0  0  0
  2  8  1  1  0  0  0
  3  7  1  1  0  0  0
  4 47  1  6  0  0  0
  4  5  1  0  0  0  0
  4  3  1  0  0  0  0
  5  6  1  0  0  0  0
  5  3  1  0  0  0  0
  6 14  1  0  0  0  0
  6  1  1  0  0  0  0
  8  9  1  0  0  0  0
  8 11  1  0  0  0  0
 10  8  1  0  0  0  0
 11 13  1  0  0  0  0
 13 12  1  0  0  0  0
 14 15  1  0  0  0  0
 15 16  1  0  0  0  0
 17 18  1  0  0  0  0
 17 14  1  0  0  0  0
 18 19  1  0  0  0  0
 20 22  2  0  0  0  0
 21 20  1  0  0  0  0
 21 19  1  0  0  0  0
 23 25  2  0  0  0  0
 24 28  1  0  0  0  0
 24 23  1  0  0  0  0
 25 27  1  0  0  0  0
 25 29  1  0  0  0  0
 26 27  1  0  0  0  0
 27 20  1  0  0  0  0
 28 26  1  0  0  0  0
 29 31  1  0  0  0  0
 30 31  2  0  0  0  0
 31 32  1  0  0  0  0
 33 36  1  0  0  0  0
 34 32  1  0  0  0  0
 34 33  1  0  0  0  0
 35 34  2  0  0  0  0
 36 38  1  0  0  0  0
 37 38  1  0  0  0  0
 38 40  1  0  0  0  0
 40 39  1  0  0  0  0
 41 28  1  0  0  0  0
 42 41  1  0  0  0  0
 43 44  1  0  0  0  0
 44 42  1  0  0  0  0
 45 44  1  0  0  0  0
 46 44  1  0  0  0  0
 48 47  1  0  0  0  0
 49 48  1  0  0  0  0
 50 52  1  0  0  0  0
 51 64  1  0  0  0  0
 51 54  1  0  0  0  0
 52 59  1  0  0  0  0
 52 49  1  0  0  0  0
 53 61  1  0  0  0  0
 54 50  1  0  0  0  0
 55 54  1  0  0  0  0
 55 53  1  0  0  0  0
 57 55  1  0  0  0  0
 58 59  1  0  0  0  0
 60 62  1  0  0  0  0
 60 64  1  0  0  0  0
 61 58  1  0  0  0  0
 61 56  1  0  0  0  0
 62 61  1  0  0  0  0
 63 62  1  0  0  0  0
 64 58  1  0  0  0  0
 65 66  1  0  0  0  0
 66 51  1  0  0  0  0
 67 66  2  0  0  0  0
M  END
>  <MODEL>
5

>  <REMARK>
 VINA RESULT:      -5.7      2.704      7.768
  Name = 
  24 active torsions:
  status: ('A' for Active; 'I' for Inactive)
    1  A    between atoms: C_4  and  C_8
    2  A    between atoms: N_5  and  O_43
    3  A    between atoms: C_7  and  C_25
    4  A    between atoms: N_9  and  C_15
    5  A    between atoms: N_9  and  C_29
    6  A    between atoms: C_10  and  C_54
    7  A    between atoms: C_11  and  C_20
    8  A    between atoms: C_13  and  C_62
    9  A    between atoms: C_15  and  C_20
   10  A    between atoms: C_16  and  C_66
   11  A    between atoms: C_16  and  C_67
   12  A    between atoms: C_17  and  C_51
   13  A    between atoms: C_17  and  C_60
   14  A    between atoms: C_17  and  C_66
   15  A    between atoms: N_19  and  C_27
   16  A    between atoms: O_22  and  C_39
   17  A    between atoms: O_22  and  C_55
   18  A    between atoms: C_24  and  C_39
   19  A    between atoms: C_25  and  O_49
   20  A    between atoms: N_30  and  C_67
   21  A    between atoms: C_38  and  C_41
   22  A    between atoms: C_38  and  O_43
   23  A    between atoms: O_49  and  C_59
   24  A    between atoms: C_58  and  C_62
                            x       y       z     vdW  Elec       q    Type
                         _______ _______ _______ _____ _____    ______ ____

>  <TORSDO>
F 24

$$$$
=
 OpenBabel11042416593D

 67 72  0  0  1  0  0  0  0  0999 V2000
  187.9640  177.4950  144.2690 O   0  0  0  0  0  0  0  0  0  0  0  0
  186.5990  177.3750  143.9810 C   0  0  2  0  0  3  0  0  0  0  0  0
  187.4560  176.2290  141.8340 C   0  0  2  0  0  3  0  0  0  0  0  0
  187.3750  174.8330  142.4240 C   0  0  2  0  0  3  0  0  0  0  0  0
  188.5670  175.7110  142.7620 C   0  0  2  0  0  3  0  0  0  0  0  0
  188.4570  176.1810  144.2210 C   0  0  1  0  0  3  0  0  0  0  0  0
  186.4160  177.1670  142.4730 C   0  0  0  0  0  2  0  0  0  0  0  0
  185.8110  178.5980  144.4710 C   0  0  0  0  0  0  0  0  0  0  0  0
  185.5190  179.3920  143.3760 F   0  0  0  0  0  0  0  0  0  0  0  0
  186.5860  179.3580  145.3450 F   0  0  0  0  0  0  0  0  0  0  0  0
  184.5810  178.1980  145.0400 O   0  0  0  0  0  0  0  0  0  0  0  0
  184.9580  178.4440  147.3810 C   0  0  0  0  0  1  0  0  0  0  0  0
  184.8140  177.4770  146.2220 C   0  0  0  0  0  2  0  0  0  0  0  0
  189.8320  176.0890  144.8920 C   0  0  2  0  0  3  0  0  0  0  0  0
  189.7990  176.8090  146.2350 C   0  0  0  0  0  2  0  0  0  0  0  0
  188.7230  176.3500  147.0000 O   0  0  0  0  0  1  0  0  0  0  0  0
  190.9230  176.7030  144.0270 C   0  0  0  0  0  2  0  0  0  0  0  0
  191.8910  175.6250  143.5800 C   0  0  0  0  0  2  0  0  0  0  0  0
  193.2010  176.2570  143.1740 C   0  0  0  0  0  2  0  0  0  0  0  0
  194.2790  174.7900  141.4340 C   0  0  0  0  0  0  0  0  0  0  0  0
  194.1330  175.2170  142.7900 N   0  0  0  0  0  2  0  0  0  0  0  0
  193.5190  175.2490  140.5370 O   0  0  0  0  0  0  0  0  0  0  0  0
  197.6980  174.7180  141.5850 C   0  0  0  0  0  3  0  0  0  0  0  0
  197.7540  174.0130  142.9130 C   0  0  0  0  0  2  0  0  0  0  0  0
  196.6790  174.6070  140.7150 C   0  0  0  0  0  0  0  0  0  0  0  0
  195.6230  172.8540  142.2100 C   0  0  0  0  0  2  0  0  0  0  0  0
  195.4110  173.8650  141.0830 C   0  0  1  0  0  3  0  0  0  0  0  0
  196.3770  173.5190  143.3630 C   0  0  1  0  0  3  0  0  0  0  0  0
  196.7250  175.2660  139.4390 N   0  0  0  0  0  2  0  0  0  0  0  0
  197.9390  173.6640  138.2170 O   0  0  0  0  0  0  0  0  0  0  0  0
  197.3550  174.7820  138.2430 C   0  0  0  0  0  0  0  0  0  0  0  0
  197.3150  175.6060  137.0010 C   0  0  0  0  0  2  0  0  0  0  0  0
  195.3540  175.4400  135.3990 N   0  0  0  0  0  2  0  0  0  0  0  0
  196.5800  174.9060  135.9030 C   0  0  0  0  0  0  0  0  0  0  0  0
  197.0110  173.8150  135.4480 O   0  0  0  0  0  0  0  0  0  0  0  0
  194.8550  176.6260  135.8340 O   0  0  0  0  0  0  0  0  0  0  0  0
  193.1200  174.9910  135.6090 C   0  0  0  0  0  1  0  0  0  0  0  0
  193.4880  176.4040  136.0300 C   0  0  2  0  0  3  0  0  0  0  0  0
  193.3730  178.6250  135.1210 O   0  0  0  0  0  1  0  0  0  0  0  0
  192.6790  177.4220  135.2390 C   0  0  0  0  0  2  0  0  0  0  0  0
  196.4260  172.7320  144.5350 O   0  0  0  0  0  0  0  0  0  0  0  0
  195.2060  172.0460  144.6830 C   0  0  0  0  0  2  0  0  0  0  0  0
  195.6600  170.5130  146.4520 O   0  0  0  0  0  1  0  0  0  0  0  0
  195.4530  170.5980  145.0750 C   0  0  0  0  0  0  0  0  0  0  0  0
  194.3550  169.8150  144.7190 O   0  0  0  0  0  1  0  0  0  0  0  0
  196.6840  170.0900  144.3520 C   0  0  0  0  0  1  0  0  0  0  0  0
  187.7830  173.8510  141.4310 N   0  0  0  0  0  2  0  0  0  0  0  0
  188.5840  174.5340  140.4220 C   0  0  0  0  0  2  0  0  0  0  0  0
  188.5210  173.8050  139.0870 C   0  0  0  0  0  2  0  0  0  0  0  0
  189.3140  171.5790  138.3330 C   0  0  0  0  0  2  0  0  0  0  0  0
  191.7340  171.5650  137.5900 C   0  0  1  0  0  3  0  0  0  0  0  0
  189.7480  172.9350  138.8880 C   0  0  2  0  0  3  0  0  0  0  0  0
  190.9340  169.9000  140.4230 C   0  0  0  0  0  2  0  0  0  0  0  0
  190.5050  170.7060  137.9330 C   0  0  1  0  0  3  0  0  0  0  0  0
  190.7320  169.5570  138.9310 C   0  0  1  0  0  3  0  0  0  0  0  0
  191.9340  171.1830  142.3140 C   0  0  0  0  0  1  0  0  0  0  0  0
  191.6350  168.4540  138.4140 C   0  0  0  0  0  1  0  0  0  0  0  0
  191.8220  172.2560  140.0970 C   0  0  1  0  0  3  0  0  0  0  0  0
  190.4340  172.7700  140.1630 N   0  0  0  0  0  2  0  0  0  0  0  0
  193.6510  171.0440  139.1190 C   0  0  0  0  0  2  0  0  0  0  0  0
  192.0220  170.9420  140.8170 C   0  0  2  0  0  0  0  0  0  0  0  0
  193.4020  170.5630  140.4790 N   0  0  0  0  0  0  0  0  0  0  0  0
  193.6700  169.1310  140.5630 C   0  0  0  0  0  1  0  0  0  0  0  0
  192.5780  172.0820  138.7680 C   0  0  1  0  0  3  0  0  0  0  0  0
  193.5530  170.4990  136.4830 O   0  0  0  0  0  1  0  0  0  0  0  0
  192.4890  171.1620  136.3630 C   0  0  0  0  0  0  0  0  0  0  0  0
  192.0120  171.4740  135.0950 O   0  0  0  0  0  0  0  0  0  0  0  0
  2  1  1  0  0  0  0
  2  8  1  6  0  0  0
  3  4  1  0  0  0  0
  3  7  1  1  0  0  0
  3  5  1  0  0  0  0
  4 47  1  6  0  0  0
  4  5  1  0  0  0  0
  5  6  1  0  0  0  0
  6  1  1  0  0  0  0
  6 14  1  0  0  0  0
  7  2  1  0  0  0  0
  8 11  1  0  0  0  0
  8 10  1  0  0  0  0
  9  8  1  0  0  0  0
 11 13  1  0  0  0  0
 13 12  1  0  0  0  0
 14 15  1  0  0  0  0
 15 16  1  0  0  0  0
 17 14  1  0  0  0  0
 18 17  1  0  0  0  0
 19 18  1  0  0  0  0
 20 21  1  0  0  0  0
 21 19  1  0  0  0  0
 22 20  2  0  0  0  0
 23 24  1  0  0  0  0
 24 28  1  0  0  0  0
 25 27  1  0  0  0  0
 25 23  2  0  0  0  0
 26 28  1  0  0  0  0
 27 20  1  0  0  0  0
 27 26  1  0  0  0  0
 28 41  1  0  0  0  0
 29 25  1  0  0  0  0
 30 31  2  0  0  0  0
 31 29  1  0  0  0  0
 32 31  1  0  0  0  0
 33 36  1  0  0  0  0
 33 34  1  0  0  0  0
 34 32  1  0  0  0  0
 35 34  2  0  0  0  0
 36 38  1  0  0  0  0
 37 38  1  0  0  0  0
 39 40  1  0  0  0  0
 40 38  1  0  0  0  0
 41 42  1  0  0  0  0
 42 44  1  0  0  0  0
 44 43  1  0  0  0  0
 45 44  1  0  0  0  0
 46 44  1  0  0  0  0
 48 47  1  0  0  0  0
 49 48  1  0  0  0  0
 50 52  1  0  0  0  0
 51 54  1  0  0  0  0
 51 64  1  0  0  0  0
 52 49  1  0  0  0  0
 52 59  1  0  0  0  0
 53 61  1  0  0  0  0
 54 50  1  0  0  0  0
 54 55  1  0  0  0  0
 55 53  1  0  0  0  0
 57 55  1  0  0  0  0
 58 59  1  0  0  0  0
 58 61  1  0  0  0  0
 60 62  1  0  0  0  0
 61 56  1  0  0  0  0
 62 63  1  0  0  0  0
 62 61  1  0  0  0  0
 64 60  1  0  0  0  0
 64 58  1  0  0  0  0
 66 65  1  0  0  0  0
 66 51  1  0  0  0  0
 67 66  2  0  0  0  0
M  END
>  <MODEL>
6

>  <REMARK>
 VINA RESULT:      -5.2      2.172      5.585
  Name = 
  24 active torsions:
  status: ('A' for Active; 'I' for Inactive)
    1  A    between atoms: C_4  and  C_8
    2  A    between atoms: N_5  and  O_43
    3  A    between atoms: C_7  and  C_25
    4  A    between atoms: N_9  and  C_15
    5  A    between atoms: N_9  and  C_29
    6  A    between atoms: C_10  and  C_54
    7  A    between atoms: C_11  and  C_20
    8  A    between atoms: C_13  and  C_62
    9  A    between atoms: C_15  and  C_20
   10  A    between atoms: C_16  and  C_66
   11  A    between atoms: C_16  and  C_67
   12  A    between atoms: C_17  and  C_51
   13  A    between atoms: C_17  and  C_60
   14  A    between atoms: C_17  and  C_66
   15  A    between atoms: N_19  and  C_27
   16  A    between atoms: O_22  and  C_39
   17  A    between atoms: O_22  and  C_55
   18  A    between atoms: C_24  and  C_39
   19  A    between atoms: C_25  and  O_49
   20  A    between atoms: N_30  and  C_67
   21  A    between atoms: C_38  and  C_41
   22  A    between atoms: C_38  and  O_43
   23  A    between atoms: O_49  and  C_59
   24  A    between atoms: C_58  and  C_62
                            x       y       z     vdW  Elec       q    Type
                         _______ _______ _______ _____ _____    ______ ____

>  <TORSDO>
F 24

$$$$
=
 OpenBabel11042416593D

 67 72  0  0  1  0  0  0  0  0999 V2000
  188.4530  176.4510  145.0500 O   0  0  0  0  0  0  0  0  0  0  0  0
  188.1120  176.5970  146.4000 C   0  0  2  0  0  3  0  0  0  0  0  0
  189.5940  174.5060  146.6940 C   0  0  2  0  0  3  0  0  0  0  0  0
  190.8440  175.3100  147.0040 C   0  0  2  0  0  3  0  0  0  0  0  0
  190.4120  175.1400  145.5580 C   0  0  2  0  0  3  0  0  0  0  0  0
  189.8570  176.4720  145.0310 C   0  0  1  0  0  3  0  0  0  0  0  0
  188.3230  175.2630  147.1230 C   0  0  0  0  0  2  0  0  0  0  0  0
  186.6690  177.0940  146.5640 C   0  0  0  0  0  0  0  0  0  0  0  0
  186.3410  177.0320  147.9070 F   0  0  0  0  0  0  0  0  0  0  0  0
  185.7860  176.2610  145.8790 F   0  0  0  0  0  0  0  0  0  0  0  0
  186.5630  178.4460  146.1670 O   0  0  0  0  0  0  0  0  0  0  0  0
  185.4650  179.8010  144.5430 C   0  0  0  0  0  1  0  0  0  0  0  0
  185.3290  178.6620  145.5340 C   0  0  0  0  0  2  0  0  0  0  0  0
  190.3800  176.7180  143.6120 C   0  0  2  0  0  3  0  0  0  0  0  0
  191.2310  177.9830  143.5870 C   0  0  0  0  0  2  0  0  0  0  0  0
  192.5770  177.6590  143.7750 O   0  0  0  0  0  1  0  0  0  0  0  0
  189.2440  176.8650  142.6100 C   0  0  0  0  0  2  0  0  0  0  0  0
  189.0590  175.5670  141.8490 C   0  0  0  0  0  2  0  0  0  0  0  0
  190.0630  174.5480  142.3330 C   0  0  0  0  0  2  0  0  0  0  0  0
  192.2910  174.4410  141.1640 C   0  0  0  0  0  0  0  0  0  0  0  0
  190.8960  174.1350  141.2220 N   0  0  0  0  0  2  0  0  0  0  0  0
  192.8190  175.1720  142.0470 O   0  0  0  0  0  0  0  0  0  0  0  0
  193.6540  175.2350  138.1260 C   0  0  0  0  0  3  0  0  0  0  0  0
  194.9850  175.6530  138.6870 C   0  0  0  0  0  2  0  0  0  0  0  0
  192.8340  174.3460  138.7130 C   0  0  0  0  0  0  0  0  0  0  0  0
  194.6100  173.9000  140.4660 C   0  0  0  0  0  2  0  0  0  0  0  0
  193.1300  173.7990  140.0950 C   0  0  1  0  0  3  0  0  0  0  0  0
  195.1190  175.3130  140.1730 C   0  0  1  0  0  3  0  0  0  0  0  0
  191.6030  173.9520  138.0860 N   0  0  0  0  0  2  0  0  0  0  0  0
  192.2560  174.0790  135.8300 O   0  0  0  0  0  0  0  0  0  0  0  0
  191.3520  173.8410  136.6760 C   0  0  0  0  0  0  0  0  0  0  0  0
  190.0030  173.4260  136.1960 C   0  0  0  0  0  2  0  0  0  0  0  0
  189.3440  171.5130  137.7280 N   0  0  0  0  0  2  0  0  0  0  0  0
  189.1730  172.8680  137.3080 C   0  0  0  0  0  0  0  0  0  0  0  0
  188.2820  173.5750  137.8470 O   0  0  0  0  0  0  0  0  0  0  0  0
  190.3060  170.7140  137.2000 O   0  0  0  0  0  0  0  0  0  0  0  0
  192.4730  170.7380  138.2220 C   0  0  0  0  0  1  0  0  0  0  0  0
  191.0380  170.2410  138.2950 C   0  0  2  0  0  3  0  0  0  0  0  0
  191.7890  168.1870  137.3030 O   0  0  0  0  0  1  0  0  0  0  0  0
  191.0040  168.7200  138.3240 C   0  0  0  0  0  2  0  0  0  0  0  0
  196.4110  175.5660  140.6860 O   0  0  0  0  0  0  0  0  0  0  0  0
  196.3650  176.7010  141.5160 C   0  0  0  0  0  2  0  0  0  0  0  0
  197.4010  177.3150  143.5740 O   0  0  0  0  0  1  0  0  0  0  0  0
  196.6420  176.3170  142.9600 C   0  0  0  0  0  0  0  0  0  0  0  0
  195.4400  176.1560  143.6500 O   0  0  0  0  0  1  0  0  0  0  0  0
  197.4130  175.0140  142.9890 C   0  0  0  0  0  1  0  0  0  0  0  0
  191.9570  174.4110  147.2690 N   0  0  0  0  0  2  0  0  0  0  0  0
  192.7540  174.3060  146.0520 C   0  0  0  0  0  2  0  0  0  0  0  0
  192.2470  173.1810  145.1610 C   0  0  0  0  0  2  0  0  0  0  0  0
  194.6140  172.5630  145.5660 C   0  0  0  0  0  2  0  0  0  0  0  0
  194.9620  170.0840  145.9430 C   0  0  1  0  0  3  0  0  0  0  0  0
  193.2550  172.0500  145.0910 C   0  0  2  0  0  3  0  0  0  0  0  0
  196.2000  171.4460  143.1060 C   0  0  0  0  0  2  0  0  0  0  0  0
  195.6450  171.4400  145.7000 C   0  0  1  0  0  3  0  0  0  0  0  0
  196.6890  171.4860  144.5690 C   0  0  1  0  0  3  0  0  0  0  0  0
  194.8170  170.5630  141.2270 C   0  0  0  0  0  1  0  0  0  0  0  0
  197.9320  170.6590  144.8370 C   0  0  0  0  0  1  0  0  0  0  0  0
  194.0000  170.2510  143.5320 C   0  0  1  0  0  3  0  0  0  0  0  0
  193.3420  171.5640  143.7200 N   0  0  0  0  0  2  0  0  0  0  0  0
  195.4990  168.4630  144.1070 C   0  0  0  0  0  2  0  0  0  0  0  0
  195.2370  170.3060  142.6630 C   0  0  2  0  0  0  0  0  0  0  0  0
  195.7920  168.9470  142.7570 N   0  0  0  0  0  0  0  0  0  0  0  0
  197.2250  168.8640  142.4930 C   0  0  0  0  0  1  0  0  0  0  0  0
  194.4030  169.3500  144.7120 C   0  0  1  0  0  3  0  0  0  0  0  0
  194.9390  168.2340  147.4430 O   0  0  0  0  0  0  0  0  0  0  0  0
  195.5790  169.2250  147.0010 C   0  0  0  0  0  0  0  0  0  0  0  0
  196.8610  169.4810  147.4740 O   0  0  0  0  0  1  0  0  0  0  0  0
  1  2  1  0  0  0  0
  2  8  1  6  0  0  0
  2  7  1  0  0  0  0
  3  4  1  0  0  0  0
  3  7  1  1  0  0  0
  4 47  1  6  0  0  0
  5  3  1  0  0  0  0
  5  4  1  0  0  0  0
  6  1  1  0  0  0  0
  6  5  1  0  0  0  0
  8  9  1  0  0  0  0
 10  8  1  0  0  0  0
 11  8  1  0  0  0  0
 12 13  1  0  0  0  0
 13 11  1  0  0  0  0
 14  6  1  0  0  0  0
 15 14  1  0  0  0  0
 15 16  1  0  0  0  0
 17 14  1  0  0  0  0
 18 19  1  0  0  0  0
 18 17  1  0  0  0  0
 20 21  1  0  0  0  0
 20 22  2  0  0  0  0
 21 19  1  0  0  0  0
 23 24  1  0  0  0  0
 23 25  2  0  0  0  0
 24 28  1  0  0  0  0
 25 27  1  0  0  0  0
 27 26  1  0  0  0  0
 27 20  1  0  0  0  0
 28 26  1  0  0  0  0
 28 41  1  0  0  0  0
 29 25  1  0  0  0  0
 30 31  2  0  0  0  0
 31 29  1  0  0  0  0
 32 31  1  0  0  0  0
 32 34  1  0  0  0  0
 34 33  1  0  0  0  0
 34 35  2  0  0  0  0
 36 33  1  0  0  0  0
 36 38  1  0  0  0  0
 37 38  1  0  0  0  0
 38 40  1  0  0  0  0
 39 40  1  0  0  0  0
 41 42  1  0  0  0  0
 42 44  1  0  0  0  0
 44 46  1  0  0  0  0
 44 43  1  0  0  0  0
 44 45  1  0  0  0  0
 48 47  1  0  0  0  0
 49 48  1  0  0  0  0
 50 54  1  0  0  0  0
 51 66  1  0  0  0  0
 52 49  1  0  0  0  0
 52 50  1  0  0  0  0
 53 55  1  0  0  0  0
 54 51  1  0  0  0  0
 55 57  1  0  0  0  0
 55 54  1  0  0  0  0
 56 61  1  0  0  0  0
 58 59  1  0  0  0  0
 58 64  1  0  0  0  0
 59 52  1  0  0  0  0
 60 64  1  0  0  0  0
 61 62  1  0  0  0  0
 61 53  1  0  0  0  0
 61 58  1  0  0  0  0
 62 60  1  0  0  0  0
 63 62  1  0  0  0  0
 64 51  1  0  0  0  0
 66 65  2  0  0  0  0
 66 67  1  0  0  0  0
M  END
>  <MODEL>
7

>  <REMARK>
 VINA RESULT:      -5.1      2.197      5.033
  Name = 
  24 active torsions:
  status: ('A' for Active; 'I' for Inactive)
    1  A    between atoms: C_4  and  C_8
    2  A    between atoms: N_5  and  O_43
    3  A    between atoms: C_7  and  C_25
    4  A    between atoms: N_9  and  C_15
    5  A    between atoms: N_9  and  C_29
    6  A    between atoms: C_10  and  C_54
    7  A    between atoms: C_11  and  C_20
    8  A    between atoms: C_13  and  C_62
    9  A    between atoms: C_15  and  C_20
   10  A    between atoms: C_16  and  C_66
   11  A    between atoms: C_16  and  C_67
   12  A    between atoms: C_17  and  C_51
   13  A    between atoms: C_17  and  C_60
   14  A    between atoms: C_17  and  C_66
   15  A    between atoms: N_19  and  C_27
   16  A    between atoms: O_22  and  C_39
   17  A    between atoms: O_22  and  C_55
   18  A    between atoms: C_24  and  C_39
   19  A    between atoms: C_25  and  O_49
   20  A    between atoms: N_30  and  C_67
   21  A    between atoms: C_38  and  C_41
   22  A    between atoms: C_38  and  O_43
   23  A    between atoms: O_49  and  C_59
   24  A    between atoms: C_58  and  C_62
                            x       y       z     vdW  Elec       q    Type
                         _______ _______ _______ _____ _____    ______ ____

>  <TORSDO>
F 24

$$$$
=
 OpenBabel11042416593D

 67 72  0  0  1  0  0  0  0  0999 V2000
  188.8220  174.7340  141.6560 O   0  0  0  0  0  0  0  0  0  0  0  0
  189.2250  176.0750  141.6600 C   0  0  2  0  0  3  0  0  0  0  0  0
  191.4450  175.0960  142.5370 C   0  0  2  0  0  3  0  0  0  0  0  0
  192.0650  174.9950  141.1550 C   0  0  2  0  0  3  0  0  0  0  0  0
  191.0920  173.9220  141.6110 C   0  0  2  0  0  3  0  0  0  0  0  0
  189.7660  174.0790  140.8500 C   0  0  1  0  0  3  0  0  0  0  0  0
  190.4180  176.2420  142.6060 C   0  0  0  0  0  2  0  0  0  0  0  0
  188.0710  177.0080  142.0540 C   0  0  0  0  0  0  0  0  0  0  0  0
  188.5130  177.8390  143.0680 F   0  0  0  0  0  0  0  0  0  0  0  0
  186.9980  176.2720  142.5540 F   0  0  0  0  0  0  0  0  0  0  0  0
  187.7070  177.8310  140.9640 O   0  0  0  0  0  0  0  0  0  0  0  0
  185.4050  178.2450  140.5080 C   0  0  0  0  0  1  0  0  0  0  0  0
  186.5760  177.3010  140.3230 C   0  0  0  0  0  2  0  0  0  0  0  0
  189.2550  172.6980  140.4230 C   0  0  2  0  0  3  0  0  0  0  0  0
  188.1910  172.8530  139.3440 C   0  0  0  0  0  2  0  0  0  0  0  0
  188.4950  173.9410  138.5220 O   0  0  0  0  0  1  0  0  0  0  0  0
  188.6650  171.9290  141.5960 C   0  0  0  0  0  2  0  0  0  0  0  0
  188.6970  172.7890  142.8440 C   0  0  0  0  0  2  0  0  0  0  0  0
  189.3010  172.0040  143.9840 C   0  0  0  0  0  2  0  0  0  0  0  0
  190.5080  173.5090  145.6020 C   0  0  0  0  0  0  0  0  0  0  0  0
  189.3250  172.8330  145.1720 N   0  0  0  0  0  2  0  0  0  0  0  0
  191.6020  173.3220  145.0020 O   0  0  0  0  0  0  0  0  0  0  0  0
  190.8760  176.8800  146.0780 C   0  0  0  0  0  3  0  0  0  0  0  0
  189.4200  177.1980  145.8770 C   0  0  0  0  0  2  0  0  0  0  0  0
  191.3350  175.6970  146.5220 C   0  0  0  0  0  0  0  0  0  0  0  0
  188.9460  174.9370  146.8980 C   0  0  0  0  0  2  0  0  0  0  0  0
  190.4040  174.5160  146.7140 C   0  0  1  0  0  3  0  0  0  0  0  0
  188.5570  175.9360  145.8060 C   0  0  1  0  0  3  0  0  0  0  0  0
  192.7380  175.4870  146.7450 N   0  0  0  0  0  2  0  0  0  0  0  0
  193.5550  175.9930  144.5980 O   0  0  0  0  0  0  0  0  0  0  0  0
  193.7940  175.6320  145.7830 C   0  0  0  0  0  0  0  0  0  0  0  0
  195.2040  175.3620  146.1850 C   0  0  0  0  0  2  0  0  0  0  0  0
  196.3040  173.5250  144.8230 N   0  0  0  0  0  2  0  0  0  0  0  0
  196.0300  174.9130  145.0220 C   0  0  0  0  0  0  0  0  0  0  0  0
  196.5310  175.7600  144.2380 O   0  0  0  0  0  0  0  0  0  0  0  0
  195.7690  172.5660  145.6220 O   0  0  0  0  0  0  0  0  0  0  0  0
  197.6750  171.5130  144.6250 C   0  0  0  0  0  1  0  0  0  0  0  0
  196.8090  171.6620  145.8640 C   0  0  2  0  0  3  0  0  0  0  0  0
  194.8950  170.2110  145.9170 O   0  0  0  0  0  1  0  0  0  0  0  0
  196.2380  170.3130  146.2780 C   0  0  0  0  0  2  0  0  0  0  0  0
  187.1720  176.2130  145.7610 O   0  0  0  0  0  0  0  0  0  0  0  0
  186.8980  177.3320  146.5700 C   0  0  0  0  0  2  0  0  0  0  0  0
  185.9120  179.4650  146.1640 O   0  0  0  0  0  1  0  0  0  0  0  0
  185.6940  178.0920  146.0370 C   0  0  0  0  0  0  0  0  0  0  0  0
  185.4870  177.7750  144.6940 O   0  0  0  0  0  1  0  0  0  0  0  0
  184.4670  177.7050  146.8370 C   0  0  0  0  0  1  0  0  0  0  0  0
  193.4190  174.4730  141.2580 N   0  0  0  0  0  2  0  0  0  0  0  0
  194.3080  175.3740  140.5330 C   0  0  0  0  0  2  0  0  0  0  0  0
  195.0250  174.6460  139.4050 C   0  0  0  0  0  2  0  0  0  0  0  0
  194.9180  172.7400  137.8210 C   0  0  0  0  0  2  0  0  0  0  0  0
  192.8740  171.2800  138.1320 C   0  0  1  0  0  3  0  0  0  0  0  0
  194.0960  173.6590  138.7230 C   0  0  2  0  0  3  0  0  0  0  0  0
  193.0920  173.1240  135.3050 C   0  0  0  0  0  2  0  0  0  0  0  0
  194.0830  171.6000  137.2370 C   0  0  1  0  0  3  0  0  0  0  0  0
  193.7870  171.8160  135.7420 C   0  0  1  0  0  3  0  0  0  0  0  0
  191.3560  174.9070  135.4800 C   0  0  0  0  0  1  0  0  0  0  0  0
  193.2990  170.5760  135.0180 C   0  0  0  0  0  1  0  0  0  0  0  0
  191.9200  173.6170  137.5040 C   0  0  1  0  0  3  0  0  0  0  0  0
  193.1050  174.3900  137.9430 N   0  0  0  0  0  2  0  0  0  0  0  0
  190.7210  171.6260  136.8950 C   0  0  0  0  0  2  0  0  0  0  0  0
  191.7630  173.5400  136.0010 C   0  0  2  0  0  0  0  0  0  0  0  0
  190.6400  172.6090  135.8130 N   0  0  0  0  0  0  0  0  0  0  0  0
  190.6300  171.9340  134.5200 C   0  0  0  0  0  1  0  0  0  0  0  0
  191.6380  172.1840  137.9900 C   0  0  1  0  0  3  0  0  0  0  0  0
  191.4150  169.4250  138.4570 O   0  0  0  0  0  1  0  0  0  0  0  0
  192.6060  169.8270  138.3690 C   0  0  0  0  0  0  0  0  0  0  0  0
  193.6480  168.9110  138.4550 O   0  0  0  0  0  0  0  0  0  0  0  0
  1  2  1  0  0  0  0
  2  8  1  1  0  0  0
  2  7  1  0  0  0  0
  3  7  1  6  0  0  0
  4 47  1  1  0  0  0
  4  5  1  0  0  0  0
  4  3  1  0  0  0  0
  5  3  1  0  0  0  0
  6  5  1  0  0  0  0
  6  1  1  0  0  0  0
  8 10  1  0  0  0  0
  8  9  1  0  0  0  0
 11  8  1  0  0  0  0
 13 12  1  0  0  0  0
 13 11  1  0  0  0  0
 14  6  1  0  0  0  0
 14 17  1  0  0  0  0
 15 14  1  0  0  0  0
 16 15  1  0  0  0  0
 17 18  1  0  0  0  0
 18 19  1  0  0  0  0
 19 21  1  0  0  0  0
 20 27  1  0  0  0  0
 21 20  1  0  0  0  0
 22 20  2  0  0  0  0
 23 25  2  0  0  0  0
 24 23  1  0  0  0  0
 25 27  1  0  0  0  0
 25 29  1  0  0  0  0
 27 26  1  0  0  0  0
 28 24  1  0  0  0  0
 28 26  1  0  0  0  0
 30 31  2  0  0  0  0
 31 32  1  0  0  0  0
 31 29  1  0  0  0  0
 33 34  1  0  0  0  0
 33 36  1  0  0  0  0
 34 32  1  0  0  0  0
 35 34  2  0  0  0  0
 36 38  1  0  0  0  0
 37 38  1  0  0  0  0
 38 40  1  0  0  0  0
 39 40  1  0  0  0  0
 41 28  1  0  0  0  0
 41 42  1  0  0  0  0
 44 43  1  0  0  0  0
 44 42  1  0  0  0  0
 44 46  1  0  0  0  0
 45 44  1  0  0  0  0
 48 47  1  0  0  0  0
 49 48  1  0  0  0  0
 50 52  1  0  0  0  0
 51 66  1  0  0  0  0
 52 49  1  0  0  0  0
 53 55  1  0  0  0  0
 53 61  1  0  0  0  0
 54 50  1  0  0  0  0
 54 51  1  0  0  0  0
 55 54  1  0  0  0  0
 56 61  1  0  0  0  0
 57 55  1  0  0  0  0
 58 59  1  0  0  0  0
 58 64  1  0  0  0  0
 59 52  1  0  0  0  0
 60 64  1  0  0  0  0
 61 58  1  0  0  0  0
 62 61  1  0  0  0  0
 62 60  1  0  0  0  0
 63 62  1  0  0  0  0
 64 51  1  0  0  0  0
 66 67  2  0  0  0  0
 66 65  1  0  0  0  0
M  END
>  <MODEL>
8

>  <REMARK>
 VINA RESULT:      -4.9      2.581      8.167
  Name = 
  24 active torsions:
  status: ('A' for Active; 'I' for Inactive)
    1  A    between atoms: C_4  and  C_8
    2  A    between atoms: N_5  and  O_43
    3  A    between atoms: C_7  and  C_25
    4  A    between atoms: N_9  and  C_15
    5  A    between atoms: N_9  and  C_29
    6  A    between atoms: C_10  and  C_54
    7  A    between atoms: C_11  and  C_20
    8  A    between atoms: C_13  and  C_62
    9  A    between atoms: C_15  and  C_20
   10  A    between atoms: C_16  and  C_66
   11  A    between atoms: C_16  and  C_67
   12  A    between atoms: C_17  and  C_51
   13  A    between atoms: C_17  and  C_60
   14  A    between atoms: C_17  and  C_66
   15  A    between atoms: N_19  and  C_27
   16  A    between atoms: O_22  and  C_39
   17  A    between atoms: O_22  and  C_55
   18  A    between atoms: C_24  and  C_39
   19  A    between atoms: C_25  and  O_49
   20  A    between atoms: N_30  and  C_67
   21  A    between atoms: C_38  and  C_41
   22  A    between atoms: C_38  and  O_43
   23  A    between atoms: O_49  and  C_59
   24  A    between atoms: C_58  and  C_62
                            x       y       z     vdW  Elec       q    Type
                         _______ _______ _______ _____ _____    ______ ____

>  <TORSDO>
F 24

$$$$
=
 OpenBabel11042416593D

 67 72  0  0  1  0  0  0  0  0999 V2000
  188.8960  174.8490  141.9070 O   0  0  0  0  0  0  0  0  0  0  0  0
  189.3240  176.1820  141.8860 C   0  0  2  0  0  3  0  0  0  0  0  0
  191.5730  175.1610  142.6340 C   0  0  2  0  0  3  0  0  0  0  0  0
  192.1090  175.0480  141.2190 C   0  0  2  0  0  3  0  0  0  0  0  0
  191.1440  173.9930  141.7320 C   0  0  2  0  0  3  0  0  0  0  0  0
  189.7800  174.1750  141.0490 C   0  0  1  0  0  3  0  0  0  0  0  0
  190.5740  176.3270  142.7610 C   0  0  0  0  0  2  0  0  0  0  0  0
  188.2130  177.1360  142.3440 C   0  0  0  0  0  0  0  0  0  0  0  0
  188.7450  177.9990  143.2860 F   0  0  0  0  0  0  0  0  0  0  0  0
  187.1840  176.4260  142.9610 F   0  0  0  0  0  0  0  0  0  0  0  0
  187.7590  177.9240  141.2610 O   0  0  0  0  0  0  0  0  0  0  0  0
  185.7490  177.5710  140.0310 C   0  0  0  0  0  1  0  0  0  0  0  0
  186.3640  178.0650  141.3250 C   0  0  0  0  0  2  0  0  0  0  0  0
  189.2190  172.8040  140.6550 C   0  0  2  0  0  3  0  0  0  0  0  0
  188.2990  172.9500  139.4490 C   0  0  0  0  0  2  0  0  0  0  0  0
  188.6010  174.1240  138.7540 O   0  0  0  0  0  1  0  0  0  0  0  0
  188.4430  172.1630  141.7970 C   0  0  0  0  0  2  0  0  0  0  0  0
  188.6410  172.9660  143.0670 C   0  0  0  0  0  2  0  0  0  0  0  0
  189.3300  172.1110  144.1040 C   0  0  0  0  0  2  0  0  0  0  0  0
  190.7480  173.5230  145.6330 C   0  0  0  0  0  0  0  0  0  0  0  0
  189.5090  172.8840  145.3160 N   0  0  0  0  0  2  0  0  0  0  0  0
  191.7600  173.3460  144.9000 O   0  0  0  0  0  0  0  0  0  0  0  0
  191.2120  176.8660  146.2060 C   0  0  0  0  0  3  0  0  0  0  0  0
  189.7460  177.2020  146.2030 C   0  0  0  0  0  2  0  0  0  0  0  0
  191.7080  175.6610  146.5380 C   0  0  0  0  0  0  0  0  0  0  0  0
  189.3750  174.9010  147.1750 C   0  0  0  0  0  2  0  0  0  0  0  0
  190.7950  174.4790  146.7920 C   0  0  1  0  0  3  0  0  0  0  0  0
  188.8660  175.9500  146.1850 C   0  0  1  0  0  3  0  0  0  0  0  0
  193.1260  175.4330  146.5750 N   0  0  0  0  0  2  0  0  0  0  0  0
  193.7170  176.3090  144.4740 O   0  0  0  0  0  0  0  0  0  0  0  0
  194.0760  175.7530  145.5470 C   0  0  0  0  0  0  0  0  0  0  0  0
  195.5190  175.4350  145.7490 C   0  0  0  0  0  2  0  0  0  0  0  0
  196.6410  174.1040  143.9020 N   0  0  0  0  0  2  0  0  0  0  0  0
  196.2530  175.3660  144.4480 C   0  0  0  0  0  0  0  0  0  0  0  0
  196.5780  176.4250  143.8500 O   0  0  0  0  0  0  0  0  0  0  0  0
  196.2950  172.9310  144.4910 O   0  0  0  0  0  0  0  0  0  0  0  0
  194.4340  171.4370  144.2890 C   0  0  0  0  0  1  0  0  0  0  0  0
  195.4710  172.2810  143.5660 C   0  0  2  0  0  3  0  0  0  0  0  0
  197.4920  171.0170  143.2710 O   0  0  0  0  0  1  0  0  0  0  0  0
  196.3120  171.4110  142.6430 C   0  0  0  0  0  2  0  0  0  0  0  0
  187.4890  176.2370  146.3250 O   0  0  0  0  0  0  0  0  0  0  0  0
  187.3000  177.6310  146.2750 C   0  0  0  0  0  2  0  0  0  0  0  0
  185.0740  176.8040  146.4840 O   0  0  0  0  0  1  0  0  0  0  0  0
  185.8190  177.9690  146.2990 C   0  0  0  0  0  0  0  0  0  0  0  0
  185.5500  178.8630  147.3360 O   0  0  0  0  0  1  0  0  0  0  0  0
  185.4320  178.6050  144.9790 C   0  0  0  0  0  1  0  0  0  0  0  0
  193.4570  174.5000  141.2440 N   0  0  0  0  0  2  0  0  0  0  0  0
  193.9850  174.5350  139.8850 C   0  0  0  0  0  2  0  0  0  0  0  0
  194.5390  173.1760  139.4780 C   0  0  0  0  0  2  0  0  0  0  0  0
  192.4270  171.9290  139.1100 C   0  0  0  0  0  2  0  0  0  0  0  0
  191.5200  172.1470  136.7560 C   0  0  1  0  0  3  0  0  0  0  0  0
  193.6560  172.5270  138.4280 C   0  0  2  0  0  3  0  0  0  0  0  0
  192.6880  169.1270  137.7340 C   0  0  0  0  0  2  0  0  0  0  0  0
  191.3960  171.4140  138.1030 C   0  0  1  0  0  3  0  0  0  0  0  0
  191.3740  169.8760  138.0440 C   0  0  1  0  0  3  0  0  0  0  0  0
  194.7960  168.7300  136.4620 C   0  0  0  0  0  1  0  0  0  0  0  0
  190.1480  169.2980  137.3650 C   0  0  0  0  0  1  0  0  0  0  0  0
  193.8370  171.0010  136.4630 C   0  0  1  0  0  3  0  0  0  0  0  0
  194.4130  171.4900  137.7370 N   0  0  0  0  0  2  0  0  0  0  0  0
  192.0650  170.5440  134.9070 C   0  0  0  0  0  2  0  0  0  0  0  0
  193.5040  169.5260  136.4690 C   0  0  2  0  0  0  0  0  0  0  0  0
  192.8120  169.3170  135.1880 N   0  0  0  0  0  0  0  0  0  0  0  0
  191.9150  168.1670  135.1700 C   0  0  0  0  0  1  0  0  0  0  0  0
  192.6200  171.6640  135.7950 C   0  0  1  0  0  3  0  0  0  0  0  0
  189.2160  171.8390  136.2410 O   0  0  0  0  0  1  0  0  0  0  0  0
  190.2320  172.5730  136.1260 C   0  0  0  0  0  0  0  0  0  0  0  0
  190.1320  173.7840  135.4510 O   0  0  0  0  0  0  0  0  0  0  0  0
  2  1  1  0  0  0  0
  2  8  1  1  0  0  0
  2  7  1  0  0  0  0
  3  7  1  6  0  0  0
  4 47  1  1  0  0  0
  4  5  1  0  0  0  0
  4  3  1  0  0  0  0
  5  3  1  0  0  0  0
  6  5  1  0  0  0  0
  6  1  1  0  0  0  0
  8 10  1  0  0  0  0
  8  9  1  0  0  0  0
 11 13  1  0  0  0  0
 11  8  1  0  0  0  0
 12 13  1  0  0  0  0
 14  6  1  0  0  0  0
 14 17  1  0  0  0  0
 15 14  1  0  0  0  0
 16 15  1  0  0  0  0
 17 18  1  0  0  0  0
 18 19  1  0  0  0  0
 19 21  1  0  0  0  0
 20 27  1  0  0  0  0
 21 20  1  0  0  0  0
 22 20  2  0  0  0  0
 23 25  2  0  0  0  0
 24 23  1  0  0  0  0
 25 29  1  0  0  0  0
 25 27  1  0  0  0  0
 27 26  1  0  0  0  0
 28 24  1  0  0  0  0
 28 41  1  0  0  0  0
 28 26  1  0  0  0  0
 30 31  2  0  0  0  0
 31 32  1  0  0  0  0
 31 29  1  0  0  0  0
 33 34  1  0  0  0  0
 33 36  1  0  0  0  0
 34 32  1  0  0  0  0
 35 34  2  0  0  0  0
 38 37  1  0  0  0  0
 38 36  1  0  0  0  0
 40 39  1  0  0  0  0
 40 38  1  0  0  0  0
 42 44  1  0  0  0  0
 42 41  1  0  0  0  0
 44 43  1  0  0  0  0
 44 45  1  0  0  0  0
 46 44  1  0  0  0  0
 48 47  1  0  0  0  0
 49 48  1  0  0  0  0
 51 54  1  0  0  0  0
 52 50  1  0  0  0  0
 52 49  1  0  0  0  0
 53 55  1  0  0  0  0
 54 50  1  0  0  0  0
 55 54  1  0  0  0  0
 56 61  1  0  0  0  0
 57 55  1  0  0  0  0
 58 61  1  0  0  0  0
 58 59  1  0  0  0  0
 59 52  1  0  0  0  0
 60 62  1  0  0  0  0
 60 64  1  0  0  0  0
 61 53  1  0  0  0  0
 62 61  1  0  0  0  0
 63 62  1  0  0  0  0
 64 58  1  0  0  0  0
 64 51  1  0  0  0  0
 66 65  1  0  0  0  0
 66 51  1  0  0  0  0
 67 66  2  0  0  0  0
M  END
>  <MODEL>
9

>  <REMARK>
 VINA RESULT:      -4.8      2.522      7.966
  Name = 
  24 active torsions:
  status: ('A' for Active; 'I' for Inactive)
    1  A    between atoms: C_4  and  C_8
    2  A    between atoms: N_5  and  O_43
    3  A    between atoms: C_7  and  C_25
    4  A    between atoms: N_9  and  C_15
    5  A    between atoms: N_9  and  C_29
    6  A    between atoms: C_10  and  C_54
    7  A    between atoms: C_11  and  C_20
    8  A    between atoms: C_13  and  C_62
    9  A    between atoms: C_15  and  C_20
   10  A    between atoms: C_16  and  C_66
   11  A    between atoms: C_16  and  C_67
   12  A    between atoms: C_17  and  C_51
   13  A    between atoms: C_17  and  C_60
   14  A    between atoms: C_17  and  C_66
   15  A    between atoms: N_19  and  C_27
   16  A    between atoms: O_22  and  C_39
   17  A    between atoms: O_22  and  C_55
   18  A    between atoms: C_24  and  C_39
   19  A    between atoms: C_25  and  O_49
   20  A    between atoms: N_30  and  C_67
   21  A    between atoms: C_38  and  C_41
   22  A    between atoms: C_38  and  O_43
   23  A    between atoms: O_49  and  C_59
   24  A    between atoms: C_58  and  C_62
                            x       y       z     vdW  Elec       q    Type
                         _______ _______ _______ _____ _____    ______ ____

>  <TORSDO>
F 24

$$$$
