=
 OpenBabel11042416513D

 29 32  0  0  1  0  0  0  0  0999 V2000
  191.7480  177.1050  148.4090 C   0  0  0  0  0  1  0  0  0  0  0  0
  189.5060  176.5380  144.5950 C   0  0  2  0  0  3  0  0  0  0  0  0
  190.7060  176.3360  147.6210 C   0  0  2  0  0  3  0  0  0  0  0  0
  191.3930  175.3490  146.6630 C   0  0  0  0  0  2  0  0  0  0  0  0
  191.0120  176.6080  144.4870 C   0  0  0  0  0  0  0  0  0  0  0  0
  188.9490  176.5430  146.0280 C   0  0  1  0  0  3  0  0  0  0  0  0
  191.5020  177.1920  143.4830 O   0  0  0  0  0  0  0  0  0  0  0  0
  193.3290  176.0080  145.2410 C   0  0  0  0  0  1  0  0  0  0  0  0
  189.8220  177.2820  146.9350 N   0  0  0  0  0  2  0  0  0  0  0  0
  191.8920  176.0130  145.4630 N   0  0  0  0  0  0  0  0  0  0  0  0
  187.5580  177.0900  146.0690 C   0  0  0  0  0  0  0  0  0  0  0  0
  185.5210  177.6520  147.3250 C   0  0  0  0  0  3  0  0  0  0  0  0
  184.8780  178.7090  144.0490 C   0  0  0  0  0  0  0  0  0  0  0  0
  186.8210  177.1130  147.2820 C   0  0  0  0  0  3  0  0  0  0  0  0
  183.7900  178.7120  145.9380 N   0  0  0  0  0  2  0  0  0  0  0  0
  185.0000  178.1570  146.1380 C   0  0  0  0  0  0  0  0  0  0  0  0
  183.7160  179.0520  144.6530 N   0  0  0  0  0  0  0  0  0  0  0  0
  185.7100  178.1350  144.9720 C   0  0  0  0  0  0  0  0  0  0  0  0
  186.9980  177.6150  144.8890 C   0  0  0  0  0  3  0  0  0  0  0  0
  184.3850  178.3100  141.6800 C   0  0  0  0  0  1  0  0  0  0  0  0
  185.1690  178.9090  142.7010 O   0  0  0  0  0  0  0  0  0  0  0  0
  189.0330  175.4230  143.8980 O   0  0  0  0  0  0  0  0  0  0  0  0
  189.1040  175.7880  142.5460 C   0  0  2  0  0  3  0  0  0  0  0  0
  188.5740  173.4260  142.3340 O   0  0  0  0  0  1  0  0  0  0  0  0
  186.6890  175.2370  142.6940 O   0  0  0  0  0  1  0  0  0  0  0  0
  187.7510  175.6440  141.8760 C   0  0  2  0  0  0  0  0  0  0  0  0
  188.8210  174.5990  141.6100 C   0  0  1  0  0  3  0  0  0  0  0  0
  187.4560  176.6020  140.7370 C   0  0  0  0  0  2  0  0  0  0  0  0
  187.9600  177.9910  141.0770 C   0  0  0  0  0  1  0  0  0  0  0  0
  2 22  1  1  0  0  0
  2  6  1  0  0  0  0
  3  1  1  6  0  0  0
  4  3  1  0  0  0  0
  5  2  1  0  0  0  0
  5 10  1  0  0  0  0
  6 11  1  6  0  0  0
  6  9  1  0  0  0  0
  7  5  2  0  0  0  0
  8 10  1  0  0  0  0
  9  3  1  0  0  0  0
 10  4  1  0  0  0  0
 11 14  1  0  0  0  0
 13 17  2  0  0  0  0
 13 18  1  0  0  0  0
 14 12  2  0  0  0  0
 15 16  1  0  0  0  0
 16 12  1  0  0  0  0
 17 15  1  0  0  0  0
 18 16  2  0  0  0  0
 19 18  1  0  0  0  0
 19 11  2  0  0  0  0
 20 21  1  0  0  0  0
 21 13  1  0  0  0  0
 23 22  1  1  0  0  0
 26 23  1  0  0  0  0
 26 25  1  1  0  0  0
 27 26  1  0  0  0  0
 27 24  1  1  0  0  0
 27 23  1  0  0  0  0
 28 29  1  0  0  0  0
 28 26  1  0  0  0  0
M  END
>  <MODEL>
1

>  <REMARK>
 VINA RESULT:      -7.6      0.000      0.000
  Name = 
  5 active torsions:
  status: ('A' for Active; 'I' for Inactive)
    1  A    between atoms: C_1  and  C_11
    2  A    between atoms: C_2  and  C_20
    3  A    between atoms: C_5  and  O_26
    4  A    between atoms: C_8  and  O_19
    5  A    between atoms: C_10  and  O_26
                            x       y       z     vdW  Elec       q    Type
                         _______ _______ _______ _____ _____    ______ ____

>  <TORSDO>
F 5

$$$$
=
 OpenBabel11042416513D

 29 32  0  0  1  0  0  0  0  0999 V2000
  188.2000  172.7730  139.4030 C   0  0  0  0  0  1  0  0  0  0  0  0
  189.6130  174.6760  143.1820 C   0  0  2  0  0  3  0  0  0  0  0  0
  188.9020  173.9300  140.0870 C   0  0  2  0  0  3  0  0  0  0  0  0
  190.3380  173.5270  140.4600 C   0  0  0  0  0  2  0  0  0  0  0  0
  190.0090  173.2330  142.9640 C   0  0  0  0  0  0  0  0  0  0  0  0
  188.8810  175.3400  142.0050 C   0  0  1  0  0  3  0  0  0  0  0  0
  190.0370  172.4740  143.9710 O   0  0  0  0  0  0  0  0  0  0  0  0
  190.8660  171.3470  141.5470 C   0  0  0  0  0  1  0  0  0  0  0  0
  188.1090  174.3640  141.2400 N   0  0  0  0  0  2  0  0  0  0  0  0
  190.3780  172.7120  141.6710 N   0  0  0  0  0  0  0  0  0  0  0  0
  188.0040  176.4590  142.4710 C   0  0  0  0  0  0  0  0  0  0  0  0
  186.9220  178.6310  142.0770 C   0  0  0  0  0  3  0  0  0  0  0  0
  185.8190  177.6390  145.2490 C   0  0  0  0  0  0  0  0  0  0  0  0
  187.7690  177.5910  141.6470 C   0  0  0  0  0  3  0  0  0  0  0  0
  185.5000  179.3580  143.9450 N   0  0  0  0  0  2  0  0  0  0  0  0
  186.3330  178.4980  143.3300 C   0  0  0  0  0  0  0  0  0  0  0  0
  185.1840  178.8290  145.1250 N   0  0  0  0  0  0  0  0  0  0  0  0
  186.5590  177.4080  144.1200 C   0  0  0  0  0  0  0  0  0  0  0  0
  187.3850  176.3580  143.7320 C   0  0  0  0  0  3  0  0  0  0  0  0
  186.0180  177.2630  147.6640 C   0  0  0  0  0  1  0  0  0  0  0  0
  185.7310  176.7960  146.3540 O   0  0  0  0  0  0  0  0  0  0  0  0
  190.7380  175.4270  143.5340 O   0  0  0  0  0  0  0  0  0  0  0  0
  190.7580  175.4050  144.9360 C   0  0  2  0  0  3  0  0  0  0  0  0
  192.7580  176.7110  144.4900 O   0  0  0  0  0  1  0  0  0  0  0  0
  190.3700  177.8290  144.5720 O   0  0  0  0  0  1  0  0  0  0  0  0
  190.5730  176.8000  145.5020 C   0  0  2  0  0  0  0  0  0  0  0  0
  191.9590  176.1790  145.5090 C   0  0  1  0  0  3  0  0  0  0  0  0
  189.8770  176.8980  146.8460 C   0  0  0  0  0  2  0  0  0  0  0  0
  189.2430  175.5680  147.2060 C   0  0  0  0  0  1  0  0  0  0  0  0
  2 22  1  6  0  0  0
  3  1  1  1  0  0  0
  3  4  1  0  0  0  0
  3  9  1  0  0  0  0
  4 10  1  0  0  0  0
  5  2  1  0  0  0  0
  5  7  2  0  0  0  0
  6 11  1  1  0  0  0
  6  2  1  0  0  0  0
  8 10  1  0  0  0  0
  9  6  1  0  0  0  0
 10  5  1  0  0  0  0
 11 19  1  0  0  0  0
 12 16  2  0  0  0  0
 13 21  1  0  0  0  0
 14 12  1  0  0  0  0
 14 11  2  0  0  0  0
 15 17  1  0  0  0  0
 16 15  1  0  0  0  0
 16 18  1  0  0  0  0
 17 13  2  0  0  0  0
 18 13  1  0  0  0  0
 19 18  2  0  0  0  0
 21 20  1  0  0  0  0
 23 22  1  6  0  0  0
 23 26  1  0  0  0  0
 23 27  1  0  0  0  0
 26 25  1  6  0  0  0
 26 27  1  0  0  0  0
 26 28  1  0  0  0  0
 27 24  1  6  0  0  0
 28 29  1  0  0  0  0
M  END
>  <MODEL>
2

>  <REMARK>
 VINA RESULT:      -7.3      2.340      5.139
  Name = 
  5 active torsions:
  status: ('A' for Active; 'I' for Inactive)
    1  A    between atoms: C_1  and  C_11
    2  A    between atoms: C_2  and  C_20
    3  A    between atoms: C_5  and  O_26
    4  A    between atoms: C_8  and  O_19
    5  A    between atoms: C_10  and  O_26
                            x       y       z     vdW  Elec       q    Type
                         _______ _______ _______ _____ _____    ______ ____

>  <TORSDO>
F 5

$$$$
=
 OpenBabel11042416513D

 29 32  0  0  1  0  0  0  0  0999 V2000
  191.6710  176.7930  148.2600 C   0  0  0  0  0  1  0  0  0  0  0  0
  189.8140  177.2920  144.2350 C   0  0  2  0  0  3  0  0  0  0  0  0
  190.7590  176.2500  147.1780 C   0  0  2  0  0  3  0  0  0  0  0  0
  191.5970  175.6250  146.0500 C   0  0  0  0  0  2  0  0  0  0  0  0
  191.3140  177.4570  144.3110 C   0  0  0  0  0  0  0  0  0  0  0  0
  189.1370  176.8440  145.5410 C   0  0  1  0  0  3  0  0  0  0  0  0
  191.8450  178.3360  143.5780 O   0  0  0  0  0  0  0  0  0  0  0  0
  193.5960  176.7640  145.0930 C   0  0  0  0  0  1  0  0  0  0  0  0
  189.8710  177.3170  146.7110 N   0  0  0  0  0  2  0  0  0  0  0  0
  192.1480  176.6380  145.1550 N   0  0  0  0  0  0  0  0  0  0  0  0
  187.7100  177.2910  145.5960 C   0  0  0  0  0  0  0  0  0  0  0  0
  185.6420  177.6820  146.8650 C   0  0  0  0  0  3  0  0  0  0  0  0
  184.9180  178.7610  143.6130 C   0  0  0  0  0  0  0  0  0  0  0  0
  186.9760  177.2360  146.8090 C   0  0  0  0  0  3  0  0  0  0  0  0
  183.8370  178.6460  145.5030 N   0  0  0  0  0  2  0  0  0  0  0  0
  185.0830  178.1740  145.6900 C   0  0  0  0  0  0  0  0  0  0  0  0
  183.7360  179.0080  144.2260 N   0  0  0  0  0  0  0  0  0  0  0  0
  185.7910  178.2270  144.5230 C   0  0  0  0  0  0  0  0  0  0  0  0
  187.1120  177.8000  144.4270 C   0  0  0  0  0  3  0  0  0  0  0  0
  184.5830  178.2450  141.2390 C   0  0  0  0  0  1  0  0  0  0  0  0
  185.1910  179.0090  142.2700 O   0  0  0  0  0  0  0  0  0  0  0  0
  189.4850  176.4150  143.1970 O   0  0  0  0  0  0  0  0  0  0  0  0
  189.4270  175.1510  143.8010 C   0  0  2  0  0  3  0  0  0  0  0  0
  188.1570  174.7270  141.7740 O   0  0  0  0  0  1  0  0  0  0  0  0
  190.7910  174.5890  141.8060 O   0  0  0  0  0  1  0  0  0  0  0  0
  190.1600  174.1190  142.9660 C   0  0  2  0  0  0  0  0  0  0  0  0
  188.6410  174.1390  142.9480 C   0  0  1  0  0  3  0  0  0  0  0  0
  190.8050  172.9730  143.7210 C   0  0  0  0  0  2  0  0  0  0  0  0
  189.7860  172.2970  144.6180 C   0  0  0  0  0  1  0  0  0  0  0  0
  2 22  1  6  0  0  0
  2  5  1  0  0  0  0
  2  6  1  0  0  0  0
  3  1  1  1  0  0  0
  4  3  1  0  0  0  0
  5 10  1  0  0  0  0
  6 11  1  1  0  0  0
  6  9  1  0  0  0  0
  7  5  2  0  0  0  0
  8 10  1  0  0  0  0
  9  3  1  0  0  0  0
 10  4  1  0  0  0  0
 11 14  1  0  0  0  0
 13 17  2  0  0  0  0
 13 18  1  0  0  0  0
 14 12  2  0  0  0  0
 15 16  1  0  0  0  0
 16 12  1  0  0  0  0
 17 15  1  0  0  0  0
 18 16  2  0  0  0  0
 19 18  1  0  0  0  0
 19 11  2  0  0  0  0
 20 21  1  0  0  0  0
 21 13  1  0  0  0  0
 23 22  1  6  0  0  0
 26 25  1  6  0  0  0
 26 28  1  0  0  0  0
 26 23  1  0  0  0  0
 27 24  1  6  0  0  0
 27 26  1  0  0  0  0
 27 23  1  0  0  0  0
 28 29  1  0  0  0  0
M  END
>  <MODEL>
3

>  <REMARK>
 VINA RESULT:      -7.1      1.348      2.076
  Name = 
  5 active torsions:
  status: ('A' for Active; 'I' for Inactive)
    1  A    between atoms: C_1  and  C_11
    2  A    between atoms: C_2  and  C_20
    3  A    between atoms: C_5  and  O_26
    4  A    between atoms: C_8  and  O_19
    5  A    between atoms: C_10  and  O_26
                            x       y       z     vdW  Elec       q    Type
                         _______ _______ _______ _____ _____    ______ ____

>  <TORSDO>
F 5

$$$$
=
 OpenBabel11042416513D

 29 32  0  0  1  0  0  0  0  0999 V2000
  194.5660  177.4720  146.4170 C   0  0  0  0  0  1  0  0  0  0  0  0
  191.6840  175.2480  143.8390 C   0  0  2  0  0  3  0  0  0  0  0  0
  193.6170  176.3020  146.2460 C   0  0  2  0  0  3  0  0  0  0  0  0
  194.2880  175.1990  145.4110 C   0  0  0  0  0  2  0  0  0  0  0  0
  193.0310  175.5600  143.2300 C   0  0  0  0  0  0  0  0  0  0  0  0
  191.5300  175.6280  145.3210 C   0  0  1  0  0  3  0  0  0  0  0  0
  193.0670  175.8550  142.0040 O   0  0  0  0  0  0  0  0  0  0  0  0
  195.5360  175.6950  143.3120 C   0  0  0  0  0  1  0  0  0  0  0  0
  192.3600  176.7790  145.6640 N   0  0  0  0  0  2  0  0  0  0  0  0
  194.2600  175.5030  143.9830 N   0  0  0  0  0  0  0  0  0  0  0  0
  190.0990  175.8850  145.6710 C   0  0  0  0  0  0  0  0  0  0  0  0
  188.2010  175.6410  147.2140 C   0  0  0  0  0  3  0  0  0  0  0  0
  186.9770  177.6060  144.5870 C   0  0  0  0  0  0  0  0  0  0  0  0
  189.5410  175.3760  146.8730 C   0  0  0  0  0  3  0  0  0  0  0  0
  186.1710  176.7930  146.4430 N   0  0  0  0  0  2  0  0  0  0  0  0
  187.4580  176.4170  146.3300 C   0  0  0  0  0  0  0  0  0  0  0  0
  185.8750  177.5250  145.3700 N   0  0  0  0  0  0  0  0  0  0  0  0
  187.9970  176.9070  145.1750 C   0  0  0  0  0  0  0  0  0  0  0  0
  189.3160  176.6710  144.8030 C   0  0  0  0  0  3  0  0  0  0  0  0
  185.8760  178.6740  142.6740 C   0  0  0  0  0  1  0  0  0  0  0  0
  187.0480  178.2910  143.3760 O   0  0  0  0  0  0  0  0  0  0  0  0
  191.3820  173.8960  143.6550 O   0  0  0  0  0  0  0  0  0  0  0  0
  190.5550  173.8650  142.5240 C   0  0  2  0  0  3  0  0  0  0  0  0
  191.3970  171.5850  142.5130 O   0  0  0  0  0  1  0  0  0  0  0  0
  189.3160  172.2810  143.9780 O   0  0  0  0  0  1  0  0  0  0  0  0
  189.3960  172.9090  142.7280 C   0  0  2  0  0  0  0  0  0  0  0  0
  190.5560  172.4830  141.8450 C   0  0  1  0  0  3  0  0  0  0  0  0
  188.1030  173.2520  142.0130 C   0  0  0  0  0  2  0  0  0  0  0  0
  187.8570  174.7480  142.0630 C   0  0  0  0  0  1  0  0  0  0  0  0
  2 22  1  1  0  0  0
  2  6  1  0  0  0  0
  3  1  1  6  0  0  0
  4  3  1  0  0  0  0
  5  2  1  0  0  0  0
  5 10  1  0  0  0  0
  6  9  1  0  0  0  0
  6 11  1  6  0  0  0
  7  5  2  0  0  0  0
  8 10  1  0  0  0  0
  9  3  1  0  0  0  0
 10  4  1  0  0  0  0
 11 14  1  0  0  0  0
 13 18  1  0  0  0  0
 13 17  2  0  0  0  0
 14 12  2  0  0  0  0
 16 15  1  0  0  0  0
 16 12  1  0  0  0  0
 17 15  1  0  0  0  0
 18 16  2  0  0  0  0
 19 18  1  0  0  0  0
 19 11  2  0  0  0  0
 20 21  1  0  0  0  0
 21 13  1  0  0  0  0
 23 26  1  0  0  0  0
 23 22  1  1  0  0  0
 26 25  1  1  0  0  0
 27 24  1  1  0  0  0
 27 23  1  0  0  0  0
 27 26  1  0  0  0  0
 28 29  1  0  0  0  0
 28 26  1  0  0  0  0
M  END
>  <MODEL>
4

>  <REMARK>
 VINA RESULT:      -7.0      2.001      2.959
  Name = 
  5 active torsions:
  status: ('A' for Active; 'I' for Inactive)
    1  A    between atoms: C_1  and  C_11
    2  A    between atoms: C_2  and  C_20
    3  A    between atoms: C_5  and  O_26
    4  A    between atoms: C_8  and  O_19
    5  A    between atoms: C_10  and  O_26
                            x       y       z     vdW  Elec       q    Type
                         _______ _______ _______ _____ _____    ______ ____

>  <TORSDO>
F 5

$$$$
=
 OpenBabel11042416513D

 29 32  0  0  1  0  0  0  0  0999 V2000
  189.6330  173.7950  139.6850 C   0  0  0  0  0  1  0  0  0  0  0  0
  190.0500  175.9460  143.5710 C   0  0  2  0  0  3  0  0  0  0  0  0
  189.5800  173.7560  141.2000 C   0  0  2  0  0  3  0  0  0  0  0  0
  188.2550  174.3610  141.6950 C   0  0  0  0  0  2  0  0  0  0  0  0
  189.1500  176.5860  142.5390 C   0  0  0  0  0  0  0  0  0  0  0  0
  190.6050  174.5640  143.1900 C   0  0  1  0  0  3  0  0  0  0  0  0
  189.1500  177.8450  142.4600 O   0  0  0  0  0  0  0  0  0  0  0  0
  187.3520  176.4990  140.7900 C   0  0  0  0  0  1  0  0  0  0  0  0
  190.7590  174.4320  141.7440 N   0  0  0  0  0  2  0  0  0  0  0  0
  188.2830  175.8200  141.6770 N   0  0  0  0  0  0  0  0  0  0  0  0
  191.8990  174.2860  143.8880 C   0  0  0  0  0  0  0  0  0  0  0  0
  193.2670  172.8820  145.3720 C   0  0  0  0  0  3  0  0  0  0  0  0
  195.4130  175.4430  144.3260 C   0  0  0  0  0  0  0  0  0  0  0  0
  192.0400  173.1570  144.7370 C   0  0  0  0  0  3  0  0  0  0  0  0
  195.5710  173.6990  145.6250 N   0  0  0  0  0  2  0  0  0  0  0  0
  194.3210  173.7570  145.1290 C   0  0  0  0  0  0  0  0  0  0  0  0
  196.2430  174.7360  145.1290 N   0  0  0  0  0  0  0  0  0  0  0  0
  194.1840  174.8420  144.3120 C   0  0  0  0  0  0  0  0  0  0  0  0
  192.9910  175.1460  143.6640 C   0  0  0  0  0  3  0  0  0  0  0  0
  197.0810  176.7930  143.1380 C   0  0  0  0  0  1  0  0  0  0  0  0
  195.7640  176.5990  143.6320 O   0  0  0  0  0  0  0  0  0  0  0  0
  189.3880  175.8770  144.8000 O   0  0  0  0  0  0  0  0  0  0  0  0
  190.2720  176.4650  145.7160 C   0  0  2  0  0  3  0  0  0  0  0  0
  188.1420  177.0090  146.7510 O   0  0  0  0  0  1  0  0  0  0  0  0
  189.3190  174.6830  147.1550 O   0  0  0  0  0  1  0  0  0  0  0  0
  190.1890  175.7780  147.0650 C   0  0  2  0  0  0  0  0  0  0  0  0
  189.5290  177.1350  146.8870 C   0  0  1  0  0  3  0  0  0  0  0  0
  191.4600  175.7560  147.8910 C   0  0  0  0  0  2  0  0  0  0  0  0
  192.5930  176.4150  147.1280 C   0  0  0  0  0  1  0  0  0  0  0  0
  2 22  1  1  0  0  0
  3  1  1  6  0  0  0
  3  4  1  0  0  0  0
  3  9  1  0  0  0  0
  5  2  1  0  0  0  0
  6  2  1  0  0  0  0
  6 11  1  1  0  0  0
  7  5  2  0  0  0  0
  8 10  1  0  0  0  0
  9  6  1  0  0  0  0
 10  4  1  0  0  0  0
 10  5  1  0  0  0  0
 11 14  1  0  0  0  0
 13 17  2  0  0  0  0
 14 12  2  0  0  0  0
 16 12  1  0  0  0  0
 16 15  1  0  0  0  0
 17 15  1  0  0  0  0
 18 13  1  0  0  0  0
 18 16  2  0  0  0  0
 19 11  2  0  0  0  0
 19 18  1  0  0  0  0
 20 21  1  0  0  0  0
 21 13  1  0  0  0  0
 23 22  1  6  0  0  0
 23 27  1  0  0  0  0
 23 26  1  0  0  0  0
 26 25  1  1  0  0  0
 26 28  1  0  0  0  0
 27 24  1  6  0  0  0
 27 26  1  0  0  0  0
 29 28  1  0  0  0  0
M  END
>  <MODEL>
5

>  <REMARK>
 VINA RESULT:      -6.9      3.324      7.750
  Name = 
  5 active torsions:
  status: ('A' for Active; 'I' for Inactive)
    1  A    between atoms: C_1  and  C_11
    2  A    between atoms: C_2  and  C_20
    3  A    between atoms: C_5  and  O_26
    4  A    between atoms: C_8  and  O_19
    5  A    between atoms: C_10  and  O_26
                            x       y       z     vdW  Elec       q    Type
                         _______ _______ _______ _____ _____    ______ ____

>  <TORSDO>
F 5

$$$$
=
 OpenBabel11042416513D

 29 32  0  0  1  0  0  0  0  0999 V2000
  192.9690  176.7800  146.9130 C   0  0  0  0  0  1  0  0  0  0  0  0
  191.0420  175.0850  143.2640 C   0  0  2  0  0  3  0  0  0  0  0  0
  191.7970  176.0490  146.2870 C   0  0  2  0  0  3  0  0  0  0  0  0
  192.1650  174.5760  146.0450 C   0  0  0  0  0  2  0  0  0  0  0  0
  192.4730  174.6750  143.5230 C   0  0  0  0  0  0  0  0  0  0  0  0
  190.3930  175.9350  144.3690 C   0  0  1  0  0  3  0  0  0  0  0  0
  193.2340  174.5400  142.5260 O   0  0  0  0  0  0  0  0  0  0  0  0
  194.3340  173.9010  145.0190 C   0  0  0  0  0  1  0  0  0  0  0  0
  191.3850  176.7470  145.0670 N   0  0  0  0  0  2  0  0  0  0  0  0
  192.9820  174.4090  144.8460 N   0  0  0  0  0  0  0  0  0  0  0  0
  189.2970  176.7940  143.8220 C   0  0  0  0  0  0  0  0  0  0  0  0
  188.2530  177.9850  141.9420 C   0  0  0  0  0  3  0  0  0  0  0  0
  186.0800  178.4860  144.6410 C   0  0  0  0  0  0  0  0  0  0  0  0
  189.2990  177.1980  142.4610 C   0  0  0  0  0  3  0  0  0  0  0  0
  186.1390  179.0840  142.5450 N   0  0  0  0  0  2  0  0  0  0  0  0
  187.2290  178.3410  142.8130 C   0  0  0  0  0  0  0  0  0  0  0  0
  185.4320  179.1720  143.6700 N   0  0  0  0  0  0  0  0  0  0  0  0
  187.2280  177.9500  144.1210 C   0  0  0  0  0  0  0  0  0  0  0  0
  188.2390  177.1710  144.6720 C   0  0  0  0  0  3  0  0  0  0  0  0
  184.2600  178.3880  146.2810 C   0  0  0  0  0  1  0  0  0  0  0  0
  185.6410  178.3560  145.9570 O   0  0  0  0  0  0  0  0  0  0  0  0
  190.2630  173.9530  143.0090 O   0  0  0  0  0  0  0  0  0  0  0  0
  190.1860  173.8800  141.6110 C   0  0  2  0  0  3  0  0  0  0  0  0
  189.2670  171.7120  142.2140 O   0  0  0  0  0  1  0  0  0  0  0  0
  187.7650  173.8800  142.1550 O   0  0  0  0  0  1  0  0  0  0  0  0
  188.7420  173.8100  141.1530 C   0  0  2  0  0  0  0  0  0  0  0  0
  189.5830  172.5450  141.1340 C   0  0  1  0  0  3  0  0  0  0  0  0
  188.4310  174.4260  139.8020 C   0  0  0  0  0  2  0  0  0  0  0  0
  188.6480  173.4070  138.6990 C   0  0  0  0  0  1  0  0  0  0  0  0
  2 22  1  1  0  0  0
  2  5  1  0  0  0  0
  2  6  1  0  0  0  0
  3  1  1  6  0  0  0
  4  3  1  0  0  0  0
  5 10  1  0  0  0  0
  6 11  1  6  0  0  0
  6  9  1  0  0  0  0
  7  5  2  0  0  0  0
  9  3  1  0  0  0  0
 10  8  1  0  0  0  0
 10  4  1  0  0  0  0
 11 19  1  0  0  0  0
 12 14  1  0  0  0  0
 12 16  2  0  0  0  0
 13 21  1  0  0  0  0
 14 11  2  0  0  0  0
 15 16  1  0  0  0  0
 15 17  1  0  0  0  0
 16 18  1  0  0  0  0
 17 13  2  0  0  0  0
 18 13  1  0  0  0  0
 18 19  2  0  0  0  0
 21 20  1  0  0  0  0
 23 22  1  1  0  0  0
 26 23  1  0  0  0  0
 26 25  1  1  0  0  0
 27 26  1  0  0  0  0
 27 23  1  0  0  0  0
 27 24  1  1  0  0  0
 28 26  1  0  0  0  0
 29 28  1  0  0  0  0
M  END
>  <MODEL>
6

>  <REMARK>
 VINA RESULT:      -6.9      1.906      3.019
  Name = 
  5 active torsions:
  status: ('A' for Active; 'I' for Inactive)
    1  A    between atoms: C_1  and  C_11
    2  A    between atoms: C_2  and  C_20
    3  A    between atoms: C_5  and  O_26
    4  A    between atoms: C_8  and  O_19
    5  A    between atoms: C_10  and  O_26
                            x       y       z     vdW  Elec       q    Type
                         _______ _______ _______ _____ _____    ______ ____

>  <TORSDO>
F 5

$$$$
=
 OpenBabel11042416513D

 29 32  0  0  1  0  0  0  0  0999 V2000
  188.1910  172.6660  139.7050 C   0  0  0  0  0  1  0  0  0  0  0  0
  190.0050  174.2220  143.4720 C   0  0  2  0  0  3  0  0  0  0  0  0
  188.9640  173.7590  140.4150 C   0  0  2  0  0  3  0  0  0  0  0  0
  190.4320  173.3350  140.5940 C   0  0  0  0  0  2  0  0  0  0  0  0
  190.3720  172.8090  143.0810 C   0  0  0  0  0  0  0  0  0  0  0  0
  189.1520  174.9860  142.4470 C   0  0  1  0  0  3  0  0  0  0  0  0
  190.5060  171.9600  144.0040 O   0  0  0  0  0  0  0  0  0  0  0  0
  191.0680  171.0690  141.4110 C   0  0  0  0  0  1  0  0  0  0  0  0
  188.3010  174.0790  141.6810 N   0  0  0  0  0  2  0  0  0  0  0  0
  190.5990  172.4120  141.7130 N   0  0  0  0  0  0  0  0  0  0  0  0
  188.3330  176.0500  143.1060 C   0  0  0  0  0  0  0  0  0  0  0  0
  187.7720  177.3950  145.0860 C   0  0  0  0  0  3  0  0  0  0  0  0
  185.6810  178.6090  142.5530 C   0  0  0  0  0  0  0  0  0  0  0  0
  188.5250  176.3750  144.4740 C   0  0  0  0  0  3  0  0  0  0  0  0
  186.0140  179.0600  144.6600 N   0  0  0  0  0  2  0  0  0  0  0  0
  186.8420  178.0630  144.2950 C   0  0  0  0  0  0  0  0  0  0  0  0
  185.3000  179.3950  143.5870 N   0  0  0  0  0  0  0  0  0  0  0  0
  186.6590  177.7500  142.9790 C   0  0  0  0  0  0  0  0  0  0  0  0
  187.3850  176.7530  142.3370 C   0  0  0  0  0  3  0  0  0  0  0  0
  183.8090  178.2890  141.0010 C   0  0  0  0  0  1  0  0  0  0  0  0
  185.1510  178.6680  141.2660 O   0  0  0  0  0  0  0  0  0  0  0  0
  191.1620  174.9460  143.7710 O   0  0  0  0  0  0  0  0  0  0  0  0
  191.3720  174.7380  145.1410 C   0  0  2  0  0  3  0  0  0  0  0  0
  193.6560  175.1080  144.4010 O   0  0  0  0  0  1  0  0  0  0  0  0
  192.0510  177.1190  144.9830 O   0  0  0  0  0  1  0  0  0  0  0  0
  191.9080  175.9920  145.8030 C   0  0  2  0  0  0  0  0  0  0  0  0
  192.8600  174.8420  145.5210 C   0  0  1  0  0  3  0  0  0  0  0  0
  191.5290  176.2040  147.2560 C   0  0  0  0  0  2  0  0  0  0  0  0
  190.3800  175.2910  147.6370 C   0  0  0  0  0  1  0  0  0  0  0  0
  2 22  1  6  0  0  0
  3  1  1  1  0  0  0
  3  4  1  0  0  0  0
  3  9  1  0  0  0  0
  4 10  1  0  0  0  0
  5  2  1  0  0  0  0
  5  7  2  0  0  0  0
  6 11  1  1  0  0  0
  6  2  1  0  0  0  0
  8 10  1  0  0  0  0
  9  6  1  0  0  0  0
 10  5  1  0  0  0  0
 11 14  1  0  0  0  0
 13 18  1  0  0  0  0
 13 17  2  0  0  0  0
 14 12  2  0  0  0  0
 16 15  1  0  0  0  0
 16 12  1  0  0  0  0
 17 15  1  0  0  0  0
 18 16  2  0  0  0  0
 19 18  1  0  0  0  0
 19 11  2  0  0  0  0
 20 21  1  0  0  0  0
 21 13  1  0  0  0  0
 23 22  1  6  0  0  0
 23 27  1  0  0  0  0
 23 26  1  0  0  0  0
 26 25  1  6  0  0  0
 26 28  1  0  0  0  0
 27 24  1  6  0  0  0
 27 26  1  0  0  0  0
 28 29  1  0  0  0  0
M  END
>  <MODEL>
7

>  <REMARK>
 VINA RESULT:      -6.7      2.360      5.010
  Name = 
  5 active torsions:
  status: ('A' for Active; 'I' for Inactive)
    1  A    between atoms: C_1  and  C_11
    2  A    between atoms: C_2  and  C_20
    3  A    between atoms: C_5  and  O_26
    4  A    between atoms: C_8  and  O_19
    5  A    between atoms: C_10  and  O_26
                            x       y       z     vdW  Elec       q    Type
                         _______ _______ _______ _____ _____    ______ ____

>  <TORSDO>
F 5

$$$$
=
 OpenBabel11042416513D

 29 32  0  0  1  0  0  0  0  0999 V2000
  188.3850  172.9490  140.0160 C   0  0  0  0  0  1  0  0  0  0  0  0
  188.9740  175.1820  143.8330 C   0  0  2  0  0  3  0  0  0  0  0  0
  188.7700  174.2370  140.7170 C   0  0  2  0  0  3  0  0  0  0  0  0
  190.2060  174.1320  141.2580 C   0  0  0  0  0  2  0  0  0  0  0  0
  189.6610  173.8400  143.7240 C   0  0  0  0  0  0  0  0  0  0  0  0
  188.2630  175.6610  142.5560 C   0  0  1  0  0  3  0  0  0  0  0  0
  189.7210  173.1260  144.7620 O   0  0  0  0  0  0  0  0  0  0  0  0
  191.0180  172.1260  142.4920 C   0  0  0  0  0  1  0  0  0  0  0  0
  187.7850  174.5350  141.7590 N   0  0  0  0  0  2  0  0  0  0  0  0
  190.2660  173.3710  142.5020 N   0  0  0  0  0  0  0  0  0  0  0  0
  187.1420  176.5970  142.8760 C   0  0  0  0  0  0  0  0  0  0  0  0
  185.4210  178.1960  142.1500 C   0  0  0  0  0  3  0  0  0  0  0  0
  184.9930  177.9260  145.6150 C   0  0  0  0  0  0  0  0  0  0  0  0
  186.4940  177.3350  141.8500 C   0  0  0  0  0  3  0  0  0  0  0  0
  184.0410  179.0400  144.0000 N   0  0  0  0  0  2  0  0  0  0  0  0
  185.0280  178.2870  143.4810 C   0  0  0  0  0  0  0  0  0  0  0  0
  184.0190  178.8170  145.3130 N   0  0  0  0  0  0  0  0  0  0  0  0
  185.6510  177.5760  144.4660 C   0  0  0  0  0  0  0  0  0  0  0  0
  186.7120  176.7130  144.2120 C   0  0  0  0  0  3  0  0  0  0  0  0
  186.2900  178.0390  147.6930 C   0  0  0  0  0  1  0  0  0  0  0  0
  185.2740  177.4520  146.8940 O   0  0  0  0  0  0  0  0  0  0  0  0
  189.8860  176.1480  144.2670 O   0  0  0  0  0  0  0  0  0  0  0  0
  190.7060  176.3910  143.1560 C   0  0  2  0  0  3  0  0  0  0  0  0
  190.8190  178.5510  144.2640 O   0  0  0  0  0  1  0  0  0  0  0  0
  192.4020  176.5580  144.9600 O   0  0  0  0  0  1  0  0  0  0  0  0
  192.1360  176.6510  143.5870 C   0  0  2  0  0  0  0  0  0  0  0  0
  191.2710  177.8230  143.1570 C   0  0  1  0  0  3  0  0  0  0  0  0
  193.2220  176.2300  142.6150 C   0  0  0  0  0  2  0  0  0  0  0  0
  194.5290  176.0070  143.3530 C   0  0  0  0  0  1  0  0  0  0  0  0
  2 22  1  6  0  0  0
  3  1  1  1  0  0  0
  3  4  1  0  0  0  0
  3  9  1  0  0  0  0
  4 10  1  0  0  0  0
  5  2  1  0  0  0  0
  5  7  2  0  0  0  0
  6 11  1  1  0  0  0
  6  2  1  0  0  0  0
  8 10  1  0  0  0  0
  9  6  1  0  0  0  0
 10  5  1  0  0  0  0
 11 19  1  0  0  0  0
 12 16  2  0  0  0  0
 13 21  1  0  0  0  0
 14 12  1  0  0  0  0
 14 11  2  0  0  0  0
 15 17  1  0  0  0  0
 16 15  1  0  0  0  0
 16 18  1  0  0  0  0
 17 13  2  0  0  0  0
 18 13  1  0  0  0  0
 19 18  2  0  0  0  0
 21 20  1  0  0  0  0
 23 27  1  0  0  0  0
 23 26  1  0  0  0  0
 23 22  1  1  0  0  0
 26 25  1  1  0  0  0
 27 26  1  0  0  0  0
 27 24  1  1  0  0  0
 28 29  1  0  0  0  0
 28 26  1  0  0  0  0
M  END
>  <MODEL>
8

>  <REMARK>
 VINA RESULT:      -6.6      2.545      4.818
  Name = 
  5 active torsions:
  status: ('A' for Active; 'I' for Inactive)
    1  A    between atoms: C_1  and  C_11
    2  A    between atoms: C_2  and  C_20
    3  A    between atoms: C_5  and  O_26
    4  A    between atoms: C_8  and  O_19
    5  A    between atoms: C_10  and  O_26
                            x       y       z     vdW  Elec       q    Type
                         _______ _______ _______ _____ _____    ______ ____

>  <TORSDO>
F 5

$$$$
=
 OpenBabel11042416513D

 29 32  0  0  1  0  0  0  0  0999 V2000
  190.6370  177.9540  148.3570 C   0  0  0  0  0  1  0  0  0  0  0  0
  189.8120  176.3420  144.2800 C   0  0  2  0  0  3  0  0  0  0  0  0
  189.9260  176.9390  147.4850 C   0  0  2  0  0  3  0  0  0  0  0  0
  190.9020  175.8240  147.0720 C   0  0  0  0  0  2  0  0  0  0  0  0
  191.2660  176.5180  144.6540 C   0  0  0  0  0  0  0  0  0  0  0  0
  188.8060  176.6220  145.4080 C   0  0  1  0  0  3  0  0  0  0  0  0
  192.0610  176.9010  143.7520 O   0  0  0  0  0  0  0  0  0  0  0  0
  193.1990  176.3130  146.2400 C   0  0  0  0  0  1  0  0  0  0  0  0
  189.3180  177.6220  146.3410 N   0  0  0  0  0  2  0  0  0  0  0  0
  191.7710  176.2400  145.9750 N   0  0  0  0  0  0  0  0  0  0  0  0
  187.4770  177.0390  144.8620 C   0  0  0  0  0  0  0  0  0  0  0  0
  185.0930  177.5360  145.1930 C   0  0  0  0  0  3  0  0  0  0  0  0
  185.6850  178.1880  141.8040 C   0  0  0  0  0  0  0  0  0  0  0  0
  186.3370  177.1180  145.7030 C   0  0  0  0  0  3  0  0  0  0  0  0
  183.9650  178.2830  143.1410 N   0  0  0  0  0  2  0  0  0  0  0  0
  185.0350  177.8660  143.8430 C   0  0  0  0  0  0  0  0  0  0  0  0
  184.3660  178.4810  141.8860 N   0  0  0  0  0  0  0  0  0  0  0  0
  186.1330  177.7910  143.0350 C   0  0  0  0  0  0  0  0  0  0  0  0
  187.3800  177.3860  143.5010 C   0  0  0  0  0  3  0  0  0  0  0  0
  186.4330  177.2460  139.6670 C   0  0  0  0  0  1  0  0  0  0  0  0
  186.4530  178.2750  140.6450 O   0  0  0  0  0  0  0  0  0  0  0  0
  189.6080  175.0610  143.7610 O   0  0  0  0  0  0  0  0  0  0  0  0
  189.7140  175.2170  142.3720 C   0  0  2  0  0  3  0  0  0  0  0  0
  191.2270  173.3480  142.7190 O   0  0  0  0  0  1  0  0  0  0  0  0
  188.6280  172.9870  142.4510 O   0  0  0  0  0  1  0  0  0  0  0  0
  189.1700  174.0000  141.6480 C   0  0  2  0  0  0  0  0  0  0  0  0
  190.6740  174.1890  141.7460 C   0  0  1  0  0  3  0  0  0  0  0  0
  188.5530  174.2440  140.2840 C   0  0  0  0  0  2  0  0  0  0  0  0
  189.4890  173.7640  139.1920 C   0  0  0  0  0  1  0  0  0  0  0  0
  2 22  1  1  0  0  0
  2  5  1  0  0  0  0
  2  6  1  0  0  0  0
  3  1  1  6  0  0  0
  4  3  1  0  0  0  0
  5 10  1  0  0  0  0
  6 11  1  6  0  0  0
  6  9  1  0  0  0  0
  7  5  2  0  0  0  0
  9  3  1  0  0  0  0
 10  8  1  0  0  0  0
 10  4  1  0  0  0  0
 11 14  1  0  0  0  0
 12 14  2  0  0  0  0
 13 17  2  0  0  0  0
 13 18  1  0  0  0  0
 15 16  1  0  0  0  0
 16 12  1  0  0  0  0
 17 15  1  0  0  0  0
 18 19  1  0  0  0  0
 18 16  2  0  0  0  0
 19 11  2  0  0  0  0
 20 21  1  0  0  0  0
 21 13  1  0  0  0  0
 23 22  1  1  0  0  0
 26 27  1  0  0  0  0
 26 23  1  0  0  0  0
 26 25  1  1  0  0  0
 27 23  1  0  0  0  0
 27 24  1  1  0  0  0
 28 26  1  0  0  0  0
 29 28  1  0  0  0  0
M  END
>  <MODEL>
9

>  <REMARK>
 VINA RESULT:      -6.6      1.433      2.050
  Name = 
  5 active torsions:
  status: ('A' for Active; 'I' for Inactive)
    1  A    between atoms: C_1  and  C_11
    2  A    between atoms: C_2  and  C_20
    3  A    between atoms: C_5  and  O_26
    4  A    between atoms: C_8  and  O_19
    5  A    between atoms: C_10  and  O_26
                            x       y       z     vdW  Elec       q    Type
                         _______ _______ _______ _____ _____    ______ ____

>  <TORSDO>
F 5

$$$$
