=
 OpenBabel11042416163D

 33 38  0  0  1  0  0  0  0  0999 V2000
  190.9330  176.4070  145.3590 C   0  0  0  0  0  0  0  0  0  0  0  0
  189.7560  175.8970  147.4320 C   0  0  0  0  0  3  0  0  0  0  0  0
  189.7260  177.3620  143.4770 C   0  0  0  0  0  0  0  0  0  0  0  0
  187.2580  176.8580  146.3130 C   0  0  0  0  0  3  0  0  0  0  0  0
  185.0460  178.2450  143.8530 O   0  0  0  0  0  0  0  0  0  0  0  0
  189.7150  177.8320  142.2030 N   0  0  0  0  0  0  0  0  0  0  0  0
  190.9110  176.8950  144.0430 C   0  0  0  0  0  3  0  0  0  0  0  0
  188.5300  176.8610  145.5480 C   0  0  0  0  0  0  0  0  0  0  0  0
  188.5660  178.2910  141.6380 C   0  0  0  0  0  3  0  0  0  0  0  0
  186.1040  177.8180  144.3870 C   0  0  0  0  0  0  0  0  0  0  0  0
  189.7310  176.3890  146.1190 C   0  0  0  0  0  0  0  0  0  0  0  0
  188.5380  177.3450  144.2270 C   0  0  0  0  0  0  0  0  0  0  0  0
  192.1230  175.4450  147.2460 C   0  0  0  0  0  3  0  0  0  0  0  0
  192.1330  175.9360  145.9310 C   0  0  0  0  0  0  0  0  0  0  0  0
  190.9450  175.4270  147.9910 C   0  0  0  0  0  3  0  0  0  0  0  0
  186.1110  177.3020  145.7850 C   0  0  0  0  0  0  0  0  0  0  0  0
  187.4040  178.2840  142.3450 N   0  0  0  0  0  0  0  0  0  0  0  0
  187.3650  177.8230  143.6240 C   0  0  0  0  0  0  0  0  0  0  0  0
  184.4320  178.2910  147.3080 C   0  0  0  0  0  2  0  0  0  0  0  0
  184.9120  177.2480  146.6430 C   0  0  0  0  0  3  0  0  0  0  0  0
  194.5380  176.6880  145.8320 C   0  0  0  0  0  1  0  0  0  0  0  0
  193.4150  175.9250  145.1380 C   0  0  1  0  0  3  0  0  0  0  0  0
  194.1930  172.5190  145.4650 N   0  0  0  0  0  0  0  0  0  0  0  0
  194.4240  173.8230  145.7630 O   0  0  0  0  0  0  0  0  0  0  0  0
  192.6430  173.6790  144.2070 C   0  0  0  0  0  2  0  0  0  0  0  0
  193.0280  172.2940  144.6350 C   0  0  0  0  0  2  0  0  0  0  0  0
  193.8200  174.5150  144.6990 C   0  0  1  0  0  3  0  0  0  0  0  0
  195.9560  169.3150  146.2840 C   0  0  0  0  0  3  0  0  0  0  0  0
  197.2650  169.6290  145.9090 C   0  0  0  0  0  3  0  0  0  0  0  0
  196.5440  171.8400  145.2400 C   0  0  0  0  0  3  0  0  0  0  0  0
  197.5590  170.8910  145.3870 C   0  0  0  0  0  3  0  0  0  0  0  0
  195.2260  171.5350  145.6120 C   0  0  0  0  0  0  0  0  0  0  0  0
  194.9410  170.2650  146.1380 C   0  0  0  0  0  3  0  0  0  0  0  0
  1 14  2  0  0  0  0
  1 11  1  0  0  0  0
  2 15  1  0  0  0  0
  3  7  2  0  0  0  0
  3 12  1  0  0  0  0
  5 10  2  0  0  0  0
  6  3  1  0  0  0  0
  7  1  1  0  0  0  0
  8 11  1  0  0  0  0
  8  4  1  0  0  0  0
  9  6  2  0  0  0  0
  9 17  1  0  0  0  0
 10 16  1  0  0  0  0
 11  2  2  0  0  0  0
 12  8  2  0  0  0  0
 13 15  2  0  0  0  0
 14 13  1  0  0  0  0
 16  4  2  0  0  0  0
 16 20  1  0  0  0  0
 17 18  2  0  0  0  0
 18 12  1  0  0  0  0
 18 10  1  0  0  0  0
 20 19  2  0  0  0  0
 22 21  1  1  0  0  0
 22 14  1  0  0  0  0
 23 32  1  0  0  0  0
 23 24  1  0  0  0  0
 25 26  1  0  0  0  0
 25 27  1  0  0  0  0
 26 23  1  0  0  0  0
 27 22  1  1  0  0  0
 27 24  1  0  0  0  0
 29 28  2  0  0  0  0
 30 31  2  0  0  0  0
 30 32  1  0  0  0  0
 31 29  1  0  0  0  0
 32 33  2  0  0  0  0
 33 28  1  0  0  0  0
M  END
>  <MODEL>
1

>  <REMARK>
 VINA RESULT:      -9.2      0.000      0.000
  Name = 
  4 active torsions:
  status: ('A' for Active; 'I' for Inactive)
    1  A    between atoms: N_2  and  C_19
    2  A    between atoms: C_23  and  C_33
    3  A    between atoms: C_25  and  C_33
    4  A    between atoms: C_27  and  C_28
                            x       y       z     vdW  Elec       q    Type
                         _______ _______ _______ _____ _____    ______ ____

>  <TORSDO>
F 4

$$$$
=
 OpenBabel11042416163D

 33 38  0  0  1  0  0  0  0  0999 V2000
  189.5390  176.7600  143.7060 C   0  0  0  0  0  0  0  0  0  0  0  0
  188.9580  177.1470  146.0410 C   0  0  0  0  0  3  0  0  0  0  0  0
  187.8820  177.1210  141.9630 C   0  0  0  0  0  0  0  0  0  0  0  0
  186.2640  177.9250  145.2980 C   0  0  0  0  0  3  0  0  0  0  0  0
  183.4900  178.5960  143.1250 O   0  0  0  0  0  0  0  0  0  0  0  0
  187.5350  177.1110  140.6510 N   0  0  0  0  0  0  0  0  0  0  0  0
  189.1700  176.7540  142.3510 C   0  0  0  0  0  3  0  0  0  0  0  0
  187.2830  177.5180  144.2990 C   0  0  0  0  0  0  0  0  0  0  0  0
  186.2830  177.4670  140.2570 C   0  0  0  0  0  3  0  0  0  0  0  0
  184.6470  178.2690  143.5020 C   0  0  0  0  0  0  0  0  0  0  0  0
  188.5860  177.1460  144.6890 C   0  0  0  0  0  0  0  0  0  0  0  0
  186.9400  177.5020  142.9340 C   0  0  0  0  0  0  0  0  0  0  0  0
  191.1800  176.3970  145.4600 C   0  0  0  0  0  3  0  0  0  0  0  0
  190.8430  176.3900  144.0980 C   0  0  0  0  0  0  0  0  0  0  0  0
  190.2470  176.7740  146.4240 C   0  0  0  0  0  3  0  0  0  0  0  0
  185.0230  178.2800  144.9440 C   0  0  0  0  0  0  0  0  0  0  0  0
  185.3550  177.8390  141.1790 N   0  0  0  0  0  0  0  0  0  0  0  0
  185.6560  177.8650  142.5050 C   0  0  0  0  0  0  0  0  0  0  0  0
  184.4100  178.6150  147.3160 C   0  0  0  0  0  2  0  0  0  0  0  0
  184.0990  178.6660  146.0260 C   0  0  0  0  0  3  0  0  0  0  0  0
  192.9680  176.9900  142.8820 C   0  0  0  0  0  1  0  0  0  0  0  0
  191.8630  175.9580  143.0760 C   0  0  1  0  0  3  0  0  0  0  0  0
  193.1840  173.2690  144.9030 N   0  0  0  0  0  0  0  0  0  0  0  0
  193.2660  174.5410  144.4350 O   0  0  0  0  0  0  0  0  0  0  0  0
  191.2840  173.5340  143.6200 C   0  0  0  0  0  2  0  0  0  0  0  0
  191.9390  172.6000  144.5920 C   0  0  0  0  0  2  0  0  0  0  0  0
  192.3910  174.5440  143.3360 C   0  0  1  0  0  3  0  0  0  0  0  0
  196.7190  172.5070  145.8840 C   0  0  0  0  0  3  0  0  0  0  0  0
  196.6600  171.1190  146.0330 C   0  0  0  0  0  3  0  0  0  0  0  0
  194.3140  171.1550  145.4400 C   0  0  0  0  0  3  0  0  0  0  0  0
  195.4590  170.4430  145.8110 C   0  0  0  0  0  3  0  0  0  0  0  0
  194.3620  172.5490  145.2910 C   0  0  0  0  0  0  0  0  0  0  0  0
  195.5750  173.2190  145.5140 C   0  0  0  0  0  3  0  0  0  0  0  0
  1 14  2  0  0  0  0
  1 11  1  0  0  0  0
  2 15  1  0  0  0  0
  3  7  2  0  0  0  0
  3 12  1  0  0  0  0
  5 10  2  0  0  0  0
  6  3  1  0  0  0  0
  7  1  1  0  0  0  0
  8 11  1  0  0  0  0
  8  4  1  0  0  0  0
  9  6  2  0  0  0  0
  9 17  1  0  0  0  0
 10 16  1  0  0  0  0
 11  2  2  0  0  0  0
 12  8  2  0  0  0  0
 13 15  2  0  0  0  0
 14 13  1  0  0  0  0
 16  4  2  0  0  0  0
 16 20  1  0  0  0  0
 17 18  2  0  0  0  0
 18 12  1  0  0  0  0
 18 10  1  0  0  0  0
 20 19  2  0  0  0  0
 22 21  1  1  0  0  0
 22 14  1  0  0  0  0
 23 32  1  0  0  0  0
 24 23  1  0  0  0  0
 25 26  1  0  0  0  0
 26 23  1  0  0  0  0
 27 22  1  1  0  0  0
 27 25  1  0  0  0  0
 27 24  1  0  0  0  0
 28 29  1  0  0  0  0
 30 31  1  0  0  0  0
 31 29  2  0  0  0  0
 32 30  2  0  0  0  0
 32 33  1  0  0  0  0
 33 28  2  0  0  0  0
M  END
>  <MODEL>
2

>  <REMARK>
 VINA RESULT:      -8.7      1.525      2.161
  Name = 
  4 active torsions:
  status: ('A' for Active; 'I' for Inactive)
    1  A    between atoms: N_2  and  C_19
    2  A    between atoms: C_23  and  C_33
    3  A    between atoms: C_25  and  C_33
    4  A    between atoms: C_27  and  C_28
                            x       y       z     vdW  Elec       q    Type
                         _______ _______ _______ _____ _____    ______ ____

>  <TORSDO>
F 4

$$$$
=
 OpenBabel11042416163D

 33 38  0  0  1  0  0  0  0  0999 V2000
  188.2550  176.1630  144.4160 C   0  0  0  0  0  0  0  0  0  0  0  0
  187.9530  175.8680  142.0150 C   0  0  0  0  0  3  0  0  0  0  0  0
  186.6280  177.4330  145.7010 C   0  0  0  0  0  0  0  0  0  0  0  0
  185.4930  177.4040  142.0810 C   0  0  0  0  0  3  0  0  0  0  0  0
  182.8360  179.3440  143.5120 O   0  0  0  0  0  0  0  0  0  0  0  0
  186.2020  177.9380  146.8860 N   0  0  0  0  0  0  0  0  0  0  0  0
  187.8050  176.6890  145.6370 C   0  0  0  0  0  3  0  0  0  0  0  0
  186.3070  177.1450  143.2950 C   0  0  0  0  0  0  0  0  0  0  0  0
  185.0550  178.6660  146.9640 C   0  0  0  0  0  3  0  0  0  0  0  0
  183.8960  178.6680  143.4270 C   0  0  0  0  0  0  0  0  0  0  0  0
  187.4990  176.3930  143.2330 C   0  0  0  0  0  0  0  0  0  0  0  0
  185.8800  177.6610  144.5330 C   0  0  0  0  0  0  0  0  0  0  0  0
  189.8760  174.9030  143.1160 C   0  0  0  0  0  3  0  0  0  0  0  0
  189.4460  175.4090  144.3520 C   0  0  0  0  0  0  0  0  0  0  0  0
  189.1350  175.1290  141.9570 C   0  0  0  0  0  3  0  0  0  0  0  0
  184.3600  178.1160  142.1240 C   0  0  0  0  0  0  0  0  0  0  0  0
  184.3150  178.8990  145.8470 N   0  0  0  0  0  0  0  0  0  0  0  0
  184.7010  178.4130  144.6360 C   0  0  0  0  0  0  0  0  0  0  0  0
  182.3880  177.9160  140.6460 C   0  0  0  0  0  2  0  0  0  0  0  0
  183.6390  178.3070  140.8520 C   0  0  0  0  0  3  0  0  0  0  0  0
  189.6910  174.0810  146.4810 C   0  0  0  0  0  1  0  0  0  0  0  0
  190.2750  175.1700  145.5880 C   0  0  1  0  0  3  0  0  0  0  0  0
  193.5640  176.0390  144.7290 N   0  0  0  0  0  0  0  0  0  0  0  0
  192.2350  176.0040  144.4550 O   0  0  0  0  0  0  0  0  0  0  0  0
  192.6380  174.9050  146.5130 C   0  0  0  0  0  2  0  0  0  0  0  0
  193.9160  175.5270  146.0360 C   0  0  0  0  0  2  0  0  0  0  0  0
  191.7580  174.9630  145.2680 C   0  0  1  0  0  3  0  0  0  0  0  0
  195.1070  176.1700  141.3170 C   0  0  0  0  0  3  0  0  0  0  0  0
  196.4410  176.4340  141.6380 C   0  0  0  0  0  3  0  0  0  0  0  0
  195.8730  176.4400  143.9910 C   0  0  0  0  0  3  0  0  0  0  0  0
  196.8240  176.5690  142.9740 C   0  0  0  0  0  3  0  0  0  0  0  0
  194.5310  176.1770  143.6790 C   0  0  0  0  0  0  0  0  0  0  0  0
  194.1560  176.0410  142.3330 C   0  0  0  0  0  3  0  0  0  0  0  0
  1  7  1  0  0  0  0
  2 11  1  0  0  0  0
  3  6  1  0  0  0  0
  4 16  2  0  0  0  0
  4  8  1  0  0  0  0
  6  9  2  0  0  0  0
  7  3  2  0  0  0  0
  8 12  2  0  0  0  0
 10  5  2  0  0  0  0
 10 18  1  0  0  0  0
 11  8  1  0  0  0  0
 11  1  2  0  0  0  0
 12 18  1  0  0  0  0
 12  3  1  0  0  0  0
 13 14  2  0  0  0  0
 14  1  1  0  0  0  0
 14 22  1  0  0  0  0
 15  2  2  0  0  0  0
 15 13  1  0  0  0  0
 16 10  1  0  0  0  0
 17  9  1  0  0  0  0
 18 17  2  0  0  0  0
 19 20  2  0  0  0  0
 20 16  1  0  0  0  0
 22 21  1  6  0  0  0
 23 26  1  0  0  0  0
 24 23  1  0  0  0  0
 24 27  1  0  0  0  0
 26 25  1  0  0  0  0
 27 22  1  1  0  0  0
 27 25  1  0  0  0  0
 28 29  2  0  0  0  0
 28 33  1  0  0  0  0
 29 31  1  0  0  0  0
 31 30  2  0  0  0  0
 32 30  1  0  0  0  0
 32 23  1  0  0  0  0
 33 32  2  0  0  0  0
M  END
>  <MODEL>
3

>  <REMARK>
 VINA RESULT:      -8.7      3.136      4.851
  Name = 
  4 active torsions:
  status: ('A' for Active; 'I' for Inactive)
    1  A    between atoms: N_2  and  C_19
    2  A    between atoms: C_23  and  C_33
    3  A    between atoms: C_25  and  C_33
    4  A    between atoms: C_27  and  C_28
                            x       y       z     vdW  Elec       q    Type
                         _______ _______ _______ _____ _____    ______ ____

>  <TORSDO>
F 4

$$$$
=
 OpenBabel11042416163D

 33 38  0  0  1  0  0  0  0  0999 V2000
  191.0980  176.7400  145.3970 C   0  0  0  0  0  0  0  0  0  0  0  0
  189.9840  176.2510  147.5090 C   0  0  0  0  0  3  0  0  0  0  0  0
  189.8070  177.5250  143.4930 C   0  0  0  0  0  0  0  0  0  0  0  0
  187.4130  176.9910  146.3870 C   0  0  0  0  0  3  0  0  0  0  0  0
  185.0830  178.1130  143.9000 O   0  0  0  0  0  0  0  0  0  0  0  0
  189.7490  177.9340  142.1990 N   0  0  0  0  0  0  0  0  0  0  0  0
  191.0270  177.1650  144.0610 C   0  0  0  0  0  3  0  0  0  0  0  0
  188.6730  177.0430  145.6030 C   0  0  0  0  0  0  0  0  0  0  0  0
  188.5650  178.2890  141.6320 C   0  0  0  0  0  3  0  0  0  0  0  0
  186.1740  177.7820  144.4380 C   0  0  0  0  0  0  0  0  0  0  0  0
  189.9090  176.6790  146.1760 C   0  0  0  0  0  0  0  0  0  0  0  0
  188.6310  177.4650  144.2610 C   0  0  0  0  0  0  0  0  0  0  0  0
  192.3730  175.9470  147.3070 C   0  0  0  0  0  3  0  0  0  0  0  0
  192.3340  176.3760  145.9720 C   0  0  0  0  0  0  0  0  0  0  0  0
  191.2080  175.8870  148.0710 C   0  0  0  0  0  3  0  0  0  0  0  0
  186.2320  177.3330  145.8570 C   0  0  0  0  0  0  0  0  0  0  0  0
  187.4150  178.2380  142.3560 N   0  0  0  0  0  0  0  0  0  0  0  0
  187.4220  177.8360  143.6550 C   0  0  0  0  0  0  0  0  0  0  0  0
  184.4480  178.2910  147.2770 C   0  0  0  0  0  2  0  0  0  0  0  0
  185.0510  177.2400  146.7350 C   0  0  0  0  0  3  0  0  0  0  0  0
  194.5400  177.5370  145.5910 C   0  0  0  0  0  1  0  0  0  0  0  0
  193.6040  176.4130  145.1610 C   0  0  1  0  0  3  0  0  0  0  0  0
  194.1310  173.0970  144.1460 N   0  0  0  0  0  0  0  0  0  0  0  0
  193.3640  174.0510  144.7320 O   0  0  0  0  0  0  0  0  0  0  0  0
  195.4280  175.0040  144.0690 C   0  0  0  0  0  2  0  0  0  0  0  0
  195.3600  173.5940  143.5650 C   0  0  0  0  0  2  0  0  0  0  0  0
  194.2910  175.0470  145.0840 C   0  0  1  0  0  3  0  0  0  0  0  0
  194.4380  169.7360  145.7760 C   0  0  0  0  0  3  0  0  0  0  0  0
  193.5530  168.9830  145.0000 C   0  0  0  0  0  3  0  0  0  0  0  0
  193.0520  170.9410  143.6690 C   0  0  0  0  0  3  0  0  0  0  0  0
  192.8600  169.5850  143.9470 C   0  0  0  0  0  3  0  0  0  0  0  0
  193.9360  171.7070  144.4440 C   0  0  0  0  0  0  0  0  0  0  0  0
  194.6300  171.0930  145.4980 C   0  0  0  0  0  3  0  0  0  0  0  0
  1 14  2  0  0  0  0
  1 11  1  0  0  0  0
  2 15  1  0  0  0  0
  3  7  2  0  0  0  0
  3 12  1  0  0  0  0
  5 10  2  0  0  0  0
  6  3  1  0  0  0  0
  7  1  1  0  0  0  0
  8 11  1  0  0  0  0
  8  4  1  0  0  0  0
  9  6  2  0  0  0  0
  9 17  1  0  0  0  0
 10 16  1  0  0  0  0
 11  2  2  0  0  0  0
 12  8  2  0  0  0  0
 13 15  2  0  0  0  0
 14 13  1  0  0  0  0
 16  4  2  0  0  0  0
 16 20  1  0  0  0  0
 17 18  2  0  0  0  0
 18 12  1  0  0  0  0
 18 10  1  0  0  0  0
 20 19  2  0  0  0  0
 22 21  1  1  0  0  0
 22 14  1  0  0  0  0
 23 32  1  0  0  0  0
 23 24  1  0  0  0  0
 24 27  1  0  0  0  0
 25 27  1  0  0  0  0
 26 25  1  0  0  0  0
 26 23  1  0  0  0  0
 27 22  1  6  0  0  0
 29 28  2  0  0  0  0
 30 31  2  0  0  0  0
 30 32  1  0  0  0  0
 31 29  1  0  0  0  0
 32 33  2  0  0  0  0
 33 28  1  0  0  0  0
M  END
>  <MODEL>
4

>  <REMARK>
 VINA RESULT:      -8.6      1.089      1.640
  Name = 
  4 active torsions:
  status: ('A' for Active; 'I' for Inactive)
    1  A    between atoms: N_2  and  C_19
    2  A    between atoms: C_23  and  C_33
    3  A    between atoms: C_25  and  C_33
    4  A    between atoms: C_27  and  C_28
                            x       y       z     vdW  Elec       q    Type
                         _______ _______ _______ _____ _____    ______ ____

>  <TORSDO>
F 4

$$$$
=
 OpenBabel11042416163D

 33 38  0  0  1  0  0  0  0  0999 V2000
  188.1360  175.9940  144.3850 C   0  0  0  0  0  0  0  0  0  0  0  0
  187.9030  175.9280  141.9600 C   0  0  0  0  0  3  0  0  0  0  0  0
  186.4940  177.1750  145.7350 C   0  0  0  0  0  0  0  0  0  0  0  0
  185.4710  177.5040  142.0970 C   0  0  0  0  0  3  0  0  0  0  0  0
  182.8080  179.3600  143.6230 O   0  0  0  0  0  0  0  0  0  0  0  0
  186.0410  177.5780  146.9490 N   0  0  0  0  0  0  0  0  0  0  0  0
  187.6580  176.4150  145.6360 C   0  0  0  0  0  3  0  0  0  0  0  0
  186.2420  177.1170  143.3040 C   0  0  0  0  0  0  0  0  0  0  0  0
  184.9060  178.3200  147.0600 C   0  0  0  0  0  3  0  0  0  0  0  0
  183.8570  178.6730  143.5070 C   0  0  0  0  0  0  0  0  0  0  0  0
  187.4210  176.3480  143.2080 C   0  0  0  0  0  0  0  0  0  0  0  0
  185.7870  177.5260  144.5720 C   0  0  0  0  0  0  0  0  0  0  0  0
  189.7720  174.8240  143.0220 C   0  0  0  0  0  3  0  0  0  0  0  0
  189.3140  175.2230  144.2870 C   0  0  0  0  0  0  0  0  0  0  0  0
  189.0710  175.1720  141.8680 C   0  0  0  0  0  3  0  0  0  0  0  0
  184.3510  178.2330  142.1720 C   0  0  0  0  0  0  0  0  0  0  0  0
  184.2050  178.6710  145.9480 N   0  0  0  0  0  0  0  0  0  0  0  0
  184.6200  178.2900  144.7100 C   0  0  0  0  0  0  0  0  0  0  0  0
  182.5360  177.9950  140.5090 C   0  0  0  0  0  2  0  0  0  0  0  0
  183.6730  178.5550  140.9030 C   0  0  0  0  0  3  0  0  0  0  0  0
  190.0420  173.3610  145.8220 C   0  0  0  0  0  1  0  0  0  0  0  0
  190.1000  174.8540  145.5190 C   0  0  1  0  0  3  0  0  0  0  0  0
  193.4120  175.2580  144.4360 N   0  0  0  0  0  0  0  0  0  0  0  0
  192.4080  174.4840  144.9210 O   0  0  0  0  0  0  0  0  0  0  0  0
  191.6440  176.7160  144.7110 C   0  0  0  0  0  2  0  0  0  0  0  0
  193.0210  176.6160  144.1240 C   0  0  0  0  0  2  0  0  0  0  0  0
  191.5250  175.4140  145.4950 C   0  0  1  0  0  3  0  0  0  0  0  0
  196.5380  173.8230  145.9240 C   0  0  0  0  0  3  0  0  0  0  0  0
  197.4790  174.1700  144.9510 C   0  0  0  0  0  3  0  0  0  0  0  0
  195.7380  175.2280  143.6440 C   0  0  0  0  0  3  0  0  0  0  0  0
  197.0800  174.8720  143.8120 C   0  0  0  0  0  3  0  0  0  0  0  0
  194.7850  174.8820  144.6130 C   0  0  0  0  0  0  0  0  0  0  0  0
  195.1970  174.1780  145.7560 C   0  0  0  0  0  3  0  0  0  0  0  0
  1  7  1  0  0  0  0
  2 11  1  0  0  0  0
  3  6  1  0  0  0  0
  4 16  2  0  0  0  0
  4  8  1  0  0  0  0
  6  9  2  0  0  0  0
  7  3  2  0  0  0  0
  8 12  2  0  0  0  0
 10  5  2  0  0  0  0
 10 18  1  0  0  0  0
 11  8  1  0  0  0  0
 11  1  2  0  0  0  0
 12 18  1  0  0  0  0
 12  3  1  0  0  0  0
 13 14  2  0  0  0  0
 14  1  1  0  0  0  0
 14 22  1  0  0  0  0
 15  2  2  0  0  0  0
 15 13  1  0  0  0  0
 16 10  1  0  0  0  0
 17  9  1  0  0  0  0
 18 17  2  0  0  0  0
 19 20  2  0  0  0  0
 20 16  1  0  0  0  0
 22 21  1  6  0  0  0
 23 32  1  0  0  0  0
 23 24  1  0  0  0  0
 24 27  1  0  0  0  0
 25 27  1  0  0  0  0
 26 23  1  0  0  0  0
 26 25  1  0  0  0  0
 27 22  1  6  0  0  0
 29 28  2  0  0  0  0
 30 31  2  0  0  0  0
 30 32  1  0  0  0  0
 31 29  1  0  0  0  0
 32 33  2  0  0  0  0
 33 28  1  0  0  0  0
M  END
>  <MODEL>
5

>  <REMARK>
 VINA RESULT:      -8.6      2.566      4.353
  Name = 
  4 active torsions:
  status: ('A' for Active; 'I' for Inactive)
    1  A    between atoms: N_2  and  C_19
    2  A    between atoms: C_23  and  C_33
    3  A    between atoms: C_25  and  C_33
    4  A    between atoms: C_27  and  C_28
                            x       y       z     vdW  Elec       q    Type
                         _______ _______ _______ _____ _____    ______ ____

>  <TORSDO>
F 4

$$$$
=
 OpenBabel11042416163D

 33 38  0  0  1  0  0  0  0  0999 V2000
  189.0870  175.5050  143.7770 C   0  0  0  0  0  0  0  0  0  0  0  0
  188.5730  175.7460  146.1470 C   0  0  0  0  0  3  0  0  0  0  0  0
  187.6530  176.5370  142.1070 C   0  0  0  0  0  0  0  0  0  0  0  0
  186.2310  177.3440  145.5300 C   0  0  0  0  0  3  0  0  0  0  0  0
  183.8250  179.0430  143.4820 O   0  0  0  0  0  0  0  0  0  0  0  0
  187.3550  176.7900  140.8070 N   0  0  0  0  0  0  0  0  0  0  0  0
  188.7720  175.7730  142.4360 C   0  0  0  0  0  3  0  0  0  0  0  0
  187.1220  176.7920  144.4790 C   0  0  0  0  0  0  0  0  0  0  0  0
  186.2670  177.5340  140.4720 C   0  0  0  0  0  3  0  0  0  0  0  0
  184.8310  178.3560  143.8060 C   0  0  0  0  0  0  0  0  0  0  0  0
  188.2550  176.0190  144.8090 C   0  0  0  0  0  0  0  0  0  0  0  0
  186.8290  177.0450  143.1260 C   0  0  0  0  0  0  0  0  0  0  0  0
  190.5070  174.4730  145.4570 C   0  0  0  0  0  3  0  0  0  0  0  0
  190.2220  174.7330  144.1080 C   0  0  0  0  0  0  0  0  0  0  0  0
  189.6910  174.9770  146.4680 C   0  0  0  0  0  3  0  0  0  0  0  0
  185.1530  178.0790  145.2340 C   0  0  0  0  0  0  0  0  0  0  0  0
  185.4550  178.0360  141.4420 N   0  0  0  0  0  0  0  0  0  0  0  0
  185.7130  177.8100  142.7580 C   0  0  0  0  0  0  0  0  0  0  0  0
  184.6990  178.4460  147.6370 C   0  0  0  0  0  2  0  0  0  0  0  0
  184.3450  178.5730  146.3640 C   0  0  0  0  0  3  0  0  0  0  0  0
  192.4790  173.7520  143.5580 C   0  0  0  0  0  1  0  0  0  0  0  0
  191.1070  174.1590  143.0310 C   0  0  1  0  0  3  0  0  0  0  0  0
  190.7860  171.5320  140.7280 N   0  0  0  0  0  0  0  0  0  0  0  0
  191.1000  172.8200  141.0250 O   0  0  0  0  0  0  0  0  0  0  0  0
  190.3230  171.7330  142.9800 C   0  0  0  0  0  2  0  0  0  0  0  0
  190.4390  170.7240  141.8770 C   0  0  0  0  0  2  0  0  0  0  0  0
  190.4130  173.0560  142.2280 C   0  0  1  0  0  3  0  0  0  0  0  0
  190.1810  169.4420  137.6770 C   0  0  0  0  0  3  0  0  0  0  0  0
  189.7690  170.4160  136.7650 C   0  0  0  0  0  3  0  0  0  0  0  0
  190.0260  172.1180  138.4660 C   0  0  0  0  0  3  0  0  0  0  0  0
  189.6910  171.7540  137.1590 C   0  0  0  0  0  3  0  0  0  0  0  0
  190.4380  171.1470  139.3910 C   0  0  0  0  0  0  0  0  0  0  0  0
  190.5160  169.8060  138.9850 C   0  0  0  0  0  3  0  0  0  0  0  0
  1 14  2  0  0  0  0
  1 11  1  0  0  0  0
  2 15  1  0  0  0  0
  3  7  2  0  0  0  0
  3 12  1  0  0  0  0
  5 10  2  0  0  0  0
  6  3  1  0  0  0  0
  7  1  1  0  0  0  0
  8 11  1  0  0  0  0
  8  4  1  0  0  0  0
  9  6  2  0  0  0  0
  9 17  1  0  0  0  0
 10 16  1  0  0  0  0
 11  2  2  0  0  0  0
 12  8  2  0  0  0  0
 13 15  2  0  0  0  0
 14 13  1  0  0  0  0
 16  4  2  0  0  0  0
 16 20  1  0  0  0  0
 17 18  2  0  0  0  0
 18 12  1  0  0  0  0
 18 10  1  0  0  0  0
 20 19  2  0  0  0  0
 22 21  1  1  0  0  0
 22 14  1  0  0  0  0
 23 24  1  0  0  0  0
 23 26  1  0  0  0  0
 24 27  1  0  0  0  0
 26 25  1  0  0  0  0
 27 25  1  0  0  0  0
 27 22  1  1  0  0  0
 28 33  1  0  0  0  0
 29 31  1  0  0  0  0
 29 28  2  0  0  0  0
 30 32  1  0  0  0  0
 31 30  2  0  0  0  0
 32 23  1  0  0  0  0
 33 32  2  0  0  0  0
M  END
>  <MODEL>
6

>  <REMARK>
 VINA RESULT:      -8.5      3.847      5.038
  Name = 
  4 active torsions:
  status: ('A' for Active; 'I' for Inactive)
    1  A    between atoms: N_2  and  C_19
    2  A    between atoms: C_23  and  C_33
    3  A    between atoms: C_25  and  C_33
    4  A    between atoms: C_27  and  C_28
                            x       y       z     vdW  Elec       q    Type
                         _______ _______ _______ _____ _____    ______ ____

>  <TORSDO>
F 4

$$$$
=
 OpenBabel11042416163D

 33 38  0  0  1  0  0  0  0  0999 V2000
  191.0900  176.7770  145.3600 C   0  0  0  0  0  0  0  0  0  0  0  0
  189.9790  176.2870  147.4740 C   0  0  0  0  0  3  0  0  0  0  0  0
  189.7930  177.5450  143.4520 C   0  0  0  0  0  0  0  0  0  0  0  0
  187.4030  177.0020  146.3480 C   0  0  0  0  0  3  0  0  0  0  0  0
  185.0650  178.0950  143.8560 O   0  0  0  0  0  0  0  0  0  0  0  0
  189.7320  177.9480  142.1570 N   0  0  0  0  0  0  0  0  0  0  0  0
  191.0160  177.1960  144.0230 C   0  0  0  0  0  3  0  0  0  0  0  0
  188.6620  177.0610  145.5640 C   0  0  0  0  0  0  0  0  0  0  0  0
  188.5460  178.2910  141.5880 C   0  0  0  0  0  3  0  0  0  0  0  0
  186.1580  177.7750  144.3950 C   0  0  0  0  0  0  0  0  0  0  0  0
  189.9020  176.7090  146.1390 C   0  0  0  0  0  0  0  0  0  0  0  0
  188.6180  177.4770  144.2210 C   0  0  0  0  0  0  0  0  0  0  0  0
  192.3710  176.0030  147.2740 C   0  0  0  0  0  3  0  0  0  0  0  0
  192.3290  176.4260  145.9370 C   0  0  0  0  0  0  0  0  0  0  0  0
  191.2060  175.9350  148.0370 C   0  0  0  0  0  3  0  0  0  0  0  0
  186.2200  177.3320  145.8170 C   0  0  0  0  0  0  0  0  0  0  0  0
  187.3960  178.2340  142.3130 N   0  0  0  0  0  0  0  0  0  0  0  0
  187.4060  177.8360  143.6130 C   0  0  0  0  0  0  0  0  0  0  0  0
  184.4480  178.2780  147.2590 C   0  0  0  0  0  2  0  0  0  0  0  0
  185.0390  177.2330  146.6940 C   0  0  0  0  0  3  0  0  0  0  0  0
  194.6290  177.4340  145.7050 C   0  0  0  0  0  1  0  0  0  0  0  0
  193.5990  176.4710  145.1260 C   0  0  1  0  0  3  0  0  0  0  0  0
  195.4620  173.9930  143.4830 N   0  0  0  0  0  0  0  0  0  0  0  0
  194.4960  174.9470  143.4840 O   0  0  0  0  0  0  0  0  0  0  0  0
  195.4110  174.7570  145.6610 C   0  0  0  0  0  2  0  0  0  0  0  0
  196.1980  173.8890  144.7250 C   0  0  0  0  0  2  0  0  0  0  0  0
  194.1630  175.0760  144.8430 C   0  0  1  0  0  3  0  0  0  0  0  0
  194.3600  171.7150  140.7190 C   0  0  0  0  0  3  0  0  0  0  0  0
  195.4650  170.8660  140.6180 C   0  0  0  0  0  3  0  0  0  0  0  0
  196.5620  172.0820  142.4000 C   0  0  0  0  0  3  0  0  0  0  0  0
  196.5660  171.0490  141.4580 C   0  0  0  0  0  3  0  0  0  0  0  0
  195.4590  172.9410  142.5080 C   0  0  0  0  0  0  0  0  0  0  0  0
  194.3560  172.7480  141.6610 C   0  0  0  0  0  3  0  0  0  0  0  0
  1 14  2  0  0  0  0
  1 11  1  0  0  0  0
  2 15  1  0  0  0  0
  3  7  2  0  0  0  0
  3 12  1  0  0  0  0
  5 10  2  0  0  0  0
  6  3  1  0  0  0  0
  7  1  1  0  0  0  0
  8 11  1  0  0  0  0
  8  4  1  0  0  0  0
  9  6  2  0  0  0  0
  9 17  1  0  0  0  0
 10 16  1  0  0  0  0
 11  2  2  0  0  0  0
 12  8  2  0  0  0  0
 13 15  2  0  0  0  0
 14 13  1  0  0  0  0
 16  4  2  0  0  0  0
 16 20  1  0  0  0  0
 17 18  2  0  0  0  0
 18 12  1  0  0  0  0
 18 10  1  0  0  0  0
 20 19  2  0  0  0  0
 22 21  1  1  0  0  0
 22 14  1  0  0  0  0
 23 24  1  0  0  0  0
 23 26  1  0  0  0  0
 24 27  1  0  0  0  0
 26 25  1  0  0  0  0
 27 22  1  6  0  0  0
 27 25  1  0  0  0  0
 28 33  1  0  0  0  0
 29 28  2  0  0  0  0
 29 31  1  0  0  0  0
 30 32  1  0  0  0  0
 31 30  2  0  0  0  0
 32 23  1  0  0  0  0
 33 32  2  0  0  0  0
M  END
>  <MODEL>
7

>  <REMARK>
 VINA RESULT:      -8.3      1.849      2.308
  Name = 
  4 active torsions:
  status: ('A' for Active; 'I' for Inactive)
    1  A    between atoms: N_2  and  C_19
    2  A    between atoms: C_23  and  C_33
    3  A    between atoms: C_25  and  C_33
    4  A    between atoms: C_27  and  C_28
                            x       y       z     vdW  Elec       q    Type
                         _______ _______ _______ _____ _____    ______ ____

>  <TORSDO>
F 4

$$$$
=
 OpenBabel11042416163D

 33 38  0  0  1  0  0  0  0  0999 V2000
  191.9160  174.4230  143.5070 C   0  0  0  0  0  0  0  0  0  0  0  0
  191.6420  172.2810  144.6370 C   0  0  0  0  0  3  0  0  0  0  0  0
  194.1300  175.3990  143.2690 C   0  0  0  0  0  0  0  0  0  0  0  0
  194.4990  172.1020  145.1070 C   0  0  0  0  0  3  0  0  0  0  0  0
  197.9410  173.1090  145.0160 O   0  0  0  0  0  0  0  0  0  0  0  0
  194.9310  176.4040  142.8300 N   0  0  0  0  0  0  0  0  0  0  0  0
  192.7540  175.4560  143.0570 C   0  0  0  0  0  3  0  0  0  0  0  0
  193.8750  173.2490  144.4020 C   0  0  0  0  0  0  0  0  0  0  0  0
  196.2760  176.3620  143.0300 C   0  0  0  0  0  3  0  0  0  0  0  0
  196.6940  173.1360  144.8360 C   0  0  0  0  0  0  0  0  0  0  0  0
  192.4820  173.3080  144.1860 C   0  0  0  0  0  0  0  0  0  0  0  0
  194.6900  174.2990  143.9400 C   0  0  0  0  0  0  0  0  0  0  0  0
  189.7100  173.4370  143.7590 C   0  0  0  0  0  3  0  0  0  0  0  0
  190.5230  174.4800  143.2900 C   0  0  0  0  0  0  0  0  0  0  0  0
  190.2650  172.3450  144.4260 C   0  0  0  0  0  3  0  0  0  0  0  0
  195.8190  172.0310  145.3200 C   0  0  0  0  0  0  0  0  0  0  0  0
  196.8400  175.3070  143.6770 N   0  0  0  0  0  0  0  0  0  0  0  0
  196.0790  174.2780  144.1350 C   0  0  0  0  0  0  0  0  0  0  0  0
  195.5420  169.8730  146.4940 C   0  0  0  0  0  2  0  0  0  0  0  0
  196.3210  170.8420  146.0320 C   0  0  0  0  0  3  0  0  0  0  0  0
  188.9630  175.2420  141.4620 C   0  0  0  0  0  1  0  0  0  0  0  0
  189.8980  175.6600  142.5910 C   0  0  1  0  0  3  0  0  0  0  0  0
  187.7800  176.7950  145.1480 N   0  0  0  0  0  0  0  0  0  0  0  0
  187.9720  176.2290  143.9290 O   0  0  0  0  0  0  0  0  0  0  0  0
  190.0690  176.8280  144.8530 C   0  0  0  0  0  2  0  0  0  0  0  0
  189.0000  177.0690  145.8760 C   0  0  0  0  0  2  0  0  0  0  0  0
  189.2630  176.6520  143.5700 C   0  0  1  0  0  3  0  0  0  0  0  0
  184.4400  177.4550  146.7140 C   0  0  0  0  0  3  0  0  0  0  0  0
  184.0960  178.6650  146.1060 C   0  0  0  0  0  3  0  0  0  0  0  0
  186.1790  178.6380  144.8730 C   0  0  0  0  0  3  0  0  0  0  0  0
  184.9640  179.2570  145.1860 C   0  0  0  0  0  3  0  0  0  0  0  0
  186.5350  177.4260  145.4810 C   0  0  0  0  0  0  0  0  0  0  0  0
  185.6540  176.8370  146.4020 C   0  0  0  0  0  3  0  0  0  0  0  0
  1 11  1  0  0  0  0
  3 12  1  0  0  0  0
  4 16  2  0  0  0  0
  6  9  2  0  0  0  0
  6  3  1  0  0  0  0
  7  3  2  0  0  0  0
  7  1  1  0  0  0  0
  8  4  1  0  0  0  0
  9 17  1  0  0  0  0
 10  5  2  0  0  0  0
 10 16  1  0  0  0  0
 11  8  1  0  0  0  0
 11  2  2  0  0  0  0
 12 18  1  0  0  0  0
 12  8  2  0  0  0  0
 13 15  2  0  0  0  0
 14  1  2  0  0  0  0
 14 13  1  0  0  0  0
 15  2  1  0  0  0  0
 16 20  1  0  0  0  0
 17 18  2  0  0  0  0
 18 10  1  0  0  0  0
 20 19  2  0  0  0  0
 22 21  1  6  0  0  0
 22 14  1  0  0  0  0
 23 32  1  0  0  0  0
 23 26  1  0  0  0  0
 24 23  1  0  0  0  0
 25 26  1  0  0  0  0
 27 22  1  6  0  0  0
 27 24  1  0  0  0  0
 27 25  1  0  0  0  0
 29 28  2  0  0  0  0
 30 31  2  0  0  0  0
 30 32  1  0  0  0  0
 31 29  1  0  0  0  0
 32 33  2  0  0  0  0
 33 28  1  0  0  0  0
M  END
>  <MODEL>
8

>  <REMARK>
 VINA RESULT:      -8.1      2.192      9.126
  Name = 
  4 active torsions:
  status: ('A' for Active; 'I' for Inactive)
    1  A    between atoms: N_2  and  C_19
    2  A    between atoms: C_23  and  C_33
    3  A    between atoms: C_25  and  C_33
    4  A    between atoms: C_27  and  C_28
                            x       y       z     vdW  Elec       q    Type
                         _______ _______ _______ _____ _____    ______ ____

>  <TORSDO>
F 4

$$$$
=
 OpenBabel11042416163D

 33 38  0  0  1  0  0  0  0  0999 V2000
  189.7480  176.7360  143.8660 C   0  0  0  0  0  0  0  0  0  0  0  0
  189.1780  176.8690  146.2320 C   0  0  0  0  0  3  0  0  0  0  0  0
  188.0860  177.2900  142.1800 C   0  0  0  0  0  0  0  0  0  0  0  0
  186.4840  177.7330  145.5890 C   0  0  0  0  0  3  0  0  0  0  0  0
  183.7040  178.6460  143.5130 O   0  0  0  0  0  0  0  0  0  0  0  0
  187.7340  177.4250  140.8750 N   0  0  0  0  0  0  0  0  0  0  0  0
  189.3740  176.8790  142.5200 C   0  0  0  0  0  3  0  0  0  0  0  0
  187.4970  177.4330  144.5470 C   0  0  0  0  0  0  0  0  0  0  0  0
  186.4820  177.8260  140.5280 C   0  0  0  0  0  3  0  0  0  0  0  0
  184.8610  178.2760  143.8480 C   0  0  0  0  0  0  0  0  0  0  0  0
  188.8010  177.0160  144.8890 C   0  0  0  0  0  0  0  0  0  0  0  0
  187.1490  177.5670  143.1900 C   0  0  0  0  0  0  0  0  0  0  0  0
  191.3950  176.1780  145.5630 C   0  0  0  0  0  3  0  0  0  0  0  0
  191.0520  176.3210  144.2100 C   0  0  0  0  0  0  0  0  0  0  0  0
  190.4660  176.4520  146.5660 C   0  0  0  0  0  3  0  0  0  0  0  0
  185.2430  178.1290  145.2810 C   0  0  0  0  0  0  0  0  0  0  0  0
  185.5580  178.0990  141.4890 N   0  0  0  0  0  0  0  0  0  0  0  0
  185.8640  177.9790  142.8090 C   0  0  0  0  0  0  0  0  0  0  0  0
  184.7270  178.6630  147.6390 C   0  0  0  0  0  2  0  0  0  0  0  0
  184.3250  178.3970  146.4030 C   0  0  0  0  0  3  0  0  0  0  0  0
  193.4850  176.3790  143.5510 C   0  0  0  0  0  1  0  0  0  0  0  0
  192.0660  175.9980  143.1420 C   0  0  1  0  0  3  0  0  0  0  0  0
  192.0640  173.3610  140.8290 N   0  0  0  0  0  0  0  0  0  0  0  0
  191.5780  174.5460  141.2780 O   0  0  0  0  0  0  0  0  0  0  0  0
  193.2410  173.7640  142.7730 C   0  0  0  0  0  2  0  0  0  0  0  0
  193.1920  172.8560  141.5810 C   0  0  0  0  0  2  0  0  0  0  0  0
  191.9460  174.5590  142.6350 C   0  0  1  0  0  3  0  0  0  0  0  0
  191.0540  170.5440  138.5730 C   0  0  0  0  0  3  0  0  0  0  0  0
  189.7330  170.8930  138.2860 C   0  0  0  0  0  3  0  0  0  0  0  0
  189.9520  172.8630  139.6760 C   0  0  0  0  0  3  0  0  0  0  0  0
  189.1810  172.0520  138.8370 C   0  0  0  0  0  3  0  0  0  0  0  0
  191.2790  172.5190  139.9730 C   0  0  0  0  0  0  0  0  0  0  0  0
  191.8250  171.3540  139.4120 C   0  0  0  0  0  3  0  0  0  0  0  0
  1 14  2  0  0  0  0
  1 11  1  0  0  0  0
  2 15  1  0  0  0  0
  3  7  2  0  0  0  0
  3 12  1  0  0  0  0
  5 10  2  0  0  0  0
  6  3  1  0  0  0  0
  7  1  1  0  0  0  0
  8 11  1  0  0  0  0
  8  4  1  0  0  0  0
  9  6  2  0  0  0  0
  9 17  1  0  0  0  0
 10 16  1  0  0  0  0
 11  2  2  0  0  0  0
 12  8  2  0  0  0  0
 13 15  2  0  0  0  0
 14 13  1  0  0  0  0
 16  4  2  0  0  0  0
 16 20  1  0  0  0  0
 17 18  2  0  0  0  0
 18 12  1  0  0  0  0
 18 10  1  0  0  0  0
 20 19  2  0  0  0  0
 22 21  1  1  0  0  0
 22 14  1  0  0  0  0
 23 24  1  0  0  0  0
 23 26  1  0  0  0  0
 24 27  1  0  0  0  0
 26 25  1  0  0  0  0
 27 25  1  0  0  0  0
 27 22  1  6  0  0  0
 28 33  1  0  0  0  0
 29 28  2  0  0  0  0
 29 31  1  0  0  0  0
 30 32  1  0  0  0  0
 31 30  2  0  0  0  0
 32 23  1  0  0  0  0
 33 32  2  0  0  0  0
M  END
>  <MODEL>
9

>  <REMARK>
 VINA RESULT:      -8.1      3.125      4.428
  Name = 
  4 active torsions:
  status: ('A' for Active; 'I' for Inactive)
    1  A    between atoms: N_2  and  C_19
    2  A    between atoms: C_23  and  C_33
    3  A    between atoms: C_25  and  C_33
    4  A    between atoms: C_27  and  C_28
                            x       y       z     vdW  Elec       q    Type
                         _______ _______ _______ _____ _____    ______ ____

>  <TORSDO>
F 4

$$$$
