=
 OpenBabel11042414423D

 36 39  0  0  1  0  0  0  0  0999 V2000
  186.7610  177.6950  143.6270 C   0  0  0  0  0  0  0  0  0  0  0  0
  186.3970  177.6820  142.2780 C   0  0  0  0  0  3  0  0  0  0  0  0
  184.6630  177.9190  140.4870 C   0  0  0  0  0  0  0  0  0  0  0  0
  182.3700  178.4210  141.0240 C   0  0  0  0  0  0  0  0  0  0  0  0
  179.9460  179.0230  142.5920 O   0  0  0  0  0  0  0  0  0  0  0  0
  185.5650  176.7490  146.7460 C   0  0  0  0  0  1  0  0  0  0  0  0
  187.6380  178.0800  146.3330 C   0  0  0  0  0  2  0  0  0  0  0  0
  184.1120  178.2410  142.8720 C   0  0  0  0  0  0  0  0  0  0  0  0
  184.4770  178.2710  144.2200 C   0  0  0  0  0  3  0  0  0  0  0  0
  188.3890  177.0870  145.4450 C   0  0  1  0  0  3  0  0  0  0  0  0
  181.0320  178.6240  140.5480 N   0  0  0  0  0  2  0  0  0  0  0  0
  185.5160  177.6580  139.5520 N   0  0  0  0  0  2  0  0  0  0  0  0
  188.2060  177.4960  143.9830 C   0  0  0  0  0  2  0  0  0  0  0  0
  186.1320  177.9920  146.0800 C   0  0  1  0  0  3  0  0  0  0  0  0
  185.7950  178.0020  144.6110 C   0  0  0  0  0  0  0  0  0  0  0  0
  183.2940  178.1470  140.1490 N   0  0  0  0  0  0  0  0  0  0  0  0
  185.0750  177.9450  141.8970 C   0  0  0  0  0  0  0  0  0  0  0  0
  179.8750  178.9250  141.3390 C   0  0  0  0  0  0  0  0  0  0  0  0
  182.6890  178.5500  142.5000 C   0  0  0  0  0  2  0  0  0  0  0  0
  178.2400  177.8540  139.8480 C   0  0  0  0  0  1  0  0  0  0  0  0
  178.5590  179.0900  140.6670 C   0  0  0  0  0  2  0  0  0  0  0  0
  189.8750  177.0440  145.8130 C   0  0  2  0  0  3  0  0  0  0  0  0
  190.7850  175.1840  143.9060 S   0  0  0  0  0  0  0  0  0  0  0  0
  191.5660  177.5680  143.9440 C   0  0  0  0  0  3  0  0  0  0  0  0
  192.2150  176.9950  142.8960 N   0  0  0  0  0  0  0  0  0  0  0  0
  190.7210  176.6990  144.6300 C   0  0  0  0  0  0  0  0  0  0  0  0
  191.8900  175.6930  142.7490 C   0  0  0  0  0  0  0  0  0  0  0  0
  192.8740  174.1790  140.8880 N   0  0  0  0  0  0  0  0  0  0  0  0
  192.4350  174.8550  141.7190 C   0  0  0  0  0  0  0  0  0  0  0  0
  190.0990  176.1080  146.8290 O   0  0  0  0  0  0  0  0  0  0  0  0
  191.1630  176.5940  147.5150 N   0  0  0  0  0  2  0  0  0  0  0  0
  192.2420  175.6320  147.3670 C   0  0  0  0  0  2  0  0  0  0  0  0
  193.5120  176.3420  146.9340 C   0  0  0  0  0  2  0  0  0  0  0  0
  193.9540  174.3720  145.6740 O   0  0  0  0  0  1  0  0  0  0  0  0
  194.1380  175.6100  145.8010 C   0  0  0  0  0  0  0  0  0  0  0  0
  194.9520  176.2860  144.9020 O   0  0  0  0  0  0  0  0  0  0  0  0
  1 13  1  0  0  0  0
  1 15  1  0  0  0  0
  2  1  2  0  0  0  0
  3 17  1  0  0  0  0
  4 19  1  0  0  0  0
  8  9  1  0  0  0  0
  9 15  2  0  0  0  0
 10 22  1  1  0  0  0
 10  7  1  0  0  0  0
 11  4  1  0  0  0  0
 11 18  1  0  0  0  0
 12  3  2  0  0  0  0
 13 10  1  0  0  0  0
 14  7  1  0  0  0  0
 14  6  1  6  0  0  0
 15 14  1  0  0  0  0
 16  3  1  0  0  0  0
 16  4  2  0  0  0  0
 17  2  1  0  0  0  0
 17  8  2  0  0  0  0
 18  5  2  0  0  0  0
 19  8  1  0  0  0  0
 20 21  1  0  0  0  0
 21 18  1  0  0  0  0
 22 30  1  1  0  0  0
 23 26  1  0  0  0  0
 24 26  2  0  0  0  0
 25 24  1  0  0  0  0
 26 22  1  0  0  0  0
 27 25  2  0  0  0  0
 27 23  1  0  0  0  0
 28 29  3  0  0  0  0
 29 27  1  0  0  0  0
 30 31  1  0  0  0  0
 32 31  1  0  0  0  0
 33 32  1  0  0  0  0
 34 35  1  0  0  0  0
 35 33  1  0  0  0  0
 36 35  2  0  0  0  0
M  END
>  <MODEL>
1

>  <REMARK>
 VINA RESULT:      -7.4      0.000      0.000
  Name = 
  9 active torsions:
  status: ('A' for Active; 'I' for Inactive)
    1  A    between atoms: C_3  and  C_35
    2  A    between atoms: C_4  and  C_11
    3  A    between atoms: C_4  and  C_16
    4  A    between atoms: C_13  and  C_21
    5  A    between atoms: C_13  and  C_25
    6  A    between atoms: C_13  and  O_34
    7  A    between atoms: C_16  and  N_26
    8  A    between atoms: N_26  and  O_34
    9  A    between atoms: C_28  and  C_30
                            x       y       z     vdW  Elec       q    Type
                         _______ _______ _______ _____ _____    ______ ____

>  <TORSDO>
F 9

$$$$
=
 OpenBabel11042414423D

 36 39  0  0  1  0  0  0  0  0999 V2000
  187.9730  177.2610  143.0700 C   0  0  0  0  0  0  0  0  0  0  0  0
  187.4470  177.2670  141.7760 C   0  0  0  0  0  3  0  0  0  0  0  0
  185.5320  177.6380  140.2050 C   0  0  0  0  0  0  0  0  0  0  0  0
  183.3740  178.3450  141.0070 C   0  0  0  0  0  0  0  0  0  0  0  0
  181.2240  179.1760  142.8470 O   0  0  0  0  0  0  0  0  0  0  0  0
  187.0940  176.4570  146.3300 C   0  0  0  0  0  1  0  0  0  0  0  0
  189.2080  177.5950  145.6400 C   0  0  0  0  0  2  0  0  0  0  0  0
  185.3090  178.0320  142.6330 C   0  0  0  0  0  0  0  0  0  0  0  0
  185.8390  178.0430  143.9250 C   0  0  0  0  0  3  0  0  0  0  0  0
  189.7550  176.5310  144.6880 C   0  0  1  0  0  3  0  0  0  0  0  0
  182.0100  178.6620  140.6940 N   0  0  0  0  0  2  0  0  0  0  0  0
  186.2370  177.2930  139.1790 N   0  0  0  0  0  2  0  0  0  0  0  0
  189.4290  176.9390  143.2510 C   0  0  0  0  0  2  0  0  0  0  0  0
  187.6800  177.6380  145.5750 C   0  0  1  0  0  3  0  0  0  0  0  0
  187.1660  177.6630  144.1570 C   0  0  0  0  0  0  0  0  0  0  0  0
  184.1560  177.9830  140.0330 N   0  0  0  0  0  0  0  0  0  0  0  0
  186.1150  177.6420  141.5540 C   0  0  0  0  0  0  0  0  0  0  0  0
  180.9900  179.0720  141.6140 C   0  0  0  0  0  0  0  0  0  0  0  0
  183.8830  178.4610  142.4300 C   0  0  0  0  0  2  0  0  0  0  0  0
  179.6200  180.6230  140.2890 C   0  0  0  0  0  1  0  0  0  0  0  0
  179.6200  179.3450  141.1040 C   0  0  0  0  0  2  0  0  0  0  0  0
  191.2650  176.3600  144.8730 C   0  0  2  0  0  3  0  0  0  0  0  0
  191.7870  173.9670  143.4850 S   0  0  0  0  0  0  0  0  0  0  0  0
  192.5950  176.1990  142.6750 C   0  0  0  0  0  3  0  0  0  0  0  0
  193.0360  175.3020  141.7520 N   0  0  0  0  0  0  0  0  0  0  0  0
  191.8770  175.6280  143.7220 C   0  0  0  0  0  0  0  0  0  0  0  0
  192.6710  174.0390  142.0600 C   0  0  0  0  0  0  0  0  0  0  0  0
  193.2790  171.9840  140.6010 N   0  0  0  0  0  0  0  0  0  0  0  0
  193.0080  172.9020  141.2520 C   0  0  0  0  0  0  0  0  0  0  0  0
  191.5370  175.6660  146.0570 O   0  0  0  0  0  0  0  0  0  0  0  0
  192.4660  176.4220  146.6920 N   0  0  0  0  0  2  0  0  0  0  0  0
  193.7420  175.7400  146.5490 C   0  0  0  0  0  2  0  0  0  0  0  0
  194.7580  176.6730  145.9150 C   0  0  0  0  0  2  0  0  0  0  0  0
  195.3060  174.7550  144.6160 O   0  0  0  0  0  1  0  0  0  0  0  0
  195.4080  176.0010  144.7590 C   0  0  0  0  0  0  0  0  0  0  0  0
  196.1550  176.7430  143.8540 O   0  0  0  0  0  0  0  0  0  0  0  0
  1 13  1  0  0  0  0
  1 15  1  0  0  0  0
  2  1  2  0  0  0  0
  3 17  1  0  0  0  0
  4 19  1  0  0  0  0
  8  9  1  0  0  0  0
  9 15  2  0  0  0  0
 10 22  1  6  0  0  0
 10  7  1  0  0  0  0
 11  4  1  0  0  0  0
 11 18  1  0  0  0  0
 12  3  2  0  0  0  0
 13 10  1  0  0  0  0
 14  7  1  0  0  0  0
 14  6  1  6  0  0  0
 15 14  1  0  0  0  0
 16  3  1  0  0  0  0
 16  4  2  0  0  0  0
 17  2  1  0  0  0  0
 17  8  2  0  0  0  0
 18  5  2  0  0  0  0
 19  8  1  0  0  0  0
 20 21  1  0  0  0  0
 21 18  1  0  0  0  0
 22 30  1  1  0  0  0
 23 26  1  0  0  0  0
 24 26  2  0  0  0  0
 25 27  2  0  0  0  0
 25 24  1  0  0  0  0
 26 22  1  0  0  0  0
 27 23  1  0  0  0  0
 28 29  3  0  0  0  0
 29 27  1  0  0  0  0
 30 31  1  0  0  0  0
 32 31  1  0  0  0  0
 33 32  1  0  0  0  0
 34 35  1  0  0  0  0
 35 33  1  0  0  0  0
 36 35  2  0  0  0  0
M  END
>  <MODEL>
2

>  <REMARK>
 VINA RESULT:      -7.3      1.261      1.631
  Name = 
  9 active torsions:
  status: ('A' for Active; 'I' for Inactive)
    1  A    between atoms: C_3  and  C_35
    2  A    between atoms: C_4  and  C_11
    3  A    between atoms: C_4  and  C_16
    4  A    between atoms: C_13  and  C_21
    5  A    between atoms: C_13  and  C_25
    6  A    between atoms: C_13  and  O_34
    7  A    between atoms: C_16  and  N_26
    8  A    between atoms: N_26  and  O_34
    9  A    between atoms: C_28  and  C_30
                            x       y       z     vdW  Elec       q    Type
                         _______ _______ _______ _____ _____    ______ ____

>  <TORSDO>
F 9

$$$$
=
 OpenBabel11042414423D

 36 39  0  0  1  0  0  0  0  0999 V2000
  187.3130  177.4750  143.4160 C   0  0  0  0  0  0  0  0  0  0  0  0
  186.8530  177.4980  142.0970 C   0  0  0  0  0  3  0  0  0  0  0  0
  185.0110  177.8540  140.4380 C   0  0  0  0  0  0  0  0  0  0  0  0
  182.7960  178.4800  141.1440 C   0  0  0  0  0  0  0  0  0  0  0  0
  180.5300  179.2030  142.8880 O   0  0  0  0  0  0  0  0  0  0  0  0
  186.2930  176.5650  146.6060 C   0  0  0  0  0  1  0  0  0  0  0  0
  188.4040  177.7790  146.0530 C   0  0  0  0  0  2  0  0  0  0  0  0
  184.6540  178.1810  142.8590 C   0  0  0  0  0  0  0  0  0  0  0  0
  185.1160  178.1740  144.1770 C   0  0  0  0  0  3  0  0  0  0  0  0
  189.0310  176.7550  145.1060 C   0  0  1  0  0  3  0  0  0  0  0  0
  181.4410  178.7660  140.7680 N   0  0  0  0  0  2  0  0  0  0  0  0
  185.7780  177.5560  139.4420 N   0  0  0  0  0  2  0  0  0  0  0  0
  188.7670  177.1890  143.6640 C   0  0  0  0  0  2  0  0  0  0  0  0
  186.8810  177.7810  145.9100 C   0  0  1  0  0  3  0  0  0  0  0  0
  186.4400  177.8270  144.4690 C   0  0  0  0  0  0  0  0  0  0  0  0
  183.6370  178.1640  140.2030 N   0  0  0  0  0  0  0  0  0  0  0  0
  185.5250  177.8410  141.8150 C   0  0  0  0  0  0  0  0  0  0  0  0
  180.3640  179.1240  141.6430 C   0  0  0  0  0  0  0  0  0  0  0  0
  183.2270  178.5750  142.5930 C   0  0  0  0  0  2  0  0  0  0  0  0
  177.9510  179.0680  142.1070 C   0  0  0  0  0  1  0  0  0  0  0  0
  179.0140  179.3710  141.0700 C   0  0  0  0  0  2  0  0  0  0  0  0
  190.5340  176.6220  145.3650 C   0  0  2  0  0  3  0  0  0  0  0  0
  192.1980  176.6040  143.0940 S   0  0  0  0  0  0  0  0  0  0  0  0
  191.1600  174.5170  144.0220 C   0  0  0  0  0  3  0  0  0  0  0  0
  191.8840  174.1090  142.9450 N   0  0  0  0  0  0  0  0  0  0  0  0
  191.2170  175.8880  144.2560 C   0  0  0  0  0  0  0  0  0  0  0  0
  192.5080  175.1390  142.3350 C   0  0  0  0  0  0  0  0  0  0  0  0
  194.0050  174.8580  140.2370 N   0  0  0  0  0  0  0  0  0  0  0  0
  193.3370  174.9830  141.1740 C   0  0  0  0  0  0  0  0  0  0  0  0
  190.7640  175.9530  146.5720 O   0  0  0  0  0  0  0  0  0  0  0  0
  191.8530  176.5640  147.1010 N   0  0  0  0  0  2  0  0  0  0  0  0
  192.9580  175.6250  147.0050 C   0  0  0  0  0  2  0  0  0  0  0  0
  194.2060  176.3430  146.5220 C   0  0  0  0  0  2  0  0  0  0  0  0
  195.5710  176.1310  144.5850 O   0  0  0  0  0  0  0  0  0  0  0  0
  194.8560  175.5530  145.4440 C   0  0  0  0  0  0  0  0  0  0  0  0
  194.6500  174.1820  145.3650 O   0  0  0  0  0  1  0  0  0  0  0  0
  1 13  1  0  0  0  0
  1 15  1  0  0  0  0
  2  1  2  0  0  0  0
  3 17  1  0  0  0  0
  4 19  1  0  0  0  0
  8  9  1  0  0  0  0
  9 15  2  0  0  0  0
 10 22  1  1  0  0  0
 10  7  1  0  0  0  0
 11  4  1  0  0  0  0
 11 18  1  0  0  0  0
 12  3  2  0  0  0  0
 13 10  1  0  0  0  0
 14  7  1  0  0  0  0
 14  6  1  6  0  0  0
 15 14  1  0  0  0  0
 16  3  1  0  0  0  0
 16  4  2  0  0  0  0
 17  2  1  0  0  0  0
 17  8  2  0  0  0  0
 18  5  2  0  0  0  0
 19  8  1  0  0  0  0
 21 18  1  0  0  0  0
 21 20  1  0  0  0  0
 22 30  1  1  0  0  0
 23 26  1  0  0  0  0
 24 26  2  0  0  0  0
 25 24  1  0  0  0  0
 26 22  1  0  0  0  0
 27 25  2  0  0  0  0
 27 23  1  0  0  0  0
 28 29  3  0  0  0  0
 29 27  1  0  0  0  0
 30 31  1  0  0  0  0
 32 31  1  0  0  0  0
 33 32  1  0  0  0  0
 34 35  2  0  0  0  0
 35 33  1  0  0  0  0
 36 35  1  0  0  0  0
M  END
>  <MODEL>
3

>  <REMARK>
 VINA RESULT:      -7.3      1.017      1.264
  Name = 
  9 active torsions:
  status: ('A' for Active; 'I' for Inactive)
    1  A    between atoms: C_3  and  C_35
    2  A    between atoms: C_4  and  C_11
    3  A    between atoms: C_4  and  C_16
    4  A    between atoms: C_13  and  C_21
    5  A    between atoms: C_13  and  C_25
    6  A    between atoms: C_13  and  O_34
    7  A    between atoms: C_16  and  N_26
    8  A    between atoms: N_26  and  O_34
    9  A    between atoms: C_28  and  C_30
                            x       y       z     vdW  Elec       q    Type
                         _______ _______ _______ _____ _____    ______ ____

>  <TORSDO>
F 9

$$$$
=
 OpenBabel11042414423D

 36 39  0  0  1  0  0  0  0  0999 V2000
  188.1930  177.1460  144.0450 C   0  0  0  0  0  0  0  0  0  0  0  0
  189.0550  176.4760  144.9160 C   0  0  0  0  0  3  0  0  0  0  0  0
  191.3300  175.5920  145.4780 C   0  0  0  0  0  0  0  0  0  0  0  0
  193.1880  175.8710  143.9720 C   0  0  0  0  0  0  0  0  0  0  0  0
  194.7590  176.6690  141.6070 O   0  0  0  0  0  0  0  0  0  0  0  0
  187.5180  177.4800  140.6560 C   0  0  0  0  0  1  0  0  0  0  0  0
  186.4760  178.8310  142.4800 C   0  0  0  0  0  2  0  0  0  0  0  0
  190.9040  176.8320  143.3860 C   0  0  0  0  0  0  0  0  0  0  0  0
  190.0470  177.5160  142.5200 C   0  0  0  0  0  3  0  0  0  0  0  0
  185.8560  177.6970  143.2970 C   0  0  1  0  0  3  0  0  0  0  0  0
  194.5700  175.6070  143.6930 N   0  0  0  0  0  2  0  0  0  0  0  0
  190.9200  175.1000  146.6000 N   0  0  0  0  0  2  0  0  0  0  0  0
  186.7740  177.3800  144.4770 C   0  0  0  0  0  2  0  0  0  0  0  0
  187.7940  178.3800  141.8490 C   0  0  1  0  0  3  0  0  0  0  0  0
  188.6940  177.6820  142.8370 C   0  0  0  0  0  0  0  0  0  0  0  0
  192.6890  175.4060  145.0800 N   0  0  0  0  0  0  0  0  0  0  0  0
  190.4070  176.3090  144.5880 C   0  0  0  0  0  0  0  0  0  0  0  0
  195.3070  176.0180  142.5340 C   0  0  0  0  0  0  0  0  0  0  0  0
  192.3530  176.6910  143.0100 C   0  0  0  0  0  2  0  0  0  0  0  0
  197.1240  174.7080  143.5450 C   0  0  0  0  0  1  0  0  0  0  0  0
  196.7390  175.6370  142.4110 C   0  0  0  0  0  2  0  0  0  0  0  0
  184.4570  178.0810  143.7860 C   0  0  2  0  0  3  0  0  0  0  0  0
  181.9560  178.8990  142.7850 S   0  0  0  0  0  0  0  0  0  0  0  0
  183.7810  178.0220  141.3030 C   0  0  0  0  0  3  0  0  0  0  0  0
  182.7470  178.3090  140.4670 N   0  0  0  0  0  0  0  0  0  0  0  0
  183.5150  178.2870  142.6430 C   0  0  0  0  0  0  0  0  0  0  0  0
  181.6790  178.7970  141.1320 C   0  0  0  0  0  0  0  0  0  0  0  0
  179.4680  179.4890  139.9670 N   0  0  0  0  0  0  0  0  0  0  0  0
  180.4550  179.1800  140.4870 C   0  0  0  0  0  0  0  0  0  0  0  0
  184.5110  179.2480  144.5550 O   0  0  0  0  0  0  0  0  0  0  0  0
  183.6460  179.0270  145.5760 N   0  0  0  0  0  2  0  0  0  0  0  0
  184.4000  178.3930  146.6440 C   0  0  0  0  0  2  0  0  0  0  0  0
  185.5090  179.3170  147.1140 C   0  0  0  0  0  2  0  0  0  0  0  0
  186.4360  177.3080  147.9890 O   0  0  0  0  0  0  0  0  0  0  0  0
  186.4640  178.5650  147.9690 C   0  0  0  0  0  0  0  0  0  0  0  0
  187.3660  179.2510  148.7710 O   0  0  0  0  0  1  0  0  0  0  0  0
  1 13  1  0  0  0  0
  1  2  1  0  0  0  0
  3 12  2  0  0  0  0
  4 16  2  0  0  0  0
  5 18  2  0  0  0  0
  7 10  1  0  0  0  0
  8 17  1  0  0  0  0
  9 15  1  0  0  0  0
  9  8  2  0  0  0  0
 10 22  1  1  0  0  0
 10 13  1  0  0  0  0
 11  4  1  0  0  0  0
 14  6  1  6  0  0  0
 14  7  1  0  0  0  0
 14 15  1  0  0  0  0
 15  1  2  0  0  0  0
 16  3  1  0  0  0  0
 17  2  2  0  0  0  0
 17  3  1  0  0  0  0
 18 11  1  0  0  0  0
 19  8  1  0  0  0  0
 19  4  1  0  0  0  0
 21 18  1  0  0  0  0
 21 20  1  0  0  0  0
 22 30  1  6  0  0  0
 24 26  2  0  0  0  0
 25 27  2  0  0  0  0
 25 24  1  0  0  0  0
 26 23  1  0  0  0  0
 26 22  1  0  0  0  0
 27 23  1  0  0  0  0
 28 29  3  0  0  0  0
 29 27  1  0  0  0  0
 30 31  1  0  0  0  0
 31 32  1  0  0  0  0
 32 33  1  0  0  0  0
 33 35  1  0  0  0  0
 35 34  2  0  0  0  0
 35 36  1  0  0  0  0
M  END
>  <MODEL>
4

>  <REMARK>
 VINA RESULT:      -6.9      2.897      9.824
  Name = 
  9 active torsions:
  status: ('A' for Active; 'I' for Inactive)
    1  A    between atoms: C_3  and  C_35
    2  A    between atoms: C_4  and  C_11
    3  A    between atoms: C_4  and  C_16
    4  A    between atoms: C_13  and  C_21
    5  A    between atoms: C_13  and  C_25
    6  A    between atoms: C_13  and  O_34
    7  A    between atoms: C_16  and  N_26
    8  A    between atoms: N_26  and  O_34
    9  A    between atoms: C_28  and  C_30
                            x       y       z     vdW  Elec       q    Type
                         _______ _______ _______ _____ _____    ______ ____

>  <TORSDO>
F 9

$$$$
=
 OpenBabel11042414423D

 36 39  0  0  1  0  0  0  0  0999 V2000
  187.3920  177.2080  143.6750 C   0  0  0  0  0  0  0  0  0  0  0  0
  187.0350  177.2330  142.3250 C   0  0  0  0  0  3  0  0  0  0  0  0
  185.3460  177.6610  140.5260 C   0  0  0  0  0  0  0  0  0  0  0  0
  183.1230  178.4230  141.0520 C   0  0  0  0  0  0  0  0  0  0  0  0
  180.7780  179.3020  142.6090 O   0  0  0  0  0  0  0  0  0  0  0  0
  186.0840  176.4130  146.7910 C   0  0  0  0  0  1  0  0  0  0  0  0
  188.2970  177.4980  146.3830 C   0  0  0  0  0  2  0  0  0  0  0  0
  184.8270  178.0510  142.9080 C   0  0  0  0  0  0  0  0  0  0  0  0
  185.1870  178.0420  144.2570 C   0  0  0  0  0  3  0  0  0  0  0  0
  188.9340  176.4230  145.5010 C   0  0  1  0  0  3  0  0  0  0  0  0
  181.8190  178.7770  140.5700 N   0  0  0  0  0  2  0  0  0  0  0  0
  186.1680  177.3030  139.5950 N   0  0  0  0  0  2  0  0  0  0  0  0
  188.8040  176.8460  144.0370 C   0  0  0  0  0  2  0  0  0  0  0  0
  186.7920  177.5820  146.1250 C   0  0  1  0  0  3  0  0  0  0  0  0
  186.4640  177.6260  144.6540 C   0  0  0  0  0  0  0  0  0  0  0  0
  184.0130  178.0440  140.1820 N   0  0  0  0  0  0  0  0  0  0  0  0
  185.7530  177.6440  141.9370 C   0  0  0  0  0  0  0  0  0  0  0  0
  180.7010  179.2100  141.3550 C   0  0  0  0  0  0  0  0  0  0  0  0
  183.4490  178.5190  142.5290 C   0  0  0  0  0  2  0  0  0  0  0  0
  178.9080  178.2950  139.9450 C   0  0  0  0  0  1  0  0  0  0  0  0
  179.4150  179.5220  140.6780 C   0  0  0  0  0  2  0  0  0  0  0  0
  190.4030  176.2120  145.8760 C   0  0  2  0  0  3  0  0  0  0  0  0
  192.3380  175.3480  144.0220 S   0  0  0  0  0  0  0  0  0  0  0  0
  191.4260  177.6860  144.0290 C   0  0  0  0  0  3  0  0  0  0  0  0
  192.3200  177.6530  143.0050 N   0  0  0  0  0  0  0  0  0  0  0  0
  191.3070  176.4800  144.7150 C   0  0  0  0  0  0  0  0  0  0  0  0
  192.8990  176.4410  142.8770 C   0  0  0  0  0  0  0  0  0  0  0  0
  194.6710  175.8920  141.0650 N   0  0  0  0  0  0  0  0  0  0  0  0
  193.8800  176.1360  141.8740 C   0  0  0  0  0  0  0  0  0  0  0  0
  190.6080  174.9040  146.3270 O   0  0  0  0  0  0  0  0  0  0  0  0
  189.4880  174.2340  145.9610 N   0  0  0  0  0  2  0  0  0  0  0  0
  189.9150  172.9780  145.3680 C   0  0  0  0  0  2  0  0  0  0  0  0
  189.4450  172.9010  143.9260 C   0  0  0  0  0  2  0  0  0  0  0  0
  191.2380  171.3470  143.7460 O   0  0  0  0  0  1  0  0  0  0  0  0
  190.2740  171.9210  143.1760 C   0  0  0  0  0  0  0  0  0  0  0  0
  190.0060  171.6640  141.8390 O   0  0  0  0  0  0  0  0  0  0  0  0
  1 13  1  0  0  0  0
  1 15  1  0  0  0  0
  2  1  2  0  0  0  0
  3 17  1  0  0  0  0
  4 19  1  0  0  0  0
  8  9  1  0  0  0  0
  9 15  2  0  0  0  0
 10 22  1  1  0  0  0
 10  7  1  0  0  0  0
 11  4  1  0  0  0  0
 11 18  1  0  0  0  0
 12  3  2  0  0  0  0
 13 10  1  0  0  0  0
 14  7  1  0  0  0  0
 14  6  1  6  0  0  0
 15 14  1  0  0  0  0
 16  3  1  0  0  0  0
 16  4  2  0  0  0  0
 17  2  1  0  0  0  0
 17  8  2  0  0  0  0
 18  5  2  0  0  0  0
 19  8  1  0  0  0  0
 20 21  1  0  0  0  0
 21 18  1  0  0  0  0
 22 30  1  6  0  0  0
 23 26  1  0  0  0  0
 24 26  2  0  0  0  0
 25 24  1  0  0  0  0
 26 22  1  0  0  0  0
 27 25  2  0  0  0  0
 27 23  1  0  0  0  0
 28 29  3  0  0  0  0
 29 27  1  0  0  0  0
 31 30  1  0  0  0  0
 32 31  1  0  0  0  0
 33 32  1  0  0  0  0
 35 34  1  0  0  0  0
 35 33  1  0  0  0  0
 36 35  2  0  0  0  0
M  END
>  <MODEL>
5

>  <REMARK>
 VINA RESULT:      -6.8      2.009      2.396
  Name = 
  9 active torsions:
  status: ('A' for Active; 'I' for Inactive)
    1  A    between atoms: C_3  and  C_35
    2  A    between atoms: C_4  and  C_11
    3  A    between atoms: C_4  and  C_16
    4  A    between atoms: C_13  and  C_21
    5  A    between atoms: C_13  and  C_25
    6  A    between atoms: C_13  and  O_34
    7  A    between atoms: C_16  and  N_26
    8  A    between atoms: N_26  and  O_34
    9  A    between atoms: C_28  and  C_30
                            x       y       z     vdW  Elec       q    Type
                         _______ _______ _______ _____ _____    ______ ____

>  <TORSDO>
F 9

$$$$
=
 OpenBabel11042414423D

 36 39  0  0  1  0  0  0  0  0999 V2000
  188.4060  177.2340  142.9000 C   0  0  0  0  0  0  0  0  0  0  0  0
  187.8780  177.2230  141.6080 C   0  0  0  0  0  3  0  0  0  0  0  0
  185.9510  177.5400  140.0390 C   0  0  0  0  0  0  0  0  0  0  0  0
  183.7770  178.1910  140.8430 C   0  0  0  0  0  0  0  0  0  0  0  0
  181.6070  178.9660  142.6850 O   0  0  0  0  0  0  0  0  0  0  0  0
  187.5540  176.4100  146.1630 C   0  0  0  0  0  1  0  0  0  0  0  0
  189.6350  177.6040  145.4680 C   0  0  0  0  0  2  0  0  0  0  0  0
  185.7220  177.9320  142.4660 C   0  0  0  0  0  0  0  0  0  0  0  0
  186.2530  177.9590  143.7580 C   0  0  0  0  0  3  0  0  0  0  0  0
  190.2090  176.5540  144.5170 C   0  0  1  0  0  3  0  0  0  0  0  0
  182.4040  178.4700  140.5320 N   0  0  0  0  0  2  0  0  0  0  0  0
  186.6640  177.2130  139.0120 N   0  0  0  0  0  2  0  0  0  0  0  0
  189.8700  176.9510  143.0800 C   0  0  0  0  0  2  0  0  0  0  0  0
  188.1070  177.6060  145.4050 C   0  0  1  0  0  3  0  0  0  0  0  0
  187.5900  177.6150  143.9890 C   0  0  0  0  0  0  0  0  0  0  0  0
  184.5670  177.8480  139.8680 N   0  0  0  0  0  0  0  0  0  0  0  0
  186.5370  177.5620  141.3870 C   0  0  0  0  0  0  0  0  0  0  0  0
  181.3750  178.8540  141.4520 C   0  0  0  0  0  0  0  0  0  0  0  0
  184.2840  178.3220  142.2650 C   0  0  0  0  0  2  0  0  0  0  0  0
  179.8310  180.5480  140.5670 C   0  0  0  0  0  1  0  0  0  0  0  0
  179.9970  179.0900  140.9450 C   0  0  0  0  0  2  0  0  0  0  0  0
  191.7240  176.4240  144.7000 C   0  0  2  0  0  3  0  0  0  0  0  0
  191.2340  173.8170  143.7550 S   0  0  0  0  0  0  0  0  0  0  0  0
  193.5520  174.7180  144.0880 C   0  0  0  0  0  3  0  0  0  0  0  0
  193.7230  173.4500  143.6260 N   0  0  0  0  0  0  0  0  0  0  0  0
  192.2190  175.0950  144.2250 C   0  0  0  0  0  0  0  0  0  0  0  0
  192.5450  172.8310  143.3980 C   0  0  0  0  0  0  0  0  0  0  0  0
  192.3590  170.4010  142.5140 N   0  0  0  0  0  0  0  0  0  0  0  0
  192.4420  171.4860  142.9090 C   0  0  0  0  0  0  0  0  0  0  0  0
  192.0690  176.5910  146.0450 O   0  0  0  0  0  0  0  0  0  0  0  0
  191.5720  175.4930  146.6670 N   0  0  0  0  0  2  0  0  0  0  0  0
  191.2400  175.8860  148.0260 C   0  0  0  0  0  2  0  0  0  0  0  0
  192.0520  177.1060  148.4240 C   0  0  0  0  0  2  0  0  0  0  0  0
  191.5390  178.1390  150.5060 O   0  0  0  0  0  1  0  0  0  0  0  0
  191.2350  177.9930  149.2940 C   0  0  0  0  0  0  0  0  0  0  0  0
  190.1190  178.6370  148.7760 O   0  0  0  0  0  0  0  0  0  0  0  0
  1 13  1  0  0  0  0
  1 15  1  0  0  0  0
  2  1  2  0  0  0  0
  3 17  1  0  0  0  0
  4 19  1  0  0  0  0
  8  9  1  0  0  0  0
  9 15  2  0  0  0  0
 10 22  1  6  0  0  0
 10  7  1  0  0  0  0
 11  4  1  0  0  0  0
 11 18  1  0  0  0  0
 12  3  2  0  0  0  0
 13 10  1  0  0  0  0
 14  7  1  0  0  0  0
 14  6  1  6  0  0  0
 15 14  1  0  0  0  0
 16  3  1  0  0  0  0
 16  4  2  0  0  0  0
 17  2  1  0  0  0  0
 17  8  2  0  0  0  0
 18  5  2  0  0  0  0
 19  8  1  0  0  0  0
 20 21  1  0  0  0  0
 21 18  1  0  0  0  0
 22 30  1  1  0  0  0
 23 26  1  0  0  0  0
 24 26  2  0  0  0  0
 25 24  1  0  0  0  0
 26 22  1  0  0  0  0
 27 25  2  0  0  0  0
 27 23  1  0  0  0  0
 28 29  3  0  0  0  0
 29 27  1  0  0  0  0
 30 31  1  0  0  0  0
 31 32  1  0  0  0  0
 32 33  1  0  0  0  0
 33 35  1  0  0  0  0
 35 34  1  0  0  0  0
 36 35  2  0  0  0  0
M  END
>  <MODEL>
6

>  <REMARK>
 VINA RESULT:      -6.7      1.933      2.770
  Name = 
  9 active torsions:
  status: ('A' for Active; 'I' for Inactive)
    1  A    between atoms: C_3  and  C_35
    2  A    between atoms: C_4  and  C_11
    3  A    between atoms: C_4  and  C_16
    4  A    between atoms: C_13  and  C_21
    5  A    between atoms: C_13  and  C_25
    6  A    between atoms: C_13  and  O_34
    7  A    between atoms: C_16  and  N_26
    8  A    between atoms: N_26  and  O_34
    9  A    between atoms: C_28  and  C_30
                            x       y       z     vdW  Elec       q    Type
                         _______ _______ _______ _____ _____    ______ ____

>  <TORSDO>
F 9

$$$$
=
 OpenBabel11042414423D

 36 39  0  0  1  0  0  0  0  0999 V2000
  187.6970  177.5640  144.1980 C   0  0  0  0  0  0  0  0  0  0  0  0
  187.4820  177.5540  142.8180 C   0  0  0  0  0  3  0  0  0  0  0  0
  185.9530  177.7950  140.8500 C   0  0  0  0  0  0  0  0  0  0  0  0
  183.6140  178.2940  141.1360 C   0  0  0  0  0  0  0  0  0  0  0  0
  181.0340  178.8910  142.4330 O   0  0  0  0  0  0  0  0  0  0  0  0
  186.1700  176.6090  147.1660 C   0  0  0  0  0  1  0  0  0  0  0  0
  188.2740  177.9430  146.9840 C   0  0  0  0  0  2  0  0  0  0  0  0
  185.1450  178.1110  143.1620 C   0  0  0  0  0  0  0  0  0  0  0  0
  185.3620  178.1370  144.5410 C   0  0  0  0  0  3  0  0  0  0  0  0
  189.1180  176.9530  146.1810 C   0  0  1  0  0  3  0  0  0  0  0  0
  182.3350  178.4980  140.5180 N   0  0  0  0  0  2  0  0  0  0  0  0
  186.9020  177.5370  140.0120 N   0  0  0  0  0  2  0  0  0  0  0  0
  189.0950  177.3650  144.7090 C   0  0  0  0  0  2  0  0  0  0  0  0
  186.8050  177.8550  146.5690 C   0  0  1  0  0  3  0  0  0  0  0  0
  186.6290  177.8690  145.0720 C   0  0  0  0  0  0  0  0  0  0  0  0
  184.6280  178.0230  140.3660 N   0  0  0  0  0  0  0  0  0  0  0  0
  186.2090  177.8170  142.2960 C   0  0  0  0  0  0  0  0  0  0  0  0
  181.0990  178.7960  141.1790 C   0  0  0  0  0  0  0  0  0  0  0  0
  183.7710  178.4190  142.6370 C   0  0  0  0  0  2  0  0  0  0  0  0
  178.8400  177.9190  140.7720 C   0  0  0  0  0  1  0  0  0  0  0  0
  179.8640  178.9620  140.3680 C   0  0  0  0  0  2  0  0  0  0  0  0
  190.5550  176.9090  146.7090 C   0  0  2  0  0  3  0  0  0  0  0  0
  192.8000  176.7210  145.0200 S   0  0  0  0  0  0  0  0  0  0  0  0
  191.3010  174.7650  145.4930 C   0  0  0  0  0  3  0  0  0  0  0  0
  192.2570  174.2880  144.6520 N   0  0  0  0  0  0  0  0  0  0  0  0
  191.4440  176.1140  145.8070 C   0  0  0  0  0  0  0  0  0  0  0  0
  193.1470  175.2410  144.3050 C   0  0  0  0  0  0  0  0  0  0  0  0
  195.1530  174.8090  142.7190 N   0  0  0  0  0  0  0  0  0  0  0  0
  194.2570  175.0030  143.4270 C   0  0  0  0  0  0  0  0  0  0  0  0
  190.5870  176.3560  147.9930 O   0  0  0  0  0  0  0  0  0  0  0  0
  191.5700  177.0350  148.6350 N   0  0  0  0  0  2  0  0  0  0  0  0
  190.9220  177.9430  149.5670 C   0  0  0  0  0  2  0  0  0  0  0  0
  191.8740  178.2880  150.6980 C   0  0  0  0  0  2  0  0  0  0  0  0
  191.9540  176.2470  151.9200 O   0  0  0  0  0  0  0  0  0  0  0  0
  191.5720  177.4450  151.8850 C   0  0  0  0  0  0  0  0  0  0  0  0
  190.8420  177.9710  152.9430 O   0  0  0  0  0  1  0  0  0  0  0  0
  1 13  1  0  0  0  0
  1 15  1  0  0  0  0
  2  1  2  0  0  0  0
  3 17  1  0  0  0  0
  4 19  1  0  0  0  0
  8  9  1  0  0  0  0
  9 15  2  0  0  0  0
 10 22  1  1  0  0  0
 10  7  1  0  0  0  0
 11  4  1  0  0  0  0
 11 18  1  0  0  0  0
 12  3  2  0  0  0  0
 13 10  1  0  0  0  0
 14  7  1  0  0  0  0
 14  6  1  6  0  0  0
 15 14  1  0  0  0  0
 16  3  1  0  0  0  0
 16  4  2  0  0  0  0
 17  2  1  0  0  0  0
 17  8  2  0  0  0  0
 18  5  2  0  0  0  0
 19  8  1  0  0  0  0
 21 20  1  0  0  0  0
 21 18  1  0  0  0  0
 22 30  1  1  0  0  0
 23 26  1  0  0  0  0
 24 26  2  0  0  0  0
 25 24  1  0  0  0  0
 26 22  1  0  0  0  0
 27 25  2  0  0  0  0
 27 23  1  0  0  0  0
 28 29  3  0  0  0  0
 29 27  1  0  0  0  0
 30 31  1  0  0  0  0
 31 32  1  0  0  0  0
 32 33  1  0  0  0  0
 33 35  1  0  0  0  0
 35 34  2  0  0  0  0
 35 36  1  0  0  0  0
M  END
>  <MODEL>
7

>  <REMARK>
 VINA RESULT:      -6.7      2.324      2.852
  Name = 
  9 active torsions:
  status: ('A' for Active; 'I' for Inactive)
    1  A    between atoms: C_3  and  C_35
    2  A    between atoms: C_4  and  C_11
    3  A    between atoms: C_4  and  C_16
    4  A    between atoms: C_13  and  C_21
    5  A    between atoms: C_13  and  C_25
    6  A    between atoms: C_13  and  O_34
    7  A    between atoms: C_16  and  N_26
    8  A    between atoms: N_26  and  O_34
    9  A    between atoms: C_28  and  C_30
                            x       y       z     vdW  Elec       q    Type
                         _______ _______ _______ _____ _____    ______ ____

>  <TORSDO>
F 9

$$$$
=
 OpenBabel11042414423D

 36 39  0  0  1  0  0  0  0  0999 V2000
  191.8680  175.2060  144.0610 C   0  0  0  0  0  0  0  0  0  0  0  0
  191.0140  174.9520  142.9850 C   0  0  0  0  0  3  0  0  0  0  0  0
  188.8230  175.2820  141.8180 C   0  0  0  0  0  0  0  0  0  0  0  0
  187.1040  176.6830  142.7580 C   0  0  0  0  0  0  0  0  0  0  0  0
  185.6940  178.5010  144.6030 O   0  0  0  0  0  0  0  0  0  0  0  0
  191.8040  175.6310  147.5060 C   0  0  0  0  0  1  0  0  0  0  0  0
  193.7960  175.9840  146.0410 C   0  0  0  0  0  2  0  0  0  0  0  0
  189.3380  176.4170  143.9500 C   0  0  0  0  0  0  0  0  0  0  0  0
  190.1970  176.6840  145.0190 C   0  0  0  0  0  3  0  0  0  0  0  0
  193.8910  174.5880  145.4230 C   0  0  1  0  0  3  0  0  0  0  0  0
  185.7720  177.2040  142.6460 N   0  0  0  0  0  2  0  0  0  0  0  0
  189.1580  174.4940  140.8510 N   0  0  0  0  0  2  0  0  0  0  0  0
  193.2500  174.6180  144.0350 C   0  0  0  0  0  2  0  0  0  0  0  0
  192.3350  176.3640  146.2840 C   0  0  1  0  0  3  0  0  0  0  0  0
  191.4620  176.0890  145.0860 C   0  0  0  0  0  0  0  0  0  0  0  0
  187.5230  175.8750  141.8280 N   0  0  0  0  0  0  0  0  0  0  0  0
  189.7470  175.5470  142.9300 C   0  0  0  0  0  0  0  0  0  0  0  0
  185.1190  178.0950  143.5590 C   0  0  0  0  0  0  0  0  0  0  0  0
  187.9940  177.0900  143.9140 C   0  0  0  0  0  2  0  0  0  0  0  0
  183.3570  178.1980  141.8470 C   0  0  0  0  0  1  0  0  0  0  0  0
  183.7210  178.5210  143.2840 C   0  0  0  0  0  2  0  0  0  0  0  0
  195.3490  174.1290  145.3370 C   0  0  2  0  0  3  0  0  0  0  0  0
  196.2630  173.8230  142.6910 S   0  0  0  0  0  0  0  0  0  0  0  0
  196.5380  175.9620  143.9740 C   0  0  0  0  0  3  0  0  0  0  0  0
  197.0930  176.2000  142.7550 N   0  0  0  0  0  0  0  0  0  0  0  0
  196.0230  174.6770  144.1200 C   0  0  0  0  0  0  0  0  0  0  0  0
  197.0180  175.1240  141.9450 C   0  0  0  0  0  0  0  0  0  0  0  0
  197.9410  175.0960  139.5220 N   0  0  0  0  0  0  0  0  0  0  0  0
  197.5290  175.1080  140.6040 C   0  0  0  0  0  0  0  0  0  0  0  0
  195.4210  172.7330  145.3150 O   0  0  0  0  0  0  0  0  0  0  0  0
  196.5080  172.4330  146.0690 N   0  0  0  0  0  2  0  0  0  0  0  0
  196.8710  171.0590  145.7660 C   0  0  0  0  0  2  0  0  0  0  0  0
  195.6440  170.1690  145.8520 C   0  0  0  0  0  2  0  0  0  0  0  0
  196.8420  169.1160  147.6190 O   0  0  0  0  0  1  0  0  0  0  0  0
  195.7320  169.3030  147.0580 C   0  0  0  0  0  0  0  0  0  0  0  0
  194.5940  168.6760  147.5470 O   0  0  0  0  0  0  0  0  0  0  0  0
  1 15  1  0  0  0  0
  2  1  2  0  0  0  0
  3 16  1  0  0  0  0
  3 17  1  0  0  0  0
  4 19  1  0  0  0  0
  7 14  1  0  0  0  0
  8  9  1  0  0  0  0
  9 15  2  0  0  0  0
 10 22  1  6  0  0  0
 10  7  1  0  0  0  0
 11  4  1  0  0  0  0
 11 18  1  0  0  0  0
 12  3  2  0  0  0  0
 13  1  1  0  0  0  0
 13 10  1  0  0  0  0
 14  6  1  1  0  0  0
 15 14  1  0  0  0  0
 16  4  2  0  0  0  0
 17  2  1  0  0  0  0
 17  8  2  0  0  0  0
 18  5  2  0  0  0  0
 19  8  1  0  0  0  0
 20 21  1  0  0  0  0
 21 18  1  0  0  0  0
 22 30  1  6  0  0  0
 23 26  1  0  0  0  0
 24 26  2  0  0  0  0
 25 24  1  0  0  0  0
 26 22  1  0  0  0  0
 27 23  1  0  0  0  0
 27 25  2  0  0  0  0
 28 29  3  0  0  0  0
 29 27  1  0  0  0  0
 30 31  1  0  0  0  0
 32 33  1  0  0  0  0
 32 31  1  0  0  0  0
 33 35  1  0  0  0  0
 35 36  2  0  0  0  0
 35 34  1  0  0  0  0
M  END
>  <MODEL>
8

>  <REMARK>
 VINA RESULT:      -6.7      3.665      5.907
  Name = 
  9 active torsions:
  status: ('A' for Active; 'I' for Inactive)
    1  A    between atoms: C_3  and  C_35
    2  A    between atoms: C_4  and  C_11
    3  A    between atoms: C_4  and  C_16
    4  A    between atoms: C_13  and  C_21
    5  A    between atoms: C_13  and  C_25
    6  A    between atoms: C_13  and  O_34
    7  A    between atoms: C_16  and  N_26
    8  A    between atoms: N_26  and  O_34
    9  A    between atoms: C_28  and  C_30
                            x       y       z     vdW  Elec       q    Type
                         _______ _______ _______ _____ _____    ______ ____

>  <TORSDO>
F 9

$$$$
=
 OpenBabel11042414423D

 36 39  0  0  1  0  0  0  0  0999 V2000
  188.5150  176.2680  144.7470 C   0  0  0  0  0  0  0  0  0  0  0  0
  187.6960  177.2250  145.3510 C   0  0  0  0  0  3  0  0  0  0  0  0
  185.6290  178.6390  145.3480 C   0  0  0  0  0  0  0  0  0  0  0  0
  184.0470  178.5370  143.5350 C   0  0  0  0  0  0  0  0  0  0  0  0
  182.7660  177.7450  140.9990 O   0  0  0  0  0  0  0  0  0  0  0  0
  189.6690  175.3040  141.6180 C   0  0  0  0  0  1  0  0  0  0  0  0
  190.0350  174.0480  143.7460 C   0  0  0  0  0  2  0  0  0  0  0  0
  186.1090  177.0430  143.5260 C   0  0  0  0  0  0  0  0  0  0  0  0
  186.9180  176.0740  142.9270 C   0  0  0  0  0  3  0  0  0  0  0  0
  190.7520  175.1350  144.5470 C   0  0  1  0  0  3  0  0  0  0  0  0
  182.8340  179.0410  142.9570 N   0  0  0  0  0  2  0  0  0  0  0  0
  185.9430  179.1950  146.4710 N   0  0  0  0  0  2  0  0  0  0  0  0
  189.7430  175.8090  145.4790 C   0  0  0  0  0  2  0  0  0  0  0  0
  188.9880  174.6680  142.8180 C   0  0  1  0  0  3  0  0  0  0  0  0
  188.1190  175.6770  143.5260 C   0  0  0  0  0  0  0  0  0  0  0  0
  184.4410  179.0460  144.6660 N   0  0  0  0  0  0  0  0  0  0  0  0
  186.4990  177.6210  144.7420 C   0  0  0  0  0  0  0  0  0  0  0  0
  182.2330  178.6270  141.7240 C   0  0  0  0  0  0  0  0  0  0  0  0
  184.8210  177.4270  142.8530 C   0  0  0  0  0  2  0  0  0  0  0  0
  179.8130  178.3130  141.4290 C   0  0  0  0  0  1  0  0  0  0  0  0
  180.9740  179.2770  141.2750 C   0  0  0  0  0  2  0  0  0  0  0  0
  191.9160  174.5440  145.3460 C   0  0  2  0  0  3  0  0  0  0  0  0
  194.1170  175.2310  143.7300 S   0  0  0  0  0  0  0  0  0  0  0  0
  193.7600  176.2130  146.0110 C   0  0  0  0  0  3  0  0  0  0  0  0
  194.9070  176.7820  145.5520 N   0  0  0  0  0  0  0  0  0  0  0  0
  193.1790  175.3130  145.1230 C   0  0  0  0  0  0  0  0  0  0  0  0
  195.2300  176.3420  144.3170 C   0  0  0  0  0  0  0  0  0  0  0  0
  197.3320  177.1400  143.0250 N   0  0  0  0  0  0  0  0  0  0  0  0
  196.3940  176.7840  143.6020 C   0  0  0  0  0  0  0  0  0  0  0  0
  192.1220  173.2060  144.9920 O   0  0  0  0  0  0  0  0  0  0  0  0
  193.1450  172.7950  145.7820 N   0  0  0  0  0  2  0  0  0  0  0  0
  193.8370  171.7360  145.0680 C   0  0  0  0  0  2  0  0  0  0  0  0
  195.1630  171.4370  145.7440 C   0  0  0  0  0  2  0  0  0  0  0  0
  196.5840  172.3660  144.0760 O   0  0  0  0  0  0  0  0  0  0  0  0
  196.1970  172.3960  145.2730 C   0  0  0  0  0  0  0  0  0  0  0  0
  196.7600  173.3030  146.1610 O   0  0  0  0  0  1  0  0  0  0  0  0
  1  2  1  0  0  0  0
  1 13  1  0  0  0  0
  3 12  2  0  0  0  0
  4 16  2  0  0  0  0
  5 18  2  0  0  0  0
  7 10  1  0  0  0  0
  8 17  1  0  0  0  0
  9  8  2  0  0  0  0
  9 15  1  0  0  0  0
 10 22  1  1  0  0  0
 10 13  1  0  0  0  0
 11  4  1  0  0  0  0
 14  6  1  6  0  0  0
 14 15  1  0  0  0  0
 14  7  1  0  0  0  0
 15  1  2  0  0  0  0
 16  3  1  0  0  0  0
 17  3  1  0  0  0  0
 17  2  2  0  0  0  0
 18 11  1  0  0  0  0
 19  8  1  0  0  0  0
 19  4  1  0  0  0  0
 21 20  1  0  0  0  0
 21 18  1  0  0  0  0
 22 30  1  6  0  0  0
 23 27  1  0  0  0  0
 23 26  1  0  0  0  0
 25 24  1  0  0  0  0
 26 22  1  0  0  0  0
 26 24  2  0  0  0  0
 27 25  2  0  0  0  0
 28 29  3  0  0  0  0
 29 27  1  0  0  0  0
 30 31  1  0  0  0  0
 32 33  1  0  0  0  0
 32 31  1  0  0  0  0
 34 35  2  0  0  0  0
 35 33  1  0  0  0  0
 35 36  1  0  0  0  0
M  END
>  <MODEL>
9

>  <REMARK>
 VINA RESULT:      -6.6      2.853      4.039
  Name = 
  9 active torsions:
  status: ('A' for Active; 'I' for Inactive)
    1  A    between atoms: C_3  and  C_35
    2  A    between atoms: C_4  and  C_11
    3  A    between atoms: C_4  and  C_16
    4  A    between atoms: C_13  and  C_21
    5  A    between atoms: C_13  and  C_25
    6  A    between atoms: C_13  and  O_34
    7  A    between atoms: C_16  and  N_26
    8  A    between atoms: N_26  and  O_34
    9  A    between atoms: C_28  and  C_30
                            x       y       z     vdW  Elec       q    Type
                         _______ _______ _______ _____ _____    ______ ____

>  <TORSDO>
F 9

$$$$
