=
 OpenBabel11042414223D

 27 29  0  0  1  0  0  0  0  0999 V2000
  187.4960  176.9560  146.4100 C   0  0  0  0  0  0  0  0  0  0  0  0
  189.8390  177.4860  145.5960 C   0  0  2  0  0  3  0  0  0  0  0  0
  185.1470  177.2190  146.6630 N   0  0  0  0  0  0  0  0  0  0  0  0
  190.4290  177.7510  142.8100 C   0  0  0  0  0  3  0  0  0  0  0  0
  187.4340  177.5780  145.1800 C   0  0  0  0  0  0  0  0  0  0  0  0
  186.2120  178.0230  144.6710 C   0  0  0  0  0  3  0  0  0  0  0  0
  185.0610  177.8260  145.4440 C   0  0  0  0  0  3  0  0  0  0  0  0
  191.0500  176.9240  144.9830 N   0  0  0  0  0  0  0  0  0  0  0  0
  189.1260  176.4150  146.9100 S   0  0  0  0  0  0  0  0  0  0  0  0
  189.0410  177.9230  143.2790 C   0  0  0  0  0  0  0  0  0  0  0  0
  186.3360  176.7820  147.1640 C   0  0  0  0  0  3  0  0  0  0  0  0
  191.3680  177.2610  143.6240 C   0  0  0  0  0  3  0  0  0  0  0  0
  188.7550  177.7210  144.5790 C   0  0  0  0  0  0  0  0  0  0  0  0
  187.9900  178.2290  142.2600 C   0  0  0  0  0  2  0  0  0  0  0  0
  187.9460  177.1760  141.2570 N   0  0  0  0  0  2  0  0  0  0  0  0
  186.9150  176.2310  141.6570 C   0  0  0  0  0  2  0  0  0  0  0  0
  187.5580  174.9440  142.1430 C   0  0  0  0  0  2  0  0  0  0  0  0
  188.8460  174.6740  141.3790 C   0  0  1  0  0  3  0  0  0  0  0  0
  189.8650  173.9630  142.2680 C   0  0  0  0  0  2  0  0  0  0  0  0
  189.4910  174.0360  143.7410 C   0  0  0  0  0  1  0  0  0  0  0  0
  189.8440  173.5300  139.7640 C   0  0  0  0  0  1  0  0  0  0  0  0
  188.5880  173.9210  140.2290 O   0  0  0  0  0  0  0  0  0  0  0  0
  192.1140  176.3910  145.8240 C   0  0  0  0  0  2  0  0  0  0  0  0
  195.6930  176.2990  144.4930 N   0  0  0  0  0  1  0  0  0  0  0  0
  194.5740  176.6790  145.2830 C   0  0  0  0  0  0  0  0  0  0  0  0
  193.2960  176.1010  145.0210 N   0  0  0  0  0  2  0  0  0  0  0  0
  194.7180  177.5300  146.2000 O   0  0  0  0  0  0  0  0  0  0  0  0
  1  9  1  0  0  0  0
  1 11  1  0  0  0  0
  2 13  1  6  0  0  0
  2  9  1  0  0  0  0
  3 11  2  0  0  0  0
  4 10  1  0  0  0  0
  4 12  2  0  0  0  0
  5  1  2  0  0  0  0
  6  5  1  0  0  0  0
  6  7  2  0  0  0  0
  7  3  1  0  0  0  0
  8  2  1  0  0  0  0
  8 23  1  0  0  0  0
 10 13  2  0  0  0  0
 12  8  1  0  0  0  0
 13  5  1  0  0  0  0
 14 10  1  0  0  0  0
 15 16  1  0  0  0  0
 15 14  1  0  0  0  0
 16 17  1  0  0  0  0
 18 17  1  1  0  0  0
 18 19  1  0  0  0  0
 19 20  1  0  0  0  0
 21 22  1  0  0  0  0
 22 18  1  0  0  0  0
 24 25  1  0  0  0  0
 25 27  2  0  0  0  0
 26 25  1  0  0  0  0
 26 23  1  0  0  0  0
M  END
>  <MODEL>
1

>  <REMARK>
 VINA RESULT:      -5.9      0.000      0.000
  Name = 
  9 active torsions:
  status: ('A' for Active; 'I' for Inactive)
    1  A    between atoms: C_4  and  C_26
    2  A    between atoms: C_8  and  C_13
    3  A    between atoms: C_8  and  C_26
    4  A    between atoms: C_10  and  C_16
    5  A    between atoms: C_10  and  N_17
    6  A    between atoms: C_13  and  N_17
    7  A    between atoms: N_14  and  C_22
    8  A    between atoms: N_21  and  C_22
    9  A    between atoms: C_26  and  O_27
                            x       y       z     vdW  Elec       q    Type
                         _______ _______ _______ _____ _____    ______ ____

>  <TORSDO>
F 9

$$$$
=
 OpenBabel11042414223D

 27 29  0  0  1  0  0  0  0  0999 V2000
  184.7170  178.3350  145.1550 C   0  0  0  0  0  0  0  0  0  0  0  0
  184.6190  177.6420  142.7170 C   0  0  2  0  0  3  0  0  0  0  0  0
  185.2470  178.1670  147.4670 N   0  0  0  0  0  0  0  0  0  0  0  0
  186.9880  176.9910  141.2520 C   0  0  0  0  0  3  0  0  0  0  0  0
  185.8120  177.5560  144.8460 C   0  0  0  0  0  0  0  0  0  0  0  0
  186.6500  177.0780  145.8570 C   0  0  0  0  0  3  0  0  0  0  0  0
  186.3430  177.4050  147.1830 C   0  0  0  0  0  3  0  0  0  0  0  0
  184.8470  178.0860  141.3350 N   0  0  0  0  0  0  0  0  0  0  0  0
  183.7600  178.8970  143.7520 S   0  0  0  0  0  0  0  0  0  0  0  0
  187.0010  176.9180  142.7250 C   0  0  0  0  0  0  0  0  0  0  0  0
  184.4270  178.6380  146.4850 C   0  0  0  0  0  3  0  0  0  0  0  0
  185.9670  177.5620  140.6070 C   0  0  0  0  0  3  0  0  0  0  0  0
  185.9080  177.3000  143.4130 C   0  0  0  0  0  0  0  0  0  0  0  0
  188.2730  176.5060  143.3960 C   0  0  0  0  0  2  0  0  0  0  0  0
  189.2810  177.5420  143.2360 N   0  0  0  0  0  2  0  0  0  0  0  0
  190.0100  177.6440  144.4900 C   0  0  0  0  0  2  0  0  0  0  0  0
  190.0940  176.2780  145.1490 C   0  0  0  0  0  2  0  0  0  0  0  0
  191.1300  176.2910  146.2630 C   0  0  1  0  0  3  0  0  0  0  0  0
  190.6590  175.4580  147.4540 C   0  0  0  0  0  2  0  0  0  0  0  0
  189.3210  174.7820  147.1870 C   0  0  0  0  0  1  0  0  0  0  0  0
  193.3130  176.4080  146.6330 C   0  0  0  0  0  1  0  0  0  0  0  0
  192.3630  175.8230  145.7940 O   0  0  0  0  0  0  0  0  0  0  0  0
  183.7640  178.7000  140.5780 C   0  0  0  0  0  2  0  0  0  0  0  0
  180.0770  177.7690  140.9320 N   0  0  0  0  0  1  0  0  0  0  0  0
  181.2420  178.5730  140.8070 C   0  0  0  0  0  0  0  0  0  0  0  0
  182.5270  177.9520  140.7660 N   0  0  0  0  0  2  0  0  0  0  0  0
  181.1330  179.8260  140.7440 O   0  0  0  0  0  0  0  0  0  0  0  0
  1 11  1  0  0  0  0
  2 13  1  1  0  0  0
  2  9  1  0  0  0  0
  4 10  1  0  0  0  0
  5  1  2  0  0  0  0
  5  6  1  0  0  0  0
  6  7  2  0  0  0  0
  7  3  1  0  0  0  0
  8  2  1  0  0  0  0
  9  1  1  0  0  0  0
 10 14  1  0  0  0  0
 10 13  2  0  0  0  0
 11  3  2  0  0  0  0
 12  4  2  0  0  0  0
 12  8  1  0  0  0  0
 13  5  1  0  0  0  0
 15 14  1  0  0  0  0
 15 16  1  0  0  0  0
 16 17  1  0  0  0  0
 18 17  1  6  0  0  0
 18 19  1  0  0  0  0
 20 19  1  0  0  0  0
 22 18  1  0  0  0  0
 22 21  1  0  0  0  0
 23 26  1  0  0  0  0
 23  8  1  0  0  0  0
 25 24  1  0  0  0  0
 26 25  1  0  0  0  0
 27 25  2  0  0  0  0
M  END
>  <MODEL>
2

>  <REMARK>
 VINA RESULT:      -5.9      3.587      7.173
  Name = 
  9 active torsions:
  status: ('A' for Active; 'I' for Inactive)
    1  A    between atoms: C_4  and  C_26
    2  A    between atoms: C_8  and  C_13
    3  A    between atoms: C_8  and  C_26
    4  A    between atoms: C_10  and  C_16
    5  A    between atoms: C_10  and  N_17
    6  A    between atoms: C_13  and  N_17
    7  A    between atoms: N_14  and  C_22
    8  A    between atoms: N_21  and  C_22
    9  A    between atoms: C_26  and  O_27
                            x       y       z     vdW  Elec       q    Type
                         _______ _______ _______ _____ _____    ______ ____

>  <TORSDO>
F 9

$$$$
=
 OpenBabel11042414223D

 27 29  0  0  1  0  0  0  0  0999 V2000
  186.4810  177.5680  145.6670 C   0  0  0  0  0  0  0  0  0  0  0  0
  187.7320  177.5260  143.4620 C   0  0  2  0  0  3  0  0  0  0  0  0
  184.9160  178.3210  147.2910 N   0  0  0  0  0  0  0  0  0  0  0  0
  186.3510  177.3630  140.9620 C   0  0  0  0  0  3  0  0  0  0  0  0
  185.6710  178.0510  144.6610 C   0  0  0  0  0  0  0  0  0  0  0  0
  184.4570  178.6730  144.9650 C   0  0  0  0  0  3  0  0  0  0  0  0
  184.0940  178.7970  146.3120 C   0  0  0  0  0  3  0  0  0  0  0  0
  188.1850  176.6690  142.3570 N   0  0  0  0  0  0  0  0  0  0  0  0
  187.9840  176.7690  145.1190 S   0  0  0  0  0  0  0  0  0  0  0  0
  185.6390  177.8590  142.1550 C   0  0  0  0  0  0  0  0  0  0  0  0
  186.1000  177.7120  147.0010 C   0  0  0  0  0  3  0  0  0  0  0  0
  187.5500  176.7860  141.0750 C   0  0  0  0  0  3  0  0  0  0  0  0
  186.2700  177.8600  143.3450 C   0  0  0  0  0  0  0  0  0  0  0  0
  184.2050  178.2560  142.0030 C   0  0  0  0  0  2  0  0  0  0  0  0
  183.8400  178.2770  140.5940 N   0  0  0  0  0  2  0  0  0  0  0  0
  182.3880  178.3000  140.5180 C   0  0  0  0  0  2  0  0  0  0  0  0
  181.8010  178.4590  141.9090 C   0  0  0  0  0  2  0  0  0  0  0  0
  180.5360  179.3040  141.8560 C   0  0  1  0  0  3  0  0  0  0  0  0
  180.0880  179.5200  140.4120 C   0  0  0  0  0  2  0  0  0  0  0  0
  179.7370  180.9750  140.1320 C   0  0  0  0  0  1  0  0  0  0  0  0
  179.0100  177.6980  141.7800 C   0  0  0  0  0  1  0  0  0  0  0  0
  179.5150  178.7070  142.6030 O   0  0  0  0  0  0  0  0  0  0  0  0
  189.4920  176.0290  142.4190 C   0  0  0  0  0  2  0  0  0  0  0  0
  189.2510  172.2180  142.3690 N   0  0  0  0  0  1  0  0  0  0  0  0
  189.4080  173.5370  142.8750 C   0  0  0  0  0  0  0  0  0  0  0  0
  189.3990  174.6440  141.9740 N   0  0  0  0  0  2  0  0  0  0  0  0
  189.5650  173.7160  144.1110 O   0  0  0  0  0  0  0  0  0  0  0  0
  1 11  1  0  0  0  0
  2 13  1  6  0  0  0
  2  9  1  0  0  0  0
  4 12  2  0  0  0  0
  4 10  1  0  0  0  0
  5  6  1  0  0  0  0
  5  1  2  0  0  0  0
  6  7  2  0  0  0  0
  7  3  1  0  0  0  0
  8 23  1  0  0  0  0
  8  2  1  0  0  0  0
  9  1  1  0  0  0  0
 10 13  2  0  0  0  0
 11  3  2  0  0  0  0
 12  8  1  0  0  0  0
 13  5  1  0  0  0  0
 14 10  1  0  0  0  0
 15 14  1  0  0  0  0
 16 15  1  0  0  0  0
 16 17  1  0  0  0  0
 18 19  1  6  0  0  0
 18 17  1  0  0  0  0
 18 22  1  0  0  0  0
 20 19  1  0  0  0  0
 21 22  1  0  0  0  0
 24 25  1  0  0  0  0
 25 27  2  0  0  0  0
 26 23  1  0  0  0  0
 26 25  1  0  0  0  0
M  END
>  <MODEL>
3

>  <REMARK>
 VINA RESULT:      -5.8      4.205      6.183
  Name = 
  9 active torsions:
  status: ('A' for Active; 'I' for Inactive)
    1  A    between atoms: C_4  and  C_26
    2  A    between atoms: C_8  and  C_13
    3  A    between atoms: C_8  and  C_26
    4  A    between atoms: C_10  and  C_16
    5  A    between atoms: C_10  and  N_17
    6  A    between atoms: C_13  and  N_17
    7  A    between atoms: N_14  and  C_22
    8  A    between atoms: N_21  and  C_22
    9  A    between atoms: C_26  and  O_27
                            x       y       z     vdW  Elec       q    Type
                         _______ _______ _______ _____ _____    ______ ____

>  <TORSDO>
F 9

$$$$
=
 OpenBabel11042414223D

 27 29  0  0  1  0  0  0  0  0999 V2000
  185.2700  177.8490  144.2270 C   0  0  0  0  0  0  0  0  0  0  0  0
  186.7810  176.1190  143.1510 C   0  0  2  0  0  3  0  0  0  0  0  0
  183.9930  178.8870  145.9430 N   0  0  0  0  0  0  0  0  0  0  0  0
  189.3280  175.4560  144.2710 C   0  0  0  0  0  3  0  0  0  0  0  0
  186.1050  177.3010  145.1790 C   0  0  0  0  0  0  0  0  0  0  0  0
  185.8940  177.5520  146.5370 C   0  0  0  0  0  3  0  0  0  0  0  0
  184.8130  178.3640  146.9010 C   0  0  0  0  0  3  0  0  0  0  0  0
  187.9830  175.9240  142.3300 N   0  0  0  0  0  0  0  0  0  0  0  0
  185.6890  177.4630  142.5320 S   0  0  0  0  0  0  0  0  0  0  0  0
  188.2950  176.0690  145.1270 C   0  0  0  0  0  0  0  0  0  0  0  0
  184.1950  178.6470  144.6170 C   0  0  0  0  0  3  0  0  0  0  0  0
  189.1740  175.4090  142.9440 C   0  0  0  0  0  3  0  0  0  0  0  0
  187.1260  176.4510  144.5780 C   0  0  0  0  0  0  0  0  0  0  0  0
  188.6330  176.3240  146.5610 C   0  0  0  0  0  2  0  0  0  0  0  0
  189.4700  175.2510  147.0750 N   0  0  0  0  0  2  0  0  0  0  0  0
  190.6420  175.8610  147.6830 C   0  0  0  0  0  2  0  0  0  0  0  0
  191.9020  175.2190  147.1290 C   0  0  0  0  0  2  0  0  0  0  0  0
  192.5640  176.1420  146.1150 C   0  0  1  0  0  3  0  0  0  0  0  0
  193.8580  176.7270  146.6770 C   0  0  0  0  0  2  0  0  0  0  0  0
  194.7510  177.2970  145.5840 C   0  0  0  0  0  1  0  0  0  0  0  0
  192.7460  174.1060  145.2550 C   0  0  0  0  0  1  0  0  0  0  0  0
  192.8120  175.4600  144.9190 O   0  0  0  0  0  0  0  0  0  0  0  0
  187.8730  175.8460  140.8790 C   0  0  0  0  0  2  0  0  0  0  0  0
  189.0190  172.9880  138.6200 N   0  0  0  0  0  1  0  0  0  0  0  0
  188.3640  174.1810  139.0330 C   0  0  0  0  0  0  0  0  0  0  0  0
  188.4620  174.6060  140.3920 N   0  0  0  0  0  2  0  0  0  0  0  0
  187.6950  174.8460  138.1990 O   0  0  0  0  0  0  0  0  0  0  0  0
  1 11  2  0  0  0  0
  1  5  1  0  0  0  0
  2  9  1  6  0  0  0
  2 13  1  0  0  0  0
  3  7  2  0  0  0  0
  4 10  1  0  0  0  0
  5  6  2  0  0  0  0
  6  7  1  0  0  0  0
  8 12  1  0  0  0  0
  8  2  1  0  0  0  0
  9  1  1  0  0  0  0
 10 14  1  0  0  0  0
 11  3  1  0  0  0  0
 12  4  2  0  0  0  0
 13 10  2  0  0  0  0
 13  5  1  0  0  0  0
 14 15  1  0  0  0  0
 15 16  1  0  0  0  0
 17 16  1  0  0  0  0
 18 19  1  1  0  0  0
 18 17  1  0  0  0  0
 20 19  1  0  0  0  0
 22 21  1  0  0  0  0
 22 18  1  0  0  0  0
 23  8  1  0  0  0  0
 24 25  1  0  0  0  0
 25 26  1  0  0  0  0
 26 23  1  0  0  0  0
 27 25  2  0  0  0  0
M  END
>  <MODEL>
4

>  <REMARK>
 VINA RESULT:      -5.8      2.642      5.704
  Name = 
  9 active torsions:
  status: ('A' for Active; 'I' for Inactive)
    1  A    between atoms: C_4  and  C_26
    2  A    between atoms: C_8  and  C_13
    3  A    between atoms: C_8  and  C_26
    4  A    between atoms: C_10  and  C_16
    5  A    between atoms: C_10  and  N_17
    6  A    between atoms: C_13  and  N_17
    7  A    between atoms: N_14  and  C_22
    8  A    between atoms: N_21  and  C_22
    9  A    between atoms: C_26  and  O_27
                            x       y       z     vdW  Elec       q    Type
                         _______ _______ _______ _____ _____    ______ ____

>  <TORSDO>
F 9

$$$$
=
 OpenBabel11042414223D

 27 29  0  0  1  0  0  0  0  0999 V2000
  186.7000  177.8790  142.8860 C   0  0  0  0  0  0  0  0  0  0  0  0
  187.6840  175.5530  142.6420 C   0  0  2  0  0  3  0  0  0  0  0  0
  185.5540  179.6800  143.9320 N   0  0  0  0  0  0  0  0  0  0  0  0
  189.5470  174.5120  144.5470 C   0  0  0  0  0  3  0  0  0  0  0  0
  187.0750  177.3980  144.1240 C   0  0  0  0  0  0  0  0  0  0  0  0
  186.6960  178.0670  145.2900 C   0  0  0  0  0  3  0  0  0  0  0  0
  185.9230  179.2290  145.1660 C   0  0  0  0  0  3  0  0  0  0  0  0
  188.8790  174.7930  142.2520 N   0  0  0  0  0  0  0  0  0  0  0  0
  187.2890  176.9300  141.4890 S   0  0  0  0  0  0  0  0  0  0  0  0
  188.6480  175.6140  144.9370 C   0  0  0  0  0  0  0  0  0  0  0  0
  185.9230  179.0330  142.7910 C   0  0  0  0  0  3  0  0  0  0  0  0
  189.6590  174.1440  143.2670 C   0  0  0  0  0  3  0  0  0  0  0  0
  187.8280  176.1530  144.0150 C   0  0  0  0  0  0  0  0  0  0  0  0
  188.7560  176.1480  146.3300 C   0  0  0  0  0  2  0  0  0  0  0  0
  189.6120  175.2850  147.1310 N   0  0  0  0  0  2  0  0  0  0  0  0
  190.7350  176.0850  147.5900 C   0  0  0  0  0  2  0  0  0  0  0  0
  192.0380  175.4560  147.1310 C   0  0  0  0  0  2  0  0  0  0  0  0
  192.7830  176.4020  146.1990 C   0  0  1  0  0  3  0  0  0  0  0  0
  194.2690  176.4500  146.5490 C   0  0  0  0  0  2  0  0  0  0  0  0
  195.0360  175.2740  145.9610 C   0  0  0  0  0  1  0  0  0  0  0  0
  192.1410  177.1670  144.2210 C   0  0  0  0  0  1  0  0  0  0  0  0
  192.6050  176.0190  144.8650 O   0  0  0  0  0  0  0  0  0  0  0  0
  189.0450  174.3510  140.8740 C   0  0  0  0  0  2  0  0  0  0  0  0
  190.4970  170.9800  139.8170 N   0  0  0  0  0  1  0  0  0  0  0  0
  190.1290  172.3520  139.7540 C   0  0  0  0  0  0  0  0  0  0  0  0
  189.4050  172.9390  140.8350 N   0  0  0  0  0  2  0  0  0  0  0  0
  190.4360  173.0340  138.7410 O   0  0  0  0  0  0  0  0  0  0  0  0
  1  5  1  0  0  0  0
  2  9  1  6  0  0  0
  2 13  1  0  0  0  0
  3  7  2  0  0  0  0
  4 10  1  0  0  0  0
  5  6  2  0  0  0  0
  7  6  1  0  0  0  0
  8  2  1  0  0  0  0
  8 12  1  0  0  0  0
  9  1  1  0  0  0  0
 10 14  1  0  0  0  0
 11  1  2  0  0  0  0
 11  3  1  0  0  0  0
 12  4  2  0  0  0  0
 13  5  1  0  0  0  0
 13 10  2  0  0  0  0
 14 15  1  0  0  0  0
 15 16  1  0  0  0  0
 17 16  1  0  0  0  0
 18 19  1  1  0  0  0
 18 17  1  0  0  0  0
 20 19  1  0  0  0  0
 21 22  1  0  0  0  0
 22 18  1  0  0  0  0
 23  8  1  0  0  0  0
 25 24  1  0  0  0  0
 25 26  1  0  0  0  0
 26 23  1  0  0  0  0
 27 25  2  0  0  0  0
M  END
>  <MODEL>
5

>  <REMARK>
 VINA RESULT:      -5.5      2.610      5.592
  Name = 
  9 active torsions:
  status: ('A' for Active; 'I' for Inactive)
    1  A    between atoms: C_4  and  C_26
    2  A    between atoms: C_8  and  C_13
    3  A    between atoms: C_8  and  C_26
    4  A    between atoms: C_10  and  C_16
    5  A    between atoms: C_10  and  N_17
    6  A    between atoms: C_13  and  N_17
    7  A    between atoms: N_14  and  C_22
    8  A    between atoms: N_21  and  C_22
    9  A    between atoms: C_26  and  O_27
                            x       y       z     vdW  Elec       q    Type
                         _______ _______ _______ _____ _____    ______ ____

>  <TORSDO>
F 9

$$$$
=
 OpenBabel11042414223D

 27 29  0  0  1  0  0  0  0  0999 V2000
  189.7510  173.9760  141.6680 C   0  0  0  0  0  0  0  0  0  0  0  0
  188.5600  176.0560  142.4980 C   0  0  2  0  0  3  0  0  0  0  0  0
  191.4910  172.6830  140.6910 N   0  0  0  0  0  0  0  0  0  0  0  0
  189.7720  177.8110  144.4040 C   0  0  0  0  0  3  0  0  0  0  0  0
  190.6770  174.9090  142.0850 C   0  0  0  0  0  0  0  0  0  0  0  0
  192.0350  174.7310  141.8130 C   0  0  0  0  0  3  0  0  0  0  0  0
  192.4250  173.5880  141.1040 C   0  0  0  0  0  3  0  0  0  0  0  0
  187.8190  176.6430  143.6220 N   0  0  0  0  0  0  0  0  0  0  0  0
  188.0560  174.3280  142.1190 S   0  0  0  0  0  0  0  0  0  0  0  0
  190.6230  176.9170  143.5950 C   0  0  0  0  0  0  0  0  0  0  0  0
  190.1640  172.8500  140.9550 C   0  0  0  0  0  3  0  0  0  0  0  0
  188.4450  177.6590  144.4200 C   0  0  0  0  0  3  0  0  0  0  0  0
  190.0430  176.0380  142.7560 C   0  0  0  0  0  0  0  0  0  0  0  0
  192.1010  176.9670  143.8140 C   0  0  0  0  0  2  0  0  0  0  0  0
  192.4030  176.7960  145.2270 N   0  0  0  0  0  2  0  0  0  0  0  0
  192.9890  175.4750  145.3940 C   0  0  0  0  0  2  0  0  0  0  0  0
  192.1750  174.6720  146.3920 C   0  0  0  0  0  2  0  0  0  0  0  0
  191.0740  175.5340  146.9930 C   0  0  1  0  0  3  0  0  0  0  0  0
  189.7080  174.8720  146.8150 C   0  0  0  0  0  2  0  0  0  0  0  0
  189.6900  173.9000  145.6450 C   0  0  0  0  0  1  0  0  0  0  0  0
  191.2010  177.1660  148.4870 C   0  0  0  0  0  1  0  0  0  0  0  0
  191.3270  175.7830  148.3460 O   0  0  0  0  0  0  0  0  0  0  0  0
  186.3680  176.5230  143.6820 C   0  0  0  0  0  2  0  0  0  0  0  0
  184.4330  178.1810  146.5270 N   0  0  0  0  0  1  0  0  0  0  0  0
  184.9000  177.9140  145.2120 C   0  0  0  0  0  0  0  0  0  0  0  0
  185.8830  176.8990  145.0040 N   0  0  0  0  0  2  0  0  0  0  0  0
  184.4510  178.5800  144.2420 O   0  0  0  0  0  0  0  0  0  0  0  0
  1  5  1  0  0  0  0
  1  9  1  0  0  0  0
  2  9  1  1  0  0  0
  2 13  1  0  0  0  0
  2  8  1  0  0  0  0
  3 11  1  0  0  0  0
  3  7  2  0  0  0  0
  4 12  2  0  0  0  0
  5 13  1  0  0  0  0
  6  5  2  0  0  0  0
  7  6  1  0  0  0  0
  8 23  1  0  0  0  0
  8 12  1  0  0  0  0
 10 14  1  0  0  0  0
 10  4  1  0  0  0  0
 11  1  2  0  0  0  0
 13 10  2  0  0  0  0
 14 15  1  0  0  0  0
 15 16  1  0  0  0  0
 16 17  1  0  0  0  0
 18 17  1  1  0  0  0
 18 22  1  0  0  0  0
 19 18  1  0  0  0  0
 20 19  1  0  0  0  0
 22 21  1  0  0  0  0
 23 26  1  0  0  0  0
 25 24  1  0  0  0  0
 26 25  1  0  0  0  0
 27 25  2  0  0  0  0
M  END
>  <MODEL>
6

>  <REMARK>
 VINA RESULT:      -5.4      2.758      6.836
  Name = 
  9 active torsions:
  status: ('A' for Active; 'I' for Inactive)
    1  A    between atoms: C_4  and  C_26
    2  A    between atoms: C_8  and  C_13
    3  A    between atoms: C_8  and  C_26
    4  A    between atoms: C_10  and  C_16
    5  A    between atoms: C_10  and  N_17
    6  A    between atoms: C_13  and  N_17
    7  A    between atoms: N_14  and  C_22
    8  A    between atoms: N_21  and  C_22
    9  A    between atoms: C_26  and  O_27
                            x       y       z     vdW  Elec       q    Type
                         _______ _______ _______ _____ _____    ______ ____

>  <TORSDO>
F 9

$$$$
=
 OpenBabel11042414223D

 27 29  0  0  1  0  0  0  0  0999 V2000
  184.8400  178.2100  144.6230 C   0  0  0  0  0  0  0  0  0  0  0  0
  185.8710  177.0280  142.6300 C   0  0  2  0  0  3  0  0  0  0  0  0
  184.3050  178.6100  146.9050 N   0  0  0  0  0  0  0  0  0  0  0  0
  188.6790  176.5010  142.4940 C   0  0  0  0  0  3  0  0  0  0  0  0
  186.0060  177.5810  145.0050 C   0  0  0  0  0  0  0  0  0  0  0  0
  186.3410  177.4680  146.3560 C   0  0  0  0  0  3  0  0  0  0  0  0
  185.4600  178.0020  147.3050 C   0  0  0  0  0  3  0  0  0  0  0  0
  186.6560  177.2130  141.4020 N   0  0  0  0  0  0  0  0  0  0  0  0
  184.5670  178.3040  142.8570 S   0  0  0  0  0  0  0  0  0  0  0  0
  188.0460  176.7340  143.8060 C   0  0  0  0  0  0  0  0  0  0  0  0
  183.9740  178.7250  145.5880 C   0  0  0  0  0  3  0  0  0  0  0  0
  188.0140  176.7480  141.3620 C   0  0  0  0  0  3  0  0  0  0  0  0
  186.7400  177.0590  143.8580 C   0  0  0  0  0  0  0  0  0  0  0  0
  188.9150  176.6880  145.0220 C   0  0  0  0  0  2  0  0  0  0  0  0
  189.0660  175.3140  145.4760 N   0  0  0  0  0  2  0  0  0  0  0  0
  189.2910  175.3490  146.9120 C   0  0  0  0  0  2  0  0  0  0  0  0
  190.7020  174.8830  147.2240 C   0  0  0  0  0  2  0  0  0  0  0  0
  191.5810  176.0680  147.5970 C   0  0  1  0  0  3  0  0  0  0  0  0
  192.4570  176.4870  146.4180 C   0  0  0  0  0  2  0  0  0  0  0  0
  193.8070  175.7840  146.4280 C   0  0  0  0  0  1  0  0  0  0  0  0
  191.5390  177.7350  149.0570 C   0  0  0  0  0  1  0  0  0  0  0  0
  190.7980  177.1420  148.0330 O   0  0  0  0  0  0  0  0  0  0  0  0
  185.9820  177.4670  140.1360 C   0  0  0  0  0  2  0  0  0  0  0  0
  187.1420  176.0840  136.7690 N   0  0  0  0  0  1  0  0  0  0  0  0
  186.2720  176.4360  137.8380 C   0  0  0  0  0  0  0  0  0  0  0  0
  186.8120  177.0230  139.0230 N   0  0  0  0  0  2  0  0  0  0  0  0
  185.0370  176.2170  137.7350 O   0  0  0  0  0  0  0  0  0  0  0  0
  1  5  2  0  0  0  0
  1 11  1  0  0  0  0
  2  9  1  1  0  0  0
  2 13  1  0  0  0  0
  3  7  1  0  0  0  0
  4 10  1  0  0  0  0
  5  6  1  0  0  0  0
  6  7  2  0  0  0  0
  8  2  1  0  0  0  0
  9  1  1  0  0  0  0
 10 13  2  0  0  0  0
 10 14  1  0  0  0  0
 11  3  2  0  0  0  0
 12  8  1  0  0  0  0
 12  4  2  0  0  0  0
 13  5  1  0  0  0  0
 14 15  1  0  0  0  0
 15 16  1  0  0  0  0
 16 17  1  0  0  0  0
 17 18  1  0  0  0  0
 18 19  1  6  0  0  0
 18 22  1  0  0  0  0
 19 20  1  0  0  0  0
 22 21  1  0  0  0  0
 23  8  1  0  0  0  0
 24 25  1  0  0  0  0
 25 26  1  0  0  0  0
 26 23  1  0  0  0  0
 27 25  2  0  0  0  0
M  END
>  <MODEL>
7

>  <REMARK>
 VINA RESULT:      -5.4      2.937      6.469
  Name = 
  9 active torsions:
  status: ('A' for Active; 'I' for Inactive)
    1  A    between atoms: C_4  and  C_26
    2  A    between atoms: C_8  and  C_13
    3  A    between atoms: C_8  and  C_26
    4  A    between atoms: C_10  and  C_16
    5  A    between atoms: C_10  and  N_17
    6  A    between atoms: C_13  and  N_17
    7  A    between atoms: N_14  and  C_22
    8  A    between atoms: N_21  and  C_22
    9  A    between atoms: C_26  and  O_27
                            x       y       z     vdW  Elec       q    Type
                         _______ _______ _______ _____ _____    ______ ____

>  <TORSDO>
F 9

$$$$
=
 OpenBabel11042414223D

 27 29  0  0  1  0  0  0  0  0999 V2000
  185.8730  177.4700  142.5320 C   0  0  0  0  0  0  0  0  0  0  0  0
  187.2730  177.1320  144.6200 C   0  0  2  0  0  3  0  0  0  0  0  0
  185.4200  177.8480  140.2290 N   0  0  0  0  0  0  0  0  0  0  0  0
  189.2650  175.0850  144.7690 C   0  0  0  0  0  3  0  0  0  0  0  0
  187.0730  176.8770  142.1990 C   0  0  0  0  0  0  0  0  0  0  0  0
  187.4580  176.7550  140.8620 C   0  0  0  0  0  3  0  0  0  0  0  0
  186.5970  177.2550  139.8760 C   0  0  0  0  0  3  0  0  0  0  0  0
  187.4640  176.2940  145.8120 N   0  0  0  0  0  0  0  0  0  0  0  0
  185.5080  177.5230  144.2820 S   0  0  0  0  0  0  0  0  0  0  0  0
  188.8200  175.5710  143.4500 C   0  0  0  0  0  0  0  0  0  0  0  0
  185.0390  177.9690  141.5320 C   0  0  0  0  0  3  0  0  0  0  0  0
  188.6020  175.4230  145.8790 C   0  0  0  0  0  3  0  0  0  0  0  0
  187.8270  176.4790  143.3830 C   0  0  0  0  0  0  0  0  0  0  0  0
  189.4360  174.9600  142.2320 C   0  0  0  0  0  2  0  0  0  0  0  0
  190.6520  174.2460  142.5920 N   0  0  0  0  0  2  0  0  0  0  0  0
  191.7790  175.0860  142.2230 C   0  0  0  0  0  2  0  0  0  0  0  0
  192.7330  175.2140  143.3970 C   0  0  0  0  0  2  0  0  0  0  0  0
  192.7360  176.6430  143.9240 C   0  0  1  0  0  3  0  0  0  0  0  0
  191.8830  177.5490  143.0380 C   0  0  0  0  0  2  0  0  0  0  0  0
  190.9810  178.4640  143.8540 C   0  0  0  0  0  1  0  0  0  0  0  0
  192.8720  175.5740  145.8610 C   0  0  0  0  0  1  0  0  0  0  0  0
  192.2820  176.6800  145.2470 O   0  0  0  0  0  0  0  0  0  0  0  0
  186.7800  176.6250  147.0550 C   0  0  0  0  0  2  0  0  0  0  0  0
  186.3430  180.2570  148.1530 N   0  0  0  0  0  1  0  0  0  0  0  0
  186.0050  178.9390  147.7440 C   0  0  0  0  0  0  0  0  0  0  0  0
  187.0420  178.0110  147.4220 N   0  0  0  0  0  2  0  0  0  0  0  0
  184.7940  178.6030  147.6580 O   0  0  0  0  0  0  0  0  0  0  0  0
  1  9  1  0  0  0  0
  2 13  1  6  0  0  0
  2  8  1  0  0  0  0
  3 11  1  0  0  0  0
  4 12  2  0  0  0  0
  5  1  1  0  0  0  0
  5 13  1  0  0  0  0
  6  5  2  0  0  0  0
  7  3  2  0  0  0  0
  7  6  1  0  0  0  0
  8 12  1  0  0  0  0
  8 23  1  0  0  0  0
  9  2  1  0  0  0  0
 10  4  1  0  0  0  0
 11  1  2  0  0  0  0
 13 10  2  0  0  0  0
 14 15  1  0  0  0  0
 14 10  1  0  0  0  0
 16 15  1  0  0  0  0
 16 17  1  0  0  0  0
 17 18  1  0  0  0  0
 18 19  1  6  0  0  0
 18 22  1  0  0  0  0
 19 20  1  0  0  0  0
 22 21  1  0  0  0  0
 23 26  1  0  0  0  0
 25 24  1  0  0  0  0
 26 25  1  0  0  0  0
 27 25  2  0  0  0  0
M  END
>  <MODEL>
8

>  <REMARK>
 VINA RESULT:      -5.4      2.845      5.655
  Name = 
  9 active torsions:
  status: ('A' for Active; 'I' for Inactive)
    1  A    between atoms: C_4  and  C_26
    2  A    between atoms: C_8  and  C_13
    3  A    between atoms: C_8  and  C_26
    4  A    between atoms: C_10  and  C_16
    5  A    between atoms: C_10  and  N_17
    6  A    between atoms: C_13  and  N_17
    7  A    between atoms: N_14  and  C_22
    8  A    between atoms: N_21  and  C_22
    9  A    between atoms: C_26  and  O_27
                            x       y       z     vdW  Elec       q    Type
                         _______ _______ _______ _____ _____    ______ ____

>  <TORSDO>
F 9

$$$$
=
 OpenBabel11042414223D

 27 29  0  0  1  0  0  0  0  0999 V2000
  184.9470  178.2320  144.8500 C   0  0  0  0  0  0  0  0  0  0  0  0
  186.1290  177.2340  142.8390 C   0  0  2  0  0  3  0  0  0  0  0  0
  184.4260  178.5760  147.1440 N   0  0  0  0  0  0  0  0  0  0  0  0
  188.9780  177.2970  142.5970 C   0  0  0  0  0  3  0  0  0  0  0  0
  186.2320  177.8690  145.1950 C   0  0  0  0  0  0  0  0  0  0  0  0
  186.6330  177.8650  146.5340 C   0  0  0  0  0  3  0  0  0  0  0  0
  185.6950  178.2310  147.5070 C   0  0  0  0  0  3  0  0  0  0  0  0
  186.8120  177.5430  141.5760 N   0  0  0  0  0  0  0  0  0  0  0  0
  184.5960  178.2180  143.0960 S   0  0  0  0  0  0  0  0  0  0  0  0
  188.3590  177.4300  143.9290 C   0  0  0  0  0  0  0  0  0  0  0  0
  184.0300  178.5830  145.8400 C   0  0  0  0  0  3  0  0  0  0  0  0
  188.2350  177.3690  141.4890 C   0  0  0  0  0  3  0  0  0  0  0  0
  187.0170  177.4780  144.0290 C   0  0  0  0  0  0  0  0  0  0  0  0
  189.2620  177.5990  145.1090 C   0  0  0  0  0  2  0  0  0  0  0  0
  189.8120  176.3110  145.5050 N   0  0  0  0  0  2  0  0  0  0  0  0
  191.0250  176.5680  146.2650 C   0  0  0  0  0  2  0  0  0  0  0  0
  191.9610  175.3760  146.1600 C   0  0  0  0  0  2  0  0  0  0  0  0
  193.1300  175.7020  145.2400 C   0  0  1  0  0  3  0  0  0  0  0  0
  192.8900  175.1420  143.8400 C   0  0  0  0  0  2  0  0  0  0  0  0
  192.5190  176.2300  142.8420 C   0  0  0  0  0  1  0  0  0  0  0  0
  194.6280  177.2690  145.7020 C   0  0  0  0  0  1  0  0  0  0  0  0
  193.3440  177.0830  145.1870 O   0  0  0  0  0  0  0  0  0  0  0  0
  186.0540  177.6170  140.3340 C   0  0  0  0  0  2  0  0  0  0  0  0
  187.0620  176.0100  137.0190 N   0  0  0  0  0  1  0  0  0  0  0  0
  186.2360  176.4680  138.0820 C   0  0  0  0  0  0  0  0  0  0  0  0
  186.8330  177.0670  139.2320 N   0  0  0  0  0  2  0  0  0  0  0  0
  184.9870  176.3330  138.0040 O   0  0  0  0  0  0  0  0  0  0  0  0
  1  5  2  0  0  0  0
  1 11  1  0  0  0  0
  2  9  1  1  0  0  0
  2 13  1  0  0  0  0
  3  7  1  0  0  0  0
  4 10  1  0  0  0  0
  5  6  1  0  0  0  0
  6  7  2  0  0  0  0
  8  2  1  0  0  0  0
  9  1  1  0  0  0  0
 10 13  2  0  0  0  0
 10 14  1  0  0  0  0
 11  3  2  0  0  0  0
 12  8  1  0  0  0  0
 12  4  2  0  0  0  0
 13  5  1  0  0  0  0
 14 15  1  0  0  0  0
 15 16  1  0  0  0  0
 17 16  1  0  0  0  0
 18 19  1  6  0  0  0
 18 17  1  0  0  0  0
 20 19  1  0  0  0  0
 22 18  1  0  0  0  0
 22 21  1  0  0  0  0
 23  8  1  0  0  0  0
 24 25  1  0  0  0  0
 25 26  1  0  0  0  0
 26 23  1  0  0  0  0
 27 25  2  0  0  0  0
M  END
>  <MODEL>
9

>  <REMARK>
 VINA RESULT:      -5.3      2.704      6.092
  Name = 
  9 active torsions:
  status: ('A' for Active; 'I' for Inactive)
    1  A    between atoms: C_4  and  C_26
    2  A    between atoms: C_8  and  C_13
    3  A    between atoms: C_8  and  C_26
    4  A    between atoms: C_10  and  C_16
    5  A    between atoms: C_10  and  N_17
    6  A    between atoms: C_13  and  N_17
    7  A    between atoms: N_14  and  C_22
    8  A    between atoms: N_21  and  C_22
    9  A    between atoms: C_26  and  O_27
                            x       y       z     vdW  Elec       q    Type
                         _______ _______ _______ _____ _____    ______ ____

>  <TORSDO>
F 9

$$$$
