=
 OpenBabel11042415033D

 33 37  0  0  1  0  0  0  0  0999 V2000
  188.8120  176.0820  144.4660 N   0  0  0  0  0  2  0  0  0  0  0  0
  186.8610  177.6700  144.9490 C   0  0  2  0  0  3  0  0  0  0  0  0
  184.8380  177.2760  146.0800 N   0  0  0  0  0  0  0  0  0  0  0  0
  187.0840  176.2830  142.8160 C   0  0  0  0  0  0  0  0  0  0  0  0
  184.5900  177.8650  143.8060 N   0  0  0  0  0  2  0  0  0  0  0  0
  187.1670  177.4630  146.4350 C   0  0  0  0  0  3  0  0  0  0  0  0
  185.3760  177.5690  144.9500 C   0  0  0  0  0  0  0  0  0  0  0  0
  185.9980  176.9530  142.1420 N   0  0  0  0  0  0  0  0  0  0  0  0
  185.8480  177.0820  147.0970 C   0  0  0  0  0  3  0  0  0  0  0  0
  187.5410  176.6250  144.0600 C   0  0  1  0  0  3  0  0  0  0  0  0
  185.2760  178.1410  142.5640 C   0  0  0  0  0  2  0  0  0  0  0  0
  188.2030  173.1860  141.3620 C   0  0  0  0  0  3  0  0  0  0  0  0
  188.8910  174.1560  140.4590 C   0  0  1  0  0  3  0  0  0  0  0  0
  188.3620  174.0080  139.0450 C   0  0  0  0  0  1  0  0  0  0  0  0
  187.7260  175.1950  142.0350 C   0  0  0  0  0  0  0  0  0  0  0  0
  188.4720  175.4360  141.0080 N   0  0  0  0  0  0  0  0  0  0  0  0
  187.5320  173.8070  142.2730 N   0  0  0  0  0  0  0  0  0  0  0  0
  190.3410  177.9990  144.7120 C   0  0  0  0  0  2  0  0  0  0  0  0
  190.1230  177.8250  143.2140 C   0  0  0  0  0  2  0  0  0  0  0  0
  190.1280  176.6200  144.1300 C   0  0  0  0  0  0  0  0  0  0  0  0
  191.3350  175.6620  144.1800 C   0  0  2  0  0  3  0  0  0  0  0  0
  194.7380  175.9970  142.6500 C   0  0  0  0  0  3  0  0  0  0  0  0
  192.6850  176.3730  144.0250 C   0  0  1  0  0  3  0  0  0  0  0  0
  196.7640  176.8920  143.5020 O   0  0  0  0  0  1  0  0  0  0  0  0
  194.9110  176.8610  145.0160 C   0  0  0  0  0  2  0  0  0  0  0  0
  193.5670  176.1900  145.2590 C   0  0  0  0  0  2  0  0  0  0  0  0
  193.3990  176.0410  142.7340 C   0  0  0  0  0  3  0  0  0  0  0  0
  195.6260  176.1700  143.8550 C   0  0  1  0  0  3  0  0  0  0  0  0
  191.1940  174.3310  143.4260 C   0  0  0  0  0  2  0  0  0  0  0  0
  191.0940  173.2040  144.3400 N   0  0  0  0  0  2  0  0  0  0  0  0
  192.1740  172.2920  144.0010 C   0  0  0  0  0  2  0  0  0  0  0  0
  193.3350  172.4890  144.9590 C   0  0  0  0  0  2  0  0  0  0  0  0
  194.4810  172.8430  144.2460 O   0  0  0  0  0  1  0  0  0  0  0  0
  2  7  1  0  0  0  0
  2  6  1  1  0  0  0
  3  9  1  0  0  0  0
  4 10  1  0  0  0  0
  5  7  1  0  0  0  0
  6  9  2  0  0  0  0
  7  3  2  0  0  0  0
  8 11  1  0  0  0  0
  8  4  2  0  0  0  0
 10  1  1  6  0  0  0
 10  2  1  0  0  0  0
 11  5  1  0  0  0  0
 12 17  2  0  0  0  0
 13 14  1  6  0  0  0
 13 16  1  0  0  0  0
 13 12  1  0  0  0  0
 15 17  1  0  0  0  0
 15  4  1  0  0  0  0
 16 15  2  0  0  0  0
 19 20  1  0  0  0  0
 19 18  1  0  0  0  0
 20 21  1  0  0  0  0
 20  1  1  0  0  0  0
 20 18  1  0  0  0  0
 21 29  1  6  0  0  0
 22 27  2  0  0  0  0
 22 28  1  0  0  0  0
 23 21  1  1  0  0  0
 23 26  1  0  0  0  0
 25 26  1  0  0  0  0
 27 23  1  0  0  0  0
 28 24  1  6  0  0  0
 28 25  1  0  0  0  0
 29 30  1  0  0  0  0
 31 30  1  0  0  0  0
 31 32  1  0  0  0  0
 33 32  1  0  0  0  0
M  END
>  <MODEL>
1

>  <REMARK>
 VINA RESULT:      -6.7      0.000      0.000
  Name = 
  9 active torsions:
  status: ('A' for Active; 'I' for Inactive)
    1  A    between atoms: C_5  and  C_9
    2  A    between atoms: C_6  and  C_8
    3  A    between atoms: C_8  and  N_30
    4  A    between atoms: C_9  and  C_17
    5  A    between atoms: C_9  and  C_32
    6  A    between atoms: C_13  and  C_26
    7  A    between atoms: C_17  and  N_30
    8  A    between atoms: N_24  and  C_27
    9  A    between atoms: N_24  and  C_32
                            x       y       z     vdW  Elec       q    Type
                         _______ _______ _______ _____ _____    ______ ____

>  <TORSDO>
F 9

$$$$
=
 OpenBabel11042415033D

 33 37  0  0  1  0  0  0  0  0999 V2000
  190.4830  175.9010  145.4000 N   0  0  0  0  0  2  0  0  0  0  0  0
  192.7610  174.9790  146.1240 C   0  0  2  0  0  3  0  0  0  0  0  0
  194.9280  175.6800  145.5450 N   0  0  0  0  0  0  0  0  0  0  0  0
  191.4370  174.1120  144.1190 C   0  0  0  0  0  0  0  0  0  0  0  0
  194.3960  173.4830  144.8620 N   0  0  0  0  0  2  0  0  0  0  0  0
  193.0180  176.3440  146.7680 C   0  0  0  0  0  3  0  0  0  0  0  0
  194.0710  174.7270  145.4640 C   0  0  0  0  0  0  0  0  0  0  0  0
  192.2930  172.9690  143.9160 N   0  0  0  0  0  0  0  0  0  0  0  0
  194.3750  176.8110  146.2560 C   0  0  0  0  0  3  0  0  0  0  0  0
  191.5830  175.0040  145.1460 C   0  0  1  0  0  3  0  0  0  0  0  0
  193.3590  172.4800  144.7740 C   0  0  0  0  0  2  0  0  0  0  0  0
  189.2160  174.9250  141.4060 C   0  0  0  0  0  3  0  0  0  0  0  0
  188.4350  173.8310  142.0570 C   0  0  1  0  0  3  0  0  0  0  0  0
  188.3010  172.6570  141.1050 C   0  0  0  0  0  1  0  0  0  0  0  0
  190.3250  174.2400  143.1430 C   0  0  0  0  0  0  0  0  0  0  0  0
  189.2930  173.4640  143.1720 N   0  0  0  0  0  0  0  0  0  0  0  0
  190.3110  175.1510  142.0510 N   0  0  0  0  0  0  0  0  0  0  0  0
  189.6180  175.3900  147.6500 C   0  0  0  0  0  2  0  0  0  0  0  0
  189.2260  174.2080  146.7700 C   0  0  0  0  0  2  0  0  0  0  0  0
  189.2900  175.6050  146.1890 C   0  0  0  0  0  0  0  0  0  0  0  0
  188.0060  176.4010  145.8850 C   0  0  2  0  0  3  0  0  0  0  0  0
  187.7880  178.3680  142.7030 C   0  0  0  0  0  3  0  0  0  0  0  0
  187.7030  176.5210  144.3860 C   0  0  1  0  0  3  0  0  0  0  0  0
  186.3760  178.1420  140.8090 O   0  0  0  0  0  1  0  0  0  0  0  0
  185.9670  176.6200  142.6110 C   0  0  0  0  0  2  0  0  0  0  0  0
  186.2050  176.4290  144.1020 C   0  0  0  0  0  2  0  0  0  0  0  0
  188.3570  177.7170  143.7300 C   0  0  0  0  0  3  0  0  0  0  0  0
  186.4100  178.0240  142.1970 C   0  0  1  0  0  3  0  0  0  0  0  0
  187.7660  177.6710  146.7160 C   0  0  0  0  0  2  0  0  0  0  0  0
  186.5640  177.5630  147.5260 N   0  0  0  0  0  2  0  0  0  0  0  0
  185.7550  178.7350  147.2360 C   0  0  0  0  0  2  0  0  0  0  0  0
  184.3820  178.3070  146.7510 C   0  0  0  0  0  2  0  0  0  0  0  0
  184.0760  178.9640  145.5580 O   0  0  0  0  0  1  0  0  0  0  0  0
  1 20  1  0  0  0  0
  2  6  1  6  0  0  0
  3  9  1  0  0  0  0
  4 10  1  0  0  0  0
  5  7  1  0  0  0  0
  7  3  2  0  0  0  0
  7  2  1  0  0  0  0
  8  4  2  0  0  0  0
  8 11  1  0  0  0  0
  9  6  2  0  0  0  0
 10  1  1  1  0  0  0
 10  2  1  0  0  0  0
 11  5  1  0  0  0  0
 12 17  2  0  0  0  0
 12 13  1  0  0  0  0
 13 14  1  6  0  0  0
 13 16  1  0  0  0  0
 15 16  2  0  0  0  0
 15  4  1  0  0  0  0
 17 15  1  0  0  0  0
 19 18  1  0  0  0  0
 20 19  1  0  0  0  0
 20 18  1  0  0  0  0
 21 20  1  0  0  0  0
 21 29  1  6  0  0  0
 22 27  2  0  0  0  0
 23 21  1  1  0  0  0
 25 26  1  0  0  0  0
 26 23  1  0  0  0  0
 27 23  1  0  0  0  0
 28 24  1  6  0  0  0
 28 25  1  0  0  0  0
 28 22  1  0  0  0  0
 29 30  1  0  0  0  0
 31 30  1  0  0  0  0
 32 31  1  0  0  0  0
 33 32  1  0  0  0  0
M  END
>  <MODEL>
2

>  <REMARK>
 VINA RESULT:      -6.7      3.362      7.114
  Name = 
  9 active torsions:
  status: ('A' for Active; 'I' for Inactive)
    1  A    between atoms: C_5  and  C_9
    2  A    between atoms: C_6  and  C_8
    3  A    between atoms: C_8  and  N_30
    4  A    between atoms: C_9  and  C_17
    5  A    between atoms: C_9  and  C_32
    6  A    between atoms: C_13  and  C_26
    7  A    between atoms: C_17  and  N_30
    8  A    between atoms: N_24  and  C_27
    9  A    between atoms: N_24  and  C_32
                            x       y       z     vdW  Elec       q    Type
                         _______ _______ _______ _____ _____    ______ ____

>  <TORSDO>
F 9

$$$$
=
 OpenBabel11042415033D

 33 37  0  0  1  0  0  0  0  0999 V2000
  189.5440  175.7930  143.8290 N   0  0  0  0  0  2  0  0  0  0  0  0
  189.8610  174.4640  141.6630 C   0  0  2  0  0  3  0  0  0  0  0  0
  189.3560  172.2190  141.1800 N   0  0  0  0  0  0  0  0  0  0  0  0
  191.6510  174.7050  143.4690 C   0  0  0  0  0  0  0  0  0  0  0  0
  191.6500  172.7590  141.0360 N   0  0  0  0  0  2  0  0  0  0  0  0
  188.3390  174.3040  141.6340 C   0  0  0  0  0  3  0  0  0  0  0  0
  190.2960  173.0850  141.3080 C   0  0  0  0  0  0  0  0  0  0  0  0
  192.6940  174.1220  142.6600 N   0  0  0  0  0  0  0  0  0  0  0  0
  188.0660  172.8150  141.4510 C   0  0  0  0  0  3  0  0  0  0  0  0
  190.3760  174.9320  143.0260 C   0  0  1  0  0  3  0  0  0  0  0  0
  192.6510  173.7800  141.2480 C   0  0  0  0  0  2  0  0  0  0  0  0
  193.0930  176.1820  146.4170 C   0  0  0  0  0  3  0  0  0  0  0  0
  192.1230  175.2410  147.0500 C   0  0  1  0  0  3  0  0  0  0  0  0
  191.0770  176.0230  147.8230 C   0  0  0  0  0  1  0  0  0  0  0  0
  192.0700  175.0980  144.8380 C   0  0  0  0  0  0  0  0  0  0  0  0
  191.5080  174.6100  145.8940 N   0  0  0  0  0  0  0  0  0  0  0  0
  193.0500  176.0850  145.1310 N   0  0  0  0  0  0  0  0  0  0  0  0
  190.4970  177.8410  142.8440 C   0  0  0  0  0  2  0  0  0  0  0  0
  190.4230  178.0920  144.3460 C   0  0  0  0  0  2  0  0  0  0  0  0
  189.3790  177.2350  143.6620 C   0  0  0  0  0  0  0  0  0  0  0  0
  187.9600  177.7720  143.3890 C   0  0  2  0  0  3  0  0  0  0  0  0
  185.4870  176.8700  146.0540 C   0  0  0  0  0  3  0  0  0  0  0  0
  187.1700  178.0880  144.6650 C   0  0  1  0  0  3  0  0  0  0  0  0
  184.0160  178.2050  147.3520 O   0  0  0  0  0  1  0  0  0  0  0  0
  185.3070  179.3640  145.7030 C   0  0  0  0  0  2  0  0  0  0  0  0
  186.0950  179.1440  144.4190 C   0  0  0  0  0  2  0  0  0  0  0  0
  186.6410  176.8580  145.3690 C   0  0  0  0  0  3  0  0  0  0  0  0
  184.5810  178.0740  146.0850 C   0  0  1  0  0  3  0  0  0  0  0  0
  187.1650  177.0870  142.2670 C   0  0  0  0  0  2  0  0  0  0  0  0
  187.4150  177.7080  140.9760 N   0  0  0  0  0  2  0  0  0  0  0  0
  186.1690  177.6400  140.2290 C   0  0  0  0  0  2  0  0  0  0  0  0
  185.0140  178.0720  141.1140 C   0  0  0  0  0  2  0  0  0  0  0  0
  184.0060  178.6390  140.3320 O   0  0  0  0  0  1  0  0  0  0  0  0
  2  6  1  1  0  0  0
  2 10  1  0  0  0  0
  3  7  2  0  0  0  0
  3  9  1  0  0  0  0
  4 15  1  0  0  0  0
  5 11  1  0  0  0  0
  5  7  1  0  0  0  0
  7  2  1  0  0  0  0
  8  4  2  0  0  0  0
  9  6  2  0  0  0  0
 10  4  1  0  0  0  0
 10  1  1  6  0  0  0
 11  8  1  0  0  0  0
 12 13  1  0  0  0  0
 13 14  1  6  0  0  0
 15 17  1  0  0  0  0
 15 16  2  0  0  0  0
 16 13  1  0  0  0  0
 17 12  2  0  0  0  0
 18 20  1  0  0  0  0
 18 19  1  0  0  0  0
 20  1  1  0  0  0  0
 20 19  1  0  0  0  0
 21 29  1  1  0  0  0
 21 20  1  0  0  0  0
 22 28  1  0  0  0  0
 23 21  1  6  0  0  0
 23 27  1  0  0  0  0
 25 28  1  0  0  0  0
 26 23  1  0  0  0  0
 26 25  1  0  0  0  0
 27 22  2  0  0  0  0
 28 24  1  1  0  0  0
 30 29  1  0  0  0  0
 31 30  1  0  0  0  0
 31 32  1  0  0  0  0
 33 32  1  0  0  0  0
M  END
>  <MODEL>
3

>  <REMARK>
 VINA RESULT:      -6.7      3.773      7.601
  Name = 
  9 active torsions:
  status: ('A' for Active; 'I' for Inactive)
    1  A    between atoms: C_5  and  C_9
    2  A    between atoms: C_6  and  C_8
    3  A    between atoms: C_8  and  N_30
    4  A    between atoms: C_9  and  C_17
    5  A    between atoms: C_9  and  C_32
    6  A    between atoms: C_13  and  C_26
    7  A    between atoms: C_17  and  N_30
    8  A    between atoms: N_24  and  C_27
    9  A    between atoms: N_24  and  C_32
                            x       y       z     vdW  Elec       q    Type
                         _______ _______ _______ _____ _____    ______ ____

>  <TORSDO>
F 9

$$$$
=
 OpenBabel11042415033D

 33 37  0  0  1  0  0  0  0  0999 V2000
  190.1350  175.6660  144.1100 N   0  0  0  0  0  2  0  0  0  0  0  0
  189.9720  174.2970  141.9510 C   0  0  2  0  0  3  0  0  0  0  0  0
  189.7890  171.9740  141.6460 N   0  0  0  0  0  0  0  0  0  0  0  0
  192.1740  174.9760  143.0540 C   0  0  0  0  0  0  0  0  0  0  0  0
  191.7520  172.9270  140.7450 N   0  0  0  0  0  2  0  0  0  0  0  0
  188.5890  173.8520  142.4340 C   0  0  0  0  0  3  0  0  0  0  0  0
  190.5280  173.0080  141.4580 C   0  0  0  0  0  0  0  0  0  0  0  0
  192.9840  174.5550  141.9360 N   0  0  0  0  0  0  0  0  0  0  0  0
  188.5710  172.3310  142.3390 C   0  0  0  0  0  3  0  0  0  0  0  0
  190.8060  174.9330  143.0670 C   0  0  1  0  0  3  0  0  0  0  0  0
  192.5450  174.1300  140.6170 C   0  0  0  0  0  2  0  0  0  0  0  0
  194.2140  176.8500  145.3510 C   0  0  0  0  0  3  0  0  0  0  0  0
  193.6670  175.8180  146.2790 C   0  0  1  0  0  3  0  0  0  0  0  0
  192.8070  176.4810  147.3390 C   0  0  0  0  0  1  0  0  0  0  0  0
  192.9360  175.5190  144.2070 C   0  0  0  0  0  0  0  0  0  0  0  0
  192.8290  175.0240  145.3950 N   0  0  0  0  0  0  0  0  0  0  0  0
  193.7810  176.6610  144.1500 N   0  0  0  0  0  0  0  0  0  0  0  0
  190.1550  177.7820  142.8490 C   0  0  0  0  0  2  0  0  0  0  0  0
  190.4780  178.1510  144.2920 C   0  0  0  0  0  2  0  0  0  0  0  0
  189.5460  176.9970  143.9890 C   0  0  0  0  0  0  0  0  0  0  0  0
  188.0220  177.1330  144.1770 C   0  0  2  0  0  3  0  0  0  0  0  0
  185.0940  178.8480  142.5890 C   0  0  0  0  0  3  0  0  0  0  0  0
  187.3120  177.7620  142.9720 C   0  0  1  0  0  3  0  0  0  0  0  0
  184.2560  178.7980  140.3700 O   0  0  0  0  0  1  0  0  0  0  0  0
  186.1360  177.3860  140.8150 C   0  0  0  0  0  2  0  0  0  0  0  0
  186.8900  176.7070  141.9500 C   0  0  0  0  0  2  0  0  0  0  0  0
  186.1880  178.7000  143.3520 C   0  0  0  0  0  3  0  0  0  0  0  0
  184.8530  178.0160  141.3560 C   0  0  1  0  0  3  0  0  0  0  0  0
  187.5340  177.6040  145.5560 C   0  0  0  0  0  2  0  0  0  0  0  0
  186.9270  176.5180  146.3100 N   0  0  0  0  0  2  0  0  0  0  0  0
  185.4960  176.7770  146.3380 C   0  0  0  0  0  2  0  0  0  0  0  0
  185.2380  178.1910  146.8250 C   0  0  0  0  0  2  0  0  0  0  0  0
  184.0500  178.6720  146.2730 O   0  0  0  0  0  1  0  0  0  0  0  0
  2  6  1  1  0  0  0
  2 10  1  0  0  0  0
  3  9  1  0  0  0  0
  4 10  1  0  0  0  0
  4 15  1  0  0  0  0
  5  7  1  0  0  0  0
  7  3  2  0  0  0  0
  7  2  1  0  0  0  0
  8  4  2  0  0  0  0
  9  6  2  0  0  0  0
 10  1  1  6  0  0  0
 11  5  1  0  0  0  0
 11  8  1  0  0  0  0
 12 13  1  0  0  0  0
 13 14  1  1  0  0  0
 15 16  2  0  0  0  0
 16 13  1  0  0  0  0
 17 15  1  0  0  0  0
 17 12  2  0  0  0  0
 18 20  1  0  0  0  0
 18 19  1  0  0  0  0
 20  1  1  0  0  0  0
 20 21  1  0  0  0  0
 20 19  1  0  0  0  0
 21 29  1  1  0  0  0
 22 27  2  0  0  0  0
 23 27  1  0  0  0  0
 23 21  1  1  0  0  0
 25 28  1  0  0  0  0
 25 26  1  0  0  0  0
 26 23  1  0  0  0  0
 28 24  1  6  0  0  0
 28 22  1  0  0  0  0
 29 30  1  0  0  0  0
 30 31  1  0  0  0  0
 31 32  1  0  0  0  0
 33 32  1  0  0  0  0
M  END
>  <MODEL>
4

>  <REMARK>
 VINA RESULT:      -6.5      3.682      7.547
  Name = 
  9 active torsions:
  status: ('A' for Active; 'I' for Inactive)
    1  A    between atoms: C_5  and  C_9
    2  A    between atoms: C_6  and  C_8
    3  A    between atoms: C_8  and  N_30
    4  A    between atoms: C_9  and  C_17
    5  A    between atoms: C_9  and  C_32
    6  A    between atoms: C_13  and  C_26
    7  A    between atoms: C_17  and  N_30
    8  A    between atoms: N_24  and  C_27
    9  A    between atoms: N_24  and  C_32
                            x       y       z     vdW  Elec       q    Type
                         _______ _______ _______ _____ _____    ______ ____

>  <TORSDO>
F 9

$$$$
=
 OpenBabel11042415033D

 33 37  0  0  1  0  0  0  0  0999 V2000
  188.3830  176.4150  143.7410 N   0  0  0  0  0  2  0  0  0  0  0  0
  186.8080  178.0580  142.5660 C   0  0  2  0  0  3  0  0  0  0  0  0
  184.4590  178.1370  142.5330 N   0  0  0  0  0  0  0  0  0  0  0  0
  187.7370  175.9400  141.4810 C   0  0  0  0  0  0  0  0  0  0  0  0
  185.4550  177.7770  140.4230 N   0  0  0  0  0  2  0  0  0  0  0  0
  186.3160  178.4570  143.9590 C   0  0  0  0  0  3  0  0  0  0  0  0
  185.5190  177.9610  141.8280 C   0  0  0  0  0  0  0  0  0  0  0  0
  187.2690  176.2850  140.1610 N   0  0  0  0  0  0  0  0  0  0  0  0
  184.7950  178.3650  143.9210 C   0  0  0  0  0  3  0  0  0  0  0  0
  187.6020  176.7480  142.5770 C   0  0  1  0  0  3  0  0  0  0  0  0
  186.6920  177.5410  139.7120 C   0  0  0  0  0  2  0  0  0  0  0  0
  190.0290  173.1650  141.3980 C   0  0  0  0  0  3  0  0  0  0  0  0
  188.8870  172.5330  142.1230 C   0  0  1  0  0  3  0  0  0  0  0  0
  189.3170  172.1520  143.5270 C   0  0  0  0  0  1  0  0  0  0  0  0
  188.4380  174.6340  141.5730 C   0  0  0  0  0  0  0  0  0  0  0  0
  187.9220  173.6190  142.1830 N   0  0  0  0  0  0  0  0  0  0  0  0
  189.7510  174.3860  141.0840 N   0  0  0  0  0  0  0  0  0  0  0  0
  189.9290  178.3320  143.8090 C   0  0  0  0  0  2  0  0  0  0  0  0
  190.5290  177.3440  142.8160 C   0  0  0  0  0  2  0  0  0  0  0  0
  189.7520  176.8450  144.0150 C   0  0  0  0  0  0  0  0  0  0  0  0
  190.4720  176.2320  145.2320 C   0  0  2  0  0  3  0  0  0  0  0  0
  193.4270  173.9690  144.8010 C   0  0  0  0  0  3  0  0  0  0  0  0
  191.9690  175.9890  144.9970 C   0  0  1  0  0  3  0  0  0  0  0  0
  195.7230  174.2630  145.3270 O   0  0  0  0  0  1  0  0  0  0  0  0
  194.2670  176.0600  145.9410 C   0  0  0  0  0  2  0  0  0  0  0  0
  192.8040  176.3850  146.2130 C   0  0  0  0  0  2  0  0  0  0  0  0
  192.2840  174.6000  144.4890 C   0  0  0  0  0  3  0  0  0  0  0  0
  194.4310  174.5510  145.7630 C   0  0  1  0  0  3  0  0  0  0  0  0
  189.7300  175.1190  145.9890 C   0  0  0  0  0  2  0  0  0  0  0  0
  189.1900  175.5980  147.2520 N   0  0  0  0  0  2  0  0  0  0  0  0
  187.8310  176.0390  146.9870 C   0  0  0  0  0  2  0  0  0  0  0  0
  187.7200  177.5350  147.2240 C   0  0  0  0  0  2  0  0  0  0  0  0
  186.4020  177.8660  147.5440 O   0  0  0  0  0  1  0  0  0  0  0  0
  1 20  1  0  0  0  0
  2 10  1  0  0  0  0
  2  6  1  1  0  0  0
  3  9  1  0  0  0  0
  4 15  1  0  0  0  0
  4 10  1  0  0  0  0
  5  7  1  0  0  0  0
  7  3  2  0  0  0  0
  7  2  1  0  0  0  0
  8  4  2  0  0  0  0
  9  6  2  0  0  0  0
 10  1  1  6  0  0  0
 11  8  1  0  0  0  0
 11  5  1  0  0  0  0
 12 13  1  0  0  0  0
 13 16  1  0  0  0  0
 13 14  1  1  0  0  0
 15 16  2  0  0  0  0
 17 12  2  0  0  0  0
 17 15  1  0  0  0  0
 18 20  1  0  0  0  0
 19 18  1  0  0  0  0
 19 20  1  0  0  0  0
 20 21  1  0  0  0  0
 21 29  1  6  0  0  0
 22 28  1  0  0  0  0
 23 21  1  1  0  0  0
 23 26  1  0  0  0  0
 25 26  1  0  0  0  0
 27 22  2  0  0  0  0
 27 23  1  0  0  0  0
 28 24  1  6  0  0  0
 28 25  1  0  0  0  0
 29 30  1  0  0  0  0
 31 32  1  0  0  0  0
 31 30  1  0  0  0  0
 32 33  1  0  0  0  0
M  END
>  <MODEL>
5

>  <REMARK>
 VINA RESULT:      -6.4      2.350      3.513
  Name = 
  9 active torsions:
  status: ('A' for Active; 'I' for Inactive)
    1  A    between atoms: C_5  and  C_9
    2  A    between atoms: C_6  and  C_8
    3  A    between atoms: C_8  and  N_30
    4  A    between atoms: C_9  and  C_17
    5  A    between atoms: C_9  and  C_32
    6  A    between atoms: C_13  and  C_26
    7  A    between atoms: C_17  and  N_30
    8  A    between atoms: N_24  and  C_27
    9  A    between atoms: N_24  and  C_32
                            x       y       z     vdW  Elec       q    Type
                         _______ _______ _______ _____ _____    ______ ____

>  <TORSDO>
F 9

$$$$
=
 OpenBabel11042415033D

 33 37  0  0  1  0  0  0  0  0999 V2000
  188.5190  176.3790  143.8900 N   0  0  0  0  0  2  0  0  0  0  0  0
  186.8960  178.0280  142.7910 C   0  0  2  0  0  3  0  0  0  0  0  0
  184.5460  178.0820  142.8230 N   0  0  0  0  0  0  0  0  0  0  0  0
  187.8180  175.9430  141.6390 C   0  0  0  0  0  0  0  0  0  0  0  0
  185.4890  177.7760  140.6800 N   0  0  0  0  0  2  0  0  0  0  0  0
  186.4380  178.3940  144.2050 C   0  0  0  0  0  3  0  0  0  0  0  0
  185.5880  177.9320  142.0870 C   0  0  0  0  0  0  0  0  0  0  0  0
  187.3100  176.3100  140.3390 N   0  0  0  0  0  0  0  0  0  0  0  0
  184.9170  178.2860  144.2060 C   0  0  0  0  0  3  0  0  0  0  0  0
  187.7030  176.7280  142.7540 C   0  0  1  0  0  3  0  0  0  0  0  0
  186.7080  177.5680  139.9310 C   0  0  0  0  0  2  0  0  0  0  0  0
  190.1660  173.2170  141.5410 C   0  0  0  0  0  3  0  0  0  0  0  0
  188.9730  172.5080  142.0910 C   0  0  1  0  0  3  0  0  0  0  0  0
  189.2700  172.0080  143.4920 C   0  0  0  0  0  1  0  0  0  0  0  0
  188.5350  174.6430  141.6850 C   0  0  0  0  0  0  0  0  0  0  0  0
  187.9830  173.5710  142.1490 N   0  0  0  0  0  0  0  0  0  0  0  0
  189.8940  174.4570  141.3100 N   0  0  0  0  0  0  0  0  0  0  0  0
  190.1110  178.2380  144.1790 C   0  0  0  0  0  2  0  0  0  0  0  0
  190.5730  177.4780  142.9410 C   0  0  0  0  0  2  0  0  0  0  0  0
  189.9200  176.7400  144.0910 C   0  0  0  0  0  0  0  0  0  0  0  0
  190.7550  175.8850  145.0650 C   0  0  2  0  0  3  0  0  0  0  0  0
  193.4810  173.3440  144.6800 C   0  0  0  0  0  3  0  0  0  0  0  0
  192.0860  175.4070  144.4700 C   0  0  1  0  0  3  0  0  0  0  0  0
  195.7990  173.5810  144.2290 O   0  0  0  0  0  1  0  0  0  0  0  0
  194.5620  175.6160  144.4650 C   0  0  0  0  0  2  0  0  0  0  0  0
  193.2720  176.1800  145.0440 C   0  0  0  0  0  2  0  0  0  0  0  0
  192.2720  173.9080  144.5310 C   0  0  0  0  0  3  0  0  0  0  0  0
  194.7270  174.1610  144.9050 C   0  0  1  0  0  3  0  0  0  0  0  0
  189.9920  174.8500  145.9060 C   0  0  0  0  0  2  0  0  0  0  0  0
  190.2540  175.0150  147.3270 N   0  0  0  0  0  2  0  0  0  0  0  0
  190.3760  176.4440  147.5670 C   0  0  0  0  0  2  0  0  0  0  0  0
  191.5530  176.7110  148.4880 C   0  0  0  0  0  2  0  0  0  0  0  0
  191.4190  177.9720  149.0720 O   0  0  0  0  0  1  0  0  0  0  0  0
  1 20  1  0  0  0  0
  2  6  1  1  0  0  0
  3  9  1  0  0  0  0
  4 15  1  0  0  0  0
  4 10  1  0  0  0  0
  5  7  1  0  0  0  0
  6  9  2  0  0  0  0
  7  2  1  0  0  0  0
  7  3  2  0  0  0  0
  8  4  2  0  0  0  0
 10  2  1  0  0  0  0
 10  1  1  6  0  0  0
 11  8  1  0  0  0  0
 11  5  1  0  0  0  0
 12 13  1  0  0  0  0
 13 16  1  0  0  0  0
 13 14  1  1  0  0  0
 15 16  2  0  0  0  0
 17 12  2  0  0  0  0
 17 15  1  0  0  0  0
 19 20  1  0  0  0  0
 19 18  1  0  0  0  0
 20 18  1  0  0  0  0
 20 21  1  0  0  0  0
 21 29  1  6  0  0  0
 22 28  1  0  0  0  0
 23 27  1  0  0  0  0
 23 26  1  0  0  0  0
 23 21  1  1  0  0  0
 25 28  1  0  0  0  0
 25 26  1  0  0  0  0
 27 22  2  0  0  0  0
 28 24  1  6  0  0  0
 29 30  1  0  0  0  0
 30 31  1  0  0  0  0
 31 32  1  0  0  0  0
 32 33  1  0  0  0  0
M  END
>  <MODEL>
6

>  <REMARK>
 VINA RESULT:      -6.3      2.177      3.066
  Name = 
  9 active torsions:
  status: ('A' for Active; 'I' for Inactive)
    1  A    between atoms: C_5  and  C_9
    2  A    between atoms: C_6  and  C_8
    3  A    between atoms: C_8  and  N_30
    4  A    between atoms: C_9  and  C_17
    5  A    between atoms: C_9  and  C_32
    6  A    between atoms: C_13  and  C_26
    7  A    between atoms: C_17  and  N_30
    8  A    between atoms: N_24  and  C_27
    9  A    between atoms: N_24  and  C_32
                            x       y       z     vdW  Elec       q    Type
                         _______ _______ _______ _____ _____    ______ ____

>  <TORSDO>
F 9

$$$$
=
 OpenBabel11042415033D

 33 37  0  0  1  0  0  0  0  0999 V2000
  189.6080  175.1540  145.7960 N   0  0  0  0  0  2  0  0  0  0  0  0
  187.9590  177.0040  145.1470 C   0  0  2  0  0  3  0  0  0  0  0  0
  185.6090  177.0200  145.2010 N   0  0  0  0  0  0  0  0  0  0  0  0
  188.8950  175.2820  143.5100 C   0  0  0  0  0  0  0  0  0  0  0  0
  186.5400  177.2670  143.0450 N   0  0  0  0  0  2  0  0  0  0  0  0
  187.5080  177.0020  146.6100 C   0  0  0  0  0  3  0  0  0  0  0  0
  186.6480  177.0700  144.4460 C   0  0  0  0  0  0  0  0  0  0  0  0
  188.3740  175.9530  142.3440 N   0  0  0  0  0  0  0  0  0  0  0  0
  185.9880  176.8790  146.5900 C   0  0  0  0  0  3  0  0  0  0  0  0
  188.7800  175.7630  144.7850 C   0  0  1  0  0  3  0  0  0  0  0  0
  187.7560  177.2660  142.2630 C   0  0  0  0  0  2  0  0  0  0  0  0
  190.1870  171.9260  143.3540 C   0  0  0  0  0  3  0  0  0  0  0  0
  190.9640  172.5510  142.2430 C   0  0  1  0  0  3  0  0  0  0  0  0
  190.5950  171.8960  140.9250 C   0  0  0  0  0  1  0  0  0  0  0  0
  189.6260  174.0200  143.2280 C   0  0  0  0  0  0  0  0  0  0  0  0
  190.4790  173.9210  142.2630 N   0  0  0  0  0  0  0  0  0  0  0  0
  189.4160  172.7940  143.9170 N   0  0  0  0  0  0  0  0  0  0  0  0
  191.1860  175.2970  147.6820 C   0  0  0  0  0  2  0  0  0  0  0  0
  190.9210  176.7330  147.2470 C   0  0  0  0  0  2  0  0  0  0  0  0
  190.9250  175.6140  146.2270 C   0  0  0  0  0  0  0  0  0  0  0  0
  192.1100  175.4220  145.2610 C   0  0  2  0  0  3  0  0  0  0  0  0
  195.7220  174.5590  145.7630 C   0  0  0  0  0  3  0  0  0  0  0  0
  193.2230  174.5320  145.8300 C   0  0  1  0  0  3  0  0  0  0  0  0
  196.8140  172.4730  146.0620 O   0  0  0  0  0  1  0  0  0  0  0  0
  194.4520  172.3780  145.6820 C   0  0  0  0  0  2  0  0  0  0  0  0
  193.2910  173.1830  145.1160 C   0  0  0  0  0  2  0  0  0  0  0  0
  194.5660  175.2240  145.9160 C   0  0  0  0  0  3  0  0  0  0  0  0
  195.7670  173.1000  145.3880 C   0  0  1  0  0  3  0  0  0  0  0  0
  192.5820  176.6620  144.4860 C   0  0  0  0  0  2  0  0  0  0  0  0
  192.4640  176.4730  143.0490 N   0  0  0  0  0  2  0  0  0  0  0  0
  193.8130  176.2920  142.5380 C   0  0  0  0  0  2  0  0  0  0  0  0
  193.9540  174.9060  141.9370 C   0  0  0  0  0  2  0  0  0  0  0  0
  193.4370  174.8980  140.6400 O   0  0  0  0  0  1  0  0  0  0  0  0
  1 20  1  0  0  0  0
  2  6  1  1  0  0  0
  3  9  1  0  0  0  0
  4 10  1  0  0  0  0
  5  7  1  0  0  0  0
  7  2  1  0  0  0  0
  7  3  2  0  0  0  0
  8  4  2  0  0  0  0
  9  6  2  0  0  0  0
 10  2  1  0  0  0  0
 10  1  1  6  0  0  0
 11  8  1  0  0  0  0
 11  5  1  0  0  0  0
 12 17  2  0  0  0  0
 13 14  1  6  0  0  0
 13 16  1  0  0  0  0
 13 12  1  0  0  0  0
 15  4  1  0  0  0  0
 15 17  1  0  0  0  0
 16 15  2  0  0  0  0
 19 18  1  0  0  0  0
 20 19  1  0  0  0  0
 20 18  1  0  0  0  0
 21 29  1  1  0  0  0
 21 20  1  0  0  0  0
 22 27  2  0  0  0  0
 23 21  1  6  0  0  0
 23 27  1  0  0  0  0
 26 25  1  0  0  0  0
 26 23  1  0  0  0  0
 28 25  1  0  0  0  0
 28 22  1  0  0  0  0
 28 24  1  1  0  0  0
 30 29  1  0  0  0  0
 31 30  1  0  0  0  0
 32 31  1  0  0  0  0
 33 32  1  0  0  0  0
M  END
>  <MODEL>
7

>  <REMARK>
 VINA RESULT:      -6.3      2.047      3.060
  Name = 
  9 active torsions:
  status: ('A' for Active; 'I' for Inactive)
    1  A    between atoms: C_5  and  C_9
    2  A    between atoms: C_6  and  C_8
    3  A    between atoms: C_8  and  N_30
    4  A    between atoms: C_9  and  C_17
    5  A    between atoms: C_9  and  C_32
    6  A    between atoms: C_13  and  C_26
    7  A    between atoms: C_17  and  N_30
    8  A    between atoms: N_24  and  C_27
    9  A    between atoms: N_24  and  C_32
                            x       y       z     vdW  Elec       q    Type
                         _______ _______ _______ _____ _____    ______ ____

>  <TORSDO>
F 9

$$$$
=
 OpenBabel11042415033D

 33 37  0  0  1  0  0  0  0  0999 V2000
  188.6460  175.9890  144.6020 N   0  0  0  0  0  2  0  0  0  0  0  0
  186.8010  177.7390  144.9150 C   0  0  2  0  0  3  0  0  0  0  0  0
  184.6560  177.5210  145.8500 N   0  0  0  0  0  0  0  0  0  0  0  0
  187.1020  176.3370  142.8010 C   0  0  0  0  0  0  0  0  0  0  0  0
  184.6710  178.1280  143.5680 N   0  0  0  0  0  2  0  0  0  0  0  0
  186.9490  177.5070  146.4210 C   0  0  0  0  0  3  0  0  0  0  0  0
  185.3190  177.7660  144.7770 C   0  0  0  0  0  0  0  0  0  0  0  0
  186.1450  177.0970  142.0350 N   0  0  0  0  0  0  0  0  0  0  0  0
  185.5470  177.2410  146.9540 C   0  0  0  0  0  3  0  0  0  0  0  0
  187.4690  176.6390  144.0840 C   0  0  1  0  0  3  0  0  0  0  0  0
  185.4910  178.3440  142.3960 C   0  0  0  0  0  2  0  0  0  0  0  0
  188.1140  173.1510  141.4670 C   0  0  0  0  0  3  0  0  0  0  0  0
  188.8950  174.0600  140.5780 C   0  0  1  0  0  3  0  0  0  0  0  0
  188.4250  173.9070  139.1440 C   0  0  0  0  0  1  0  0  0  0  0  0
  187.7180  175.1980  142.0740 C   0  0  0  0  0  0  0  0  0  0  0  0
  188.5230  175.3730  141.0790 N   0  0  0  0  0  0  0  0  0  0  0  0
  187.4370  173.8280  142.3320 N   0  0  0  0  0  0  0  0  0  0  0  0
  190.2920  177.7810  144.9900 C   0  0  0  0  0  2  0  0  0  0  0  0
  190.2140  177.6030  143.4790 C   0  0  0  0  0  2  0  0  0  0  0  0
  190.0290  176.4150  144.3980 C   0  0  0  0  0  0  0  0  0  0  0  0
  191.1420  175.3640  144.5770 C   0  0  2  0  0  3  0  0  0  0  0  0
  190.9030  171.6590  144.0750 C   0  0  0  0  0  3  0  0  0  0  0  0
  190.9620  174.1270  143.6870 C   0  0  1  0  0  3  0  0  0  0  0  0
  191.4820  170.2810  142.2320 O   0  0  0  0  0  1  0  0  0  0  0  0
  191.9690  172.6120  141.9940 C   0  0  0  0  0  2  0  0  0  0  0  0
  192.1830  173.8850  142.8010 C   0  0  0  0  0  2  0  0  0  0  0  0
  190.5290  172.8940  144.4470 C   0  0  0  0  0  3  0  0  0  0  0  0
  191.8660  171.4170  142.9420 C   0  0  1  0  0  3  0  0  0  0  0  0
  191.6090  175.0870  146.0140 C   0  0  0  0  0  2  0  0  0  0  0  0
  193.0570  174.9740  146.0960 N   0  0  0  0  0  2  0  0  0  0  0  0
  193.5590  176.2820  146.4810 C   0  0  0  0  0  2  0  0  0  0  0  0
  194.3220  176.9020  145.3240 C   0  0  0  0  0  2  0  0  0  0  0  0
  194.9740  178.0590  145.7540 O   0  0  0  0  0  1  0  0  0  0  0  0
  2  6  1  1  0  0  0
  3  9  1  0  0  0  0
  4 10  1  0  0  0  0
  5  7  1  0  0  0  0
  6  9  2  0  0  0  0
  7  2  1  0  0  0  0
  7  3  2  0  0  0  0
  8 11  1  0  0  0  0
  8  4  2  0  0  0  0
 10  1  1  6  0  0  0
 10  2  1  0  0  0  0
 11  5  1  0  0  0  0
 12 17  2  0  0  0  0
 13 14  1  6  0  0  0
 13 16  1  0  0  0  0
 13 12  1  0  0  0  0
 15 17  1  0  0  0  0
 15  4  1  0  0  0  0
 16 15  2  0  0  0  0
 19 20  1  0  0  0  0
 19 18  1  0  0  0  0
 20 21  1  0  0  0  0
 20  1  1  0  0  0  0
 20 18  1  0  0  0  0
 21 29  1  1  0  0  0
 22 27  2  0  0  0  0
 23 27  1  0  0  0  0
 23 21  1  1  0  0  0
 25 26  1  0  0  0  0
 25 28  1  0  0  0  0
 26 23  1  0  0  0  0
 28 24  1  6  0  0  0
 28 22  1  0  0  0  0
 29 30  1  0  0  0  0
 30 31  1  0  0  0  0
 32 33  1  0  0  0  0
 32 31  1  0  0  0  0
M  END
>  <MODEL>
8

>  <REMARK>
 VINA RESULT:      -6.3      1.500      3.104
  Name = 
  9 active torsions:
  status: ('A' for Active; 'I' for Inactive)
    1  A    between atoms: C_5  and  C_9
    2  A    between atoms: C_6  and  C_8
    3  A    between atoms: C_8  and  N_30
    4  A    between atoms: C_9  and  C_17
    5  A    between atoms: C_9  and  C_32
    6  A    between atoms: C_13  and  C_26
    7  A    between atoms: C_17  and  N_30
    8  A    between atoms: N_24  and  C_27
    9  A    between atoms: N_24  and  C_32
                            x       y       z     vdW  Elec       q    Type
                         _______ _______ _______ _____ _____    ______ ____

>  <TORSDO>
F 9

$$$$
=
 OpenBabel11042415033D

 33 37  0  0  1  0  0  0  0  0999 V2000
  189.1040  175.9660  144.2740 N   0  0  0  0  0  2  0  0  0  0  0  0
  187.2190  177.5370  145.0070 C   0  0  2  0  0  3  0  0  0  0  0  0
  185.3660  177.1280  146.3940 N   0  0  0  0  0  0  0  0  0  0  0  0
  187.1720  176.1460  142.8650 C   0  0  0  0  0  0  0  0  0  0  0  0
  184.8150  177.7090  144.1730 N   0  0  0  0  0  2  0  0  0  0  0  0
  187.7200  177.3370  146.4400 C   0  0  0  0  0  3  0  0  0  0  0  0
  185.7480  177.4230  145.2040 C   0  0  0  0  0  0  0  0  0  0  0  0
  186.0010  176.8050  142.3390 N   0  0  0  0  0  0  0  0  0  0  0  0
  186.5030  176.9460  147.2700 C   0  0  0  0  0  3  0  0  0  0  0  0
  187.7850  176.4960  144.0370 C   0  0  1  0  0  3  0  0  0  0  0  0
  185.3290  177.9880  142.8500 C   0  0  0  0  0  2  0  0  0  0  0  0
  188.8690  174.0970  140.4420 C   0  0  0  0  0  3  0  0  0  0  0  0
  188.2180  173.0340  141.2650 C   0  0  1  0  0  3  0  0  0  0  0  0
  189.2780  172.1800  141.9350 C   0  0  0  0  0  1  0  0  0  0  0  0
  187.7150  175.0620  142.0080 C   0  0  0  0  0  0  0  0  0  0  0  0
  187.5100  173.8140  142.2670 N   0  0  0  0  0  0  0  0  0  0  0  0
  188.5650  175.2690  140.8870 N   0  0  0  0  0  0  0  0  0  0  0  0
  190.5110  177.9880  144.3430 C   0  0  0  0  0  2  0  0  0  0  0  0
  190.2410  177.7150  142.8680 C   0  0  0  0  0  2  0  0  0  0  0  0
  190.3660  176.5660  143.8470 C   0  0  0  0  0  0  0  0  0  0  0  0
  191.6340  175.6920  143.8930 C   0  0  2  0  0  3  0  0  0  0  0  0
  193.1880  173.6350  141.1740 C   0  0  0  0  0  3  0  0  0  0  0  0
  192.3250  175.5480  142.5310 C   0  0  1  0  0  3  0  0  0  0  0  0
  194.9080  174.1280  139.6160 O   0  0  0  0  0  1  0  0  0  0  0  0
  194.4080  175.8450  141.2070 C   0  0  0  0  0  2  0  0  0  0  0  0
  193.7590  176.0750  142.5650 C   0  0  0  0  0  2  0  0  0  0  0  0
  192.2200  174.1600  141.9420 C   0  0  0  0  0  3  0  0  0  0  0  0
  194.4940  174.3440  140.9290 C   0  0  1  0  0  3  0  0  0  0  0  0
  191.5640  174.4130  144.7400 C   0  0  0  0  0  2  0  0  0  0  0  0
  192.7540  174.2450  145.5590 N   0  0  0  0  0  2  0  0  0  0  0  0
  192.7910  175.3710  146.4790 C   0  0  0  0  0  2  0  0  0  0  0  0
  194.1890  175.9620  146.5110 C   0  0  0  0  0  2  0  0  0  0  0  0
  194.2080  177.1700  145.8100 O   0  0  0  0  0  1  0  0  0  0  0  0
  2  7  1  0  0  0  0
  2  6  1  1  0  0  0
  3  9  1  0  0  0  0
  4 10  1  0  0  0  0
  5  7  1  0  0  0  0
  6  9  2  0  0  0  0
  7  3  2  0  0  0  0
  8 11  1  0  0  0  0
  8  4  2  0  0  0  0
 10  1  1  6  0  0  0
 10  2  1  0  0  0  0
 11  5  1  0  0  0  0
 12 17  2  0  0  0  0
 12 13  1  0  0  0  0
 13 14  1  1  0  0  0
 13 16  1  0  0  0  0
 15 16  2  0  0  0  0
 15  4  1  0  0  0  0
 17 15  1  0  0  0  0
 19 20  1  0  0  0  0
 19 18  1  0  0  0  0
 20 21  1  0  0  0  0
 20  1  1  0  0  0  0
 20 18  1  0  0  0  0
 21 29  1  6  0  0  0
 22 27  2  0  0  0  0
 23 26  1  0  0  0  0
 23 21  1  1  0  0  0
 25 26  1  0  0  0  0
 27 23  1  0  0  0  0
 28 24  1  6  0  0  0
 28 22  1  0  0  0  0
 28 25  1  0  0  0  0
 29 30  1  0  0  0  0
 30 31  1  0  0  0  0
 31 32  1  0  0  0  0
 33 32  1  0  0  0  0
M  END
>  <MODEL>
9

>  <REMARK>
 VINA RESULT:      -6.2      1.494      2.276
  Name = 
  9 active torsions:
  status: ('A' for Active; 'I' for Inactive)
    1  A    between atoms: C_5  and  C_9
    2  A    between atoms: C_6  and  C_8
    3  A    between atoms: C_8  and  N_30
    4  A    between atoms: C_9  and  C_17
    5  A    between atoms: C_9  and  C_32
    6  A    between atoms: C_13  and  C_26
    7  A    between atoms: C_17  and  N_30
    8  A    between atoms: N_24  and  C_27
    9  A    between atoms: N_24  and  C_32
                            x       y       z     vdW  Elec       q    Type
                         _______ _______ _______ _____ _____    ______ ____

>  <TORSDO>
F 9

$$$$
