=
 OpenBabel11042415393D

 46 50  0  0  1  0  0  0  0  0999 V2000
  192.7870  176.8110  142.4110 O   0  0  0  0  0  1  0  0  0  0  0  0
  189.6640  176.5460  144.2940 C   0  0  0  0  0  3  0  0  0  0  0  0
  190.6010  177.0010  143.4650 C   0  0  0  0  0  3  0  0  0  0  0  0
  192.0580  176.7990  143.5960 C   0  0  0  0  0  0  0  0  0  0  0  0
  189.9620  175.6880  145.4790 C   0  0  1  0  0  3  0  0  0  0  0  0
  192.7210  176.6690  144.7690 C   0  0  0  0  0  0  0  0  0  0  0  0
  190.8790  176.3740  146.4360 C   0  0  0  0  0  3  0  0  0  0  0  0
  192.1040  176.7700  146.1080 C   0  0  0  0  0  3  0  0  0  0  0  0
  194.2110  176.5550  144.7590 C   0  0  0  0  0  2  0  0  0  0  0  0
  194.7250  176.2150  146.1540 C   0  0  0  0  0  2  0  0  0  0  0  0
  195.2210  174.7780  146.2200 C   0  0  0  0  0  2  0  0  0  0  0  0
  196.1770  174.4920  145.0690 C   0  0  0  0  0  2  0  0  0  0  0  0
  195.3700  172.6000  143.6040 C   0  0  0  0  0  0  0  0  0  0  0  0
  196.9620  170.7850  145.0310 C   0  0  0  0  0  0  0  0  0  0  0  0
  196.1520  173.0450  144.6900 C   0  0  0  0  0  0  0  0  0  0  0  0
  195.3910  171.2430  143.2490 C   0  0  0  0  0  3  0  0  0  0  0  0
  196.1820  170.3390  143.9610 C   0  0  0  0  0  3  0  0  0  0  0  0
  197.7480  169.8880  145.7370 O   0  0  0  0  0  1  0  0  0  0  0  0
  196.9510  172.1340  145.3890 C   0  0  0  0  0  3  0  0  0  0  0  0
  194.5220  173.5700  142.8190 C   0  0  2  0  0  3  0  0  0  0  0  0
  192.4200  173.1740  144.2330 C   0  0  0  0  0  2  0  0  0  0  0  0
  193.0610  173.2210  142.8640 C   0  0  0  0  0  0  0  0  0  0  0  0
  192.3840  173.0450  141.7060 C   0  0  0  0  0  3  0  0  0  0  0  0
  190.0350  173.2950  142.5800 C   0  0  0  0  0  2  0  0  0  0  0  0
  190.0120  172.5280  143.9020 C   0  0  0  0  0  2  0  0  0  0  0  0
  191.3950  172.0620  144.3690 C   0  0  0  0  0  2  0  0  0  0  0  0
  190.9410  172.6180  141.5630 C   0  0  0  0  0  2  0  0  0  0  0  0
  194.9730  173.7010  141.5000 O   0  0  0  0  0  0  0  0  0  0  0  0
  195.6060  174.9420  141.4580 C   0  0  0  0  0  1  0  0  0  0  0  0
  188.6790  175.2330  146.1730 C   0  0  0  0  0  2  0  0  0  0  0  0
  188.1810  176.2350  147.1800 C   0  0  0  0  0  3  0  0  0  0  0  0
  187.0460  176.9230  147.0190 C   0  0  0  0  0  3  0  0  0  0  0  0
  186.1510  176.7640  145.8190 C   0  0  1  0  0  3  0  0  0  0  0  0
  184.8930  177.5340  145.8370 C   0  0  2  0  0  3  0  0  0  0  0  0
  186.0610  178.0470  145.1020 N   0  0  2  0  0  0  0  0  0  0  0  0
  184.6550  178.4000  147.0680 C   0  0  0  0  0  1  0  0  0  0  0  0
  184.3760  178.5940  143.0730 S   0  0  0  0  0  0  0  0  0  0  0  0
  184.4970  177.8220  141.4140 C   0  0  2  0  0  3  0  0  0  0  0  0
  187.0720  176.2750  141.4580 O   0  0  0  0  0  1  0  0  0  0  0  0
  187.0770  178.1980  142.8960 C   0  0  0  0  0  2  0  0  0  0  0  0
  185.8130  177.6660  139.4020 O   0  0  0  0  0  1  0  0  0  0  0  0
  185.8080  178.1870  140.6980 C   0  0  2  0  0  3  0  0  0  0  0  0
  187.0320  177.6720  141.4640 C   0  0  2  0  0  3  0  0  0  0  0  0
  185.8630  177.7360  143.6940 C   0  0  1  0  0  3  0  0  0  0  0  0
  183.3440  178.0370  140.6290 O   0  0  0  0  0  0  0  0  0  0  0  0
  182.2450  178.2450  141.4780 C   0  0  0  0  0  1  0  0  0  0  0  0
  1  4  1  0  0  0  0
  2  5  1  0  0  0  0
  3  4  1  0  0  0  0
  3  2  2  0  0  0  0
  4  6  2  0  0  0  0
  5 30  1  1  0  0  0
  5  7  1  0  0  0  0
  6  8  1  0  0  0  0
  8  7  2  0  0  0  0
  9  6  1  0  0  0  0
  9 10  1  0  0  0  0
 10 11  1  0  0  0  0
 12 11  1  0  0  0  0
 13 15  1  0  0  0  0
 14 19  1  0  0  0  0
 14 18  1  0  0  0  0
 15 12  1  0  0  0  0
 15 19  2  0  0  0  0
 16 13  2  0  0  0  0
 16 17  1  0  0  0  0
 17 14  2  0  0  0  0
 20 28  1  6  0  0  0
 20 22  1  0  0  0  0
 20 13  1  0  0  0  0
 21 26  1  0  0  0  0
 22 21  1  0  0  0  0
 23 22  2  0  0  0  0
 24 25  1  0  0  0  0
 25 26  1  0  0  0  0
 27 23  1  0  0  0  0
 27 24  1  0  0  0  0
 29 28  1  0  0  0  0
 30 31  1  0  0  0  0
 32 31  2  0  0  0  0
 33 34  1  0  0  0  0
 33 32  1  1  0  0  0
 34 36  1  1  0  0  0
 35 44  1  6  0  0  0
 35 33  1  0  0  0  0
 35 34  1  0  0  0  0
 37 44  1  0  0  0  0
 38 45  1  6  0  0  0
 38 37  1  0  0  0  0
 42 41  1  6  0  0  0
 42 38  1  0  0  0  0
 42 43  1  0  0  0  0
 43 39  1  1  0  0  0
 43 40  1  0  0  0  0
 44 40  1  6  0  0  0
 45 46  1  0  0  0  0
M  END
>  <MODEL>
1

>  <REMARK>
 VINA RESULT:      -7.4      0.000      0.000
  Name = 
  13 active torsions:
  status: ('A' for Active; 'I' for Inactive)
    1  A    between atoms: C_2  and  C_7
    2  A    between atoms: C_2  and  C_18
    3  A    between atoms: C_3  and  O_20
    4  A    between atoms: C_6  and  C_27
    5  A    between atoms: C_7  and  C_12
    6  A    between atoms: C_10  and  C_42
    7  A    between atoms: C_11  and  C_27
    8  A    between atoms: C_12  and  C_24
    9  A    between atoms: C_24  and  C_40
   10  A    between atoms: C_27  and  O_41
   11  A    between atoms: N_28  and  C_38
   12  A    between atoms: C_30  and  C_35
   13  A    between atoms: C_35  and  C_36
                            x       y       z     vdW  Elec       q    Type
                         _______ _______ _______ _____ _____    ______ ____

>  <TORSDO>
F 13

$$$$
=
 OpenBabel11042415393D

 46 50  0  0  1  0  0  0  0  0999 V2000
  194.5520  177.5120  146.7010 O   0  0  0  0  0  1  0  0  0  0  0  0
  191.3580  175.7410  146.8520 C   0  0  0  0  0  3  0  0  0  0  0  0
  192.4390  176.4230  147.2220 C   0  0  0  0  0  3  0  0  0  0  0  0
  193.7690  176.3680  146.5830 C   0  0  0  0  0  0  0  0  0  0  0  0
  191.3230  174.8410  145.6610 C   0  0  1  0  0  3  0  0  0  0  0  0
  194.2870  175.2840  145.9600 C   0  0  0  0  0  0  0  0  0  0  0  0
  192.3270  173.7420  145.7730 C   0  0  0  0  0  3  0  0  0  0  0  0
  193.6330  173.9620  145.8740 C   0  0  0  0  0  3  0  0  0  0  0  0
  195.6840  175.3420  145.4300 C   0  0  0  0  0  2  0  0  0  0  0  0
  196.4330  174.0590  145.7730 C   0  0  0  0  0  2  0  0  0  0  0  0
  197.5170  173.7660  144.7450 C   0  0  0  0  0  2  0  0  0  0  0  0
  197.7260  172.2640  144.6080 C   0  0  0  0  0  2  0  0  0  0  0  0
  195.5070  171.5000  143.6720 C   0  0  0  0  0  0  0  0  0  0  0  0
  194.9740  170.0820  146.0320 C   0  0  0  0  0  0  0  0  0  0  0  0
  196.4330  171.5220  144.7370 C   0  0  0  0  0  0  0  0  0  0  0  0
  194.3180  170.7690  143.8080 C   0  0  0  0  0  3  0  0  0  0  0  0
  194.0520  170.0650  144.9840 C   0  0  0  0  0  3  0  0  0  0  0  0
  194.7100  169.3820  147.2000 O   0  0  0  0  0  1  0  0  0  0  0  0
  196.1630  170.8030  145.9060 C   0  0  0  0  0  3  0  0  0  0  0  0
  195.7910  172.2460  142.3920 C   0  0  2  0  0  3  0  0  0  0  0  0
  193.4180  173.2180  142.4230 C   0  0  0  0  0  2  0  0  0  0  0  0
  194.9000  173.4430  142.2170 C   0  0  0  0  0  0  0  0  0  0  0  0
  195.4520  174.6520  141.9650 C   0  0  0  0  0  3  0  0  0  0  0  0
  193.4990  176.1170  142.5890 C   0  0  0  0  0  2  0  0  0  0  0  0
  192.2700  175.4170  142.0110 C   0  0  0  0  0  2  0  0  0  0  0  0
  192.5580  174.0160  141.4610 C   0  0  0  0  0  2  0  0  0  0  0  0
  194.7110  175.9400  141.6860 C   0  0  0  0  0  2  0  0  0  0  0  0
  195.7320  171.4010  141.2780 O   0  0  0  0  0  0  0  0  0  0  0  0
  197.0580  171.2230  140.8900 C   0  0  0  0  0  1  0  0  0  0  0  0
  189.9190  174.2840  145.4260 C   0  0  0  0  0  2  0  0  0  0  0  0
  189.8360  173.4310  144.1890 C   0  0  0  0  0  3  0  0  0  0  0  0
  189.2530  173.8470  143.0590 C   0  0  0  0  0  3  0  0  0  0  0  0
  188.6250  175.2070  142.9100 C   0  0  1  0  0  3  0  0  0  0  0  0
  188.2470  175.6040  141.5400 C   0  0  2  0  0  3  0  0  0  0  0  0
  187.2330  175.0560  142.4560 N   0  0  2  0  0  0  0  0  0  0  0  0
  188.5350  174.5860  140.4440 C   0  0  0  0  0  1  0  0  0  0  0  0
  187.2630  176.7570  144.5440 S   0  0  0  0  0  0  0  0  0  0  0  0
  185.9540  178.0010  144.8610 C   0  0  2  0  0  3  0  0  0  0  0  0
  184.1870  177.9130  142.4330 O   0  0  0  0  0  1  0  0  0  0  0  0
  186.4700  177.3190  141.9870 C   0  0  0  0  0  2  0  0  0  0  0  0
  184.9320  180.0360  144.0720 O   0  0  0  0  0  1  0  0  0  0  0  0
  185.8670  179.0520  143.7410 C   0  0  2  0  0  3  0  0  0  0  0  0
  185.4900  178.4150  142.3990 C   0  0  2  0  0  3  0  0  0  0  0  0
  186.4820  176.1790  142.9990 C   0  0  1  0  0  3  0  0  0  0  0  0
  186.0360  178.5590  146.1560 O   0  0  0  0  0  0  0  0  0  0  0  0
  186.9510  177.8150  146.9170 C   0  0  0  0  0  1  0  0  0  0  0  0
  2  3  2  0  0  0  0
  4  1  1  0  0  0  0
  4  3  1  0  0  0  0
  5 30  1  1  0  0  0
  5  7  1  0  0  0  0
  5  2  1  0  0  0  0
  6  4  2  0  0  0  0
  7  8  2  0  0  0  0
  8  6  1  0  0  0  0
  9 10  1  0  0  0  0
  9  6  1  0  0  0  0
 11 10  1  0  0  0  0
 12 15  1  0  0  0  0
 12 11  1  0  0  0  0
 13 16  2  0  0  0  0
 13 15  1  0  0  0  0
 14 18  1  0  0  0  0
 15 19  2  0  0  0  0
 16 17  1  0  0  0  0
 17 14  2  0  0  0  0
 19 14  1  0  0  0  0
 20 28  1  6  0  0  0
 20 13  1  0  0  0  0
 22 20  1  0  0  0  0
 22 21  1  0  0  0  0
 23 22  2  0  0  0  0
 25 24  1  0  0  0  0
 26 25  1  0  0  0  0
 26 21  1  0  0  0  0
 27 23  1  0  0  0  0
 27 24  1  0  0  0  0
 29 28  1  0  0  0  0
 31 30  1  0  0  0  0
 32 31  2  0  0  0  0
 33 32  1  6  0  0  0
 34 36  1  6  0  0  0
 34 35  1  0  0  0  0
 34 33  1  0  0  0  0
 35 33  1  0  0  0  0
 35 44  1  1  0  0  0
 37 38  1  0  0  0  0
 38 45  1  1  0  0  0
 40 43  1  0  0  0  0
 42 41  1  1  0  0  0
 42 38  1  0  0  0  0
 43 39  1  1  0  0  0
 43 42  1  0  0  0  0
 44 40  1  6  0  0  0
 44 37  1  0  0  0  0
 45 46  1  0  0  0  0
M  END
>  <MODEL>
2

>  <REMARK>
 VINA RESULT:      -7.2      2.142      3.734
  Name = 
  13 active torsions:
  status: ('A' for Active; 'I' for Inactive)
    1  A    between atoms: C_2  and  C_7
    2  A    between atoms: C_2  and  C_18
    3  A    between atoms: C_3  and  O_20
    4  A    between atoms: C_6  and  C_27
    5  A    between atoms: C_7  and  C_12
    6  A    between atoms: C_10  and  C_42
    7  A    between atoms: C_11  and  C_27
    8  A    between atoms: C_12  and  C_24
    9  A    between atoms: C_24  and  C_40
   10  A    between atoms: C_27  and  O_41
   11  A    between atoms: N_28  and  C_38
   12  A    between atoms: C_30  and  C_35
   13  A    between atoms: C_35  and  C_36
                            x       y       z     vdW  Elec       q    Type
                         _______ _______ _______ _____ _____    ______ ____

>  <TORSDO>
F 13

$$$$
=
 OpenBabel11042415393D

 46 50  0  0  1  0  0  0  0  0999 V2000
  197.5500  172.8350  145.0730 O   0  0  0  0  0  1  0  0  0  0  0  0
  194.9490  175.2410  145.9730 C   0  0  0  0  0  3  0  0  0  0  0  0
  196.0530  174.4990  146.0280 C   0  0  0  0  0  3  0  0  0  0  0  0
  196.2440  173.1700  145.4150 C   0  0  0  0  0  0  0  0  0  0  0  0
  193.7310  174.8460  145.2050 C   0  0  1  0  0  3  0  0  0  0  0  0
  195.2650  172.2540  145.2260 C   0  0  0  0  0  0  0  0  0  0  0  0
  193.1750  173.5480  145.6890 C   0  0  0  0  0  3  0  0  0  0  0  0
  193.8610  172.4110  145.6600 C   0  0  0  0  0  3  0  0  0  0  0  0
  195.6160  170.9110  144.6710 C   0  0  0  0  0  2  0  0  0  0  0  0
  194.4330  170.3310  143.9040 C   0  0  0  0  0  2  0  0  0  0  0  0
  194.5130  170.6810  142.4250 C   0  0  0  0  0  2  0  0  0  0  0  0
  193.2440  171.3940  141.9780 C   0  0  0  0  0  2  0  0  0  0  0  0
  192.3690  173.7560  141.7930 C   0  0  0  0  0  0  0  0  0  0  0  0
  194.9910  174.7510  141.7780 C   0  0  0  0  0  0  0  0  0  0  0  0
  193.4640  172.8690  141.8580 C   0  0  0  0  0  0  0  0  0  0  0  0
  192.6040  175.1370  141.7140 C   0  0  0  0  0  3  0  0  0  0  0  0
  193.9100  175.6320  141.7040 C   0  0  0  0  0  3  0  0  0  0  0  0
  196.2880  175.2430  141.7690 O   0  0  0  0  0  1  0  0  0  0  0  0
  194.7680  173.3750  141.8600 C   0  0  0  0  0  3  0  0  0  0  0  0
  190.9550  173.2330  141.8160 C   0  0  2  0  0  3  0  0  0  0  0  0
  190.8610  172.7400  139.3020 C   0  0  0  0  0  2  0  0  0  0  0  0
  190.2500  173.4270  140.5030 C   0  0  0  0  0  0  0  0  0  0  0  0
  189.0920  174.1240  140.4670 C   0  0  0  0  0  3  0  0  0  0  0  0
  188.2230  173.3320  138.2390 C   0  0  0  0  0  2  0  0  0  0  0  0
  189.4380  173.3250  137.3120 C   0  0  0  0  0  2  0  0  0  0  0  0
  190.7670  173.5700  138.0340 C   0  0  0  0  0  2  0  0  0  0  0  0
  188.2930  174.4810  139.2330 C   0  0  0  0  0  2  0  0  0  0  0  0
  190.2190  173.7810  142.8730 O   0  0  0  0  0  0  0  0  0  0  0  0
  190.1540  172.7700  143.8300 C   0  0  0  0  0  1  0  0  0  0  0  0
  192.6710  175.9470  145.2390 C   0  0  0  0  0  2  0  0  0  0  0  0
  192.2780  176.3280  146.6410 C   0  0  0  0  0  3  0  0  0  0  0  0
  191.0140  176.5800  146.9970 C   0  0  0  0  0  3  0  0  0  0  0  0
  189.8590  176.5070  146.0340 C   0  0  1  0  0  3  0  0  0  0  0  0
  188.9020  175.4030  146.2470 C   0  0  2  0  0  3  0  0  0  0  0  0
  188.6010  176.7490  146.7610 N   0  0  2  0  0  0  0  0  0  0  0  0
  189.2000  174.4740  147.4180 C   0  0  0  0  0  1  0  0  0  0  0  0
  188.0840  176.8650  144.1200 S   0  0  0  0  0  0  0  0  0  0  0  0
  186.8100  177.9570  143.3800 C   0  0  2  0  0  3  0  0  0  0  0  0
  185.3310  179.1290  145.7180 O   0  0  0  0  0  1  0  0  0  0  0  0
  186.2540  176.9550  146.1510 C   0  0  0  0  0  2  0  0  0  0  0  0
  184.4460  178.3810  143.1870 O   0  0  0  0  0  1  0  0  0  0  0  0
  185.3910  177.5970  143.8530 C   0  0  2  0  0  3  0  0  0  0  0  0
  185.2380  177.7800  145.3660 C   0  0  2  0  0  3  0  0  0  0  0  0
  187.6820  177.3790  145.8250 C   0  0  1  0  0  3  0  0  0  0  0  0
  186.9310  178.0610  141.9780 O   0  0  0  0  0  0  0  0  0  0  0  0
  188.2780  177.8930  141.6210 C   0  0  0  0  0  1  0  0  0  0  0  0
  1  4  1  0  0  0  0
  2  3  2  0  0  0  0
  4  3  1  0  0  0  0
  5 30  1  1  0  0  0
  5  7  1  0  0  0  0
  5  2  1  0  0  0  0
  6  4  2  0  0  0  0
  6  8  1  0  0  0  0
  8  7  2  0  0  0  0
  9  6  1  0  0  0  0
 10  9  1  0  0  0  0
 11 10  1  0  0  0  0
 12 11  1  0  0  0  0
 13 20  1  0  0  0  0
 13 15  1  0  0  0  0
 14 19  1  0  0  0  0
 15 19  2  0  0  0  0
 15 12  1  0  0  0  0
 16 13  2  0  0  0  0
 17 16  1  0  0  0  0
 17 14  2  0  0  0  0
 18 14  1  0  0  0  0
 20 28  1  1  0  0  0
 21 22  1  0  0  0  0
 22 20  1  0  0  0  0
 23 22  2  0  0  0  0
 24 27  1  0  0  0  0
 25 26  1  0  0  0  0
 25 24  1  0  0  0  0
 26 21  1  0  0  0  0
 27 23  1  0  0  0  0
 28 29  1  0  0  0  0
 30 31  1  0  0  0  0
 31 32  2  0  0  0  0
 33 34  1  0  0  0  0
 33 35  1  0  0  0  0
 33 32  1  1  0  0  0
 34 35  1  0  0  0  0
 34 36  1  1  0  0  0
 35 44  1  6  0  0  0
 37 44  1  0  0  0  0
 38 45  1  6  0  0  0
 38 42  1  0  0  0  0
 38 37  1  0  0  0  0
 42 41  1  6  0  0  0
 42 43  1  0  0  0  0
 43 39  1  6  0  0  0
 43 40  1  0  0  0  0
 44 40  1  1  0  0  0
 46 45  1  0  0  0  0
M  END
>  <MODEL>
3

>  <REMARK>
 VINA RESULT:      -7.1      2.214      4.927
  Name = 
  13 active torsions:
  status: ('A' for Active; 'I' for Inactive)
    1  A    between atoms: C_2  and  C_7
    2  A    between atoms: C_2  and  C_18
    3  A    between atoms: C_3  and  O_20
    4  A    between atoms: C_6  and  C_27
    5  A    between atoms: C_7  and  C_12
    6  A    between atoms: C_10  and  C_42
    7  A    between atoms: C_11  and  C_27
    8  A    between atoms: C_12  and  C_24
    9  A    between atoms: C_24  and  C_40
   10  A    between atoms: C_27  and  O_41
   11  A    between atoms: N_28  and  C_38
   12  A    between atoms: C_30  and  C_35
   13  A    between atoms: C_35  and  C_36
                            x       y       z     vdW  Elec       q    Type
                         _______ _______ _______ _____ _____    ______ ____

>  <TORSDO>
F 13

$$$$
=
 OpenBabel11042415393D

 46 50  0  0  1  0  0  0  0  0999 V2000
  197.5220  172.7400  145.0510 O   0  0  0  0  0  1  0  0  0  0  0  0
  194.9700  175.2250  145.8720 C   0  0  0  0  0  3  0  0  0  0  0  0
  196.0560  174.4600  145.9540 C   0  0  0  0  0  3  0  0  0  0  0  0
  196.2210  173.1110  145.3760 C   0  0  0  0  0  0  0  0  0  0  0  0
  193.7480  174.8370  145.1070 C   0  0  1  0  0  3  0  0  0  0  0  0
  195.2230  172.2130  145.2030 C   0  0  0  0  0  0  0  0  0  0  0  0
  193.1600  173.5640  145.6190 C   0  0  0  0  0  3  0  0  0  0  0  0
  193.8210  172.4120  145.6230 C   0  0  0  0  0  3  0  0  0  0  0  0
  195.5480  170.8500  144.6840 C   0  0  0  0  0  2  0  0  0  0  0  0
  194.3650  170.2850  143.9050 C   0  0  0  0  0  2  0  0  0  0  0  0
  194.4190  170.7060  142.4440 C   0  0  0  0  0  2  0  0  0  0  0  0
  193.0360  170.6140  141.8140 C   0  0  0  0  0  2  0  0  0  0  0  0
  192.0990  172.9590  141.7650 C   0  0  0  0  0  0  0  0  0  0  0  0
  190.3790  172.3410  143.8920 C   0  0  0  0  0  0  0  0  0  0  0  0
  192.1250  171.6740  142.3470 C   0  0  0  0  0  0  0  0  0  0  0  0
  191.2110  173.9240  142.2640 C   0  0  0  0  0  3  0  0  0  0  0  0
  190.3570  173.6170  143.3240 C   0  0  0  0  0  3  0  0  0  0  0  0
  189.5300  172.0360  144.9450 O   0  0  0  0  0  1  0  0  0  0  0  0
  191.2560  171.3720  143.4010 C   0  0  0  0  0  3  0  0  0  0  0  0
  193.0080  173.2980  140.6100 C   0  0  2  0  0  3  0  0  0  0  0  0
  193.8880  175.5100  141.5630 C   0  0  0  0  0  2  0  0  0  0  0  0
  194.1890  174.1250  141.0340 C   0  0  0  0  0  0  0  0  0  0  0  0
  195.4280  173.5840  140.9970 C   0  0  0  0  0  3  0  0  0  0  0  0
  196.6130  175.2030  142.5210 C   0  0  0  0  0  2  0  0  0  0  0  0
  196.0910  176.5840  142.1250 C   0  0  0  0  0  2  0  0  0  0  0  0
  194.9180  176.5420  141.1410 C   0  0  0  0  0  2  0  0  0  0  0  0
  196.7290  174.2880  141.3100 C   0  0  0  0  0  2  0  0  0  0  0  0
  192.3080  173.9100  139.5640 O   0  0  0  0  0  0  0  0  0  0  0  0
  191.9570  172.8680  138.7080 C   0  0  0  0  0  1  0  0  0  0  0  0
  192.7120  175.9610  145.1060 C   0  0  0  0  0  2  0  0  0  0  0  0
  192.3200  176.3860  146.4950 C   0  0  0  0  0  3  0  0  0  0  0  0
  191.0550  176.6440  146.8440 C   0  0  0  0  0  3  0  0  0  0  0  0
  189.8980  176.5330  145.8870 C   0  0  1  0  0  3  0  0  0  0  0  0
  188.9240  175.4590  146.1630 C   0  0  2  0  0  3  0  0  0  0  0  0
  188.6450  176.8380  146.5960 N   0  0  2  0  0  0  0  0  0  0  0  0
  189.2070  174.5960  147.3860 C   0  0  0  0  0  1  0  0  0  0  0  0
  188.2330  176.9410  143.9360 S   0  0  0  0  0  0  0  0  0  0  0  0
  186.9400  177.9730  143.1470 C   0  0  2  0  0  3  0  0  0  0  0  0
  185.3100  179.0610  145.4240 O   0  0  0  0  0  1  0  0  0  0  0  0
  186.3180  176.9330  145.8900 C   0  0  0  0  0  2  0  0  0  0  0  0
  184.5680  178.2840  142.8560 O   0  0  0  0  0  1  0  0  0  0  0  0
  185.5220  177.5430  143.5580 C   0  0  2  0  0  3  0  0  0  0  0  0
  185.2960  177.7110  145.0650 C   0  0  2  0  0  3  0  0  0  0  0  0
  187.7360  177.4270  145.6240 C   0  0  1  0  0  3  0  0  0  0  0  0
  187.1140  178.0890  141.7510 O   0  0  0  0  0  0  0  0  0  0  0  0
  187.4050  176.8220  141.2200 C   0  0  0  0  0  1  0  0  0  0  0  0
  1  4  1  0  0  0  0
  2  3  2  0  0  0  0
  4  3  1  0  0  0  0
  5 30  1  1  0  0  0
  5  7  1  0  0  0  0
  5  2  1  0  0  0  0
  6  4  2  0  0  0  0
  6  8  1  0  0  0  0
  7  8  2  0  0  0  0
  9  6  1  0  0  0  0
 10  9  1  0  0  0  0
 11 10  1  0  0  0  0
 12 15  1  0  0  0  0
 12 11  1  0  0  0  0
 13 16  2  0  0  0  0
 13 15  1  0  0  0  0
 14 18  1  0  0  0  0
 15 19  2  0  0  0  0
 16 17  1  0  0  0  0
 17 14  2  0  0  0  0
 19 14  1  0  0  0  0
 20 28  1  6  0  0  0
 20 22  1  0  0  0  0
 20 13  1  0  0  0  0
 22 21  1  0  0  0  0
 23 22  2  0  0  0  0
 23 27  1  0  0  0  0
 25 24  1  0  0  0  0
 26 21  1  0  0  0  0
 26 25  1  0  0  0  0
 27 24  1  0  0  0  0
 29 28  1  0  0  0  0
 30 31  1  0  0  0  0
 31 32  2  0  0  0  0
 33 34  1  0  0  0  0
 33 35  1  0  0  0  0
 33 32  1  1  0  0  0
 34 35  1  0  0  0  0
 34 36  1  1  0  0  0
 35 44  1  6  0  0  0
 37 44  1  0  0  0  0
 38 45  1  6  0  0  0
 38 42  1  0  0  0  0
 38 37  1  0  0  0  0
 42 41  1  6  0  0  0
 42 43  1  0  0  0  0
 43 39  1  1  0  0  0
 43 40  1  0  0  0  0
 44 40  1  1  0  0  0
 46 45  1  0  0  0  0
M  END
>  <MODEL>
4

>  <REMARK>
 VINA RESULT:      -7.1      2.043      5.071
  Name = 
  13 active torsions:
  status: ('A' for Active; 'I' for Inactive)
    1  A    between atoms: C_2  and  C_7
    2  A    between atoms: C_2  and  C_18
    3  A    between atoms: C_3  and  O_20
    4  A    between atoms: C_6  and  C_27
    5  A    between atoms: C_7  and  C_12
    6  A    between atoms: C_10  and  C_42
    7  A    between atoms: C_11  and  C_27
    8  A    between atoms: C_12  and  C_24
    9  A    between atoms: C_24  and  C_40
   10  A    between atoms: C_27  and  O_41
   11  A    between atoms: N_28  and  C_38
   12  A    between atoms: C_30  and  C_35
   13  A    between atoms: C_35  and  C_36
                            x       y       z     vdW  Elec       q    Type
                         _______ _______ _______ _____ _____    ______ ____

>  <TORSDO>
F 13

$$$$
=
 OpenBabel11042415393D

 46 50  0  0  1  0  0  0  0  0999 V2000
  192.2470  177.3280  147.9250 O   0  0  0  0  0  1  0  0  0  0  0  0
  194.9890  176.1540  145.8130 C   0  0  0  0  0  3  0  0  0  0  0  0
  194.0080  176.9110  146.2980 C   0  0  0  0  0  3  0  0  0  0  0  0
  192.8120  176.4340  147.0220 C   0  0  0  0  0  0  0  0  0  0  0  0
  195.0490  174.6730  145.9920 C   0  0  1  0  0  3  0  0  0  0  0  0
  192.2100  175.2380  146.8240 C   0  0  0  0  0  0  0  0  0  0  0  0
  193.8540  174.0000  145.4030 C   0  0  0  0  0  3  0  0  0  0  0  0
  192.6140  174.2440  145.8090 C   0  0  0  0  0  3  0  0  0  0  0  0
  190.9540  174.9190  147.5670 C   0  0  0  0  0  2  0  0  0  0  0  0
  189.8070  174.6810  146.5910 C   0  0  0  0  0  2  0  0  0  0  0  0
  188.7250  175.7390  146.7480 C   0  0  0  0  0  2  0  0  0  0  0  0
  187.8780  175.8240  145.4860 C   0  0  0  0  0  2  0  0  0  0  0  0
  186.9020  177.7910  144.2370 C   0  0  0  0  0  0  0  0  0  0  0  0
  185.7080  178.7260  146.5960 C   0  0  0  0  0  0  0  0  0  0  0  0
  187.0840  177.0920  145.4490 C   0  0  0  0  0  0  0  0  0  0  0  0
  186.1260  178.9590  144.2250 C   0  0  0  0  0  3  0  0  0  0  0  0
  185.5340  179.4260  145.4000 C   0  0  0  0  0  3  0  0  0  0  0  0
  185.1190  179.1890  147.7630 O   0  0  0  0  0  1  0  0  0  0  0  0
  186.4760  177.5600  146.6180 C   0  0  0  0  0  3  0  0  0  0  0  0
  187.5270  177.2880  142.9590 C   0  0  2  0  0  3  0  0  0  0  0  0
  189.6250  175.9600  142.3210 C   0  0  0  0  0  2  0  0  0  0  0  0
  189.0150  177.1190  143.0770 C   0  0  0  0  0  0  0  0  0  0  0  0
  189.7350  178.0300  143.7710 C   0  0  0  0  0  3  0  0  0  0  0  0
  192.0220  177.5120  142.8500 C   0  0  0  0  0  2  0  0  0  0  0  0
  192.0950  175.9860  142.7890 C   0  0  0  0  0  2  0  0  0  0  0  0
  190.7600  175.2920  143.0750 C   0  0  0  0  0  2  0  0  0  0  0  0
  191.2200  177.9780  144.0560 C   0  0  0  0  0  2  0  0  0  0  0  0
  187.1920  178.0980  141.8670 O   0  0  0  0  0  0  0  0  0  0  0  0
  186.5410  177.2480  140.9750 C   0  0  0  0  0  1  0  0  0  0  0  0
  196.3450  174.0960  145.4210 C   0  0  0  0  0  2  0  0  0  0  0  0
  196.8170  172.8820  146.1750 C   0  0  0  0  0  3  0  0  0  0  0  0
  196.7730  171.6480  145.6630 C   0  0  0  0  0  3  0  0  0  0  0  0
  196.2510  171.3480  144.2830 C   0  0  1  0  0  3  0  0  0  0  0  0
  196.3890  169.9520  143.8230 C   0  0  2  0  0  3  0  0  0  0  0  0
  195.1110  170.4210  144.3830 N   0  0  2  0  0  0  0  0  0  0  0  0
  197.0410  168.9840  144.8030 C   0  0  0  0  0  1  0  0  0  0  0  0
  192.4980  170.8090  143.8510 S   0  0  0  0  0  0  0  0  0  0  0  0
  191.8300  171.0490  142.1610 C   0  0  2  0  0  3  0  0  0  0  0  0
  194.2450  171.2950  140.3920 O   0  0  0  0  0  1  0  0  0  0  0  0
  194.6160  172.0480  142.6420 C   0  0  0  0  0  2  0  0  0  0  0  0
  191.7540  172.5290  140.2620 O   0  0  0  0  0  1  0  0  0  0  0  0
  192.3670  172.3310  141.5010 C   0  0  2  0  0  3  0  0  0  0  0  0
  193.8880  172.2770  141.3200 C   0  0  2  0  0  3  0  0  0  0  0  0
  194.2250  170.7130  143.2660 C   0  0  1  0  0  3  0  0  0  0  0  0
  190.4240  170.9330  142.1120 O   0  0  0  0  0  0  0  0  0  0  0  0
  189.8640  171.7000  143.1450 C   0  0  0  0  0  1  0  0  0  0  0  0
  2  5  1  0  0  0  0
  2  3  2  0  0  0  0
  3  4  1  0  0  0  0
  4  1  1  0  0  0  0
  5 30  1  6  0  0  0
  6  4  2  0  0  0  0
  6  9  1  0  0  0  0
  7  8  2  0  0  0  0
  7  5  1  0  0  0  0
  8  6  1  0  0  0  0
 10 11  1  0  0  0  0
 10  9  1  0  0  0  0
 12 11  1  0  0  0  0
 13 15  1  0  0  0  0
 14 19  1  0  0  0  0
 14 18  1  0  0  0  0
 15 12  1  0  0  0  0
 15 19  2  0  0  0  0
 16 13  2  0  0  0  0
 16 17  1  0  0  0  0
 17 14  2  0  0  0  0
 20 28  1  6  0  0  0
 20 22  1  0  0  0  0
 20 13  1  0  0  0  0
 21 26  1  0  0  0  0
 21 22  1  0  0  0  0
 22 23  2  0  0  0  0
 23 27  1  0  0  0  0
 24 27  1  0  0  0  0
 25 24  1  0  0  0  0
 25 26  1  0  0  0  0
 29 28  1  0  0  0  0
 30 31  1  0  0  0  0
 32 31  2  0  0  0  0
 33 35  1  0  0  0  0
 33 32  1  1  0  0  0
 34 33  1  0  0  0  0
 34 35  1  0  0  0  0
 34 36  1  1  0  0  0
 35 44  1  6  0  0  0
 38 45  1  1  0  0  0
 38 37  1  0  0  0  0
 42 41  1  6  0  0  0
 42 38  1  0  0  0  0
 43 39  1  6  0  0  0
 43 42  1  0  0  0  0
 43 40  1  0  0  0  0
 44 40  1  1  0  0  0
 44 37  1  0  0  0  0
 45 46  1  0  0  0  0
M  END
>  <MODEL>
5

>  <REMARK>
 VINA RESULT:      -6.9      3.192      9.054
  Name = 
  13 active torsions:
  status: ('A' for Active; 'I' for Inactive)
    1  A    between atoms: C_2  and  C_7
    2  A    between atoms: C_2  and  C_18
    3  A    between atoms: C_3  and  O_20
    4  A    between atoms: C_6  and  C_27
    5  A    between atoms: C_7  and  C_12
    6  A    between atoms: C_10  and  C_42
    7  A    between atoms: C_11  and  C_27
    8  A    between atoms: C_12  and  C_24
    9  A    between atoms: C_24  and  C_40
   10  A    between atoms: C_27  and  O_41
   11  A    between atoms: N_28  and  C_38
   12  A    between atoms: C_30  and  C_35
   13  A    between atoms: C_35  and  C_36
                            x       y       z     vdW  Elec       q    Type
                         _______ _______ _______ _____ _____    ______ ____

>  <TORSDO>
F 13

$$$$
=
 OpenBabel11042415393D

 46 50  0  0  1  0  0  0  0  0999 V2000
  197.3860  172.8460  144.8080 O   0  0  0  0  0  1  0  0  0  0  0  0
  194.8740  175.2750  145.8830 C   0  0  0  0  0  3  0  0  0  0  0  0
  195.9520  174.4950  145.8800 C   0  0  0  0  0  3  0  0  0  0  0  0
  196.0940  173.2010  145.1840 C   0  0  0  0  0  0  0  0  0  0  0  0
  193.6370  174.9680  145.1050 C   0  0  1  0  0  3  0  0  0  0  0  0
  195.0830  172.3310  144.9480 C   0  0  0  0  0  0  0  0  0  0  0  0
  193.0420  173.6620  145.5120 C   0  0  0  0  0  3  0  0  0  0  0  0
  193.6900  172.5070  145.4040 C   0  0  0  0  0  3  0  0  0  0  0  0
  195.3850  171.0160  144.3060 C   0  0  0  0  0  2  0  0  0  0  0  0
  194.7500  170.9450  142.9220 C   0  0  0  0  0  2  0  0  0  0  0  0
  195.7030  171.4640  141.8540 C   0  0  0  0  0  2  0  0  0  0  0  0
  194.9640  172.3700  140.8780 C   0  0  0  0  0  2  0  0  0  0  0  0
  194.0290  174.7130  141.0150 C   0  0  0  0  0  0  0  0  0  0  0  0
  196.3270  175.5750  142.3730 C   0  0  0  0  0  0  0  0  0  0  0  0
  195.0780  173.8070  141.2790 C   0  0  0  0  0  0  0  0  0  0  0  0
  194.1490  176.0470  141.4310 C   0  0  0  0  0  3  0  0  0  0  0  0
  195.2940  176.4760  142.1040 C   0  0  0  0  0  3  0  0  0  0  0  0
  197.4630  176.0010  143.0430 O   0  0  0  0  0  1  0  0  0  0  0  0
  196.2150  174.2440  141.9660 C   0  0  0  0  0  3  0  0  0  0  0  0
  192.7830  174.2560  140.2990 C   0  0  2  0  0  3  0  0  0  0  0  0
  191.4800  172.1980  141.1020 C   0  0  0  0  0  2  0  0  0  0  0  0
  191.7620  173.6780  141.2390 C   0  0  0  0  0  0  0  0  0  0  0  0
  191.2100  174.4670  142.1890 C   0  0  0  0  0  3  0  0  0  0  0  0
  190.3180  172.6770  143.7210 C   0  0  0  0  0  2  0  0  0  0  0  0
  189.7140  171.6200  142.7970 C   0  0  0  0  0  2  0  0  0  0  0  0
  190.0170  171.8510  141.3130 C   0  0  0  0  0  2  0  0  0  0  0  0
  190.1200  174.0780  143.1620 C   0  0  0  0  0  2  0  0  0  0  0  0
  193.0800  173.3640  139.2620 O   0  0  0  0  0  0  0  0  0  0  0  0
  192.7710  174.0570  138.0930 C   0  0  0  0  0  1  0  0  0  0  0  0
  192.6150  176.0990  145.2180 C   0  0  0  0  0  2  0  0  0  0  0  0
  192.2420  176.4000  146.6440 C   0  0  0  0  0  3  0  0  0  0  0  0
  190.9830  176.6340  147.0310 C   0  0  0  0  0  3  0  0  0  0  0  0
  189.8150  176.6180  146.0820 C   0  0  1  0  0  3  0  0  0  0  0  0
  188.8920  175.4720  146.2040 C   0  0  2  0  0  3  0  0  0  0  0  0
  188.5630  176.7550  146.8450 N   0  0  2  0  0  0  0  0  0  0  0  0
  189.2340  174.4470  147.2780 C   0  0  0  0  0  1  0  0  0  0  0  0
  188.1190  177.2740  144.2390 S   0  0  0  0  0  0  0  0  0  0  0  0
  186.7610  178.3450  143.6330 C   0  0  2  0  0  3  0  0  0  0  0  0
  185.0930  178.9430  146.0600 O   0  0  0  0  0  1  0  0  0  0  0  0
  186.2280  176.8290  146.1650 C   0  0  0  0  0  2  0  0  0  0  0  0
  184.3720  178.5600  143.3990 O   0  0  0  0  0  1  0  0  0  0  0  0
  185.3740  177.7700  143.9680 C   0  0  2  0  0  3  0  0  0  0  0  0
  185.1540  177.6720  145.4810 C   0  0  2  0  0  3  0  0  0  0  0  0
  187.6120  177.4430  145.9850 C   0  0  1  0  0  3  0  0  0  0  0  0
  186.9140  178.7010  142.2750 O   0  0  0  0  0  0  0  0  0  0  0  0
  187.5110  177.6330  141.5870 C   0  0  0  0  0  1  0  0  0  0  0  0
  1  4  1  0  0  0  0
  3  2  2  0  0  0  0
  4  3  1  0  0  0  0
  5 30  1  1  0  0  0
  5  7  1  0  0  0  0
  5  2  1  0  0  0  0
  6  4  2  0  0  0  0
  6  8  1  0  0  0  0
  8  7  2  0  0  0  0
  9  6  1  0  0  0  0
 10  9  1  0  0  0  0
 11 10  1  0  0  0  0
 12 15  1  0  0  0  0
 12 11  1  0  0  0  0
 13 15  2  0  0  0  0
 13 16  1  0  0  0  0
 14 18  1  0  0  0  0
 15 19  1  0  0  0  0
 16 17  2  0  0  0  0
 17 14  1  0  0  0  0
 19 14  2  0  0  0  0
 20 28  1  6  0  0  0
 20 13  1  0  0  0  0
 20 22  1  0  0  0  0
 21 22  1  0  0  0  0
 21 26  1  0  0  0  0
 22 23  2  0  0  0  0
 23 27  1  0  0  0  0
 25 24  1  0  0  0  0
 26 25  1  0  0  0  0
 27 24  1  0  0  0  0
 29 28  1  0  0  0  0
 30 31  1  0  0  0  0
 31 32  2  0  0  0  0
 33 34  1  0  0  0  0
 33 35  1  0  0  0  0
 33 32  1  1  0  0  0
 34 35  1  0  0  0  0
 34 36  1  1  0  0  0
 35 44  1  6  0  0  0
 37 44  1  0  0  0  0
 38 45  1  6  0  0  0
 38 42  1  0  0  0  0
 38 37  1  0  0  0  0
 42 41  1  1  0  0  0
 42 43  1  0  0  0  0
 43 39  1  1  0  0  0
 43 40  1  0  0  0  0
 44 40  1  6  0  0  0
 46 45  1  0  0  0  0
M  END
>  <MODEL>
6

>  <REMARK>
 VINA RESULT:      -6.9      1.967      4.463
  Name = 
  13 active torsions:
  status: ('A' for Active; 'I' for Inactive)
    1  A    between atoms: C_2  and  C_7
    2  A    between atoms: C_2  and  C_18
    3  A    between atoms: C_3  and  O_20
    4  A    between atoms: C_6  and  C_27
    5  A    between atoms: C_7  and  C_12
    6  A    between atoms: C_10  and  C_42
    7  A    between atoms: C_11  and  C_27
    8  A    between atoms: C_12  and  C_24
    9  A    between atoms: C_24  and  C_40
   10  A    between atoms: C_27  and  O_41
   11  A    between atoms: N_28  and  C_38
   12  A    between atoms: C_30  and  C_35
   13  A    between atoms: C_35  and  C_36
                            x       y       z     vdW  Elec       q    Type
                         _______ _______ _______ _____ _____    ______ ____

>  <TORSDO>
F 13

$$$$
=
 OpenBabel11042415393D

 46 50  0  0  1  0  0  0  0  0999 V2000
  189.0590  171.7190  142.2640 O   0  0  0  0  0  1  0  0  0  0  0  0
  189.4890  175.3380  141.9800 C   0  0  0  0  0  3  0  0  0  0  0  0
  189.0450  174.1010  141.7670 C   0  0  0  0  0  3  0  0  0  0  0  0
  189.8080  172.8530  141.9640 C   0  0  0  0  0  0  0  0  0  0  0  0
  190.8460  175.6410  142.5240 C   0  0  1  0  0  3  0  0  0  0  0  0
  191.1470  172.7290  141.8150 C   0  0  0  0  0  0  0  0  0  0  0  0
  191.9230  175.1010  141.6440 C   0  0  0  0  0  3  0  0  0  0  0  0
  192.0540  173.8080  141.3710 C   0  0  0  0  0  3  0  0  0  0  0  0
  191.7790  171.3830  141.9630 C   0  0  0  0  0  2  0  0  0  0  0  0
  192.9030  171.4360  142.9920 C   0  0  0  0  0  2  0  0  0  0  0  0
  194.2430  171.0860  142.3580 C   0  0  0  0  0  2  0  0  0  0  0  0
  195.3710  171.8370  143.0530 C   0  0  0  0  0  2  0  0  0  0  0  0
  195.4460  174.3120  143.5530 C   0  0  0  0  0  0  0  0  0  0  0  0
  195.5960  174.8840  140.8110 C   0  0  0  0  0  0  0  0  0  0  0  0
  195.4280  173.2640  142.6080 C   0  0  0  0  0  0  0  0  0  0  0  0
  195.5340  175.6390  143.1080 C   0  0  0  0  0  3  0  0  0  0  0  0
  195.6050  175.9240  141.7440 C   0  0  0  0  0  3  0  0  0  0  0  0
  195.6690  175.1670  139.4560 O   0  0  0  0  0  1  0  0  0  0  0  0
  195.5130  173.5590  141.2430 C   0  0  0  0  0  3  0  0  0  0  0  0
  195.3820  174.0140  145.0300 C   0  0  2  0  0  3  0  0  0  0  0  0
  192.9270  173.5060  145.5680 C   0  0  0  0  0  2  0  0  0  0  0  0
  194.0910  174.4680  145.6500 C   0  0  0  0  0  0  0  0  0  0  0  0
  194.0470  175.6520  146.3040 C   0  0  0  0  0  3  0  0  0  0  0  0
  191.9390  175.2900  147.6360 C   0  0  0  0  0  2  0  0  0  0  0  0
  190.9610  174.6230  146.6690 C   0  0  0  0  0  2  0  0  0  0  0  0
  191.5970  174.2020  145.3400 C   0  0  0  0  0  2  0  0  0  0  0  0
  192.8250  176.2970  146.9180 C   0  0  0  0  0  2  0  0  0  0  0  0
  196.4860  174.5410  145.7110 O   0  0  0  0  0  0  0  0  0  0  0  0
  197.1890  173.4300  146.1710 C   0  0  0  0  0  1  0  0  0  0  0  0
  191.0280  177.1400  142.7620 C   0  0  0  0  0  2  0  0  0  0  0  0
  191.0740  177.4910  144.2240 C   0  0  0  0  0  3  0  0  0  0  0  0
  189.9790  177.5710  144.9860 C   0  0  0  0  0  3  0  0  0  0  0  0
  188.5910  177.3150  144.4610 C   0  0  1  0  0  3  0  0  0  0  0  0
  187.6090  176.8030  145.4370 C   0  0  2  0  0  3  0  0  0  0  0  0
  187.6450  178.2380  145.1100 N   0  0  2  0  0  0  0  0  0  0  0  0
  188.1200  176.5990  146.8580 C   0  0  0  0  0  1  0  0  0  0  0  0
  186.9620  177.6920  142.5620 S   0  0  0  0  0  0  0  0  0  0  0  0
  185.4770  178.3830  141.7380 C   0  0  2  0  0  3  0  0  0  0  0  0
  183.9570  179.7890  143.9140 O   0  0  0  0  0  1  0  0  0  0  0  0
  185.2660  177.9350  144.6950 C   0  0  0  0  0  2  0  0  0  0  0  0
  183.0680  178.3790  141.6850 O   0  0  0  0  0  1  0  0  0  0  0  0
  184.1720  177.9160  142.4050 C   0  0  2  0  0  3  0  0  0  0  0  0
  184.0780  178.3990  143.8570 C   0  0  2  0  0  3  0  0  0  0  0  0
  186.5770  178.4960  144.1550 C   0  0  1  0  0  3  0  0  0  0  0  0
  185.4960  178.1950  140.3380 O   0  0  0  0  0  0  0  0  0  0  0  0
  186.6820  177.5350  139.9820 C   0  0  0  0  0  1  0  0  0  0  0  0
  2  5  1  0  0  0  0
  3  4  1  0  0  0  0
  3  2  2  0  0  0  0
  4  1  1  0  0  0  0
  5 30  1  6  0  0  0
  6  9  1  0  0  0  0
  6  4  2  0  0  0  0
  7  5  1  0  0  0  0
  8  7  2  0  0  0  0
  8  6  1  0  0  0  0
  9 10  1  0  0  0  0
 11 10  1  0  0  0  0
 11 12  1  0  0  0  0
 13 20  1  0  0  0  0
 14 19  2  0  0  0  0
 14 17  1  0  0  0  0
 15 12  1  0  0  0  0
 15 13  2  0  0  0  0
 16 13  1  0  0  0  0
 17 16  2  0  0  0  0
 18 14  1  0  0  0  0
 19 15  1  0  0  0  0
 20 22  1  0  0  0  0
 20 28  1  1  0  0  0
 21 22  1  0  0  0  0
 22 23  2  0  0  0  0
 23 27  1  0  0  0  0
 25 24  1  0  0  0  0
 26 21  1  0  0  0  0
 26 25  1  0  0  0  0
 27 24  1  0  0  0  0
 28 29  1  0  0  0  0
 30 31  1  0  0  0  0
 31 32  2  0  0  0  0
 33 32  1  1  0  0  0
 33 35  1  0  0  0  0
 33 34  1  0  0  0  0
 34 36  1  1  0  0  0
 35 44  1  6  0  0  0
 35 34  1  0  0  0  0
 37 44  1  0  0  0  0
 38 45  1  6  0  0  0
 38 42  1  0  0  0  0
 38 37  1  0  0  0  0
 42 41  1  6  0  0  0
 42 43  1  0  0  0  0
 43 39  1  6  0  0  0
 43 40  1  0  0  0  0
 44 40  1  1  0  0  0
 46 45  1  0  0  0  0
M  END
>  <MODEL>
7

>  <REMARK>
 VINA RESULT:      -6.8      1.822      4.361
  Name = 
  13 active torsions:
  status: ('A' for Active; 'I' for Inactive)
    1  A    between atoms: C_2  and  C_7
    2  A    between atoms: C_2  and  C_18
    3  A    between atoms: C_3  and  O_20
    4  A    between atoms: C_6  and  C_27
    5  A    between atoms: C_7  and  C_12
    6  A    between atoms: C_10  and  C_42
    7  A    between atoms: C_11  and  C_27
    8  A    between atoms: C_12  and  C_24
    9  A    between atoms: C_24  and  C_40
   10  A    between atoms: C_27  and  O_41
   11  A    between atoms: N_28  and  C_38
   12  A    between atoms: C_30  and  C_35
   13  A    between atoms: C_35  and  C_36
                            x       y       z     vdW  Elec       q    Type
                         _______ _______ _______ _____ _____    ______ ____

>  <TORSDO>
F 13

$$$$
=
 OpenBabel11042415393D

 46 50  0  0  1  0  0  0  0  0999 V2000
  194.0090  176.7060  143.8360 O   0  0  0  0  0  1  0  0  0  0  0  0
  190.5570  176.8050  145.0350 C   0  0  0  0  0  3  0  0  0  0  0  0
  191.7570  177.1990  144.6170 C   0  0  0  0  0  3  0  0  0  0  0  0
  193.0290  176.4710  144.7950 C   0  0  0  0  0  0  0  0  0  0  0  0
  190.3120  175.4960  145.7120 C   0  0  1  0  0  3  0  0  0  0  0  0
  193.3180  175.6570  145.8380 C   0  0  0  0  0  0  0  0  0  0  0  0
  191.1060  175.3730  146.9700 C   0  0  0  0  0  3  0  0  0  0  0  0
  192.4330  175.4160  146.9960 C   0  0  0  0  0  3  0  0  0  0  0  0
  194.6790  175.0480  145.9360 C   0  0  0  0  0  2  0  0  0  0  0  0
  194.5980  173.5380  145.7460 C   0  0  0  0  0  2  0  0  0  0  0  0
  195.6150  173.0580  144.7210 C   0  0  0  0  0  2  0  0  0  0  0  0
  194.9090  172.4960  143.4950 C   0  0  0  0  0  2  0  0  0  0  0  0
  193.4740  173.7920  141.8690 C   0  0  0  0  0  0  0  0  0  0  0  0
  195.6950  175.3140  141.0860 C   0  0  0  0  0  0  0  0  0  0  0  0
  194.7400  173.5430  142.4390 C   0  0  0  0  0  0  0  0  0  0  0  0
  193.3380  174.8010  140.9040 C   0  0  0  0  0  3  0  0  0  0  0  0
  194.4450  175.5570  140.5130 C   0  0  0  0  0  3  0  0  0  0  0  0
  196.7940  176.0660  140.6980 O   0  0  0  0  0  1  0  0  0  0  0  0
  195.8400  174.3140  142.0490 C   0  0  0  0  0  3  0  0  0  0  0  0
  192.2700  172.9900  142.2940 C   0  0  2  0  0  3  0  0  0  0  0  0
  190.0380  173.6870  141.2420 C   0  0  0  0  0  2  0  0  0  0  0  0
  191.2740  172.8180  141.1820 C   0  0  0  0  0  0  0  0  0  0  0  0
  191.5530  171.9720  140.1640 C   0  0  0  0  0  3  0  0  0  0  0  0
  189.8980  172.8310  138.4700 C   0  0  0  0  0  2  0  0  0  0  0  0
  188.6140  173.0900  139.2570 C   0  0  0  0  0  2  0  0  0  0  0  0
  188.7840  172.9690  140.7740 C   0  0  0  0  0  2  0  0  0  0  0  0
  190.6420  171.6190  139.0100 C   0  0  0  0  0  2  0  0  0  0  0  0
  191.6660  173.5290  143.4370 O   0  0  0  0  0  0  0  0  0  0  0  0
  191.4980  172.4480  144.2990 C   0  0  0  0  0  1  0  0  0  0  0  0
  188.8230  175.2760  145.9750 C   0  0  0  0  0  2  0  0  0  0  0  0
  188.3150  176.0900  147.1350 C   0  0  0  0  0  3  0  0  0  0  0  0
  187.1850  176.8020  147.0810 C   0  0  0  0  0  3  0  0  0  0  0  0
  186.3060  176.8600  145.8600 C   0  0  1  0  0  3  0  0  0  0  0  0
  185.3760  178.0030  145.7800 C   0  0  2  0  0  3  0  0  0  0  0  0
  186.6590  178.0440  145.0590 N   0  0  2  0  0  0  0  0  0  0  0  0
  185.4210  178.9870  146.9420 C   0  0  0  0  0  1  0  0  0  0  0  0
  185.2840  178.9680  142.9350 S   0  0  0  0  0  0  0  0  0  0  0  0
  185.1660  178.0790  141.3360 C   0  0  2  0  0  3  0  0  0  0  0  0
  187.0780  175.7750  141.5790 O   0  0  0  0  0  1  0  0  0  0  0  0
  187.7010  177.6870  142.8890 C   0  0  0  0  0  2  0  0  0  0  0  0
  186.3850  177.3490  139.3900 O   0  0  0  0  0  1  0  0  0  0  0  0
  186.5350  177.9360  140.6490 C   0  0  2  0  0  3  0  0  0  0  0  0
  187.5050  177.1020  141.4930 C   0  0  2  0  0  3  0  0  0  0  0  0
  186.3900  177.7140  143.6680 C   0  0  1  0  0  3  0  0  0  0  0  0
  184.1620  178.6060  140.4940 O   0  0  0  0  0  0  0  0  0  0  0  0
  182.9040  178.2500  141.0050 C   0  0  0  0  0  1  0  0  0  0  0  0
  1  4  1  0  0  0  0
  2  5  1  0  0  0  0
  3  4  1  0  0  0  0
  3  2  2  0  0  0  0
  4  6  2  0  0  0  0
  5 30  1  1  0  0  0
  5  7  1  0  0  0  0
  6  9  1  0  0  0  0
  6  8  1  0  0  0  0
  7  8  2  0  0  0  0
 10  9  1  0  0  0  0
 11 10  1  0  0  0  0
 12 11  1  0  0  0  0
 13 20  1  0  0  0  0
 13 15  1  0  0  0  0
 14 19  1  0  0  0  0
 15 12  1  0  0  0  0
 16 13  2  0  0  0  0
 17 16  1  0  0  0  0
 17 14  2  0  0  0  0
 18 14  1  0  0  0  0
 19 15  2  0  0  0  0
 20 28  1  1  0  0  0
 22 21  1  0  0  0  0
 22 20  1  0  0  0  0
 23 22  2  0  0  0  0
 24 27  1  0  0  0  0
 24 25  1  0  0  0  0
 25 26  1  0  0  0  0
 26 21  1  0  0  0  0
 27 23  1  0  0  0  0
 28 29  1  0  0  0  0
 30 31  1  0  0  0  0
 32 31  2  0  0  0  0
 33 32  1  1  0  0  0
 34 33  1  0  0  0  0
 34 36  1  1  0  0  0
 35 44  1  6  0  0  0
 35 34  1  0  0  0  0
 35 33  1  0  0  0  0
 37 44  1  0  0  0  0
 38 45  1  6  0  0  0
 38 37  1  0  0  0  0
 42 41  1  6  0  0  0
 42 38  1  0  0  0  0
 42 43  1  0  0  0  0
 43 39  1  1  0  0  0
 43 40  1  0  0  0  0
 44 40  1  6  0  0  0
 45 46  1  0  0  0  0
M  END
>  <MODEL>
8

>  <REMARK>
 VINA RESULT:      -6.8      1.607      2.929
  Name = 
  13 active torsions:
  status: ('A' for Active; 'I' for Inactive)
    1  A    between atoms: C_2  and  C_7
    2  A    between atoms: C_2  and  C_18
    3  A    between atoms: C_3  and  O_20
    4  A    between atoms: C_6  and  C_27
    5  A    between atoms: C_7  and  C_12
    6  A    between atoms: C_10  and  C_42
    7  A    between atoms: C_11  and  C_27
    8  A    between atoms: C_12  and  C_24
    9  A    between atoms: C_24  and  C_40
   10  A    between atoms: C_27  and  O_41
   11  A    between atoms: N_28  and  C_38
   12  A    between atoms: C_30  and  C_35
   13  A    between atoms: C_35  and  C_36
                            x       y       z     vdW  Elec       q    Type
                         _______ _______ _______ _____ _____    ______ ____

>  <TORSDO>
F 13

$$$$
=
 OpenBabel11042415393D

 46 50  0  0  1  0  0  0  0  0999 V2000
  188.1070  174.5350  138.7420 O   0  0  0  0  0  1  0  0  0  0  0  0
  191.3640  173.5630  137.3960 C   0  0  0  0  0  3  0  0  0  0  0  0
  190.0500  173.7410  137.5100 C   0  0  0  0  0  3  0  0  0  0  0  0
  189.2800  173.7860  138.7680 C   0  0  0  0  0  0  0  0  0  0  0  0
  192.2810  173.4410  138.5680 C   0  0  1  0  0  3  0  0  0  0  0  0
  189.5990  173.1130  139.8990 C   0  0  0  0  0  0  0  0  0  0  0  0
  191.9120  172.2840  139.4350 C   0  0  0  0  0  3  0  0  0  0  0  0
  190.7330  172.1770  140.0360 C   0  0  0  0  0  3  0  0  0  0  0  0
  188.6800  173.1820  141.0760 C   0  0  0  0  0  2  0  0  0  0  0  0
  189.2460  172.3720  142.2370 C   0  0  0  0  0  2  0  0  0  0  0  0
  189.5680  173.2670  143.4250 C   0  0  0  0  0  2  0  0  0  0  0  0
  188.6980  174.5170  143.3990 C   0  0  0  0  0  2  0  0  0  0  0  0
  189.2460  176.4700  144.9050 C   0  0  0  0  0  0  0  0  0  0  0  0
  191.3050  177.2570  143.1720 C   0  0  0  0  0  0  0  0  0  0  0  0
  189.4960  175.7400  143.7230 C   0  0  0  0  0  0  0  0  0  0  0  0
  190.0310  177.5940  145.2000 C   0  0  0  0  0  3  0  0  0  0  0  0
  191.0540  177.9870  144.3360 C   0  0  0  0  0  3  0  0  0  0  0  0
  192.3230  177.6470  142.3150 O   0  0  0  0  0  1  0  0  0  0  0  0
  190.5320  176.1350  142.8710 C   0  0  0  0  0  3  0  0  0  0  0  0
  188.1510  176.0450  145.8510 C   0  0  2  0  0  3  0  0  0  0  0  0
  186.4020  177.3820  144.5360 C   0  0  0  0  0  2  0  0  0  0  0  0
  187.0050  177.0170  145.8740 C   0  0  0  0  0  0  0  0  0  0  0  0
  186.5260  177.4530  147.0620 C   0  0  0  0  0  3  0  0  0  0  0  0
  184.2850  178.3100  146.2950 C   0  0  0  0  0  2  0  0  0  0  0  0
  184.5600  179.0360  144.9790 C   0  0  0  0  0  2  0  0  0  0  0  0
  185.9850  178.8390  144.4510 C   0  0  0  0  0  2  0  0  0  0  0  0
  185.4380  178.4810  147.2720 C   0  0  0  0  0  2  0  0  0  0  0  0
  188.6440  175.8120  147.1410 O   0  0  0  0  0  0  0  0  0  0  0  0
  189.1620  174.5190  147.0990 C   0  0  0  0  0  1  0  0  0  0  0  0
  193.7420  173.3560  138.1260 C   0  0  0  0  0  2  0  0  0  0  0  0
  194.4070  174.7040  138.0670 C   0  0  0  0  0  3  0  0  0  0  0  0
  195.1130  175.2100  139.0830 C   0  0  0  0  0  3  0  0  0  0  0  0
  195.3170  174.4820  140.3850 C   0  0  1  0  0  3  0  0  0  0  0  0
  196.6910  174.4830  140.9240 C   0  0  2  0  0  3  0  0  0  0  0  0
  195.6990  175.4460  141.4300 N   0  0  2  0  0  0  0  0  0  0  0  0
  197.7350  175.2250  140.0980 C   0  0  0  0  0  1  0  0  0  0  0  0
  195.1790  176.2590  143.9450 S   0  0  0  0  0  0  0  0  0  0  0  0
  194.6200  175.1340  145.2810 C   0  0  2  0  0  3  0  0  0  0  0  0
  194.0920  172.5070  143.9230 O   0  0  0  0  0  1  0  0  0  0  0  0
  193.7720  174.4120  142.4980 C   0  0  0  0  0  2  0  0  0  0  0  0
  192.8150  173.7440  146.0650 O   0  0  0  0  0  1  0  0  0  0  0  0
  193.2480  174.5080  144.9790 C   0  0  2  0  0  3  0  0  0  0  0  0
  193.2920  173.6350  143.7200 C   0  0  2  0  0  3  0  0  0  0  0  0
  195.1930  174.9300  142.6930 C   0  0  1  0  0  3  0  0  0  0  0  0
  194.7030  175.7270  146.5600 O   0  0  0  0  0  0  0  0  0  0  0  0
  194.2760  177.0610  146.4740 C   0  0  0  0  0  1  0  0  0  0  0  0
  1  4  1  0  0  0  0
  2  3  2  0  0  0  0
  2  5  1  0  0  0  0
  3  4  1  0  0  0  0
  4  6  2  0  0  0  0
  5 30  1  6  0  0  0
  5  7  1  0  0  0  0
  6  8  1  0  0  0  0
  6  9  1  0  0  0  0
  7  8  2  0  0  0  0
  9 10  1  0  0  0  0
 10 11  1  0  0  0  0
 12 11  1  0  0  0  0
 12 15  1  0  0  0  0
 13 16  1  0  0  0  0
 13 20  1  0  0  0  0
 14 17  1  0  0  0  0
 15 13  2  0  0  0  0
 17 16  2  0  0  0  0
 18 14  1  0  0  0  0
 19 14  2  0  0  0  0
 19 15  1  0  0  0  0
 20 22  1  0  0  0  0
 20 28  1  1  0  0  0
 21 22  1  0  0  0  0
 22 23  2  0  0  0  0
 23 27  1  0  0  0  0
 24 27  1  0  0  0  0
 25 24  1  0  0  0  0
 26 21  1  0  0  0  0
 26 25  1  0  0  0  0
 29 28  1  0  0  0  0
 31 30  1  0  0  0  0
 31 32  2  0  0  0  0
 33 32  1  6  0  0  0
 33 34  1  0  0  0  0
 33 35  1  0  0  0  0
 34 36  1  6  0  0  0
 34 35  1  0  0  0  0
 35 44  1  1  0  0  0
 37 38  1  0  0  0  0
 38 45  1  1  0  0  0
 40 43  1  0  0  0  0
 42 38  1  0  0  0  0
 42 41  1  1  0  0  0
 43 39  1  1  0  0  0
 43 42  1  0  0  0  0
 44 40  1  6  0  0  0
 44 37  1  0  0  0  0
 46 45  1  0  0  0  0
M  END
>  <MODEL>
9

>  <REMARK>
 VINA RESULT:      -6.8      3.376      9.224
  Name = 
  13 active torsions:
  status: ('A' for Active; 'I' for Inactive)
    1  A    between atoms: C_2  and  C_7
    2  A    between atoms: C_2  and  C_18
    3  A    between atoms: C_3  and  O_20
    4  A    between atoms: C_6  and  C_27
    5  A    between atoms: C_7  and  C_12
    6  A    between atoms: C_10  and  C_42
    7  A    between atoms: C_11  and  C_27
    8  A    between atoms: C_12  and  C_24
    9  A    between atoms: C_24  and  C_40
   10  A    between atoms: C_27  and  O_41
   11  A    between atoms: N_28  and  C_38
   12  A    between atoms: C_30  and  C_35
   13  A    between atoms: C_35  and  C_36
                            x       y       z     vdW  Elec       q    Type
                         _______ _______ _______ _____ _____    ______ ____

>  <TORSDO>
F 13

$$$$
