=
 OpenBabel11042417523D

 55 61  0  0  1  0  0  0  0  0999 V2000
  188.4840  175.6030  146.7690 C   0  0  0  0  0  3  0  0  0  0  0  0
  190.3070  174.2540  145.4740 C   0  0  2  0  0  0  0  0  0  0  0  0
  189.7980  172.9670  145.5510 F   0  0  0  0  0  0  0  0  0  0  0  0
  187.4640  176.4130  146.2690 C   0  0  0  0  0  0  0  0  0  0  0  0
  189.1730  175.2240  145.6330 C   0  0  0  0  0  0  0  0  0  0  0  0
  189.9520  174.6320  142.9370 C   0  0  2  0  0  3  0  0  0  0  0  0
  190.9650  174.4700  144.0920 C   0  0  0  0  0  2  0  0  0  0  0  0
  187.5200  176.5110  144.9610 O   0  0  0  0  0  0  0  0  0  0  0  0
  188.5330  175.7880  144.5680 C   0  0  0  0  0  0  0  0  0  0  0  0
  188.9380  175.5960  143.2500 O   0  0  0  0  0  0  0  0  0  0  0  0
  191.3430  174.4710  146.5820 C   0  0  0  0  0  2  0  0  0  0  0  0
  192.7820  174.4920  146.0620 C   0  0  0  0  0  2  0  0  0  0  0  0
  193.4250  175.8240  146.2720 C   0  0  0  0  0  0  0  0  0  0  0  0
  192.7380  176.8120  146.4750 O   0  0  0  0  0  0  0  0  0  0  0  0
  194.9130  175.9390  146.2550 C   0  0  0  0  0  2  0  0  0  0  0  0
  195.4240  175.7320  144.9110 N   0  0  0  0  0  0  0  0  0  0  0  0
  196.4120  176.7160  141.9260 O   0  0  0  0  0  1  0  0  0  0  0  0
  194.8760  176.3660  143.7280 C   0  0  0  0  0  2  0  0  0  0  0  0
  195.6190  175.7450  142.5350 C   0  0  2  0  0  3  0  0  0  0  0  0
  196.5150  174.6220  143.0760 C   0  0  1  0  0  3  0  0  0  0  0  0
  196.9670  174.0260  145.3780 O   0  0  0  0  0  0  0  0  0  0  0  0
  196.3440  174.7300  144.5400 C   0  0  0  0  0  0  0  0  0  0  0  0
  196.9930  172.0040  142.7070 O   0  0  0  0  0  0  0  0  0  0  0  0
  195.5820  173.1280  141.0390 O   0  0  0  0  0  0  0  0  0  0  0  0
  195.9240  173.0390  142.4980 S   0  0  0  0  0  0  0  0  0  0  0  0
  194.1370  170.6120  142.2390 O   0  0  0  0  0  0  0  0  0  0  0  0
  194.5150  172.6010  143.4020 N   0  0  0  0  0  2  0  0  0  0  0  0
  193.7730  171.4120  143.1400 C   0  0  0  0  0  0  0  0  0  0  0  0
  192.5780  171.0960  143.9650 C   0  0  0  0  0  2  0  0  0  0  0  0
  192.5780  169.7390  144.2880 O   0  0  0  0  0  1  0  0  0  0  0  0
  189.3230  173.2910  142.5750 C   0  0  0  0  0  2  0  0  0  0  0  0
  189.8070  172.8370  141.2970 N   0  0  0  0  0  0  0  0  0  0  0  0
  189.6720  173.5640  140.2490 C   0  0  0  0  0  3  0  0  0  0  0  0
  190.9270  170.8060  135.5630 C   0  0  0  0  0  2  0  0  0  0  0  0
  191.8130  169.8810  137.5980 N   0  0  0  0  0  0  0  0  0  0  0  0
  190.1580  173.0740  138.9250 C   0  0  2  0  0  3  0  0  0  0  0  0
  191.7680  169.6800  136.1560 C   0  0  0  0  0  2  0  0  0  0  0  0
  190.7330  171.7550  136.6400 N   0  0  1  0  0  0  0  0  0  0  0  0
  188.5780  174.3280  137.6050 O   0  0  0  0  0  1  0  0  0  0  0  0
  189.0050  173.0300  137.8970 C   0  0  1  0  0  3  0  0  0  0  0  0
  189.3830  172.3130  136.5810 C   0  0  0  0  0  2  0  0  0  0  0  0
  193.1340  170.4250  137.8930 C   0  0  0  0  0  1  0  0  0  0  0  0
  190.7850  170.8980  137.8070 C   0  0  2  0  0  3  0  0  0  0  0  0
  190.8720  171.7180  139.0980 C   0  0  0  0  0  2  0  0  0  0  0  0
  186.4240  177.1020  147.0900 C   0  0  0  0  0  2  0  0  0  0  0  0
  185.0420  177.0150  146.4530 C   0  0  0  0  0  2  0  0  0  0  0  0
  185.3700  179.2690  145.8880 C   0  0  0  0  0  2  0  0  0  0  0  0
  184.2100  178.9040  145.0870 C   0  0  2  0  0  3  0  0  0  0  0  0
  184.3880  178.3260  146.4460 N   0  0  0  0  0  0  0  0  0  0  0  0
  184.6350  178.0010  143.9270 C   0  0  0  0  0  2  0  0  0  0  0  0
  186.3690  178.6570  142.4910 C   0  0  0  0  0  2  0  0  0  0  0  0
  184.9400  178.8160  142.7610 N   0  0  0  0  0  0  0  0  0  0  0  0
  185.2070  178.0700  140.4920 C   0  0  0  0  0  2  0  0  0  0  0  0
  186.5320  177.9090  141.1820 C   0  0  0  0  0  2  0  0  0  0  0  0
  184.2250  178.2310  141.6280 C   0  0  0  0  0  2  0  0  0  0  0  0
  2  3  1  1  0  0  0
  2  5  1  0  0  0  0
  2 11  1  0  0  0  0
  4  1  2  0  0  0  0
  4 45  1  0  0  0  0
  5  1  1  0  0  0  0
  6 31  1  1  0  0  0
  6 10  1  0  0  0  0
  6  7  1  0  0  0  0
  7  2  1  0  0  0  0
  8  4  1  0  0  0  0
  9  8  1  0  0  0  0
  9  5  2  0  0  0  0
 10  9  1  0  0  0  0
 12 13  1  0  0  0  0
 12 11  1  0  0  0  0
 13 14  2  0  0  0  0
 15 13  1  0  0  0  0
 16 15  1  0  0  0  0
 18 16  1  0  0  0  0
 19 17  1  1  0  0  0
 19 20  1  0  0  0  0
 19 18  1  0  0  0  0
 20 25  1  6  0  0  0
 20 22  1  0  0  0  0
 22 16  1  0  0  0  0
 22 21  2  0  0  0  0
 24 25  2  0  0  0  0
 25 23  2  0  0  0  0
 25 27  1  0  0  0  0
 26 28  2  0  0  0  0
 28 27  1  0  0  0  0
 28 29  1  0  0  0  0
 29 30  1  0  0  0  0
 32 31  1  0  0  0  0
 33 32  2  0  0  0  0
 34 37  1  0  0  0  0
 35 43  1  0  0  0  0
 35 42  1  0  0  0  0
 36 44  1  0  0  0  0
 36 33  1  1  0  0  0
 37 35  1  0  0  0  0
 38 34  1  6  0  0  0
 38 43  1  0  0  0  0
 40 39  1  6  0  0  0
 40 36  1  0  0  0  0
 41 38  1  0  0  0  0
 41 40  1  0  0  0  0
 43 44  1  1  0  0  0
 46 45  1  0  0  0  0
 47 49  1  0  0  0  0
 48 50  1  6  0  0  0
 48 47  1  0  0  0  0
 48 49  1  0  0  0  0
 49 46  1  0  0  0  0
 51 52  1  0  0  0  0
 52 50  1  0  0  0  0
 53 54  1  0  0  0  0
 53 55  1  0  0  0  0
 54 51  1  0  0  0  0
 55 52  1  0  0  0  0
M  END
>  <MODEL>
1

>  <REMARK>
 VINA RESULT:      -6.8      0.000      0.000
  Name = 
  16 active torsions:
  status: ('A' for Active; 'I' for Inactive)
    1  A    between atoms: C_1  and  C_6
    2  A    between atoms: C_1  and  C_46
    3  A    between atoms: C_9  and  C_22
    4  A    between atoms: C_10  and  C_13
    5  A    between atoms: C_10  and  C_46
    6  A    between atoms: C_11  and  C_32
    7  A    between atoms: C_13  and  N_15
    8  A    between atoms: C_14  and  C_43
    9  A    between atoms: N_17  and  C_30
   10  A    between atoms: C_22  and  C_41
   11  A    between atoms: C_26  and  C_30
   12  A    between atoms: N_28  and  S_54
   13  A    between atoms: C_31  and  C_40
   14  A    between atoms: C_36  and  S_54
   15  A    between atoms: N_39  and  C_40
   16  A    between atoms: C_41  and  N_53
                            x       y       z     vdW  Elec       q    Type
                         _______ _______ _______ _____ _____    ______ ____

>  <TORSDO>
F 16

$$$$
=
 OpenBabel11042417523D

 55 61  0  0  1  0  0  0  0  0999 V2000
  187.8470  176.5840  145.3620 C   0  0  0  0  0  3  0  0  0  0  0  0
  190.0580  175.2340  145.0400 C   0  0  2  0  0  0  0  0  0  0  0  0
  190.6910  175.9790  144.0570 F   0  0  0  0  0  0  0  0  0  0  0  0
  187.4940  177.4720  146.3790 C   0  0  0  0  0  0  0  0  0  0  0  0
  189.0870  176.1230  145.7590 C   0  0  0  0  0  0  0  0  0  0  0  0
  191.6510  175.8000  147.0020 C   0  0  2  0  0  3  0  0  0  0  0  0
  191.1070  174.7130  146.0500 C   0  0  0  0  0  2  0  0  0  0  0  0
  188.4290  177.5500  147.2980 O   0  0  0  0  0  0  0  0  0  0  0  0
  189.3960  176.7570  146.9280 C   0  0  0  0  0  0  0  0  0  0  0  0
  190.5940  176.5560  147.6070 O   0  0  0  0  0  0  0  0  0  0  0  0
  189.3190  174.0530  144.4040 C   0  0  0  0  0  2  0  0  0  0  0  0
  189.8660  172.6950  144.8440 C   0  0  0  0  0  2  0  0  0  0  0  0
  190.4280  171.9270  143.6920 C   0  0  0  0  0  0  0  0  0  0  0  0
  191.5280  171.4050  143.7800 O   0  0  0  0  0  0  0  0  0  0  0  0
  189.6290  171.7810  142.4390 C   0  0  0  0  0  2  0  0  0  0  0  0
  190.4510  172.0670  141.2760 N   0  0  0  0  0  0  0  0  0  0  0  0
  191.5200  171.5650  138.2000 O   0  0  0  0  0  1  0  0  0  0  0  0
  191.1520  171.0550  140.5090 C   0  0  0  0  0  2  0  0  0  0  0  0
  192.0020  171.8190  139.4820 C   0  0  2  0  0  3  0  0  0  0  0  0
  191.8690  173.3170  139.7880 C   0  0  1  0  0  3  0  0  0  0  0  0
  190.4140  174.4110  141.3830 O   0  0  0  0  0  0  0  0  0  0  0  0
  190.8700  173.3530  140.8760 C   0  0  0  0  0  0  0  0  0  0  0  0
  194.1780  172.8850  141.0930 O   0  0  0  0  0  0  0  0  0  0  0  0
  193.1930  175.1280  141.2780 O   0  0  0  0  0  0  0  0  0  0  0  0
  193.4330  173.9640  140.3610 S   0  0  0  0  0  0  0  0  0  0  0  0
  195.2470  172.3670  138.5410 O   0  0  0  0  0  0  0  0  0  0  0  0
  194.3610  174.4800  138.9940 N   0  0  0  0  0  2  0  0  0  0  0  0
  195.1830  173.5880  138.2440 C   0  0  0  0  0  0  0  0  0  0  0  0
  195.9440  174.1020  137.0740 C   0  0  0  0  0  2  0  0  0  0  0  0
  196.2630  175.4440  137.2780 O   0  0  0  0  0  1  0  0  0  0  0  0
  192.6210  176.7240  146.2730 C   0  0  0  0  0  2  0  0  0  0  0  0
  193.5990  175.9560  145.5480 N   0  0  0  0  0  0  0  0  0  0  0  0
  194.7370  175.6800  146.0750 C   0  0  0  0  0  3  0  0  0  0  0  0
  197.6440  172.3080  142.7100 C   0  0  0  0  0  2  0  0  0  0  0  0
  196.2840  171.2220  144.3700 N   0  0  0  0  0  0  0  0  0  0  0  0
  195.7520  174.9010  145.3060 C   0  0  2  0  0  3  0  0  0  0  0  0
  197.2120  170.9590  143.2770 C   0  0  0  0  0  2  0  0  0  0  0  0
  197.1600  173.2970  143.6510 N   0  0  1  0  0  0  0  0  0  0  0  0
  196.3510  176.6910  143.8080 O   0  0  0  0  0  1  0  0  0  0  0  0
  195.8340  175.3940  143.8450 C   0  0  1  0  0  3  0  0  0  0  0  0
  196.6890  174.4810  142.9350 C   0  0  0  0  0  2  0  0  0  0  0  0
  197.0320  171.0000  145.6020 C   0  0  0  0  0  1  0  0  0  0  0  0
  195.9900  172.6420  144.2000 C   0  0  2  0  0  3  0  0  0  0  0  0
  195.4550  173.3920  145.4240 C   0  0  0  0  0  2  0  0  0  0  0  0
  186.2200  178.2490  146.4480 C   0  0  0  0  0  2  0  0  0  0  0  0
  185.1100  177.6040  145.6280 C   0  0  0  0  0  2  0  0  0  0  0  0
  184.9490  179.6110  144.4240 C   0  0  0  0  0  2  0  0  0  0  0  0
  184.0750  178.7190  143.6750 C   0  0  2  0  0  3  0  0  0  0  0  0
  184.1570  178.6110  145.1570 N   0  0  0  0  0  0  0  0  0  0  0  0
  184.9070  177.7000  142.8950 C   0  0  0  0  0  2  0  0  0  0  0  0
  187.1010  177.9110  142.0910 C   0  0  0  0  0  2  0  0  0  0  0  0
  185.7310  178.3920  141.9140 N   0  0  0  0  0  0  0  0  0  0  0  0
  186.5150  177.5380  139.8090 C   0  0  0  0  0  2  0  0  0  0  0  0
  187.4910  177.1070  140.8670 C   0  0  0  0  0  2  0  0  0  0  0  0
  185.2900  177.9470  140.5920 C   0  0  0  0  0  2  0  0  0  0  0  0
  1  5  1  0  0  0  0
  1  4  2  0  0  0  0
  2  3  1  6  0  0  0
  2  5  1  0  0  0  0
  2  7  1  0  0  0  0
  4 45  1  0  0  0  0
  4  8  1  0  0  0  0
  5  9  2  0  0  0  0
  6 31  1  6  0  0  0
  6 10  1  0  0  0  0
  7  6  1  0  0  0  0
  9  8  1  0  0  0  0
  9 10  1  0  0  0  0
 11 12  1  0  0  0  0
 11  2  1  0  0  0  0
 13 14  2  0  0  0  0
 13 12  1  0  0  0  0
 15 13  1  0  0  0  0
 16 15  1  0  0  0  0
 18 16  1  0  0  0  0
 19 17  1  6  0  0  0
 19 20  1  0  0  0  0
 19 18  1  0  0  0  0
 20 25  1  1  0  0  0
 20 22  1  0  0  0  0
 22 16  1  0  0  0  0
 22 21  2  0  0  0  0
 25 23  2  0  0  0  0
 25 24  2  0  0  0  0
 27 25  1  0  0  0  0
 28 26  2  0  0  0  0
 28 27  1  0  0  0  0
 29 30  1  0  0  0  0
 29 28  1  0  0  0  0
 32 33  2  0  0  0  0
 32 31  1  0  0  0  0
 34 37  1  0  0  0  0
 35 42  1  0  0  0  0
 36 44  1  0  0  0  0
 36 33  1  1  0  0  0
 37 35  1  0  0  0  0
 38 34  1  6  0  0  0
 38 43  1  0  0  0  0
 40 39  1  1  0  0  0
 40 36  1  0  0  0  0
 41 38  1  0  0  0  0
 41 40  1  0  0  0  0
 43 35  1  0  0  0  0
 43 44  1  1  0  0  0
 46 45  1  0  0  0  0
 47 49  1  0  0  0  0
 48 50  1  6  0  0  0
 48 47  1  0  0  0  0
 48 49  1  0  0  0  0
 49 46  1  0  0  0  0
 52 51  1  0  0  0  0
 52 50  1  0  0  0  0
 53 55  1  0  0  0  0
 53 54  1  0  0  0  0
 54 51  1  0  0  0  0
 55 52  1  0  0  0  0
M  END
>  <MODEL>
2

>  <REMARK>
 VINA RESULT:      -6.7      2.261      5.911
  Name = 
  16 active torsions:
  status: ('A' for Active; 'I' for Inactive)
    1  A    between atoms: C_1  and  C_6
    2  A    between atoms: C_1  and  C_46
    3  A    between atoms: C_9  and  C_22
    4  A    between atoms: C_10  and  C_13
    5  A    between atoms: C_10  and  C_46
    6  A    between atoms: C_11  and  C_32
    7  A    between atoms: C_13  and  N_15
    8  A    between atoms: C_14  and  C_43
    9  A    between atoms: N_17  and  C_30
   10  A    between atoms: C_22  and  C_41
   11  A    between atoms: C_26  and  C_30
   12  A    between atoms: N_28  and  S_54
   13  A    between atoms: C_31  and  C_40
   14  A    between atoms: C_36  and  S_54
   15  A    between atoms: N_39  and  C_40
   16  A    between atoms: C_41  and  N_53
                            x       y       z     vdW  Elec       q    Type
                         _______ _______ _______ _____ _____    ______ ____

>  <TORSDO>
F 16

$$$$
=
 OpenBabel11042417523D

 55 61  0  0  1  0  0  0  0  0999 V2000
  188.9460  175.0760  141.7220 C   0  0  0  0  0  3  0  0  0  0  0  0
  190.4350  173.3540  143.0000 C   0  0  2  0  0  0  0  0  0  0  0  0
  191.6790  173.6030  142.4420 F   0  0  0  0  0  0  0  0  0  0  0  0
  188.4430  176.3030  142.1560 C   0  0  0  0  0  0  0  0  0  0  0  0
  189.5870  174.5820  142.8410 C   0  0  0  0  0  0  0  0  0  0  0  0
  190.9080  174.2870  145.3690 C   0  0  2  0  0  3  0  0  0  0  0  0
  190.5950  173.0440  144.5070 C   0  0  0  0  0  2  0  0  0  0  0  0
  188.7550  176.5370  143.4110 O   0  0  0  0  0  0  0  0  0  0  0  0
  189.4550  175.5170  143.8260 C   0  0  0  0  0  0  0  0  0  0  0  0
  190.0060  175.3660  145.0950 O   0  0  0  0  0  0  0  0  0  0  0  0
  189.7760  172.1650  142.2940 C   0  0  0  0  0  2  0  0  0  0  0  0
  190.6960  170.9480  142.1830 C   0  0  0  0  0  2  0  0  0  0  0  0
  191.1370  170.7180  140.7740 C   0  0  0  0  0  0  0  0  0  0  0  0
  190.5810  171.2970  139.8540 O   0  0  0  0  0  0  0  0  0  0  0  0
  192.2750  169.7930  140.4960 C   0  0  0  0  0  2  0  0  0  0  0  0
  193.5430  170.4860  140.6480 N   0  0  0  0  0  0  0  0  0  0  0  0
  196.6300  170.8190  141.7500 O   0  0  0  0  0  1  0  0  0  0  0  0
  194.2510  170.6150  141.9070 C   0  0  0  0  0  2  0  0  0  0  0  0
  195.4450  171.5410  141.6260 C   0  0  2  0  0  3  0  0  0  0  0  0
  195.3080  172.0530  140.1850 C   0  0  1  0  0  3  0  0  0  0  0  0
  193.7150  171.3890  138.4890 O   0  0  0  0  0  0  0  0  0  0  0  0
  194.1350  171.3140  139.6730 C   0  0  0  0  0  0  0  0  0  0  0  0
  193.4980  174.0380  140.1770 O   0  0  0  0  0  0  0  0  0  0  0  0
  195.6050  174.4430  138.9800 O   0  0  0  0  0  0  0  0  0  0  0  0
  194.9820  173.8090  140.1900 S   0  0  0  0  0  0  0  0  0  0  0  0
  194.9740  176.6810  141.1410 O   0  0  0  0  0  0  0  0  0  0  0  0
  195.6600  174.5010  141.6250 N   0  0  0  0  0  2  0  0  0  0  0  0
  195.5750  175.8940  141.9190 C   0  0  0  0  0  0  0  0  0  0  0  0
  196.1720  176.4160  143.1770 C   0  0  0  0  0  2  0  0  0  0  0  0
  197.5410  176.6110  142.9980 O   0  0  0  0  0  1  0  0  0  0  0  0
  192.3530  174.7330  145.1730 C   0  0  0  0  0  2  0  0  0  0  0  0
  193.2610  173.6770  145.5370 N   0  0  0  0  0  0  0  0  0  0  0  0
  194.5240  173.8040  145.3510 C   0  0  0  0  0  3  0  0  0  0  0  0
  197.6800  169.2180  145.7300 C   0  0  0  0  0  2  0  0  0  0  0  0
  195.3010  168.8640  145.7590 N   0  0  0  0  0  0  0  0  0  0  0  0
  195.4540  172.6940  145.7130 C   0  0  2  0  0  3  0  0  0  0  0  0
  196.5780  168.1660  145.8220 C   0  0  0  0  0  2  0  0  0  0  0  0
  197.0120  170.4940  145.8790 N   0  0  1  0  0  0  0  0  0  0  0  0
  197.4770  173.8770  145.1480 O   0  0  0  0  0  1  0  0  0  0  0  0
  196.7290  172.7380  144.8410 C   0  0  1  0  0  3  0  0  0  0  0  0
  197.6240  171.4860  144.9980 C   0  0  0  0  0  2  0  0  0  0  0  0
  194.7810  168.8860  147.1220 C   0  0  0  0  0  1  0  0  0  0  0  0
  195.6960  170.2070  145.3430 C   0  0  2  0  0  3  0  0  0  0  0  0
  194.7130  171.3440  145.6400 C   0  0  0  0  0  2  0  0  0  0  0  0
  187.6440  177.2550  141.3280 C   0  0  0  0  0  2  0  0  0  0  0  0
  186.1550  177.1780  141.6440 C   0  0  0  0  0  2  0  0  0  0  0  0
  184.1900  178.3130  142.2420 C   0  0  0  0  0  2  0  0  0  0  0  0
  185.1240  178.7230  143.2810 C   0  0  2  0  0  3  0  0  0  0  0  0
  185.6040  178.5130  141.8880 N   0  0  0  0  0  0  0  0  0  0  0  0
  185.3790  177.5630  144.2450 C   0  0  0  0  0  2  0  0  0  0  0  0
  185.2240  176.8250  146.4670 C   0  0  0  0  0  2  0  0  0  0  0  0
  184.7760  177.8610  145.5360 N   0  0  0  0  0  0  0  0  0  0  0  0
  185.8190  178.9290  147.4200 C   0  0  0  0  0  2  0  0  0  0  0  0
  186.1370  177.4620  147.4950 C   0  0  0  0  0  2  0  0  0  0  0  0
  185.3490  179.1250  145.9980 C   0  0  0  0  0  2  0  0  0  0  0  0
  1  4  2  0  0  0  0
  1  5  1  0  0  0  0
  2  3  1  6  0  0  0
  2  7  1  0  0  0  0
  4  8  1  0  0  0  0
  5  2  1  0  0  0  0
  5  9  2  0  0  0  0
  6 31  1  6  0  0  0
  7  6  1  0  0  0  0
  8  9  1  0  0  0  0
  9 10  1  0  0  0  0
 10  6  1  0  0  0  0
 11  2  1  0  0  0  0
 12 11  1  0  0  0  0
 13 12  1  0  0  0  0
 14 13  2  0  0  0  0
 15 16  1  0  0  0  0
 15 13  1  0  0  0  0
 16 18  1  0  0  0  0
 19 17  1  6  0  0  0
 19 18  1  0  0  0  0
 20 25  1  1  0  0  0
 20 19  1  0  0  0  0
 21 22  2  0  0  0  0
 22 20  1  0  0  0  0
 22 16  1  0  0  0  0
 23 25  2  0  0  0  0
 24 25  2  0  0  0  0
 25 27  1  0  0  0  0
 26 28  2  0  0  0  0
 27 28  1  0  0  0  0
 28 29  1  0  0  0  0
 30 29  1  0  0  0  0
 31 32  1  0  0  0  0
 33 32  2  0  0  0  0
 34 37  1  0  0  0  0
 34 38  1  0  0  0  0
 35 37  1  0  0  0  0
 35 42  1  0  0  0  0
 36 33  1  6  0  0  0
 38 41  1  6  0  0  0
 40 41  1  0  0  0  0
 40 39  1  1  0  0  0
 40 36  1  0  0  0  0
 43 44  1  1  0  0  0
 43 35  1  0  0  0  0
 43 38  1  0  0  0  0
 44 36  1  0  0  0  0
 45 46  1  0  0  0  0
 45  4  1  0  0  0  0
 46 49  1  0  0  0  0
 47 48  1  0  0  0  0
 48 50  1  1  0  0  0
 49 47  1  0  0  0  0
 49 48  1  0  0  0  0
 50 52  1  0  0  0  0
 51 54  1  0  0  0  0
 52 55  1  0  0  0  0
 52 51  1  0  0  0  0
 53 54  1  0  0  0  0
 55 53  1  0  0  0  0
M  END
>  <MODEL>
3

>  <REMARK>
 VINA RESULT:      -6.6      2.549      6.545
  Name = 
  16 active torsions:
  status: ('A' for Active; 'I' for Inactive)
    1  A    between atoms: C_1  and  C_6
    2  A    between atoms: C_1  and  C_46
    3  A    between atoms: C_9  and  C_22
    4  A    between atoms: C_10  and  C_13
    5  A    between atoms: C_10  and  C_46
    6  A    between atoms: C_11  and  C_32
    7  A    between atoms: C_13  and  N_15
    8  A    between atoms: C_14  and  C_43
    9  A    between atoms: N_17  and  C_30
   10  A    between atoms: C_22  and  C_41
   11  A    between atoms: C_26  and  C_30
   12  A    between atoms: N_28  and  S_54
   13  A    between atoms: C_31  and  C_40
   14  A    between atoms: C_36  and  S_54
   15  A    between atoms: N_39  and  C_40
   16  A    between atoms: C_41  and  N_53
                            x       y       z     vdW  Elec       q    Type
                         _______ _______ _______ _____ _____    ______ ____

>  <TORSDO>
F 16

$$$$
=
 OpenBabel11042417523D

 55 61  0  0  1  0  0  0  0  0999 V2000
  190.0190  175.9870  142.4770 C   0  0  0  0  0  3  0  0  0  0  0  0
  191.2650  176.3340  144.7440 C   0  0  2  0  0  0  0  0  0  0  0  0
  190.7010  177.5210  145.1850 F   0  0  0  0  0  0  0  0  0  0  0  0
  188.9650  175.1250  142.1720 C   0  0  0  0  0  0  0  0  0  0  0  0
  190.3100  175.6790  143.7910 C   0  0  0  0  0  0  0  0  0  0  0  0
  190.2110  174.7550  146.5050 C   0  0  2  0  0  3  0  0  0  0  0  0
  191.5020  175.3940  145.9480 C   0  0  0  0  0  2  0  0  0  0  0  0
  188.6410  174.3730  143.1990 O   0  0  0  0  0  0  0  0  0  0  0  0
  189.4310  174.7090  144.1810 C   0  0  0  0  0  0  0  0  0  0  0  0
  189.4140  174.1730  145.4650 O   0  0  0  0  0  0  0  0  0  0  0  0
  192.5960  176.6210  144.0410 C   0  0  0  0  0  2  0  0  0  0  0  0
  193.6160  175.4930  144.2020 C   0  0  0  0  0  2  0  0  0  0  0  0
  194.9000  175.9890  144.7820 C   0  0  0  0  0  0  0  0  0  0  0  0
  194.9860  176.2140  145.9790 O   0  0  0  0  0  0  0  0  0  0  0  0
  196.0850  176.1900  143.8970 C   0  0  0  0  0  2  0  0  0  0  0  0
  196.5760  174.9130  143.4080 N   0  0  0  0  0  0  0  0  0  0  0  0
  197.9400  172.9180  141.1680 O   0  0  0  0  0  1  0  0  0  0  0  0
  196.2880  174.3840  142.0890 C   0  0  0  0  0  2  0  0  0  0  0  0
  196.8760  172.9650  142.0670 C   0  0  2  0  0  3  0  0  0  0  0  0
  197.3870  172.6500  143.4790 C   0  0  1  0  0  3  0  0  0  0  0  0
  197.5440  174.1220  145.3940 O   0  0  0  0  0  0  0  0  0  0  0  0
  197.1880  173.9230  144.2030 C   0  0  0  0  0  0  0  0  0  0  0  0
  196.5440  171.4060  145.7060 O   0  0  0  0  0  0  0  0  0  0  0  0
  196.8480  170.0200  143.7000 O   0  0  0  0  0  0  0  0  0  0  0  0
  196.3960  171.3570  144.2120 S   0  0  0  0  0  0  0  0  0  0  0  0
  193.9340  169.7890  145.0050 O   0  0  0  0  0  0  0  0  0  0  0  0
  194.7370  171.6140  143.7890 N   0  0  0  0  0  2  0  0  0  0  0  0
  193.6880  170.7620  144.2450 C   0  0  0  0  0  0  0  0  0  0  0  0
  192.2850  171.0510  143.8490 C   0  0  0  0  0  2  0  0  0  0  0  0
  191.8050  172.1330  144.5860 O   0  0  0  0  0  1  0  0  0  0  0  0
  189.3980  175.7760  147.2940 C   0  0  0  0  0  2  0  0  0  0  0  0
  188.3950  176.3780  146.4570 N   0  0  0  0  0  0  0  0  0  0  0  0
  187.8700  177.5070  146.7690 C   0  0  0  0  0  3  0  0  0  0  0  0
  183.5890  178.7150  143.4000 C   0  0  0  0  0  2  0  0  0  0  0  0
  185.3680  177.4260  142.4210 N   0  0  0  0  0  0  0  0  0  0  0  0
  186.8150  178.1120  145.9040 C   0  0  2  0  0  3  0  0  0  0  0  0
  184.0770  178.0340  142.1250 C   0  0  0  0  0  2  0  0  0  0  0  0
  184.7200  178.7010  144.3050 N   0  0  1  0  0  0  0  0  0  0  0  0
  185.4390  178.9070  147.7160 O   0  0  0  0  0  1  0  0  0  0  0  0
  185.4380  178.0650  146.6010 C   0  0  1  0  0  3  0  0  0  0  0  0
  184.2650  178.4570  145.6720 C   0  0  0  0  0  2  0  0  0  0  0  0
  186.3740  178.2900  141.8150 C   0  0  0  0  0  1  0  0  0  0  0  0
  185.4310  177.5130  143.8780 C   0  0  2  0  0  3  0  0  0  0  0  0
  186.8200  177.4340  144.5180 C   0  0  0  0  0  2  0  0  0  0  0  0
  188.2700  175.0370  140.8520 C   0  0  0  0  0  2  0  0  0  0  0  0
  189.0030  174.1210  139.8790 C   0  0  0  0  0  2  0  0  0  0  0  0
  189.7660  171.9510  139.4160 C   0  0  0  0  0  2  0  0  0  0  0  0
  190.7200  172.4190  140.4110 C   0  0  2  0  0  3  0  0  0  0  0  0
  189.2920  172.8260  140.4990 N   0  0  0  0  0  0  0  0  0  0  0  0
  191.6620  173.4540  139.7920 C   0  0  0  0  0  2  0  0  0  0  0  0
  193.2340  171.7730  140.2440 C   0  0  0  0  0  2  0  0  0  0  0  0
  193.0200  173.2200  140.2600 N   0  0  0  0  0  0  0  0  0  0  0  0
  194.9620  172.7530  138.9230 C   0  0  0  0  0  2  0  0  0  0  0  0
  194.2590  171.4500  139.1740 C   0  0  0  0  0  2  0  0  0  0  0  0
  193.9230  173.7960  139.2650 C   0  0  0  0  0  2  0  0  0  0  0  0
  1  5  1  0  0  0  0
  2  3  1  1  0  0  0
  2  7  1  0  0  0  0
  4  1  2  0  0  0  0
  4  8  1  0  0  0  0
  5  9  2  0  0  0  0
  5  2  1  0  0  0  0
  6 31  1  6  0  0  0
  7  6  1  0  0  0  0
  8  9  1  0  0  0  0
  9 10  1  0  0  0  0
 10  6  1  0  0  0  0
 11 12  1  0  0  0  0
 11  2  1  0  0  0  0
 12 13  1  0  0  0  0
 13 14  2  0  0  0  0
 15 13  1  0  0  0  0
 16 15  1  0  0  0  0
 16 22  1  0  0  0  0
 18 16  1  0  0  0  0
 19 17  1  6  0  0  0
 19 18  1  0  0  0  0
 19 20  1  0  0  0  0
 20 22  1  0  0  0  0
 20 25  1  1  0  0  0
 22 21  2  0  0  0  0
 24 25  2  0  0  0  0
 25 23  2  0  0  0  0
 27 25  1  0  0  0  0
 27 28  1  0  0  0  0
 28 26  2  0  0  0  0
 29 28  1  0  0  0  0
 29 30  1  0  0  0  0
 32 33  2  0  0  0  0
 32 31  1  0  0  0  0
 35 43  1  0  0  0  0
 36 40  1  0  0  0  0
 36 33  1  1  0  0  0
 37 35  1  0  0  0  0
 37 34  1  0  0  0  0
 38 34  1  6  0  0  0
 38 41  1  0  0  0  0
 40 39  1  1  0  0  0
 41 40  1  0  0  0  0
 42 35  1  0  0  0  0
 43 38  1  0  0  0  0
 43 44  1  6  0  0  0
 44 36  1  0  0  0  0
 45  4  1  0  0  0  0
 46 49  1  0  0  0  0
 46 45  1  0  0  0  0
 47 48  1  0  0  0  0
 47 49  1  0  0  0  0
 48 50  1  6  0  0  0
 48 49  1  0  0  0  0
 50 52  1  0  0  0  0
 51 52  1  0  0  0  0
 53 54  1  0  0  0  0
 53 55  1  0  0  0  0
 54 51  1  0  0  0  0
 55 52  1  0  0  0  0
M  END
>  <MODEL>
4

>  <REMARK>
 VINA RESULT:      -6.5      2.217      7.179
  Name = 
  16 active torsions:
  status: ('A' for Active; 'I' for Inactive)
    1  A    between atoms: C_1  and  C_6
    2  A    between atoms: C_1  and  C_46
    3  A    between atoms: C_9  and  C_22
    4  A    between atoms: C_10  and  C_13
    5  A    between atoms: C_10  and  C_46
    6  A    between atoms: C_11  and  C_32
    7  A    between atoms: C_13  and  N_15
    8  A    between atoms: C_14  and  C_43
    9  A    between atoms: N_17  and  C_30
   10  A    between atoms: C_22  and  C_41
   11  A    between atoms: C_26  and  C_30
   12  A    between atoms: N_28  and  S_54
   13  A    between atoms: C_31  and  C_40
   14  A    between atoms: C_36  and  S_54
   15  A    between atoms: N_39  and  C_40
   16  A    between atoms: C_41  and  N_53
                            x       y       z     vdW  Elec       q    Type
                         _______ _______ _______ _____ _____    ______ ____

>  <TORSDO>
F 16

$$$$
=
 OpenBabel11042417523D

 55 61  0  0  1  0  0  0  0  0999 V2000
  189.4450  175.8070  143.6110 C   0  0  0  0  0  3  0  0  0  0  0  0
  190.3340  174.6070  145.7520 C   0  0  2  0  0  0  0  0  0  0  0  0
  191.6850  174.4990  145.4620 F   0  0  0  0  0  0  0  0  0  0  0  0
  189.0970  177.1460  143.4290 C   0  0  0  0  0  0  0  0  0  0  0  0
  189.7660  175.7420  144.9530 C   0  0  0  0  0  0  0  0  0  0  0  0
  190.5120  176.3560  147.6530 C   0  0  2  0  0  3  0  0  0  0  0  0
  190.1500  174.9080  147.2570 C   0  0  0  0  0  2  0  0  0  0  0  0
  189.2030  177.8300  144.5460 O   0  0  0  0  0  0  0  0  0  0  0  0
  189.6190  177.0000  145.4630 C   0  0  0  0  0  0  0  0  0  0  0  0
  189.8850  177.3150  146.7920 O   0  0  0  0  0  0  0  0  0  0  0  0
  189.6190  173.3000  145.3930 C   0  0  0  0  0  2  0  0  0  0  0  0
  190.4590  172.3800  144.5070 C   0  0  0  0  0  2  0  0  0  0  0  0
  189.9370  172.3350  143.1070 C   0  0  0  0  0  0  0  0  0  0  0  0
  188.8440  171.8430  142.8750 O   0  0  0  0  0  0  0  0  0  0  0  0
  190.7480  172.9130  141.9950 C   0  0  0  0  0  2  0  0  0  0  0  0
  190.3360  172.3520  140.7200 N   0  0  0  0  0  0  0  0  0  0  0  0
  189.6840  169.8880  138.6320 O   0  0  0  0  0  1  0  0  0  0  0  0
  191.0300  171.2720  140.0460 C   0  0  0  0  0  2  0  0  0  0  0  0
  190.3420  171.1160  138.6820 C   0  0  2  0  0  3  0  0  0  0  0  0
  189.3160  172.2490  138.5440 C   0  0  1  0  0  3  0  0  0  0  0  0
  188.6260  173.8740  140.2000 O   0  0  0  0  0  0  0  0  0  0  0  0
  189.3720  172.9170  139.8610 C   0  0  0  0  0  0  0  0  0  0  0  0
  190.1680  172.5950  136.0190 O   0  0  0  0  0  0  0  0  0  0  0  0
  191.0190  174.1620  137.7100 O   0  0  0  0  0  0  0  0  0  0  0  0
  189.8230  173.3770  137.2540 S   0  0  0  0  0  0  0  0  0  0  0  0
  189.6150  175.5530  135.1640 O   0  0  0  0  0  0  0  0  0  0  0  0
  188.5150  174.4560  136.9070 N   0  0  0  0  0  2  0  0  0  0  0  0
  188.5870  175.4440  135.8810 C   0  0  0  0  0  0  0  0  0  0  0  0
  187.4180  176.3290  135.6330 C   0  0  0  0  0  2  0  0  0  0  0  0
  187.8630  177.6030  135.2820 O   0  0  0  0  0  1  0  0  0  0  0  0
  192.0240  176.5530  147.6640 C   0  0  0  0  0  2  0  0  0  0  0  0
  192.5510  176.4840  146.3270 N   0  0  0  0  0  0  0  0  0  0  0  0
  193.7730  176.7960  146.0870 C   0  0  0  0  0  3  0  0  0  0  0  0
  195.4630  175.5130  140.9250 C   0  0  0  0  0  2  0  0  0  0  0  0
  196.6540  174.4430  142.7200 N   0  0  0  0  0  0  0  0  0  0  0  0
  194.3040  176.7410  144.6920 C   0  0  2  0  0  3  0  0  0  0  0  0
  196.5920  174.5460  141.2680 C   0  0  0  0  0  2  0  0  0  0  0  0
  195.0860  176.1290  142.1800 N   0  0  1  0  0  0  0  0  0  0  0  0
  192.3930  177.7880  143.6620 O   0  0  0  0  0  1  0  0  0  0  0  0
  193.1520  176.6160  143.6700 C   0  0  1  0  0  3  0  0  0  0  0  0
  193.6370  176.3150  142.2320 C   0  0  0  0  0  2  0  0  0  0  0  0
  197.8050  175.2370  143.1360 C   0  0  0  0  0  1  0  0  0  0  0  0
  195.4120  175.0890  143.1360 C   0  0  2  0  0  3  0  0  0  0  0  0
  195.3490  175.6120  144.5740 C   0  0  0  0  0  2  0  0  0  0  0  0
  188.6520  177.7590  142.1420 C   0  0  0  0  0  2  0  0  0  0  0  0
  187.1410  177.6730  141.9600 C   0  0  0  0  0  2  0  0  0  0  0  0
  185.0400  178.6630  142.2980 C   0  0  0  0  0  2  0  0  0  0  0  0
  185.6100  178.6590  143.6380 C   0  0  2  0  0  3  0  0  0  0  0  0
  186.4860  178.8850  142.4560 N   0  0  0  0  0  0  0  0  0  0  0  0
  185.6210  177.2360  144.2000 C   0  0  0  0  0  2  0  0  0  0  0  0
  186.1220  176.7910  146.4480 C   0  0  0  0  0  2  0  0  0  0  0  0
  185.0630  177.2380  145.5440 N   0  0  0  0  0  0  0  0  0  0  0  0
  185.3670  178.9090  147.2450 C   0  0  0  0  0  2  0  0  0  0  0  0
  186.5240  177.9550  147.3320 C   0  0  0  0  0  2  0  0  0  0  0  0
  184.7700  178.6300  145.8860 C   0  0  0  0  0  2  0  0  0  0  0  0
  1  5  1  0  0  0  0
  2  3  1  6  0  0  0
  2  7  1  0  0  0  0
  4  1  2  0  0  0  0
  4  8  1  0  0  0  0
  5  9  2  0  0  0  0
  5  2  1  0  0  0  0
  6 31  1  6  0  0  0
  7  6  1  0  0  0  0
  8  9  1  0  0  0  0
  9 10  1  0  0  0  0
 10  6  1  0  0  0  0
 11  2  1  0  0  0  0
 12 11  1  0  0  0  0
 13 12  1  0  0  0  0
 14 13  2  0  0  0  0
 15 13  1  0  0  0  0
 16 15  1  0  0  0  0
 18 16  1  0  0  0  0
 19 17  1  1  0  0  0
 19 18  1  0  0  0  0
 20 25  1  6  0  0  0
 20 19  1  0  0  0  0
 20 22  1  0  0  0  0
 22 21  2  0  0  0  0
 22 16  1  0  0  0  0
 23 25  2  0  0  0  0
 25 24  2  0  0  0  0
 26 28  2  0  0  0  0
 27 25  1  0  0  0  0
 28 27  1  0  0  0  0
 29 28  1  0  0  0  0
 30 29  1  0  0  0  0
 32 31  1  0  0  0  0
 33 32  2  0  0  0  0
 34 37  1  0  0  0  0
 35 43  1  0  0  0  0
 35 42  1  0  0  0  0
 36 33  1  1  0  0  0
 37 35  1  0  0  0  0
 38 34  1  6  0  0  0
 38 41  1  0  0  0  0
 38 43  1  0  0  0  0
 40 39  1  6  0  0  0
 40 36  1  0  0  0  0
 41 40  1  0  0  0  0
 43 44  1  1  0  0  0
 44 36  1  0  0  0  0
 45  4  1  0  0  0  0
 46 45  1  0  0  0  0
 46 49  1  0  0  0  0
 47 49  1  0  0  0  0
 47 48  1  0  0  0  0
 48 50  1  6  0  0  0
 49 48  1  0  0  0  0
 50 52  1  0  0  0  0
 51 54  1  0  0  0  0
 52 55  1  0  0  0  0
 52 51  1  0  0  0  0
 53 54  1  0  0  0  0
 55 53  1  0  0  0  0
M  END
>  <MODEL>
5

>  <REMARK>
 VINA RESULT:      -6.4      2.855      6.926
  Name = 
  16 active torsions:
  status: ('A' for Active; 'I' for Inactive)
    1  A    between atoms: C_1  and  C_6
    2  A    between atoms: C_1  and  C_46
    3  A    between atoms: C_9  and  C_22
    4  A    between atoms: C_10  and  C_13
    5  A    between atoms: C_10  and  C_46
    6  A    between atoms: C_11  and  C_32
    7  A    between atoms: C_13  and  N_15
    8  A    between atoms: C_14  and  C_43
    9  A    between atoms: N_17  and  C_30
   10  A    between atoms: C_22  and  C_41
   11  A    between atoms: C_26  and  C_30
   12  A    between atoms: N_28  and  S_54
   13  A    between atoms: C_31  and  C_40
   14  A    between atoms: C_36  and  S_54
   15  A    between atoms: N_39  and  C_40
   16  A    between atoms: C_41  and  N_53
                            x       y       z     vdW  Elec       q    Type
                         _______ _______ _______ _____ _____    ______ ____

>  <TORSDO>
F 16

$$$$
=
 OpenBabel11042417523D

 55 61  0  0  1  0  0  0  0  0999 V2000
  190.2590  173.6320  145.0920 C   0  0  0  0  0  3  0  0  0  0  0  0
  191.7590  175.3430  146.3710 C   0  0  2  0  0  0  0  0  0  0  0  0
  192.7380  174.5110  146.8910 F   0  0  0  0  0  0  0  0  0  0  0  0
  190.1880  173.3700  143.7240 C   0  0  0  0  0  0  0  0  0  0  0  0
  191.1580  174.6770  145.1690 C   0  0  0  0  0  0  0  0  0  0  0  0
  193.2280  176.5920  144.6420 C   0  0  2  0  0  3  0  0  0  0  0  0
  192.3960  176.6850  145.9400 C   0  0  0  0  0  2  0  0  0  0  0  0
  190.9720  174.1690  143.0370 O   0  0  0  0  0  0  0  0  0  0  0  0
  191.5710  174.9470  143.8960 C   0  0  0  0  0  0  0  0  0  0  0  0
  192.5070  175.9310  143.5940 O   0  0  0  0  0  0  0  0  0  0  0  0
  190.6780  175.5980  147.4270 C   0  0  0  0  0  2  0  0  0  0  0  0
  190.2610  177.0670  147.5170 C   0  0  0  0  0  2  0  0  0  0  0  0
  188.8060  177.2450  147.2290 C   0  0  0  0  0  0  0  0  0  0  0  0
  188.3030  178.3570  147.2790 O   0  0  0  0  0  0  0  0  0  0  0  0
  187.9730  176.0630  146.8610 C   0  0  0  0  0  2  0  0  0  0  0  0
  187.3680  176.2540  145.5540 N   0  0  0  0  0  0  0  0  0  0  0  0
  187.0330  175.6840  142.3260 O   0  0  0  0  0  1  0  0  0  0  0  0
  188.1230  176.4160  144.3260 C   0  0  0  0  0  2  0  0  0  0  0  0
  187.0900  176.7380  143.2360 C   0  0  2  0  0  3  0  0  0  0  0  0
  185.7250  176.8960  143.9190 C   0  0  1  0  0  3  0  0  0  0  0  0
  185.1310  176.4740  146.2270 O   0  0  0  0  0  0  0  0  0  0  0  0
  186.0070  176.5410  145.3250 C   0  0  0  0  0  0  0  0  0  0  0  0
  186.2320  179.4080  143.1120 O   0  0  0  0  0  0  0  0  0  0  0  0
  184.9350  179.1390  145.1820 O   0  0  0  0  0  0  0  0  0  0  0  0
  185.1780  178.5920  143.8050 S   0  0  0  0  0  0  0  0  0  0  0  0
  184.6810  177.8860  140.9060 O   0  0  0  0  0  0  0  0  0  0  0  0
  183.7100  178.6480  142.8880 N   0  0  0  0  0  2  0  0  0  0  0  0
  183.6520  178.2870  141.5100 C   0  0  0  0  0  0  0  0  0  0  0  0
  182.3530  178.3500  140.7900 C   0  0  0  0  0  2  0  0  0  0  0  0
  181.3300  177.9210  141.6350 O   0  0  0  0  0  1  0  0  0  0  0  0
  194.5590  175.8930  144.9000 C   0  0  0  0  0  2  0  0  0  0  0  0
  194.5870  174.6080  144.2520 N   0  0  0  0  0  0  0  0  0  0  0  0
  195.1350  173.5980  144.8230 C   0  0  0  0  0  3  0  0  0  0  0  0
  194.3470  168.9980  141.7630 C   0  0  0  0  0  2  0  0  0  0  0  0
  192.7020  169.4260  143.4640 N   0  0  0  0  0  0  0  0  0  0  0  0
  195.1780  172.2750  144.1320 C   0  0  2  0  0  3  0  0  0  0  0  0
  193.0660  168.4850  142.4120 C   0  0  0  0  0  2  0  0  0  0  0  0
  194.8180  170.0650  142.6220 N   0  0  1  0  0  0  0  0  0  0  0  0
  196.8660  172.8920  142.5260 O   0  0  0  0  0  1  0  0  0  0  0  0
  195.5480  172.4440  142.6420 C   0  0  1  0  0  3  0  0  0  0  0  0
  195.3790  171.1470  141.8160 C   0  0  0  0  0  2  0  0  0  0  0  0
  193.0690  168.7900  144.7240 C   0  0  0  0  0  1  0  0  0  0  0  0
  193.5800  170.5600  143.1900 C   0  0  2  0  0  3  0  0  0  0  0  0
  193.8450  171.5280  144.3480 C   0  0  0  0  0  2  0  0  0  0  0  0
  189.3360  172.3230  143.0840 C   0  0  0  0  0  2  0  0  0  0  0  0
  189.6820  172.1220  141.6140 C   0  0  0  0  0  2  0  0  0  0  0  0
  189.2490  173.7520  139.9820 C   0  0  0  0  0  2  0  0  0  0  0  0
  188.9030  172.5140  139.2970 C   0  0  2  0  0  3  0  0  0  0  0  0
  188.6290  172.6620  140.7520 N   0  0  0  0  0  0  0  0  0  0  0  0
  190.1720  171.7360  138.9440 C   0  0  0  0  0  2  0  0  0  0  0  0
  189.6930  170.8050  136.8450 C   0  0  0  0  0  2  0  0  0  0  0  0
  189.8130  170.4970  138.2700 N   0  0  0  0  0  0  0  0  0  0  0  0
  191.2700  169.0270  137.0480 C   0  0  0  0  0  2  0  0  0  0  0  0
  190.8140  170.1030  136.1040 C   0  0  0  0  0  2  0  0  0  0  0  0
  190.9460  169.5840  138.4150 C   0  0  0  0  0  2  0  0  0  0  0  0
  1  5  1  0  0  0  0
  2  3  1  1  0  0  0
  2 11  1  0  0  0  0
  4  1  2  0  0  0  0
  5  2  1  0  0  0  0
  6 31  1  1  0  0  0
  6  7  1  0  0  0  0
  7  2  1  0  0  0  0
  8  4  1  0  0  0  0
  8  9  1  0  0  0  0
  9  5  2  0  0  0  0
 10  9  1  0  0  0  0
 10  6  1  0  0  0  0
 11 12  1  0  0  0  0
 13 14  2  0  0  0  0
 13 12  1  0  0  0  0
 15 13  1  0  0  0  0
 16 15  1  0  0  0  0
 18 16  1  0  0  0  0
 19 17  1  6  0  0  0
 19 20  1  0  0  0  0
 19 18  1  0  0  0  0
 20 25  1  1  0  0  0
 20 22  1  0  0  0  0
 22 16  1  0  0  0  0
 22 21  2  0  0  0  0
 23 25  2  0  0  0  0
 25 24  2  0  0  0  0
 26 28  2  0  0  0  0
 27 25  1  0  0  0  0
 28 27  1  0  0  0  0
 29 28  1  0  0  0  0
 29 30  1  0  0  0  0
 32 33  2  0  0  0  0
 32 31  1  0  0  0  0
 34 37  1  0  0  0  0
 35 42  1  0  0  0  0
 36 44  1  0  0  0  0
 36 33  1  6  0  0  0
 37 35  1  0  0  0  0
 38 34  1  6  0  0  0
 38 43  1  0  0  0  0
 40 39  1  1  0  0  0
 40 36  1  0  0  0  0
 41 38  1  0  0  0  0
 41 40  1  0  0  0  0
 43 35  1  0  0  0  0
 43 44  1  1  0  0  0
 45  4  1  0  0  0  0
 46 45  1  0  0  0  0
 47 49  1  0  0  0  0
 48 50  1  1  0  0  0
 48 47  1  0  0  0  0
 48 49  1  0  0  0  0
 49 46  1  0  0  0  0
 51 52  1  0  0  0  0
 52 55  1  0  0  0  0
 52 50  1  0  0  0  0
 53 55  1  0  0  0  0
 54 51  1  0  0  0  0
 54 53  1  0  0  0  0
M  END
>  <MODEL>
6

>  <REMARK>
 VINA RESULT:      -6.4      2.831      8.490
  Name = 
  16 active torsions:
  status: ('A' for Active; 'I' for Inactive)
    1  A    between atoms: C_1  and  C_6
    2  A    between atoms: C_1  and  C_46
    3  A    between atoms: C_9  and  C_22
    4  A    between atoms: C_10  and  C_13
    5  A    between atoms: C_10  and  C_46
    6  A    between atoms: C_11  and  C_32
    7  A    between atoms: C_13  and  N_15
    8  A    between atoms: C_14  and  C_43
    9  A    between atoms: N_17  and  C_30
   10  A    between atoms: C_22  and  C_41
   11  A    between atoms: C_26  and  C_30
   12  A    between atoms: N_28  and  S_54
   13  A    between atoms: C_31  and  C_40
   14  A    between atoms: C_36  and  S_54
   15  A    between atoms: N_39  and  C_40
   16  A    between atoms: C_41  and  N_53
                            x       y       z     vdW  Elec       q    Type
                         _______ _______ _______ _____ _____    ______ ____

>  <TORSDO>
F 16

$$$$
=
 OpenBabel11042417523D

 55 61  0  0  1  0  0  0  0  0999 V2000
  189.4230  176.0440  143.0820 C   0  0  0  0  0  3  0  0  0  0  0  0
  190.8950  174.5030  144.5900 C   0  0  2  0  0  0  0  0  0  0  0  0
  192.0610  174.4280  143.8440 F   0  0  0  0  0  0  0  0  0  0  0  0
  189.1220  177.3980  143.2300 C   0  0  0  0  0  0  0  0  0  0  0  0
  190.1680  175.7590  144.2090 C   0  0  0  0  0  0  0  0  0  0  0  0
  191.8120  175.9200  146.5540 C   0  0  2  0  0  3  0  0  0  0  0  0
  191.2450  174.5580  146.0950 C   0  0  0  0  0  2  0  0  0  0  0  0
  189.6400  177.8910  144.3330 O   0  0  0  0  0  0  0  0  0  0  0  0
  190.2820  176.9190  144.9200 C   0  0  0  0  0  0  0  0  0  0  0  0
  190.9980  177.0130  146.1100 O   0  0  0  0  0  0  0  0  0  0  0  0
  190.0170  173.2800  144.3060 C   0  0  0  0  0  2  0  0  0  0  0  0
  190.7680  172.1540  143.5930 C   0  0  0  0  0  2  0  0  0  0  0  0
  190.0780  171.7430  142.3330 C   0  0  0  0  0  0  0  0  0  0  0  0
  189.0420  172.2920  141.9930 O   0  0  0  0  0  0  0  0  0  0  0  0
  190.6710  170.6720  141.4790 C   0  0  0  0  0  2  0  0  0  0  0  0
  191.2250  171.2400  140.2620 N   0  0  0  0  0  0  0  0  0  0  0  0
  193.6760  172.2120  138.2870 O   0  0  0  0  0  1  0  0  0  0  0  0
  192.2890  172.2250  140.2370 C   0  0  0  0  0  2  0  0  0  0  0  0
  192.4400  172.6430  138.7660 C   0  0  2  0  0  3  0  0  0  0  0  0
  191.3190  171.9620  137.9690 C   0  0  1  0  0  3  0  0  0  0  0  0
  189.7210  170.3070  138.7200 O   0  0  0  0  0  0  0  0  0  0  0  0
  190.6640  171.1010  138.9760 C   0  0  0  0  0  0  0  0  0  0  0  0
  189.3080  173.6650  138.4920 O   0  0  0  0  0  0  0  0  0  0  0  0
  189.3150  172.5880  136.2830 O   0  0  0  0  0  0  0  0  0  0  0  0
  190.1720  173.1880  137.3600 S   0  0  0  0  0  0  0  0  0  0  0  0
  192.0750  173.2870  135.0100 O   0  0  0  0  0  0  0  0  0  0  0  0
  191.0670  174.5230  136.7160 N   0  0  0  0  0  2  0  0  0  0  0  0
  191.9400  174.3930  135.5950 C   0  0  0  0  0  0  0  0  0  0  0  0
  192.6680  175.5870  135.0910 C   0  0  0  0  0  2  0  0  0  0  0  0
  191.9380  176.7380  135.3860 O   0  0  0  0  0  1  0  0  0  0  0  0
  193.2500  176.0950  146.0790 C   0  0  0  0  0  2  0  0  0  0  0  0
  193.9890  174.8710  146.2450 N   0  0  0  0  0  0  0  0  0  0  0  0
  195.0360  174.6360  145.5400 C   0  0  0  0  0  3  0  0  0  0  0  0
  197.3430  169.5670  145.1920 C   0  0  0  0  0  2  0  0  0  0  0  0
  194.9520  169.6200  145.4510 N   0  0  0  0  0  0  0  0  0  0  0  0
  195.7820  173.3540  145.7060 C   0  0  2  0  0  3  0  0  0  0  0  0
  196.0840  168.7130  145.3160 C   0  0  0  0  0  2  0  0  0  0  0  0
  196.9300  170.9160  145.5180 N   0  0  1  0  0  0  0  0  0  0  0  0
  197.9230  174.2280  145.0230 O   0  0  0  0  0  1  0  0  0  0  0  0
  196.9580  173.2690  144.7070 C   0  0  1  0  0  3  0  0  0  0  0  0
  197.6250  171.8750  144.6600 C   0  0  0  0  0  2  0  0  0  0  0  0
  194.5730  169.5920  146.8590 C   0  0  0  0  0  1  0  0  0  0  0  0
  195.5400  170.9120  145.1060 C   0  0  2  0  0  3  0  0  0  0  0  0
  194.8080  172.1630  145.6030 C   0  0  0  0  0  2  0  0  0  0  0  0
  188.3140  178.2170  142.2780 C   0  0  0  0  0  2  0  0  0  0  0  0
  186.9000  177.6720  142.1120 C   0  0  0  0  0  2  0  0  0  0  0  0
  184.5990  178.1170  142.0010 C   0  0  0  0  0  2  0  0  0  0  0  0
  184.9520  178.5890  143.3330 C   0  0  2  0  0  3  0  0  0  0  0  0
  185.9120  178.7480  142.2070 N   0  0  0  0  0  0  0  0  0  0  0  0
  185.2160  177.4000  144.2590 C   0  0  0  0  0  2  0  0  0  0  0  0
  185.4020  176.7890  146.5160 C   0  0  0  0  0  2  0  0  0  0  0  0
  184.7290  177.7050  145.5960 N   0  0  0  0  0  0  0  0  0  0  0  0
  185.8350  179.0040  147.2880 C   0  0  0  0  0  2  0  0  0  0  0  0
  186.3380  177.5930  147.3970 C   0  0  0  0  0  2  0  0  0  0  0  0
  185.1890  179.0540  145.9240 C   0  0  0  0  0  2  0  0  0  0  0  0
  1  4  2  0  0  0  0
  1  5  1  0  0  0  0
  2  3  1  6  0  0  0
  2  7  1  0  0  0  0
  4  8  1  0  0  0  0
  5  2  1  0  0  0  0
  5  9  2  0  0  0  0
  6 31  1  6  0  0  0
  7  6  1  0  0  0  0
  8  9  1  0  0  0  0
  9 10  1  0  0  0  0
 10  6  1  0  0  0  0
 11  2  1  0  0  0  0
 12 11  1  0  0  0  0
 13 12  1  0  0  0  0
 14 13  2  0  0  0  0
 15 13  1  0  0  0  0
 16 15  1  0  0  0  0
 18 16  1  0  0  0  0
 19 17  1  6  0  0  0
 19 18  1  0  0  0  0
 20 25  1  1  0  0  0
 20 19  1  0  0  0  0
 20 22  1  0  0  0  0
 21 22  2  0  0  0  0
 22 16  1  0  0  0  0
 24 25  2  0  0  0  0
 25 23  2  0  0  0  0
 26 28  2  0  0  0  0
 27 25  1  0  0  0  0
 28 27  1  0  0  0  0
 29 30  1  0  0  0  0
 29 28  1  0  0  0  0
 31 32  1  0  0  0  0
 33 32  2  0  0  0  0
 34 37  1  0  0  0  0
 34 38  1  0  0  0  0
 35 42  1  0  0  0  0
 36 33  1  6  0  0  0
 37 35  1  0  0  0  0
 38 41  1  6  0  0  0
 40 39  1  1  0  0  0
 40 36  1  0  0  0  0
 41 40  1  0  0  0  0
 43 35  1  0  0  0  0
 43 38  1  0  0  0  0
 43 44  1  1  0  0  0
 44 36  1  0  0  0  0
 45  4  1  0  0  0  0
 46 49  1  0  0  0  0
 46 45  1  0  0  0  0
 47 49  1  0  0  0  0
 47 48  1  0  0  0  0
 48 50  1  1  0  0  0
 49 48  1  0  0  0  0
 50 52  1  0  0  0  0
 51 54  1  0  0  0  0
 52 55  1  0  0  0  0
 52 51  1  0  0  0  0
 53 54  1  0  0  0  0
 55 53  1  0  0  0  0
M  END
>  <MODEL>
7

>  <REMARK>
 VINA RESULT:      -6.3      2.673      7.131
  Name = 
  16 active torsions:
  status: ('A' for Active; 'I' for Inactive)
    1  A    between atoms: C_1  and  C_6
    2  A    between atoms: C_1  and  C_46
    3  A    between atoms: C_9  and  C_22
    4  A    between atoms: C_10  and  C_13
    5  A    between atoms: C_10  and  C_46
    6  A    between atoms: C_11  and  C_32
    7  A    between atoms: C_13  and  N_15
    8  A    between atoms: C_14  and  C_43
    9  A    between atoms: N_17  and  C_30
   10  A    between atoms: C_22  and  C_41
   11  A    between atoms: C_26  and  C_30
   12  A    between atoms: N_28  and  S_54
   13  A    between atoms: C_31  and  C_40
   14  A    between atoms: C_36  and  S_54
   15  A    between atoms: N_39  and  C_40
   16  A    between atoms: C_41  and  N_53
                            x       y       z     vdW  Elec       q    Type
                         _______ _______ _______ _____ _____    ______ ____

>  <TORSDO>
F 16

$$$$
=
 OpenBabel11042417523D

 55 61  0  0  1  0  0  0  0  0999 V2000
  188.9650  176.2070  146.4550 C   0  0  0  0  0  3  0  0  0  0  0  0
  190.9300  175.5200  144.8790 C   0  0  2  0  0  0  0  0  0  0  0  0
  190.9490  174.1450  145.0530 F   0  0  0  0  0  0  0  0  0  0  0  0
  187.6540  176.5560  146.1320 C   0  0  0  0  0  0  0  0  0  0  0  0
  189.5580  176.0230  145.2220 C   0  0  0  0  0  0  0  0  0  0  0  0
  190.0690  175.5640  142.4370 C   0  0  2  0  0  3  0  0  0  0  0  0
  191.2380  175.8610  143.4030 C   0  0  0  0  0  2  0  0  0  0  0  0
  187.4650  176.5750  144.8320 O   0  0  0  0  0  0  0  0  0  0  0  0
  188.5970  176.2410  144.2770 C   0  0  0  0  0  0  0  0  0  0  0  0
  188.8340  176.1160  142.9110 O   0  0  0  0  0  0  0  0  0  0  0  0
  191.9730  176.1750  145.7910 C   0  0  0  0  0  2  0  0  0  0  0  0
  193.1080  176.8470  145.0170 C   0  0  0  0  0  2  0  0  0  0  0  0
  194.4400  176.2790  145.3890 C   0  0  0  0  0  0  0  0  0  0  0  0
  194.6360  175.8650  146.5210 O   0  0  0  0  0  0  0  0  0  0  0  0
  195.5240  176.2010  144.3660 C   0  0  0  0  0  2  0  0  0  0  0  0
  195.6420  174.8470  143.8520 N   0  0  0  0  0  0  0  0  0  0  0  0
  195.6630  172.5650  141.4760 O   0  0  0  0  0  1  0  0  0  0  0  0
  194.7350  174.2660  142.8810 C   0  0  0  0  0  2  0  0  0  0  0  0
  195.1470  172.7910  142.7510 C   0  0  2  0  0  3  0  0  0  0  0  0
  196.2370  172.5170  143.7970 C   0  0  1  0  0  3  0  0  0  0  0  0
  197.3700  174.0890  145.2480 O   0  0  0  0  0  0  0  0  0  0  0  0
  196.4860  173.8500  144.3830 C   0  0  0  0  0  0  0  0  0  0  0  0
  194.4680  172.0400  145.7620 O   0  0  0  0  0  0  0  0  0  0  0  0
  196.7120  171.0730  146.0200 O   0  0  0  0  0  0  0  0  0  0  0  0
  195.6190  171.3970  145.0430 S   0  0  0  0  0  0  0  0  0  0  0  0
  192.8220  170.5520  144.2570 O   0  0  0  0  0  0  0  0  0  0  0  0
  195.0770  169.9440  144.2720 N   0  0  0  0  0  2  0  0  0  0  0  0
  193.7030  169.6970  143.9800 C   0  0  0  0  0  0  0  0  0  0  0  0
  193.3130  168.4310  143.3070 C   0  0  0  0  0  2  0  0  0  0  0  0
  193.1290  168.6640  141.9440 O   0  0  0  0  0  1  0  0  0  0  0  0
  189.9300  174.0650  142.1990 C   0  0  0  0  0  2  0  0  0  0  0  0
  190.2950  173.7330  140.8470 N   0  0  0  0  0  0  0  0  0  0  0  0
  189.6600  172.8240  140.2000 C   0  0  0  0  0  3  0  0  0  0  0  0
  191.8950  172.3440  135.1090 C   0  0  0  0  0  2  0  0  0  0  0  0
  190.7220  174.3960  135.5550 N   0  0  0  0  0  0  0  0  0  0  0  0
  190.0610  172.4740  138.8050 C   0  0  2  0  0  3  0  0  0  0  0  0
  191.4670  173.6860  134.5230 C   0  0  0  0  0  2  0  0  0  0  0  0
  191.1680  172.2150  136.3550 N   0  0  1  0  0  0  0  0  0  0  0  0
  191.3290  170.5130  139.4010 O   0  0  0  0  0  1  0  0  0  0  0  0
  191.4330  171.7640  138.7890 C   0  0  1  0  0  3  0  0  0  0  0  0
  192.0160  171.5870  137.3670 C   0  0  0  0  0  2  0  0  0  0  0  0
  189.3150  174.2900  135.1870 C   0  0  0  0  0  1  0  0  0  0  0  0
  190.9990  173.6010  136.7480 C   0  0  2  0  0  3  0  0  0  0  0  0
  190.0160  173.7330  137.9150 C   0  0  0  0  0  2  0  0  0  0  0  0
  186.5740  176.8790  147.1120 C   0  0  0  0  0  2  0  0  0  0  0  0
  185.1870  176.7860  146.4890 C   0  0  0  0  0  2  0  0  0  0  0  0
  185.4320  179.0840  146.0740 C   0  0  0  0  0  2  0  0  0  0  0  0
  184.2750  178.7340  145.2610 C   0  0  2  0  0  3  0  0  0  0  0  0
  184.4900  178.0710  146.5760 N   0  0  0  0  0  0  0  0  0  0  0  0
  184.7160  177.9260  144.0390 C   0  0  0  0  0  2  0  0  0  0  0  0
  186.1710  178.6710  142.3570 C   0  0  0  0  0  2  0  0  0  0  0  0
  184.8120  178.8050  142.8830 N   0  0  0  0  0  0  0  0  0  0  0  0
  184.6730  178.1830  140.5650 C   0  0  0  0  0  2  0  0  0  0  0  0
  186.0980  177.9960  141.0020 C   0  0  0  0  0  2  0  0  0  0  0  0
  183.9060  178.2750  141.8640 C   0  0  0  0  0  2  0  0  0  0  0  0
  2  3  1  1  0  0  0
  2  5  1  0  0  0  0
  2 11  1  0  0  0  0
  4  1  2  0  0  0  0
  4 45  1  0  0  0  0
  5  1  1  0  0  0  0
  6 31  1  1  0  0  0
  6 10  1  0  0  0  0
  6  7  1  0  0  0  0
  7  2  1  0  0  0  0
  8  4  1  0  0  0  0
  9  8  1  0  0  0  0
  9  5  2  0  0  0  0
 10  9  1  0  0  0  0
 12 13  1  0  0  0  0
 12 11  1  0  0  0  0
 13 14  2  0  0  0  0
 15 13  1  0  0  0  0
 16 15  1  0  0  0  0
 16 22  1  0  0  0  0
 18 16  1  0  0  0  0
 19 17  1  6  0  0  0
 19 18  1  0  0  0  0
 19 20  1  0  0  0  0
 20 22  1  0  0  0  0
 20 25  1  1  0  0  0
 22 21  2  0  0  0  0
 25 23  2  0  0  0  0
 25 24  2  0  0  0  0
 27 25  1  0  0  0  0
 28 26  2  0  0  0  0
 28 27  1  0  0  0  0
 29 28  1  0  0  0  0
 30 29  1  0  0  0  0
 32 31  1  0  0  0  0
 33 32  2  0  0  0  0
 35 43  1  0  0  0  0
 36 33  1  1  0  0  0
 37 34  1  0  0  0  0
 37 35  1  0  0  0  0
 38 34  1  6  0  0  0
 38 43  1  0  0  0  0
 38 41  1  0  0  0  0
 40 36  1  0  0  0  0
 40 39  1  6  0  0  0
 41 40  1  0  0  0  0
 42 35  1  0  0  0  0
 43 44  1  1  0  0  0
 44 36  1  0  0  0  0
 46 49  1  0  0  0  0
 46 45  1  0  0  0  0
 47 49  1  0  0  0  0
 48 50  1  6  0  0  0
 48 47  1  0  0  0  0
 48 49  1  0  0  0  0
 51 52  1  0  0  0  0
 52 50  1  0  0  0  0
 53 54  1  0  0  0  0
 53 55  1  0  0  0  0
 54 51  1  0  0  0  0
 55 52  1  0  0  0  0
M  END
>  <MODEL>
8

>  <REMARK>
 VINA RESULT:      -6.2      1.640      2.362
  Name = 
  16 active torsions:
  status: ('A' for Active; 'I' for Inactive)
    1  A    between atoms: C_1  and  C_6
    2  A    between atoms: C_1  and  C_46
    3  A    between atoms: C_9  and  C_22
    4  A    between atoms: C_10  and  C_13
    5  A    between atoms: C_10  and  C_46
    6  A    between atoms: C_11  and  C_32
    7  A    between atoms: C_13  and  N_15
    8  A    between atoms: C_14  and  C_43
    9  A    between atoms: N_17  and  C_30
   10  A    between atoms: C_22  and  C_41
   11  A    between atoms: C_26  and  C_30
   12  A    between atoms: N_28  and  S_54
   13  A    between atoms: C_31  and  C_40
   14  A    between atoms: C_36  and  S_54
   15  A    between atoms: N_39  and  C_40
   16  A    between atoms: C_41  and  N_53
                            x       y       z     vdW  Elec       q    Type
                         _______ _______ _______ _____ _____    ______ ____

>  <TORSDO>
F 16

$$$$
=
 OpenBabel11042417523D

 55 61  0  0  1  0  0  0  0  0999 V2000
  193.8450  174.7200  145.9110 C   0  0  0  0  0  3  0  0  0  0  0  0
  191.2610  174.7970  145.5480 C   0  0  2  0  0  0  0  0  0  0  0  0
  191.1360  175.9020  144.7210 F   0  0  0  0  0  0  0  0  0  0  0  0
  194.7950  173.8820  145.3260 C   0  0  0  0  0  0  0  0  0  0  0  0
  192.6510  174.2500  145.4030 C   0  0  0  0  0  0  0  0  0  0  0  0
  190.6270  172.9770  143.8190 C   0  0  2  0  0  3  0  0  0  0  0  0
  190.2450  173.7130  145.1220 C   0  0  0  0  0  2  0  0  0  0  0  0
  194.2360  172.9950  144.5350 O   0  0  0  0  0  0  0  0  0  0  0  0
  192.9500  173.2170  144.5620 C   0  0  0  0  0  0  0  0  0  0  0  0
  191.9840  172.5170  143.8460 O   0  0  0  0  0  0  0  0  0  0  0  0
  191.0060  175.2050  147.0030 C   0  0  0  0  0  2  0  0  0  0  0  0
  190.2630  176.5350  147.1320 C   0  0  0  0  0  2  0  0  0  0  0  0
  188.7870  176.3600  146.9790 C   0  0  0  0  0  0  0  0  0  0  0  0
  188.2520  175.3220  147.3360 O   0  0  0  0  0  0  0  0  0  0  0  0
  187.9640  177.4660  146.4080 C   0  0  0  0  0  2  0  0  0  0  0  0
  187.3810  177.0640  145.1390 N   0  0  0  0  0  0  0  0  0  0  0  0
  187.0980  175.1430  142.4780 O   0  0  0  0  0  1  0  0  0  0  0  0
  188.1560  176.6810  143.9750 C   0  0  0  0  0  2  0  0  0  0  0  0
  187.1400  176.4890  142.8380 C   0  0  2  0  0  3  0  0  0  0  0  0
  185.7640  176.9190  143.3640 C   0  0  1  0  0  3  0  0  0  0  0  0
  185.1330  177.5410  145.6160 O   0  0  0  0  0  0  0  0  0  0  0  0
  186.0240  177.2140  144.7890 C   0  0  0  0  0  0  0  0  0  0  0  0
  185.7150  178.3600  141.0970 O   0  0  0  0  0  0  0  0  0  0  0  0
  185.7590  179.6080  143.2130 O   0  0  0  0  0  0  0  0  0  0  0  0
  185.2200  178.3930  142.5140 S   0  0  0  0  0  0  0  0  0  0  0  0
  183.2700  178.0280  140.2300 O   0  0  0  0  0  0  0  0  0  0  0  0
  183.4890  178.4360  142.5190 N   0  0  0  0  0  2  0  0  0  0  0  0
  182.7140  178.2540  141.3360 C   0  0  0  0  0  0  0  0  0  0  0  0
  181.2300  178.2940  141.4200 C   0  0  0  0  0  2  0  0  0  0  0  0
  180.7340  179.1950  140.4790 O   0  0  0  0  0  1  0  0  0  0  0  0
  190.3860  173.8660  142.6040 C   0  0  0  0  0  2  0  0  0  0  0  0
  190.4340  173.0890  141.3930 N   0  0  0  0  0  0  0  0  0  0  0  0
  190.6330  173.6550  140.2590 C   0  0  0  0  0  3  0  0  0  0  0  0
  191.1850  169.8300  136.2330 C   0  0  0  0  0  2  0  0  0  0  0  0
  193.2320  170.6550  137.1890 N   0  0  0  0  0  0  0  0  0  0  0  0
  190.6610  172.8420  139.0070 C   0  0  2  0  0  3  0  0  0  0  0  0
  192.7070  169.7360  136.1880 C   0  0  0  0  0  2  0  0  0  0  0  0
  190.8910  170.9770  137.0670 N   0  0  1  0  0  0  0  0  0  0  0  0
  188.3120  172.2980  139.0170 O   0  0  0  0  0  1  0  0  0  0  0  0
  189.5880  171.7300  139.0490 C   0  0  1  0  0  3  0  0  0  0  0  0
  189.7180  170.7080  137.8960 C   0  0  0  0  0  2  0  0  0  0  0  0
  193.7250  171.8160  136.4570 C   0  0  0  0  0  1  0  0  0  0  0  0
  192.0370  171.0040  137.9540 C   0  0  2  0  0  3  0  0  0  0  0  0
  192.0860  172.3040  138.7620 C   0  0  0  0  0  2  0  0  0  0  0  0
  196.2700  173.9510  145.5520 C   0  0  0  0  0  2  0  0  0  0  0  0
  196.9730  174.7860  144.4890 C   0  0  0  0  0  2  0  0  0  0  0  0
  196.8870  176.8090  143.3010 C   0  0  0  0  0  2  0  0  0  0  0  0
  196.1920  175.8870  142.4130 C   0  0  2  0  0  3  0  0  0  0  0  0
  196.0490  175.7510  143.8880 N   0  0  0  0  0  0  0  0  0  0  0  0
  197.1930  174.9320  141.7590 C   0  0  0  0  0  2  0  0  0  0  0  0
  195.1930  174.3580  140.6760 C   0  0  0  0  0  2  0  0  0  0  0  0
  196.4780  173.8290  141.1340 N   0  0  0  0  0  0  0  0  0  0  0  0
  196.2650  173.3760  138.7840 C   0  0  0  0  0  2  0  0  0  0  0  0
  195.1820  174.3480  139.1600 C   0  0  0  0  0  2  0  0  0  0  0  0
  197.2320  173.4480  139.9420 C   0  0  0  0  0  2  0  0  0  0  0  0
  2  3  1  6  0  0  0
  2 11  1  0  0  0  0
  4 45  1  0  0  0  0
  4  1  2  0  0  0  0
  5  2  1  0  0  0  0
  5  1  1  0  0  0  0
  6 31  1  6  0  0  0
  6 10  1  0  0  0  0
  6  7  1  0  0  0  0
  7  2  1  0  0  0  0
  8  9  1  0  0  0  0
  8  4  1  0  0  0  0
  9  5  2  0  0  0  0
 10  9  1  0  0  0  0
 11 12  1  0  0  0  0
 13 12  1  0  0  0  0
 13 14  2  0  0  0  0
 15 13  1  0  0  0  0
 16 15  1  0  0  0  0
 18 16  1  0  0  0  0
 19 17  1  1  0  0  0
 19 20  1  0  0  0  0
 19 18  1  0  0  0  0
 20 25  1  6  0  0  0
 20 22  1  0  0  0  0
 22 16  1  0  0  0  0
 22 21  2  0  0  0  0
 23 25  2  0  0  0  0
 25 27  1  0  0  0  0
 25 24  2  0  0  0  0
 26 28  2  0  0  0  0
 28 29  1  0  0  0  0
 28 27  1  0  0  0  0
 30 29  1  0  0  0  0
 32 31  1  0  0  0  0
 33 32  2  0  0  0  0
 35 43  1  0  0  0  0
 36 40  1  0  0  0  0
 36 33  1  1  0  0  0
 37 34  1  0  0  0  0
 37 35  1  0  0  0  0
 38 34  1  6  0  0  0
 38 41  1  0  0  0  0
 38 43  1  0  0  0  0
 40 39  1  6  0  0  0
 41 40  1  0  0  0  0
 42 35  1  0  0  0  0
 43 44  1  6  0  0  0
 44 36  1  0  0  0  0
 46 45  1  0  0  0  0
 47 49  1  0  0  0  0
 48 50  1  1  0  0  0
 48 47  1  0  0  0  0
 48 49  1  0  0  0  0
 49 46  1  0  0  0  0
 51 52  1  0  0  0  0
 52 50  1  0  0  0  0
 53 54  1  0  0  0  0
 53 55  1  0  0  0  0
 54 51  1  0  0  0  0
 55 52  1  0  0  0  0
M  END
>  <MODEL>
9

>  <REMARK>
 VINA RESULT:      -6.2      3.008      8.528
  Name = 
  16 active torsions:
  status: ('A' for Active; 'I' for Inactive)
    1  A    between atoms: C_1  and  C_6
    2  A    between atoms: C_1  and  C_46
    3  A    between atoms: C_9  and  C_22
    4  A    between atoms: C_10  and  C_13
    5  A    between atoms: C_10  and  C_46
    6  A    between atoms: C_11  and  C_32
    7  A    between atoms: C_13  and  N_15
    8  A    between atoms: C_14  and  C_43
    9  A    between atoms: N_17  and  C_30
   10  A    between atoms: C_22  and  C_41
   11  A    between atoms: C_26  and  C_30
   12  A    between atoms: N_28  and  S_54
   13  A    between atoms: C_31  and  C_40
   14  A    between atoms: C_36  and  S_54
   15  A    between atoms: N_39  and  C_40
   16  A    between atoms: C_41  and  N_53
                            x       y       z     vdW  Elec       q    Type
                         _______ _______ _______ _____ _____    ______ ____

>  <TORSDO>
F 16

$$$$
