=
 OpenBabel11042417413D

 54 60  0  0  1  0  0  0  0  0999 V2000
  190.7510  173.7880  142.3570 C   0  0  0  0  0  0  0  0  0  0  0  0
  190.1840  173.4870  141.2090 C   0  0  0  0  0  0  0  0  0  0  0  0
  188.5400  173.9720  141.1990 S   0  0  0  0  0  0  0  0  0  0  0  0
  192.2310  173.6670  142.4880 C   0  0  2  0  0  3  0  0  0  0  0  0
  189.5750  173.3390  144.4920 C   0  0  0  0  0  1  0  0  0  0  0  0
  192.0140  171.1320  139.0190 C   0  0  0  0  0  0  0  0  0  0  0  0
  192.5240  171.5260  141.3400 C   0  0  0  0  0  0  0  0  0  0  0  0
  193.2770  170.3260  141.3170 C   0  0  0  0  0  3  0  0  0  0  0  0
  189.8120  174.3630  143.4030 C   0  0  2  0  0  3  0  0  0  0  0  0
  190.7970  172.7710  140.1270 N   0  0  0  0  0  0  0  0  0  0  0  0
  192.7850  170.0130  139.0570 C   0  0  0  0  0  0  0  0  0  0  0  0
  188.2400  174.9620  140.1050 O   0  0  0  0  0  0  0  0  0  0  0  0
  191.7780  171.9010  140.1620 C   0  0  0  0  0  0  0  0  0  0  0  0
  193.4060  168.1660  137.5070 C   0  0  0  0  0  1  0  0  0  0  0  0
  191.4840  171.1830  137.7390 C   0  0  0  0  0  3  0  0  0  0  0  0
  188.5110  174.6860  142.7840 N   0  0  0  0  0  0  0  0  0  0  0  0
  187.6180  172.7870  141.1310 O   0  0  0  0  0  0  0  0  0  0  0  0
  192.7460  169.4060  137.8710 N   0  0  0  0  0  0  0  0  0  0  0  0
  193.3870  169.5740  140.1850 N   0  0  0  0  0  0  0  0  0  0  0  0
  191.9650  170.1100  137.0620 N   0  0  0  0  0  0  0  0  0  0  0  0
  192.6670  172.2830  142.3910 N   0  0  0  0  0  0  0  0  0  0  0  0
  192.7260  173.8470  144.9420 C   0  0  0  0  0  1  0  0  0  0  0  0
  192.9570  174.4970  143.5750 C   0  0  2  0  0  0  0  0  0  0  0  0
  193.2420  176.8430  144.5880 C   0  0  0  0  0  1  0  0  0  0  0  0
  192.4610  175.9570  143.6270 C   0  0  0  0  0  2  0  0  0  0  0  0
  194.4790  174.5120  143.2650 C   0  0  1  0  0  3  0  0  0  0  0  0
  196.9740  170.4950  144.4750 F   0  0  0  0  0  0  0  0  0  0  0  0
  197.1370  172.3900  145.9050 C   0  0  0  0  0  3  0  0  0  0  0  0
  196.7750  173.7090  146.2000 C   0  0  0  0  0  3  0  0  0  0  0  0
  196.6280  171.7700  144.7610 C   0  0  0  0  0  0  0  0  0  0  0  0
  195.9080  174.4030  145.3530 C   0  0  0  0  0  3  0  0  0  0  0  0
  195.3990  173.7820  144.2060 C   0  0  0  0  0  0  0  0  0  0  0  0
  195.7610  172.4660  143.9140 C   0  0  0  0  0  3  0  0  0  0  0  0
  194.8560  174.4360  141.8990 O   0  0  0  0  0  0  0  0  0  0  0  0
  195.1400  175.6970  141.4720 N   0  0  0  0  0  0  0  0  0  0  0  0
  196.9840  175.5270  139.8980 C   0  0  0  0  0  2  0  0  0  0  0  0
  196.3790  176.1020  142.1290 C   0  0  0  0  0  2  0  0  0  0  0  0
  195.4700  175.6140  140.0480 C   0  0  0  0  0  2  0  0  0  0  0  0
  197.5350  175.5960  141.2980 C   0  0  0  0  0  2  0  0  0  0  0  0
  188.3180  176.1390  142.7080 C   0  0  0  0  0  2  0  0  0  0  0  0
  188.7020  176.8930  143.9840 C   0  0  0  0  0  2  0  0  0  0  0  0
  186.8580  178.5530  143.6150 C   0  0  0  0  0  0  0  0  0  0  0  0
  187.1450  178.5990  142.3940 O   0  0  0  0  0  0  0  0  0  0  0  0
  187.5540  177.6330  144.4820 N   0  0  0  0  0  0  0  0  0  0  0  0
  185.8010  179.4660  144.1270 C   0  0  0  0  0  1  0  0  0  0  0  0
  187.2240  177.4450  145.8960 C   0  0  1  0  0  3  0  0  0  0  0  0
  185.8570  176.7940  146.0520 C   0  0  0  0  0  1  0  0  0  0  0  0
  190.7860  176.6580  147.0910 C   0  0  2  0  0  3  0  0  0  0  0  0
  189.5190  177.5190  147.1650 C   0  0  0  0  0  2  0  0  0  0  0  0
  189.3430  174.7140  147.5400 C   0  0  0  0  0  3  0  0  0  0  0  0
  188.3240  176.7500  146.6570 C   0  0  0  0  0  0  0  0  0  0  0  0
  190.5370  175.2970  147.6800 C   0  0  0  0  0  3  0  0  0  0  0  0
  188.2390  175.4340  146.8840 C   0  0  0  0  0  3  0  0  0  0  0  0
  191.8210  177.2910  147.7680 O   0  0  0  0  0  1  0  0  0  0  0  0
  1  4  1  0  0  0  0
  1  9  1  0  0  0  0
  2  1  2  0  0  0  0
  3  2  1  0  0  0  0
  3 16  1  0  0  0  0
  4 23  1  1  0  0  0
  6 11  2  0  0  0  0
  6 13  1  0  0  0  0
  7 21  2  0  0  0  0
  8  7  1  0  0  0  0
  9  5  1  1  0  0  0
 10 13  2  0  0  0  0
 10  2  1  0  0  0  0
 11 19  1  0  0  0  0
 12  3  2  0  0  0  0
 13  7  1  0  0  0  0
 14 18  1  0  0  0  0
 15  6  1  0  0  0  0
 16  9  1  0  0  0  0
 17  3  2  0  0  0  0
 18 11  1  0  0  0  0
 19  8  2  0  0  0  0
 20 15  2  0  0  0  0
 20 18  1  0  0  0  0
 21  4  1  0  0  0  0
 23 25  1  0  0  0  0
 23 22  1  1  0  0  0
 25 24  1  0  0  0  0
 26 34  1  6  0  0  0
 26 23  1  0  0  0  0
 26 32  1  0  0  0  0
 27 30  1  0  0  0  0
 28 29  1  0  0  0  0
 30 28  2  0  0  0  0
 31 29  2  0  0  0  0
 32 31  1  0  0  0  0
 33 32  2  0  0  0  0
 33 30  1  0  0  0  0
 35 34  1  0  0  0  0
 35 37  1  0  0  0  0
 36 38  1  0  0  0  0
 36 39  1  0  0  0  0
 38 35  1  0  0  0  0
 39 37  1  0  0  0  0
 40 16  1  0  0  0  0
 40 41  1  0  0  0  0
 41 44  1  0  0  0  0
 42 45  1  0  0  0  0
 42 44  1  0  0  0  0
 43 42  2  0  0  0  0
 44 46  1  0  0  0  0
 46 47  1  6  0  0  0
 46 51  1  0  0  0  0
 48 49  1  0  0  0  0
 48 52  1  0  0  0  0
 48 54  1  1  0  0  0
 50 52  2  0  0  0  0
 51 53  2  0  0  0  0
 51 49  1  0  0  0  0
 53 50  1  0  0  0  0
M  END
>  <MODEL>
1

>  <REMARK>
 VINA RESULT:      -8.2      0.000      0.000
  Name = 
  11 active torsions:
  status: ('A' for Active; 'I' for Inactive)
    1  A    between atoms: C_5  and  C_8
    2  A    between atoms: C_5  and  N_41
    3  A    between atoms: C_6  and  C_35
    4  A    between atoms: C_6  and  N_43
    5  A    between atoms: C_8  and  N_43
    6  A    between atoms: C_10  and  C_37
    7  A    between atoms: C_13  and  C_37
    8  A    between atoms: C_13  and  C_39
    9  A    between atoms: C_13  and  O_50
   10  A    between atoms: N_23  and  O_50
   11  A    between atoms: C_36  and  C_37
                            x       y       z     vdW  Elec       q    Type
                         _______ _______ _______ _____ _____    ______ ____

>  <TORSDO>
F 11

$$$$
=
 OpenBabel11042417413D

 54 60  0  0  1  0  0  0  0  0999 V2000
  190.7730  173.1210  141.9320 C   0  0  0  0  0  0  0  0  0  0  0  0
  190.3210  173.2100  140.7000 C   0  0  0  0  0  0  0  0  0  0  0  0
  188.6630  173.6450  140.6920 S   0  0  0  0  0  0  0  0  0  0  0  0
  192.2400  172.9860  142.1580 C   0  0  2  0  0  3  0  0  0  0  0  0
  189.4400  171.9670  143.6750 C   0  0  0  0  0  1  0  0  0  0  0  0
  192.4400  171.7480  138.0430 C   0  0  0  0  0  0  0  0  0  0  0  0
  192.7310  171.3540  140.4010 C   0  0  0  0  0  0  0  0  0  0  0  0
  193.5370  170.2420  140.0560 C   0  0  0  0  0  3  0  0  0  0  0  0
  189.7210  173.2990  143.0130 C   0  0  2  0  0  3  0  0  0  0  0  0
  191.0580  172.9050  139.5060 N   0  0  0  0  0  0  0  0  0  0  0  0
  193.2570  170.6920  137.7830 C   0  0  0  0  0  0  0  0  0  0  0  0
  188.4120  174.9380  139.9620 O   0  0  0  0  0  0  0  0  0  0  0  0
  192.0720  172.0880  139.3470 C   0  0  0  0  0  0  0  0  0  0  0  0
  194.0940  169.4780  135.7780 C   0  0  0  0  0  1  0  0  0  0  0  0
  192.0200  172.2150  136.8070 C   0  0  0  0  0  3  0  0  0  0  0  0
  188.4650  173.7900  142.4130 N   0  0  0  0  0  0  0  0  0  0  0  0
  187.8070  172.5360  140.1470 O   0  0  0  0  0  0  0  0  0  0  0  0
  193.3480  170.5150  136.4650 N   0  0  0  0  0  0  0  0  0  0  0  0
  193.7800  169.9120  138.7560 N   0  0  0  0  0  0  0  0  0  0  0  0
  192.6080  171.4360  135.8630 N   0  0  0  0  0  0  0  0  0  0  0  0
  192.7470  171.7200  141.6520 N   0  0  0  0  0  0  0  0  0  0  0  0
  192.4140  172.4030  144.5930 C   0  0  0  0  0  1  0  0  0  0  0  0
  192.8300  173.4170  143.5230 C   0  0  2  0  0  0  0  0  0  0  0  0
  192.4740  175.0860  145.4460 C   0  0  0  0  0  1  0  0  0  0  0  0
  192.3520  174.8190  143.9510 C   0  0  0  0  0  2  0  0  0  0  0  0
  194.3790  173.4430  143.4160 C   0  0  1  0  0  3  0  0  0  0  0  0
  197.1160  177.4820  143.5500 F   0  0  0  0  0  0  0  0  0  0  0  0
  196.2620  176.7750  141.4440 C   0  0  0  0  0  3  0  0  0  0  0  0
  195.5090  175.8640  140.6960 C   0  0  0  0  0  3  0  0  0  0  0  0
  196.3920  176.6020  142.8250 C   0  0  0  0  0  0  0  0  0  0  0  0
  194.8890  174.7840  141.3280 C   0  0  0  0  0  3  0  0  0  0  0  0
  195.0200  174.6080  142.7110 C   0  0  0  0  0  0  0  0  0  0  0  0
  195.7710  175.5190  143.4560 C   0  0  0  0  0  3  0  0  0  0  0  0
  195.1080  172.9610  144.5340 O   0  0  0  0  0  0  0  0  0  0  0  0
  196.1170  172.1750  144.0700 N   0  0  0  0  0  0  0  0  0  0  0  0
  195.8810  169.9990  145.1270 C   0  0  0  0  0  2  0  0  0  0  0  0
  197.0930  172.0510  145.1500 C   0  0  0  0  0  2  0  0  0  0  0  0
  195.5760  170.8280  143.8850 C   0  0  0  0  0  2  0  0  0  0  0  0
  196.6590  170.9110  146.0410 C   0  0  0  0  0  2  0  0  0  0  0  0
  188.2110  175.1820  142.8030 C   0  0  0  0  0  2  0  0  0  0  0  0
  189.4570  175.9430  143.2640 C   0  0  0  0  0  2  0  0  0  0  0  0
  190.0440  177.5840  145.0670 C   0  0  0  0  0  0  0  0  0  0  0  0
  190.8330  178.1650  144.2820 O   0  0  0  0  0  0  0  0  0  0  0  0
  189.2340  176.4890  144.5930 N   0  0  0  0  0  0  0  0  0  0  0  0
  189.9820  178.0530  146.4790 C   0  0  0  0  0  1  0  0  0  0  0  0
  188.2220  175.8150  145.4100 C   0  0  1  0  0  3  0  0  0  0  0  0
  188.8700  175.0690  146.5690 C   0  0  0  0  0  1  0  0  0  0  0  0
  186.0090  178.9510  145.4190 C   0  0  2  0  0  3  0  0  0  0  0  0
  186.3970  177.6000  144.8050 C   0  0  0  0  0  2  0  0  0  0  0  0
  185.7170  177.7580  147.5530 C   0  0  0  0  0  3  0  0  0  0  0  0
  187.1060  176.7390  145.8230 C   0  0  0  0  0  0  0  0  0  0  0  0
  185.3350  178.7550  146.7480 C   0  0  0  0  0  3  0  0  0  0  0  0
  186.7390  176.7960  147.1080 C   0  0  0  0  0  3  0  0  0  0  0  0
  185.1650  179.6320  144.5500 O   0  0  0  0  0  1  0  0  0  0  0  0
  1  4  1  0  0  0  0
  1  9  1  0  0  0  0
  2  1  2  0  0  0  0
  3  2  1  0  0  0  0
  3 16  1  0  0  0  0
  4 23  1  1  0  0  0
  6 13  1  0  0  0  0
  7 21  2  0  0  0  0
  8  7  1  0  0  0  0
  9  5  1  6  0  0  0
 10  2  1  0  0  0  0
 11  6  2  0  0  0  0
 11 19  1  0  0  0  0
 12  3  2  0  0  0  0
 13 10  2  0  0  0  0
 13  7  1  0  0  0  0
 14 18  1  0  0  0  0
 15  6  1  0  0  0  0
 16 40  1  0  0  0  0
 16  9  1  0  0  0  0
 17  3  2  0  0  0  0
 18 11  1  0  0  0  0
 19  8  2  0  0  0  0
 20 18  1  0  0  0  0
 20 15  2  0  0  0  0
 21  4  1  0  0  0  0
 23 25  1  0  0  0  0
 23 22  1  1  0  0  0
 25 24  1  0  0  0  0
 26 23  1  0  0  0  0
 26 34  1  1  0  0  0
 28 30  1  0  0  0  0
 29 31  1  0  0  0  0
 29 28  2  0  0  0  0
 30 33  2  0  0  0  0
 30 27  1  0  0  0  0
 31 32  2  0  0  0  0
 32 26  1  0  0  0  0
 32 33  1  0  0  0  0
 35 34  1  0  0  0  0
 35 37  1  0  0  0  0
 36 39  1  0  0  0  0
 37 39  1  0  0  0  0
 38 35  1  0  0  0  0
 38 36  1  0  0  0  0
 40 41  1  0  0  0  0
 41 44  1  0  0  0  0
 42 45  1  0  0  0  0
 43 42  2  0  0  0  0
 44 42  1  0  0  0  0
 44 46  1  0  0  0  0
 46 51  1  0  0  0  0
 46 47  1  1  0  0  0
 48 54  1  6  0  0  0
 48 52  1  0  0  0  0
 49 48  1  0  0  0  0
 49 51  1  0  0  0  0
 51 53  2  0  0  0  0
 52 50  2  0  0  0  0
 53 50  1  0  0  0  0
M  END
>  <MODEL>
2

>  <REMARK>
 VINA RESULT:      -8.1      1.861      3.544
  Name = 
  11 active torsions:
  status: ('A' for Active; 'I' for Inactive)
    1  A    between atoms: C_5  and  C_8
    2  A    between atoms: C_5  and  N_41
    3  A    between atoms: C_6  and  C_35
    4  A    between atoms: C_6  and  N_43
    5  A    between atoms: C_8  and  N_43
    6  A    between atoms: C_10  and  C_37
    7  A    between atoms: C_13  and  C_37
    8  A    between atoms: C_13  and  C_39
    9  A    between atoms: C_13  and  O_50
   10  A    between atoms: N_23  and  O_50
   11  A    between atoms: C_36  and  C_37
                            x       y       z     vdW  Elec       q    Type
                         _______ _______ _______ _____ _____    ______ ____

>  <TORSDO>
F 11

$$$$
=
 OpenBabel11042417413D

 54 60  0  0  1  0  0  0  0  0999 V2000
  190.7640  173.1140  142.0430 C   0  0  0  0  0  0  0  0  0  0  0  0
  190.3530  173.2810  140.8050 C   0  0  0  0  0  0  0  0  0  0  0  0
  188.6970  173.7230  140.7700 S   0  0  0  0  0  0  0  0  0  0  0  0
  192.2230  172.9590  142.3080 C   0  0  2  0  0  3  0  0  0  0  0  0
  189.3720  171.8640  143.6690 C   0  0  0  0  0  1  0  0  0  0  0  0
  192.5530  171.9710  138.1340 C   0  0  0  0  0  0  0  0  0  0  0  0
  192.7650  171.4340  140.4720 C   0  0  0  0  0  0  0  0  0  0  0  0
  193.5800  170.3410  140.0870 C   0  0  0  0  0  3  0  0  0  0  0  0
  189.6790  173.2330  143.0990 C   0  0  2  0  0  3  0  0  0  0  0  0
  191.1270  173.0440  139.6190 N   0  0  0  0  0  0  0  0  0  0  0  0
  193.3740  170.9290  137.8370 C   0  0  0  0  0  0  0  0  0  0  0  0
  188.4740  175.0590  140.1120 O   0  0  0  0  0  0  0  0  0  0  0  0
  192.1430  172.2340  139.4440 C   0  0  0  0  0  0  0  0  0  0  0  0
  194.2730  169.8340  135.7900 C   0  0  0  0  0  1  0  0  0  0  0  0
  192.1750  172.5140  136.9160 C   0  0  0  0  0  3  0  0  0  0  0  0
  188.4440  173.7650  142.4900 N   0  0  0  0  0  0  0  0  0  0  0  0
  187.8560  172.6540  140.1320 O   0  0  0  0  0  0  0  0  0  0  0  0
  193.5080  170.8310  136.5150 N   0  0  0  0  0  0  0  0  0  0  0  0
  193.8630  170.0890  138.7770 N   0  0  0  0  0  0  0  0  0  0  0  0
  192.7900  171.7910  135.9460 N   0  0  0  0  0  0  0  0  0  0  0  0
  192.7420  171.7240  141.7420 N   0  0  0  0  0  0  0  0  0  0  0  0
  192.7280  172.0500  144.5920 C   0  0  0  0  0  1  0  0  0  0  0  0
  192.7690  173.3040  143.7150 C   0  0  2  0  0  0  0  0  0  0  0  0
  192.4030  174.7260  145.8260 C   0  0  0  0  0  1  0  0  0  0  0  0
  191.9570  174.4200  144.4020 C   0  0  0  0  0  2  0  0  0  0  0  0
  194.2400  173.7860  143.5790 C   0  0  1  0  0  3  0  0  0  0  0  0
  197.5020  170.1730  143.2250 F   0  0  0  0  0  0  0  0  0  0  0  0
  197.3620  171.3600  145.2820 C   0  0  0  0  0  3  0  0  0  0  0  0
  196.7690  172.3650  146.0530 C   0  0  0  0  0  3  0  0  0  0  0  0
  196.9320  171.1450  143.9690 C   0  0  0  0  0  0  0  0  0  0  0  0
  195.7510  173.1530  145.5110 C   0  0  0  0  0  3  0  0  0  0  0  0
  195.3210  172.9400  144.1950 C   0  0  0  0  0  0  0  0  0  0  0  0
  195.9140  171.9350  143.4290 C   0  0  0  0  0  3  0  0  0  0  0  0
  194.6030  174.4000  142.3530 O   0  0  0  0  0  0  0  0  0  0  0  0
  194.3990  175.7400  142.4780 N   0  0  0  0  0  0  0  0  0  0  0  0
  196.2710  176.8580  141.4030 C   0  0  0  0  0  2  0  0  0  0  0  0
  195.3290  176.2210  143.4960 C   0  0  0  0  0  2  0  0  0  0  0  0
  194.8370  176.3700  141.2310 C   0  0  0  0  0  2  0  0  0  0  0  0
  196.6470  176.5180  142.8210 C   0  0  0  0  0  2  0  0  0  0  0  0
  188.1810  175.1320  142.9540 C   0  0  0  0  0  2  0  0  0  0  0  0
  189.4320  175.8960  143.3980 C   0  0  0  0  0  2  0  0  0  0  0  0
  190.0880  177.4920  145.2190 C   0  0  0  0  0  0  0  0  0  0  0  0
  190.9150  178.0340  144.4450 O   0  0  0  0  0  0  0  0  0  0  0  0
  189.2260  176.4450  144.7290 N   0  0  0  0  0  0  0  0  0  0  0  0
  190.0360  177.9530  146.6330 C   0  0  0  0  0  1  0  0  0  0  0  0
  188.1710  175.8210  145.5310 C   0  0  1  0  0  3  0  0  0  0  0  0
  188.7610  175.1000  146.7350 C   0  0  0  0  0  1  0  0  0  0  0  0
  186.0680  179.0290  145.4050 C   0  0  2  0  0  3  0  0  0  0  0  0
  186.4490  177.6650  144.8150 C   0  0  0  0  0  2  0  0  0  0  0  0
  185.6020  177.8480  147.5140 C   0  0  0  0  0  3  0  0  0  0  0  0
  187.0620  176.7820  145.8740 C   0  0  0  0  0  0  0  0  0  0  0  0
  185.3060  178.8560  146.6890 C   0  0  0  0  0  3  0  0  0  0  0  0
  186.6170  176.8520  147.1330 C   0  0  0  0  0  3  0  0  0  0  0  0
  185.3050  179.7380  144.4860 O   0  0  0  0  0  1  0  0  0  0  0  0
  1  4  1  0  0  0  0
  1  9  1  0  0  0  0
  2  1  2  0  0  0  0
  3  2  1  0  0  0  0
  3 16  1  0  0  0  0
  4 23  1  1  0  0  0
  6 13  1  0  0  0  0
  7 21  2  0  0  0  0
  8  7  1  0  0  0  0
  9  5  1  6  0  0  0
 10  2  1  0  0  0  0
 11  6  2  0  0  0  0
 11 19  1  0  0  0  0
 12  3  2  0  0  0  0
 13 10  2  0  0  0  0
 13  7  1  0  0  0  0
 14 18  1  0  0  0  0
 15  6  1  0  0  0  0
 16 40  1  0  0  0  0
 16  9  1  0  0  0  0
 17  3  2  0  0  0  0
 18 11  1  0  0  0  0
 19  8  2  0  0  0  0
 20 18  1  0  0  0  0
 20 15  2  0  0  0  0
 21  4  1  0  0  0  0
 23 25  1  0  0  0  0
 23 22  1  1  0  0  0
 25 24  1  0  0  0  0
 26 34  1  6  0  0  0
 26 23  1  0  0  0  0
 26 32  1  0  0  0  0
 27 30  1  0  0  0  0
 28 29  1  0  0  0  0
 30 28  2  0  0  0  0
 31 29  2  0  0  0  0
 32 31  1  0  0  0  0
 33 30  1  0  0  0  0
 33 32  2  0  0  0  0
 34 35  1  0  0  0  0
 35 37  1  0  0  0  0
 36 39  1  0  0  0  0
 38 36  1  0  0  0  0
 38 35  1  0  0  0  0
 39 37  1  0  0  0  0
 40 41  1  0  0  0  0
 41 44  1  0  0  0  0
 42 45  1  0  0  0  0
 43 42  2  0  0  0  0
 44 42  1  0  0  0  0
 44 46  1  0  0  0  0
 46 51  1  0  0  0  0
 46 47  1  1  0  0  0
 48 54  1  6  0  0  0
 48 52  1  0  0  0  0
 49 48  1  0  0  0  0
 49 51  1  0  0  0  0
 51 53  2  0  0  0  0
 52 50  2  0  0  0  0
 53 50  1  0  0  0  0
M  END
>  <MODEL>
3

>  <REMARK>
 VINA RESULT:      -8.0      1.431      2.498
  Name = 
  11 active torsions:
  status: ('A' for Active; 'I' for Inactive)
    1  A    between atoms: C_5  and  C_8
    2  A    between atoms: C_5  and  N_41
    3  A    between atoms: C_6  and  C_35
    4  A    between atoms: C_6  and  N_43
    5  A    between atoms: C_8  and  N_43
    6  A    between atoms: C_10  and  C_37
    7  A    between atoms: C_13  and  C_37
    8  A    between atoms: C_13  and  C_39
    9  A    between atoms: C_13  and  O_50
   10  A    between atoms: N_23  and  O_50
   11  A    between atoms: C_36  and  C_37
                            x       y       z     vdW  Elec       q    Type
                         _______ _______ _______ _____ _____    ______ ____

>  <TORSDO>
F 11

$$$$
=
 OpenBabel11042417413D

 54 60  0  0  1  0  0  0  0  0999 V2000
  190.6980  173.0410  141.1770 C   0  0  0  0  0  0  0  0  0  0  0  0
  190.2230  173.1590  139.9570 C   0  0  0  0  0  0  0  0  0  0  0  0
  188.5640  173.5910  139.9910 S   0  0  0  0  0  0  0  0  0  0  0  0
  192.1700  172.9030  141.3720 C   0  0  2  0  0  3  0  0  0  0  0  0
  189.4010  171.8420  142.9180 C   0  0  0  0  0  1  0  0  0  0  0  0
  192.2930  171.7660  137.2250 C   0  0  0  0  0  0  0  0  0  0  0  0
  192.6290  171.3150  139.5670 C   0  0  0  0  0  0  0  0  0  0  0  0
  193.4310  170.2140  139.1800 C   0  0  0  0  0  3  0  0  0  0  0  0
  189.6680  173.1910  142.2830 C   0  0  2  0  0  3  0  0  0  0  0  0
  190.9370  172.8840  138.7430 N   0  0  0  0  0  0  0  0  0  0  0  0
  193.1060  170.7180  136.9240 C   0  0  0  0  0  0  0  0  0  0  0  0
  188.2980  174.9010  139.2990 O   0  0  0  0  0  0  0  0  0  0  0  0
  191.9490  172.0730  138.5440 C   0  0  0  0  0  0  0  0  0  0  0  0
  193.9060  169.5540  134.8750 C   0  0  0  0  0  1  0  0  0  0  0  0
  191.8490  172.2610  136.0090 C   0  0  0  0  0  3  0  0  0  0  0  0
  188.3990  173.6940  141.7190 N   0  0  0  0  0  0  0  0  0  0  0  0
  187.7000  172.4940  139.4370 O   0  0  0  0  0  0  0  0  0  0  0  0
  193.1720  170.5730  135.6010 N   0  0  0  0  0  0  0  0  0  0  0  0
  193.6480  169.9160  137.8670 N   0  0  0  0  0  0  0  0  0  0  0  0
  192.4190  171.5070  135.0360 N   0  0  0  0  0  0  0  0  0  0  0  0
  192.6690  171.6510  140.8260 N   0  0  0  0  0  0  0  0  0  0  0  0
  193.1860  172.0360  143.4970 C   0  0  0  0  0  1  0  0  0  0  0  0
  192.7850  173.3020  142.7360 C   0  0  2  0  0  0  0  0  0  0  0  0
  191.7680  173.6890  145.0660 C   0  0  0  0  0  1  0  0  0  0  0  0
  191.8060  174.1180  143.6050 C   0  0  0  0  0  2  0  0  0  0  0  0
  194.0490  174.1700  142.4830 C   0  0  1  0  0  3  0  0  0  0  0  0
  194.1140  175.7430  137.8630 F   0  0  0  0  0  0  0  0  0  0  0  0
  195.7720  174.1750  138.5370 C   0  0  0  0  0  3  0  0  0  0  0  0
  196.3300  173.3690  139.5350 C   0  0  0  0  0  3  0  0  0  0  0  0
  194.6560  174.9660  138.8260 C   0  0  0  0  0  0  0  0  0  0  0  0
  195.7740  173.3550  140.8160 C   0  0  0  0  0  3  0  0  0  0  0  0
  194.6570  174.1490  141.1070 C   0  0  0  0  0  0  0  0  0  0  0  0
  194.1020  174.9520  140.1090 C   0  0  0  0  0  3  0  0  0  0  0  0
  194.1000  175.4330  143.1280 O   0  0  0  0  0  0  0  0  0  0  0  0
  195.3210  175.5560  143.7140 N   0  0  0  0  0  0  0  0  0  0  0  0
  195.0160  175.1980  146.0990 C   0  0  0  0  0  2  0  0  0  0  0  0
  195.3370  176.8430  144.4050 C   0  0  0  0  0  2  0  0  0  0  0  0
  195.4020  174.5500  144.7750 C   0  0  0  0  0  2  0  0  0  0  0  0
  194.7350  176.6430  145.7760 C   0  0  0  0  0  2  0  0  0  0  0  0
  188.1510  175.0750  142.1470 C   0  0  0  0  0  2  0  0  0  0  0  0
  186.8500  175.2660  142.9320 C   0  0  0  0  0  2  0  0  0  0  0  0
  186.3270  177.5940  142.1570 C   0  0  0  0  0  0  0  0  0  0  0  0
  186.0610  177.1530  141.0120 O   0  0  0  0  0  0  0  0  0  0  0  0
  186.6540  176.6780  143.2220 N   0  0  0  0  0  0  0  0  0  0  0  0
  186.3010  179.0660  142.3700 C   0  0  0  0  0  1  0  0  0  0  0  0
  186.8860  177.0930  144.6070 C   0  0  1  0  0  3  0  0  0  0  0  0
  185.8490  176.4810  145.5390 C   0  0  0  0  0  1  0  0  0  0  0  0
  189.8120  176.3130  146.9670 C   0  0  2  0  0  3  0  0  0  0  0  0
  188.6480  175.8350  146.0890 C   0  0  0  0  0  2  0  0  0  0  0  0
  190.6760  177.4720  144.9750 C   0  0  0  0  0  3  0  0  0  0  0  0
  188.3110  176.8710  145.0440 C   0  0  0  0  0  0  0  0  0  0  0  0
  190.9380  176.8300  146.1170 C   0  0  0  0  0  3  0  0  0  0  0  0
  189.2890  177.6020  144.4980 C   0  0  0  0  0  3  0  0  0  0  0  0
  190.2550  175.2650  147.7640 O   0  0  0  0  0  1  0  0  0  0  0  0
  1  4  1  0  0  0  0
  1  9  1  0  0  0  0
  2  3  1  0  0  0  0
  2  1  2  0  0  0  0
  3 16  1  0  0  0  0
  4 23  1  1  0  0  0
  6 13  1  0  0  0  0
  7 21  2  0  0  0  0
  8  7  1  0  0  0  0
  9  5  1  6  0  0  0
 10  2  1  0  0  0  0
 11  6  2  0  0  0  0
 11 19  1  0  0  0  0
 12  3  2  0  0  0  0
 13 10  2  0  0  0  0
 13  7  1  0  0  0  0
 14 18  1  0  0  0  0
 15  6  1  0  0  0  0
 16 40  1  0  0  0  0
 16  9  1  0  0  0  0
 17  3  2  0  0  0  0
 18 11  1  0  0  0  0
 19  8  2  0  0  0  0
 20 18  1  0  0  0  0
 20 15  2  0  0  0  0
 21  4  1  0  0  0  0
 23 22  1  1  0  0  0
 23 25  1  0  0  0  0
 25 24  1  0  0  0  0
 26 23  1  0  0  0  0
 26 34  1  6  0  0  0
 27 30  1  0  0  0  0
 28 30  2  0  0  0  0
 28 29  1  0  0  0  0
 29 31  2  0  0  0  0
 30 33  1  0  0  0  0
 31 32  1  0  0  0  0
 32 26  1  0  0  0  0
 33 32  2  0  0  0  0
 34 35  1  0  0  0  0
 35 37  1  0  0  0  0
 35 38  1  0  0  0  0
 37 39  1  0  0  0  0
 38 36  1  0  0  0  0
 39 36  1  0  0  0  0
 40 41  1  0  0  0  0
 41 44  1  0  0  0  0
 42 45  1  0  0  0  0
 42 44  1  0  0  0  0
 43 42  2  0  0  0  0
 44 46  1  0  0  0  0
 46 51  1  0  0  0  0
 46 47  1  1  0  0  0
 48 54  1  6  0  0  0
 49 48  1  0  0  0  0
 50 52  2  0  0  0  0
 51 49  1  0  0  0  0
 52 48  1  0  0  0  0
 53 50  1  0  0  0  0
 53 51  2  0  0  0  0
M  END
>  <MODEL>
4

>  <REMARK>
 VINA RESULT:      -8.0      2.087      3.257
  Name = 
  11 active torsions:
  status: ('A' for Active; 'I' for Inactive)
    1  A    between atoms: C_5  and  C_8
    2  A    between atoms: C_5  and  N_41
    3  A    between atoms: C_6  and  C_35
    4  A    between atoms: C_6  and  N_43
    5  A    between atoms: C_8  and  N_43
    6  A    between atoms: C_10  and  C_37
    7  A    between atoms: C_13  and  C_37
    8  A    between atoms: C_13  and  C_39
    9  A    between atoms: C_13  and  O_50
   10  A    between atoms: N_23  and  O_50
   11  A    between atoms: C_36  and  C_37
                            x       y       z     vdW  Elec       q    Type
                         _______ _______ _______ _____ _____    ______ ____

>  <TORSDO>
F 11

$$$$
=
 OpenBabel11042417413D

 54 60  0  0  1  0  0  0  0  0999 V2000
  191.5050  172.8740  142.0250 C   0  0  0  0  0  0  0  0  0  0  0  0
  190.5900  173.2420  141.1540 C   0  0  0  0  0  0  0  0  0  0  0  0
  189.1890  173.8220  141.9540 S   0  0  0  0  0  0  0  0  0  0  0  0
  192.8810  172.5630  141.5440 C   0  0  2  0  0  3  0  0  0  0  0  0
  190.8760  171.5330  144.0140 C   0  0  0  0  0  1  0  0  0  0  0  0
  191.0820  172.1310  137.6600 C   0  0  0  0  0  0  0  0  0  0  0  0
  192.2850  171.2630  139.5570 C   0  0  0  0  0  0  0  0  0  0  0  0
  192.6650  170.1700  138.7410 C   0  0  0  0  0  3  0  0  0  0  0  0
  191.0670  172.9370  143.4780 C   0  0  2  0  0  3  0  0  0  0  0  0
  190.6800  173.1060  139.7280 N   0  0  0  0  0  0  0  0  0  0  0  0
  191.5160  171.0750  136.9220 C   0  0  0  0  0  0  0  0  0  0  0  0
  188.8720  175.2490  141.5950 O   0  0  0  0  0  0  0  0  0  0  0  0
  191.3730  172.2450  139.0220 C   0  0  0  0  0  0  0  0  0  0  0  0
  191.1930  170.1980  134.6150 C   0  0  0  0  0  1  0  0  0  0  0  0
  190.2580  172.8650  136.8210 C   0  0  0  0  0  3  0  0  0  0  0  0
  189.7770  173.6480  143.5820 N   0  0  0  0  0  0  0  0  0  0  0  0
  188.0090  172.9230  141.7150 O   0  0  0  0  0  0  0  0  0  0  0  0
  191.0020  171.1470  135.6950 N   0  0  0  0  0  0  0  0  0  0  0  0
  192.2660  170.0760  137.4410 N   0  0  0  0  0  0  0  0  0  0  0  0
  190.2420  172.2320  135.6200 N   0  0  0  0  0  0  0  0  0  0  0  0
  192.8990  171.3770  140.7010 N   0  0  0  0  0  0  0  0  0  0  0  0
  195.1770  171.7130  142.0950 C   0  0  0  0  0  1  0  0  0  0  0  0
  194.0630  172.6660  142.5380 C   0  0  2  0  0  0  0  0  0  0  0  0
  194.4910  171.2150  144.6170 C   0  0  0  0  0  1  0  0  0  0  0  0
  193.6480  172.3120  143.9810 C   0  0  0  0  0  2  0  0  0  0  0  0
  194.6020  174.1220  142.5300 C   0  0  1  0  0  3  0  0  0  0  0  0
  192.1460  177.5880  144.9340 F   0  0  0  0  0  0  0  0  0  0  0  0
  193.9540  176.5180  146.0490 C   0  0  0  0  0  3  0  0  0  0  0  0
  194.9890  175.5770  146.0330 C   0  0  0  0  0  3  0  0  0  0  0  0
  193.1440  176.6780  144.9210 C   0  0  0  0  0  0  0  0  0  0  0  0
  195.2110  174.8000  144.8940 C   0  0  0  0  0  3  0  0  0  0  0  0
  194.3980  174.9590  143.7640 C   0  0  0  0  0  0  0  0  0  0  0  0
  193.3670  175.8990  143.7820 C   0  0  0  0  0  3  0  0  0  0  0  0
  195.8370  174.3470  141.8670 O   0  0  0  0  0  0  0  0  0  0  0  0
  195.7520  175.5380  141.2160 N   0  0  0  0  0  0  0  0  0  0  0  0
  195.6100  175.0520  138.8380 C   0  0  0  0  0  2  0  0  0  0  0  0
  197.0510  175.7770  140.5920 C   0  0  0  0  0  2  0  0  0  0  0  0
  194.8180  175.3650  140.1020 C   0  0  0  0  0  2  0  0  0  0  0  0
  197.0590  175.0820  139.2510 C   0  0  0  0  0  2  0  0  0  0  0  0
  189.9540  174.9560  144.2240 C   0  0  0  0  0  2  0  0  0  0  0  0
  188.9490  175.2500  145.3410 C   0  0  0  0  0  2  0  0  0  0  0  0
  190.0990  176.5410  147.1590 C   0  0  0  0  0  0  0  0  0  0  0  0
  190.6590  175.4890  147.5520 O   0  0  0  0  0  0  0  0  0  0  0  0
  189.2760  176.5170  145.9740 N   0  0  0  0  0  0  0  0  0  0  0  0
  190.3060  177.7870  147.9450 C   0  0  0  0  0  1  0  0  0  0  0  0
  188.6610  177.7110  145.3900 C   0  0  1  0  0  3  0  0  0  0  0  0
  189.1170  177.9060  143.9500 C   0  0  0  0  0  1  0  0  0  0  0  0
  184.9910  178.5260  144.6160 C   0  0  2  0  0  3  0  0  0  0  0  0
  186.2420  177.6720  144.3760 C   0  0  0  0  0  2  0  0  0  0  0  0
  185.1960  177.9350  146.9970 C   0  0  0  0  0  3  0  0  0  0  0  0
  187.1650  177.7360  145.5680 C   0  0  0  0  0  0  0  0  0  0  0  0
  184.3990  178.2300  145.9660 C   0  0  0  0  0  3  0  0  0  0  0  0
  186.6500  177.8140  146.8000 C   0  0  0  0  0  3  0  0  0  0  0  0
  184.0570  178.2760  143.6180 O   0  0  0  0  0  1  0  0  0  0  0  0
  1  9  1  0  0  0  0
  2  3  1  0  0  0  0
  2  1  2  0  0  0  0
  3 16  1  0  0  0  0
  4  1  1  0  0  0  0
  4 23  1  1  0  0  0
  6 13  1  0  0  0  0
  7 21  2  0  0  0  0
  8  7  1  0  0  0  0
  9 16  1  0  0  0  0
  9  5  1  6  0  0  0
 10  2  1  0  0  0  0
 11 19  1  0  0  0  0
 11  6  2  0  0  0  0
 12  3  2  0  0  0  0
 13  7  1  0  0  0  0
 13 10  2  0  0  0  0
 14 18  1  0  0  0  0
 15  6  1  0  0  0  0
 16 40  1  0  0  0  0
 17  3  2  0  0  0  0
 18 11  1  0  0  0  0
 19  8  2  0  0  0  0
 20 18  1  0  0  0  0
 20 15  2  0  0  0  0
 21  4  1  0  0  0  0
 23 22  1  6  0  0  0
 23 25  1  0  0  0  0
 25 24  1  0  0  0  0
 26 34  1  1  0  0  0
 26 23  1  0  0  0  0
 26 32  1  0  0  0  0
 29 28  1  0  0  0  0
 30 27  1  0  0  0  0
 30 28  2  0  0  0  0
 31 29  2  0  0  0  0
 32 33  2  0  0  0  0
 32 31  1  0  0  0  0
 33 30  1  0  0  0  0
 35 34  1  0  0  0  0
 36 39  1  0  0  0  0
 36 38  1  0  0  0  0
 37 35  1  0  0  0  0
 38 35  1  0  0  0  0
 39 37  1  0  0  0  0
 40 41  1  0  0  0  0
 41 44  1  0  0  0  0
 42 43  2  0  0  0  0
 42 45  1  0  0  0  0
 44 42  1  0  0  0  0
 46 47  1  6  0  0  0
 46 51  1  0  0  0  0
 46 44  1  0  0  0  0
 48 54  1  6  0  0  0
 48 52  1  0  0  0  0
 49 48  1  0  0  0  0
 49 51  1  0  0  0  0
 51 53  2  0  0  0  0
 52 50  2  0  0  0  0
 53 50  1  0  0  0  0
M  END
>  <MODEL>
5

>  <REMARK>
 VINA RESULT:      -7.9      1.933      3.674
  Name = 
  11 active torsions:
  status: ('A' for Active; 'I' for Inactive)
    1  A    between atoms: C_5  and  C_8
    2  A    between atoms: C_5  and  N_41
    3  A    between atoms: C_6  and  C_35
    4  A    between atoms: C_6  and  N_43
    5  A    between atoms: C_8  and  N_43
    6  A    between atoms: C_10  and  C_37
    7  A    between atoms: C_13  and  C_37
    8  A    between atoms: C_13  and  C_39
    9  A    between atoms: C_13  and  O_50
   10  A    between atoms: N_23  and  O_50
   11  A    between atoms: C_36  and  C_37
                            x       y       z     vdW  Elec       q    Type
                         _______ _______ _______ _____ _____    ______ ____

>  <TORSDO>
F 11

$$$$
=
 OpenBabel11042417413D

 54 60  0  0  1  0  0  0  0  0999 V2000
  191.3070  172.6390  141.9830 C   0  0  0  0  0  0  0  0  0  0  0  0
  190.7880  173.4040  142.9190 C   0  0  2  0  0  3  0  0  0  0  0  0
  191.0030  172.6980  144.4660 S   0  0  0  0  0  0  0  0  0  0  0  0
  191.4380  173.1760  140.5980 C   0  0  0  0  0  0  0  0  0  0  0  0
  190.9300  170.1890  142.0130 C   0  0  0  0  0  1  0  0  0  0  0  0
  188.5130  176.0950  141.7940 C   0  0  0  0  0  0  0  0  0  0  0  0
  189.2500  174.2600  140.4210 C   0  0  0  0  0  0  0  0  0  0  0  0
  188.1900  174.5730  139.5360 C   0  0  0  0  0  3  0  0  0  0  0  0
  191.8450  171.3050  142.4710 C   0  0  2  0  0  3  0  0  0  0  0  0
  190.0570  174.6200  142.7060 N   0  0  0  0  0  0  0  0  0  0  0  0
  187.5420  176.3660  140.8820 C   0  0  0  0  0  0  0  0  0  0  0  0
  191.7990  173.5780  145.3930 O   0  0  0  0  0  0  0  0  0  0  0  0
  189.3630  174.9940  141.6580 C   0  0  0  0  0  0  0  0  0  0  0  0
  185.6480  177.9650  140.6460 C   0  0  0  0  0  1  0  0  0  0  0  0
  188.3300  177.0070  142.8230 C   0  0  0  0  0  3  0  0  0  0  0  0
  191.8840  171.2910  143.9470 N   0  0  0  0  0  0  0  0  0  0  0  0
  189.6880  172.3070  145.0790 O   0  0  0  0  0  0  0  0  0  0  0  0
  186.8020  177.3880  141.3100 N   0  0  0  0  0  0  0  0  0  0  0  0
  187.3380  175.6090  139.7800 N   0  0  0  0  0  0  0  0  0  0  0  0
  187.2750  177.7890  142.4830 N   0  0  0  0  0  0  0  0  0  0  0  0
  190.1380  173.4090  139.9890 N   0  0  0  0  0  0  0  0  0  0  0  0
  191.8410  171.4290  138.8420 C   0  0  0  0  0  1  0  0  0  0  0  0
  192.4930  172.5550  139.6510 C   0  0  2  0  0  0  0  0  0  0  0  0
  194.2800  170.7120  139.8050 C   0  0  0  0  0  1  0  0  0  0  0  0
  193.7030  171.9830  140.4160 C   0  0  0  0  0  2  0  0  0  0  0  0
  193.0060  173.6530  138.6800 C   0  0  1  0  0  3  0  0  0  0  0  0
  195.9730  176.6920  141.0850 F   0  0  0  0  0  0  0  0  0  0  0  0
  196.9210  175.2850  139.4170 C   0  0  0  0  0  3  0  0  0  0  0  0
  196.7550  174.2980  138.4390 C   0  0  0  0  0  3  0  0  0  0  0  0
  195.8150  175.7380  140.1420 C   0  0  0  0  0  0  0  0  0  0  0  0
  195.4880  173.7680  138.1880 C   0  0  0  0  0  3  0  0  0  0  0  0
  194.3800  174.2200  138.9150 C   0  0  0  0  0  0  0  0  0  0  0  0
  194.5480  175.2050  139.8900 C   0  0  0  0  0  3  0  0  0  0  0  0
  192.6550  173.5150  137.3110 O   0  0  0  0  0  0  0  0  0  0  0  0
  191.9250  174.6060  136.9530 N   0  0  0  0  0  0  0  0  0  0  0  0
  190.6230  173.9910  134.9950 C   0  0  0  0  0  2  0  0  0  0  0  0
  192.5510  175.1650  135.7570 C   0  0  0  0  0  2  0  0  0  0  0  0
  190.6130  174.1310  136.5130 C   0  0  0  0  0  2  0  0  0  0  0  0
  191.9930  174.4380  134.5560 C   0  0  0  0  0  2  0  0  0  0  0  0
  193.2690  171.3240  144.4310 C   0  0  0  0  0  2  0  0  0  0  0  0
  194.3190  171.0510  143.3500 C   0  0  0  0  0  2  0  0  0  0  0  0
  196.2760  170.2540  144.7020 C   0  0  0  0  0  0  0  0  0  0  0  0
  195.7410  169.1230  144.8100 O   0  0  0  0  0  0  0  0  0  0  0  0
  195.6500  171.2710  143.8930 N   0  0  0  0  0  0  0  0  0  0  0  0
  197.5490  170.5040  145.4300 C   0  0  0  0  0  1  0  0  0  0  0  0
  196.2470  172.5830  143.6350 C   0  0  1  0  0  3  0  0  0  0  0  0
  196.5490  172.7600  142.1530 C   0  0  0  0  0  1  0  0  0  0  0  0
  194.4050  175.9460  143.8210 C   0  0  2  0  0  3  0  0  0  0  0  0
  194.4360  174.4680  143.4110 C   0  0  0  0  0  2  0  0  0  0  0  0
  194.9350  175.1950  146.1050 C   0  0  0  0  0  3  0  0  0  0  0  0
  195.4460  173.7090  144.2370 C   0  0  0  0  0  0  0  0  0  0  0  0
  194.3170  176.0790  145.3160 C   0  0  0  0  0  3  0  0  0  0  0  0
  195.6350  174.0390  145.5190 C   0  0  0  0  0  3  0  0  0  0  0  0
  193.3220  176.5740  143.2200 O   0  0  0  0  0  1  0  0  0  0  0  0
  1  9  1  0  0  0  0
  2  1  1  6  0  0  0
  2  3  1  0  0  0  0
  3 17  2  0  0  0  0
  3 12  2  0  0  0  0
  4  1  2  0  0  0  0
  6 15  1  0  0  0  0
  7 13  1  0  0  0  0
  8 19  2  0  0  0  0
  8  7  1  0  0  0  0
  9  5  1  1  0  0  0
  9 16  1  0  0  0  0
 10  2  1  0  0  0  0
 11 18  1  0  0  0  0
 11  6  2  0  0  0  0
 13  6  1  0  0  0  0
 13 10  2  0  0  0  0
 14 18  1  0  0  0  0
 16 40  1  0  0  0  0
 16  3  1  0  0  0  0
 18 20  1  0  0  0  0
 19 11  1  0  0  0  0
 20 15  2  0  0  0  0
 21  7  2  0  0  0  0
 21  4  1  0  0  0  0
 23 22  1  6  0  0  0
 23 25  1  0  0  0  0
 23  4  1  0  0  0  0
 24 25  1  0  0  0  0
 26 34  1  6  0  0  0
 26 32  1  0  0  0  0
 26 23  1  0  0  0  0
 28 30  1  0  0  0  0
 29 28  2  0  0  0  0
 30 27  1  0  0  0  0
 31 29  1  0  0  0  0
 31 32  2  0  0  0  0
 32 33  1  0  0  0  0
 33 30  2  0  0  0  0
 35 34  1  0  0  0  0
 36 38  1  0  0  0  0
 37 35  1  0  0  0  0
 38 35  1  0  0  0  0
 39 36  1  0  0  0  0
 39 37  1  0  0  0  0
 41 44  1  0  0  0  0
 41 40  1  0  0  0  0
 42 43  2  0  0  0  0
 42 45  1  0  0  0  0
 44 42  1  0  0  0  0
 46 47  1  6  0  0  0
 46 44  1  0  0  0  0
 46 51  1  0  0  0  0
 48 54  1  6  0  0  0
 48 52  1  0  0  0  0
 49 48  1  0  0  0  0
 49 51  1  0  0  0  0
 51 53  2  0  0  0  0
 52 50  2  0  0  0  0
 53 50  1  0  0  0  0
M  END
>  <MODEL>
6

>  <REMARK>
 VINA RESULT:      -7.6      3.116      7.431
  Name = 
  11 active torsions:
  status: ('A' for Active; 'I' for Inactive)
    1  A    between atoms: C_5  and  C_8
    2  A    between atoms: C_5  and  N_41
    3  A    between atoms: C_6  and  C_35
    4  A    between atoms: C_6  and  N_43
    5  A    between atoms: C_8  and  N_43
    6  A    between atoms: C_10  and  C_37
    7  A    between atoms: C_13  and  C_37
    8  A    between atoms: C_13  and  C_39
    9  A    between atoms: C_13  and  O_50
   10  A    between atoms: N_23  and  O_50
   11  A    between atoms: C_36  and  C_37
                            x       y       z     vdW  Elec       q    Type
                         _______ _______ _______ _____ _____    ______ ____

>  <TORSDO>
F 11

$$$$
=
 OpenBabel11042417413D

 54 60  0  0  1  0  0  0  0  0999 V2000
  191.9560  172.6820  142.3480 C   0  0  0  0  0  0  0  0  0  0  0  0
  191.0460  173.1920  141.5470 C   0  0  0  0  0  0  0  0  0  0  0  0
  189.7280  173.8180  142.4480 S   0  0  0  0  0  0  0  0  0  0  0  0
  193.2830  172.2990  141.7870 C   0  0  2  0  0  3  0  0  0  0  0  0
  191.2860  171.2420  144.2520 C   0  0  0  0  0  1  0  0  0  0  0  0
  191.3180  172.3300  137.9600 C   0  0  0  0  0  0  0  0  0  0  0  0
  192.5100  171.2170  139.7320 C   0  0  0  0  0  0  0  0  0  0  0  0
  192.7660  170.1650  138.8200 C   0  0  0  0  0  3  0  0  0  0  0  0
  191.5760  172.6630  143.8190 C   0  0  2  0  0  3  0  0  0  0  0  0
  191.0730  173.1650  140.1130 N   0  0  0  0  0  0  0  0  0  0  0  0
  191.6350  171.3040  137.1260 C   0  0  0  0  0  0  0  0  0  0  0  0
  189.5210  175.2910  142.2130 O   0  0  0  0  0  0  0  0  0  0  0  0
  191.6650  172.3100  139.3130 C   0  0  0  0  0  0  0  0  0  0  0  0
  191.1570  170.6450  134.7730 C   0  0  0  0  0  1  0  0  0  0  0  0
  190.5300  173.1930  137.2150 C   0  0  0  0  0  3  0  0  0  0  0  0
  190.3560  173.4670  144.0310 N   0  0  0  0  0  0  0  0  0  0  0  0
  188.4680  173.0410  142.1900 O   0  0  0  0  0  0  0  0  0  0  0  0
  191.0850  171.5170  135.9310 N   0  0  0  0  0  0  0  0  0  0  0  0
  192.3150  170.2090  137.5340 N   0  0  0  0  0  0  0  0  0  0  0  0
  190.4180  172.6630  135.9710 N   0  0  0  0  0  0  0  0  0  0  0  0
  193.1700  171.1880  140.8550 N   0  0  0  0  0  0  0  0  0  0  0  0
  195.5170  171.2230  142.1750 C   0  0  0  0  0  1  0  0  0  0  0  0
  194.5040  172.2250  142.7360 C   0  0  2  0  0  0  0  0  0  0  0  0
  195.1310  170.8830  144.8380 C   0  0  0  0  0  1  0  0  0  0  0  0
  194.1120  171.7910  144.1630 C   0  0  0  0  0  2  0  0  0  0  0  0
  195.1630  173.6290  142.8180 C   0  0  1  0  0  3  0  0  0  0  0  0
  194.6730  175.6660  138.4100 F   0  0  0  0  0  0  0  0  0  0  0  0
  196.8730  175.2910  139.2330 C   0  0  0  0  0  3  0  0  0  0  0  0
  197.7140  174.8190  140.2470 C   0  0  0  0  0  3  0  0  0  0  0  0
  195.4860  175.2130  139.3890 C   0  0  0  0  0  0  0  0  0  0  0  0
  197.1680  174.2720  141.4100 C   0  0  0  0  0  3  0  0  0  0  0  0
  195.7790  174.1950  141.5670 C   0  0  0  0  0  0  0  0  0  0  0  0
  194.9420  174.6660  140.5540 C   0  0  0  0  0  3  0  0  0  0  0  0
  194.5260  174.5900  143.6450 O   0  0  0  0  0  0  0  0  0  0  0  0
  195.4920  175.2540  144.3360 N   0  0  0  0  0  0  0  0  0  0  0  0
  194.5640  175.8180  146.5110 C   0  0  0  0  0  2  0  0  0  0  0  0
  195.1120  176.6650  144.3530 C   0  0  0  0  0  2  0  0  0  0  0  0
  195.4110  174.8200  145.7320 C   0  0  0  0  0  2  0  0  0  0  0  0
  194.1750  176.8820  145.5170 C   0  0  0  0  0  2  0  0  0  0  0  0
  190.6660  174.7000  144.7640 C   0  0  0  0  0  2  0  0  0  0  0  0
  189.6670  175.0410  145.8740 C   0  0  0  0  0  2  0  0  0  0  0  0
  190.9080  176.3110  147.6460 C   0  0  0  0  0  0  0  0  0  0  0  0
  191.4690  175.2500  148.0130 O   0  0  0  0  0  0  0  0  0  0  0  0
  190.0360  176.3020  146.4960 N   0  0  0  0  0  0  0  0  0  0  0  0
  191.1630  177.5510  148.4270 C   0  0  0  0  0  1  0  0  0  0  0  0
  189.4130  177.5060  145.9410 C   0  0  1  0  0  3  0  0  0  0  0  0
  190.0920  177.9160  144.6410 C   0  0  0  0  0  1  0  0  0  0  0  0
  185.8610  178.1800  144.6530 C   0  0  2  0  0  3  0  0  0  0  0  0
  187.2190  177.4820  144.5040 C   0  0  0  0  0  2  0  0  0  0  0  0
  185.7220  177.1640  146.8910 C   0  0  0  0  0  3  0  0  0  0  0  0
  187.9150  177.3850  145.8400 C   0  0  0  0  0  0  0  0  0  0  0  0
  185.0840  177.5900  145.7970 C   0  0  0  0  0  3  0  0  0  0  0  0
  187.1930  177.1900  146.9500 C   0  0  0  0  0  3  0  0  0  0  0  0
  185.1410  178.0570  143.4710 O   0  0  0  0  0  1  0  0  0  0  0  0
  1  9  1  0  0  0  0
  2  1  2  0  0  0  0
  2  3  1  0  0  0  0
  3 16  1  0  0  0  0
  4  1  1  0  0  0  0
  4 23  1  1  0  0  0
  6 13  1  0  0  0  0
  7 21  2  0  0  0  0
  8  7  1  0  0  0  0
  9 16  1  0  0  0  0
  9  5  1  6  0  0  0
 10  2  1  0  0  0  0
 11 19  1  0  0  0  0
 11  6  2  0  0  0  0
 12  3  2  0  0  0  0
 13  7  1  0  0  0  0
 13 10  2  0  0  0  0
 14 18  1  0  0  0  0
 15  6  1  0  0  0  0
 16 40  1  0  0  0  0
 17  3  2  0  0  0  0
 18 20  1  0  0  0  0
 18 11  1  0  0  0  0
 19  8  2  0  0  0  0
 20 15  2  0  0  0  0
 21  4  1  0  0  0  0
 23 22  1  6  0  0  0
 23 26  1  0  0  0  0
 23 25  1  0  0  0  0
 25 24  1  0  0  0  0
 26 34  1  6  0  0  0
 27 30  1  0  0  0  0
 28 30  2  0  0  0  0
 28 29  1  0  0  0  0
 29 31  2  0  0  0  0
 30 33  1  0  0  0  0
 31 32  1  0  0  0  0
 32 26  1  0  0  0  0
 33 32  2  0  0  0  0
 34 35  1  0  0  0  0
 35 37  1  0  0  0  0
 35 38  1  0  0  0  0
 37 39  1  0  0  0  0
 38 36  1  0  0  0  0
 39 36  1  0  0  0  0
 40 41  1  0  0  0  0
 41 44  1  0  0  0  0
 42 43  2  0  0  0  0
 42 45  1  0  0  0  0
 44 42  1  0  0  0  0
 46 47  1  6  0  0  0
 46 44  1  0  0  0  0
 48 54  1  6  0  0  0
 48 52  1  0  0  0  0
 49 48  1  0  0  0  0
 49 51  1  0  0  0  0
 50 53  1  0  0  0  0
 51 46  1  0  0  0  0
 51 53  2  0  0  0  0
 52 50  2  0  0  0  0
M  END
>  <MODEL>
7

>  <REMARK>
 VINA RESULT:      -7.6      2.052      4.220
  Name = 
  11 active torsions:
  status: ('A' for Active; 'I' for Inactive)
    1  A    between atoms: C_5  and  C_8
    2  A    between atoms: C_5  and  N_41
    3  A    between atoms: C_6  and  C_35
    4  A    between atoms: C_6  and  N_43
    5  A    between atoms: C_8  and  N_43
    6  A    between atoms: C_10  and  C_37
    7  A    between atoms: C_13  and  C_37
    8  A    between atoms: C_13  and  C_39
    9  A    between atoms: C_13  and  O_50
   10  A    between atoms: N_23  and  O_50
   11  A    between atoms: C_36  and  C_37
                            x       y       z     vdW  Elec       q    Type
                         _______ _______ _______ _____ _____    ______ ____

>  <TORSDO>
F 11

$$$$
=
 OpenBabel11042417413D

 54 60  0  0  1  0  0  0  0  0999 V2000
  190.7710  173.3830  141.8230 C   0  0  0  0  0  0  0  0  0  0  0  0
  190.2730  173.5060  140.6110 C   0  0  0  0  0  0  0  0  0  0  0  0
  188.5830  173.7840  140.6750 S   0  0  0  0  0  0  0  0  0  0  0  0
  192.2500  173.3720  142.0010 C   0  0  2  0  0  3  0  0  0  0  0  0
  189.6050  172.0050  143.5230 C   0  0  0  0  0  1  0  0  0  0  0  0
  192.4300  172.4150  137.8110 C   0  0  0  0  0  0  0  0  0  0  0  0
  192.8310  171.9050  140.1300 C   0  0  0  0  0  0  0  0  0  0  0  0
  193.7250  170.8970  139.6940 C   0  0  0  0  0  3  0  0  0  0  0  0
  189.7420  173.3960  142.9410 C   0  0  2  0  0  3  0  0  0  0  0  0
  190.9960  173.3450  139.3820 N   0  0  0  0  0  0  0  0  0  0  0  0
  193.3310  171.4580  137.4620 C   0  0  0  0  0  0  0  0  0  0  0  0
  188.1920  175.0900  140.0380 O   0  0  0  0  0  0  0  0  0  0  0  0
  192.0750  172.6380  139.1440 C   0  0  0  0  0  0  0  0  0  0  0  0
  194.2120  170.4530  135.3620 C   0  0  0  0  0  1  0  0  0  0  0  0
  191.9300  172.9150  136.6190 C   0  0  0  0  0  3  0  0  0  0  0  0
  188.4270  173.8030  142.4070 N   0  0  0  0  0  0  0  0  0  0  0  0
  187.8150  172.6360  140.0840 O   0  0  0  0  0  0  0  0  0  0  0  0
  193.3960  171.3710  136.1340 N   0  0  0  0  0  0  0  0  0  0  0  0
  193.9550  170.6710  138.3690 N   0  0  0  0  0  0  0  0  0  0  0  0
  192.5560  172.2550  135.6120 N   0  0  0  0  0  0  0  0  0  0  0  0
  192.8540  172.1930  141.4010 N   0  0  0  0  0  0  0  0  0  0  0  0
  193.2640  172.5060  144.1280 C   0  0  0  0  0  1  0  0  0  0  0  0
  192.8420  173.7710  143.3750 C   0  0  2  0  0  0  0  0  0  0  0  0
  191.8520  174.1700  145.7150 C   0  0  0  0  0  1  0  0  0  0  0  0
  191.8350  174.5550  144.2410 C   0  0  0  0  0  2  0  0  0  0  0  0
  194.0880  174.6700  143.1450 C   0  0  1  0  0  3  0  0  0  0  0  0
  194.7630  175.6720  138.4160 F   0  0  0  0  0  0  0  0  0  0  0  0
  196.3020  174.2040  139.4820 C   0  0  0  0  0  3  0  0  0  0  0  0
  196.7180  173.5270  140.6330 C   0  0  0  0  0  3  0  0  0  0  0  0
  195.1680  175.0200  139.5270 C   0  0  0  0  0  0  0  0  0  0  0  0
  196.0020  173.6660  141.8240 C   0  0  0  0  0  3  0  0  0  0  0  0
  194.8670  174.4850  141.8710 C   0  0  0  0  0  0  0  0  0  0  0  0
  194.4540  175.1590  140.7210 C   0  0  0  0  0  3  0  0  0  0  0  0
  194.0010  176.0150  143.5890 O   0  0  0  0  0  0  0  0  0  0  0  0
  195.1560  176.3170  144.2420 N   0  0  0  0  0  0  0  0  0  0  0  0
  194.9410  175.4770  146.5130 C   0  0  0  0  0  2  0  0  0  0  0  0
  194.8590  177.4260  145.1450 C   0  0  0  0  0  2  0  0  0  0  0  0
  195.4750  175.1860  145.1150 C   0  0  0  0  0  2  0  0  0  0  0  0
  194.3210  176.8470  146.4320 C   0  0  0  0  0  2  0  0  0  0  0  0
  188.0600  175.1390  142.8920 C   0  0  0  0  0  2  0  0  0  0  0  0
  189.2540  176.0300  143.2460 C   0  0  0  0  0  2  0  0  0  0  0  0
  190.0430  177.5020  145.1180 C   0  0  0  0  0  0  0  0  0  0  0  0
  190.8930  178.0190  144.3530 O   0  0  0  0  0  0  0  0  0  0  0  0
  189.1040  176.5360  144.6010 N   0  0  0  0  0  0  0  0  0  0  0  0
  190.0420  177.9080  146.5490 C   0  0  0  0  0  1  0  0  0  0  0  0
  188.0210  175.9520  145.3950 C   0  0  1  0  0  3  0  0  0  0  0  0
  188.5680  175.2810  146.6470 C   0  0  0  0  0  1  0  0  0  0  0  0
  185.4720  178.7330  144.6810 C   0  0  2  0  0  3  0  0  0  0  0  0
  185.8930  177.2600  144.5920 C   0  0  0  0  0  2  0  0  0  0  0  0
  185.8000  178.5510  147.1140 C   0  0  0  0  0  3  0  0  0  0  0  0
  186.9080  176.9330  145.6610 C   0  0  0  0  0  0  0  0  0  0  0  0
  185.1290  179.1010  146.0980 C   0  0  0  0  0  3  0  0  0  0  0  0
  186.8190  177.5200  146.8590 C   0  0  0  0  0  3  0  0  0  0  0  0
  184.3820  178.9570  143.8500 O   0  0  0  0  0  1  0  0  0  0  0  0
  1  4  1  0  0  0  0
  1  9  1  0  0  0  0
  2  3  1  0  0  0  0
  2  1  2  0  0  0  0
  3 16  1  0  0  0  0
  4 23  1  1  0  0  0
  6 13  1  0  0  0  0
  7 21  2  0  0  0  0
  8  7  1  0  0  0  0
  9  5  1  6  0  0  0
 10  2  1  0  0  0  0
 11  6  2  0  0  0  0
 11 19  1  0  0  0  0
 12  3  2  0  0  0  0
 13 10  2  0  0  0  0
 13  7  1  0  0  0  0
 14 18  1  0  0  0  0
 15  6  1  0  0  0  0
 16 40  1  0  0  0  0
 16  9  1  0  0  0  0
 17  3  2  0  0  0  0
 18 11  1  0  0  0  0
 19  8  2  0  0  0  0
 20 18  1  0  0  0  0
 20 15  2  0  0  0  0
 21  4  1  0  0  0  0
 23 22  1  1  0  0  0
 23 25  1  0  0  0  0
 25 24  1  0  0  0  0
 26 23  1  0  0  0  0
 26 34  1  6  0  0  0
 27 30  1  0  0  0  0
 28 30  2  0  0  0  0
 28 29  1  0  0  0  0
 29 31  2  0  0  0  0
 30 33  1  0  0  0  0
 31 32  1  0  0  0  0
 32 26  1  0  0  0  0
 33 32  2  0  0  0  0
 34 35  1  0  0  0  0
 35 38  1  0  0  0  0
 35 37  1  0  0  0  0
 37 39  1  0  0  0  0
 38 36  1  0  0  0  0
 39 36  1  0  0  0  0
 40 41  1  0  0  0  0
 41 44  1  0  0  0  0
 42 45  1  0  0  0  0
 43 42  2  0  0  0  0
 44 42  1  0  0  0  0
 44 46  1  0  0  0  0
 46 51  1  0  0  0  0
 46 47  1  1  0  0  0
 48 54  1  6  0  0  0
 48 52  1  0  0  0  0
 49 48  1  0  0  0  0
 49 51  1  0  0  0  0
 51 53  2  0  0  0  0
 52 50  2  0  0  0  0
 53 50  1  0  0  0  0
M  END
>  <MODEL>
8

>  <REMARK>
 VINA RESULT:      -7.4      2.084      3.675
  Name = 
  11 active torsions:
  status: ('A' for Active; 'I' for Inactive)
    1  A    between atoms: C_5  and  C_8
    2  A    between atoms: C_5  and  N_41
    3  A    between atoms: C_6  and  C_35
    4  A    between atoms: C_6  and  N_43
    5  A    between atoms: C_8  and  N_43
    6  A    between atoms: C_10  and  C_37
    7  A    between atoms: C_13  and  C_37
    8  A    between atoms: C_13  and  C_39
    9  A    between atoms: C_13  and  O_50
   10  A    between atoms: N_23  and  O_50
   11  A    between atoms: C_36  and  C_37
                            x       y       z     vdW  Elec       q    Type
                         _______ _______ _______ _____ _____    ______ ____

>  <TORSDO>
F 11

$$$$
=
 OpenBabel11042417413D

 54 60  0  0  1  0  0  0  0  0999 V2000
  193.0280  174.1820  140.9410 C   0  0  0  0  0  0  0  0  0  0  0  0
  191.7960  173.8560  140.6170 C   0  0  0  0  0  0  0  0  0  0  0  0
  191.7570  173.0650  139.0970 S   0  0  0  0  0  0  0  0  0  0  0  0
  193.3110  174.6640  142.3230 C   0  0  2  0  0  3  0  0  0  0  0  0
  194.5380  175.2010  139.2590 C   0  0  0  0  0  1  0  0  0  0  0  0
  189.0870  175.4420  142.5760 C   0  0  0  0  0  0  0  0  0  0  0  0
  191.3880  176.1550  142.5890 C   0  0  0  0  0  0  0  0  0  0  0  0
  190.9460  177.3710  143.1640 C   0  0  0  0  0  3  0  0  0  0  0  0
  194.0680  173.8980  139.8700 C   0  0  2  0  0  3  0  0  0  0  0  0
  190.6130  174.1800  141.3630 N   0  0  0  0  0  0  0  0  0  0  0  0
  188.7380  176.6160  143.1660 C   0  0  0  0  0  0  0  0  0  0  0  0
  191.1870  171.6750  139.1870 O   0  0  0  0  0  0  0  0  0  0  0  0
  190.4030  175.1780  142.1880 C   0  0  0  0  0  0  0  0  0  0  0  0
  186.6400  177.7510  143.8790 C   0  0  0  0  0  1  0  0  0  0  0  0
  187.9010  174.7570  142.3650 C   0  0  0  0  0  3  0  0  0  0  0  0
  193.4710  173.0760  138.7990 N   0  0  0  0  0  0  0  0  0  0  0  0
  191.0320  173.8870  138.0680 O   0  0  0  0  0  0  0  0  0  0  0  0
  187.4150  176.6590  143.3200 N   0  0  0  0  0  0  0  0  0  0  0  0
  189.6290  177.5980  143.4310 N   0  0  0  0  0  0  0  0  0  0  0  0
  186.8970  175.5340  142.8440 N   0  0  0  0  0  0  0  0  0  0  0  0
  192.6740  175.9450  142.5850 N   0  0  0  0  0  0  0  0  0  0  0  0
  195.4310  175.9020  142.8430 C   0  0  0  0  0  1  0  0  0  0  0  0
  194.7490  174.5320  142.8820 C   0  0  2  0  0  0  0  0  0  0  0  0
  197.1000  173.6750  142.2940 C   0  0  0  0  0  1  0  0  0  0  0  0
  195.6000  173.5270  142.0790 C   0  0  0  0  0  2  0  0  0  0  0  0
  194.6730  174.0390  144.3530 C   0  0  1  0  0  3  0  0  0  0  0  0
  190.6670  174.9240  146.9970 F   0  0  0  0  0  0  0  0  0  0  0  0
  192.5070  176.4160  147.2170 C   0  0  0  0  0  3  0  0  0  0  0  0
  193.8050  176.7860  146.8500 C   0  0  0  0  0  3  0  0  0  0  0  0
  191.9210  175.2820  146.6460 C   0  0  0  0  0  0  0  0  0  0  0  0
  194.5130  176.0250  145.9170 C   0  0  0  0  0  3  0  0  0  0  0  0
  193.9270  174.8890  145.3460 C   0  0  0  0  0  0  0  0  0  0  0  0
  192.6320  174.5220  145.7130 C   0  0  0  0  0  3  0  0  0  0  0  0
  194.5330  172.6420  144.5560 O   0  0  0  0  0  0  0  0  0  0  0  0
  195.0820  172.3350  145.7620 N   0  0  0  0  0  0  0  0  0  0  0  0
  197.1840  171.1940  145.3290 C   0  0  0  0  0  2  0  0  0  0  0  0
  194.9060  170.8990  145.9600 C   0  0  0  0  0  2  0  0  0  0  0  0
  196.5280  172.5320  145.6490 C   0  0  0  0  0  2  0  0  0  0  0  0
  196.0610  170.1910  145.2920 C   0  0  0  0  0  2  0  0  0  0  0  0
  194.0210  171.7150  138.8190 C   0  0  0  0  0  2  0  0  0  0  0  0
  194.3630  171.1550  137.4360 C   0  0  0  0  0  2  0  0  0  0  0  0
  196.1080  169.5580  138.2700 C   0  0  0  0  0  0  0  0  0  0  0  0
  195.2250  168.9160  138.8900 O   0  0  0  0  0  0  0  0  0  0  0  0
  195.7330  170.6680  137.4290 N   0  0  0  0  0  0  0  0  0  0  0  0
  197.5280  169.1450  138.4380 C   0  0  0  0  0  1  0  0  0  0  0  0
  196.6820  171.4130  136.5990 C   0  0  1  0  0  3  0  0  0  0  0  0
  196.2520  171.4000  135.1380 C   0  0  0  0  0  1  0  0  0  0  0  0
  197.6180  175.1360  136.5680 C   0  0  2  0  0  3  0  0  0  0  0  0
  196.5810  174.0240  136.3640 C   0  0  0  0  0  2  0  0  0  0  0  0
  197.9410  174.2470  138.8410 C   0  0  0  0  0  3  0  0  0  0  0  0
  196.9660  172.7900  137.1420 C   0  0  0  0  0  0  0  0  0  0  0  0
  197.9290  175.3080  138.0280 C   0  0  0  0  0  3  0  0  0  0  0  0
  197.5670  172.9170  138.3300 C   0  0  0  0  0  3  0  0  0  0  0  0
  197.1360  176.3260  136.0370 O   0  0  0  0  0  1  0  0  0  0  0  0
  1  4  1  0  0  0  0
  2  1  2  0  0  0  0
  2 10  1  0  0  0  0
  3 12  2  0  0  0  0
  3  2  1  0  0  0  0
  4 21  1  0  0  0  0
  4 23  1  6  0  0  0
  6 11  2  0  0  0  0
  7  8  1  0  0  0  0
  8 19  2  0  0  0  0
  9  5  1  6  0  0  0
  9  1  1  0  0  0  0
 10 13  2  0  0  0  0
 11 18  1  0  0  0  0
 11 19  1  0  0  0  0
 13  6  1  0  0  0  0
 13  7  1  0  0  0  0
 15  6  1  0  0  0  0
 15 20  2  0  0  0  0
 16 40  1  0  0  0  0
 16  3  1  0  0  0  0
 16  9  1  0  0  0  0
 17  3  2  0  0  0  0
 18 14  1  0  0  0  0
 20 18  1  0  0  0  0
 21  7  2  0  0  0  0
 23 22  1  6  0  0  0
 23 26  1  0  0  0  0
 25 24  1  0  0  0  0
 25 23  1  0  0  0  0
 26 34  1  6  0  0  0
 26 32  1  0  0  0  0
 29 28  1  0  0  0  0
 30 27  1  0  0  0  0
 30 28  2  0  0  0  0
 31 29  2  0  0  0  0
 32 33  2  0  0  0  0
 32 31  1  0  0  0  0
 33 30  1  0  0  0  0
 34 35  1  0  0  0  0
 35 37  1  0  0  0  0
 36 38  1  0  0  0  0
 38 35  1  0  0  0  0
 39 36  1  0  0  0  0
 39 37  1  0  0  0  0
 41 40  1  0  0  0  0
 42 45  1  0  0  0  0
 42 43  2  0  0  0  0
 44 41  1  0  0  0  0
 44 42  1  0  0  0  0
 46 47  1  6  0  0  0
 46 51  1  0  0  0  0
 46 44  1  0  0  0  0
 48 54  1  1  0  0  0
 48 52  1  0  0  0  0
 49 48  1  0  0  0  0
 49 51  1  0  0  0  0
 51 53  2  0  0  0  0
 52 50  2  0  0  0  0
 53 50  1  0  0  0  0
M  END
>  <MODEL>
9

>  <REMARK>
 VINA RESULT:      -7.4      2.973      8.637
  Name = 
  11 active torsions:
  status: ('A' for Active; 'I' for Inactive)
    1  A    between atoms: C_5  and  C_8
    2  A    between atoms: C_5  and  N_41
    3  A    between atoms: C_6  and  C_35
    4  A    between atoms: C_6  and  N_43
    5  A    between atoms: C_8  and  N_43
    6  A    between atoms: C_10  and  C_37
    7  A    between atoms: C_13  and  C_37
    8  A    between atoms: C_13  and  C_39
    9  A    between atoms: C_13  and  O_50
   10  A    between atoms: N_23  and  O_50
   11  A    between atoms: C_36  and  C_37
                            x       y       z     vdW  Elec       q    Type
                         _______ _______ _______ _____ _____    ______ ____

>  <TORSDO>
F 11

$$$$
