=
 OpenBabel11042419393D

 70 79  0  0  1  0  0  0  0  0999 V2000
  196.5910  173.8750  138.6780 C   0  0  2  0  0  3  0  0  0  0  0  0
  196.2510  174.3550  137.2840 C   0  0  0  0  0  2  0  0  0  0  0  0
  196.7480  173.2700  136.3740 C   0  0  1  0  0  3  0  0  0  0  0  0
  196.1940  171.6920  137.0820 S   0  0  0  0  0  0  0  0  0  0  0  0
  196.1750  172.4120  138.7590 C   0  0  1  0  0  3  0  0  0  0  0  0
  195.8980  174.7050  139.7580 C   0  0  0  0  0  2  0  0  0  0  0  0
  196.8960  175.5750  140.5080 C   0  0  1  0  0  3  0  0  0  0  0  0
  197.8010  176.1330  139.6170 F   0  0  0  0  0  0  0  0  0  0  0  0
  196.1630  176.6740  141.2660 C   0  0  0  0  0  2  0  0  0  0  0  0
  195.9700  176.3040  142.6300 O   0  0  0  0  0  0  0  0  0  0  0  0
  194.7080  176.1570  143.2120 C   0  0  0  0  0  0  0  0  0  0  0  0
  194.5920  175.7370  144.3950 O   0  0  0  0  0  0  0  0  0  0  0  0
  192.6270  177.2390  144.6110 O   0  0  0  0  0  1  0  0  0  0  0  0
  192.6330  174.2520  142.3530 O   0  0  0  0  0  0  0  0  0  0  0  0
  191.2050  175.9980  143.1480 C   0  0  2  0  0  3  0  0  0  0  0  0
  192.2960  177.0390  143.2710 C   0  0  2  0  0  3  0  0  0  0  0  0
  193.4720  176.5260  142.4400 C   0  0  2  0  0  3  0  0  0  0  0  0
  191.5660  175.0880  141.9790 C   0  0  1  0  0  3  0  0  0  0  0  0
  192.9640  175.3770  141.5700 C   0  0  2  0  0  3  0  0  0  0  0  0
  188.2850  175.6540  141.1630 C   0  0  0  0  0  2  0  0  0  0  0  0
  188.4920  178.4740  141.7410 C   0  0  0  0  0  2  0  0  0  0  0  0
  187.3390  177.7180  142.4090 C   0  0  2  0  0  3  0  0  0  0  0  0
  188.7730  175.5880  142.6060 C   0  0  1  0  0  3  0  0  0  0  0  0
  189.8750  177.8840  142.0420 C   0  0  0  0  0  2  0  0  0  0  0  0
  189.8320  176.6540  142.9700 C   0  0  2  0  0  3  0  0  0  0  0  0
  187.3980  176.1740  142.2860 C   0  0  2  0  0  3  0  0  0  0  0  0
  185.5390  177.4110  140.8650 O   0  0  0  0  0  1  0  0  0  0  0  0
  186.0200  178.2460  141.8760 C   0  0  0  0  0  2  0  0  0  0  0  0
  196.2470  173.4800  134.9530 C   0  0  0  0  0  2  0  0  0  0  0  0
  195.0030  174.3650  134.9180 C   0  0  0  0  0  2  0  0  0  0  0  0
  192.4150  174.7150  136.6270 C   0  0  1  0  0  3  0  0  0  0  0  0
  190.8980  174.4470  136.4450 C   0  0  1  0  0  3  0  0  0  0  0  0
  192.9430  174.0700  137.7510 O   0  0  0  0  0  1  0  0  0  0  0  0
  193.7620  173.5710  134.5160 C   0  0  2  0  0  3  0  0  0  0  0  0
  191.1420  173.5610  135.2080 C   0  0  0  0  0  2  0  0  0  0  0  0
  192.5930  173.8990  135.3690 C   0  0  2  0  0  0  0  0  0  0  0  0
  193.3610  172.7310  135.5730 O   0  0  0  0  0  0  0  0  0  0  0  0
  190.1930  173.7550  137.6270 C   0  0  1  0  0  3  0  0  0  0  0  0
  188.7120  173.9540  137.5930 C   0  0  0  0  0  0  0  0  0  0  0  0
  187.8600  173.0890  138.2760 O   0  0  0  0  0  1  0  0  0  0  0  0
  188.2320  174.9280  136.9620 O   0  0  0  0  0  0  0  0  0  0  0  0
  190.4050  172.0840  139.7880 C   0  0  0  0  0  1  0  0  0  0  0  0
  190.6800  172.0130  137.9930 S   0  0  0  0  0  0  0  0  0  0  0  0
  197.1540  171.6560  139.6410 C   0  0  0  0  0  2  0  0  0  0  0  0
  197.3490  172.3740  140.8890 N   0  0  0  0  0  2  0  0  0  0  0  0
  192.8090  173.4470  145.8020 S   0  0  0  0  0  0  0  0  0  0  0  0
  192.8950  171.3470  142.7970 N   0  0  0  0  0  2  0  0  0  0  0  0
  191.1740  172.9210  145.2600 C   0  0  2  0  0  3  0  0  0  0  0  0
  191.1650  171.9820  144.3770 N   0  0  0  0  0  2  0  0  0  0  0  0
  193.4730  171.9350  145.0220 C   0  0  1  0  0  3  0  0  0  0  0  0
  196.8100  172.7060  143.2830 C   0  0  0  0  0  3  0  0  0  0  0  0
  192.4310  171.4620  144.1150 N   0  0  2  0  0  0  0  0  0  0  0  0
  195.8970  172.6430  144.3520 C   0  0  0  0  0  3  0  0  0  0  0  0
  195.1190  171.8470  141.7470 C   0  0  0  0  0  3  0  0  0  0  0  0
  194.6070  172.1900  144.0860 C   0  0  0  0  0  0  0  0  0  0  0  0
  194.2390  171.7890  142.8240 C   0  0  0  0  0  0  0  0  0  0  0  0
  196.4260  172.3070  141.9820 C   0  0  0  0  0  0  0  0  0  0  0  0
  189.8970  173.5860  145.6790 C   0  0  0  0  0  2  0  0  0  0  0  0
  190.0420  175.0370  146.1630 C   0  0  2  0  0  3  0  0  0  0  0  0
  192.1660  175.8100  147.2560 O   0  0  0  0  0  0  0  0  0  0  0  0
  190.9450  175.1540  147.3520 C   0  0  0  0  0  0  0  0  0  0  0  0
  190.6090  174.6220  148.4410 O   0  0  0  0  0  1  0  0  0  0  0  0
  188.7200  175.7830  146.3510 C   0  0  0  0  0  2  0  0  0  0  0  0
  189.7040  177.8420  147.3100 C   0  0  0  0  0  1  0  0  0  0  0  0
  188.8990  177.2810  146.1540 C   0  0  2  0  0  3  0  0  0  0  0  0
  186.4510  177.2480  146.2240 C   0  0  0  0  0  3  0  0  0  0  0  0
  187.5690  177.9520  146.0890 C   0  0  0  0  0  3  0  0  0  0  0  0
  184.5780  178.3450  147.1870 O   0  0  0  0  0  0  0  0  0  0  0  0
  184.4400  177.9730  144.8460 C   0  0  0  0  0  1  0  0  0  0  0  0
  185.1290  177.8750  146.1550 C   0  0  0  0  0  0  0  0  0  0  0  0
  1  5  1  0  0  0  0
  1  6  1  1  0  0  0
  2  1  1  0  0  0  0
  3 29  1  6  0  0  0
  3  4  1  0  0  0  0
  3  2  1  0  0  0  0
  4  5  1  0  0  0  0
  5 44  1  1  0  0  0
  6  7  1  0  0  0  0
  7  8  1  6  0  0  0
  7  9  1  0  0  0  0
  9 10  1  0  0  0  0
 10 11  1  0  0  0  0
 11 12  2  0  0  0  0
 15 25  1  6  0  0  0
 15 16  1  0  0  0  0
 16 13  1  1  0  0  0
 17 11  1  1  0  0  0
 17 16  1  0  0  0  0
 18 14  1  1  0  0  0
 18 15  1  0  0  0  0
 19 18  1  0  0  0  0
 19 14  1  1  0  0  0
 19 17  1  0  0  0  0
 21 24  1  0  0  0  0
 21 22  1  0  0  0  0
 22 28  1  6  0  0  0
 23 20  1  6  0  0  0
 23 25  1  0  0  0  0
 25 24  1  6  0  0  0
 26 20  1  6  0  0  0
 26 22  1  0  0  0  0
 26 23  1  0  0  0  0
 27 28  1  0  0  0  0
 30 29  1  0  0  0  0
 31 33  1  1  0  0  0
 32 31  1  0  0  0  0
 32 38  1  1  0  0  0
 34 30  1  1  0  0  0
 34 36  1  0  0  0  0
 34 37  1  0  0  0  0
 35 32  1  0  0  0  0
 36 35  1  6  0  0  0
 36 37  1  0  0  0  0
 36 31  1  0  0  0  0
 38 39  1  6  0  0  0
 38 43  1  0  0  0  0
 39 40  1  0  0  0  0
 41 39  2  0  0  0  0
 43 42  1  0  0  0  0
 44 45  1  0  0  0  0
 45 57  1  0  0  0  0
 47 56  1  0  0  0  0
 48 58  1  6  0  0  0
 48 46  1  0  0  0  0
 49 48  1  0  0  0  0
 50 55  1  6  0  0  0
 50 46  1  0  0  0  0
 51 53  1  0  0  0  0
 52 47  1  6  0  0  0
 52 49  1  0  0  0  0
 52 50  1  0  0  0  0
 54 57  1  0  0  0  0
 54 56  2  0  0  0  0
 55 53  2  0  0  0  0
 56 55  1  0  0  0  0
 57 51  2  0  0  0  0
 59 58  1  1  0  0  0
 59 63  1  0  0  0  0
 59 61  1  0  0  0  0
 60 61  2  0  0  0  0
 61 62  1  0  0  0  0
 65 63  1  0  0  0  0
 65 64  1  1  0  0  0
 67 65  1  0  0  0  0
 67 66  2  0  0  0  0
 69 70  1  0  0  0  0
 70 66  1  0  0  0  0
 70 68  2  0  0  0  0
M  END
>  <MODEL>
1

>  <REMARK>
 VINA RESULT:      -5.4      0.000      0.000
  Name = 
  24 active torsions:
  status: ('A' for Active; 'I' for Inactive)
    1  A    between atoms: C_1  and  C_25
    2  A    between atoms: C_1  and  C_34
    3  A    between atoms: C_1  and  C_62
    4  A    between atoms: C_4  and  C_29
    5  A    between atoms: C_4  and  C_33
    6  A    between atoms: C_6  and  C_8
    7  A    between atoms: N_7  and  C_36
    8  A    between atoms: N_7  and  C_69
    9  A    between atoms: C_8  and  C_11
   10  A    between atoms: C_8  and  S_48
   11  A    between atoms: C_9  and  C_44
   12  A    between atoms: C_12  and  O_27
   13  A    between atoms: C_12  and  C_41
   14  A    between atoms: C_18  and  C_62
   15  A    between atoms: C_21  and  C_61
   16  A    between atoms: C_26  and  C_29
   17  A    between atoms: O_27  and  C_53
   18  A    between atoms: C_31  and  C_34
   19  A    between atoms: C_31  and  C_58
   20  A    between atoms: C_32  and  C_44
   21  A    between atoms: C_32  and  C_53
   22  A    between atoms: C_36  and  C_65
   23  A    between atoms: C_40  and  C_67
   24  A    between atoms: C_51  and  C_57
                            x       y       z     vdW  Elec       q    Type
                         _______ _______ _______ _____ _____    ______ ____

>  <TORSDO>
F 24

$$$$
=
 OpenBabel11042419393D

 70 79  0  0  1  0  0  0  0  0999 V2000
  192.3880  173.8680  145.4090 C   0  0  2  0  0  3  0  0  0  0  0  0
  191.8520  172.7500  144.5420 C   0  0  0  0  0  2  0  0  0  0  0  0
  190.8240  173.4040  143.6660 C   0  0  1  0  0  3  0  0  0  0  0  0
  191.5680  174.9310  143.0280 S   0  0  0  0  0  0  0  0  0  0  0  0
  192.6530  175.0540  144.4910 C   0  0  1  0  0  3  0  0  0  0  0  0
  193.6540  173.4590  146.1590 C   0  0  0  0  0  2  0  0  0  0  0  0
  194.9010  173.7650  145.3410 C   0  0  1  0  0  3  0  0  0  0  0  0
  195.8520  174.3820  146.1400 F   0  0  0  0  0  0  0  0  0  0  0  0
  195.4670  172.4790  144.7520 C   0  0  0  0  0  2  0  0  0  0  0  0
  196.7500  172.7100  144.1740 O   0  0  0  0  0  0  0  0  0  0  0  0
  197.0080  173.7470  143.2730 C   0  0  0  0  0  0  0  0  0  0  0  0
  197.9320  174.5760  143.4960 O   0  0  0  0  0  0  0  0  0  0  0  0
  197.5600  171.9920  141.2560 O   0  0  0  0  0  1  0  0  0  0  0  0
  197.4960  175.7340  141.1550 O   0  0  0  0  0  0  0  0  0  0  0  0
  197.1500  173.8160  139.7690 C   0  0  2  0  0  3  0  0  0  0  0  0
  196.6050  172.9330  140.8700 C   0  0  2  0  0  3  0  0  0  0  0  0
  196.2020  173.8690  142.0100 C   0  0  2  0  0  3  0  0  0  0  0  0
  196.7330  175.2490  140.0790 C   0  0  1  0  0  3  0  0  0  0  0  0
  196.1920  175.2960  141.4610 C   0  0  2  0  0  3  0  0  0  0  0  0
  197.2360  170.9350  137.7030 C   0  0  0  0  0  2  0  0  0  0  0  0
  197.2180  173.1800  135.8890 C   0  0  0  0  0  2  0  0  0  0  0  0
  195.9530  172.3160  135.9270 C   0  0  2  0  0  3  0  0  0  0  0  0
  196.2730  171.8560  138.4400 C   0  0  1  0  0  3  0  0  0  0  0  0
  197.6190  173.7510  137.2550 C   0  0  0  0  0  2  0  0  0  0  0  0
  196.6600  173.3530  138.3950 C   0  0  2  0  0  3  0  0  0  0  0  0
  195.8910  171.2800  137.0780 C   0  0  2  0  0  3  0  0  0  0  0  0
  196.5440  170.4700  134.5250 O   0  0  0  0  0  1  0  0  0  0  0  0
  195.7730  171.6340  134.5830 C   0  0  0  0  0  2  0  0  0  0  0  0
  190.3770  172.4640  142.5570 C   0  0  0  0  0  2  0  0  0  0  0  0
  190.8370  172.9530  141.1840 C   0  0  0  0  0  2  0  0  0  0  0  0
  191.7430  173.6050  138.2700 C   0  0  1  0  0  3  0  0  0  0  0  0
  192.4710  172.8580  137.1210 C   0  0  1  0  0  3  0  0  0  0  0  0
  190.4940  174.1020  137.8800 O   0  0  0  0  0  1  0  0  0  0  0  0
  191.1420  171.7860  140.2480 C   0  0  2  0  0  3  0  0  0  0  0  0
  192.2680  171.4900  137.8010 C   0  0  0  0  0  2  0  0  0  0  0  0
  191.6340  172.2490  138.9270 C   0  0  2  0  0  0  0  0  0  0  0  0
  190.2980  171.8360  139.1210 O   0  0  0  0  0  0  0  0  0  0  0  0
  191.8430  173.0040  135.7230 C   0  0  1  0  0  3  0  0  0  0  0  0
  190.7850  171.9800  135.4720 C   0  0  0  0  0  0  0  0  0  0  0  0
  191.0980  170.6220  135.4420 O   0  0  0  0  0  1  0  0  0  0  0  0
  189.5940  172.3450  135.3120 O   0  0  0  0  0  0  0  0  0  0  0  0
  193.0220  175.3970  135.0970 C   0  0  0  0  0  1  0  0  0  0  0  0
  191.3460  174.7010  135.1980 S   0  0  0  0  0  0  0  0  0  0  0  0
  192.3520  176.3450  145.2320 C   0  0  0  0  0  2  0  0  0  0  0  0
  191.5790  176.0580  146.4290 N   0  0  0  0  0  2  0  0  0  0  0  0
  185.7070  179.4370  146.4040 S   0  0  0  0  0  0  0  0  0  0  0  0
  186.6350  175.8950  146.2000 N   0  0  0  0  0  2  0  0  0  0  0  0
  184.4000  178.4020  145.7220 C   0  0  2  0  0  3  0  0  0  0  0  0
  184.5730  177.1330  145.8690 N   0  0  0  0  0  2  0  0  0  0  0  0
  186.2990  177.9650  147.3090 C   0  0  1  0  0  3  0  0  0  0  0  0
  190.1380  177.8710  147.3060 C   0  0  0  0  0  3  0  0  0  0  0  0
  185.6800  176.8160  146.6530 N   0  0  2  0  0  0  0  0  0  0  0  0
  188.8620  178.4150  147.5380 C   0  0  0  0  0  3  0  0  0  0  0  0
  189.1430  175.8990  146.2680 C   0  0  0  0  0  3  0  0  0  0  0  0
  187.7520  177.6860  147.1180 C   0  0  0  0  0  0  0  0  0  0  0  0
  187.8920  176.4590  146.5170 C   0  0  0  0  0  0  0  0  0  0  0  0
  190.2830  176.6140  146.6740 C   0  0  0  0  0  0  0  0  0  0  0  0
  183.2460  178.9270  144.9210 C   0  0  0  0  0  2  0  0  0  0  0  0
  183.4420  178.9060  143.3980 C   0  0  2  0  0  3  0  0  0  0  0  0
  181.0730  179.6850  143.1030 O   0  0  0  0  0  1  0  0  0  0  0  0
  182.1420  178.9180  142.6550 C   0  0  0  0  0  0  0  0  0  0  0  0
  182.0050  178.2000  141.6320 O   0  0  0  0  0  0  0  0  0  0  0  0
  184.4000  177.8260  142.8920 C   0  0  0  0  0  2  0  0  0  0  0  0
  184.8390  178.2280  140.4890 C   0  0  0  0  0  1  0  0  0  0  0  0
  185.3930  178.3950  141.8900 C   0  0  2  0  0  3  0  0  0  0  0  0
  187.8030  178.3550  142.3270 C   0  0  0  0  0  3  0  0  0  0  0  0
  186.7010  177.6870  142.0060 C   0  0  0  0  0  3  0  0  0  0  0  0
  189.3530  176.6360  141.7970 O   0  0  0  0  0  0  0  0  0  0  0  0
  190.1480  178.2840  143.3100 C   0  0  0  0  0  1  0  0  0  0  0  0
  189.1050  177.6910  142.4400 C   0  0  0  0  0  0  0  0  0  0  0  0
  1  6  1  6  0  0  0
  2  1  1  0  0  0  0
  3 29  1  6  0  0  0
  3  2  1  0  0  0  0
  4  3  1  0  0  0  0
  4  5  1  0  0  0  0
  5 44  1  1  0  0  0
  5  1  1  0  0  0  0
  7  8  1  1  0  0  0
  7  6  1  0  0  0  0
  9  7  1  0  0  0  0
 10  9  1  0  0  0  0
 11 12  2  0  0  0  0
 11 10  1  0  0  0  0
 15 25  1  6  0  0  0
 15 18  1  0  0  0  0
 15 16  1  0  0  0  0
 16 13  1  1  0  0  0
 16 17  1  0  0  0  0
 17 11  1  1  0  0  0
 18 14  1  1  0  0  0
 18 19  1  0  0  0  0
 19 14  1  1  0  0  0
 19 17  1  0  0  0  0
 21 22  1  0  0  0  0
 21 24  1  0  0  0  0
 22 28  1  6  0  0  0
 22 26  1  0  0  0  0
 23 20  1  6  0  0  0
 25 24  1  6  0  0  0
 25 23  1  0  0  0  0
 26 20  1  6  0  0  0
 26 23  1  0  0  0  0
 27 28  1  0  0  0  0
 30 29  1  0  0  0  0
 31 33  1  6  0  0  0
 31 36  1  0  0  0  0
 32 38  1  6  0  0  0
 32 35  1  0  0  0  0
 32 31  1  0  0  0  0
 34 30  1  1  0  0  0
 36 35  1  6  0  0  0
 36 37  1  0  0  0  0
 36 34  1  0  0  0  0
 37 34  1  0  0  0  0
 38 43  1  1  0  0  0
 39 38  1  0  0  0  0
 40 39  1  0  0  0  0
 41 39  2  0  0  0  0
 42 43  1  0  0  0  0
 44 45  1  0  0  0  0
 45 57  1  0  0  0  0
 47 56  1  0  0  0  0
 47 52  1  0  0  0  0
 48 58  1  6  0  0  0
 48 49  1  0  0  0  0
 48 46  1  0  0  0  0
 50 46  1  6  0  0  0
 51 53  1  0  0  0  0
 52 49  1  6  0  0  0
 52 50  1  0  0  0  0
 54 56  2  0  0  0  0
 54 57  1  0  0  0  0
 55 50  1  0  0  0  0
 55 53  2  0  0  0  0
 56 55  1  0  0  0  0
 57 51  2  0  0  0  0
 59 63  1  1  0  0  0
 59 58  1  0  0  0  0
 61 60  1  0  0  0  0
 61 59  1  0  0  0  0
 62 61  2  0  0  0  0
 65 64  1  6  0  0  0
 65 67  1  0  0  0  0
 65 63  1  0  0  0  0
 66 70  1  0  0  0  0
 67 66  2  0  0  0  0
 68 70  2  0  0  0  0
 70 69  1  0  0  0  0
M  END
>  <MODEL>
2

>  <REMARK>
 VINA RESULT:      -5.0      3.011      7.842
  Name = 
  24 active torsions:
  status: ('A' for Active; 'I' for Inactive)
    1  A    between atoms: C_1  and  C_25
    2  A    between atoms: C_1  and  C_34
    3  A    between atoms: C_1  and  C_62
    4  A    between atoms: C_4  and  C_29
    5  A    between atoms: C_4  and  C_33
    6  A    between atoms: C_6  and  C_8
    7  A    between atoms: N_7  and  C_36
    8  A    between atoms: N_7  and  C_69
    9  A    between atoms: C_8  and  C_11
   10  A    between atoms: C_8  and  S_48
   11  A    between atoms: C_9  and  C_44
   12  A    between atoms: C_12  and  O_27
   13  A    between atoms: C_12  and  C_41
   14  A    between atoms: C_18  and  C_62
   15  A    between atoms: C_21  and  C_61
   16  A    between atoms: C_26  and  C_29
   17  A    between atoms: O_27  and  C_53
   18  A    between atoms: C_31  and  C_34
   19  A    between atoms: C_31  and  C_58
   20  A    between atoms: C_32  and  C_44
   21  A    between atoms: C_32  and  C_53
   22  A    between atoms: C_36  and  C_65
   23  A    between atoms: C_40  and  C_67
   24  A    between atoms: C_51  and  C_57
                            x       y       z     vdW  Elec       q    Type
                         _______ _______ _______ _____ _____    ______ ____

>  <TORSDO>
F 24

$$$$
=
 OpenBabel11042419393D

 70 79  0  0  1  0  0  0  0  0999 V2000
  189.0630  175.7700  146.1910 C   0  0  2  0  0  3  0  0  0  0  0  0
  188.0220  176.8580  146.0410 C   0  0  0  0  0  2  0  0  0  0  0  0
  188.0100  177.5620  147.3670 C   0  0  1  0  0  3  0  0  0  0  0  0
  189.7420  177.8530  147.8250 S   0  0  0  0  0  0  0  0  0  0  0  0
  190.2790  176.4060  146.8500 C   0  0  1  0  0  3  0  0  0  0  0  0
  189.4320  175.1370  144.8500 C   0  0  0  0  0  2  0  0  0  0  0  0
  189.1400  176.0860  143.6960 C   0  0  1  0  0  3  0  0  0  0  0  0
  190.3290  176.5470  143.1510 F   0  0  0  0  0  0  0  0  0  0  0  0
  188.3180  175.3730  142.6310 C   0  0  0  0  0  2  0  0  0  0  0  0
  189.1140  175.0920  141.4810 O   0  0  0  0  0  0  0  0  0  0  0  0
  189.0070  173.9070  140.7470 C   0  0  0  0  0  0  0  0  0  0  0  0
  187.8930  173.3310  140.6180 O   0  0  0  0  0  0  0  0  0  0  0  0
  188.7300  173.0570  138.1670 O   0  0  0  0  0  1  0  0  0  0  0  0
  189.9760  171.1550  141.1420 O   0  0  0  0  0  0  0  0  0  0  0  0
  190.2020  171.2730  138.7640 C   0  0  2  0  0  3  0  0  0  0  0  0
  189.9990  172.7690  138.6690 C   0  0  2  0  0  3  0  0  0  0  0  0
  190.2190  173.3210  140.0780 C   0  0  2  0  0  3  0  0  0  0  0  0
  190.8950  170.9860  140.0910 C   0  0  1  0  0  3  0  0  0  0  0  0
  190.8700  172.2210  140.9150 C   0  0  2  0  0  3  0  0  0  0  0  0
  191.6440  168.2470  137.6030 C   0  0  0  0  0  2  0  0  0  0  0  0
  193.3430  170.3470  136.5870 C   0  0  0  0  0  2  0  0  0  0  0  0
  192.5050  169.5820  135.5570 C   0  0  2  0  0  3  0  0  0  0  0  0
  190.5880  169.2880  137.2510 C   0  0  1  0  0  3  0  0  0  0  0  0
  192.5140  170.9870  137.7070 C   0  0  0  0  0  2  0  0  0  0  0  0
  190.9980  170.7450  137.5670 C   0  0  2  0  0  3  0  0  0  0  0  0
  191.4250  168.6410  136.1480 C   0  0  2  0  0  3  0  0  0  0  0  0
  194.7530  169.2240  134.8220 O   0  0  0  0  0  1  0  0  0  0  0  0
  193.4300  168.8170  134.6280 C   0  0  0  0  0  2  0  0  0  0  0  0
  187.2020  178.8480  147.2930 C   0  0  0  0  0  2  0  0  0  0  0  0
  185.7040  178.5820  147.4350 C   0  0  0  0  0  2  0  0  0  0  0  0
  185.7800  178.9950  144.3430 C   0  0  1  0  0  3  0  0  0  0  0  0
  185.7800  178.0890  143.0830 C   0  0  1  0  0  3  0  0  0  0  0  0
  184.7350  179.9250  144.3350 O   0  0  0  0  0  1  0  0  0  0  0  0
  185.2530  177.4270  146.5440 C   0  0  2  0  0  3  0  0  0  0  0  0
  185.3390  176.8560  143.8960 C   0  0  0  0  0  2  0  0  0  0  0  0
  185.4190  177.7400  145.1030 C   0  0  2  0  0  0  0  0  0  0  0  0
  184.1640  177.8280  145.7460 O   0  0  0  0  0  0  0  0  0  0  0  0
  184.8260  178.5140  141.9520 C   0  0  1  0  0  3  0  0  0  0  0  0
  185.2760  178.0130  140.6180 C   0  0  0  0  0  0  0  0  0  0  0  0
  184.3510  177.6010  139.6610 O   0  0  0  0  0  0  0  0  0  0  0  0
  186.5020  177.9860  140.3470 O   0  0  0  0  0  1  0  0  0  0  0  0
  182.4840  178.5620  140.5300 C   0  0  0  0  0  1  0  0  0  0  0  0
  183.0200  178.2740  142.2430 S   0  0  0  0  0  0  0  0  0  0  0  0
  190.9410  175.3970  147.7730 C   0  0  0  0  0  2  0  0  0  0  0  0
  192.3740  175.6370  147.8190 N   0  0  0  0  0  2  0  0  0  0  0  0
  197.1980  175.3390  143.0710 S   0  0  0  0  0  0  0  0  0  0  0  0
  193.7810  174.0360  143.3480 N   0  0  0  0  0  2  0  0  0  0  0  0
  196.8630  173.9840  141.9320 C   0  0  0  0  0  0  0  0  0  0  0  0
  195.6190  173.6690  141.8060 N   0  0  0  0  0  2  0  0  0  0  0  0
  195.4140  175.7260  143.0180 C   0  0  1  0  0  3  0  0  0  0  0  0
  194.1770  176.7230  146.5150 C   0  0  0  0  0  3  0  0  0  0  0  0
  194.7610  174.5360  142.4790 N   0  0  2  0  0  0  0  0  0  0  0  0
  194.9810  176.7950  145.3630 C   0  0  0  0  0  3  0  0  0  0  0  0
  193.0110  174.7760  145.6190 C   0  0  0  0  0  3  0  0  0  0  0  0
  194.7830  175.8420  144.3660 C   0  0  0  0  0  0  0  0  0  0  0  0
  193.8160  174.8740  144.4870 C   0  0  0  0  0  0  0  0  0  0  0  0
  193.1900  175.7180  146.6460 C   0  0  0  0  0  0  0  0  0  0  0  0
  197.9290  173.1700  141.2610 C   0  0  0  0  0  3  0  0  0  0  0  0
  197.4250  171.9460  140.4820 C   0  0  2  0  0  3  0  0  0  0  0  0
  195.9590  171.6240  138.4680 O   0  0  0  0  0  1  0  0  0  0  0  0
  197.0110  172.2910  139.0840 C   0  0  0  0  0  0  0  0  0  0  0  0
  197.6460  173.1720  138.4490 O   0  0  0  0  0  0  0  0  0  0  0  0
  196.3780  171.1080  141.2160 C   0  0  0  0  0  2  0  0  0  0  0  0
  197.2590  168.8000  141.3740 C   0  0  0  0  0  1  0  0  0  0  0  0
  197.0340  170.0900  142.1370 C   0  0  2  0  0  3  0  0  0  0  0  0
  195.0170  170.4880  143.4690 C   0  0  0  0  0  3  0  0  0  0  0  0
  196.1630  169.8340  143.3210 C   0  0  0  0  0  3  0  0  0  0  0  0
  192.9110  170.0520  144.4760 O   0  0  0  0  0  0  0  0  0  0  0  0
  194.7280  170.2780  145.9870 C   0  0  0  0  0  1  0  0  0  0  0  0
  194.1440  170.2660  144.6250 C   0  0  0  0  0  0  0  0  0  0  0  0
  1  6  1  6  0  0  0
  1  5  1  0  0  0  0
  2  1  1  0  0  0  0
  2  3  1  0  0  0  0
  3 29  1  6  0  0  0
  3  4  1  0  0  0  0
  5 44  1  1  0  0  0
  5  4  1  0  0  0  0
  7  8  1  6  0  0  0
  7  6  1  0  0  0  0
  9  7  1  0  0  0  0
 10  9  1  0  0  0  0
 11 10  1  0  0  0  0
 12 11  2  0  0  0  0
 15 25  1  6  0  0  0
 15 18  1  0  0  0  0
 16 13  1  1  0  0  0
 16 15  1  0  0  0  0
 16 17  1  0  0  0  0
 17 11  1  1  0  0  0
 17 19  1  0  0  0  0
 18 19  1  0  0  0  0
 18 14  1  1  0  0  0
 19 14  1  1  0  0  0
 21 24  1  0  0  0  0
 22 28  1  1  0  0  0
 22 26  1  0  0  0  0
 22 21  1  0  0  0  0
 23 25  1  0  0  0  0
 23 20  1  1  0  0  0
 25 24  1  1  0  0  0
 26 23  1  0  0  0  0
 26 20  1  1  0  0  0
 28 27  1  0  0  0  0
 29 30  1  0  0  0  0
 31 33  1  6  0  0  0
 31 36  1  0  0  0  0
 32 38  1  6  0  0  0
 32 35  1  0  0  0  0
 32 31  1  0  0  0  0
 34 30  1  1  0  0  0
 36 35  1  6  0  0  0
 36 37  1  0  0  0  0
 36 34  1  0  0  0  0
 37 34  1  0  0  0  0
 38 39  1  6  0  0  0
 38 43  1  0  0  0  0
 40 39  2  0  0  0  0
 41 39  1  0  0  0  0
 42 43  1  0  0  0  0
 44 45  1  0  0  0  0
 47 56  1  0  0  0  0
 48 46  1  0  0  0  0
 49 48  1  0  0  0  0
 50 46  1  1  0  0  0
 50 55  1  0  0  0  0
 51 57  1  0  0  0  0
 52 49  1  1  0  0  0
 52 50  1  0  0  0  0
 52 47  1  0  0  0  0
 53 51  2  0  0  0  0
 54 57  2  0  0  0  0
 55 56  2  0  0  0  0
 55 53  1  0  0  0  0
 56 54  1  0  0  0  0
 57 45  1  0  0  0  0
 58 48  2  0  0  0  0
 59 63  1  1  0  0  0
 59 58  1  0  0  0  0
 60 61  1  0  0  0  0
 61 59  1  0  0  0  0
 62 61  2  0  0  0  0
 63 65  1  0  0  0  0
 65 64  1  6  0  0  0
 65 67  1  0  0  0  0
 66 70  1  0  0  0  0
 67 66  2  0  0  0  0
 68 70  2  0  0  0  0
 70 69  1  0  0  0  0
M  END
>  <MODEL>
3

>  <REMARK>
 VINA RESULT:      -4.9      3.267      9.781
  Name = 
  24 active torsions:
  status: ('A' for Active; 'I' for Inactive)
    1  A    between atoms: C_1  and  C_25
    2  A    between atoms: C_1  and  C_34
    3  A    between atoms: C_1  and  C_62
    4  A    between atoms: C_4  and  C_29
    5  A    between atoms: C_4  and  C_33
    6  A    between atoms: C_6  and  C_8
    7  A    between atoms: N_7  and  C_36
    8  A    between atoms: N_7  and  C_69
    9  A    between atoms: C_8  and  C_11
   10  A    between atoms: C_8  and  S_48
   11  A    between atoms: C_9  and  C_44
   12  A    between atoms: C_12  and  O_27
   13  A    between atoms: C_12  and  C_41
   14  A    between atoms: C_18  and  C_62
   15  A    between atoms: C_21  and  C_61
   16  A    between atoms: C_26  and  C_29
   17  A    between atoms: O_27  and  C_53
   18  A    between atoms: C_31  and  C_34
   19  A    between atoms: C_31  and  C_58
   20  A    between atoms: C_32  and  C_44
   21  A    between atoms: C_32  and  C_53
   22  A    between atoms: C_36  and  C_65
   23  A    between atoms: C_40  and  C_67
   24  A    between atoms: C_51  and  C_57
                            x       y       z     vdW  Elec       q    Type
                         _______ _______ _______ _____ _____    ______ ____

>  <TORSDO>
F 24

$$$$
=
 OpenBabel11042419393D

 70 79  0  0  1  0  0  0  0  0999 V2000
  191.8070  173.9250  145.3850 C   0  0  2  0  0  3  0  0  0  0  0  0
  191.0330  172.9770  144.4960 C   0  0  0  0  0  2  0  0  0  0  0  0
  190.1760  173.8670  143.6430 C   0  0  1  0  0  3  0  0  0  0  0  0
  191.2420  175.2040  143.0370 S   0  0  0  0  0  0  0  0  0  0  0  0
  192.3290  175.0440  144.4940 C   0  0  1  0  0  3  0  0  0  0  0  0
  192.9510  173.2240  146.1160 C   0  0  0  0  0  2  0  0  0  0  0  0
  194.1710  173.0810  145.2170 C   0  0  1  0  0  3  0  0  0  0  0  0
  195.3170  172.9640  145.9900 F   0  0  0  0  0  0  0  0  0  0  0  0
  194.0180  171.8590  144.3200 C   0  0  0  0  0  2  0  0  0  0  0  0
  195.2910  171.4020  143.8680 O   0  0  0  0  0  0  0  0  0  0  0  0
  196.2350  172.2390  143.2660 C   0  0  0  0  0  0  0  0  0  0  0  0
  197.3930  172.3520  143.7510 O   0  0  0  0  0  0  0  0  0  0  0  0
  197.7100  171.7130  141.0290 O   0  0  0  0  0  1  0  0  0  0  0  0
  197.0600  175.0060  142.6890 O   0  0  0  0  0  0  0  0  0  0  0  0
  197.5200  174.0440  140.5470 C   0  0  2  0  0  3  0  0  0  0  0  0
  196.7950  172.7420  140.8100 C   0  0  2  0  0  3  0  0  0  0  0  0
  195.8860  172.9940  142.0130 C   0  0  2  0  0  3  0  0  0  0  0  0
  196.7900  175.1400  141.3160 C   0  0  1  0  0  3  0  0  0  0  0  0
  195.8210  174.5030  142.2430 C   0  0  2  0  0  3  0  0  0  0  0  0
  195.3770  174.3200  137.7340 C   0  0  0  0  0  2  0  0  0  0  0  0
  197.8840  173.3350  136.6970 C   0  0  0  0  0  2  0  0  0  0  0  0
  197.4960  174.7660  136.3140 C   0  0  2  0  0  3  0  0  0  0  0  0
  196.3470  175.1260  138.5900 C   0  0  1  0  0  3  0  0  0  0  0  0
  197.9350  173.0910  138.2090 C   0  0  0  0  0  2  0  0  0  0  0  0
  197.5980  174.3410  139.0470 C   0  0  2  0  0  3  0  0  0  0  0  0
  196.2840  175.3530  137.0800 C   0  0  2  0  0  3  0  0  0  0  0  0
  196.3390  175.8410  134.5170 O   0  0  0  0  0  1  0  0  0  0  0  0
  197.2670  174.8390  134.8150 C   0  0  0  0  0  2  0  0  0  0  0  0
  189.5280  173.0780  142.5140 C   0  0  0  0  0  2  0  0  0  0  0  0
  190.5240  172.7710  141.3980 C   0  0  0  0  0  2  0  0  0  0  0  0
  192.6300  171.7570  139.3290 C   0  0  1  0  0  3  0  0  0  0  0  0
  193.2540  170.3930  138.9300 C   0  0  1  0  0  3  0  0  0  0  0  0
  192.0370  172.4140  138.2450 O   0  0  0  0  0  1  0  0  0  0  0  0
  190.5290  171.2850  141.0450 C   0  0  2  0  0  3  0  0  0  0  0  0
  192.1650  169.6070  139.6860 C   0  0  0  0  0  2  0  0  0  0  0  0
  191.6300  170.9390  140.1130 C   0  0  2  0  0  0  0  0  0  0  0  0
  190.3030  171.1150  139.6650 O   0  0  0  0  0  0  0  0  0  0  0  0
  193.3450  170.1150  137.4180 C   0  0  1  0  0  3  0  0  0  0  0  0
  194.7060  169.6530  137.0120 C   0  0  0  0  0  0  0  0  0  0  0  0
  195.4990  170.4260  136.1660 O   0  0  0  0  0  0  0  0  0  0  0  0
  195.1520  168.5680  137.4600 O   0  0  0  0  0  1  0  0  0  0  0  0
  191.2540  170.4560  135.6800 C   0  0  0  0  0  1  0  0  0  0  0  0
  191.9880  169.1160  136.6650 S   0  0  0  0  0  0  0  0  0  0  0  0
  192.3260  176.3510  145.2680 C   0  0  0  0  0  2  0  0  0  0  0  0
  191.6890  176.1570  146.5600 N   0  0  0  0  0  2  0  0  0  0  0  0
  185.7530  179.4020  146.9460 S   0  0  0  0  0  0  0  0  0  0  0  0
  186.7490  175.9380  146.2700 N   0  0  0  0  0  2  0  0  0  0  0  0
  184.4700  178.4460  146.1190 C   0  0  2  0  0  3  0  0  0  0  0  0
  184.6660  177.1720  146.0940 N   0  0  0  0  0  2  0  0  0  0  0  0
  186.3680  177.8310  147.6470 C   0  0  1  0  0  3  0  0  0  0  0  0
  190.2080  177.8080  147.6630 C   0  0  0  0  0  3  0  0  0  0  0  0
  185.7750  176.7710  146.8360 N   0  0  2  0  0  0  0  0  0  0  0  0
  188.9210  178.2920  147.9570 C   0  0  0  0  0  3  0  0  0  0  0  0
  189.2570  175.9780  146.3590 C   0  0  0  0  0  3  0  0  0  0  0  0
  187.8270  177.6070  147.4320 C   0  0  0  0  0  0  0  0  0  0  0  0
  187.9940  176.4750  146.6710 C   0  0  0  0  0  0  0  0  0  0  0  0
  190.3800  176.6510  146.8680 C   0  0  0  0  0  0  0  0  0  0  0  0
  183.3110  179.0540  145.3870 C   0  0  0  0  0  2  0  0  0  0  0  0
  183.5040  179.2130  143.8720 C   0  0  2  0  0  3  0  0  0  0  0  0
  181.0500  179.6130  143.5190 O   0  0  0  0  0  1  0  0  0  0  0  0
  182.2310  179.0050  143.1100 C   0  0  0  0  0  0  0  0  0  0  0  0
  182.2240  178.2450  142.1080 O   0  0  0  0  0  0  0  0  0  0  0  0
  184.6750  178.4200  143.2900 C   0  0  0  0  0  2  0  0  0  0  0  0
  185.9470  180.5310  143.5210 C   0  0  0  0  0  1  0  0  0  0  0  0
  186.0090  179.0270  143.6990 C   0  0  2  0  0  3  0  0  0  0  0  0
  187.1050  177.1770  142.5260 C   0  0  0  0  0  3  0  0  0  0  0  0
  187.1070  178.4620  142.8620 C   0  0  0  0  0  3  0  0  0  0  0  0
  189.3520  177.0290  141.7740 O   0  0  0  0  0  0  0  0  0  0  0  0
  187.8600  175.4470  140.8210 C   0  0  0  0  0  1  0  0  0  0  0  0
  188.1730  176.5890  141.7130 C   0  0  0  0  0  0  0  0  0  0  0  0
  1  6  1  6  0  0  0
  2  1  1  0  0  0  0
  3 29  1  6  0  0  0
  3  2  1  0  0  0  0
  4  3  1  0  0  0  0
  4  5  1  0  0  0  0
  5 44  1  1  0  0  0
  5  1  1  0  0  0  0
  7  8  1  1  0  0  0
  7  6  1  0  0  0  0
  9  7  1  0  0  0  0
 10  9  1  0  0  0  0
 11 12  2  0  0  0  0
 11 10  1  0  0  0  0
 15 25  1  6  0  0  0
 15 16  1  0  0  0  0
 15 18  1  0  0  0  0
 16 13  1  1  0  0  0
 16 17  1  0  0  0  0
 17 19  1  0  0  0  0
 17 11  1  1  0  0  0
 18 19  1  0  0  0  0
 18 14  1  1  0  0  0
 19 14  1  1  0  0  0
 21 24  1  0  0  0  0
 22 28  1  6  0  0  0
 22 21  1  0  0  0  0
 22 26  1  0  0  0  0
 23 20  1  6  0  0  0
 23 25  1  0  0  0  0
 25 24  1  6  0  0  0
 26 20  1  6  0  0  0
 26 23  1  0  0  0  0
 27 28  1  0  0  0  0
 30 29  1  0  0  0  0
 31 33  1  6  0  0  0
 31 36  1  0  0  0  0
 32 38  1  6  0  0  0
 32 31  1  0  0  0  0
 32 35  1  0  0  0  0
 34 30  1  6  0  0  0
 36 35  1  1  0  0  0
 36 34  1  0  0  0  0
 37 36  1  0  0  0  0
 37 34  1  0  0  0  0
 38 43  1  1  0  0  0
 39 38  1  0  0  0  0
 39 41  1  0  0  0  0
 40 39  2  0  0  0  0
 42 43  1  0  0  0  0
 44 45  1  0  0  0  0
 45 57  1  0  0  0  0
 47 56  1  0  0  0  0
 47 52  1  0  0  0  0
 48 58  1  6  0  0  0
 48 46  1  0  0  0  0
 49 48  1  0  0  0  0
 50 46  1  6  0  0  0
 51 53  1  0  0  0  0
 52 49  1  6  0  0  0
 52 50  1  0  0  0  0
 54 56  2  0  0  0  0
 54 57  1  0  0  0  0
 55 50  1  0  0  0  0
 55 53  2  0  0  0  0
 56 55  1  0  0  0  0
 57 51  2  0  0  0  0
 59 63  1  6  0  0  0
 59 58  1  0  0  0  0
 61 60  1  0  0  0  0
 61 59  1  0  0  0  0
 62 61  2  0  0  0  0
 63 65  1  0  0  0  0
 65 64  1  6  0  0  0
 66 67  2  0  0  0  0
 67 65  1  0  0  0  0
 69 70  1  0  0  0  0
 70 68  2  0  0  0  0
 70 66  1  0  0  0  0
M  END
>  <MODEL>
4

>  <REMARK>
 VINA RESULT:      -4.2      3.206      7.968
  Name = 
  24 active torsions:
  status: ('A' for Active; 'I' for Inactive)
    1  A    between atoms: C_1  and  C_25
    2  A    between atoms: C_1  and  C_34
    3  A    between atoms: C_1  and  C_62
    4  A    between atoms: C_4  and  C_29
    5  A    between atoms: C_4  and  C_33
    6  A    between atoms: C_6  and  C_8
    7  A    between atoms: N_7  and  C_36
    8  A    between atoms: N_7  and  C_69
    9  A    between atoms: C_8  and  C_11
   10  A    between atoms: C_8  and  S_48
   11  A    between atoms: C_9  and  C_44
   12  A    between atoms: C_12  and  O_27
   13  A    between atoms: C_12  and  C_41
   14  A    between atoms: C_18  and  C_62
   15  A    between atoms: C_21  and  C_61
   16  A    between atoms: C_26  and  C_29
   17  A    between atoms: O_27  and  C_53
   18  A    between atoms: C_31  and  C_34
   19  A    between atoms: C_31  and  C_58
   20  A    between atoms: C_32  and  C_44
   21  A    between atoms: C_32  and  C_53
   22  A    between atoms: C_36  and  C_65
   23  A    between atoms: C_40  and  C_67
   24  A    between atoms: C_51  and  C_57
                            x       y       z     vdW  Elec       q    Type
                         _______ _______ _______ _____ _____    ______ ____

>  <TORSDO>
F 24

$$$$
=
 OpenBabel11042419393D

 70 79  0  0  1  0  0  0  0  0999 V2000
  196.7370  175.3510  142.6810 C   0  0  2  0  0  3  0  0  0  0  0  0
  196.3040  176.6110  143.3990 C   0  0  0  0  0  2  0  0  0  0  0  0
  195.4190  176.1320  144.5120 C   0  0  1  0  0  3  0  0  0  0  0  0
  196.2730  174.7400  145.3040 S   0  0  0  0  0  0  0  0  0  0  0  0
  197.1480  174.3490  143.7510 C   0  0  1  0  0  3  0  0  0  0  0  0
  197.8800  175.6110  141.7020 C   0  0  0  0  0  2  0  0  0  0  0  0
  197.7840  174.6960  140.4890 C   0  0  1  0  0  3  0  0  0  0  0  0
  196.5620  174.0380  140.4880 F   0  0  0  0  0  0  0  0  0  0  0  0
  197.9410  175.5070  139.2100 C   0  0  0  0  0  2  0  0  0  0  0  0
  197.4820  174.7660  138.0810 O   0  0  0  0  0  0  0  0  0  0  0  0
  196.7940  175.3470  137.0120 C   0  0  0  0  0  0  0  0  0  0  0  0
  197.3680  176.1740  136.2530 O   0  0  0  0  0  0  0  0  0  0  0  0
  195.8240  173.1160  138.2520 O   0  0  0  0  0  1  0  0  0  0  0  0
  195.8610  173.9410  134.5990 O   0  0  0  0  0  0  0  0  0  0  0  0
  194.6170  172.7100  136.2310 C   0  0  2  0  0  3  0  0  0  0  0  0
  194.8880  173.6630  137.3740 C   0  0  2  0  0  3  0  0  0  0  0  0
  195.3640  174.9700  136.7390 C   0  0  2  0  0  3  0  0  0  0  0  0
  194.5610  173.5340  134.9490 C   0  0  1  0  0  3  0  0  0  0  0  0
  195.0560  174.9020  135.2440 C   0  0  2  0  0  3  0  0  0  0  0  0
  193.0950  170.7210  138.7420 C   0  0  0  0  0  2  0  0  0  0  0  0
  192.1770  169.6270  136.2340 C   0  0  0  0  0  2  0  0  0  0  0  0
  191.1340  170.3510  137.0920 C   0  0  2  0  0  3  0  0  0  0  0  0
  192.9060  172.0100  137.9500 C   0  0  1  0  0  3  0  0  0  0  0  0
  193.3990  170.4860  135.8910 C   0  0  0  0  0  2  0  0  0  0  0  0
  193.3310  171.9150  136.4660 C   0  0  2  0  0  3  0  0  0  0  0  0
  191.7000  171.1390  138.3000 C   0  0  2  0  0  3  0  0  0  0  0  0
  189.2870  169.9180  138.5490 O   0  0  0  0  0  1  0  0  0  0  0  0
  190.0830  169.3550  137.5490 C   0  0  0  0  0  2  0  0  0  0  0  0
  195.1120  177.2590  145.4870 C   0  0  0  0  0  2  0  0  0  0  0  0
  194.0480  176.8520  146.5030 C   0  0  0  0  0  2  0  0  0  0  0  0
  191.1350  177.6960  147.2440 C   0  0  1  0  0  3  0  0  0  0  0  0
  189.7210  177.5290  146.6280 C   0  0  1  0  0  3  0  0  0  0  0  0
  191.2130  177.2030  148.5520 O   0  0  0  0  0  1  0  0  0  0  0  0
  192.8910  176.1090  145.8360 C   0  0  2  0  0  3  0  0  0  0  0  0
  190.2070  176.4340  145.6590 C   0  0  0  0  0  2  0  0  0  0  0  0
  191.5740  176.6700  146.2250 C   0  0  2  0  0  0  0  0  0  0  0  0
  192.0850  175.4930  146.8130 O   0  0  0  0  0  0  0  0  0  0  0  0
  188.6100  177.1040  147.6060 C   0  0  1  0  0  3  0  0  0  0  0  0
  187.6750  178.2270  147.9180 C   0  0  0  0  0  0  0  0  0  0  0  0
  186.3360  178.1660  147.5400 O   0  0  0  0  0  0  0  0  0  0  0  0
  188.0970  179.2270  148.5510 O   0  0  0  0  0  1  0  0  0  0  0  0
  189.2110  174.4490  147.2860 C   0  0  0  0  0  1  0  0  0  0  0  0
  187.7400  175.5160  147.2500 S   0  0  0  0  0  0  0  0  0  0  0  0
  196.7720  172.9470  143.3030 C   0  0  0  0  0  2  0  0  0  0  0  0
  195.6700  172.4510  144.1090 N   0  0  0  0  0  2  0  0  0  0  0  0
  189.0140  172.5170  142.8430 S   0  0  0  0  0  0  0  0  0  0  0  0
  191.9850  173.6920  141.0420 N   0  0  0  0  0  2  0  0  0  0  0  0
  188.6360  173.7460  141.5820 C   0  0  2  0  0  3  0  0  0  0  0  0
  189.5930  173.9950  140.7550 N   0  0  0  0  0  2  0  0  0  0  0  0
  190.4720  172.0510  141.8460 C   0  0  1  0  0  3  0  0  0  0  0  0
  193.4630  171.3270  144.1440 C   0  0  0  0  0  3  0  0  0  0  0  0
  190.6940  173.1580  140.9200 N   0  0  2  0  0  0  0  0  0  0  0  0
  192.1550  171.1840  143.6470 C   0  0  0  0  0  3  0  0  0  0  0  0
  193.9010  173.1330  142.5620 C   0  0  0  0  0  3  0  0  0  0  0  0
  191.7480  172.0330  142.6200 C   0  0  0  0  0  0  0  0  0  0  0  0
  192.6040  172.9650  142.0850 C   0  0  0  0  0  0  0  0  0  0  0  0
  194.3390  172.2970  143.6030 C   0  0  0  0  0  0  0  0  0  0  0  0
  187.3640  174.5400  141.5390 C   0  0  0  0  0  2  0  0  0  0  0  0
  187.4320  175.9230  142.2050 C   0  0  2  0  0  3  0  0  0  0  0  0
  189.5780  177.2180  142.0530 O   0  0  0  0  0  0  0  0  0  0  0  0
  188.8090  176.2540  142.6920 C   0  0  0  0  0  0  0  0  0  0  0  0
  189.2870  175.6260  143.6720 O   0  0  0  0  0  1  0  0  0  0  0  0
  186.3560  176.1770  143.2610 C   0  0  0  0  0  2  0  0  0  0  0  0
  185.2330  177.9680  144.5500 C   0  0  0  0  0  1  0  0  0  0  0  0
  185.8750  177.6200  143.2210 C   0  0  2  0  0  3  0  0  0  0  0  0
  183.6340  178.1470  142.3850 C   0  0  0  0  0  3  0  0  0  0  0  0
  184.8880  177.8010  142.1170 C   0  0  0  0  0  3  0  0  0  0  0  0
  182.9870  178.4890  140.1260 O   0  0  0  0  0  0  0  0  0  0  0  0
  181.1970  178.2890  141.6720 C   0  0  0  0  0  1  0  0  0  0  0  0
  182.6370  178.3240  141.3250 C   0  0  0  0  0  0  0  0  0  0  0  0
  1  6  1  6  0  0  0
  1  2  1  0  0  0  0
  1  5  1  0  0  0  0
  2  3  1  0  0  0  0
  3  4  1  0  0  0  0
  3 29  1  1  0  0  0
  5 44  1  6  0  0  0
  5  4  1  0  0  0  0
  7  8  1  6  0  0  0
  7  6  1  0  0  0  0
  9  7  1  0  0  0  0
 10  9  1  0  0  0  0
 11 10  1  0  0  0  0
 12 11  2  0  0  0  0
 15 25  1  1  0  0  0
 15 16  1  0  0  0  0
 16 13  1  1  0  0  0
 17 11  1  6  0  0  0
 17 16  1  0  0  0  0
 18 14  1  6  0  0  0
 18 19  1  0  0  0  0
 18 15  1  0  0  0  0
 19 14  1  6  0  0  0
 19 17  1  0  0  0  0
 21 22  1  0  0  0  0
 22 28  1  1  0  0  0
 22 26  1  0  0  0  0
 23 26  1  0  0  0  0
 23 20  1  1  0  0  0
 24 21  1  0  0  0  0
 25 24  1  1  0  0  0
 25 23  1  0  0  0  0
 26 20  1  1  0  0  0
 28 27  1  0  0  0  0
 29 30  1  0  0  0  0
 31 33  1  1  0  0  0
 32 31  1  0  0  0  0
 32 38  1  1  0  0  0
 34 36  1  0  0  0  0
 34 30  1  1  0  0  0
 34 37  1  0  0  0  0
 35 32  1  0  0  0  0
 36 35  1  6  0  0  0
 36 37  1  0  0  0  0
 36 31  1  0  0  0  0
 38 43  1  6  0  0  0
 38 39  1  0  0  0  0
 39 41  1  0  0  0  0
 40 39  2  0  0  0  0
 43 42  1  0  0  0  0
 44 45  1  0  0  0  0
 47 56  1  0  0  0  0
 48 58  1  1  0  0  0
 48 46  1  0  0  0  0
 49 48  1  0  0  0  0
 50 55  1  1  0  0  0
 50 46  1  0  0  0  0
 52 49  1  1  0  0  0
 52 47  1  0  0  0  0
 52 50  1  0  0  0  0
 53 51  1  0  0  0  0
 54 57  1  0  0  0  0
 55 53  2  0  0  0  0
 56 54  2  0  0  0  0
 56 55  1  0  0  0  0
 57 45  1  0  0  0  0
 57 51  2  0  0  0  0
 59 58  1  1  0  0  0
 59 61  1  0  0  0  0
 59 63  1  0  0  0  0
 60 61  2  0  0  0  0
 61 62  1  0  0  0  0
 65 63  1  0  0  0  0
 65 64  1  1  0  0  0
 67 66  2  0  0  0  0
 67 65  1  0  0  0  0
 68 70  2  0  0  0  0
 70 69  1  0  0  0  0
 70 66  1  0  0  0  0
M  END
>  <MODEL>
5

>  <REMARK>
 VINA RESULT:      -4.2      2.695      7.502
  Name = 
  24 active torsions:
  status: ('A' for Active; 'I' for Inactive)
    1  A    between atoms: C_1  and  C_25
    2  A    between atoms: C_1  and  C_34
    3  A    between atoms: C_1  and  C_62
    4  A    between atoms: C_4  and  C_29
    5  A    between atoms: C_4  and  C_33
    6  A    between atoms: C_6  and  C_8
    7  A    between atoms: N_7  and  C_36
    8  A    between atoms: N_7  and  C_69
    9  A    between atoms: C_8  and  C_11
   10  A    between atoms: C_8  and  S_48
   11  A    between atoms: C_9  and  C_44
   12  A    between atoms: C_12  and  O_27
   13  A    between atoms: C_12  and  C_41
   14  A    between atoms: C_18  and  C_62
   15  A    between atoms: C_21  and  C_61
   16  A    between atoms: C_26  and  C_29
   17  A    between atoms: O_27  and  C_53
   18  A    between atoms: C_31  and  C_34
   19  A    between atoms: C_31  and  C_58
   20  A    between atoms: C_32  and  C_44
   21  A    between atoms: C_32  and  C_53
   22  A    between atoms: C_36  and  C_65
   23  A    between atoms: C_40  and  C_67
   24  A    between atoms: C_51  and  C_57
                            x       y       z     vdW  Elec       q    Type
                         _______ _______ _______ _____ _____    ______ ____

>  <TORSDO>
F 24

$$$$
=
 OpenBabel11042419393D

 70 79  0  0  1  0  0  0  0  0999 V2000
  190.0550  174.8290  145.6040 C   0  0  2  0  0  3  0  0  0  0  0  0
  191.5380  175.0830  145.7660 C   0  0  0  0  0  2  0  0  0  0  0  0
  191.6930  176.5670  145.5950 C   0  0  1  0  0  3  0  0  0  0  0  0
  190.4000  177.3520  146.5980 S   0  0  0  0  0  0  0  0  0  0  0  0
  189.3300  175.8820  146.4320 C   0  0  1  0  0  3  0  0  0  0  0  0
  189.6620  173.4190  146.0410 C   0  0  0  0  0  2  0  0  0  0  0  0
  189.2530  172.5670  144.8470 C   0  0  1  0  0  3  0  0  0  0  0  0
  188.3160  173.2450  144.0800 F   0  0  0  0  0  0  0  0  0  0  0  0
  190.4760  172.2310  144.0030 C   0  0  0  0  0  2  0  0  0  0  0  0
  190.4460  172.9390  142.7660 O   0  0  0  0  0  0  0  0  0  0  0  0
  189.9540  172.3860  141.5800 C   0  0  0  0  0  0  0  0  0  0  0  0
  188.7190  172.4090  141.3250 O   0  0  0  0  0  0  0  0  0  0  0  0
  192.1730  173.8310  140.9150 O   0  0  0  0  0  1  0  0  0  0  0  0
  189.5460  172.4000  138.6640 O   0  0  0  0  0  0  0  0  0  0  0  0
  191.8620  172.9920  138.7000 C   0  0  2  0  0  3  0  0  0  0  0  0
  192.0770  172.6610  140.1610 C   0  0  2  0  0  3  0  0  0  0  0  0
  190.8990  171.7820  140.5790 C   0  0  2  0  0  3  0  0  0  0  0  0
  190.8070  172.0330  138.1620 C   0  0  1  0  0  3  0  0  0  0  0  0
  190.1850  171.3220  139.3080 C   0  0  2  0  0  3  0  0  0  0  0  0
  194.9410  171.2310  138.7640 C   0  0  0  0  0  2  0  0  0  0  0  0
  195.5650  173.8290  137.6750 C   0  0  0  0  0  2  0  0  0  0  0  0
  195.6530  172.6410  136.7120 C   0  0  2  0  0  3  0  0  0  0  0  0
  193.7030  171.4560  137.9050 C   0  0  1  0  0  3  0  0  0  0  0  0
  194.1970  173.9790  138.3500 C   0  0  0  0  0  2  0  0  0  0  0  0
  193.1750  172.9100  137.9160 C   0  0  2  0  0  3  0  0  0  0  0  0
  195.0750  171.3070  137.2500 C   0  0  2  0  0  3  0  0  0  0  0  0
  197.9390  173.2690  137.0370 O   0  0  0  0  0  1  0  0  0  0  0  0
  197.0950  172.4600  136.2720 C   0  0  0  0  0  2  0  0  0  0  0  0
  193.0910  177.0170  145.9880 C   0  0  0  0  0  2  0  0  0  0  0  0
  194.1560  176.4120  145.0750 C   0  0  0  0  0  2  0  0  0  0  0  0
  195.5690  174.4020  143.1500 C   0  0  1  0  0  3  0  0  0  0  0  0
  196.5770  173.2310  143.2830 C   0  0  1  0  0  3  0  0  0  0  0  0
  194.3850  174.0200  142.5090 O   0  0  0  0  0  1  0  0  0  0  0  0
  194.7470  175.1360  145.6730 C   0  0  2  0  0  3  0  0  0  0  0  0
  196.3650  173.1420  144.8070 C   0  0  0  0  0  2  0  0  0  0  0  0
  195.4520  174.3200  144.6540 C   0  0  2  0  0  0  0  0  0  0  0  0
  194.1460  174.0040  145.0880 O   0  0  0  0  0  0  0  0  0  0  0  0
  196.2330  171.9560  142.4910 C   0  0  1  0  0  3  0  0  0  0  0  0
  197.0950  171.7970  141.2800 C   0  0  0  0  0  0  0  0  0  0  0  0
  197.3710  172.8830  140.4530 O   0  0  0  0  0  0  0  0  0  0  0  0
  197.5960  170.6750  141.0190 O   0  0  0  0  0  1  0  0  0  0  0  0
  194.2350  170.2700  143.3100 C   0  0  0  0  0  1  0  0  0  0  0  0
  196.0420  170.3940  143.4540 S   0  0  0  0  0  0  0  0  0  0  0  0
  188.0410  176.2760  145.7330 C   0  0  0  0  0  2  0  0  0  0  0  0
  188.2640  176.3630  144.2990 N   0  0  0  0  0  2  0  0  0  0  0  0
  183.1990  177.0700  139.8550 S   0  0  0  0  0  0  0  0  0  0  0  0
  183.8170  178.2810  143.2610 N   0  0  0  0  0  2  0  0  0  0  0  0
  181.6980  177.5880  140.7050 C   0  0  2  0  0  3  0  0  0  0  0  0
  181.8860  178.2570  141.7910 N   0  0  0  0  0  2  0  0  0  0  0  0
  184.1130  178.2500  140.9070 C   0  0  1  0  0  3  0  0  0  0  0  0
  187.4730  176.7300  141.9810 C   0  0  0  0  0  3  0  0  0  0  0  0
  183.2240  178.5640  142.0220 N   0  0  2  0  0  0  0  0  0  0  0  0
  186.4820  177.1610  141.0810 C   0  0  0  0  0  3  0  0  0  0  0  0
  186.0480  177.3100  143.8760 C   0  0  0  0  0  3  0  0  0  0  0  0
  185.2870  177.6490  141.6050 C   0  0  0  0  0  0  0  0  0  0  0  0
  185.0880  177.7350  142.9620 C   0  0  0  0  0  0  0  0  0  0  0  0
  187.2610  176.8050  143.3780 C   0  0  0  0  0  0  0  0  0  0  0  0
  180.3150  177.1840  140.2870 C   0  0  0  0  0  2  0  0  0  0  0  0
  179.3400  178.3440  140.0370 C   0  0  2  0  0  3  0  0  0  0  0  0
  177.9300  179.1610  138.1270 O   0  0  0  0  0  0  0  0  0  0  0  0
  178.4560  178.1000  138.8530 C   0  0  0  0  0  0  0  0  0  0  0  0
  178.1600  176.9200  138.5320 O   0  0  0  0  0  1  0  0  0  0  0  0
  179.9880  179.7290  140.0130 C   0  0  0  0  0  2  0  0  0  0  0  0
  177.9590  180.0600  141.3920 C   0  0  0  0  0  1  0  0  0  0  0  0
  179.2570  180.6950  140.9330 C   0  0  2  0  0  3  0  0  0  0  0  0
  179.2060  182.0770  138.9110 C   0  0  0  0  0  3  0  0  0  0  0  0
  178.9720  181.9710  140.2130 C   0  0  0  0  0  3  0  0  0  0  0  0
  178.7440  183.3070  136.9330 O   0  0  0  0  0  0  0  0  0  0  0  0
  178.9040  184.6020  138.9170 C   0  0  0  0  0  1  0  0  0  0  0  0
  178.9460  183.3180  138.1770 C   0  0  0  0  0  0  0  0  0  0  0  0
  1  2  1  0  0  0  0
  1  6  1  1  0  0  0
  1  5  1  0  0  0  0
  3  2  1  0  0  0  0
  3 29  1  1  0  0  0
  3  4  1  0  0  0  0
  5 44  1  6  0  0  0
  5  4  1  0  0  0  0
  7  8  1  6  0  0  0
  7  6  1  0  0  0  0
  9  7  1  0  0  0  0
 10  9  1  0  0  0  0
 11 10  1  0  0  0  0
 12 11  2  0  0  0  0
 15 25  1  6  0  0  0
 15 16  1  0  0  0  0
 16 17  1  0  0  0  0
 16 13  1  1  0  0  0
 17 11  1  1  0  0  0
 18 14  1  1  0  0  0
 18 15  1  0  0  0  0
 18 19  1  0  0  0  0
 19 14  1  1  0  0  0
 19 17  1  0  0  0  0
 21 24  1  0  0  0  0
 22 28  1  1  0  0  0
 22 26  1  0  0  0  0
 22 21  1  0  0  0  0
 23 25  1  0  0  0  0
 23 20  1  1  0  0  0
 25 24  1  1  0  0  0
 26 23  1  0  0  0  0
 26 20  1  1  0  0  0
 28 27  1  0  0  0  0
 30 29  1  0  0  0  0
 31 33  1  6  0  0  0
 31 32  1  0  0  0  0
 31 36  1  0  0  0  0
 32 38  1  6  0  0  0
 32 35  1  0  0  0  0
 34 30  1  6  0  0  0
 36 35  1  1  0  0  0
 36 37  1  0  0  0  0
 36 34  1  0  0  0  0
 37 34  1  0  0  0  0
 38 39  1  6  0  0  0
 38 43  1  0  0  0  0
 40 39  2  0  0  0  0
 41 39  1  0  0  0  0
 42 43  1  0  0  0  0
 45 44  1  0  0  0  0
 46 48  1  0  0  0  0
 48 58  1  1  0  0  0
 48 49  1  0  0  0  0
 50 46  1  6  0  0  0
 50 55  1  0  0  0  0
 50 52  1  0  0  0  0
 51 57  1  0  0  0  0
 52 49  1  6  0  0  0
 52 47  1  0  0  0  0
 53 55  1  0  0  0  0
 53 51  2  0  0  0  0
 55 56  2  0  0  0  0
 56 47  1  0  0  0  0
 56 54  1  0  0  0  0
 57 54  2  0  0  0  0
 57 45  1  0  0  0  0
 59 63  1  6  0  0  0
 59 58  1  0  0  0  0
 60 61  2  0  0  0  0
 61 59  1  0  0  0  0
 62 61  1  0  0  0  0
 63 65  1  0  0  0  0
 65 64  1  6  0  0  0
 66 67  2  0  0  0  0
 67 65  1  0  0  0  0
 68 70  2  0  0  0  0
 70 66  1  0  0  0  0
 70 69  1  0  0  0  0
M  END
>  <MODEL>
6

>  <REMARK>
 VINA RESULT:      -3.9      4.933     10.312
  Name = 
  24 active torsions:
  status: ('A' for Active; 'I' for Inactive)
    1  A    between atoms: C_1  and  C_25
    2  A    between atoms: C_1  and  C_34
    3  A    between atoms: C_1  and  C_62
    4  A    between atoms: C_4  and  C_29
    5  A    between atoms: C_4  and  C_33
    6  A    between atoms: C_6  and  C_8
    7  A    between atoms: N_7  and  C_36
    8  A    between atoms: N_7  and  C_69
    9  A    between atoms: C_8  and  C_11
   10  A    between atoms: C_8  and  S_48
   11  A    between atoms: C_9  and  C_44
   12  A    between atoms: C_12  and  O_27
   13  A    between atoms: C_12  and  C_41
   14  A    between atoms: C_18  and  C_62
   15  A    between atoms: C_21  and  C_61
   16  A    between atoms: C_26  and  C_29
   17  A    between atoms: O_27  and  C_53
   18  A    between atoms: C_31  and  C_34
   19  A    between atoms: C_31  and  C_58
   20  A    between atoms: C_32  and  C_44
   21  A    between atoms: C_32  and  C_53
   22  A    between atoms: C_36  and  C_65
   23  A    between atoms: C_40  and  C_67
   24  A    between atoms: C_51  and  C_57
                            x       y       z     vdW  Elec       q    Type
                         _______ _______ _______ _____ _____    ______ ____

>  <TORSDO>
F 24

$$$$
=
 OpenBabel11042419393D

 70 79  0  0  1  0  0  0  0  0999 V2000
  189.5510  177.3930  144.7490 C   0  0  2  0  0  3  0  0  0  0  0  0
  190.7670  177.3160  145.6460 C   0  0  0  0  0  2  0  0  0  0  0  0
  190.3300  176.4770  146.8120 C   0  0  1  0  0  3  0  0  0  0  0  0
  189.4630  175.0350  146.1290 S   0  0  0  0  0  0  0  0  0  0  0  0
  188.9850  175.9830  144.6440 C   0  0  1  0  0  3  0  0  0  0  0  0
  189.8880  177.9550  143.3690 C   0  0  0  0  0  2  0  0  0  0  0  0
  191.0740  177.2260  142.7540 C   0  0  1  0  0  3  0  0  0  0  0  0
  192.2600  177.7370  143.2630 F   0  0  0  0  0  0  0  0  0  0  0  0
  190.9790  175.7340  143.0460 C   0  0  0  0  0  2  0  0  0  0  0  0
  191.0560  174.9770  141.8400 O   0  0  0  0  0  0  0  0  0  0  0  0
  191.3990  173.6220  141.8080 C   0  0  0  0  0  0  0  0  0  0  0  0
  191.4100  172.9890  140.7190 O   0  0  0  0  0  0  0  0  0  0  0  0
  193.8660  172.4530  141.8870 O   0  0  0  0  0  1  0  0  0  0  0  0
  190.5180  170.9130  142.5510 O   0  0  0  0  0  0  0  0  0  0  0  0
  192.8260  170.7110  143.1480 C   0  0  2  0  0  3  0  0  0  0  0  0
  193.1350  172.1890  143.0460 C   0  0  2  0  0  3  0  0  0  0  0  0
  191.7880  172.9110  143.0750 C   0  0  2  0  0  3  0  0  0  0  0  0
  191.3790  170.5750  143.6100 C   0  0  1  0  0  3  0  0  0  0  0  0
  190.7290  171.9070  143.5270 C   0  0  2  0  0  3  0  0  0  0  0  0
  195.2780  171.5060  145.5840 C   0  0  0  0  0  2  0  0  0  0  0  0
  196.1800  169.0540  144.3570 C   0  0  0  0  0  2  0  0  0  0  0  0
  195.7050  168.9610  145.8100 C   0  0  2  0  0  3  0  0  0  0  0  0
  193.9410  170.7940  145.4120 C   0  0  1  0  0  3  0  0  0  0  0  0
  195.1350  169.6380  143.4000 C   0  0  0  0  0  2  0  0  0  0  0  0
  193.8050  170.0050  144.0890 C   0  0  2  0  0  3  0  0  0  0  0  0
  194.9970  170.2260  146.3590 C   0  0  2  0  0  3  0  0  0  0  0  0
  196.4370  168.3410  148.0020 O   0  0  0  0  0  1  0  0  0  0  0  0
  196.8770  168.5780  146.6970 C   0  0  0  0  0  2  0  0  0  0  0  0
  191.5180  176.0870  147.6780 C   0  0  0  0  0  2  0  0  0  0  0  0
  192.6210  175.4230  146.8560 C   0  0  0  0  0  2  0  0  0  0  0  0
  194.1740  175.7980  144.1750 C   0  0  1  0  0  3  0  0  0  0  0  0
  195.2500  176.7690  143.6200 C   0  0  1  0  0  3  0  0  0  0  0  0
  194.5680  174.4570  144.0930 O   0  0  0  0  0  1  0  0  0  0  0  0
  193.9090  176.2440  146.8790 C   0  0  2  0  0  3  0  0  0  0  0  0
  195.5850  177.2970  145.0290 C   0  0  0  0  0  2  0  0  0  0  0  0
  194.4910  176.4010  145.5230 C   0  0  2  0  0  0  0  0  0  0  0  0
  194.9930  175.4560  146.4450 O   0  0  0  0  0  0  0  0  0  0  0  0
  196.4190  176.1120  142.8620 C   0  0  1  0  0  3  0  0  0  0  0  0
  197.0080  174.9680  143.6200 C   0  0  0  0  0  0  0  0  0  0  0  0
  196.7110  173.6520  143.2710 O   0  0  0  0  0  0  0  0  0  0  0  0
  197.8010  175.1940  144.5670 O   0  0  0  0  0  1  0  0  0  0  0  0
  194.4320  176.3070  140.9850 C   0  0  0  0  0  1  0  0  0  0  0  0
  196.1560  175.7380  141.0750 S   0  0  0  0  0  0  0  0  0  0  0  0
  187.4700  176.0510  144.5580 C   0  0  0  0  0  2  0  0  0  0  0  0
  187.0730  176.5530  143.2530 N   0  0  0  0  0  2  0  0  0  0  0  0
  189.6750  173.8300  137.6200 S   0  0  0  0  0  0  0  0  0  0  0  0
  188.2520  172.4670  140.7140 N   0  0  0  0  0  2  0  0  0  0  0  0
  190.1460  172.1180  137.9210 C   0  0  2  0  0  3  0  0  0  0  0  0
  189.4730  171.5180  138.8430 N   0  0  0  0  0  2  0  0  0  0  0  0
  188.1560  173.5030  138.5810 C   0  0  1  0  0  3  0  0  0  0  0  0
  187.3150  176.5310  140.7880 C   0  0  0  0  0  3  0  0  0  0  0  0
  188.4140  172.2780  139.3340 N   0  0  2  0  0  0  0  0  0  0  0  0
  187.5910  175.8450  139.5920 C   0  0  0  0  0  3  0  0  0  0  0  0
  187.6650  174.4900  142.0780 C   0  0  0  0  0  3  0  0  0  0  0  0
  187.9100  174.4910  139.6720 C   0  0  0  0  0  0  0  0  0  0  0  0
  187.9290  173.8340  140.8780 C   0  0  0  0  0  0  0  0  0  0  0  0
  187.3480  175.8580  142.0320 C   0  0  0  0  0  0  0  0  0  0  0  0
  191.3130  171.4420  137.2650 C   0  0  0  0  0  2  0  0  0  0  0  0
  192.5780  172.3030  137.1300 C   0  0  2  0  0  3  0  0  0  0  0  0
  193.9660  173.2940  135.2870 O   0  0  0  0  0  1  0  0  0  0  0  0
  192.7230  172.8910  135.7600 C   0  0  0  0  0  0  0  0  0  0  0  0
  191.7030  173.0520  135.0430 O   0  0  0  0  0  0  0  0  0  0  0  0
  193.8620  171.6340  137.6240 C   0  0  0  0  0  2  0  0  0  0  0  0
  195.1140  173.7040  138.1490 C   0  0  0  0  0  1  0  0  0  0  0  0
  194.5110  172.4430  138.7370 C   0  0  2  0  0  3  0  0  0  0  0  0
  195.5700  170.3110  139.3140 C   0  0  0  0  0  3  0  0  0  0  0  0
  195.5730  171.6360  139.4050 C   0  0  0  0  0  3  0  0  0  0  0  0
  197.8150  169.7830  139.8790 O   0  0  0  0  0  0  0  0  0  0  0  0
  196.1760  168.3030  140.7520 C   0  0  0  0  0  1  0  0  0  0  0  0
  196.5930  169.4890  139.9650 C   0  0  0  0  0  0  0  0  0  0  0  0
  1  6  1  6  0  0  0
  1  2  1  0  0  0  0
  2  3  1  0  0  0  0
  3 29  1  6  0  0  0
  4  3  1  0  0  0  0
  5 44  1  1  0  0  0
  5  1  1  0  0  0  0
  5  4  1  0  0  0  0
  7  9  1  0  0  0  0
  7  8  1  1  0  0  0
  7  6  1  0  0  0  0
 10  9  1  0  0  0  0
 11 10  1  0  0  0  0
 12 11  2  0  0  0  0
 15 18  1  0  0  0  0
 15 25  1  1  0  0  0
 16 13  1  6  0  0  0
 16 17  1  0  0  0  0
 16 15  1  0  0  0  0
 17 11  1  6  0  0  0
 17 19  1  0  0  0  0
 18 14  1  6  0  0  0
 19 14  1  6  0  0  0
 19 18  1  0  0  0  0
 21 22  1  0  0  0  0
 22 26  1  0  0  0  0
 22 28  1  1  0  0  0
 23 20  1  6  0  0  0
 23 26  1  0  0  0  0
 24 21  1  0  0  0  0
 25 24  1  6  0  0  0
 25 23  1  0  0  0  0
 26 20  1  6  0  0  0
 28 27  1  0  0  0  0
 30 29  1  0  0  0  0
 31 33  1  1  0  0  0
 31 36  1  0  0  0  0
 32 38  1  1  0  0  0
 32 31  1  0  0  0  0
 32 35  1  0  0  0  0
 34 30  1  6  0  0  0
 36 35  1  6  0  0  0
 36 37  1  0  0  0  0
 36 34  1  0  0  0  0
 37 34  1  0  0  0  0
 38 43  1  6  0  0  0
 38 39  1  0  0  0  0
 39 41  1  0  0  0  0
 40 39  2  0  0  0  0
 42 43  1  0  0  0  0
 45 44  1  0  0  0  0
 46 48  1  0  0  0  0
 47 56  1  0  0  0  0
 48 58  1  1  0  0  0
 48 49  1  0  0  0  0
 50 46  1  1  0  0  0
 50 52  1  0  0  0  0
 50 55  1  0  0  0  0
 51 57  1  0  0  0  0
 52 49  1  1  0  0  0
 52 47  1  0  0  0  0
 53 55  1  0  0  0  0
 53 51  2  0  0  0  0
 55 56  2  0  0  0  0
 56 54  1  0  0  0  0
 57 54  2  0  0  0  0
 57 45  1  0  0  0  0
 59 58  1  6  0  0  0
 59 63  1  0  0  0  0
 60 61  1  0  0  0  0
 61 59  1  0  0  0  0
 62 61  2  0  0  0  0
 63 65  1  0  0  0  0
 65 64  1  6  0  0  0
 65 67  1  0  0  0  0
 66 67  2  0  0  0  0
 66 70  1  0  0  0  0
 68 70  2  0  0  0  0
 70 69  1  0  0  0  0
M  END
>  <MODEL>
7

>  <REMARK>
 VINA RESULT:      -3.9      3.071      9.997
  Name = 
  24 active torsions:
  status: ('A' for Active; 'I' for Inactive)
    1  A    between atoms: C_1  and  C_25
    2  A    between atoms: C_1  and  C_34
    3  A    between atoms: C_1  and  C_62
    4  A    between atoms: C_4  and  C_29
    5  A    between atoms: C_4  and  C_33
    6  A    between atoms: C_6  and  C_8
    7  A    between atoms: N_7  and  C_36
    8  A    between atoms: N_7  and  C_69
    9  A    between atoms: C_8  and  C_11
   10  A    between atoms: C_8  and  S_48
   11  A    between atoms: C_9  and  C_44
   12  A    between atoms: C_12  and  O_27
   13  A    between atoms: C_12  and  C_41
   14  A    between atoms: C_18  and  C_62
   15  A    between atoms: C_21  and  C_61
   16  A    between atoms: C_26  and  C_29
   17  A    between atoms: O_27  and  C_53
   18  A    between atoms: C_31  and  C_34
   19  A    between atoms: C_31  and  C_58
   20  A    between atoms: C_32  and  C_44
   21  A    between atoms: C_32  and  C_53
   22  A    between atoms: C_36  and  C_65
   23  A    between atoms: C_40  and  C_67
   24  A    between atoms: C_51  and  C_57
                            x       y       z     vdW  Elec       q    Type
                         _______ _______ _______ _____ _____    ______ ____

>  <TORSDO>
F 24

$$$$
=
 OpenBabel11042419393D

 70 79  0  0  1  0  0  0  0  0999 V2000
  190.5120  172.6790  140.0410 C   0  0  2  0  0  3  0  0  0  0  0  0
  190.5770  173.7680  141.0900 C   0  0  0  0  0  2  0  0  0  0  0  0
  189.5140  174.7490  140.6880 C   0  0  1  0  0  3  0  0  0  0  0  0
  188.0260  173.7860  140.2970 S   0  0  0  0  0  0  0  0  0  0  0  0
  189.0410  172.3380  139.8440 C   0  0  1  0  0  3  0  0  0  0  0  0
  191.3140  171.4430  140.4450 C   0  0  0  0  0  2  0  0  0  0  0  0
  192.7410  171.5160  139.9190 C   0  0  1  0  0  3  0  0  0  0  0  0
  192.8060  172.3960  138.8480 F   0  0  0  0  0  0  0  0  0  0  0  0
  193.6820  171.9700  141.0270 C   0  0  0  0  0  2  0  0  0  0  0  0
  194.1200  170.8590  141.8060 O   0  0  0  0  0  0  0  0  0  0  0  0
  193.6240  170.5750  143.0820 C   0  0  0  0  0  0  0  0  0  0  0  0
  193.0240  169.4900  143.3110 O   0  0  0  0  0  0  0  0  0  0  0  0
  191.3960  171.7180  144.1720 O   0  0  0  0  0  1  0  0  0  0  0  0
  194.4240  173.3880  142.7360 O   0  0  0  0  0  0  0  0  0  0  0  0
  192.7050  173.7060  144.3670 C   0  0  2  0  0  3  0  0  0  0  0  0
  192.5650  172.2430  144.7240 C   0  0  2  0  0  3  0  0  0  0  0  0
  193.8270  171.5530  144.2060 C   0  0  2  0  0  3  0  0  0  0  0  0
  194.1630  173.9520  143.9960 C   0  0  1  0  0  3  0  0  0  0  0  0
  194.8430  172.6400  143.8540 C   0  0  2  0  0  3  0  0  0  0  0  0
  190.2200  176.1430  145.0560 C   0  0  0  0  0  2  0  0  0  0  0  0
  192.4970  176.8920  146.6630 C   0  0  0  0  0  2  0  0  0  0  0  0
  191.2680  176.3710  147.4130 C   0  0  2  0  0  3  0  0  0  0  0  0
  190.7010  174.7620  145.4850 C   0  0  1  0  0  3  0  0  0  0  0  0
  193.0360  175.9210  145.6060 C   0  0  0  0  0  2  0  0  0  0  0  0
  192.2390  174.6030  145.5170 C   0  0  2  0  0  3  0  0  0  0  0  0
  190.1640  175.7450  146.5240 C   0  0  2  0  0  3  0  0  0  0  0  0
  191.5630  177.7760  149.3260 O   0  0  0  0  0  1  0  0  0  0  0  0
  190.6950  177.4850  148.2710 C   0  0  0  0  0  2  0  0  0  0  0  0
  189.2750  175.7720  141.7880 C   0  0  0  0  0  2  0  0  0  0  0  0
  188.2470  176.8210  141.3680 C   0  0  0  0  0  2  0  0  0  0  0  0
  186.6360  176.5840  144.0310 C   0  0  1  0  0  3  0  0  0  0  0  0
  186.6120  177.3090  145.4030 C   0  0  1  0  0  3  0  0  0  0  0  0
  185.3880  176.5880  143.4000 O   0  0  0  0  0  1  0  0  0  0  0  0
  188.2470  178.0170  142.3180 C   0  0  2  0  0  3  0  0  0  0  0  0
  187.4420  178.4890  144.8620 C   0  0  0  0  0  2  0  0  0  0  0  0
  187.5080  177.7300  143.5720 C   0  0  2  0  0  0  0  0  0  0  0  0
  186.9300  178.4740  142.5210 O   0  0  0  0  0  0  0  0  0  0  0  0
  185.2170  177.6730  145.9440 C   0  0  1  0  0  3  0  0  0  0  0  0
  185.1200  177.4830  147.4230 C   0  0  0  0  0  0  0  0  0  0  0  0
  185.9130  176.5410  148.0750 O   0  0  0  0  0  0  0  0  0  0  0  0
  184.3320  178.1980  148.0900 O   0  0  0  0  0  1  0  0  0  0  0  0
  183.4140  178.5580  144.0800 C   0  0  0  0  0  1  0  0  0  0  0  0
  184.4820  179.2650  145.3700 S   0  0  0  0  0  0  0  0  0  0  0  0
  188.7940  171.9880  138.3870 C   0  0  0  0  0  2  0  0  0  0  0  0
  188.8580  173.1910  137.5730 N   0  0  0  0  0  2  0  0  0  0  0  0
  194.8390  175.5730  135.4630 S   0  0  0  0  0  0  0  0  0  0  0  0
  193.2880  172.2510  135.5680 N   0  0  0  0  0  2  0  0  0  0  0  0
  196.0340  174.2310  135.3470 C   0  0  2  0  0  3  0  0  0  0  0  0
  195.5300  173.0660  135.1190 N   0  0  0  0  0  2  0  0  0  0  0  0
  193.6100  174.4440  134.7200 C   0  0  1  0  0  3  0  0  0  0  0  0
  190.1930  174.9200  136.4080 C   0  0  0  0  0  3  0  0  0  0  0  0
  194.1600  173.0990  134.8700 N   0  0  2  0  0  0  0  0  0  0  0  0
  191.3520  175.3080  135.7120 C   0  0  0  0  0  3  0  0  0  0  0  0
  191.0420  172.6420  136.6170 C   0  0  0  0  0  3  0  0  0  0  0  0
  192.3380  174.3470  135.4930 C   0  0  0  0  0  0  0  0  0  0  0  0
  192.1750  173.0510  135.9200 C   0  0  0  0  0  0  0  0  0  0  0  0
  190.0330  173.5890  136.8590 C   0  0  0  0  0  0  0  0  0  0  0  0
  197.5010  174.3880  135.6190 C   0  0  0  0  0  2  0  0  0  0  0  0
  197.9010  174.3360  137.1010 C   0  0  2  0  0  3  0  0  0  0  0  0
  197.7580  172.8060  139.0880 O   0  0  0  0  0  1  0  0  0  0  0  0
  197.6360  172.9960  137.7170 C   0  0  0  0  0  0  0  0  0  0  0  0
  197.3310  172.0240  136.9790 O   0  0  0  0  0  0  0  0  0  0  0  0
  197.3660  175.4900  137.9490 C   0  0  0  0  0  2  0  0  0  0  0  0
  195.0890  175.3900  138.9140 C   0  0  0  0  0  1  0  0  0  0  0  0
  196.5340  174.9790  139.1150 C   0  0  2  0  0  3  0  0  0  0  0  0
  196.6010  175.0840  141.5610 C   0  0  0  0  0  3  0  0  0  0  0  0
  197.0480  175.5410  140.3980 C   0  0  0  0  0  3  0  0  0  0  0  0
  196.8750  176.8250  143.1530 O   0  0  0  0  0  0  0  0  0  0  0  0
  197.7960  174.7270  143.7780 C   0  0  0  0  0  1  0  0  0  0  0  0
  197.0790  175.6220  142.8380 C   0  0  0  0  0  0  0  0  0  0  0  0
  1  6  1  1  0  0  0
  1  2  1  0  0  0  0
  3  2  1  0  0  0  0
  3 29  1  1  0  0  0
  4  3  1  0  0  0  0
  5 44  1  6  0  0  0
  5  1  1  0  0  0  0
  5  4  1  0  0  0  0
  7  8  1  6  0  0  0
  7  6  1  0  0  0  0
  7  9  1  0  0  0  0
  9 10  1  0  0  0  0
 10 11  1  0  0  0  0
 11 12  2  0  0  0  0
 15 16  1  0  0  0  0
 15 25  1  1  0  0  0
 16 13  1  6  0  0  0
 17 11  1  6  0  0  0
 17 16  1  0  0  0  0
 18 14  1  6  0  0  0
 18 15  1  0  0  0  0
 19 14  1  6  0  0  0
 19 18  1  0  0  0  0
 19 17  1  0  0  0  0
 21 22  1  0  0  0  0
 22 28  1  6  0  0  0
 23 20  1  6  0  0  0
 23 25  1  0  0  0  0
 23 26  1  0  0  0  0
 24 21  1  0  0  0  0
 25 24  1  6  0  0  0
 26 20  1  6  0  0  0
 26 22  1  0  0  0  0
 28 27  1  0  0  0  0
 30 29  1  0  0  0  0
 31 33  1  6  0  0  0
 31 32  1  0  0  0  0
 32 38  1  6  0  0  0
 34 30  1  6  0  0  0
 34 37  1  0  0  0  0
 34 36  1  0  0  0  0
 35 32  1  0  0  0  0
 36 31  1  0  0  0  0
 36 35  1  1  0  0  0
 37 36  1  0  0  0  0
 38 43  1  1  0  0  0
 38 39  1  0  0  0  0
 39 40  2  0  0  0  0
 39 41  1  0  0  0  0
 42 43  1  0  0  0  0
 45 44  1  0  0  0  0
 47 56  1  0  0  0  0
 48 46  1  0  0  0  0
 48 58  1  1  0  0  0
 49 48  1  0  0  0  0
 50 52  1  0  0  0  0
 50 46  1  1  0  0  0
 50 55  1  0  0  0  0
 51 57  1  0  0  0  0
 52 49  1  1  0  0  0
 52 47  1  0  0  0  0
 53 51  2  0  0  0  0
 54 57  2  0  0  0  0
 55 53  1  0  0  0  0
 55 56  2  0  0  0  0
 56 54  1  0  0  0  0
 57 45  1  0  0  0  0
 59 58  1  6  0  0  0
 59 61  1  0  0  0  0
 59 63  1  0  0  0  0
 61 60  1  0  0  0  0
 62 61  2  0  0  0  0
 63 65  1  0  0  0  0
 65 64  1  6  0  0  0
 65 67  1  0  0  0  0
 66 70  1  0  0  0  0
 67 66  2  0  0  0  0
 70 68  2  0  0  0  0
 70 69  1  0  0  0  0
M  END
>  <MODEL>
8

>  <REMARK>
 VINA RESULT:      -3.8      3.021      9.111
  Name = 
  24 active torsions:
  status: ('A' for Active; 'I' for Inactive)
    1  A    between atoms: C_1  and  C_25
    2  A    between atoms: C_1  and  C_34
    3  A    between atoms: C_1  and  C_62
    4  A    between atoms: C_4  and  C_29
    5  A    between atoms: C_4  and  C_33
    6  A    between atoms: C_6  and  C_8
    7  A    between atoms: N_7  and  C_36
    8  A    between atoms: N_7  and  C_69
    9  A    between atoms: C_8  and  C_11
   10  A    between atoms: C_8  and  S_48
   11  A    between atoms: C_9  and  C_44
   12  A    between atoms: C_12  and  O_27
   13  A    between atoms: C_12  and  C_41
   14  A    between atoms: C_18  and  C_62
   15  A    between atoms: C_21  and  C_61
   16  A    between atoms: C_26  and  C_29
   17  A    between atoms: O_27  and  C_53
   18  A    between atoms: C_31  and  C_34
   19  A    between atoms: C_31  and  C_58
   20  A    between atoms: C_32  and  C_44
   21  A    between atoms: C_32  and  C_53
   22  A    between atoms: C_36  and  C_65
   23  A    between atoms: C_40  and  C_67
   24  A    between atoms: C_51  and  C_57
                            x       y       z     vdW  Elec       q    Type
                         _______ _______ _______ _____ _____    ______ ____

>  <TORSDO>
F 24

$$$$
=
 OpenBabel11042419393D

 70 79  0  0  1  0  0  0  0  0999 V2000
  190.0550  174.8290  145.6040 C   0  0  2  0  0  3  0  0  0  0  0  0
  191.5380  175.0830  145.7660 C   0  0  0  0  0  2  0  0  0  0  0  0
  191.6930  176.5670  145.5950 C   0  0  1  0  0  3  0  0  0  0  0  0
  190.4000  177.3520  146.5980 S   0  0  0  0  0  0  0  0  0  0  0  0
  189.3300  175.8820  146.4320 C   0  0  1  0  0  3  0  0  0  0  0  0
  189.6620  173.4190  146.0410 C   0  0  0  0  0  2  0  0  0  0  0  0
  189.0380  172.6410  144.8910 C   0  0  1  0  0  3  0  0  0  0  0  0
  188.1870  173.4640  144.1680 F   0  0  0  0  0  0  0  0  0  0  0  0
  190.1290  172.0890  143.9820 C   0  0  0  0  0  2  0  0  0  0  0  0
  190.3520  172.9600  142.8750 O   0  0  0  0  0  0  0  0  0  0  0  0
  189.5070  173.0140  141.7620 C   0  0  0  0  0  0  0  0  0  0  0  0
  188.6550  173.9360  141.6490 O   0  0  0  0  0  0  0  0  0  0  0  0
  191.9530  172.7040  140.5890 O   0  0  0  0  0  1  0  0  0  0  0  0
  188.6510  173.4170  138.9740 O   0  0  0  0  0  0  0  0  0  0  0  0
  190.7560  172.3640  138.5500 C   0  0  2  0  0  3  0  0  0  0  0  0
  190.9850  171.9100  139.9750 C   0  0  2  0  0  3  0  0  0  0  0  0
  189.6260  171.9860  140.6710 C   0  0  2  0  0  3  0  0  0  0  0  0
  189.2540  172.3430  138.2960 C   0  0  1  0  0  3  0  0  0  0  0  0
  188.5570  172.1550  139.5930 C   0  0  2  0  0  3  0  0  0  0  0  0
  190.3470  169.3410  136.7410 C   0  0  0  0  0  2  0  0  0  0  0  0
  193.1740  169.5290  137.2920 C   0  0  0  0  0  2  0  0  0  0  0  0
  192.7450  169.7000  135.8320 C   0  0  2  0  0  3  0  0  0  0  0  0
  190.5500  170.8390  136.5480 C   0  0  1  0  0  3  0  0  0  0  0  0
  192.4960  170.5110  138.2550 C   0  0  0  0  0  2  0  0  0  0  0  0
  191.5250  171.4860  137.5590 C   0  0  2  0  0  3  0  0  0  0  0  0
  191.2200  169.8450  135.6000 C   0  0  2  0  0  3  0  0  0  0  0  0
  194.6210  168.8270  134.6310 O   0  0  0  0  0  1  0  0  0  0  0  0
  193.3040  168.5530  135.0090 C   0  0  0  0  0  2  0  0  0  0  0  0
  193.0910  177.0170  145.9880 C   0  0  0  0  0  2  0  0  0  0  0  0
  194.1300  176.6060  144.9460 C   0  0  0  0  0  2  0  0  0  0  0  0
  195.7190  175.8260  142.3750 C   0  0  1  0  0  3  0  0  0  0  0  0
  195.9050  174.5540  141.5060 C   0  0  1  0  0  3  0  0  0  0  0  0
  195.2610  176.9210  141.6330 O   0  0  0  0  0  1  0  0  0  0  0  0
  193.6920  175.3590  144.1800 C   0  0  2  0  0  3  0  0  0  0  0  0
  194.6940  173.8590  142.1580 C   0  0  0  0  0  2  0  0  0  0  0  0
  194.5850  175.0720  143.0310 C   0  0  2  0  0  0  0  0  0  0  0  0
  193.3340  175.7030  142.8620 O   0  0  0  0  0  0  0  0  0  0  0  0
  195.8100  174.7630  139.9840 C   0  0  1  0  0  3  0  0  0  0  0  0
  197.0110  175.4610  139.4350 C   0  0  0  0  0  0  0  0  0  0  0  0
  197.9170  176.0940  140.2840 O   0  0  0  0  0  1  0  0  0  0  0  0
  197.2200  175.4570  138.1970 O   0  0  0  0  0  0  0  0  0  0  0  0
  196.8120  172.3420  139.1810 C   0  0  0  0  0  1  0  0  0  0  0  0
  195.2900  173.3120  138.9680 S   0  0  0  0  0  0  0  0  0  0  0  0
  188.0410  176.2760  145.7330 C   0  0  0  0  0  2  0  0  0  0  0  0
  188.2710  176.3920  144.3020 N   0  0  0  0  0  2  0  0  0  0  0  0
  183.2280  177.3000  139.8690 S   0  0  0  0  0  0  0  0  0  0  0  0
  183.8760  178.4400  143.2950 N   0  0  0  0  0  2  0  0  0  0  0  0
  181.7410  177.8430  140.7270 C   0  0  2  0  0  3  0  0  0  0  0  0
  181.9450  178.4890  141.8240 N   0  0  0  0  0  2  0  0  0  0  0  0
  184.1720  178.4400  140.9410 C   0  0  1  0  0  3  0  0  0  0  0  0
  187.4910  176.8170  141.9910 C   0  0  0  0  0  3  0  0  0  0  0  0
  183.2910  178.7580  142.0610 N   0  0  2  0  0  0  0  0  0  0  0  0
  186.5120  177.2870  141.0970 C   0  0  0  0  0  3  0  0  0  0  0  0
  186.0800  177.4020  143.8940 C   0  0  0  0  0  3  0  0  0  0  0  0
  185.3300  177.7980  141.6290 C   0  0  0  0  0  0  0  0  0  0  0  0
  185.1320  177.8660  142.9870 C   0  0  0  0  0  0  0  0  0  0  0  0
  187.2810  176.8750  143.3880 C   0  0  0  0  0  0  0  0  0  0  0  0
  180.3480  177.4810  140.3030 C   0  0  0  0  0  2  0  0  0  0  0  0
  179.4440  178.6680  139.9410 C   0  0  2  0  0  3  0  0  0  0  0  0
  178.5070  179.6390  137.8230 O   0  0  0  0  0  0  0  0  0  0  0  0
  178.8260  178.5210  138.5840 C   0  0  0  0  0  0  0  0  0  0  0  0
  178.5640  177.3730  138.1430 O   0  0  0  0  0  1  0  0  0  0  0  0
  180.0780  180.0430  140.1540 C   0  0  0  0  0  2  0  0  0  0  0  0
  177.8960  180.2050  141.3120 C   0  0  0  0  0  1  0  0  0  0  0  0
  179.1360  180.9750  140.9000 C   0  0  2  0  0  3  0  0  0  0  0  0
  179.6740  182.7690  139.3220 C   0  0  0  0  0  3  0  0  0  0  0  0
  178.7530  182.1240  140.0280 C   0  0  0  0  0  3  0  0  0  0  0  0
  179.9790  184.1380  137.4060 O   0  0  0  0  0  0  0  0  0  0  0  0
  178.2000  184.7840  138.8400 C   0  0  0  0  0  1  0  0  0  0  0  0
  179.3340  183.9070  138.4630 C   0  0  0  0  0  0  0  0  0  0  0  0
  1  2  1  0  0  0  0
  1  6  1  1  0  0  0
  1  5  1  0  0  0  0
  3  2  1  0  0  0  0
  3 29  1  1  0  0  0
  3  4  1  0  0  0  0
  5 44  1  6  0  0  0
  5  4  1  0  0  0  0
  7  8  1  6  0  0  0
  7  6  1  0  0  0  0
  9  7  1  0  0  0  0
 10  9  1  0  0  0  0
 11 10  1  0  0  0  0
 12 11  2  0  0  0  0
 15 25  1  6  0  0  0
 15 16  1  0  0  0  0
 16 13  1  1  0  0  0
 16 17  1  0  0  0  0
 17 11  1  1  0  0  0
 18 15  1  0  0  0  0
 18 14  1  1  0  0  0
 18 19  1  0  0  0  0
 19 14  1  1  0  0  0
 19 17  1  0  0  0  0
 21 24  1  0  0  0  0
 22 28  1  6  0  0  0
 22 21  1  0  0  0  0
 23 20  1  1  0  0  0
 23 25  1  0  0  0  0
 25 24  1  1  0  0  0
 26 22  1  0  0  0  0
 26 23  1  0  0  0  0
 26 20  1  1  0  0  0
 27 28  1  0  0  0  0
 30 29  1  0  0  0  0
 31 33  1  6  0  0  0
 31 36  1  0  0  0  0
 32 38  1  6  0  0  0
 32 35  1  0  0  0  0
 32 31  1  0  0  0  0
 34 30  1  1  0  0  0
 36 35  1  6  0  0  0
 36 34  1  0  0  0  0
 37 36  1  0  0  0  0
 37 34  1  0  0  0  0
 38 43  1  6  0  0  0
 39 38  1  0  0  0  0
 39 40  1  0  0  0  0
 41 39  2  0  0  0  0
 43 42  1  0  0  0  0
 45 44  1  0  0  0  0
 46 48  1  0  0  0  0
 48 58  1  1  0  0  0
 48 49  1  0  0  0  0
 50 46  1  6  0  0  0
 50 55  1  0  0  0  0
 50 52  1  0  0  0  0
 51 57  1  0  0  0  0
 52 49  1  6  0  0  0
 52 47  1  0  0  0  0
 53 55  1  0  0  0  0
 53 51  2  0  0  0  0
 55 56  2  0  0  0  0
 56 47  1  0  0  0  0
 56 54  1  0  0  0  0
 57 54  2  0  0  0  0
 57 45  1  0  0  0  0
 59 63  1  6  0  0  0
 59 58  1  0  0  0  0
 60 61  2  0  0  0  0
 61 59  1  0  0  0  0
 62 61  1  0  0  0  0
 63 65  1  0  0  0  0
 65 64  1  6  0  0  0
 66 67  2  0  0  0  0
 67 65  1  0  0  0  0
 68 70  2  0  0  0  0
 70 69  1  0  0  0  0
 70 66  1  0  0  0  0
M  END
>  <MODEL>
9

>  <REMARK>
 VINA RESULT:      -3.4      4.993     10.215
  Name = 
  24 active torsions:
  status: ('A' for Active; 'I' for Inactive)
    1  A    between atoms: C_1  and  C_25
    2  A    between atoms: C_1  and  C_34
    3  A    between atoms: C_1  and  C_62
    4  A    between atoms: C_4  and  C_29
    5  A    between atoms: C_4  and  C_33
    6  A    between atoms: C_6  and  C_8
    7  A    between atoms: N_7  and  C_36
    8  A    between atoms: N_7  and  C_69
    9  A    between atoms: C_8  and  C_11
   10  A    between atoms: C_8  and  S_48
   11  A    between atoms: C_9  and  C_44
   12  A    between atoms: C_12  and  O_27
   13  A    between atoms: C_12  and  C_41
   14  A    between atoms: C_18  and  C_62
   15  A    between atoms: C_21  and  C_61
   16  A    between atoms: C_26  and  C_29
   17  A    between atoms: O_27  and  C_53
   18  A    between atoms: C_31  and  C_34
   19  A    between atoms: C_31  and  C_58
   20  A    between atoms: C_32  and  C_44
   21  A    between atoms: C_32  and  C_53
   22  A    between atoms: C_36  and  C_65
   23  A    between atoms: C_40  and  C_67
   24  A    between atoms: C_51  and  C_57
                            x       y       z     vdW  Elec       q    Type
                         _______ _______ _______ _____ _____    ______ ____

>  <TORSDO>
F 24

$$$$
