=
 OpenBabel11042413513D

 25 26  0  0  1  0  0  0  0  0999 V2000
  188.7060  175.5960  142.1810 C   0  0  0  0  0  2  0  0  0  0  0  0
  190.6940  176.9070  144.5440 C   0  0  0  0  0  0  0  0  0  0  0  0
  188.5420  177.6130  144.7230 N   0  0  0  0  0  2  0  0  0  0  0  0
  187.8720  176.6400  142.6790 N   0  0  0  0  0  0  0  0  0  0  0  0
  190.1500  177.0280  143.1580 C   0  0  1  0  0  3  0  0  0  0  0  0
  189.9630  175.7550  142.4650 N   0  0  0  0  0  2  0  0  0  0  0  0
  189.7670  177.3540  145.3900 C   0  0  0  0  0  0  0  0  0  0  0  0
  188.7570  177.4260  143.4610 C   0  0  2  0  0  3  0  0  0  0  0  0
  189.8670  177.3260  146.8780 C   0  0  0  0  0  1  0  0  0  0  0  0
  193.0300  177.2850  144.8500 N   0  0  0  0  0  2  0  0  0  0  0  0
  192.0540  176.4370  144.8770 C   0  0  0  0  0  0  0  0  0  0  0  0
  192.3120  175.0630  145.3530 C   0  0  0  0  0  0  0  0  0  0  0  0
  192.5100  174.7970  146.7380 N   0  0  0  0  0  1  0  0  0  0  0  0
  192.4000  174.1160  144.5270 O   0  0  0  0  0  0  0  0  0  0  0  0
  186.4290  176.5210  142.8690 C   0  0  0  0  0  2  0  0  0  0  0  0
  185.6720  177.5090  141.9880 C   0  0  2  0  0  3  0  0  0  0  0  0
  186.5580  178.1430  141.1140 O   0  0  0  0  0  1  0  0  0  0  0  0
  184.9150  178.5370  142.8240 C   0  0  1  0  0  3  0  0  0  0  0  0
  183.5350  178.3660  142.6940 O   0  0  0  0  0  1  0  0  0  0  0  0
  185.2800  178.4320  144.1680 O   0  0  0  0  0  0  0  0  0  0  0  0
  184.1770  178.9220  144.8730 C   0  0  0  0  0  2  0  0  0  0  0  0
  184.2300  178.4530  146.3150 C   0  0  0  0  0  2  0  0  0  0  0  0
  184.9220  177.1050  146.4030 C   0  0  0  0  0  2  0  0  0  0  0  0
  186.0960  177.1750  147.3640 C   0  0  0  0  0  2  0  0  0  0  0  0
  186.3230  178.5530  147.7690 N   0  0  0  0  0  1  0  0  0  0  0  0
  1  6  1  0  0  0  0
  1  4  1  0  0  0  0
  2 11  1  0  0  0  0
  2  7  2  0  0  0  0
  3  7  1  0  0  0  0
  4 15  1  0  0  0  0
  4  8  1  0  0  0  0
  5  6  1  1  0  0  0
  5  8  1  0  0  0  0
  5  2  1  0  0  0  0
  7  9  1  0  0  0  0
  8  3  1  1  0  0  0
 10 11  2  0  0  0  0
 11 12  1  0  0  0  0
 12 13  1  0  0  0  0
 14 12  2  0  0  0  0
 16 17  1  6  0  0  0
 16 18  1  0  0  0  0
 16 15  1  0  0  0  0
 18 19  1  1  0  0  0
 18 20  1  0  0  0  0
 20 21  1  0  0  0  0
 21 22  1  0  0  0  0
 22 23  1  0  0  0  0
 23 24  1  0  0  0  0
 24 25  1  0  0  0  0
M  END
>  <MODEL>
1

>  <REMARK>
 VINA RESULT:      -5.7      0.000      0.000
  Name = 
  10 active torsions:
  status: ('A' for Active; 'I' for Inactive)
    1  A    between atoms: C_1  and  C_15
    2  A    between atoms: C_2  and  C_18
    3  A    between atoms: C_3  and  N_11
    4  A    between atoms: C_3  and  C_21
    5  A    between atoms: C_8  and  C_18
    6  A    between atoms: C_10  and  C_21
    7  A    between atoms: C_10  and  O_25
    8  A    between atoms: C_12  and  C_15
    9  A    between atoms: C_12  and  C_20
   10  A    between atoms: C_20  and  O_25
                            x       y       z     vdW  Elec       q    Type
                         _______ _______ _______ _____ _____    ______ ____

>  <TORSDO>
F 10

$$$$
=
 OpenBabel11042413513D

 25 26  0  0  1  0  0  0  0  0999 V2000
  186.4330  176.0430  142.7360 C   0  0  0  0  0  2  0  0  0  0  0  0
  189.7770  175.9930  142.4590 C   0  0  0  0  0  0  0  0  0  0  0  0
  188.9450  178.1020  142.6150 N   0  0  0  0  0  2  0  0  0  0  0  0
  186.6940  177.4120  142.4310 N   0  0  0  0  0  0  0  0  0  0  0  0
  188.4630  176.0050  141.7490 C   0  0  1  0  0  3  0  0  0  0  0  0
  187.4060  175.2450  142.4140 N   0  0  0  0  0  2  0  0  0  0  0  0
  190.0490  177.2400  142.8420 C   0  0  0  0  0  0  0  0  0  0  0  0
  188.0460  177.4030  142.0010 C   0  0  2  0  0  3  0  0  0  0  0  0
  191.2230  177.6580  143.6610 C   0  0  0  0  0  1  0  0  0  0  0  0
  191.4600  174.4910  141.6830 N   0  0  0  0  0  2  0  0  0  0  0  0
  190.6330  174.8010  142.6270 C   0  0  0  0  0  0  0  0  0  0  0  0
  190.6570  174.0270  143.8850 C   0  0  0  0  0  0  0  0  0  0  0  0
  191.7820  174.0870  144.7560 N   0  0  0  0  0  1  0  0  0  0  0  0
  189.6940  173.2690  144.1770 O   0  0  0  0  0  0  0  0  0  0  0  0
  185.9910  178.5380  143.0380 C   0  0  0  0  0  2  0  0  0  0  0  0
  184.8140  178.0640  143.8850 C   0  0  2  0  0  3  0  0  0  0  0  0
  183.6680  178.7910  143.5560 O   0  0  0  0  0  1  0  0  0  0  0  0
  185.1160  178.1820  145.3760 C   0  0  1  0  0  3  0  0  0  0  0  0
  184.0360  178.7470  146.0590 O   0  0  0  0  0  1  0  0  0  0  0  0
  185.4080  176.9250  145.9120 O   0  0  0  0  0  0  0  0  0  0  0  0
  186.5540  177.1300  146.6850 C   0  0  0  0  0  2  0  0  0  0  0  0
  187.7960  176.8170  145.8700 C   0  0  0  0  0  2  0  0  0  0  0  0
  188.6260  175.7550  146.5690 C   0  0  0  0  0  2  0  0  0  0  0  0
  189.9380  176.3470  147.0550 C   0  0  0  0  0  2  0  0  0  0  0  0
  190.6870  175.3470  147.7990 N   0  0  0  0  0  1  0  0  0  0  0  0
  2 11  1  0  0  0  0
  2  7  2  0  0  0  0
  3  7  1  0  0  0  0
  4  1  1  0  0  0  0
  4 15  1  0  0  0  0
  5  8  1  0  0  0  0
  5  6  1  1  0  0  0
  5  2  1  0  0  0  0
  6  1  1  0  0  0  0
  7  9  1  0  0  0  0
  8  4  1  0  0  0  0
  8  3  1  1  0  0  0
 10 11  2  0  0  0  0
 11 12  1  0  0  0  0
 12 14  2  0  0  0  0
 12 13  1  0  0  0  0
 15 16  1  0  0  0  0
 16 17  1  1  0  0  0
 16 18  1  0  0  0  0
 18 20  1  0  0  0  0
 18 19  1  1  0  0  0
 20 21  1  0  0  0  0
 22 23  1  0  0  0  0
 22 21  1  0  0  0  0
 23 24  1  0  0  0  0
 24 25  1  0  0  0  0
M  END
>  <MODEL>
2

>  <REMARK>
 VINA RESULT:      -5.6      2.125      3.082
  Name = 
  10 active torsions:
  status: ('A' for Active; 'I' for Inactive)
    1  A    between atoms: C_1  and  C_15
    2  A    between atoms: C_2  and  C_18
    3  A    between atoms: C_3  and  N_11
    4  A    between atoms: C_3  and  C_21
    5  A    between atoms: C_8  and  C_18
    6  A    between atoms: C_10  and  C_21
    7  A    between atoms: C_10  and  O_25
    8  A    between atoms: C_12  and  C_15
    9  A    between atoms: C_12  and  C_20
   10  A    between atoms: C_20  and  O_25
                            x       y       z     vdW  Elec       q    Type
                         _______ _______ _______ _____ _____    ______ ____

>  <TORSDO>
F 10

$$$$
=
 OpenBabel11042413513D

 25 26  0  0  1  0  0  0  0  0999 V2000
  188.1660  175.7720  147.1110 C   0  0  0  0  0  2  0  0  0  0  0  0
  190.2230  176.1130  144.4820 C   0  0  0  0  0  0  0  0  0  0  0  0
  188.6770  177.7740  144.6020 N   0  0  0  0  0  2  0  0  0  0  0  0
  187.4610  176.7500  146.3480 N   0  0  0  0  0  0  0  0  0  0  0  0
  188.9650  175.5100  145.0160 C   0  0  1  0  0  3  0  0  0  0  0  0
  189.0340  175.1010  146.4180 N   0  0  0  0  0  2  0  0  0  0  0  0
  189.9690  177.3820  144.1650 C   0  0  0  0  0  0  0  0  0  0  0  0
  188.1100  176.7170  145.0870 C   0  0  2  0  0  3  0  0  0  0  0  0
  190.9740  178.3720  143.6810 C   0  0  0  0  0  1  0  0  0  0  0  0
  191.6810  174.7560  143.1690 N   0  0  0  0  0  2  0  0  0  0  0  0
  191.4900  175.3800  144.2850 C   0  0  0  0  0  0  0  0  0  0  0  0
  192.5890  175.4390  145.2710 C   0  0  0  0  0  0  0  0  0  0  0  0
  193.7760  176.1760  144.9950 N   0  0  0  0  0  1  0  0  0  0  0  0
  192.5000  174.8000  146.3520 O   0  0  0  0  0  0  0  0  0  0  0  0
  186.7560  177.8920  146.9240 C   0  0  0  0  0  2  0  0  0  0  0  0
  185.2630  177.8290  146.6220 C   0  0  2  0  0  3  0  0  0  0  0  0
  184.8650  176.4990  146.4680 O   0  0  0  0  0  1  0  0  0  0  0  0
  184.9090  178.6420  145.3800 C   0  0  1  0  0  3  0  0  0  0  0  0
  185.8170  179.6880  145.1950 O   0  0  0  0  0  1  0  0  0  0  0  0
  184.8960  177.8210  144.2500 O   0  0  0  0  0  0  0  0  0  0  0  0
  185.1000  178.6930  143.1780 C   0  0  0  0  0  2  0  0  0  0  0  0
  185.3850  177.9040  141.9120 C   0  0  0  0  0  2  0  0  0  0  0  0
  186.8600  177.9860  141.5650 C   0  0  0  0  0  2  0  0  0  0  0  0
  187.2670  176.8010  140.7070 C   0  0  0  0  0  2  0  0  0  0  0  0
  187.9250  175.7970  141.5280 N   0  0  0  0  0  1  0  0  0  0  0  0
  4 15  1  0  0  0  0
  4  1  1  0  0  0  0
  5  2  1  1  0  0  0
  5  8  1  0  0  0  0
  5  6  1  0  0  0  0
  6  1  1  0  0  0  0
  7  2  2  0  0  0  0
  7  3  1  0  0  0  0
  8  3  1  1  0  0  0
  8  4  1  0  0  0  0
  9  7  1  0  0  0  0
 10 11  2  0  0  0  0
 11  2  1  0  0  0  0
 11 12  1  0  0  0  0
 12 14  2  0  0  0  0
 13 12  1  0  0  0  0
 16 17  1  6  0  0  0
 16 15  1  0  0  0  0
 18 19  1  6  0  0  0
 18 16  1  0  0  0  0
 20 18  1  0  0  0  0
 21 20  1  0  0  0  0
 22 21  1  0  0  0  0
 23 22  1  0  0  0  0
 24 25  1  0  0  0  0
 24 23  1  0  0  0  0
M  END
>  <MODEL>
3

>  <REMARK>
 VINA RESULT:      -5.5      1.670      3.724
  Name = 
  10 active torsions:
  status: ('A' for Active; 'I' for Inactive)
    1  A    between atoms: C_1  and  C_15
    2  A    between atoms: C_2  and  C_18
    3  A    between atoms: C_3  and  N_11
    4  A    between atoms: C_3  and  C_21
    5  A    between atoms: C_8  and  C_18
    6  A    between atoms: C_10  and  C_21
    7  A    between atoms: C_10  and  O_25
    8  A    between atoms: C_12  and  C_15
    9  A    between atoms: C_12  and  C_20
   10  A    between atoms: C_20  and  O_25
                            x       y       z     vdW  Elec       q    Type
                         _______ _______ _______ _____ _____    ______ ____

>  <TORSDO>
F 10

$$$$
=
 OpenBabel11042413513D

 25 26  0  0  1  0  0  0  0  0999 V2000
  188.9090  177.1800  142.5130 C   0  0  0  0  0  2  0  0  0  0  0  0
  190.2820  176.3230  145.4520 C   0  0  0  0  0  0  0  0  0  0  0  0
  188.0120  176.2380  145.4910 N   0  0  0  0  0  2  0  0  0  0  0  0
  187.7670  177.2360  143.3660 N   0  0  0  0  0  0  0  0  0  0  0  0
  189.7820  177.4270  144.5790 C   0  0  1  0  0  3  0  0  0  0  0  0
  190.0370  177.2380  143.1530 N   0  0  0  0  0  2  0  0  0  0  0  0
  189.2290  175.7440  146.0270 C   0  0  0  0  0  0  0  0  0  0  0  0
  188.3240  177.1870  144.6690 C   0  0  2  0  0  3  0  0  0  0  0  0
  189.2760  174.5400  146.9060 C   0  0  0  0  0  1  0  0  0  0  0  0
  192.3500  176.6240  146.6040 N   0  0  0  0  0  2  0  0  0  0  0  0
  191.7080  176.0020  145.6700 C   0  0  0  0  0  0  0  0  0  0  0  0
  192.3850  174.9130  144.9380 C   0  0  0  0  0  0  0  0  0  0  0  0
  193.5760  174.3220  145.4490 N   0  0  0  0  0  1  0  0  0  0  0  0
  191.9340  174.5240  143.8280 O   0  0  0  0  0  0  0  0  0  0  0  0
  186.4310  176.7870  142.9820 C   0  0  0  0  0  2  0  0  0  0  0  0
  185.4910  177.9690  142.7680 C   0  0  2  0  0  3  0  0  0  0  0  0
  185.9850  178.7920  141.7540 O   0  0  0  0  0  1  0  0  0  0  0  0
  185.2920  178.7650  144.0560 C   0  0  1  0  0  3  0  0  0  0  0  0
  185.5860  180.1160  143.8560 O   0  0  0  0  0  1  0  0  0  0  0  0
  183.9780  178.6280  144.5110 O   0  0  0  0  0  0  0  0  0  0  0  0
  184.0840  178.6500  145.9040 C   0  0  0  0  0  2  0  0  0  0  0  0
  184.7610  177.3840  146.3950 C   0  0  0  0  0  2  0  0  0  0  0  0
  185.6120  177.6850  147.6150 C   0  0  0  0  0  2  0  0  0  0  0  0
  186.1840  179.0900  147.5260 C   0  0  0  0  0  2  0  0  0  0  0  0
  187.0590  179.3420  148.6590 N   0  0  0  0  0  1  0  0  0  0  0  0
  1  6  1  0  0  0  0
  1  4  1  0  0  0  0
  2 11  1  0  0  0  0
  2  7  2  0  0  0  0
  3  7  1  0  0  0  0
  4  8  1  0  0  0  0
  5  6  1  6  0  0  0
  5  8  1  0  0  0  0
  5  2  1  0  0  0  0
  7  9  1  0  0  0  0
  8  3  1  6  0  0  0
 11 10  2  0  0  0  0
 12 13  1  0  0  0  0
 12 11  1  0  0  0  0
 14 12  2  0  0  0  0
 15  4  1  0  0  0  0
 16 17  1  6  0  0  0
 16 15  1  0  0  0  0
 16 18  1  0  0  0  0
 18 19  1  6  0  0  0
 18 20  1  0  0  0  0
 20 21  1  0  0  0  0
 21 22  1  0  0  0  0
 22 23  1  0  0  0  0
 24 23  1  0  0  0  0
 24 25  1  0  0  0  0
M  END
>  <MODEL>
4

>  <REMARK>
 VINA RESULT:      -5.5      1.354      1.543
  Name = 
  10 active torsions:
  status: ('A' for Active; 'I' for Inactive)
    1  A    between atoms: C_1  and  C_15
    2  A    between atoms: C_2  and  C_18
    3  A    between atoms: C_3  and  N_11
    4  A    between atoms: C_3  and  C_21
    5  A    between atoms: C_8  and  C_18
    6  A    between atoms: C_10  and  C_21
    7  A    between atoms: C_10  and  O_25
    8  A    between atoms: C_12  and  C_15
    9  A    between atoms: C_12  and  C_20
   10  A    between atoms: C_20  and  O_25
                            x       y       z     vdW  Elec       q    Type
                         _______ _______ _______ _____ _____    ______ ____

>  <TORSDO>
F 10

$$$$
=
 OpenBabel11042413513D

 25 26  0  0  1  0  0  0  0  0999 V2000
  186.4200  176.0760  142.7350 C   0  0  0  0  0  2  0  0  0  0  0  0
  189.7650  175.9170  142.5230 C   0  0  0  0  0  0  0  0  0  0  0  0
  189.0100  178.0360  142.8440 N   0  0  0  0  0  2  0  0  0  0  0  0
  186.7400  177.4550  142.5550 N   0  0  0  0  0  0  0  0  0  0  0  0
  188.4700  176.0420  141.7900 C   0  0  1  0  0  3  0  0  0  0  0  0
  187.3690  175.2710  142.3650 N   0  0  0  0  0  2  0  0  0  0  0  0
  190.0750  177.1150  143.0170 C   0  0  0  0  0  0  0  0  0  0  0  0
  188.1000  177.4290  142.1530 C   0  0  2  0  0  3  0  0  0  0  0  0
  191.2450  177.4140  143.8930 C   0  0  0  0  0  1  0  0  0  0  0  0
  190.3320  173.8450  143.5600 N   0  0  0  0  0  2  0  0  0  0  0  0
  190.5710  174.6820  142.6040 C   0  0  0  0  0  0  0  0  0  0  0  0
  191.5530  174.3190  141.5630 C   0  0  0  0  0  0  0  0  0  0  0  0
  191.2720  173.2850  140.6240 N   0  0  0  0  0  1  0  0  0  0  0  0
  192.6730  174.8960  141.5240 O   0  0  0  0  0  0  0  0  0  0  0  0
  186.0660  178.5520  143.2430 C   0  0  0  0  0  2  0  0  0  0  0  0
  184.8560  178.0540  144.0250 C   0  0  2  0  0  3  0  0  0  0  0  0
  183.7310  178.8130  143.6950 O   0  0  0  0  0  1  0  0  0  0  0  0
  185.1070  178.0930  145.5300 C   0  0  1  0  0  3  0  0  0  0  0  0
  184.0320  178.6830  146.1990 O   0  0  0  0  0  1  0  0  0  0  0  0
  185.3180  176.8020  146.0200 O   0  0  0  0  0  0  0  0  0  0  0  0
  186.4820  176.9010  146.7860 C   0  0  0  0  0  2  0  0  0  0  0  0
  187.6900  176.5120  145.9540 C   0  0  0  0  0  2  0  0  0  0  0  0
  188.9580  176.6420  146.7780 C   0  0  0  0  0  2  0  0  0  0  0  0
  189.7080  175.3220  146.8040 C   0  0  0  0  0  2  0  0  0  0  0  0
  190.7530  175.3660  147.8130 N   0  0  0  0  0  1  0  0  0  0  0  0
  2 11  1  0  0  0  0
  2  7  2  0  0  0  0
  3  7  1  0  0  0  0
  4  1  1  0  0  0  0
  4 15  1  0  0  0  0
  5  8  1  0  0  0  0
  5  6  1  1  0  0  0
  5  2  1  0  0  0  0
  6  1  1  0  0  0  0
  7  9  1  0  0  0  0
  8  4  1  0  0  0  0
  8  3  1  1  0  0  0
 11 10  2  0  0  0  0
 12 11  1  0  0  0  0
 13 12  1  0  0  0  0
 14 12  2  0  0  0  0
 15 16  1  0  0  0  0
 16 17  1  1  0  0  0
 16 18  1  0  0  0  0
 18 20  1  0  0  0  0
 18 19  1  1  0  0  0
 20 21  1  0  0  0  0
 22 23  1  0  0  0  0
 22 21  1  0  0  0  0
 23 24  1  0  0  0  0
 24 25  1  0  0  0  0
M  END
>  <MODEL>
5

>  <REMARK>
 VINA RESULT:      -5.4      2.191      3.404
  Name = 
  10 active torsions:
  status: ('A' for Active; 'I' for Inactive)
    1  A    between atoms: C_1  and  C_15
    2  A    between atoms: C_2  and  C_18
    3  A    between atoms: C_3  and  N_11
    4  A    between atoms: C_3  and  C_21
    5  A    between atoms: C_8  and  C_18
    6  A    between atoms: C_10  and  C_21
    7  A    between atoms: C_10  and  O_25
    8  A    between atoms: C_12  and  C_15
    9  A    between atoms: C_12  and  C_20
   10  A    between atoms: C_20  and  O_25
                            x       y       z     vdW  Elec       q    Type
                         _______ _______ _______ _____ _____    ______ ____

>  <TORSDO>
F 10

$$$$
=
 OpenBabel11042413513D

 25 26  0  0  1  0  0  0  0  0999 V2000
  189.3950  177.9290  142.4180 C   0  0  0  0  0  2  0  0  0  0  0  0
  191.1490  176.0490  144.5740 C   0  0  0  0  0  0  0  0  0  0  0  0
  189.1260  175.1430  144.0700 N   0  0  0  0  0  2  0  0  0  0  0  0
  188.3790  177.0430  142.8850 N   0  0  0  0  0  0  0  0  0  0  0  0
  190.1900  177.1790  144.3930 C   0  0  1  0  0  3  0  0  0  0  0  0
  190.4270  177.9940  143.2040 N   0  0  0  0  0  2  0  0  0  0  0  0
  190.4640  174.9090  144.4810 C   0  0  0  0  0  0  0  0  0  0  0  0
  188.9710  176.4260  144.0170 C   0  0  2  0  0  3  0  0  0  0  0  0
  191.0540  173.5400  144.5140 C   0  0  0  0  0  1  0  0  0  0  0  0
  193.4240  176.2630  143.8900 N   0  0  0  0  0  2  0  0  0  0  0  0
  192.5870  176.2050  144.8730 C   0  0  0  0  0  0  0  0  0  0  0  0
  193.0810  176.4150  146.2490 C   0  0  0  0  0  0  0  0  0  0  0  0
  192.3020  176.0170  147.3720 N   0  0  0  0  0  1  0  0  0  0  0  0
  194.1860  176.9900  146.4410 O   0  0  0  0  0  0  0  0  0  0  0  0
  187.3350  176.4700  142.0390 C   0  0  0  0  0  2  0  0  0  0  0  0
  186.0650  177.3140  142.0810 C   0  0  2  0  0  3  0  0  0  0  0  0
  186.0390  178.1870  140.9920 O   0  0  0  0  0  1  0  0  0  0  0  0
  185.9510  178.0860  143.3920 C   0  0  1  0  0  3  0  0  0  0  0  0
  185.8620  179.4600  143.1540 O   0  0  0  0  0  1  0  0  0  0  0  0
  184.8320  177.6570  144.1110 O   0  0  0  0  0  0  0  0  0  0  0  0
  184.3720  178.8030  144.7650 C   0  0  0  0  0  2  0  0  0  0  0  0
  184.2350  178.5350  146.2520 C   0  0  0  0  0  2  0  0  0  0  0  0
  185.4660  179.0310  146.9890 C   0  0  0  0  0  2  0  0  0  0  0  0
  186.1490  177.8810  147.7090 C   0  0  0  0  0  2  0  0  0  0  0  0
  187.2350  177.3610  146.8940 N   0  0  0  0  0  1  0  0  0  0  0  0
  1  4  1  0  0  0  0
  1  6  1  0  0  0  0
  2 11  1  0  0  0  0
  3  7  1  0  0  0  0
  4  8  1  0  0  0  0
  5  6  1  6  0  0  0
  5  2  1  0  0  0  0
  7  9  1  0  0  0  0
  7  2  2  0  0  0  0
  8  3  1  6  0  0  0
  8  5  1  0  0  0  0
 10 11  2  0  0  0  0
 11 12  1  0  0  0  0
 12 14  2  0  0  0  0
 12 13  1  0  0  0  0
 15 16  1  0  0  0  0
 15  4  1  0  0  0  0
 16 17  1  6  0  0  0
 16 18  1  0  0  0  0
 18 19  1  6  0  0  0
 18 20  1  0  0  0  0
 20 21  1  0  0  0  0
 21 22  1  0  0  0  0
 22 23  1  0  0  0  0
 23 24  1  0  0  0  0
 25 24  1  0  0  0  0
M  END
>  <MODEL>
6

>  <REMARK>
 VINA RESULT:      -5.4      1.526      1.935
  Name = 
  10 active torsions:
  status: ('A' for Active; 'I' for Inactive)
    1  A    between atoms: C_1  and  C_15
    2  A    between atoms: C_2  and  C_18
    3  A    between atoms: C_3  and  N_11
    4  A    between atoms: C_3  and  C_21
    5  A    between atoms: C_8  and  C_18
    6  A    between atoms: C_10  and  C_21
    7  A    between atoms: C_10  and  O_25
    8  A    between atoms: C_12  and  C_15
    9  A    between atoms: C_12  and  C_20
   10  A    between atoms: C_20  and  O_25
                            x       y       z     vdW  Elec       q    Type
                         _______ _______ _______ _____ _____    ______ ____

>  <TORSDO>
F 10

$$$$
=
 OpenBabel11042413513D

 25 26  0  0  1  0  0  0  0  0999 V2000
  190.2180  175.6530  142.6310 C   0  0  0  0  0  2  0  0  0  0  0  0
  191.9180  175.8650  145.5160 C   0  0  0  0  0  0  0  0  0  0  0  0
  189.8640  176.8290  145.6400 N   0  0  0  0  0  2  0  0  0  0  0  0
  189.4400  176.6260  143.3270 N   0  0  0  0  0  0  0  0  0  0  0  0
  191.6340  176.4760  144.1830 C   0  0  1  0  0  3  0  0  0  0  0  0
  191.4180  175.5140  143.1050 N   0  0  0  0  0  2  0  0  0  0  0  0
  190.9210  176.1870  146.3380 C   0  0  0  0  0  0  0  0  0  0  0  0
  190.2660  176.9900  144.4210 C   0  0  2  0  0  3  0  0  0  0  0  0
  190.7640  175.7050  147.7410 C   0  0  0  0  0  1  0  0  0  0  0  0
  193.1350  173.8190  145.6820 N   0  0  0  0  0  2  0  0  0  0  0  0
  193.1380  175.1010  145.8490 C   0  0  0  0  0  0  0  0  0  0  0  0
  194.3930  175.7680  146.2500 C   0  0  0  0  0  0  0  0  0  0  0  0
  194.3880  177.1170  146.7070 N   0  0  0  0  0  1  0  0  0  0  0  0
  195.4910  175.1570  146.1520 O   0  0  0  0  0  0  0  0  0  0  0  0
  187.9820  176.6940  143.2890 C   0  0  0  0  0  2  0  0  0  0  0  0
  187.5030  177.7180  142.2650 C   0  0  2  0  0  3  0  0  0  0  0  0
  188.5910  178.4390  141.7690 O   0  0  0  0  0  1  0  0  0  0  0  0
  186.4610  178.6600  142.8620 C   0  0  1  0  0  3  0  0  0  0  0  0
  185.2770  178.6260  142.1220 O   0  0  0  0  0  1  0  0  0  0  0  0
  186.2000  178.3140  144.1900 O   0  0  0  0  0  0  0  0  0  0  0  0
  184.8150  178.4440  144.3220 C   0  0  0  0  0  2  0  0  0  0  0  0
  184.4320  178.4760  145.7910 C   0  0  0  0  0  2  0  0  0  0  0  0
  185.5760  179.0350  146.6170 C   0  0  0  0  0  2  0  0  0  0  0  0
  185.8770  178.1170  147.7900 C   0  0  0  0  0  2  0  0  0  0  0  0
  186.3890  176.8460  147.3060 N   0  0  0  0  0  1  0  0  0  0  0  0
  1  6  1  0  0  0  0
  1  4  1  0  0  0  0
  2 11  1  0  0  0  0
  2  7  2  0  0  0  0
  3  7  1  0  0  0  0
  4  8  1  0  0  0  0
  5  6  1  6  0  0  0
  5  8  1  0  0  0  0
  5  2  1  0  0  0  0
  7  9  1  0  0  0  0
  8  3  1  1  0  0  0
 10 11  2  0  0  0  0
 11 12  1  0  0  0  0
 12 13  1  0  0  0  0
 14 12  2  0  0  0  0
 15  4  1  0  0  0  0
 16 17  1  1  0  0  0
 16 18  1  0  0  0  0
 16 15  1  0  0  0  0
 18 19  1  6  0  0  0
 18 20  1  0  0  0  0
 20 21  1  0  0  0  0
 21 22  1  0  0  0  0
 22 23  1  0  0  0  0
 23 24  1  0  0  0  0
 25 24  1  0  0  0  0
M  END
>  <MODEL>
7

>  <REMARK>
 VINA RESULT:      -5.3      1.656      2.010
  Name = 
  10 active torsions:
  status: ('A' for Active; 'I' for Inactive)
    1  A    between atoms: C_1  and  C_15
    2  A    between atoms: C_2  and  C_18
    3  A    between atoms: C_3  and  N_11
    4  A    between atoms: C_3  and  C_21
    5  A    between atoms: C_8  and  C_18
    6  A    between atoms: C_10  and  C_21
    7  A    between atoms: C_10  and  O_25
    8  A    between atoms: C_12  and  C_15
    9  A    between atoms: C_12  and  C_20
   10  A    between atoms: C_20  and  O_25
                            x       y       z     vdW  Elec       q    Type
                         _______ _______ _______ _____ _____    ______ ____

>  <TORSDO>
F 10

$$$$
=
 OpenBabel11042413513D

 25 26  0  0  1  0  0  0  0  0999 V2000
  190.3980  177.9290  144.4880 C   0  0  0  0  0  2  0  0  0  0  0  0
  188.3680  176.7360  142.0970 C   0  0  0  0  0  0  0  0  0  0  0  0
  189.5890  175.1030  143.1010 N   0  0  0  0  0  2  0  0  0  0  0  0
  190.9310  176.6170  144.3180 N   0  0  0  0  0  0  0  0  0  0  0  0
  189.7020  177.3200  142.4290 C   0  0  1  0  0  3  0  0  0  0  0  0
  189.6780  178.3310  143.4850 N   0  0  0  0  0  2  0  0  0  0  0  0
  188.3970  175.4410  142.4080 C   0  0  0  0  0  0  0  0  0  0  0  0
  190.3250  176.1660  143.1170 C   0  0  2  0  0  3  0  0  0  0  0  0
  187.2410  174.5030  142.3190 C   0  0  0  0  0  1  0  0  0  0  0  0
  187.1380  177.4490  140.1810 N   0  0  0  0  0  2  0  0  0  0  0  0
  187.2570  177.4790  141.4680 C   0  0  0  0  0  0  0  0  0  0  0  0
  186.2130  178.1510  142.2680 C   0  0  0  0  0  0  0  0  0  0  0  0
  184.9470  177.5340  142.4810 N   0  0  0  0  0  1  0  0  0  0  0  0
  186.4230  179.3020  142.7370 O   0  0  0  0  0  0  0  0  0  0  0  0
  191.4080  175.7740  145.4100 C   0  0  0  0  0  2  0  0  0  0  0  0
  190.6560  176.0680  146.7040 C   0  0  2  0  0  3  0  0  0  0  0  0
  191.3520  175.5360  147.7910 O   0  0  0  0  0  1  0  0  0  0  0  0
  189.2320  175.5210  146.6590 C   0  0  1  0  0  3  0  0  0  0  0  0
  189.0470  174.5340  147.6300 O   0  0  0  0  0  1  0  0  0  0  0  0
  188.3100  176.5530  146.8520 O   0  0  0  0  0  0  0  0  0  0  0  0
  187.4380  176.4550  145.7650 C   0  0  0  0  0  2  0  0  0  0  0  0
  186.4710  177.6250  145.7660 C   0  0  0  0  0  2  0  0  0  0  0  0
  185.8750  177.8100  147.1490 C   0  0  0  0  0  2  0  0  0  0  0  0
  184.4560  178.3440  147.0460 C   0  0  0  0  0  2  0  0  0  0  0  0
  184.2780  179.0360  145.7800 N   0  0  0  0  0  1  0  0  0  0  0  0
  2  7  2  0  0  0  0
  4  1  1  0  0  0  0
  4 15  1  0  0  0  0
  5  2  1  1  0  0  0
  5  8  1  0  0  0  0
  5  6  1  0  0  0  0
  6  1  1  0  0  0  0
  7  3  1  0  0  0  0
  8  3  1  1  0  0  0
  8  4  1  0  0  0  0
  9  7  1  0  0  0  0
 10 11  2  0  0  0  0
 11  2  1  0  0  0  0
 11 12  1  0  0  0  0
 12 13  1  0  0  0  0
 12 14  2  0  0  0  0
 15 16  1  0  0  0  0
 16 17  1  1  0  0  0
 18 16  1  0  0  0  0
 18 20  1  0  0  0  0
 18 19  1  1  0  0  0
 21 22  1  0  0  0  0
 21 20  1  0  0  0  0
 22 23  1  0  0  0  0
 24 23  1  0  0  0  0
 25 24  1  0  0  0  0
M  END
>  <MODEL>
8

>  <REMARK>
 VINA RESULT:      -5.3      2.196      5.412
  Name = 
  10 active torsions:
  status: ('A' for Active; 'I' for Inactive)
    1  A    between atoms: C_1  and  C_15
    2  A    between atoms: C_2  and  C_18
    3  A    between atoms: C_3  and  N_11
    4  A    between atoms: C_3  and  C_21
    5  A    between atoms: C_8  and  C_18
    6  A    between atoms: C_10  and  C_21
    7  A    between atoms: C_10  and  O_25
    8  A    between atoms: C_12  and  C_15
    9  A    between atoms: C_12  and  C_20
   10  A    between atoms: C_20  and  O_25
                            x       y       z     vdW  Elec       q    Type
                         _______ _______ _______ _____ _____    ______ ____

>  <TORSDO>
F 10

$$$$
=
 OpenBabel11042413513D

 25 26  0  0  1  0  0  0  0  0999 V2000
  188.6550  176.4420  143.8240 C   0  0  0  0  0  2  0  0  0  0  0  0
  191.4760  176.4810  145.6400 C   0  0  0  0  0  0  0  0  0  0  0  0
  189.6130  176.7550  146.9130 N   0  0  0  0  0  2  0  0  0  0  0  0
  188.1670  176.9650  145.0590 N   0  0  0  0  0  0  0  0  0  0  0  0
  190.4970  177.2690  144.8310 C   0  0  1  0  0  3  0  0  0  0  0  0
  189.9410  176.5530  143.6850 N   0  0  0  0  0  2  0  0  0  0  0  0
  190.9590  176.3070  146.8550 C   0  0  0  0  0  0  0  0  0  0  0  0
  189.3510  177.2960  145.7680 C   0  0  2  0  0  3  0  0  0  0  0  0
  191.5700  175.4970  147.9490 C   0  0  0  0  0  1  0  0  0  0  0  0
  193.7960  176.8760  145.2530 N   0  0  0  0  0  2  0  0  0  0  0  0
  192.8060  176.0490  145.1650 C   0  0  0  0  0  0  0  0  0  0  0  0
  193.0630  174.6690  144.7080 C   0  0  0  0  0  0  0  0  0  0  0  0
  194.3410  174.2950  144.2020 N   0  0  0  0  0  1  0  0  0  0  0  0
  192.1350  173.8170  144.7240 O   0  0  0  0  0  0  0  0  0  0  0  0
  186.8790  176.6140  145.6490 C   0  0  0  0  0  2  0  0  0  0  0  0
  186.3160  177.7680  146.4720 C   0  0  2  0  0  3  0  0  0  0  0  0
  185.9060  177.3030  147.7240 O   0  0  0  0  0  1  0  0  0  0  0  0
  185.1620  178.4580  145.7510 C   0  0  1  0  0  3  0  0  0  0  0  0
  184.0720  178.6310  146.6080 O   0  0  0  0  0  1  0  0  0  0  0  0
  185.5730  179.6960  145.2530 O   0  0  0  0  0  0  0  0  0  0  0  0
  185.0870  179.7290  143.9430 C   0  0  0  0  0  2  0  0  0  0  0  0
  186.0630  179.0370  143.0080 C   0  0  0  0  0  2  0  0  0  0  0  0
  185.3080  178.2790  141.9320 C   0  0  0  0  0  2  0  0  0  0  0  0
  183.8170  178.2860  142.2280 C   0  0  0  0  0  2  0  0  0  0  0  0
  183.0650  178.2840  140.9840 N   0  0  0  0  0  1  0  0  0  0  0  0
  1  4  1  0  0  0  0
  2  7  2  0  0  0  0
  4 15  1  0  0  0  0
  4  8  1  0  0  0  0
  5  6  1  6  0  0  0
  5  2  1  0  0  0  0
  5  8  1  0  0  0  0
  6  1  1  0  0  0  0
  7  3  1  0  0  0  0
  7  9  1  0  0  0  0
  8  3  1  1  0  0  0
 11 10  2  0  0  0  0
 11  2  1  0  0  0  0
 12 14  2  0  0  0  0
 12 11  1  0  0  0  0
 13 12  1  0  0  0  0
 15 16  1  0  0  0  0
 16 17  1  1  0  0  0
 18 16  1  0  0  0  0
 18 19  1  1  0  0  0
 20 18  1  0  0  0  0
 21 20  1  0  0  0  0
 22 21  1  0  0  0  0
 23 24  1  0  0  0  0
 23 22  1  0  0  0  0
 25 24  1  0  0  0  0
M  END
>  <MODEL>
9

>  <REMARK>
 VINA RESULT:      -5.2      2.006      3.361
  Name = 
  10 active torsions:
  status: ('A' for Active; 'I' for Inactive)
    1  A    between atoms: C_1  and  C_15
    2  A    between atoms: C_2  and  C_18
    3  A    between atoms: C_3  and  N_11
    4  A    between atoms: C_3  and  C_21
    5  A    between atoms: C_8  and  C_18
    6  A    between atoms: C_10  and  C_21
    7  A    between atoms: C_10  and  O_25
    8  A    between atoms: C_12  and  C_15
    9  A    between atoms: C_12  and  C_20
   10  A    between atoms: C_20  and  O_25
                            x       y       z     vdW  Elec       q    Type
                         _______ _______ _______ _____ _____    ______ ____

>  <TORSDO>
F 10

$$$$
