=
 OpenBabel11042415563D

 52 56  0  0  1  0  0  0  0  0999 V2000
  192.5690  176.4350  146.2090 O   0  0  0  0  0  0  0  0  0  0  0  0
  191.4290  176.1140  146.9760 C   0  0  0  0  0  2  0  0  0  0  0  0
  190.2480  176.2120  146.0880 C   0  0  0  0  0  0  0  0  0  0  0  0
  192.1310  176.6040  144.8760 C   0  0  2  0  0  3  0  0  0  0  0  0
  190.6540  176.4980  144.8750 C   0  0  0  0  0  0  0  0  0  0  0  0
  189.8030  177.8150  143.0700 O   0  0  0  0  0  0  0  0  0  0  0  0
  188.9820  175.6310  143.2260 N   0  0  0  0  0  2  0  0  0  0  0  0
  189.8140  176.7030  143.6760 C   0  0  0  0  0  0  0  0  0  0  0  0
  188.0950  175.7620  142.0820 C   0  0  0  0  0  2  0  0  0  0  0  0
  187.5890  172.9720  141.8460 O   0  0  0  0  0  0  0  0  0  0  0  0
  188.5760  174.9170  141.0000 N   0  0  0  0  0  2  0  0  0  0  0  0
  188.3040  173.5140  140.9560 C   0  0  0  0  0  0  0  0  0  0  0  0
  190.3380  172.6400  139.8790 C   0  0  0  0  0  2  0  0  0  0  0  0
  188.8290  172.6990  139.8180 C   0  0  2  0  0  3  0  0  0  0  0  0
  188.4260  173.3030  138.4760 C   0  0  0  0  0  2  0  0  0  0  0  0
  189.7680  173.0630  137.2680 S   0  0  0  0  0  0  0  0  0  0  0  0
  190.8050  172.2230  138.5030 C   0  0  1  0  0  3  0  0  0  0  0  0
  194.5930  171.8060  138.2130 C   0  0  0  0  0  3  0  0  0  0  0  0
  192.6830  173.8340  138.0650 C   0  0  0  0  0  3  0  0  0  0  0  0
  192.2660  172.5120  138.2930 C   0  0  0  0  0  0  0  0  0  0  0  0
  194.0350  174.1400  137.9080 C   0  0  0  0  0  3  0  0  0  0  0  0
  194.9910  173.1250  137.9880 C   0  0  0  0  0  3  0  0  0  0  0  0
  193.2320  171.4770  138.3500 C   0  0  0  0  0  0  0  0  0  0  0  0
  192.2570  169.9120  139.8700 F   0  0  0  0  0  0  0  0  0  0  0  0
  192.8250  170.0340  138.6050 C   0  0  0  0  0  0  0  0  0  0  0  0
  193.9720  169.2620  138.5860 F   0  0  0  0  0  0  0  0  0  0  0  0
  192.4200  168.2760  137.1780 C   0  0  0  0  0  1  0  0  0  0  0  0
  191.9560  169.5320  137.6060 O   0  0  0  0  0  0  0  0  0  0  0  0
  188.8250  175.9970  146.5120 C   0  0  0  0  0  2  0  0  0  0  0  0
  188.1480  177.2650  146.7290 N   0  0  0  0  0  2  0  0  0  0  0  0
  187.0420  177.3200  145.7840 C   0  0  0  0  0  2  0  0  0  0  0  0
  186.0470  178.4180  146.1700 C   0  0  2  0  0  3  0  0  0  0  0  0
  184.7460  177.8220  146.6940 C   0  0  0  0  0  2  0  0  0  0  0  0
  184.7390  176.4520  146.4860 F   0  0  0  0  0  0  0  0  0  0  0  0
  185.7640  179.3650  145.0070 C   0  0  0  0  0  2  0  0  0  0  0  0
  184.6550  178.8320  144.1100 C   0  0  0  0  0  2  0  0  0  0  0  0
  184.3350  178.0030  141.7810 O   0  0  0  0  0  0  0  0  0  0  0  0
  185.1670  178.5690  142.7370 C   0  0  0  0  0  0  0  0  0  0  0  0
  186.3510  178.8790  142.4380 O   0  0  0  0  0  1  0  0  0  0  0  0
  192.7010  175.5580  144.0370 N   0  0  0  0  0  2  0  0  0  0  0  0
  193.3550  174.3560  144.4840 C   0  0  0  0  0  0  0  0  0  0  0  0
  195.3920  173.1730  145.0750 C   0  0  0  0  0  0  0  0  0  0  0  0
  197.0110  175.3470  144.3070 O   0  0  0  0  0  0  0  0  0  0  0  0
  192.6460  173.1820  144.8210 C   0  0  0  0  0  0  0  0  0  0  0  0
  196.8750  173.1390  145.3070 C   0  0  0  0  0  2  0  0  0  0  0  0
  195.6270  175.5160  144.3330 C   0  0  0  0  0  0  0  0  0  0  0  0
  194.6480  172.0830  145.3810 N   0  0  0  0  0  0  0  0  0  0  0  0
  194.7580  174.3450  144.6300 C   0  0  0  0  0  0  0  0  0  0  0  0
  191.2290  173.0990  144.6990 N   0  0  0  0  0  1  0  0  0  0  0  0
  195.1460  176.6620  144.1360 O   0  0  0  0  0  0  0  0  0  0  0  0
  197.5910  174.0420  144.3070 C   0  0  0  0  0  2  0  0  0  0  0  0
  193.3240  172.0880  145.2540 N   0  0  0  0  0  0  0  0  0  0  0  0
  1  2  1  0  0  0  0
  3 29  1  0  0  0  0
  3  2  1  0  0  0  0
  4 40  1  6  0  0  0
  4  1  1  0  0  0  0
  5  4  1  0  0  0  0
  5  3  2  0  0  0  0
  6  8  2  0  0  0  0
  7  8  1  0  0  0  0
  8  5  1  0  0  0  0
  9  7  1  0  0  0  0
 11  9  1  0  0  0  0
 12 11  1  0  0  0  0
 12 10  2  0  0  0  0
 14 13  1  0  0  0  0
 14 12  1  1  0  0  0
 15 14  1  0  0  0  0
 16 15  1  0  0  0  0
 16 17  1  0  0  0  0
 17 20  1  6  0  0  0
 17 13  1  0  0  0  0
 18 23  1  0  0  0  0
 19 20  1  0  0  0  0
 20 23  2  0  0  0  0
 21 22  1  0  0  0  0
 21 19  2  0  0  0  0
 22 18  2  0  0  0  0
 23 25  1  0  0  0  0
 25 24  1  0  0  0  0
 26 25  1  0  0  0  0
 27 28  1  0  0  0  0
 28 25  1  0  0  0  0
 29 30  1  0  0  0  0
 31 32  1  0  0  0  0
 31 30  1  0  0  0  0
 32 35  1  6  0  0  0
 32 33  1  0  0  0  0
 34 33  1  0  0  0  0
 36 35  1  0  0  0  0
 37 38  2  0  0  0  0
 38 36  1  0  0  0  0
 39 38  1  0  0  0  0
 40 41  1  0  0  0  0
 41 48  2  0  0  0  0
 41 44  1  0  0  0  0
 42 45  1  0  0  0  0
 42 47  2  0  0  0  0
 43 46  1  0  0  0  0
 44 52  2  0  0  0  0
 46 48  1  0  0  0  0
 48 42  1  0  0  0  0
 49 44  1  0  0  0  0
 50 46  2  0  0  0  0
 51 43  1  0  0  0  0
 51 45  1  0  0  0  0
 52 47  1  0  0  0  0
M  END
>  <MODEL>
1

>  <REMARK>
 VINA RESULT:      -6.7      0.000      0.000
  Name = 
  17 active torsions:
  status: ('A' for Active; 'I' for Inactive)
    1  A    between atoms: C_2  and  N_42
    2  A    between atoms: C_4  and  O_28
    3  A    between atoms: C_4  and  C_48
    4  A    between atoms: C_8  and  C_32
    5  A    between atoms: C_9  and  C_32
    6  A    between atoms: C_9  and  N_39
    7  A    between atoms: C_10  and  N_39
    8  A    between atoms: C_10  and  C_44
    9  A    between atoms: N_12  and  C_33
   10  A    between atoms: C_16  and  C_25
   11  A    between atoms: C_20  and  C_52
   12  A    between atoms: C_23  and  C_31
   13  A    between atoms: C_23  and  C_34
   14  A    between atoms: C_32  and  C_34
   15  A    between atoms: C_33  and  N_37
   16  A    between atoms: N_42  and  C_45
   17  A    between atoms: C_43  and  C_47
                            x       y       z     vdW  Elec       q    Type
                         _______ _______ _______ _____ _____    ______ ____

>  <TORSDO>
F 17

$$$$
=
 OpenBabel11042415563D

 52 56  0  0  1  0  0  0  0  0999 V2000
  191.8870  176.7860  146.7290 O   0  0  0  0  0  0  0  0  0  0  0  0
  190.6540  176.7400  147.4130 C   0  0  0  0  0  2  0  0  0  0  0  0
  189.6980  175.9900  146.5660 C   0  0  0  0  0  0  0  0  0  0  0  0
  191.7390  175.9970  145.5660 C   0  0  2  0  0  3  0  0  0  0  0  0
  190.3240  175.5640  145.4970 C   0  0  0  0  0  0  0  0  0  0  0  0
  189.5760  173.5380  144.4720 O   0  0  0  0  0  0  0  0  0  0  0  0
  189.4320  175.4680  143.1600 N   0  0  0  0  0  2  0  0  0  0  0  0
  189.7530  174.7880  144.3760 C   0  0  0  0  0  0  0  0  0  0  0  0
  188.9070  174.7740  141.9960 C   0  0  0  0  0  2  0  0  0  0  0  0
  189.8250  172.1210  141.5330 O   0  0  0  0  0  0  0  0  0  0  0  0
  190.0050  174.4150  141.1120 N   0  0  0  0  0  2  0  0  0  0  0  0
  190.4310  173.0600  140.9440 C   0  0  0  0  0  0  0  0  0  0  0  0
  192.8720  173.1910  140.6530 C   0  0  0  0  0  2  0  0  0  0  0  0
  191.5690  172.7560  140.0230 C   0  0  2  0  0  3  0  0  0  0  0  0
  191.4100  173.4850  138.6920 C   0  0  0  0  0  2  0  0  0  0  0  0
  193.0460  173.9960  138.0750 S   0  0  0  0  0  0  0  0  0  0  0  0
  193.8780  173.2870  139.5280 C   0  0  1  0  0  3  0  0  0  0  0  0
  197.4840  174.2960  140.2920 C   0  0  0  0  0  3  0  0  0  0  0  0
  194.9240  175.4000  140.3980 C   0  0  0  0  0  3  0  0  0  0  0  0
  195.0890  174.0880  139.9230 C   0  0  0  0  0  0  0  0  0  0  0  0
  196.0230  176.1530  140.8110 C   0  0  0  0  0  3  0  0  0  0  0  0
  197.3030  175.5980  140.7630 C   0  0  0  0  0  3  0  0  0  0  0  0
  196.3900  173.5310  139.8500 C   0  0  0  0  0  0  0  0  0  0  0  0
  195.8460  171.2180  140.0950 F   0  0  0  0  0  0  0  0  0  0  0  0
  196.6110  172.1120  139.3510 C   0  0  0  0  0  0  0  0  0  0  0  0
  197.9410  171.7950  139.5570 F   0  0  0  0  0  0  0  0  0  0  0  0
  197.5650  171.8240  137.2790 C   0  0  0  0  0  1  0  0  0  0  0  0
  196.3490  171.9780  137.9670 O   0  0  0  0  0  0  0  0  0  0  0  0
  188.2540  175.7470  146.8960 C   0  0  0  0  0  2  0  0  0  0  0  0
  187.5260  177.0000  147.0090 N   0  0  0  0  0  2  0  0  0  0  0  0
  186.8800  177.2300  145.7260 C   0  0  0  0  0  2  0  0  0  0  0  0
  185.9560  178.4500  145.7880 C   0  0  2  0  0  3  0  0  0  0  0  0
  184.6140  178.0920  146.4120 C   0  0  0  0  0  2  0  0  0  0  0  0
  184.4960  176.7160  146.5190 F   0  0  0  0  0  0  0  0  0  0  0  0
  185.7500  179.0800  144.4140 C   0  0  0  0  0  2  0  0  0  0  0  0
  184.6850  178.3420  143.6150 C   0  0  0  0  0  2  0  0  0  0  0  0
  185.1200  178.3910  141.1610 O   0  0  0  0  0  0  0  0  0  0  0  0
  185.2670  177.7460  142.3810 C   0  0  0  0  0  0  0  0  0  0  0  0
  185.9120  176.6660  142.4490 O   0  0  0  0  0  1  0  0  0  0  0  0
  192.6080  174.8300  145.6530 N   0  0  0  0  0  2  0  0  0  0  0  0
  193.9130  174.6820  145.0650 C   0  0  0  0  0  0  0  0  0  0  0  0
  195.5490  173.3080  143.9110 C   0  0  0  0  0  0  0  0  0  0  0  0
  193.9070  171.0240  144.0670 O   0  0  0  0  0  0  0  0  0  0  0  0
  194.8460  175.7400  145.0040 C   0  0  0  0  0  0  0  0  0  0  0  0
  195.9510  172.0310  143.2310 C   0  0  0  0  0  2  0  0  0  0  0  0
  193.3860  172.2550  144.4660 C   0  0  0  0  0  0  0  0  0  0  0  0
  196.3940  174.3660  143.8860 N   0  0  0  0  0  0  0  0  0  0  0  0
  194.2770  173.4460  144.4920 C   0  0  0  0  0  0  0  0  0  0  0  0
  194.5680  177.0210  145.5610 N   0  0  0  0  0  1  0  0  0  0  0  0
  192.1660  172.3360  144.7650 O   0  0  0  0  0  0  0  0  0  0  0  0
  195.3140  170.8320  143.9300 C   0  0  0  0  0  2  0  0  0  0  0  0
  196.0550  175.5370  144.4170 N   0  0  0  0  0  0  0  0  0  0  0  0
  1  2  1  0  0  0  0
  3 29  1  0  0  0  0
  3  2  1  0  0  0  0
  4 40  1  1  0  0  0
  4  1  1  0  0  0  0
  5  4  1  0  0  0  0
  5  3  2  0  0  0  0
  7  8  1  0  0  0  0
  8  6  2  0  0  0  0
  8  5  1  0  0  0  0
  9  7  1  0  0  0  0
 11  9  1  0  0  0  0
 12 11  1  0  0  0  0
 12 10  2  0  0  0  0
 14 13  1  0  0  0  0
 14 12  1  1  0  0  0
 15 14  1  0  0  0  0
 16 15  1  0  0  0  0
 16 17  1  0  0  0  0
 17 20  1  1  0  0  0
 17 13  1  0  0  0  0
 18 22  1  0  0  0  0
 19 21  1  0  0  0  0
 20 19  2  0  0  0  0
 22 21  2  0  0  0  0
 23 20  1  0  0  0  0
 23 18  2  0  0  0  0
 25 26  1  0  0  0  0
 25 23  1  0  0  0  0
 25 24  1  0  0  0  0
 27 28  1  0  0  0  0
 28 25  1  0  0  0  0
 29 30  1  0  0  0  0
 31 32  1  0  0  0  0
 31 30  1  0  0  0  0
 32 35  1  6  0  0  0
 32 33  1  0  0  0  0
 33 34  1  0  0  0  0
 36 35  1  0  0  0  0
 37 38  2  0  0  0  0
 38 39  1  0  0  0  0
 38 36  1  0  0  0  0
 41 40  1  0  0  0  0
 42 48  1  0  0  0  0
 43 46  1  0  0  0  0
 44 41  1  0  0  0  0
 44 49  1  0  0  0  0
 45 42  1  0  0  0  0
 45 51  1  0  0  0  0
 46 48  1  0  0  0  0
 46 50  2  0  0  0  0
 47 42  2  0  0  0  0
 47 52  1  0  0  0  0
 48 41  2  0  0  0  0
 51 43  1  0  0  0  0
 52 44  2  0  0  0  0
M  END
>  <MODEL>
2

>  <REMARK>
 VINA RESULT:      -6.6      2.385      3.068
  Name = 
  17 active torsions:
  status: ('A' for Active; 'I' for Inactive)
    1  A    between atoms: C_2  and  N_42
    2  A    between atoms: C_4  and  O_28
    3  A    between atoms: C_4  and  C_48
    4  A    between atoms: C_8  and  C_32
    5  A    between atoms: C_9  and  C_32
    6  A    between atoms: C_9  and  N_39
    7  A    between atoms: C_10  and  N_39
    8  A    between atoms: C_10  and  C_44
    9  A    between atoms: N_12  and  C_33
   10  A    between atoms: C_16  and  C_25
   11  A    between atoms: C_20  and  C_52
   12  A    between atoms: C_23  and  C_31
   13  A    between atoms: C_23  and  C_34
   14  A    between atoms: C_32  and  C_34
   15  A    between atoms: C_33  and  N_37
   16  A    between atoms: N_42  and  C_45
   17  A    between atoms: C_43  and  C_47
                            x       y       z     vdW  Elec       q    Type
                         _______ _______ _______ _____ _____    ______ ____

>  <TORSDO>
F 17

$$$$
=
 OpenBabel11042415563D

 52 56  0  0  1  0  0  0  0  0999 V2000
  193.3960  176.6130  144.8140 O   0  0  0  0  0  0  0  0  0  0  0  0
  192.8220  176.4150  146.0880 C   0  0  0  0  0  2  0  0  0  0  0  0
  191.4950  175.7870  145.8900 C   0  0  0  0  0  0  0  0  0  0  0  0
  192.5200  176.0250  143.8740 C   0  0  2  0  0  3  0  0  0  0  0  0
  191.3200  175.5650  144.6100 C   0  0  0  0  0  0  0  0  0  0  0  0
  189.8910  173.7300  144.0570 O   0  0  0  0  0  0  0  0  0  0  0  0
  189.2750  175.8120  143.1880 N   0  0  0  0  0  2  0  0  0  0  0  0
  190.1340  174.9690  143.9610 C   0  0  0  0  0  0  0  0  0  0  0  0
  188.1120  175.3000  142.4830 C   0  0  0  0  0  2  0  0  0  0  0  0
  187.6110  172.6290  141.6390 O   0  0  0  0  0  0  0  0  0  0  0  0
  188.5300  174.7360  141.2080 N   0  0  0  0  0  2  0  0  0  0  0  0
  188.2650  173.3760  140.8570 C   0  0  0  0  0  0  0  0  0  0  0  0
  190.2260  172.6860  139.5370 C   0  0  0  0  0  2  0  0  0  0  0  0
  188.7230  172.8560  139.5330 C   0  0  2  0  0  3  0  0  0  0  0  0
  188.3510  173.8150  138.4060 C   0  0  0  0  0  2  0  0  0  0  0  0
  189.6640  173.8150  137.1430 S   0  0  0  0  0  0  0  0  0  0  0  0
  190.6510  172.6170  138.0880 C   0  0  1  0  0  3  0  0  0  0  0  0
  194.3460  172.1290  137.2420 C   0  0  0  0  0  3  0  0  0  0  0  0
  192.6910  174.0490  138.4070 C   0  0  0  0  0  3  0  0  0  0  0  0
  192.1270  172.8560  137.9230 C   0  0  0  0  0  0  0  0  0  0  0  0
  194.0620  174.2820  138.3060 C   0  0  0  0  0  3  0  0  0  0  0  0
  194.8910  173.3180  137.7280 C   0  0  0  0  0  3  0  0  0  0  0  0
  192.9620  171.8870  137.3140 C   0  0  0  0  0  0  0  0  0  0  0  0
  193.3030  169.9750  135.9230 F   0  0  0  0  0  0  0  0  0  0  0  0
  192.3940  170.5790  136.7870 C   0  0  0  0  0  0  0  0  0  0  0  0
  191.2580  170.8770  136.0550 F   0  0  0  0  0  0  0  0  0  0  0  0
  190.7990  169.0750  137.4830 C   0  0  0  0  0  1  0  0  0  0  0  0
  192.0130  169.6960  137.8260 O   0  0  0  0  0  0  0  0  0  0  0  0
  190.5250  175.4480  146.9830 C   0  0  0  0  0  2  0  0  0  0  0  0
  189.6500  176.5720  147.2720 N   0  0  0  0  0  2  0  0  0  0  0  0
  188.3090  176.1760  146.8680 C   0  0  0  0  0  2  0  0  0  0  0  0
  187.4270  177.4040  146.6230 C   0  0  2  0  0  3  0  0  0  0  0  0
  185.9990  177.1580  147.0930 C   0  0  0  0  0  2  0  0  0  0  0  0
  186.0120  176.5060  148.3160 F   0  0  0  0  0  0  0  0  0  0  0  0
  187.4350  177.8290  145.1570 C   0  0  0  0  0  2  0  0  0  0  0  0
  186.0220  177.9470  144.6020 C   0  0  0  0  0  2  0  0  0  0  0  0
  186.3660  178.9580  142.3490 O   0  0  0  0  0  0  0  0  0  0  0  0
  185.9200  179.0930  143.6570 C   0  0  0  0  0  0  0  0  0  0  0  0
  185.4090  180.1790  144.0390 O   0  0  0  0  0  1  0  0  0  0  0  0
  193.1760  174.8880  143.2410 N   0  0  0  0  0  2  0  0  0  0  0  0
  194.5910  174.7000  143.0590 C   0  0  0  0  0  0  0  0  0  0  0  0
  196.6550  173.5860  143.6880 C   0  0  0  0  0  0  0  0  0  0  0  0
  195.4110  172.2440  145.8290 O   0  0  0  0  0  0  0  0  0  0  0  0
  195.3290  175.3810  142.0670 C   0  0  0  0  0  0  0  0  0  0  0  0
  197.4090  172.5640  144.4880 C   0  0  0  0  0  2  0  0  0  0  0  0
  194.6190  172.9720  144.9420 C   0  0  0  0  0  0  0  0  0  0  0  0
  197.3010  174.2730  142.7160 N   0  0  0  0  0  0  0  0  0  0  0  0
  195.2750  173.7740  143.8740 C   0  0  0  0  0  0  0  0  0  0  0  0
  194.7240  176.3370  141.2020 N   0  0  0  0  0  1  0  0  0  0  0  0
  193.3670  172.9100  145.0450 O   0  0  0  0  0  0  0  0  0  0  0  0
  196.8220  172.4490  145.8930 C   0  0  0  0  0  2  0  0  0  0  0  0
  196.6610  175.1420  141.9370 N   0  0  0  0  0  0  0  0  0  0  0  0
  1  2  1  0  0  0  0
  3  2  1  0  0  0  0
  3 29  1  0  0  0  0
  4 40  1  1  0  0  0
  4  5  1  0  0  0  0
  4  1  1  0  0  0  0
  5  3  2  0  0  0  0
  7  8  1  0  0  0  0
  8  6  2  0  0  0  0
  8  5  1  0  0  0  0
  9  7  1  0  0  0  0
 11  9  1  0  0  0  0
 12 11  1  0  0  0  0
 12 10  2  0  0  0  0
 14 13  1  0  0  0  0
 14 12  1  1  0  0  0
 15 14  1  0  0  0  0
 16 17  1  0  0  0  0
 16 15  1  0  0  0  0
 17 20  1  1  0  0  0
 17 13  1  0  0  0  0
 18 23  2  0  0  0  0
 18 22  1  0  0  0  0
 20 19  2  0  0  0  0
 21 19  1  0  0  0  0
 22 21  2  0  0  0  0
 23 20  1  0  0  0  0
 24 25  1  0  0  0  0
 25 23  1  0  0  0  0
 25 28  1  0  0  0  0
 26 25  1  0  0  0  0
 27 28  1  0  0  0  0
 29 30  1  0  0  0  0
 31 30  1  0  0  0  0
 32 35  1  6  0  0  0
 32 31  1  0  0  0  0
 32 33  1  0  0  0  0
 33 34  1  0  0  0  0
 36 35  1  0  0  0  0
 37 38  2  0  0  0  0
 38 39  1  0  0  0  0
 38 36  1  0  0  0  0
 41 40  1  0  0  0  0
 41 48  1  0  0  0  0
 42 48  2  0  0  0  0
 42 45  1  0  0  0  0
 43 51  1  0  0  0  0
 44 41  2  0  0  0  0
 45 51  1  0  0  0  0
 46 50  2  0  0  0  0
 46 43  1  0  0  0  0
 47 42  1  0  0  0  0
 48 46  1  0  0  0  0
 49 44  1  0  0  0  0
 52 44  1  0  0  0  0
 52 47  2  0  0  0  0
M  END
>  <MODEL>
3

>  <REMARK>
 VINA RESULT:      -6.5      1.849      2.320
  Name = 
  17 active torsions:
  status: ('A' for Active; 'I' for Inactive)
    1  A    between atoms: C_2  and  N_42
    2  A    between atoms: C_4  and  O_28
    3  A    between atoms: C_4  and  C_48
    4  A    between atoms: C_8  and  C_32
    5  A    between atoms: C_9  and  C_32
    6  A    between atoms: C_9  and  N_39
    7  A    between atoms: C_10  and  N_39
    8  A    between atoms: C_10  and  C_44
    9  A    between atoms: N_12  and  C_33
   10  A    between atoms: C_16  and  C_25
   11  A    between atoms: C_20  and  C_52
   12  A    between atoms: C_23  and  C_31
   13  A    between atoms: C_23  and  C_34
   14  A    between atoms: C_32  and  C_34
   15  A    between atoms: C_33  and  N_37
   16  A    between atoms: N_42  and  C_45
   17  A    between atoms: C_43  and  C_47
                            x       y       z     vdW  Elec       q    Type
                         _______ _______ _______ _____ _____    ______ ____

>  <TORSDO>
F 17

$$$$
=
 OpenBabel11042415563D

 52 56  0  0  1  0  0  0  0  0999 V2000
  187.5930  176.9830  141.2100 O   0  0  0  0  0  0  0  0  0  0  0  0
  187.3860  176.2310  140.0330 C   0  0  0  0  0  2  0  0  0  0  0  0
  188.1880  174.9910  140.1470 C   0  0  0  0  0  0  0  0  0  0  0  0
  188.3890  176.1910  142.0670 C   0  0  2  0  0  3  0  0  0  0  0  0
  188.7690  174.9700  141.3200 C   0  0  0  0  0  0  0  0  0  0  0  0
  190.9120  173.9420  141.5860 O   0  0  0  0  0  0  0  0  0  0  0  0
  189.1220  172.8760  142.6470 N   0  0  0  0  0  2  0  0  0  0  0  0
  189.6740  173.9280  141.8510 C   0  0  0  0  0  0  0  0  0  0  0  0
  189.9320  171.7900  143.1730 C   0  0  0  0  0  2  0  0  0  0  0  0
  192.4590  170.5620  143.6250 O   0  0  0  0  0  0  0  0  0  0  0  0
  190.9880  172.3390  144.0110 N   0  0  0  0  0  2  0  0  0  0  0  0
  192.2270  171.6550  144.2140 C   0  0  0  0  0  0  0  0  0  0  0  0
  193.8870  173.4630  144.3980 C   0  0  0  0  0  2  0  0  0  0  0  0
  193.2710  172.2700  145.0910 C   0  0  2  0  0  3  0  0  0  0  0  0
  194.3810  171.2720  145.4080 C   0  0  0  0  0  2  0  0  0  0  0  0
  195.9800  172.1400  145.4890 S   0  0  0  0  0  0  0  0  0  0  0  0
  195.1980  173.7340  145.1010 C   0  0  1  0  0  3  0  0  0  0  0  0
  196.7790  176.8000  143.4550 C   0  0  0  0  0  3  0  0  0  0  0  0
  197.0990  174.0280  143.4840 C   0  0  0  0  0  3  0  0  0  0  0  0
  196.1030  174.6150  144.2840 C   0  0  0  0  0  0  0  0  0  0  0  0
  197.9260  174.8160  142.6830 C   0  0  0  0  0  3  0  0  0  0  0  0
  197.7620  176.2020  142.6640 C   0  0  0  0  0  3  0  0  0  0  0  0
  195.9510  176.0240  144.2850 C   0  0  0  0  0  0  0  0  0  0  0  0
  193.6830  176.7630  144.4220 F   0  0  0  0  0  0  0  0  0  0  0  0
  194.8800  176.6980  145.1290 C   0  0  0  0  0  0  0  0  0  0  0  0
  195.2910  177.9950  145.3750 F   0  0  0  0  0  0  0  0  0  0  0  0
  193.4050  176.3410  146.8570 C   0  0  0  0  0  1  0  0  0  0  0  0
  194.6980  176.0630  146.3810 O   0  0  0  0  0  0  0  0  0  0  0  0
  188.2940  173.9290  139.0910 C   0  0  0  0  0  2  0  0  0  0  0  0
  188.2760  174.5120  137.7600 N   0  0  0  0  0  2  0  0  0  0  0  0
  188.9940  173.5940  136.8880 C   0  0  0  0  0  2  0  0  0  0  0  0
  190.3190  173.1610  137.5220 C   0  0  2  0  0  3  0  0  0  0  0  0
  191.4770  174.0080  137.0080 C   0  0  0  0  0  2  0  0  0  0  0  0
  192.2230  174.4820  138.0750 F   0  0  0  0  0  0  0  0  0  0  0  0
  190.6040  171.6790  137.2910 C   0  0  0  0  0  2  0  0  0  0  0  0
  191.8000  171.2070  138.1060 C   0  0  0  0  0  2  0  0  0  0  0  0
  190.1160  170.7790  139.8940 O   0  0  0  0  0  0  0  0  0  0  0  0
  191.4310  171.0460  139.5400 C   0  0  0  0  0  0  0  0  0  0  0  0
  192.3190  171.1320  140.4300 O   0  0  0  0  0  1  0  0  0  0  0  0
  187.6200  175.8260  143.2500 N   0  0  0  0  0  2  0  0  0  0  0  0
  187.7020  176.4320  144.5530 C   0  0  0  0  0  0  0  0  0  0  0  0
  186.7180  177.8190  146.2860 C   0  0  0  0  0  0  0  0  0  0  0  0
  184.5180  178.4880  144.6570 O   0  0  0  0  0  0  0  0  0  0  0  0
  188.7970  176.2270  145.4210 C   0  0  0  0  0  0  0  0  0  0  0  0
  185.5790  178.6270  146.8370 C   0  0  0  0  0  2  0  0  0  0  0  0
  185.4150  177.5180  144.2100 C   0  0  0  0  0  0  0  0  0  0  0  0
  187.7980  177.5790  147.0660 N   0  0  0  0  0  0  0  0  0  0  0  0
  186.6380  177.2360  145.0100 C   0  0  0  0  0  0  0  0  0  0  0  0
  189.9180  175.4350  145.0420 N   0  0  0  0  0  1  0  0  0  0  0  0
  185.1540  176.8810  143.1570 O   0  0  0  0  0  0  0  0  0  0  0  0
  184.8690  179.3800  145.7150 C   0  0  0  0  0  2  0  0  0  0  0  0
  188.8020  176.8140  146.6460 N   0  0  0  0  0  0  0  0  0  0  0  0
  1  4  1  0  0  0  0
  2  3  1  0  0  0  0
  2  1  1  0  0  0  0
  3  5  2  0  0  0  0
  4 40  1  1  0  0  0
  5  8  1  0  0  0  0
  5  4  1  0  0  0  0
  6  8  2  0  0  0  0
  7  9  1  0  0  0  0
  8  7  1  0  0  0  0
  9 11  1  0  0  0  0
 10 12  2  0  0  0  0
 11 12  1  0  0  0  0
 13 14  1  0  0  0  0
 13 17  1  0  0  0  0
 14 12  1  6  0  0  0
 14 15  1  0  0  0  0
 15 16  1  0  0  0  0
 17 20  1  6  0  0  0
 17 16  1  0  0  0  0
 18 23  1  0  0  0  0
 19 20  1  0  0  0  0
 20 23  2  0  0  0  0
 21 19  2  0  0  0  0
 22 21  1  0  0  0  0
 22 18  2  0  0  0  0
 23 25  1  0  0  0  0
 24 25  1  0  0  0  0
 25 26  1  0  0  0  0
 25 28  1  0  0  0  0
 28 27  1  0  0  0  0
 29  3  1  0  0  0  0
 30 29  1  0  0  0  0
 31 30  1  0  0  0  0
 32 31  1  6  0  0  0
 33 32  1  0  0  0  0
 33 34  1  0  0  0  0
 35 32  1  0  0  0  0
 35 36  1  0  0  0  0
 36 38  1  0  0  0  0
 38 37  2  0  0  0  0
 38 39  1  0  0  0  0
 40 41  1  0  0  0  0
 41 48  2  0  0  0  0
 41 44  1  0  0  0  0
 42 45  1  0  0  0  0
 42 47  2  0  0  0  0
 43 51  1  0  0  0  0
 44 52  2  0  0  0  0
 46 43  1  0  0  0  0
 46 48  1  0  0  0  0
 48 42  1  0  0  0  0
 49 44  1  0  0  0  0
 50 46  2  0  0  0  0
 51 45  1  0  0  0  0
 52 47  1  0  0  0  0
M  END
>  <MODEL>
4

>  <REMARK>
 VINA RESULT:      -6.5      3.109      8.664
  Name = 
  17 active torsions:
  status: ('A' for Active; 'I' for Inactive)
    1  A    between atoms: C_2  and  N_42
    2  A    between atoms: C_4  and  O_28
    3  A    between atoms: C_4  and  C_48
    4  A    between atoms: C_8  and  C_32
    5  A    between atoms: C_9  and  C_32
    6  A    between atoms: C_9  and  N_39
    7  A    between atoms: C_10  and  N_39
    8  A    between atoms: C_10  and  C_44
    9  A    between atoms: N_12  and  C_33
   10  A    between atoms: C_16  and  C_25
   11  A    between atoms: C_20  and  C_52
   12  A    between atoms: C_23  and  C_31
   13  A    between atoms: C_23  and  C_34
   14  A    between atoms: C_32  and  C_34
   15  A    between atoms: C_33  and  N_37
   16  A    between atoms: N_42  and  C_45
   17  A    between atoms: C_43  and  C_47
                            x       y       z     vdW  Elec       q    Type
                         _______ _______ _______ _____ _____    ______ ____

>  <TORSDO>
F 17

$$$$
=
 OpenBabel11042415563D

 52 56  0  0  1  0  0  0  0  0999 V2000
  190.1590  177.3050  144.8310 O   0  0  0  0  0  0  0  0  0  0  0  0
  191.1800  177.3920  143.8600 C   0  0  0  0  0  2  0  0  0  0  0  0
  191.4390  176.0240  143.3570 C   0  0  0  0  0  0  0  0  0  0  0  0
  189.7190  175.9620  144.8420 C   0  0  2  0  0  3  0  0  0  0  0  0
  190.5970  175.1970  143.9270 C   0  0  0  0  0  0  0  0  0  0  0  0
  191.1180  172.9350  144.5000 O   0  0  0  0  0  0  0  0  0  0  0  0
  189.7450  173.2320  142.6310 N   0  0  0  0  0  2  0  0  0  0  0  0
  190.5080  173.7350  143.7310 C   0  0  0  0  0  0  0  0  0  0  0  0
  189.6390  171.8120  142.3420 C   0  0  0  0  0  2  0  0  0  0  0  0
  191.2540  169.6590  141.4180 O   0  0  0  0  0  0  0  0  0  0  0  0
  189.9960  171.5750  140.9510 N   0  0  0  0  0  2  0  0  0  0  0  0
  190.8340  170.4850  140.5590 C   0  0  0  0  0  0  0  0  0  0  0  0
  191.8990  171.5120  138.5910 C   0  0  0  0  0  2  0  0  0  0  0  0
  191.1660  170.2970  139.1130 C   0  0  2  0  0  3  0  0  0  0  0  0
  189.9040  170.1010  138.2780 C   0  0  0  0  0  2  0  0  0  0  0  0
  190.1180  170.8910  136.6510 S   0  0  0  0  0  0  0  0  0  0  0  0
  191.7880  171.4610  137.0840 C   0  0  1  0  0  3  0  0  0  0  0  0
  193.5990  174.2690  135.2280 C   0  0  0  0  0  3  0  0  0  0  0  0
  191.1980  173.8530  136.5870 C   0  0  0  0  0  3  0  0  0  0  0  0
  192.1060  172.7880  136.4510 C   0  0  0  0  0  0  0  0  0  0  0  0
  191.4840  175.1070  136.0480 C   0  0  0  0  0  3  0  0  0  0  0  0
  192.6880  175.3160  135.3730 C   0  0  0  0  0  3  0  0  0  0  0  0
  193.3180  172.9920  135.7450 C   0  0  0  0  0  0  0  0  0  0  0  0
  195.3430  172.2590  134.7120 F   0  0  0  0  0  0  0  0  0  0  0  0
  194.3310  171.8700  135.5840 C   0  0  0  0  0  0  0  0  0  0  0  0
  193.6790  170.7920  135.0120 F   0  0  0  0  0  0  0  0  0  0  0  0
  195.8380  172.3560  137.2510 C   0  0  0  0  0  1  0  0  0  0  0  0
  194.8640  171.4380  136.8230 O   0  0  0  0  0  0  0  0  0  0  0  0
  192.4850  175.6560  142.3450 C   0  0  0  0  0  2  0  0  0  0  0  0
  193.8020  176.1020  142.7700 N   0  0  0  0  0  2  0  0  0  0  0  0
  194.3620  175.0380  143.5900 C   0  0  0  0  0  2  0  0  0  0  0  0
  195.4130  175.5900  144.5590 C   0  0  2  0  0  3  0  0  0  0  0  0
  196.7720  174.9420  144.3230 C   0  0  0  0  0  2  0  0  0  0  0  0
  196.6340  173.5650  144.2730 F   0  0  0  0  0  0  0  0  0  0  0  0
  194.9910  175.4200  146.0150 C   0  0  0  0  0  2  0  0  0  0  0  0
  194.1110  176.5720  146.4800 C   0  0  0  0  0  2  0  0  0  0  0  0
  192.4660  174.7310  146.8270 O   0  0  0  0  0  0  0  0  0  0  0  0
  192.8040  176.0680  146.9850 C   0  0  0  0  0  0  0  0  0  0  0  0
  192.0140  176.8530  147.5740 O   0  0  0  0  0  1  0  0  0  0  0  0
  188.3410  175.8960  144.3730 N   0  0  0  0  0  2  0  0  0  0  0  0
  187.4960  177.0060  144.0190 C   0  0  0  0  0  0  0  0  0  0  0  0
  185.7940  178.6250  144.6350 C   0  0  0  0  0  0  0  0  0  0  0  0
  185.4340  177.4500  147.1710 O   0  0  0  0  0  0  0  0  0  0  0  0
  187.5380  177.6220  142.7490 C   0  0  0  0  0  0  0  0  0  0  0  0
  184.8860  179.2600  145.6480 C   0  0  0  0  0  2  0  0  0  0  0  0
  186.4790  177.0000  146.3640 C   0  0  0  0  0  0  0  0  0  0  0  0
  185.8870  179.1660  143.3980 N   0  0  0  0  0  0  0  0  0  0  0  0
  186.6110  177.5350  144.9810 C   0  0  0  0  0  0  0  0  0  0  0  0
  188.3970  177.1520  141.7150 N   0  0  0  0  0  1  0  0  0  0  0  0
  187.3040  176.1750  146.8330 O   0  0  0  0  0  0  0  0  0  0  0  0
  184.3570  178.2090  146.6220 C   0  0  0  0  0  2  0  0  0  0  0  0
  186.7260  178.6790  142.4880 N   0  0  0  0  0  0  0  0  0  0  0  0
  1  4  1  0  0  0  0
  2  1  1  0  0  0  0
  3  2  1  0  0  0  0
  3  5  2  0  0  0  0
  4 40  1  6  0  0  0
  5  4  1  0  0  0  0
  7  8  1  0  0  0  0
  8  5  1  0  0  0  0
  8  6  2  0  0  0  0
  9  7  1  0  0  0  0
 11  9  1  0  0  0  0
 12 11  1  0  0  0  0
 12 10  2  0  0  0  0
 13 14  1  0  0  0  0
 14 12  1  1  0  0  0
 15 14  1  0  0  0  0
 16 17  1  0  0  0  0
 16 15  1  0  0  0  0
 17 20  1  6  0  0  0
 17 13  1  0  0  0  0
 18 22  2  0  0  0  0
 18 23  1  0  0  0  0
 20 19  1  0  0  0  0
 21 19  2  0  0  0  0
 22 21  1  0  0  0  0
 23 20  2  0  0  0  0
 24 25  1  0  0  0  0
 25 23  1  0  0  0  0
 25 28  1  0  0  0  0
 26 25  1  0  0  0  0
 28 27  1  0  0  0  0
 29 30  1  0  0  0  0
 29  3  1  0  0  0  0
 30 31  1  0  0  0  0
 32 31  1  6  0  0  0
 32 35  1  0  0  0  0
 33 32  1  0  0  0  0
 34 33  1  0  0  0  0
 35 36  1  0  0  0  0
 36 38  1  0  0  0  0
 37 38  2  0  0  0  0
 38 39  1  0  0  0  0
 41 40  1  0  0  0  0
 41 48  1  0  0  0  0
 42 48  2  0  0  0  0
 42 45  1  0  0  0  0
 44 41  2  0  0  0  0
 45 51  1  0  0  0  0
 46 50  2  0  0  0  0
 46 43  1  0  0  0  0
 47 42  1  0  0  0  0
 48 46  1  0  0  0  0
 49 44  1  0  0  0  0
 51 43  1  0  0  0  0
 52 44  1  0  0  0  0
 52 47  2  0  0  0  0
M  END
>  <MODEL>
5

>  <REMARK>
 VINA RESULT:      -6.4      3.161      7.101
  Name = 
  17 active torsions:
  status: ('A' for Active; 'I' for Inactive)
    1  A    between atoms: C_2  and  N_42
    2  A    between atoms: C_4  and  O_28
    3  A    between atoms: C_4  and  C_48
    4  A    between atoms: C_8  and  C_32
    5  A    between atoms: C_9  and  C_32
    6  A    between atoms: C_9  and  N_39
    7  A    between atoms: C_10  and  N_39
    8  A    between atoms: C_10  and  C_44
    9  A    between atoms: N_12  and  C_33
   10  A    between atoms: C_16  and  C_25
   11  A    between atoms: C_20  and  C_52
   12  A    between atoms: C_23  and  C_31
   13  A    between atoms: C_23  and  C_34
   14  A    between atoms: C_32  and  C_34
   15  A    between atoms: C_33  and  N_37
   16  A    between atoms: N_42  and  C_45
   17  A    between atoms: C_43  and  C_47
                            x       y       z     vdW  Elec       q    Type
                         _______ _______ _______ _____ _____    ______ ____

>  <TORSDO>
F 17

$$$$
=
 OpenBabel11042415563D

 52 56  0  0  1  0  0  0  0  0999 V2000
  192.1150  176.3220  146.7500 O   0  0  0  0  0  0  0  0  0  0  0  0
  190.9450  176.0370  147.4860 C   0  0  0  0  0  2  0  0  0  0  0  0
  189.8350  175.8770  146.5190 C   0  0  0  0  0  0  0  0  0  0  0  0
  191.7730  176.2240  145.3820 C   0  0  2  0  0  3  0  0  0  0  0  0
  190.3130  175.9890  145.3040 C   0  0  0  0  0  0  0  0  0  0  0  0
  189.0020  176.9390  143.5450 O   0  0  0  0  0  0  0  0  0  0  0  0
  189.4340  174.6480  143.3820 N   0  0  0  0  0  2  0  0  0  0  0  0
  189.5570  175.9130  144.0360 C   0  0  0  0  0  0  0  0  0  0  0  0
  188.6740  174.4770  142.1550 C   0  0  0  0  0  2  0  0  0  0  0  0
  189.5210  171.8320  141.5350 O   0  0  0  0  0  0  0  0  0  0  0  0
  189.5800  174.1240  141.0720 N   0  0  0  0  0  2  0  0  0  0  0  0
  189.9840  172.7730  140.8310 C   0  0  0  0  0  0  0  0  0  0  0  0
  191.3680  173.7640  139.0530 C   0  0  0  0  0  2  0  0  0  0  0  0
  190.9200  172.4750  139.7040 C   0  0  2  0  0  3  0  0  0  0  0  0
  190.2460  171.6100  138.6430 C   0  0  0  0  0  2  0  0  0  0  0  0
  190.8400  172.0940  136.9900 S   0  0  0  0  0  0  0  0  0  0  0  0
  191.9070  173.3890  137.6910 C   0  0  1  0  0  3  0  0  0  0  0  0
  193.2250  176.4920  135.8920 C   0  0  0  0  0  3  0  0  0  0  0  0
  190.9000  174.9530  136.0020 C   0  0  0  0  0  3  0  0  0  0  0  0
  192.0100  174.5800  136.7790 C   0  0  0  0  0  0  0  0  0  0  0  0
  190.9510  176.0780  135.1790 C   0  0  0  0  0  3  0  0  0  0  0  0
  192.1130  176.8510  135.1280 C   0  0  0  0  0  3  0  0  0  0  0  0
  193.1990  175.3490  136.7100 C   0  0  0  0  0  0  0  0  0  0  0  0
  194.2170  175.3390  138.8710 F   0  0  0  0  0  0  0  0  0  0  0  0
  194.4190  174.9840  137.5410 C   0  0  0  0  0  0  0  0  0  0  0  0
  195.4870  175.7260  137.0690 F   0  0  0  0  0  0  0  0  0  0  0  0
  196.1500  173.4720  137.6140 C   0  0  0  0  0  1  0  0  0  0  0  0
  194.7650  173.6160  137.4250 O   0  0  0  0  0  0  0  0  0  0  0  0
  188.4020  175.6120  146.8800 C   0  0  0  0  0  2  0  0  0  0  0  0
  187.6720  176.8550  147.0650 N   0  0  0  0  0  2  0  0  0  0  0  0
  186.4940  176.7820  146.2120 C   0  0  0  0  0  2  0  0  0  0  0  0
  185.9770  178.1830  145.8720 C   0  0  2  0  0  3  0  0  0  0  0  0
  185.2300  178.7940  147.0510 C   0  0  0  0  0  2  0  0  0  0  0  0
  186.0720  179.6400  147.7550 F   0  0  0  0  0  0  0  0  0  0  0  0
  185.0910  178.1770  144.6300 C   0  0  0  0  0  2  0  0  0  0  0  0
  185.7770  178.8570  143.4530 C   0  0  0  0  0  2  0  0  0  0  0  0
  185.9410  176.6660  142.2730 O   0  0  0  0  0  1  0  0  0  0  0  0
  185.6620  178.0250  142.2230 C   0  0  0  0  0  0  0  0  0  0  0  0
  185.2930  178.5530  141.1400 O   0  0  0  0  0  0  0  0  0  0  0  0
  192.4860  175.1060  144.7790 N   0  0  0  0  0  2  0  0  0  0  0  0
  193.6650  175.1780  143.9580 C   0  0  0  0  0  0  0  0  0  0  0  0
  195.9330  174.4530  143.4780 C   0  0  0  0  0  0  0  0  0  0  0  0
  196.0530  172.8980  145.8240 O   0  0  0  0  0  0  0  0  0  0  0  0
  193.7410  175.9850  142.8020 C   0  0  0  0  0  0  0  0  0  0  0  0
  197.1230  173.5810  143.7550 C   0  0  0  0  0  2  0  0  0  0  0  0
  194.8360  173.4760  145.4620 C   0  0  0  0  0  0  0  0  0  0  0  0
  195.9360  175.2500  142.3830 N   0  0  0  0  0  0  0  0  0  0  0  0
  194.7860  174.3880  144.2870 C   0  0  0  0  0  0  0  0  0  0  0  0
  192.6610  176.8200  142.3950 N   0  0  0  0  0  1  0  0  0  0  0  0
  193.8010  173.1880  146.1180 O   0  0  0  0  0  0  0  0  0  0  0  0
  197.2800  173.3550  145.2560 C   0  0  0  0  0  2  0  0  0  0  0  0
  194.8800  175.9910  142.0600 N   0  0  0  0  0  0  0  0  0  0  0  0
  1  2  1  0  0  0  0
  3 29  1  0  0  0  0
  3  2  1  0  0  0  0
  4 40  1  1  0  0  0
  4  1  1  0  0  0  0
  5  4  1  0  0  0  0
  5  3  2  0  0  0  0
  6  8  2  0  0  0  0
  7  8  1  0  0  0  0
  8  5  1  0  0  0  0
  9  7  1  0  0  0  0
 11  9  1  0  0  0  0
 12 11  1  0  0  0  0
 12 10  2  0  0  0  0
 13 14  1  0  0  0  0
 14 12  1  1  0  0  0
 15 14  1  0  0  0  0
 16 17  1  0  0  0  0
 16 15  1  0  0  0  0
 17 20  1  6  0  0  0
 17 13  1  0  0  0  0
 18 23  1  0  0  0  0
 19 20  1  0  0  0  0
 21 19  2  0  0  0  0
 22 21  1  0  0  0  0
 22 18  2  0  0  0  0
 23 20  2  0  0  0  0
 23 25  1  0  0  0  0
 25 24  1  0  0  0  0
 26 25  1  0  0  0  0
 28 25  1  0  0  0  0
 28 27  1  0  0  0  0
 29 30  1  0  0  0  0
 31 30  1  0  0  0  0
 32 35  1  6  0  0  0
 32 31  1  0  0  0  0
 32 33  1  0  0  0  0
 33 34  1  0  0  0  0
 36 35  1  0  0  0  0
 38 37  1  0  0  0  0
 38 36  1  0  0  0  0
 39 38  2  0  0  0  0
 41 48  1  0  0  0  0
 41 40  1  0  0  0  0
 42 45  1  0  0  0  0
 42 48  2  0  0  0  0
 44 41  2  0  0  0  0
 45 51  1  0  0  0  0
 46 43  1  0  0  0  0
 46 50  2  0  0  0  0
 47 42  1  0  0  0  0
 48 46  1  0  0  0  0
 49 44  1  0  0  0  0
 51 43  1  0  0  0  0
 52 47  2  0  0  0  0
 52 44  1  0  0  0  0
M  END
>  <MODEL>
6

>  <REMARK>
 VINA RESULT:      -6.4      2.299      3.040
  Name = 
  17 active torsions:
  status: ('A' for Active; 'I' for Inactive)
    1  A    between atoms: C_2  and  N_42
    2  A    between atoms: C_4  and  O_28
    3  A    between atoms: C_4  and  C_48
    4  A    between atoms: C_8  and  C_32
    5  A    between atoms: C_9  and  C_32
    6  A    between atoms: C_9  and  N_39
    7  A    between atoms: C_10  and  N_39
    8  A    between atoms: C_10  and  C_44
    9  A    between atoms: N_12  and  C_33
   10  A    between atoms: C_16  and  C_25
   11  A    between atoms: C_20  and  C_52
   12  A    between atoms: C_23  and  C_31
   13  A    between atoms: C_23  and  C_34
   14  A    between atoms: C_32  and  C_34
   15  A    between atoms: C_33  and  N_37
   16  A    between atoms: N_42  and  C_45
   17  A    between atoms: C_43  and  C_47
                            x       y       z     vdW  Elec       q    Type
                         _______ _______ _______ _____ _____    ______ ____

>  <TORSDO>
F 17

$$$$
=
 OpenBabel11042415563D

 52 56  0  0  1  0  0  0  0  0999 V2000
  197.6400  173.8730  140.9580 O   0  0  0  0  0  0  0  0  0  0  0  0
  197.3790  175.0940  141.6180 C   0  0  0  0  0  2  0  0  0  0  0  0
  195.9690  175.0670  142.0710 C   0  0  0  0  0  0  0  0  0  0  0  0
  196.4820  173.0760  141.1010 C   0  0  2  0  0  3  0  0  0  0  0  0
  195.4510  173.9020  141.7690 C   0  0  0  0  0  0  0  0  0  0  0  0
  193.3360  173.0270  141.0770 O   0  0  0  0  0  0  0  0  0  0  0  0
  193.5500  173.5200  143.3520 N   0  0  0  0  0  2  0  0  0  0  0  0
  194.0670  173.4470  142.0210 C   0  0  0  0  0  0  0  0  0  0  0  0
  192.1880  173.1320  143.6800 C   0  0  0  0  0  2  0  0  0  0  0  0
  190.1280  173.2150  141.7190 O   0  0  0  0  0  0  0  0  0  0  0  0
  191.2980  174.2610  143.4540 N   0  0  0  0  0  2  0  0  0  0  0  0
  190.2970  174.2440  142.4330 C   0  0  0  0  0  0  0  0  0  0  0  0
  189.0770  176.0410  143.5930 C   0  0  0  0  0  2  0  0  0  0  0  0
  189.4150  175.4370  142.2480 C   0  0  2  0  0  3  0  0  0  0  0  0
  188.1120  175.0560  141.5510 C   0  0  0  0  0  2  0  0  0  0  0  0
  186.7440  176.0540  142.2220 S   0  0  0  0  0  0  0  0  0  0  0  0
  187.8580  176.9090  143.3760 C   0  0  1  0  0  3  0  0  0  0  0  0
  185.7070  178.6550  146.0070 C   0  0  0  0  0  3  0  0  0  0  0  0
  187.4400  176.4770  145.8150 C   0  0  0  0  0  3  0  0  0  0  0  0
  187.1700  177.2460  144.6700 C   0  0  0  0  0  0  0  0  0  0  0  0
  186.8500  176.7910  147.0400 C   0  0  0  0  0  3  0  0  0  0  0  0
  185.9870  177.8840  147.1370 C   0  0  0  0  0  3  0  0  0  0  0  0
  186.2750  178.3410  144.7600 C   0  0  0  0  0  0  0  0  0  0  0  0
  187.1120  179.3920  142.7850 F   0  0  0  0  0  0  0  0  0  0  0  0
  185.9630  179.2030  143.5470 C   0  0  0  0  0  0  0  0  0  0  0  0
  185.5560  180.4430  144.0040 F   0  0  0  0  0  0  0  0  0  0  0  0
  183.7210  178.6920  143.5080 C   0  0  0  0  0  1  0  0  0  0  0  0
  184.9120  178.6710  142.7610 O   0  0  0  0  0  0  0  0  0  0  0  0
  195.2640  176.1880  142.7760 C   0  0  0  0  0  2  0  0  0  0  0  0
  195.7860  176.3700  144.1200 N   0  0  0  0  0  2  0  0  0  0  0  0
  194.6570  176.7300  144.9650 C   0  0  0  0  0  2  0  0  0  0  0  0
  194.5690  175.8050  146.1830 C   0  0  2  0  0  3  0  0  0  0  0  0
  195.5100  174.6160  146.0390 C   0  0  0  0  0  2  0  0  0  0  0  0
  194.7950  173.4340  146.1390 F   0  0  0  0  0  0  0  0  0  0  0  0
  193.1420  175.3240  146.4300 C   0  0  0  0  0  2  0  0  0  0  0  0
  192.1300  176.4400  146.2110 C   0  0  0  0  0  2  0  0  0  0  0  0
  190.2230  177.5300  147.3900 O   0  0  0  0  0  0  0  0  0  0  0  0
  191.2480  176.5950  147.4010 C   0  0  0  0  0  0  0  0  0  0  0  0
  191.4220  175.8620  148.4110 O   0  0  0  0  0  1  0  0  0  0  0  0
  196.7900  171.9120  141.9230 N   0  0  0  0  0  2  0  0  0  0  0  0
  195.8850  170.8560  142.2950 C   0  0  0  0  0  0  0  0  0  0  0  0
  194.8320  169.5100  144.0190 C   0  0  0  0  0  0  0  0  0  0  0  0
  196.3840  170.6930  146.0510 O   0  0  0  0  0  0  0  0  0  0  0  0
  195.1150  170.1430  141.3510 C   0  0  0  0  0  0  0  0  0  0  0  0
  194.5800  169.1790  145.4620 C   0  0  0  0  0  2  0  0  0  0  0  0
  196.4520  171.2180  144.7610 C   0  0  0  0  0  0  0  0  0  0  0  0
  194.1250  168.8670  143.0600 N   0  0  0  0  0  0  0  0  0  0  0  0
  195.7230  170.5340  143.6590 C   0  0  0  0  0  0  0  0  0  0  0  0
  195.2170  170.3960  139.9530 N   0  0  0  0  0  1  0  0  0  0  0  0
  197.1030  172.2770  144.5630 O   0  0  0  0  0  0  0  0  0  0  0  0
  195.8470  169.3920  146.2860 C   0  0  0  0  0  2  0  0  0  0  0  0
  194.2660  169.1710  141.7730 N   0  0  0  0  0  0  0  0  0  0  0  0
  1  4  1  0  0  0  0
  1  2  1  0  0  0  0
  2  3  1  0  0  0  0
  3 29  1  0  0  0  0
  4  5  1  0  0  0  0
  4 40  1  1  0  0  0
  5  8  1  0  0  0  0
  5  3  2  0  0  0  0
  6  8  2  0  0  0  0
  7  9  1  0  0  0  0
  8  7  1  0  0  0  0
 10 12  2  0  0  0  0
 11  9  1  0  0  0  0
 12 11  1  0  0  0  0
 14 12  1  1  0  0  0
 14 13  1  0  0  0  0
 15 16  1  0  0  0  0
 15 14  1  0  0  0  0
 16 17  1  0  0  0  0
 17 13  1  0  0  0  0
 17 20  1  1  0  0  0
 18 22  1  0  0  0  0
 19 21  1  0  0  0  0
 20 23  1  0  0  0  0
 20 19  2  0  0  0  0
 21 22  2  0  0  0  0
 23 18  2  0  0  0  0
 24 25  1  0  0  0  0
 25 26  1  0  0  0  0
 25 23  1  0  0  0  0
 28 27  1  0  0  0  0
 28 25  1  0  0  0  0
 29 30  1  0  0  0  0
 30 31  1  0  0  0  0
 32 31  1  6  0  0  0
 32 35  1  0  0  0  0
 33 34  1  0  0  0  0
 33 32  1  0  0  0  0
 36 35  1  0  0  0  0
 36 38  1  0  0  0  0
 37 38  2  0  0  0  0
 38 39  1  0  0  0  0
 40 41  1  0  0  0  0
 41 48  1  0  0  0  0
 42 45  1  0  0  0  0
 43 51  1  0  0  0  0
 44 52  1  0  0  0  0
 44 41  2  0  0  0  0
 45 51  1  0  0  0  0
 46 43  1  0  0  0  0
 47 42  1  0  0  0  0
 48 42  2  0  0  0  0
 48 46  1  0  0  0  0
 49 44  1  0  0  0  0
 50 46  2  0  0  0  0
 52 47  2  0  0  0  0
M  END
>  <MODEL>
7

>  <REMARK>
 VINA RESULT:      -6.3      3.387      8.131
  Name = 
  17 active torsions:
  status: ('A' for Active; 'I' for Inactive)
    1  A    between atoms: C_2  and  N_42
    2  A    between atoms: C_4  and  O_28
    3  A    between atoms: C_4  and  C_48
    4  A    between atoms: C_8  and  C_32
    5  A    between atoms: C_9  and  C_32
    6  A    between atoms: C_9  and  N_39
    7  A    between atoms: C_10  and  N_39
    8  A    between atoms: C_10  and  C_44
    9  A    between atoms: N_12  and  C_33
   10  A    between atoms: C_16  and  C_25
   11  A    between atoms: C_20  and  C_52
   12  A    between atoms: C_23  and  C_31
   13  A    between atoms: C_23  and  C_34
   14  A    between atoms: C_32  and  C_34
   15  A    between atoms: C_33  and  N_37
   16  A    between atoms: N_42  and  C_45
   17  A    between atoms: C_43  and  C_47
                            x       y       z     vdW  Elec       q    Type
                         _______ _______ _______ _____ _____    ______ ____

>  <TORSDO>
F 17

$$$$
=
 OpenBabel11042415563D

 52 56  0  0  1  0  0  0  0  0999 V2000
  192.9050  176.5650  145.0760 O   0  0  0  0  0  0  0  0  0  0  0  0
  192.1670  176.3270  146.2560 C   0  0  0  0  0  2  0  0  0  0  0  0
  190.8730  175.7260  145.8620 C   0  0  0  0  0  0  0  0  0  0  0  0
  192.1550  176.0240  144.0080 C   0  0  2  0  0  3  0  0  0  0  0  0
  190.8640  175.5540  144.5630 C   0  0  0  0  0  0  0  0  0  0  0  0
  189.4950  173.7630  143.7680 O   0  0  0  0  0  0  0  0  0  0  0  0
  189.0350  175.8780  142.8850 N   0  0  0  0  0  2  0  0  0  0  0  0
  189.7680  174.9990  143.7420 C   0  0  0  0  0  0  0  0  0  0  0  0
  187.9710  175.4080  142.0140 C   0  0  0  0  0  2  0  0  0  0  0  0
  187.8610  172.6910  141.1780 O   0  0  0  0  0  0  0  0  0  0  0  0
  188.5480  174.8910  140.7820 N   0  0  0  0  0  2  0  0  0  0  0  0
  188.4770  173.5060  140.4350 C   0  0  0  0  0  0  0  0  0  0  0  0
  190.5910  172.9270  139.3150 C   0  0  0  0  0  2  0  0  0  0  0  0
  189.0920  173.0370  139.1550 C   0  0  2  0  0  3  0  0  0  0  0  0
  188.7990  174.0080  138.0150 C   0  0  0  0  0  2  0  0  0  0  0  0
  190.2360  174.0900  136.8980 S   0  0  0  0  0  0  0  0  0  0  0  0
  191.1680  172.9090  137.9180 C   0  0  1  0  0  3  0  0  0  0  0  0
  194.9610  172.5270  137.6480 C   0  0  0  0  0  3  0  0  0  0  0  0
  193.0850  174.4930  138.2800 C   0  0  0  0  0  3  0  0  0  0  0  0
  192.6420  173.2110  137.9140 C   0  0  0  0  0  0  0  0  0  0  0  0
  194.4470  174.7920  138.3260 C   0  0  0  0  0  3  0  0  0  0  0  0
  195.3860  173.8060  138.0160 C   0  0  0  0  0  3  0  0  0  0  0  0
  193.5920  172.2160  137.5740 C   0  0  0  0  0  0  0  0  0  0  0  0
  194.2540  170.0680  136.7640 F   0  0  0  0  0  0  0  0  0  0  0  0
  193.1550  170.8130  137.1820 C   0  0  0  0  0  0  0  0  0  0  0  0
  192.2930  170.9250  136.1070 F   0  0  0  0  0  0  0  0  0  0  0  0
  193.3510  169.8690  139.2700 C   0  0  0  0  0  1  0  0  0  0  0  0
  192.4580  170.1520  138.2220 O   0  0  0  0  0  0  0  0  0  0  0  0
  189.7650  175.3590  146.8060 C   0  0  0  0  0  2  0  0  0  0  0  0
  188.4880  175.8670  146.3340 N   0  0  0  0  0  2  0  0  0  0  0  0
  188.4600  177.2890  146.6410 C   0  0  0  0  0  2  0  0  0  0  0  0
  187.0860  177.8900  146.3310 C   0  0  2  0  0  3  0  0  0  0  0  0
  186.3030  178.1610  147.6100 C   0  0  0  0  0  2  0  0  0  0  0  0
  186.0590  179.5190  147.7340 F   0  0  0  0  0  0  0  0  0  0  0  0
  186.2740  177.0010  145.3930 C   0  0  0  0  0  2  0  0  0  0  0  0
  185.2130  177.7990  144.6470 C   0  0  0  0  0  2  0  0  0  0  0  0
  186.6880  178.6850  142.8420 O   0  0  0  0  0  0  0  0  0  0  0  0
  185.8300  178.9330  143.9050 C   0  0  0  0  0  0  0  0  0  0  0  0
  185.5560  180.1190  144.2300 O   0  0  0  0  0  1  0  0  0  0  0  0
  192.8770  174.9020  143.4220 N   0  0  0  0  0  2  0  0  0  0  0  0
  194.2230  174.4920  143.7220 C   0  0  0  0  0  0  0  0  0  0  0  0
  196.6040  174.6090  143.2570 C   0  0  0  0  0  0  0  0  0  0  0  0
  196.1950  176.2350  140.9920 O   0  0  0  0  0  0  0  0  0  0  0  0
  194.5350  173.6180  144.7870 C   0  0  0  0  0  0  0  0  0  0  0  0
  197.7730  175.1810  142.5070 C   0  0  0  0  0  2  0  0  0  0  0  0
  195.1100  175.9500  141.8200 C   0  0  0  0  0  0  0  0  0  0  0  0
  196.8290  173.7670  144.2930 N   0  0  0  0  0  0  0  0  0  0  0  0
  195.2900  175.0050  142.9550 C   0  0  0  0  0  0  0  0  0  0  0  0
  193.5230  173.0480  145.6110 N   0  0  0  0  0  1  0  0  0  0  0  0
  194.0100  176.5230  141.6070 O   0  0  0  0  0  0  0  0  0  0  0  0
  197.3910  175.4580  141.0550 C   0  0  0  0  0  2  0  0  0  0  0  0
  195.8300  173.2870  145.0270 N   0  0  0  0  0  0  0  0  0  0  0  0
  1  2  1  0  0  0  0
  3  2  1  0  0  0  0
  3 29  1  0  0  0  0
  4 40  1  1  0  0  0
  4  5  1  0  0  0  0
  4  1  1  0  0  0  0
  5  3  2  0  0  0  0
  7  8  1  0  0  0  0
  8  6  2  0  0  0  0
  8  5  1  0  0  0  0
  9  7  1  0  0  0  0
 11  9  1  0  0  0  0
 12 11  1  0  0  0  0
 12 10  2  0  0  0  0
 14 13  1  0  0  0  0
 14 12  1  1  0  0  0
 15 14  1  0  0  0  0
 16 17  1  0  0  0  0
 16 15  1  0  0  0  0
 17 20  1  1  0  0  0
 17 13  1  0  0  0  0
 18 22  1  0  0  0  0
 19 21  1  0  0  0  0
 20 19  2  0  0  0  0
 22 21  2  0  0  0  0
 23 18  2  0  0  0  0
 23 20  1  0  0  0  0
 24 25  1  0  0  0  0
 25 23  1  0  0  0  0
 25 28  1  0  0  0  0
 26 25  1  0  0  0  0
 28 27  1  0  0  0  0
 30 31  1  0  0  0  0
 30 29  1  0  0  0  0
 32 35  1  6  0  0  0
 32 31  1  0  0  0  0
 32 33  1  0  0  0  0
 33 34  1  0  0  0  0
 36 35  1  0  0  0  0
 37 38  2  0  0  0  0
 38 39  1  0  0  0  0
 38 36  1  0  0  0  0
 40 41  1  0  0  0  0
 41 44  1  0  0  0  0
 42 47  2  0  0  0  0
 43 51  1  0  0  0  0
 43 46  1  0  0  0  0
 44 52  2  0  0  0  0
 44 49  1  0  0  0  0
 45 42  1  0  0  0  0
 46 48  1  0  0  0  0
 47 52  1  0  0  0  0
 48 42  1  0  0  0  0
 48 41  2  0  0  0  0
 50 46  2  0  0  0  0
 51 45  1  0  0  0  0
M  END
>  <MODEL>
8

>  <REMARK>
 VINA RESULT:      -6.3      1.634      2.010
  Name = 
  17 active torsions:
  status: ('A' for Active; 'I' for Inactive)
    1  A    between atoms: C_2  and  N_42
    2  A    between atoms: C_4  and  O_28
    3  A    between atoms: C_4  and  C_48
    4  A    between atoms: C_8  and  C_32
    5  A    between atoms: C_9  and  C_32
    6  A    between atoms: C_9  and  N_39
    7  A    between atoms: C_10  and  N_39
    8  A    between atoms: C_10  and  C_44
    9  A    between atoms: N_12  and  C_33
   10  A    between atoms: C_16  and  C_25
   11  A    between atoms: C_20  and  C_52
   12  A    between atoms: C_23  and  C_31
   13  A    between atoms: C_23  and  C_34
   14  A    between atoms: C_32  and  C_34
   15  A    between atoms: C_33  and  N_37
   16  A    between atoms: N_42  and  C_45
   17  A    between atoms: C_43  and  C_47
                            x       y       z     vdW  Elec       q    Type
                         _______ _______ _______ _____ _____    ______ ____

>  <TORSDO>
F 17

$$$$
=
 OpenBabel11042415563D

 52 56  0  0  1  0  0  0  0  0999 V2000
  187.6970  176.8580  140.9820 O   0  0  0  0  0  0  0  0  0  0  0  0
  187.4410  176.1300  139.8000 C   0  0  0  0  0  2  0  0  0  0  0  0
  188.1610  174.8400  139.9030 C   0  0  0  0  0  0  0  0  0  0  0  0
  188.4420  176.0090  141.8320 C   0  0  2  0  0  3  0  0  0  0  0  0
  188.7420  174.7720  141.0750 C   0  0  0  0  0  0  0  0  0  0  0  0
  190.8240  173.6360  141.3760 O   0  0  0  0  0  0  0  0  0  0  0  0
  188.9500  172.6160  142.3310 N   0  0  0  0  0  2  0  0  0  0  0  0
  189.5780  173.6700  141.5970 C   0  0  0  0  0  0  0  0  0  0  0  0
  189.6910  171.4760  142.8420 C   0  0  0  0  0  2  0  0  0  0  0  0
  192.2090  170.1810  143.1180 O   0  0  0  0  0  0  0  0  0  0  0  0
  190.7820  171.9460  143.6820 N   0  0  0  0  0  2  0  0  0  0  0  0
  192.0150  171.2310  143.7930 C   0  0  0  0  0  0  0  0  0  0  0  0
  193.4970  173.1510  144.2200 C   0  0  0  0  0  2  0  0  0  0  0  0
  193.0980  171.7650  144.6760 C   0  0  2  0  0  3  0  0  0  0  0  0
  194.3330  170.8710  144.6340 C   0  0  0  0  0  2  0  0  0  0  0  0
  195.8350  171.8950  144.7500 S   0  0  0  0  0  0  0  0  0  0  0  0
  194.8540  173.4240  144.8270 C   0  0  1  0  0  3  0  0  0  0  0  0
  196.0680  176.9390  143.9450 C   0  0  0  0  0  3  0  0  0  0  0  0
  196.2990  174.3300  142.9820 C   0  0  0  0  0  3  0  0  0  0  0  0
  195.5540  174.5700  144.1490 C   0  0  0  0  0  0  0  0  0  0  0  0
  196.9250  175.3790  142.3070 C   0  0  0  0  0  3  0  0  0  0  0  0
  196.8040  176.6850  142.7860 C   0  0  0  0  0  3  0  0  0  0  0  0
  195.4500  175.8910  144.6510 C   0  0  0  0  0  0  0  0  0  0  0  0
  194.9410  177.4740  146.3660 F   0  0  0  0  0  0  0  0  0  0  0  0
  194.6450  176.1950  145.9050 C   0  0  0  0  0  0  0  0  0  0  0  0
  195.0350  175.2980  146.8840 F   0  0  0  0  0  0  0  0  0  0  0  0
  192.5650  176.5440  146.8220 C   0  0  0  0  0  1  0  0  0  0  0  0
  193.2530  176.0330  145.7070 O   0  0  0  0  0  0  0  0  0  0  0  0
  188.1980  173.7810  138.8400 C   0  0  0  0  0  2  0  0  0  0  0  0
  189.4810  173.7720  138.1560 N   0  0  0  0  0  2  0  0  0  0  0  0
  189.2280  174.1770  136.7810 C   0  0  0  0  0  2  0  0  0  0  0  0
  189.9510  173.2520  135.7970 C   0  0  2  0  0  3  0  0  0  0  0  0
  190.2720  171.9090  136.4400 C   0  0  0  0  0  2  0  0  0  0  0  0
  189.3100  170.9770  136.0870 F   0  0  0  0  0  0  0  0  0  0  0  0
  191.2220  173.8910  135.2430 C   0  0  0  0  0  2  0  0  0  0  0  0
  191.3530  175.3430  135.6810 C   0  0  0  0  0  2  0  0  0  0  0  0
  193.5480  176.5060  135.8950 O   0  0  0  0  0  0  0  0  0  0  0  0
  192.6480  175.5680  136.3810 C   0  0  0  0  0  0  0  0  0  0  0  0
  192.9170  174.9200  137.4280 O   0  0  0  0  0  1  0  0  0  0  0  0
  187.6520  175.6860  143.0130 N   0  0  0  0  0  2  0  0  0  0  0  0
  187.7550  176.2960  144.3130 C   0  0  0  0  0  0  0  0  0  0  0  0
  186.8320  177.7470  146.0260 C   0  0  0  0  0  0  0  0  0  0  0  0
  184.6880  178.5240  144.3720 O   0  0  0  0  0  0  0  0  0  0  0  0
  188.8280  176.0370  145.1930 C   0  0  0  0  0  0  0  0  0  0  0  0
  185.7340  178.6210  146.5610 C   0  0  0  0  0  2  0  0  0  0  0  0
  185.5340  177.5040  143.9400 C   0  0  0  0  0  0  0  0  0  0  0  0
  187.8900  177.4540  146.8190 N   0  0  0  0  0  0  0  0  0  0  0  0
  186.7320  177.1610  144.7540 C   0  0  0  0  0  0  0  0  0  0  0  0
  189.9080  175.1820  144.8310 N   0  0  0  0  0  1  0  0  0  0  0  0
  185.2490  176.8740  142.8890 O   0  0  0  0  0  0  0  0  0  0  0  0
  185.0770  179.4040  145.4260 C   0  0  0  0  0  2  0  0  0  0  0  0
  188.8540  176.6320  146.4140 N   0  0  0  0  0  0  0  0  0  0  0  0
  1  4  1  0  0  0  0
  2  3  1  0  0  0  0
  2  1  1  0  0  0  0
  3  5  2  0  0  0  0
  4 40  1  1  0  0  0
  5  8  1  0  0  0  0
  5  4  1  0  0  0  0
  6  8  2  0  0  0  0
  7  9  1  0  0  0  0
  8  7  1  0  0  0  0
  9 11  1  0  0  0  0
 10 12  2  0  0  0  0
 11 12  1  0  0  0  0
 13 14  1  0  0  0  0
 13 17  1  0  0  0  0
 14 12  1  6  0  0  0
 15 14  1  0  0  0  0
 15 16  1  0  0  0  0
 16 17  1  0  0  0  0
 17 20  1  6  0  0  0
 18 23  1  0  0  0  0
 19 20  1  0  0  0  0
 20 23  2  0  0  0  0
 21 22  1  0  0  0  0
 21 19  2  0  0  0  0
 22 18  2  0  0  0  0
 23 25  1  0  0  0  0
 25 24  1  0  0  0  0
 25 26  1  0  0  0  0
 28 25  1  0  0  0  0
 28 27  1  0  0  0  0
 29  3  1  0  0  0  0
 30 29  1  0  0  0  0
 31 30  1  0  0  0  0
 32 35  1  1  0  0  0
 32 33  1  0  0  0  0
 32 31  1  0  0  0  0
 34 33  1  0  0  0  0
 35 36  1  0  0  0  0
 36 38  1  0  0  0  0
 37 38  2  0  0  0  0
 38 39  1  0  0  0  0
 40 41  1  0  0  0  0
 41 48  2  0  0  0  0
 41 44  1  0  0  0  0
 42 45  1  0  0  0  0
 42 47  2  0  0  0  0
 43 51  1  0  0  0  0
 44 52  2  0  0  0  0
 46 43  1  0  0  0  0
 46 48  1  0  0  0  0
 48 42  1  0  0  0  0
 49 44  1  0  0  0  0
 50 46  2  0  0  0  0
 51 45  1  0  0  0  0
 52 47  1  0  0  0  0
M  END
>  <MODEL>
9

>  <REMARK>
 VINA RESULT:      -6.3      3.387      8.684
  Name = 
  17 active torsions:
  status: ('A' for Active; 'I' for Inactive)
    1  A    between atoms: C_2  and  N_42
    2  A    between atoms: C_4  and  O_28
    3  A    between atoms: C_4  and  C_48
    4  A    between atoms: C_8  and  C_32
    5  A    between atoms: C_9  and  C_32
    6  A    between atoms: C_9  and  N_39
    7  A    between atoms: C_10  and  N_39
    8  A    between atoms: C_10  and  C_44
    9  A    between atoms: N_12  and  C_33
   10  A    between atoms: C_16  and  C_25
   11  A    between atoms: C_20  and  C_52
   12  A    between atoms: C_23  and  C_31
   13  A    between atoms: C_23  and  C_34
   14  A    between atoms: C_32  and  C_34
   15  A    between atoms: C_33  and  N_37
   16  A    between atoms: N_42  and  C_45
   17  A    between atoms: C_43  and  C_47
                            x       y       z     vdW  Elec       q    Type
                         _______ _______ _______ _____ _____    ______ ____

>  <TORSDO>
F 17

$$$$
