=
 OpenBabel11042413453D

 30 33  0  0  1  0  0  0  0  0999 V2000
  189.2390  176.3600  144.5820 C   0  0  1  0  0  3  0  0  0  0  0  0
  185.7920  178.0000  144.5980 C   0  0  0  0  0  0  0  0  0  0  0  0
  185.3390  177.9250  141.4820 C   0  0  0  0  0  2  0  0  0  0  0  0
  184.8530  178.7050  143.6540 C   0  0  2  0  0  3  0  0  0  0  0  0
  186.6260  177.1410  141.7200 C   0  0  0  0  0  2  0  0  0  0  0  0
  183.6890  179.2250  144.3550 N   0  0  0  0  0  1  0  0  0  0  0  0
  185.3980  177.7180  145.8710 N   0  0  0  0  0  0  0  0  0  0  0  0
  186.1930  177.0410  146.7390 C   0  0  0  0  0  3  0  0  0  0  0  0
  187.4520  176.6030  146.3360 C   0  0  0  0  0  3  0  0  0  0  0  0
  187.0590  177.5700  144.1480 C   0  0  0  0  0  0  0  0  0  0  0  0
  187.8960  176.8670  145.0360 C   0  0  0  0  0  0  0  0  0  0  0  0
  184.4250  177.7850  142.6100 N   0  0  0  0  0  2  0  0  0  0  0  0
  187.5120  177.8480  142.7400 C   0  0  0  0  0  2  0  0  0  0  0  0
  192.6160  176.5700  143.3510 C   0  0  0  0  0  0  0  0  0  0  0  0
  190.8190  178.2520  143.9410 C   0  0  0  0  0  2  0  0  0  0  0  0
  193.5000  175.0190  144.9620 N   0  0  0  0  0  1  0  0  0  0  0  0
  192.5770  176.0390  144.5850 C   0  0  0  0  0  0  0  0  0  0  0  0
  190.3930  177.2720  145.0310 C   0  0  2  0  0  3  0  0  0  0  0  0
  191.6070  176.5390  145.6240 C   0  0  0  0  0  2  0  0  0  0  0  0
  191.6890  177.5950  142.9710 N   0  0  0  0  0  2  0  0  0  0  0  0
  193.5940  176.0820  142.3330 C   0  0  0  0  0  2  0  0  0  0  0  0
  192.9850  175.1320  141.5150 O   0  0  0  0  0  1  0  0  0  0  0  0
  189.4370  174.8770  144.9040 C   0  0  0  0  0  2  0  0  0  0  0  0
  189.6270  172.5820  141.2770 C   0  0  0  0  0  3  0  0  0  0  0  0
  189.5510  172.6570  143.6990 C   0  0  0  0  0  0  0  0  0  0  0  0
  189.4850  174.7130  142.4140 C   0  0  0  0  0  3  0  0  0  0  0  0
  189.6240  171.9240  142.5100 C   0  0  0  0  0  3  0  0  0  0  0  0
  189.4780  174.0610  143.6520 C   0  0  0  0  0  0  0  0  0  0  0  0
  189.5570  173.9770  141.2290 C   0  0  0  0  0  3  0  0  0  0  0  0
  189.5570  171.9670  144.9460 N   0  0  0  0  0  1  0  0  0  0  0  0
  1 23  1  1  0  0  0
  1 11  1  0  0  0  0
  2  7  1  0  0  0  0
  3  5  1  0  0  0  0
  3 12  1  0  0  0  0
  4  6  1  1  0  0  0
  4  2  1  0  0  0  0
  5 13  1  0  0  0  0
  7  8  2  0  0  0  0
  9  8  1  0  0  0  0
 10  2  2  0  0  0  0
 10 11  1  0  0  0  0
 11  9  2  0  0  0  0
 12  4  1  0  0  0  0
 13 10  1  0  0  0  0
 14 17  2  0  0  0  0
 15 18  1  0  0  0  0
 17 16  1  0  0  0  0
 17 19  1  0  0  0  0
 18  1  1  6  0  0  0
 18 19  1  0  0  0  0
 20 14  1  0  0  0  0
 20 15  1  0  0  0  0
 21 14  1  0  0  0  0
 22 21  1  0  0  0  0
 24 27  1  0  0  0  0
 25 30  1  0  0  0  0
 26 28  2  0  0  0  0
 27 25  2  0  0  0  0
 28 25  1  0  0  0  0
 28 23  1  0  0  0  0
 29 24  2  0  0  0  0
 29 26  1  0  0  0  0
M  END
>  <MODEL>
1

>  <REMARK>
 VINA RESULT:      -7.6      0.000      0.000
  Name = 
  5 active torsions:
  status: ('A' for Active; 'I' for Inactive)
    1  A    between atoms: CA_1  and  C_2
    2  A    between atoms: C_10  and  C_20
    3  A    between atoms: C_10  and  C_24
    4  A    between atoms: C_13  and  C_24
    5  A    between atoms: C_24  and  C_26
                            x       y       z     vdW  Elec       q    Type
                         _______ _______ _______ _____ _____    ______ ____

>  <TORSDO>
F 5

$$$$
=
 OpenBabel11042413453D

 30 33  0  0  1  0  0  0  0  0999 V2000
  188.2270  175.2170  142.4640 C   0  0  1  0  0  3  0  0  0  0  0  0
  185.2940  177.6550  142.6340 C   0  0  0  0  0  0  0  0  0  0  0  0
  185.2330  177.9330  145.7700 C   0  0  0  0  0  2  0  0  0  0  0  0
  184.2800  178.1600  143.6250 C   0  0  2  0  0  3  0  0  0  0  0  0
  186.4790  177.1080  145.4640 C   0  0  0  0  0  2  0  0  0  0  0  0
  183.3060  179.0340  142.9890 N   0  0  0  0  0  1  0  0  0  0  0  0
  185.3610  178.1980  141.3850 N   0  0  0  0  0  0  0  0  0  0  0  0
  186.2910  177.8060  140.4770 C   0  0  0  0  0  3  0  0  0  0  0  0
  187.2240  176.8280  140.8110 C   0  0  0  0  0  3  0  0  0  0  0  0
  186.2240  176.6630  143.0130 C   0  0  0  0  0  0  0  0  0  0  0  0
  187.1950  176.2460  142.0830 C   0  0  0  0  0  0  0  0  0  0  0  0
  184.9550  178.8800  144.6960 N   0  0  0  0  0  2  0  0  0  0  0  0
  186.1890  176.0620  144.3930 C   0  0  0  0  0  2  0  0  0  0  0  0
  190.2510  172.2400  142.5150 C   0  0  0  0  0  0  0  0  0  0  0  0
  187.8430  172.7570  141.9330 C   0  0  0  0  0  2  0  0  0  0  0  0
  192.0970  173.2470  141.3480 N   0  0  0  0  0  1  0  0  0  0  0  0
  190.7000  173.1210  141.6050 C   0  0  0  0  0  0  0  0  0  0  0  0
  188.3540  174.0990  141.4170 C   0  0  2  0  0  3  0  0  0  0  0  0
  189.7490  173.9550  140.7860 C   0  0  0  0  0  2  0  0  0  0  0  0
  188.8470  172.1130  142.7730 N   0  0  0  0  0  2  0  0  0  0  0  0
  191.1990  171.4030  143.3090 C   0  0  0  0  0  2  0  0  0  0  0  0
  191.5050  172.0470  144.5060 O   0  0  0  0  0  1  0  0  0  0  0  0
  189.5550  175.8550  142.8780 C   0  0  0  0  0  2  0  0  0  0  0  0
  190.0260  175.8120  147.1480 C   0  0  0  0  0  3  0  0  0  0  0  0
  190.1310  177.0190  145.0480 C   0  0  0  0  0  0  0  0  0  0  0  0
  189.4410  174.6930  145.0840 C   0  0  0  0  0  3  0  0  0  0  0  0
  190.2900  176.9860  146.4370 C   0  0  0  0  0  3  0  0  0  0  0  0
  189.7000  175.8670  144.3660 C   0  0  0  0  0  0  0  0  0  0  0  0
  189.6010  174.6660  146.4720 C   0  0  0  0  0  3  0  0  0  0  0  0
  190.4120  178.2240  144.3410 N   0  0  0  0  0  1  0  0  0  0  0  0
  1 23  1  6  0  0  0
  2 10  1  0  0  0  0
  2  4  1  0  0  0  0
  4  6  1  6  0  0  0
  4 12  1  0  0  0  0
  5  3  1  0  0  0  0
  7  2  2  0  0  0  0
  8  9  2  0  0  0  0
  8  7  1  0  0  0  0
  9 11  1  0  0  0  0
 10 13  1  0  0  0  0
 11  1  1  0  0  0  0
 11 10  2  0  0  0  0
 12  3  1  0  0  0  0
 13  5  1  0  0  0  0
 14 20  1  0  0  0  0
 14 21  1  0  0  0  0
 15 20  1  0  0  0  0
 16 17  1  0  0  0  0
 17 14  2  0  0  0  0
 18 15  1  0  0  0  0
 18  1  1  1  0  0  0
 19 18  1  0  0  0  0
 19 17  1  0  0  0  0
 21 22  1  0  0  0  0
 23 28  1  0  0  0  0
 25 27  1  0  0  0  0
 26 29  2  0  0  0  0
 27 24  2  0  0  0  0
 28 25  2  0  0  0  0
 28 26  1  0  0  0  0
 29 24  1  0  0  0  0
 30 25  1  0  0  0  0
M  END
>  <MODEL>
2

>  <REMARK>
 VINA RESULT:      -7.1      1.996      4.510
  Name = 
  5 active torsions:
  status: ('A' for Active; 'I' for Inactive)
    1  A    between atoms: CA_1  and  C_2
    2  A    between atoms: C_10  and  C_20
    3  A    between atoms: C_10  and  C_24
    4  A    between atoms: C_13  and  C_24
    5  A    between atoms: C_24  and  C_26
                            x       y       z     vdW  Elec       q    Type
                         _______ _______ _______ _____ _____    ______ ____

>  <TORSDO>
F 5

$$$$
=
 OpenBabel11042413453D

 30 33  0  0  1  0  0  0  0  0999 V2000
  189.5520  175.8410  143.7670 C   0  0  1  0  0  3  0  0  0  0  0  0
  186.3310  177.8450  144.1920 C   0  0  0  0  0  0  0  0  0  0  0  0
  186.4230  178.0190  147.3350 C   0  0  0  0  0  2  0  0  0  0  0  0
  185.3200  178.1770  145.2570 C   0  0  2  0  0  3  0  0  0  0  0  0
  187.7490  177.3830  146.9290 C   0  0  0  0  0  2  0  0  0  0  0  0
  184.2000  178.9270  144.7090 N   0  0  0  0  0  1  0  0  0  0  0  0
  186.2480  178.4290  142.9630 N   0  0  0  0  0  0  0  0  0  0  0  0
  187.1660  178.1960  141.9900 C   0  0  0  0  0  3  0  0  0  0  0  0
  188.2420  177.3460  142.2350 C   0  0  0  0  0  3  0  0  0  0  0  0
  187.4080  176.9800  144.4820 C   0  0  0  0  0  0  0  0  0  0  0  0
  188.3690  176.7290  143.4830 C   0  0  0  0  0  0  0  0  0  0  0  0
  185.9550  178.9500  146.3140 N   0  0  0  0  0  2  0  0  0  0  0  0
  187.5390  176.3390  145.8370 C   0  0  0  0  0  2  0  0  0  0  0  0
  191.8390  173.0600  143.7520 C   0  0  0  0  0  0  0  0  0  0  0  0
  189.3840  173.3550  144.2920 C   0  0  0  0  0  2  0  0  0  0  0  0
  192.7470  173.5750  141.5850 N   0  0  0  0  0  1  0  0  0  0  0  0
  191.6660  173.5580  142.5150 C   0  0  0  0  0  0  0  0  0  0  0  0
  189.3700  174.4230  143.2020 C   0  0  2  0  0  3  0  0  0  0  0  0
  190.3210  174.0540  142.0520 C   0  0  0  0  0  2  0  0  0  0  0  0
  190.7540  173.0430  144.6870 N   0  0  0  0  0  2  0  0  0  0  0  0
  193.1710  172.5520  144.1980 C   0  0  0  0  0  2  0  0  0  0  0  0
  193.4380  173.0050  145.4890 O   0  0  0  0  0  1  0  0  0  0  0  0
  190.8780  176.5080  143.3970 C   0  0  0  0  0  2  0  0  0  0  0  0
  193.5260  176.4500  146.7800 C   0  0  0  0  0  3  0  0  0  0  0  0
  193.2100  176.4820  144.3760 C   0  0  0  0  0  0  0  0  0  0  0  0
  191.2890  176.5080  145.8590 C   0  0  0  0  0  3  0  0  0  0  0  0
  194.0580  176.4520  145.4870 C   0  0  0  0  0  3  0  0  0  0  0  0
  191.8150  176.5140  144.5610 C   0  0  0  0  0  0  0  0  0  0  0  0
  192.1410  176.4790  146.9660 C   0  0  0  0  0  3  0  0  0  0  0  0
  193.7720  176.4760  143.0670 N   0  0  0  0  0  1  0  0  0  0  0  0
  1 23  1  6  0  0  0
  2 10  1  0  0  0  0
  2  4  1  0  0  0  0
  4  6  1  6  0  0  0
  4 12  1  0  0  0  0
  5  3  1  0  0  0  0
  7  2  2  0  0  0  0
  8  9  2  0  0  0  0
  8  7  1  0  0  0  0
  9 11  1  0  0  0  0
 10 13  1  0  0  0  0
 11  1  1  0  0  0  0
 11 10  2  0  0  0  0
 12  3  1  0  0  0  0
 13  5  1  0  0  0  0
 14 21  1  0  0  0  0
 14 20  1  0  0  0  0
 15 20  1  0  0  0  0
 16 17  1  0  0  0  0
 17 14  2  0  0  0  0
 18  1  1  1  0  0  0
 18 15  1  0  0  0  0
 19 17  1  0  0  0  0
 19 18  1  0  0  0  0
 21 22  1  0  0  0  0
 23 28  1  0  0  0  0
 24 29  1  0  0  0  0
 25 28  2  0  0  0  0
 25 27  1  0  0  0  0
 26 29  2  0  0  0  0
 27 24  2  0  0  0  0
 28 26  1  0  0  0  0
 30 25  1  0  0  0  0
M  END
>  <MODEL>
3

>  <REMARK>
 VINA RESULT:      -6.9      1.828      4.381
  Name = 
  5 active torsions:
  status: ('A' for Active; 'I' for Inactive)
    1  A    between atoms: CA_1  and  C_2
    2  A    between atoms: C_10  and  C_20
    3  A    between atoms: C_10  and  C_24
    4  A    between atoms: C_13  and  C_24
    5  A    between atoms: C_24  and  C_26
                            x       y       z     vdW  Elec       q    Type
                         _______ _______ _______ _____ _____    ______ ____

>  <TORSDO>
F 5

$$$$
=
 OpenBabel11042413453D

 30 33  0  0  1  0  0  0  0  0999 V2000
  191.5940  174.8140  145.0290 C   0  0  1  0  0  3  0  0  0  0  0  0
  188.3880  176.8410  145.4640 C   0  0  0  0  0  0  0  0  0  0  0  0
  188.0740  177.6760  142.4440 C   0  0  0  0  0  2  0  0  0  0  0  0
  187.5930  177.8950  144.7430 C   0  0  2  0  0  3  0  0  0  0  0  0
  189.2370  176.6900  142.4690 C   0  0  0  0  0  2  0  0  0  0  0  0
  186.4730  178.3590  145.5480 N   0  0  0  0  0  1  0  0  0  0  0  0
  187.9030  176.2790  146.6070 N   0  0  0  0  0  0  0  0  0  0  0  0
  188.5640  175.2910  147.2630 C   0  0  0  0  0  3  0  0  0  0  0  0
  189.7730  174.8120  146.7660 C   0  0  0  0  0  3  0  0  0  0  0  0
  189.6090  176.3810  144.9260 C   0  0  0  0  0  0  0  0  0  0  0  0
  190.3070  175.3560  145.5940 C   0  0  0  0  0  0  0  0  0  0  0  0
  187.0980  177.3610  143.4810 N   0  0  0  0  0  2  0  0  0  0  0  0
  190.1590  176.9660  143.6520 C   0  0  0  0  0  2  0  0  0  0  0  0
  194.9460  175.7900  144.1500 C   0  0  0  0  0  0  0  0  0  0  0  0
  193.2470  176.5630  145.8590 C   0  0  0  0  0  2  0  0  0  0  0  0
  195.7930  173.5390  144.1120 N   0  0  0  0  0  1  0  0  0  0  0  0
  194.9120  174.5340  144.6280 C   0  0  0  0  0  0  0  0  0  0  0  0
  192.8010  175.1060  145.9360 C   0  0  2  0  0  3  0  0  0  0  0  0
  193.9920  174.1510  145.7590 C   0  0  0  0  0  2  0  0  0  0  0  0
  194.0600  176.7900  144.6690 N   0  0  0  0  0  2  0  0  0  0  0  0
  195.8740  176.1660  143.0420 C   0  0  0  0  0  2  0  0  0  0  0  0
  196.8150  177.0830  143.5090 O   0  0  0  0  0  1  0  0  0  0  0  0
  191.4640  173.3530  144.5930 C   0  0  0  0  0  2  0  0  0  0  0  0
  189.0890  173.0820  141.0240 C   0  0  0  0  0  3  0  0  0  0  0  0
  191.2070  173.5880  142.0880 C   0  0  0  0  0  0  0  0  0  0  0  0
  189.3280  172.8210  143.4180 C   0  0  0  0  0  3  0  0  0  0  0  0
  190.4180  173.5060  140.9370 C   0  0  0  0  0  3  0  0  0  0  0  0
  190.6610  173.2400  143.3380 C   0  0  0  0  0  0  0  0  0  0  0  0
  188.5440  172.7400  142.2640 C   0  0  0  0  0  3  0  0  0  0  0  0
  192.5580  174.0290  141.9800 N   0  0  0  0  0  1  0  0  0  0  0  0
  1 23  1  1  0  0  0
  1 11  1  0  0  0  0
  2  7  1  0  0  0  0
  3  5  1  0  0  0  0
  3 12  1  0  0  0  0
  4  2  1  0  0  0  0
  4  6  1  1  0  0  0
  5 13  1  0  0  0  0
  7  8  2  0  0  0  0
  9  8  1  0  0  0  0
 10  2  2  0  0  0  0
 10 11  1  0  0  0  0
 11  9  2  0  0  0  0
 12  4  1  0  0  0  0
 13 10  1  0  0  0  0
 14 17  2  0  0  0  0
 14 20  1  0  0  0  0
 15 18  1  0  0  0  0
 16 17  1  0  0  0  0
 17 19  1  0  0  0  0
 18  1  1  6  0  0  0
 19 18  1  0  0  0  0
 20 15  1  0  0  0  0
 21 22  1  0  0  0  0
 21 14  1  0  0  0  0
 24 29  1  0  0  0  0
 25 28  2  0  0  0  0
 27 24  2  0  0  0  0
 27 25  1  0  0  0  0
 28 26  1  0  0  0  0
 28 23  1  0  0  0  0
 29 26  2  0  0  0  0
 30 25  1  0  0  0  0
M  END
>  <MODEL>
4

>  <REMARK>
 VINA RESULT:      -6.9      2.173      2.938
  Name = 
  5 active torsions:
  status: ('A' for Active; 'I' for Inactive)
    1  A    between atoms: CA_1  and  C_2
    2  A    between atoms: C_10  and  C_20
    3  A    between atoms: C_10  and  C_24
    4  A    between atoms: C_13  and  C_24
    5  A    between atoms: C_24  and  C_26
                            x       y       z     vdW  Elec       q    Type
                         _______ _______ _______ _____ _____    ______ ____

>  <TORSDO>
F 5

$$$$
=
 OpenBabel11042413453D

 30 33  0  0  1  0  0  0  0  0999 V2000
  189.1660  176.5650  143.8280 C   0  0  1  0  0  3  0  0  0  0  0  0
  185.8200  178.2010  144.6640 C   0  0  0  0  0  0  0  0  0  0  0  0
  186.2370  178.3070  147.7840 C   0  0  0  0  0  2  0  0  0  0  0  0
  184.9020  178.3960  145.8420 C   0  0  2  0  0  3  0  0  0  0  0  0
  187.5690  177.8270  147.2170 C   0  0  0  0  0  2  0  0  0  0  0  0
  183.6570  179.0350  145.4430 N   0  0  0  0  0  1  0  0  0  0  0  0
  185.5420  178.8020  143.4730 N   0  0  0  0  0  0  0  0  0  0  0  0
  186.3680  178.6930  142.4010 C   0  0  0  0  0  3  0  0  0  0  0  0
  187.5470  177.9580  142.4990 C   0  0  0  0  0  3  0  0  0  0  0  0
  187.0060  177.4500  144.8070 C   0  0  0  0  0  0  0  0  0  0  0  0
  187.8730  177.3270  143.7040 C   0  0  0  0  0  0  0  0  0  0  0  0
  185.5650  179.2070  146.8530 N   0  0  0  0  0  2  0  0  0  0  0  0
  187.3510  176.7940  146.1170 C   0  0  0  0  0  2  0  0  0  0  0  0
  192.7330  176.0840  143.9330 C   0  0  0  0  0  0  0  0  0  0  0  0
  191.2040  178.0820  143.6570 C   0  0  0  0  0  2  0  0  0  0  0  0
  192.6770  174.6870  145.8900 N   0  0  0  0  0  1  0  0  0  0  0  0
  192.1610  175.7610  145.1060 C   0  0  0  0  0  0  0  0  0  0  0  0
  190.2410  177.3560  144.5920 C   0  0  2  0  0  3  0  0  0  0  0  0
  191.0040  176.5520  145.6580 C   0  0  0  0  0  2  0  0  0  0  0  0
  192.2140  177.1630  143.1450 N   0  0  0  0  0  2  0  0  0  0  0  0
  193.8920  175.3070  143.4010 C   0  0  0  0  0  2  0  0  0  0  0  0
  195.0560  176.0650  143.5120 O   0  0  0  0  0  1  0  0  0  0  0  0
  188.9500  175.1360  144.3310 C   0  0  0  0  0  2  0  0  0  0  0  0
  190.1390  172.3320  141.3010 C   0  0  0  0  0  3  0  0  0  0  0  0
  189.7100  172.8260  143.6360 C   0  0  0  0  0  0  0  0  0  0  0  0
  189.3810  174.5370  141.9470 C   0  0  0  0  0  3  0  0  0  0  0  0
  190.1050  171.9280  142.6390 C   0  0  0  0  0  3  0  0  0  0  0  0
  189.3410  174.1390  143.2880 C   0  0  0  0  0  0  0  0  0  0  0  0
  189.7770  173.6360  140.9550 C   0  0  0  0  0  3  0  0  0  0  0  0
  189.6890  172.3980  144.9940 N   0  0  0  0  0  1  0  0  0  0  0  0
  1 23  1  1  0  0  0
  2 10  1  0  0  0  0
  2  4  1  0  0  0  0
  4  6  1  6  0  0  0
  4 12  1  0  0  0  0
  5  3  1  0  0  0  0
  7  2  2  0  0  0  0
  8  9  2  0  0  0  0
  8  7  1  0  0  0  0
  9 11  1  0  0  0  0
 10 13  1  0  0  0  0
 11  1  1  0  0  0  0
 11 10  2  0  0  0  0
 12  3  1  0  0  0  0
 13  5  1  0  0  0  0
 14 17  2  0  0  0  0
 15 18  1  0  0  0  0
 17 19  1  0  0  0  0
 17 16  1  0  0  0  0
 18  1  1  6  0  0  0
 18 19  1  0  0  0  0
 20 15  1  0  0  0  0
 20 14  1  0  0  0  0
 21 22  1  0  0  0  0
 21 14  1  0  0  0  0
 24 27  1  0  0  0  0
 25 30  1  0  0  0  0
 26 28  2  0  0  0  0
 27 25  2  0  0  0  0
 28 25  1  0  0  0  0
 28 23  1  0  0  0  0
 29 24  2  0  0  0  0
 29 26  1  0  0  0  0
M  END
>  <MODEL>
5

>  <REMARK>
 VINA RESULT:      -6.8      1.101      2.433
  Name = 
  5 active torsions:
  status: ('A' for Active; 'I' for Inactive)
    1  A    between atoms: CA_1  and  C_2
    2  A    between atoms: C_10  and  C_20
    3  A    between atoms: C_10  and  C_24
    4  A    between atoms: C_13  and  C_24
    5  A    between atoms: C_24  and  C_26
                            x       y       z     vdW  Elec       q    Type
                         _______ _______ _______ _____ _____    ______ ____

>  <TORSDO>
F 5

$$$$
=
 OpenBabel11042413453D

 30 33  0  0  1  0  0  0  0  0999 V2000
  189.1410  176.4760  143.7990 C   0  0  1  0  0  3  0  0  0  0  0  0
  185.6820  177.6770  142.7190 C   0  0  0  0  0  0  0  0  0  0  0  0
  184.6870  178.5390  145.5800 C   0  0  0  0  0  2  0  0  0  0  0  0
  184.3320  177.9730  143.3180 C   0  0  2  0  0  3  0  0  0  0  0  0
  186.1570  178.1730  145.7590 C   0  0  0  0  0  2  0  0  0  0  0  0
  183.3540  178.2910  142.2890 N   0  0  0  0  0  1  0  0  0  0  0  0
  185.9200  177.9450  141.4040 N   0  0  0  0  0  0  0  0  0  0  0  0
  187.1360  177.7400  140.8350 C   0  0  0  0  0  3  0  0  0  0  0  0
  188.1920  177.2510  141.6010 C   0  0  0  0  0  3  0  0  0  0  0  0
  186.7250  177.1840  143.5300 C   0  0  0  0  0  0  0  0  0  0  0  0
  187.9920  176.9660  142.9560 C   0  0  0  0  0  0  0  0  0  0  0  0
  184.4420  179.0860  144.2500 N   0  0  0  0  0  2  0  0  0  0  0  0
  186.4980  176.9010  144.9910 C   0  0  0  0  0  2  0  0  0  0  0  0
  192.3460  176.6910  145.4230 C   0  0  0  0  0  0  0  0  0  0  0  0
  190.9010  178.2910  144.0980 C   0  0  0  0  0  2  0  0  0  0  0  0
  191.5910  175.6720  147.4660 N   0  0  0  0  0  1  0  0  0  0  0  0
  191.3610  176.4770  146.3120 C   0  0  0  0  0  0  0  0  0  0  0  0
  189.7050  177.5730  144.7160 C   0  0  2  0  0  3  0  0  0  0  0  0
  190.0090  177.1250  146.1540 C   0  0  0  0  0  2  0  0  0  0  0  0
  192.1160  177.5000  144.2630 N   0  0  0  0  0  2  0  0  0  0  0  0
  193.6890  176.0620  145.5970 C   0  0  0  0  0  2  0  0  0  0  0  0
  194.5660  176.9780  146.1740 O   0  0  0  0  0  1  0  0  0  0  0  0
  188.8180  175.1580  144.5060 C   0  0  0  0  0  2  0  0  0  0  0  0
  190.9610  171.8500  142.7960 C   0  0  0  0  0  3  0  0  0  0  0  0
  189.0490  173.3410  142.7630 C   0  0  0  0  0  0  0  0  0  0  0  0
  190.7710  173.6050  144.4520 C   0  0  0  0  0  3  0  0  0  0  0  0
  189.7520  172.2590  142.2250 C   0  0  0  0  0  3  0  0  0  0  0  0
  189.5620  174.0220  143.8820 C   0  0  0  0  0  0  0  0  0  0  0  0
  191.4700  172.5230  143.9090 C   0  0  0  0  0  3  0  0  0  0  0  0
  187.8150  173.7370  142.1700 N   0  0  0  0  0  1  0  0  0  0  0  0
  1 23  1  1  0  0  0
  2  4  1  0  0  0  0
  2 10  1  0  0  0  0
  3  5  1  0  0  0  0
  4  6  1  6  0  0  0
  4 12  1  0  0  0  0
  7  2  2  0  0  0  0
  8  7  1  0  0  0  0
  8  9  2  0  0  0  0
  9 11  1  0  0  0  0
 10 13  1  0  0  0  0
 11 10  2  0  0  0  0
 11  1  1  0  0  0  0
 12  3  1  0  0  0  0
 13  5  1  0  0  0  0
 14 21  1  0  0  0  0
 14 17  2  0  0  0  0
 15 20  1  0  0  0  0
 15 18  1  0  0  0  0
 17 16  1  0  0  0  0
 18  1  1  6  0  0  0
 18 19  1  0  0  0  0
 19 17  1  0  0  0  0
 20 14  1  0  0  0  0
 21 22  1  0  0  0  0
 24 29  1  0  0  0  0
 25 28  2  0  0  0  0
 27 25  1  0  0  0  0
 27 24  2  0  0  0  0
 28 26  1  0  0  0  0
 28 23  1  0  0  0  0
 29 26  2  0  0  0  0
 30 25  1  0  0  0  0
M  END
>  <MODEL>
6

>  <REMARK>
 VINA RESULT:      -6.6      1.830      2.865
  Name = 
  5 active torsions:
  status: ('A' for Active; 'I' for Inactive)
    1  A    between atoms: CA_1  and  C_2
    2  A    between atoms: C_10  and  C_20
    3  A    between atoms: C_10  and  C_24
    4  A    between atoms: C_13  and  C_24
    5  A    between atoms: C_24  and  C_26
                            x       y       z     vdW  Elec       q    Type
                         _______ _______ _______ _____ _____    ______ ____

>  <TORSDO>
F 5

$$$$
=
 OpenBabel11042413453D

 30 33  0  0  1  0  0  0  0  0999 V2000
  187.4750  177.0230  143.5760 C   0  0  1  0  0  3  0  0  0  0  0  0
  190.0270  174.2470  142.9810 C   0  0  0  0  0  0  0  0  0  0  0  0
  191.9110  174.9610  145.4020 C   0  0  0  0  0  2  0  0  0  0  0  0
  191.4430  173.8930  143.3510 C   0  0  2  0  0  3  0  0  0  0  0  0
  190.6970  175.8710  145.5560 C   0  0  0  0  0  2  0  0  0  0  0  0
  191.8880  172.6940  142.6580 N   0  0  0  0  0  1  0  0  0  0  0  0
  189.2610  173.3630  142.2810 N   0  0  0  0  0  0  0  0  0  0  0  0
  187.9650  173.6210  141.9690 C   0  0  0  0  0  3  0  0  0  0  0  0
  187.3730  174.8150  142.3750 C   0  0  0  0  0  3  0  0  0  0  0  0
  189.4640  175.4670  143.4140 C   0  0  0  0  0  0  0  0  0  0  0  0
  188.1210  175.7490  143.0990 C   0  0  0  0  0  0  0  0  0  0  0  0
  191.5380  173.6900  144.7900 N   0  0  0  0  0  2  0  0  0  0  0  0
  190.2790  176.4520  144.2100 C   0  0  0  0  0  2  0  0  0  0  0  0
  185.3630  178.1080  140.8700 C   0  0  0  0  0  0  0  0  0  0  0  0
  186.6040  179.2670  142.7450 C   0  0  0  0  0  2  0  0  0  0  0  0
  186.4930  176.7870  139.2080 N   0  0  0  0  0  1  0  0  0  0  0  0
  186.4970  177.5510  140.4120 C   0  0  0  0  0  0  0  0  0  0  0  0
  187.6660  178.1840  142.5850 C   0  0  2  0  0  3  0  0  0  0  0  0
  187.8130  177.7640  141.1140 C   0  0  0  0  0  2  0  0  0  0  0  0
  185.3670  178.8760  142.0800 N   0  0  0  0  0  2  0  0  0  0  0  0
  184.0650  177.9090  140.1580 C   0  0  0  0  0  2  0  0  0  0  0  0
  183.0080  178.2130  141.0130 O   0  0  0  0  0  1  0  0  0  0  0  0
  186.0300  176.8050  144.0300 C   0  0  0  0  0  2  0  0  0  0  0  0
  185.6390  177.8840  148.1700 C   0  0  0  0  0  3  0  0  0  0  0  0
  184.8650  178.0760  145.8800 C   0  0  0  0  0  0  0  0  0  0  0  0
  186.7430  176.6360  146.4150 C   0  0  0  0  0  3  0  0  0  0  0  0
  184.7580  178.4270  147.2290 C   0  0  0  0  0  3  0  0  0  0  0  0
  185.8620  177.1730  145.4690 C   0  0  0  0  0  0  0  0  0  0  0  0
  186.6310  176.9890  147.7630 C   0  0  0  0  0  3  0  0  0  0  0  0
  183.9620  178.6450  144.9360 N   0  0  0  0  0  1  0  0  0  0  0  0
  1 23  1  6  0  0  0
  2  4  1  0  0  0  0
  2 10  1  0  0  0  0
  3  5  1  0  0  0  0
  4  6  1  6  0  0  0
  4 12  1  0  0  0  0
  7  2  2  0  0  0  0
  8  7  1  0  0  0  0
  8  9  2  0  0  0  0
  9 11  1  0  0  0  0
 10 13  1  0  0  0  0
 11 10  2  0  0  0  0
 11  1  1  0  0  0  0
 12  3  1  0  0  0  0
 13  5  1  0  0  0  0
 14 20  1  0  0  0  0
 16 17  1  0  0  0  0
 17 14  2  0  0  0  0
 17 19  1  0  0  0  0
 18 15  1  0  0  0  0
 18  1  1  1  0  0  0
 19 18  1  0  0  0  0
 20 15  1  0  0  0  0
 21 14  1  0  0  0  0
 21 22  1  0  0  0  0
 23 28  1  0  0  0  0
 25 27  1  0  0  0  0
 26 29  2  0  0  0  0
 27 24  2  0  0  0  0
 28 25  2  0  0  0  0
 28 26  1  0  0  0  0
 29 24  1  0  0  0  0
 30 25  1  0  0  0  0
M  END
>  <MODEL>
7

>  <REMARK>
 VINA RESULT:      -6.3      2.626      7.042
  Name = 
  5 active torsions:
  status: ('A' for Active; 'I' for Inactive)
    1  A    between atoms: CA_1  and  C_2
    2  A    between atoms: C_10  and  C_20
    3  A    between atoms: C_10  and  C_24
    4  A    between atoms: C_13  and  C_24
    5  A    between atoms: C_24  and  C_26
                            x       y       z     vdW  Elec       q    Type
                         _______ _______ _______ _____ _____    ______ ____

>  <TORSDO>
F 5

$$$$
=
 OpenBabel11042413453D

 30 33  0  0  1  0  0  0  0  0999 V2000
  189.8320  175.6160  144.6000 C   0  0  1  0  0  3  0  0  0  0  0  0
  186.9110  178.0680  144.4420 C   0  0  0  0  0  0  0  0  0  0  0  0
  186.4860  177.9270  141.3240 C   0  0  0  0  0  2  0  0  0  0  0  0
  186.1900  178.9300  143.4380 C   0  0  2  0  0  3  0  0  0  0  0  0
  187.5310  176.8600  141.6360 C   0  0  0  0  0  2  0  0  0  0  0  0
  185.1880  179.7660  144.0800 N   0  0  0  0  0  1  0  0  0  0  0  0
  186.4440  177.9690  145.7180 N   0  0  0  0  0  0  0  0  0  0  0  0
  187.0340  177.1660  146.6410 C   0  0  0  0  0  3  0  0  0  0  0  0
  188.1450  176.4030  146.2940 C   0  0  0  0  0  3  0  0  0  0  0  0
  188.0320  177.3080  144.0480 C   0  0  0  0  0  0  0  0  0  0  0  0
  188.6550  176.4700  144.9930 C   0  0  0  0  0  0  0  0  0  0  0  0
  185.5540  178.0880  142.4350 N   0  0  0  0  0  2  0  0  0  0  0  0
  188.5560  177.3790  142.6380 C   0  0  0  0  0  2  0  0  0  0  0  0
  191.8410  172.8710  143.4210 C   0  0  0  0  0  0  0  0  0  0  0  0
  189.6910  173.0770  144.7400 C   0  0  0  0  0  2  0  0  0  0  0  0
  192.0680  173.7480  141.1930 N   0  0  0  0  0  1  0  0  0  0  0  0
  191.3260  173.5750  142.3980 C   0  0  0  0  0  0  0  0  0  0  0  0
  189.4040  174.3170  143.8980 C   0  0  2  0  0  3  0  0  0  0  0  0
  189.9340  174.1490  142.4650 C   0  0  0  0  0  2  0  0  0  0  0  0
  191.0950  172.6970  144.6320 N   0  0  0  0  0  2  0  0  0  0  0  0
  193.2130  172.2880  143.3410 C   0  0  0  0  0  2  0  0  0  0  0  0
  194.0540  172.9410  144.2410 O   0  0  0  0  0  1  0  0  0  0  0  0
  190.9070  176.4150  143.8610 C   0  0  0  0  0  2  0  0  0  0  0  0
  194.5560  176.3760  146.1280 C   0  0  0  0  0  3  0  0  0  0  0  0
  193.4330  176.4130  143.9800 C   0  0  0  0  0  0  0  0  0  0  0  0
  192.1380  176.4110  146.0320 C   0  0  0  0  0  3  0  0  0  0  0  0
  194.6120  176.3890  144.7310 C   0  0  0  0  0  3  0  0  0  0  0  0
  192.1870  176.4280  144.6330 C   0  0  0  0  0  0  0  0  0  0  0  0
  193.3190  176.3880  146.7780 C   0  0  0  0  0  3  0  0  0  0  0  0
  193.5110  176.4190  142.5570 N   0  0  0  0  0  1  0  0  0  0  0  0
  1 23  1  6  0  0  0
  1 11  1  0  0  0  0
  2  7  1  0  0  0  0
  3  5  1  0  0  0  0
  3 12  1  0  0  0  0
  4  6  1  1  0  0  0
  4  2  1  0  0  0  0
  5 13  1  0  0  0  0
  7  8  2  0  0  0  0
  9  8  1  0  0  0  0
 10  2  2  0  0  0  0
 10 11  1  0  0  0  0
 11  9  2  0  0  0  0
 12  4  1  0  0  0  0
 13 10  1  0  0  0  0
 14 20  1  0  0  0  0
 16 17  1  0  0  0  0
 17 19  1  0  0  0  0
 17 14  2  0  0  0  0
 18  1  1  1  0  0  0
 18 15  1  0  0  0  0
 19 18  1  0  0  0  0
 20 15  1  0  0  0  0
 21 14  1  0  0  0  0
 21 22  1  0  0  0  0
 23 28  1  0  0  0  0
 24 29  1  0  0  0  0
 25 28  2  0  0  0  0
 25 27  1  0  0  0  0
 26 29  2  0  0  0  0
 27 24  2  0  0  0  0
 28 26  1  0  0  0  0
 30 25  1  0  0  0  0
M  END
>  <MODEL>
8

>  <REMARK>
 VINA RESULT:      -6.2      1.806      3.874
  Name = 
  5 active torsions:
  status: ('A' for Active; 'I' for Inactive)
    1  A    between atoms: CA_1  and  C_2
    2  A    between atoms: C_10  and  C_20
    3  A    between atoms: C_10  and  C_24
    4  A    between atoms: C_13  and  C_24
    5  A    between atoms: C_24  and  C_26
                            x       y       z     vdW  Elec       q    Type
                         _______ _______ _______ _____ _____    ______ ____

>  <TORSDO>
F 5

$$$$
=
 OpenBabel11042413453D

 30 33  0  0  1  0  0  0  0  0999 V2000
  190.2420  174.8640  142.4480 C   0  0  1  0  0  3  0  0  0  0  0  0
  187.6760  176.8060  144.5010 C   0  0  0  0  0  0  0  0  0  0  0  0
  188.5780  175.7300  147.3210 C   0  0  0  0  0  2  0  0  0  0  0  0
  187.0440  176.7790  145.8670 C   0  0  2  0  0  3  0  0  0  0  0  0
  189.6130  175.1940  146.3370 C   0  0  0  0  0  2  0  0  0  0  0  0
  185.9900  177.7740  145.9830 N   0  0  0  0  0  1  0  0  0  0  0  0
  187.4040  177.8280  143.6410 N   0  0  0  0  0  0  0  0  0  0  0  0
  187.9900  177.9170  142.4190 C   0  0  0  0  0  3  0  0  0  0  0  0
  188.9080  176.9520  142.0130 C   0  0  0  0  0  3  0  0  0  0  0  0
  188.6040  175.8090  144.1290 C   0  0  0  0  0  0  0  0  0  0  0  0
  189.2200  175.8880  142.8650 C   0  0  0  0  0  0  0  0  0  0  0  0
  188.0590  177.0220  146.8830 N   0  0  0  0  0  2  0  0  0  0  0  0
  188.9410  174.6810  145.0670 C   0  0  0  0  0  2  0  0  0  0  0  0
  190.7090  171.3910  141.6190 C   0  0  0  0  0  0  0  0  0  0  0  0
  188.7740  173.0170  141.4910 C   0  0  0  0  0  2  0  0  0  0  0  0
  192.7700  171.7560  140.4350 N   0  0  0  0  0  1  0  0  0  0  0  0
  191.4760  172.1850  140.8510 C   0  0  0  0  0  0  0  0  0  0  0  0
  189.8170  174.0890  141.1900 C   0  0  2  0  0  3  0  0  0  0  0  0
  190.9750  173.5170  140.3560 C   0  0  0  0  0  2  0  0  0  0  0  0
  189.4080  171.8220  142.0370 N   0  0  0  0  0  2  0  0  0  0  0  0
  191.2050  170.0640  142.0890 C   0  0  0  0  0  2  0  0  0  0  0  0
  190.4410  169.0480  141.5180 O   0  0  0  0  0  1  0  0  0  0  0  0
  191.6560  175.4480  142.3880 C   0  0  0  0  0  2  0  0  0  0  0  0
  193.5030  175.5300  146.2660 C   0  0  0  0  0  3  0  0  0  0  0  0
  192.4130  176.7060  144.4470 C   0  0  0  0  0  0  0  0  0  0  0  0
  192.7540  174.3070  144.3170 C   0  0  0  0  0  3  0  0  0  0  0  0
  193.0270  176.7180  145.7030 C   0  0  0  0  0  3  0  0  0  0  0  0
  192.2720  175.4920  143.7490 C   0  0  0  0  0  0  0  0  0  0  0  0
  193.3660  174.3240  145.5730 C   0  0  0  0  0  3  0  0  0  0  0  0
  191.9420  177.9280  143.8880 N   0  0  0  0  0  1  0  0  0  0  0  0
  1 23  1  6  0  0  0
  1 11  1  0  0  0  0
  2  4  1  0  0  0  0
  4  6  1  6  0  0  0
  4 12  1  0  0  0  0
  5  3  1  0  0  0  0
  7  2  2  0  0  0  0
  8  7  1  0  0  0  0
  9  8  2  0  0  0  0
  9 11  1  0  0  0  0
 10  2  1  0  0  0  0
 10 13  1  0  0  0  0
 11 10  2  0  0  0  0
 12  3  1  0  0  0  0
 13  5  1  0  0  0  0
 14 20  1  0  0  0  0
 14 21  1  0  0  0  0
 15 20  1  0  0  0  0
 16 17  1  0  0  0  0
 17 14  2  0  0  0  0
 18 15  1  0  0  0  0
 18  1  1  1  0  0  0
 19 17  1  0  0  0  0
 19 18  1  0  0  0  0
 22 21  1  0  0  0  0
 23 28  1  0  0  0  0
 25 27  2  0  0  0  0
 26 29  1  0  0  0  0
 27 24  1  0  0  0  0
 28 26  2  0  0  0  0
 28 25  1  0  0  0  0
 29 24  2  0  0  0  0
 30 25  1  0  0  0  0
M  END
>  <MODEL>
9

>  <REMARK>
 VINA RESULT:      -6.2      2.229      5.116
  Name = 
  5 active torsions:
  status: ('A' for Active; 'I' for Inactive)
    1  A    between atoms: CA_1  and  C_2
    2  A    between atoms: C_10  and  C_20
    3  A    between atoms: C_10  and  C_24
    4  A    between atoms: C_13  and  C_24
    5  A    between atoms: C_24  and  C_26
                            x       y       z     vdW  Elec       q    Type
                         _______ _______ _______ _____ _____    ______ ____

>  <TORSDO>
F 5

$$$$
