=
 OpenBabel11042415073D

 53 57  0  0  1  0  0  0  0  0999 V2000
  189.0250  173.2300  142.2550 C   0  0  0  0  0  0  0  0  0  0  0  0
  186.7190  178.6270  144.1260 C   0  0  0  0  0  2  0  0  0  0  0  0
  189.1640  172.5660  141.0420 C   0  0  0  0  0  3  0  0  0  0  0  0
  188.7790  173.1650  139.8400 C   0  0  0  0  0  0  0  0  0  0  0  0
  186.6410  178.4300  142.6000 C   0  0  1  0  0  3  0  0  0  0  0  0
  187.5820  177.1790  146.0370 C   0  0  0  0  0  0  0  0  0  0  0  0
  187.4860  176.4560  141.1510 N   0  0  0  0  0  0  0  0  0  0  0  0
  188.9480  172.4610  138.6380 C   0  0  0  0  0  0  0  0  0  0  0  0
  188.0710  175.1470  141.0830 C   0  0  0  0  0  0  0  0  0  0  0  0
  189.4730  172.5340  143.4990 C   0  0  0  0  0  1  0  0  0  0  0  0
  187.2890  177.1010  142.4060 C   0  0  0  0  0  0  0  0  0  0  0  0
  188.4810  174.5220  142.2900 C   0  0  0  0  0  0  0  0  0  0  0  0
  187.3550  177.4170  144.6380 N   0  0  0  0  0  0  0  0  0  0  0  0
  188.3760  175.2430  143.6210 C   0  0  0  0  0  3  0  0  0  0  0  0
  187.6650  176.5650  143.5410 C   0  0  0  0  0  0  0  0  0  0  0  0
  188.2250  174.4730  139.8390 C   0  0  0  0  0  0  0  0  0  0  0  0
  187.8580  175.0340  138.5830 C   0  0  0  0  0  0  0  0  0  0  0  0
  187.2030  178.0290  146.8850 O   0  0  0  0  0  0  0  0  0  0  0  0
  188.5680  173.0710  137.4390 C   0  0  0  0  0  3  0  0  0  0  0  0
  188.0430  174.3190  137.4410 N   0  0  0  0  0  0  0  0  0  0  0  0
  187.2730  176.3990  138.4320 C   0  0  0  0  0  1  0  0  0  0  0  0
  182.8300  178.4250  142.5540 C   0  0  0  0  0  3  0  0  0  0  0  0
  184.9650  178.3360  140.7530 C   0  0  0  0  0  3  0  0  0  0  0  0
  182.5780  178.3580  141.1770 C   0  0  0  0  0  0  0  0  0  0  0  0
  184.1430  178.4520  143.0270 C   0  0  0  0  0  3  0  0  0  0  0  0
  185.2190  178.4170  142.1250 C   0  0  0  0  0  0  0  0  0  0  0  0
  183.6500  178.3060  140.2820 C   0  0  0  0  0  3  0  0  0  0  0  0
  181.1790  178.3320  140.6480 C   0  0  1  0  0  3  0  0  0  0  0  0
  181.0260  177.2510  139.5940 C   0  0  0  0  0  1  0  0  0  0  0  0
  180.2290  178.1110  141.7300 N   0  0  0  0  0  2  0  0  0  0  0  0
  178.0910  176.9870  141.8360 C   0  0  0  0  0  1  0  0  0  0  0  0
  178.8930  178.0740  141.1540 C   0  0  1  0  0  3  0  0  0  0  0  0
  178.1430  181.0470  137.9360 C   0  0  0  0  0  1  0  0  0  0  0  0
  177.7780  178.6520  138.4800 C   0  0  0  0  0  1  0  0  0  0  0  0
  177.8510  181.5390  140.6850 O   0  0  0  0  0  0  0  0  0  0  0  0
  178.0580  180.0020  138.9400 N   0  0  0  0  0  0  0  0  0  0  0  0
  178.0450  180.3430  140.3380 C   0  0  0  0  0  0  0  0  0  0  0  0
  178.2310  179.3560  141.3590 N   0  0  0  0  0  2  0  0  0  0  0  0
  190.5870  170.7850  137.8340 C   0  0  0  0  0  1  0  0  0  0  0  0
  189.4880  171.1680  138.6510 O   0  0  0  0  0  0  0  0  0  0  0  0
  188.2330  175.9270  146.5270 C   0  0  0  0  0  2  0  0  0  0  0  0
  190.2000  174.9720  147.7160 C   0  0  0  0  0  1  0  0  0  0  0  0
  189.6470  176.2030  147.0250 C   0  0  1  0  0  3  0  0  0  0  0  0
  190.5770  176.6520  145.9030 C   0  0  0  0  0  2  0  0  0  0  0  0
  191.7590  175.8030  145.8280 N   0  0  0  0  0  2  0  0  0  0  0  0
  192.2350  177.6720  143.7990 O   0  0  0  0  0  1  0  0  0  0  0  0
  191.8690  175.1450  143.2460 O   0  0  0  0  0  0  0  0  0  0  0  0
  192.5030  176.0680  144.2620 P   0  0  2  0  0  0  0  0  0  0  0  0
  194.1400  176.3300  141.6920 O   0  0  0  0  0  0  0  0  0  0  0  0
  194.3030  175.7760  144.3700 C   0  0  0  0  0  2  0  0  0  0  0  0
  195.1140  175.8620  142.7510 P   0  0  2  0  0  4  0  0  0  0  0  0
  194.6000  174.5830  143.8200 O   0  0  0  0  0  0  0  0  0  0  0  0
  196.6790  176.7490  142.9750 C   0  0  0  0  0  1  0  0  0  0  0  0
  1 12  1  0  0  0  0
  1 10  1  0  0  0  0
  2 13  1  0  0  0  0
  3  1  2  0  0  0  0
  4  3  1  0  0  0  0
  5 26  1  1  0  0  0
  5  2  1  0  0  0  0
  6 41  1  0  0  0  0
  6 18  2  0  0  0  0
  7 11  1  0  0  0  0
  8 40  1  0  0  0  0
  8  4  2  0  0  0  0
  9  7  2  0  0  0  0
  9 12  1  0  0  0  0
 11  5  1  0  0  0  0
 11 15  2  0  0  0  0
 12 14  2  0  0  0  0
 13  6  1  0  0  0  0
 15 14  1  0  0  0  0
 15 13  1  0  0  0  0
 16  4  1  0  0  0  0
 16  9  1  0  0  0  0
 17 16  2  0  0  0  0
 19 20  2  0  0  0  0
 19  8  1  0  0  0  0
 20 17  1  0  0  0  0
 21 17  1  0  0  0  0
 22 25  1  0  0  0  0
 23 26  1  0  0  0  0
 24 22  2  0  0  0  0
 26 25  2  0  0  0  0
 27 23  2  0  0  0  0
 27 24  1  0  0  0  0
 28 29  1  6  0  0  0
 28 24  1  0  0  0  0
 28 30  1  0  0  0  0
 32 38  1  0  0  0  0
 32 30  1  0  0  0  0
 32 31  1  1  0  0  0
 33 36  1  0  0  0  0
 34 36  1  0  0  0  0
 36 37  1  0  0  0  0
 37 35  2  0  0  0  0
 37 38  1  0  0  0  0
 39 40  1  0  0  0  0
 41 43  1  0  0  0  0
 43 42  1  6  0  0  0
 44 43  1  0  0  0  0
 45 44  1  0  0  0  0
 46 48  1  0  0  0  0
 48 47  2  6  0  0  0
 48 50  1  0  0  0  0
 48 45  1  0  0  0  0
 49 51  2  0  0  0  0
 51 53  1  1  0  0  0
 51 52  1  0  0  0  0
 52 50  1  0  0  0  0
M  END
>  <MODEL>
1

>  <REMARK>
 VINA RESULT:      -8.1      0.000      0.000
  Name = 
  12 active torsions:
  status: ('A' for Active; 'I' for Inactive)
    1  A    between atoms: N_2  and  C_52
    2  A    between atoms: N_2  and  P_53
    3  A    between atoms: C_7  and  N_10
    4  A    between atoms: C_7  and  C_27
    5  A    between atoms: N_10  and  C_22
    6  A    between atoms: C_13  and  P_53
    7  A    between atoms: C_14  and  C_33
    8  A    between atoms: C_17  and  C_39
    9  A    between atoms: C_22  and  N_50
   10  A    between atoms: C_24  and  O_46
   11  A    between atoms: C_30  and  C_39
   12  A    between atoms: C_30  and  C_52
                            x       y       z     vdW  Elec       q    Type
                         _______ _______ _______ _____ _____    ______ ____

>  <TORSDO>
F 12

$$$$
=
 OpenBabel11042415073D

 53 57  0  0  1  0  0  0  0  0999 V2000
  189.4290  173.0650  139.5930 C   0  0  0  0  0  0  0  0  0  0  0  0
  190.5270  175.4560  145.1630 C   0  0  0  0  0  2  0  0  0  0  0  0
  189.6840  171.8590  138.9520 C   0  0  0  0  0  3  0  0  0  0  0  0
  190.2900  170.7950  139.6250 C   0  0  0  0  0  0  0  0  0  0  0  0
  191.0150  174.0030  145.0190 C   0  0  1  0  0  3  0  0  0  0  0  0
  189.3800  177.0830  143.5720 C   0  0  0  0  0  0  0  0  0  0  0  0
  190.8080  172.3890  143.0040 N   0  0  0  0  0  0  0  0  0  0  0  0
  190.5190  169.5910  138.9410 C   0  0  0  0  0  0  0  0  0  0  0  0
  190.4180  172.1750  141.6390 C   0  0  0  0  0  0  0  0  0  0  0  0
  188.7620  174.1530  138.8150 C   0  0  0  0  0  1  0  0  0  0  0  0
  190.6000  173.6500  143.6310 C   0  0  0  0  0  0  0  0  0  0  0  0
  189.7890  173.2360  140.9370 C   0  0  0  0  0  0  0  0  0  0  0  0
  189.9270  175.7890  143.8740 N   0  0  0  0  0  0  0  0  0  0  0  0
  189.4640  174.5480  141.6280 C   0  0  0  0  0  3  0  0  0  0  0  0
  190.0110  174.6510  143.0240 C   0  0  0  0  0  0  0  0  0  0  0  0
  190.6680  170.9340  140.9880 C   0  0  0  0  0  0  0  0  0  0  0  0
  191.2760  169.8150  141.6220 C   0  0  0  0  0  0  0  0  0  0  0  0
  189.4260  177.9980  144.4360 O   0  0  0  0  0  0  0  0  0  0  0  0
  191.1190  168.5300  139.6240 C   0  0  0  0  0  3  0  0  0  0  0  0
  191.4760  168.6650  140.9230 N   0  0  0  0  0  0  0  0  0  0  0  0
  191.7160  169.8160  143.0480 C   0  0  0  0  0  1  0  0  0  0  0  0
  194.6550  174.9060  145.7020 C   0  0  0  0  0  3  0  0  0  0  0  0
  193.1390  172.6960  144.9080 C   0  0  0  0  0  3  0  0  0  0  0  0
  195.2890  173.6840  145.4400 C   0  0  0  0  0  0  0  0  0  0  0  0
  193.2700  175.0200  145.5720 C   0  0  0  0  0  3  0  0  0  0  0  0
  192.5030  173.9100  145.1820 C   0  0  0  0  0  0  0  0  0  0  0  0
  194.5260  172.5840  145.0360 C   0  0  0  0  0  3  0  0  0  0  0  0
  196.7710  173.5370  145.5760 C   0  0  1  0  0  3  0  0  0  0  0  0
  197.2060  172.1310  145.2060 C   0  0  0  0  0  1  0  0  0  0  0  0
  197.4580  174.5080  144.7360 N   0  0  0  0  0  2  0  0  0  0  0  0
  196.6910  176.1840  143.1690 C   0  0  0  0  0  1  0  0  0  0  0  0
  196.6530  174.7170  143.5410 C   0  0  1  0  0  3  0  0  0  0  0  0
  194.2350  171.9940  140.9930 C   0  0  0  0  0  1  0  0  0  0  0  0
  194.2880  174.3380  141.8120 C   0  0  0  0  0  1  0  0  0  0  0  0
  197.0410  172.0980  141.0310 O   0  0  0  0  0  0  0  0  0  0  0  0
  194.9960  173.0940  141.5580 N   0  0  0  0  0  0  0  0  0  0  0  0
  196.4280  173.0040  141.6570 C   0  0  0  0  0  0  0  0  0  0  0  0
  197.1910  173.9310  142.4390 N   0  0  0  0  0  2  0  0  0  0  0  0
  191.0990  169.4200  136.5380 C   0  0  0  0  0  1  0  0  0  0  0  0
  190.1500  169.4670  137.5950 O   0  0  0  0  0  0  0  0  0  0  0  0
  188.7770  177.3910  142.2400 C   0  0  0  0  0  2  0  0  0  0  0  0
  186.6730  177.9490  141.0320 C   0  0  0  0  0  1  0  0  0  0  0  0
  187.3470  177.8960  142.3900 C   0  0  1  0  0  3  0  0  0  0  0  0
  186.5320  177.0460  143.3600 C   0  0  0  0  0  2  0  0  0  0  0  0
  185.1730  177.5550  143.4930 N   0  0  0  0  0  2  0  0  0  0  0  0
  183.7120  178.9220  145.4510 O   0  0  0  0  0  1  0  0  0  0  0  0
  185.4550  180.1670  143.9550 O   0  0  0  0  0  0  0  0  0  0  0  0
  185.2090  178.8560  144.6680 P   0  0  2  0  0  0  0  0  0  0  0  0
  184.8880  176.4070  146.4720 O   0  0  0  0  0  0  0  0  0  0  0  0
  186.5120  178.5390  145.9090 C   0  0  0  0  0  2  0  0  0  0  0  0
  186.1260  177.1190  146.9670 P   0  0  2  0  0  4  0  0  0  0  0  0
  186.0540  178.8540  147.1360 O   0  0  0  0  0  0  0  0  0  0  0  0
  187.6600  176.1820  147.1980 C   0  0  0  0  0  1  0  0  0  0  0  0
  1 12  1  0  0  0  0
  3  1  2  0  0  0  0
  3  4  1  0  0  0  0
  4 16  1  0  0  0  0
  5  2  1  0  0  0  0
  5 26  1  6  0  0  0
  6 13  1  0  0  0  0
  6 18  2  0  0  0  0
  7 11  1  0  0  0  0
  8 19  1  0  0  0  0
  8  4  2  0  0  0  0
  9  7  2  0  0  0  0
 10  1  1  0  0  0  0
 11  5  1  0  0  0  0
 12 14  2  0  0  0  0
 12  9  1  0  0  0  0
 13  2  1  0  0  0  0
 14 15  1  0  0  0  0
 15 11  2  0  0  0  0
 15 13  1  0  0  0  0
 16 17  2  0  0  0  0
 16  9  1  0  0  0  0
 17 21  1  0  0  0  0
 19 20  2  0  0  0  0
 20 17  1  0  0  0  0
 23 27  2  0  0  0  0
 23 26  1  0  0  0  0
 24 28  1  0  0  0  0
 24 22  2  0  0  0  0
 25 22  1  0  0  0  0
 26 25  2  0  0  0  0
 27 24  1  0  0  0  0
 28 29  1  6  0  0  0
 30 28  1  0  0  0  0
 32 31  1  6  0  0  0
 32 30  1  0  0  0  0
 33 36  1  0  0  0  0
 35 37  2  0  0  0  0
 36 37  1  0  0  0  0
 36 34  1  0  0  0  0
 37 38  1  0  0  0  0
 38 32  1  0  0  0  0
 39 40  1  0  0  0  0
 40  8  1  0  0  0  0
 41 43  1  0  0  0  0
 41  6  1  0  0  0  0
 43 42  1  6  0  0  0
 43 44  1  0  0  0  0
 44 45  1  0  0  0  0
 45 48  1  0  0  0  0
 48 47  2  6  0  0  0
 48 46  1  0  0  0  0
 48 50  1  0  0  0  0
 49 51  2  0  0  0  0
 50 52  1  0  0  0  0
 51 52  1  0  0  0  0
 51 53  1  6  0  0  0
M  END
>  <MODEL>
2

>  <REMARK>
 VINA RESULT:      -7.4      4.536     10.688
  Name = 
  12 active torsions:
  status: ('A' for Active; 'I' for Inactive)
    1  A    between atoms: N_2  and  C_52
    2  A    between atoms: N_2  and  P_53
    3  A    between atoms: C_7  and  N_10
    4  A    between atoms: C_7  and  C_27
    5  A    between atoms: N_10  and  C_22
    6  A    between atoms: C_13  and  P_53
    7  A    between atoms: C_14  and  C_33
    8  A    between atoms: C_17  and  C_39
    9  A    between atoms: C_22  and  N_50
   10  A    between atoms: C_24  and  O_46
   11  A    between atoms: C_30  and  C_39
   12  A    between atoms: C_30  and  C_52
                            x       y       z     vdW  Elec       q    Type
                         _______ _______ _______ _____ _____    ______ ____

>  <TORSDO>
F 12

$$$$
=
 OpenBabel11042415073D

 53 56  0  0  1  0  0  0  0  0999 V2000
  188.8880  175.3780  144.3360 C   0  0  0  0  0  0  0  0  0  0  0  0
  191.0420  171.3850  140.1700 C   0  0  0  0  0  2  0  0  0  0  0  0
  188.0810  176.5100  144.3160 C   0  0  0  0  0  3  0  0  0  0  0  0
  187.4850  176.9540  143.1330 C   0  0  0  0  0  0  0  0  0  0  0  0
  190.1220  172.4590  139.5620 C   0  0  1  0  0  3  0  0  0  0  0  0
  191.8760  170.9290  142.5340 C   0  0  0  0  0  0  0  0  0  0  0  0
  188.8280  174.3730  140.7340 N   0  0  0  0  0  0  0  0  0  0  0  0
  186.6690  178.0950  143.1620 C   0  0  0  0  0  0  0  0  0  0  0  0
  188.5410  175.1020  141.9360 C   0  0  0  0  0  0  0  0  0  0  0  0
  189.4790  174.9530  145.6410 C   0  0  0  0  0  1  0  0  0  0  0  0
  189.7080  173.2530  140.7540 C   0  0  0  0  0  0  0  0  0  0  0  0
  189.1250  174.6640  143.1530 C   0  0  0  0  0  0  0  0  0  0  0  0
  191.0860  171.6810  141.5990 N   0  0  0  0  0  0  0  0  0  0  0  0
  189.9770  173.4090  143.2060 C   0  0  0  0  0  3  0  0  0  0  0  0
  190.2570  172.8080  141.8570 C   0  0  0  0  0  0  0  0  0  0  0  0
  187.7040  176.2530  141.9170 C   0  0  0  0  0  0  0  0  0  0  0  0
  187.0650  176.7500  140.7450 C   0  0  0  0  0  0  0  0  0  0  0  0
  192.5920  169.9770  142.1240 O   0  0  0  0  0  0  0  0  0  0  0  0
  186.0700  178.5280  141.9760 C   0  0  0  0  0  3  0  0  0  0  0  0
  186.2780  177.8570  140.8190 N   0  0  0  0  0  0  0  0  0  0  0  0
  187.1990  176.1110  139.4030 C   0  0  0  0  0  1  0  0  0  0  0  0
  190.9750  174.5120  136.4650 C   0  0  0  0  0  3  0  0  0  0  0  0
  192.1860  173.6610  138.8360 C   0  0  0  0  0  3  0  0  0  0  0  0
  192.3010  174.8750  136.7400 C   0  0  0  0  0  0  0  0  0  0  0  0
  190.2580  173.7320  137.3740 C   0  0  0  0  0  3  0  0  0  0  0  0
  190.8590  173.3100  138.5710 C   0  0  0  0  0  0  0  0  0  0  0  0
  192.9030  174.4390  137.9250 C   0  0  0  0  0  3  0  0  0  0  0  0
  193.0870  175.7130  135.7830 C   0  0  1  0  0  3  0  0  0  0  0  0
  192.2220  176.8150  135.2000 C   0  0  0  0  0  1  0  0  0  0  0  0
  194.2480  176.2900  136.4470 N   0  0  0  0  0  2  0  0  0  0  0  0
  195.8790  177.1320  134.8710 C   0  0  0  0  0  1  0  0  0  0  0  0
  195.4300  175.9310  135.6760 C   0  0  1  0  0  3  0  0  0  0  0  0
  195.8520  171.8660  137.4210 C   0  0  0  0  0  1  0  0  0  0  0  0
  195.5800  173.0140  135.2370 C   0  0  0  0  0  1  0  0  0  0  0  0
  197.3030  174.1280  138.2360 O   0  0  0  0  0  0  0  0  0  0  0  0
  195.9580  173.0830  136.6390 N   0  0  0  0  0  0  0  0  0  0  0  0
  196.6080  174.2420  137.1910 C   0  0  0  0  0  0  0  0  0  0  0  0
  196.5040  175.5310  136.5760 N   0  0  0  0  0  2  0  0  0  0  0  0
  185.4730  179.7880  144.5200 C   0  0  0  0  0  1  0  0  0  0  0  0
  186.4660  178.7830  144.3660 O   0  0  0  0  0  0  0  0  0  0  0  0
  191.9000  171.2610  143.9910 C   0  0  0  0  0  2  0  0  0  0  0  0
  194.1070  171.1470  145.1370 C   0  0  0  0  0  1  0  0  0  0  0  0
  193.1600  172.0370  144.3560 C   0  0  1  0  0  3  0  0  0  0  0  0
  193.8570  172.6170  143.1290 C   0  0  0  0  0  2  0  0  0  0  0  0
  193.5400  174.0300  142.9620 N   0  0  0  0  0  2  0  0  0  0  0  0
  195.1270  176.2270  142.2620 O   0  0  0  0  0  0  0  0  0  0  0  0
  196.1930  174.0480  143.2310 O   0  0  0  0  0  1  0  0  0  0  0  0
  194.9820  174.9460  143.3550 P   0  0  2  0  0  0  0  0  0  0  0  0
  192.5080  176.6130  144.0270 O   0  0  0  0  0  0  0  0  0  0  0  0
  194.8490  175.6240  145.0470 C   0  0  0  0  0  2  0  0  0  0  0  0
  193.3870  176.6730  145.2560 P   0  0  0  0  0  0  0  0  0  0  0  0
  195.0930  176.9480  145.0230 O   0  0  0  0  0  0  0  0  0  0  0  0
  192.6750  176.2930  146.8790 C   0  0  0  0  0 15  0  0  0  0  0  0
  1 10  1  0  0  0  0
  2 13  1  0  0  0  0
  3  1  1  0  0  0  0
  4  8  1  0  0  0  0
  4  3  2  0  0  0  0
  5 26  1  6  0  0  0
  5  2  1  0  0  0  0
  5 11  1  0  0  0  0
  6 41  1  0  0  0  0
  7 11  2  0  0  0  0
  7  9  1  0  0  0  0
  8 40  1  0  0  0  0
  9 12  1  0  0  0  0
 11 15  1  0  0  0  0
 12 14  1  0  0  0  0
 12  1  2  0  0  0  0
 13 15  1  0  0  0  0
 13  6  1  0  0  0  0
 15 14  2  0  0  0  0
 16  9  2  0  0  0  0
 16  4  1  0  0  0  0
 17 20  2  0  0  0  0
 17 16  1  0  0  0  0
 18  6  2  0  0  0  0
 19  8  2  0  0  0  0
 20 19  1  0  0  0  0
 21 17  1  0  0  0  0
 22 24  2  0  0  0  0
 22 25  1  0  0  0  0
 24 27  1  0  0  0  0
 25 26  2  0  0  0  0
 26 23  1  0  0  0  0
 27 23  2  0  0  0  0
 28 29  1  1  0  0  0
 28 30  1  0  0  0  0
 28 24  1  0  0  0  0
 32 31  1  1  0  0  0
 32 30  1  0  0  0  0
 32 38  1  0  0  0  0
 34 36  1  0  0  0  0
 36 37  1  0  0  0  0
 36 33  1  0  0  0  0
 37 35  2  0  0  0  0
 38 37  1  0  0  0  0
 40 39  1  0  0  0  0
 41 43  1  0  0  0  0
 43 42  1  6  0  0  0
 44 43  1  0  0  0  0
 45 44  1  0  0  0  0
 45 48  1  0  0  0  0
 47 48  1  0  0  0  0
 48 46  2  6  0  0  0
 48 50  1  0  0  0  0
 49 51  2  0  0  0  0
 52 50  1  0  0  0  0
 52 51  1  0  0  0  0
M  END
>  <MODEL>
3

>  <REMARK>
 VINA RESULT:      -7.3      4.068     10.034
  Name = 
  12 active torsions:
  status: ('A' for Active; 'I' for Inactive)
    1  A    between atoms: N_2  and  C_52
    2  A    between atoms: N_2  and  P_53
    3  A    between atoms: C_7  and  N_10
    4  A    between atoms: C_7  and  C_27
    5  A    between atoms: N_10  and  C_22
    6  A    between atoms: C_13  and  P_53
    7  A    between atoms: C_14  and  C_33
    8  A    between atoms: C_17  and  C_39
    9  A    between atoms: C_22  and  N_50
   10  A    between atoms: C_24  and  O_46
   11  A    between atoms: C_30  and  C_39
   12  A    between atoms: C_30  and  C_52
                            x       y       z     vdW  Elec       q    Type
                         _______ _______ _______ _____ _____    ______ ____

>  <TORSDO>
F 12

$$$$
=
 OpenBabel11042415073D

 53 56  0  0  1  0  0  0  0  0999 V2000
  188.6320  173.5320  138.9820 C   0  0  0  0  0  0  0  0  0  0  0  0
  190.1790  173.4230  144.9440 C   0  0  0  0  0  2  0  0  0  0  0  0
  188.9440  172.7850  137.8520 C   0  0  0  0  0  3  0  0  0  0  0  0
  189.7620  171.6550  137.9330 C   0  0  0  0  0  0  0  0  0  0  0  0
  190.8170  172.2820  144.1300 C   0  0  1  0  0  3  0  0  0  0  0  0
  188.6360  175.3570  144.3340 C   0  0  0  0  0  0  0  0  0  0  0  0
  190.5360  171.6910  141.6240 N   0  0  0  0  0  0  0  0  0  0  0  0
  190.0410  170.9250  136.7680 C   0  0  0  0  0  0  0  0  0  0  0  0
  189.9930  172.0260  140.3380 C   0  0  0  0  0  0  0  0  0  0  0  0
  187.7380  174.7180  138.8220 C   0  0  0  0  0  1  0  0  0  0  0  0
  190.2630  172.5010  142.7630 C   0  0  0  0  0  0  0  0  0  0  0  0
  189.1490  173.1630  140.2320 C   0  0  0  0  0  0  0  0  0  0  0  0
  189.3730  174.1740  143.9850 N   0  0  0  0  0  0  0  0  0  0  0  0
  188.7640  173.9700  141.4580 C   0  0  0  0  0  3  0  0  0  0  0  0
  189.4790  173.5490  142.7110 C   0  0  0  0  0  0  0  0  0  0  0  0
  190.3020  171.2530  139.1840 C   0  0  0  0  0  0  0  0  0  0  0  0
  191.1230  170.0910  139.2050 C   0  0  0  0  0  0  0  0  0  0  0  0
  188.6860  175.8010  145.5110 O   0  0  0  0  0  0  0  0  0  0  0  0
  190.8530  169.7920  136.8590 C   0  0  0  0  0  3  0  0  0  0  0  0
  191.3640  169.4090  138.0530 N   0  0  0  0  0  0  0  0  0  0  0  0
  191.7490  169.5490  140.4470 C   0  0  0  0  0  1  0  0  0  0  0  0
  194.4780  171.9680  143.1160 C   0  0  0  0  0  3  0  0  0  0  0  0
  192.9490  172.9740  145.2290 C   0  0  0  0  0  3  0  0  0  0  0  0
  195.1130  172.5740  144.2100 C   0  0  0  0  0  0  0  0  0  0  0  0
  193.0870  171.8710  143.0780 C   0  0  0  0  0  3  0  0  0  0  0  0
  192.3140  172.3830  144.1330 C   0  0  0  0  0  0  0  0  0  0  0  0
  194.3420  173.0690  145.2670 C   0  0  0  0  0  3  0  0  0  0  0  0
  196.6020  172.6930  144.2700 C   0  0  1  0  0  3  0  0  0  0  0  0
  197.2460  171.3220  144.3670 C   0  0  0  0  0  1  0  0  0  0  0  0
  197.1050  173.3970  143.0980 N   0  0  0  0  0  2  0  0  0  0  0  0
  197.9410  175.6640  143.2090 C   0  0  0  0  0  1  0  0  0  0  0  0
  196.7030  174.7930  143.2070 C   0  0  1  0  0  3  0  0  0  0  0  0
  192.4670  176.0950  143.5340 C   0  0  0  0  0  1  0  0  0  0  0  0
  194.7250  176.6140  144.4270 C   0  0  0  0  0  1  0  0  0  0  0  0
  193.7610  175.4050  141.1390 O   0  0  0  0  0  0  0  0  0  0  0  0
  193.9090  176.0040  143.3910 N   0  0  0  0  0  0  0  0  0  0  0  0
  194.4830  175.5130  142.1660 C   0  0  0  0  0  0  0  0  0  0  0  0
  195.8660  175.1550  142.0710 N   0  0  0  0  0  2  0  0  0  0  0  0
  190.3030  171.9180  134.5130 C   0  0  0  0  0  1  0  0  0  0  0  0
  189.5090  171.3350  135.5380 O   0  0  0  0  0  0  0  0  0  0  0  0
  187.8230  176.1040  143.3270 C   0  0  0  0  0  2  0  0  0  0  0  0
  189.4040  177.7500  142.3310 C   0  0  0  0  0  1  0  0  0  0  0  0
  188.2290  177.5720  143.2740 C   0  0  1  0  0  3  0  0  0  0  0  0
  187.0720  178.4770  142.8660 C   0  0  0  0  0  2  0  0  0  0  0  0
  185.7920  177.7990  143.0240 N   0  0  0  0  0  2  0  0  0  0  0  0
  183.2840  179.0040  143.3380 O   0  0  0  0  0  0  0  0  0  0  0  0
  185.4500  180.1420  144.2520 O   0  0  0  0  0  1  0  0  0  0  0  0
  184.7930  178.7920  144.0700 P   0  0  2  0  0  0  0  0  0  0  0  0
  187.1780  178.7040  145.9820 O   0  0  0  0  0  0  0  0  0  0  0  0
  184.5590  177.9620  145.6800 C   0  0  0  0  0  2  0  0  0  0  0  0
  186.0860  177.8990  146.6530 P   0  0  0  0  0  0  0  0  0  0  0  0
  185.1880  176.7710  145.6710 O   0  0  0  0  0  0  0  0  0  0  0  0
  185.6480  178.2540  148.3750 C   0  0  0  0  0 15  0  0  0  0  0  0
  1 12  1  0  0  0  0
  3  4  1  0  0  0  0
  3  1  2  0  0  0  0
  4 16  1  0  0  0  0
  5 26  1  6  0  0  0
  5  2  1  0  0  0  0
  6 18  2  0  0  0  0
  7 11  1  0  0  0  0
  8 19  1  0  0  0  0
  8  4  2  0  0  0  0
  9  7  2  0  0  0  0
 10  1  1  0  0  0  0
 11  5  1  0  0  0  0
 12  9  1  0  0  0  0
 12 14  2  0  0  0  0
 13  6  1  0  0  0  0
 13  2  1  0  0  0  0
 14 15  1  0  0  0  0
 15 11  2  0  0  0  0
 15 13  1  0  0  0  0
 16 17  2  0  0  0  0
 16  9  1  0  0  0  0
 17 21  1  0  0  0  0
 19 20  2  0  0  0  0
 20 17  1  0  0  0  0
 22 24  1  0  0  0  0
 23 27  1  0  0  0  0
 24 28  1  0  0  0  0
 24 27  2  0  0  0  0
 25 22  2  0  0  0  0
 25 26  1  0  0  0  0
 26 23  2  0  0  0  0
 28 29  1  6  0  0  0
 30 32  1  0  0  0  0
 30 28  1  0  0  0  0
 32 31  1  6  0  0  0
 35 37  2  0  0  0  0
 36 33  1  0  0  0  0
 36 34  1  0  0  0  0
 37 36  1  0  0  0  0
 38 37  1  0  0  0  0
 38 32  1  0  0  0  0
 39 40  1  0  0  0  0
 40  8  1  0  0  0  0
 41  6  1  0  0  0  0
 43 42  1  6  0  0  0
 43 41  1  0  0  0  0
 44 45  1  0  0  0  0
 44 43  1  0  0  0  0
 45 48  1  0  0  0  0
 48 46  2  6  0  0  0
 48 47  1  0  0  0  0
 48 50  1  0  0  0  0
 49 51  2  0  0  0  0
 52 50  1  0  0  0  0
 52 51  1  0  0  0  0
M  END
>  <MODEL>
4

>  <REMARK>
 VINA RESULT:      -7.0      4.527     10.348
  Name = 
  12 active torsions:
  status: ('A' for Active; 'I' for Inactive)
    1  A    between atoms: N_2  and  C_52
    2  A    between atoms: N_2  and  P_53
    3  A    between atoms: C_7  and  N_10
    4  A    between atoms: C_7  and  C_27
    5  A    between atoms: N_10  and  C_22
    6  A    between atoms: C_13  and  P_53
    7  A    between atoms: C_14  and  C_33
    8  A    between atoms: C_17  and  C_39
    9  A    between atoms: C_22  and  N_50
   10  A    between atoms: C_24  and  O_46
   11  A    between atoms: C_30  and  C_39
   12  A    between atoms: C_30  and  C_52
                            x       y       z     vdW  Elec       q    Type
                         _______ _______ _______ _____ _____    ______ ____

>  <TORSDO>
F 12

$$$$
=
 OpenBabel11042415073D

 53 57  0  0  1  0  0  0  0  0999 V2000
  187.5570  175.3610  139.0240 C   0  0  0  0  0  0  0  0  0  0  0  0
  187.9410  176.8300  144.9940 C   0  0  0  0  0  2  0  0  0  0  0  0
  188.1140  174.3980  138.1910 C   0  0  0  0  0  3  0  0  0  0  0  0
  188.9550  173.4020  138.6950 C   0  0  0  0  0  0  0  0  0  0  0  0
  188.7770  175.5930  144.6190 C   0  0  1  0  0  3  0  0  0  0  0  0
  186.4510  178.4080  143.6570 C   0  0  0  0  0  0  0  0  0  0  0  0
  189.0080  174.3950  142.3340 N   0  0  0  0  0  0  0  0  0  0  0  0
  189.4860  172.4440  137.8190 C   0  0  0  0  0  0  0  0  0  0  0  0
  188.7050  174.3590  140.9320 C   0  0  0  0  0  0  0  0  0  0  0  0
  186.6540  176.3850  138.4170 C   0  0  0  0  0  1  0  0  0  0  0  0
  188.4840  175.4240  143.1670 C   0  0  0  0  0  0  0  0  0  0  0  0
  187.8430  175.3530  140.3970 C   0  0  0  0  0  0  0  0  0  0  0  0
  187.2980  177.2510  143.7520 N   0  0  0  0  0  0  0  0  0  0  0  0
  187.1920  176.3900  141.2930 C   0  0  0  0  0  3  0  0  0  0  0  0
  187.6750  176.3520  142.7160 C   0  0  0  0  0  0  0  0  0  0  0  0
  189.2650  173.3640  140.0820 C   0  0  0  0  0  0  0  0  0  0  0  0
  190.1220  172.3230  140.5380 C   0  0  0  0  0  0  0  0  0  0  0  0
  186.2550  179.1240  144.6750 O   0  0  0  0  0  0  0  0  0  0  0  0
  190.3200  171.4470  138.3340 C   0  0  0  0  0  3  0  0  0  0  0  0
  190.6110  171.4110  139.6550 N   0  0  0  0  0  0  0  0  0  0  0  0
  190.5250  172.1570  141.9660 C   0  0  0  0  0  1  0  0  0  0  0  0
  192.2980  177.0370  144.4130 C   0  0  0  0  0  3  0  0  0  0  0  0
  190.9250  174.9990  145.7440 C   0  0  0  0  0  3  0  0  0  0  0  0
  192.9810  176.2100  145.3150 C   0  0  0  0  0  0  0  0  0  0  0  0
  190.9350  176.8480  144.1810 C   0  0  0  0  0  3  0  0  0  0  0  0
  190.2390  175.8320  144.8550 C   0  0  0  0  0  0  0  0  0  0  0  0
  192.2900  175.1880  145.9720 C   0  0  0  0  0  3  0  0  0  0  0  0
  194.4410  176.3960  145.5820 C   0  0  1  0  0  3  0  0  0  0  0  0
  194.6670  177.5450  146.5470 C   0  0  0  0  0  1  0  0  0  0  0  0
  195.0210  175.1730  146.1180 N   0  0  0  0  0  2  0  0  0  0  0  0
  197.0100  173.8040  145.9800 C   0  0  0  0  0  1  0  0  0  0  0  0
  196.1080  174.7680  145.2390 C   0  0  1  0  0  3  0  0  0  0  0  0
  195.8800  176.6290  141.2100 C   0  0  0  0  0  1  0  0  0  0  0  0
  197.4970  176.1600  143.0360 C   0  0  0  0  0  1  0  0  0  0  0  0
  194.6070  174.2410  141.9560 O   0  0  0  0  0  0  0  0  0  0  0  0
  196.2270  175.8640  142.3940 N   0  0  0  0  0  0  0  0  0  0  0  0
  195.4350  174.7250  142.7740 C   0  0  0  0  0  0  0  0  0  0  0  0
  195.5690  174.1060  144.0590 N   0  0  0  0  0  2  0  0  0  0  0  0
  189.4790  171.4330  135.5570 C   0  0  0  0  0  1  0  0  0  0  0  0
  189.1800  172.4950  136.4530 O   0  0  0  0  0  0  0  0  0  0  0  0
  185.8110  178.8120  142.3690 C   0  0  0  0  0  2  0  0  0  0  0  0
  183.8280  177.9040  143.5700 C   0  0  0  0  0  1  0  0  0  0  0  0
  184.4450  178.1580  142.2070 C   0  0  1  0  0  3  0  0  0  0  0  0
  183.5050  178.9900  141.3400 C   0  0  0  0  0  2  0  0  0  0  0  0
  182.4640  178.1610  140.7470 N   0  0  0  0  0  2  0  0  0  0  0  0
  181.2080  179.5720  142.8130 O   0  0  0  0  0  1  0  0  0  0  0  0
  180.0670  177.4970  141.7110 O   0  0  0  0  0  0  0  0  0  0  0  0
  180.9260  178.7010  141.3920 P   0  0  2  0  0  0  0  0  0  0  0  0
  178.0970  179.6540  142.0570 O   0  0  0  0  0  0  0  0  0  0  0  0
  180.0920  179.7910  140.1850 C   0  0  0  0  0  2  0  0  0  0  0  0
  178.3900  180.1810  140.6700 P   0  0  2  0  0  4  0  0  0  0  0  0
  179.1420  179.0960  139.5300 O   0  0  0  0  0  0  0  0  0  0  0  0
  178.1110  181.9340  140.3060 C   0  0  0  0  0  1  0  0  0  0  0  0
  1 12  1  0  0  0  0
  3  4  1  0  0  0  0
  3  1  2  0  0  0  0
  4 16  1  0  0  0  0
  5 26  1  6  0  0  0
  5  2  1  0  0  0  0
  6 13  1  0  0  0  0
  6 18  2  0  0  0  0
  7 11  1  0  0  0  0
  8 19  1  0  0  0  0
  8  4  2  0  0  0  0
  9  7  2  0  0  0  0
 10  1  1  0  0  0  0
 11  5  1  0  0  0  0
 12  9  1  0  0  0  0
 12 14  2  0  0  0  0
 13  2  1  0  0  0  0
 14 15  1  0  0  0  0
 15 11  2  0  0  0  0
 15 13  1  0  0  0  0
 16 17  2  0  0  0  0
 16  9  1  0  0  0  0
 17 21  1  0  0  0  0
 19 20  2  0  0  0  0
 20 17  1  0  0  0  0
 22 24  1  0  0  0  0
 23 27  1  0  0  0  0
 24 28  1  0  0  0  0
 24 27  2  0  0  0  0
 25 22  2  0  0  0  0
 25 26  1  0  0  0  0
 26 23  2  0  0  0  0
 28 30  1  0  0  0  0
 28 29  1  1  0  0  0
 32 31  1  1  0  0  0
 32 30  1  0  0  0  0
 33 36  1  0  0  0  0
 35 37  2  0  0  0  0
 36 37  1  0  0  0  0
 36 34  1  0  0  0  0
 37 38  1  0  0  0  0
 38 32  1  0  0  0  0
 39 40  1  0  0  0  0
 40  8  1  0  0  0  0
 41  6  1  0  0  0  0
 43 41  1  0  0  0  0
 43 42  1  1  0  0  0
 44 43  1  0  0  0  0
 45 44  1  0  0  0  0
 45 48  1  0  0  0  0
 48 47  2  1  0  0  0
 48 46  1  0  0  0  0
 50 48  1  0  0  0  0
 51 53  1  1  0  0  0
 51 49  2  0  0  0  0
 52 50  1  0  0  0  0
 52 51  1  0  0  0  0
M  END
>  <MODEL>
5

>  <REMARK>
 VINA RESULT:      -6.9      3.479     11.080
  Name = 
  12 active torsions:
  status: ('A' for Active; 'I' for Inactive)
    1  A    between atoms: N_2  and  C_52
    2  A    between atoms: N_2  and  P_53
    3  A    between atoms: C_7  and  N_10
    4  A    between atoms: C_7  and  C_27
    5  A    between atoms: N_10  and  C_22
    6  A    between atoms: C_13  and  P_53
    7  A    between atoms: C_14  and  C_33
    8  A    between atoms: C_17  and  C_39
    9  A    between atoms: C_22  and  N_50
   10  A    between atoms: C_24  and  O_46
   11  A    between atoms: C_30  and  C_39
   12  A    between atoms: C_30  and  C_52
                            x       y       z     vdW  Elec       q    Type
                         _______ _______ _______ _____ _____    ______ ____

>  <TORSDO>
F 12

$$$$
=
 OpenBabel11042415073D

 53 56  0  0  1  0  0  0  0  0999 V2000
  191.2130  174.8120  145.1070 C   0  0  0  0  0  0  0  0  0  0  0  0
  192.8850  169.2740  142.9900 C   0  0  0  0  0  2  0  0  0  0  0  0
  190.2130  175.7350  144.8200 C   0  0  0  0  0  3  0  0  0  0  0  0
  189.2250  175.4620  143.8710 C   0  0  0  0  0  0  0  0  0  0  0  0
  191.6240  169.8310  142.3030 C   0  0  1  0  0  3  0  0  0  0  0  0
  194.4340  170.1750  144.8020 C   0  0  0  0  0  0  0  0  0  0  0  0
  190.3440  172.0370  142.7540 N   0  0  0  0  0  0  0  0  0  0  0  0
  188.2300  176.4180  143.6220 C   0  0  0  0  0  0  0  0  0  0  0  0
  190.2630  173.2870  143.4540 C   0  0  0  0  0  0  0  0  0  0  0  0
  192.2260  175.1660  146.1460 C   0  0  0  0  0  1  0  0  0  0  0  0
  191.4090  171.1270  143.0090 C   0  0  0  0  0  0  0  0  0  0  0  0
  191.2490  173.5840  144.4320 C   0  0  0  0  0  0  0  0  0  0  0  0
  193.2700  170.2880  143.9680 N   0  0  0  0  0  0  0  0  0  0  0  0
  192.3250  172.5760  144.7900 C   0  0  0  0  0  3  0  0  0  0  0  0
  192.3300  171.3550  143.9130 C   0  0  0  0  0  0  0  0  0  0  0  0
  189.2320  174.2260  143.1690 C   0  0  0  0  0  0  0  0  0  0  0  0
  188.1970  174.0020  142.2180 C   0  0  0  0  0  0  0  0  0  0  0  0
  195.1880  169.1720  144.6910 O   0  0  0  0  0  0  0  0  0  0  0  0
  187.2410  176.1330  142.6760 C   0  0  0  0  0  3  0  0  0  0  0  0
  187.2480  174.9540  142.0110 N   0  0  0  0  0  0  0  0  0  0  0  0
  188.0750  172.7490  141.4160 C   0  0  0  0  0  1  0  0  0  0  0  0
  191.0730  170.0390  138.5370 C   0  0  0  0  0  3  0  0  0  0  0  0
  193.1270  170.4090  140.3960 C   0  0  0  0  0  3  0  0  0  0  0  0
  192.3480  170.4220  138.1000 C   0  0  0  0  0  0  0  0  0  0  0  0
  190.8260  169.8480  139.8980 C   0  0  0  0  0  3  0  0  0  0  0  0
  191.8520  170.0420  140.8360 C   0  0  0  0  0  0  0  0  0  0  0  0
  193.3740  170.5980  139.0340 C   0  0  0  0  0  3  0  0  0  0  0  0
  192.6350  170.6360  136.6480 C   0  0  1  0  0  3  0  0  0  0  0  0
  192.5200  169.3310  135.8810 C   0  0  0  0  0  1  0  0  0  0  0  0
  191.7220  171.6240  136.0890 N   0  0  0  0  0  2  0  0  0  0  0  0
  193.6090  173.1190  135.8500 C   0  0  0  0  0  1  0  0  0  0  0  0
  192.2240  172.9460  136.4370 C   0  0  1  0  0  3  0  0  0  0  0  0
  188.1960  173.9030  138.0510 C   0  0  0  0  0  1  0  0  0  0  0  0
  190.5620  173.6700  138.7680 C   0  0  0  0  0  1  0  0  0  0  0  0
  189.2090  174.8200  135.5980 O   0  0  0  0  0  0  0  0  0  0  0  0
  189.6030  173.8720  137.6950 N   0  0  0  0  0  0  0  0  0  0  0  0
  190.0190  174.2360  136.3670 C   0  0  0  0  0  0  0  0  0  0  0  0
  191.3430  173.9690  135.8900 N   0  0  0  0  0  2  0  0  0  0  0  0
  187.0500  178.2700  144.7700 C   0  0  0  0  0  1  0  0  0  0  0  0
  188.2380  177.6370  144.3140 O   0  0  0  0  0  0  0  0  0  0  0  0
  194.8010  171.2330  145.7900 C   0  0  0  0  0  2  0  0  0  0  0  0
  197.2540  170.9300  145.4900 C   0  0  0  0  0  1  0  0  0  0  0  0
  196.1060  171.9180  145.4020 C   0  0  1  0  0  3  0  0  0  0  0  0
  196.0400  172.5410  144.0110 C   0  0  0  0  0  2  0  0  0  0  0  0
  195.4570  173.8760  144.0600 N   0  0  0  0  0  2  0  0  0  0  0  0
  194.7220  176.0190  142.4160 O   0  0  0  0  0  1  0  0  0  0  0  0
  194.0530  173.5670  141.8140 O   0  0  0  0  0  0  0  0  0  0  0  0
  195.1740  174.3900  142.4080 P   0  0  2  0  0  0  0  0  0  0  0  0
  195.1010  175.2740  139.4810 O   0  0  0  0  0  0  0  0  0  0  0  0
  196.7050  174.2050  141.4270 C   0  0  0  0  0  2  0  0  0  0  0  0
  196.4710  174.6700  139.6910 P   0  0  0  0  0  0  0  0  0  0  0  0
  196.5720  173.1700  140.5750 O   0  0  0  0  0  0  0  0  0  0  0  0
  197.9410  175.5970  139.1760 C   0  0  0  0  0 15  0  0  0  0  0  0
  1 10  1  0  0  0  0
  2 13  1  0  0  0  0
  3  1  1  0  0  0  0
  4  3  2  0  0  0  0
  5 26  1  6  0  0  0
  5  2  1  0  0  0  0
  5 11  1  0  0  0  0
  6 41  1  0  0  0  0
  7 11  2  0  0  0  0
  7  9  1  0  0  0  0
  8  4  1  0  0  0  0
  8 40  1  0  0  0  0
  9 12  1  0  0  0  0
 11 15  1  0  0  0  0
 12 14  1  0  0  0  0
 12  1  2  0  0  0  0
 13  6  1  0  0  0  0
 15 13  1  0  0  0  0
 15 14  2  0  0  0  0
 16  9  2  0  0  0  0
 16  4  1  0  0  0  0
 17 16  1  0  0  0  0
 18  6  2  0  0  0  0
 19  8  2  0  0  0  0
 20 17  2  0  0  0  0
 20 19  1  0  0  0  0
 21 17  1  0  0  0  0
 22 25  1  0  0  0  0
 23 26  1  0  0  0  0
 24 22  2  0  0  0  0
 24 27  1  0  0  0  0
 25 26  2  0  0  0  0
 27 23  2  0  0  0  0
 28 29  1  6  0  0  0
 28 24  1  0  0  0  0
 30 32  1  0  0  0  0
 30 28  1  0  0  0  0
 32 31  1  6  0  0  0
 35 37  2  0  0  0  0
 36 33  1  0  0  0  0
 36 34  1  0  0  0  0
 37 36  1  0  0  0  0
 38 37  1  0  0  0  0
 38 32  1  0  0  0  0
 40 39  1  0  0  0  0
 43 42  1  6  0  0  0
 43 41  1  0  0  0  0
 44 45  1  0  0  0  0
 44 43  1  0  0  0  0
 48 47  2  6  0  0  0
 48 46  1  0  0  0  0
 48 45  1  0  0  0  0
 49 51  2  0  0  0  0
 50 48  1  0  0  0  0
 51 52  1  0  0  0  0
 52 50  1  0  0  0  0
M  END
>  <MODEL>
6

>  <REMARK>
 VINA RESULT:      -6.6      4.985      9.389
  Name = 
  12 active torsions:
  status: ('A' for Active; 'I' for Inactive)
    1  A    between atoms: N_2  and  C_52
    2  A    between atoms: N_2  and  P_53
    3  A    between atoms: C_7  and  N_10
    4  A    between atoms: C_7  and  C_27
    5  A    between atoms: N_10  and  C_22
    6  A    between atoms: C_13  and  P_53
    7  A    between atoms: C_14  and  C_33
    8  A    between atoms: C_17  and  C_39
    9  A    between atoms: C_22  and  N_50
   10  A    between atoms: C_24  and  O_46
   11  A    between atoms: C_30  and  C_39
   12  A    between atoms: C_30  and  C_52
                            x       y       z     vdW  Elec       q    Type
                         _______ _______ _______ _____ _____    ______ ____

>  <TORSDO>
F 12

$$$$
=
 OpenBabel11042415073D

 53 56  0  0  1  0  0  0  0  0999 V2000
  194.0400  171.0350  140.3210 C   0  0  0  0  0  0  0  0  0  0  0  0
  193.9230  176.5090  143.1410 C   0  0  0  0  0  2  0  0  0  0  0  0
  193.1450  170.2670  139.5830 C   0  0  0  0  0  3  0  0  0  0  0  0
  191.8700  170.7430  139.2700 C   0  0  0  0  0  0  0  0  0  0  0  0
  192.6070  176.1720  142.4160 C   0  0  1  0  0  3  0  0  0  0  0  0
  196.1280  175.2660  143.4360 C   0  0  0  0  0  0  0  0  0  0  0  0
  192.0020  174.1000  140.9830 N   0  0  0  0  0  0  0  0  0  0  0  0
  191.0030  169.9380  138.5150 C   0  0  0  0  0  0  0  0  0  0  0  0
  192.3710  172.8090  140.4780 C   0  0  0  0  0  0  0  0  0  0  0  0
  195.3930  170.4670  140.6030 C   0  0  0  0  0  1  0  0  0  0  0  0
  192.9030  174.8510  141.7920 C   0  0  0  0  0  0  0  0  0  0  0  0
  193.6660  172.3080  140.7730 C   0  0  0  0  0  0  0  0  0  0  0  0
  194.8010  175.3690  142.8930 N   0  0  0  0  0  0  0  0  0  0  0  0
  194.6730  173.1430  141.5420 C   0  0  0  0  0  3  0  0  0  0  0  0
  194.1120  174.4310  142.0760 C   0  0  0  0  0  0  0  0  0  0  0  0
  191.4590  172.0290  139.7130 C   0  0  0  0  0  0  0  0  0  0  0  0
  190.1500  172.4620  139.3580 C   0  0  0  0  0  0  0  0  0  0  0  0
  196.5710  176.1790  144.1820 O   0  0  0  0  0  0  0  0  0  0  0  0
  189.7320  170.4250  138.1990 C   0  0  0  0  0  3  0  0  0  0  0  0
  189.3440  171.6520  138.6200 N   0  0  0  0  0  0  0  0  0  0  0  0
  189.5900  173.7900  139.7460 C   0  0  0  0  0  1  0  0  0  0  0  0
  189.9060  174.7730  144.7140 C   0  0  0  0  0  3  0  0  0  0  0  0
  190.8460  177.2490  143.8200 C   0  0  0  0  0  3  0  0  0  0  0  0
  189.2990  175.9540  145.1640 C   0  0  0  0  0  0  0  0  0  0  0  0
  190.9810  174.8320  143.8260 C   0  0  0  0  0  3  0  0  0  0  0  0
  191.4630  176.0740  143.3810 C   0  0  0  0  0  0  0  0  0  0  0  0
  189.7690  177.1890  144.7070 C   0  0  0  0  0  3  0  0  0  0  0  0
  188.1480  175.9150  146.1180 C   0  0  1  0  0  3  0  0  0  0  0  0
  188.6290  175.6070  147.5250 C   0  0  0  0  0  1  0  0  0  0  0  0
  187.4320  177.1830  146.1040 N   0  0  0  0  0  2  0  0  0  0  0  0
  185.1520  176.6980  146.7490 C   0  0  0  0  0  1  0  0  0  0  0  0
  186.0930  176.9370  145.5870 C   0  0  1  0  0  3  0  0  0  0  0  0
  187.4390  177.9310  141.4710 C   0  0  0  0  0  1  0  0  0  0  0  0
  186.4710  176.0640  142.7920 C   0  0  0  0  0  1  0  0  0  0  0  0
  185.9800  179.6470  143.1470 O   0  0  0  0  0  0  0  0  0  0  0  0
  186.7220  177.4890  142.6530 N   0  0  0  0  0  0  0  0  0  0  0  0
  186.1140  178.4530  143.5300 C   0  0  0  0  0  0  0  0  0  0  0  0
  185.6340  178.0940  144.8310 N   0  0  0  0  0  2  0  0  0  0  0  0
  192.0430  168.4430  136.8340 C   0  0  0  0  0  1  0  0  0  0  0  0
  191.4160  168.6680  138.0900 O   0  0  0  0  0  0  0  0  0  0  0  0
  197.0000  174.0840  143.1650 C   0  0  0  0  0  2  0  0  0  0  0  0
  195.8580  173.2810  145.2260 C   0  0  0  0  0  1  0  0  0  0  0  0
  197.1270  173.2010  144.4010 C   0  0  1  0  0  3  0  0  0  0  0  0
  197.4460  171.7520  144.0460 C   0  0  0  0  0  2  0  0  0  0  0  0
  197.2320  170.8720  145.1870 N   0  0  0  0  0  2  0  0  0  0  0  0
  196.9320  168.1660  145.8390 O   0  0  0  0  0  1  0  0  0  0  0  0
  197.9240  168.8950  143.5350 O   0  0  0  0  0  0  0  0  0  0  0  0
  196.8790  169.2720  144.5620 P   0  0  2  0  0  0  0  0  0  0  0  0
  194.5450  170.2160  146.2990 O   0  0  0  0  0  0  0  0  0  0  0  0
  195.2070  169.2460  143.8250 C   0  0  0  0  0  2  0  0  0  0  0  0
  193.9240  169.7300  145.0080 P   0  0  0  0  0  0  0  0  0  0  0  0
  194.5010  168.2240  144.3450 O   0  0  0  0  0  0  0  0  0  0  0  0
  192.7490  170.7950  144.1300 C   0  0  0  0  0 15  0  0  0  0  0  0
  1 10  1  0  0  0  0
  1 12  1  0  0  0  0
  3  1  2  0  0  0  0
  4  3  1  0  0  0  0
  4 16  1  0  0  0  0
  5  2  1  0  0  0  0
  5 26  1  1  0  0  0
  6 18  2  0  0  0  0
  7 11  1  0  0  0  0
  8  4  2  0  0  0  0
  9 12  1  0  0  0  0
  9  7  2  0  0  0  0
 11 15  2  0  0  0  0
 11  5  1  0  0  0  0
 12 14  2  0  0  0  0
 13  2  1  0  0  0  0
 13  6  1  0  0  0  0
 14 15  1  0  0  0  0
 15 13  1  0  0  0  0
 16  9  1  0  0  0  0
 17 16  2  0  0  0  0
 17 21  1  0  0  0  0
 19  8  1  0  0  0  0
 19 20  2  0  0  0  0
 20 17  1  0  0  0  0
 22 24  1  0  0  0  0
 23 27  1  0  0  0  0
 24 28  1  0  0  0  0
 25 22  2  0  0  0  0
 26 23  2  0  0  0  0
 26 25  1  0  0  0  0
 27 24  2  0  0  0  0
 28 29  1  1  0  0  0
 30 28  1  0  0  0  0
 32 30  1  0  0  0  0
 32 31  1  1  0  0  0
 33 36  1  0  0  0  0
 35 37  2  0  0  0  0
 36 34  1  0  0  0  0
 36 37  1  0  0  0  0
 37 38  1  0  0  0  0
 38 32  1  0  0  0  0
 39 40  1  0  0  0  0
 40  8  1  0  0  0  0
 41  6  1  0  0  0  0
 41 43  1  0  0  0  0
 43 42  1  6  0  0  0
 44 43  1  0  0  0  0
 44 45  1  0  0  0  0
 48 47  2  6  0  0  0
 48 45  1  0  0  0  0
 48 46  1  0  0  0  0
 50 52  1  0  0  0  0
 50 48  1  0  0  0  0
 51 49  2  0  0  0  0
 52 51  1  0  0  0  0
M  END
>  <MODEL>
7

>  <REMARK>
 VINA RESULT:      -6.5      4.579      7.401
  Name = 
  12 active torsions:
  status: ('A' for Active; 'I' for Inactive)
    1  A    between atoms: N_2  and  C_52
    2  A    between atoms: N_2  and  P_53
    3  A    between atoms: C_7  and  N_10
    4  A    between atoms: C_7  and  C_27
    5  A    between atoms: N_10  and  C_22
    6  A    between atoms: C_13  and  P_53
    7  A    between atoms: C_14  and  C_33
    8  A    between atoms: C_17  and  C_39
    9  A    between atoms: C_22  and  N_50
   10  A    between atoms: C_24  and  O_46
   11  A    between atoms: C_30  and  C_39
   12  A    between atoms: C_30  and  C_52
                            x       y       z     vdW  Elec       q    Type
                         _______ _______ _______ _____ _____    ______ ____

>  <TORSDO>
F 12

$$$$
=
 OpenBabel11042415073D

 53 56  0  0  1  0  0  0  0  0999 V2000
  191.0100  174.7590  145.5470 C   0  0  0  0  0  0  0  0  0  0  0  0
  192.9580  169.7820  142.4860 C   0  0  0  0  0  2  0  0  0  0  0  0
  190.0090  175.7100  145.3810 C   0  0  0  0  0  3  0  0  0  0  0  0
  189.0950  175.6240  144.3280 C   0  0  0  0  0  0  0  0  0  0  0  0
  191.7340  170.4530  141.8370 C   0  0  1  0  0  3  0  0  0  0  0  0
  194.3590  170.3140  144.5480 C   0  0  0  0  0  0  0  0  0  0  0  0
  190.3710  172.5080  142.6290 N   0  0  0  0  0  0  0  0  0  0  0  0
  188.0950  176.6010  144.2060 C   0  0  0  0  0  0  0  0  0  0  0  0
  190.2120  173.5900  143.5580 C   0  0  0  0  0  0  0  0  0  0  0  0
  191.9410  174.9070  146.7060 C   0  0  0  0  0  1  0  0  0  0  0  0
  191.4390  171.5770  142.7700 C   0  0  0  0  0  0  0  0  0  0  0  0
  191.1210  173.6930  144.6430 C   0  0  0  0  0  0  0  0  0  0  0  0
  193.2510  170.5820  143.6720 N   0  0  0  0  0  0  0  0  0  0  0  0
  192.1960  172.6450  144.8670 C   0  0  0  0  0  3  0  0  0  0  0  0
  192.2910  171.6270  143.7650 C   0  0  0  0  0  0  0  0  0  0  0  0
  189.1800  174.5560  143.3950 C   0  0  0  0  0  0  0  0  0  0  0  0
  188.2170  174.5180  142.3470 C   0  0  0  0  0  0  0  0  0  0  0  0
  195.1420  169.3620  144.2910 O   0  0  0  0  0  0  0  0  0  0  0  0
  187.1800  176.5020  143.1540 C   0  0  0  0  0  3  0  0  0  0  0  0
  187.2610  175.4820  142.2680 N   0  0  0  0  0  0  0  0  0  0  0  0
  188.1810  173.4520  141.3020 C   0  0  0  0  0  1  0  0  0  0  0  0
  192.0730  172.7170  138.7890 C   0  0  0  0  0  3  0  0  0  0  0  0
  192.6190  170.0790  139.5330 C   0  0  0  0  0  3  0  0  0  0  0  0
  192.6520  171.8370  137.8640 C   0  0  0  0  0  0  0  0  0  0  0  0
  191.7740  172.2800  140.0800 C   0  0  0  0  0  3  0  0  0  0  0  0
  192.0550  170.9580  140.4620 C   0  0  0  0  0  0  0  0  0  0  0  0
  192.9150  170.5160  138.2400 C   0  0  0  0  0  3  0  0  0  0  0  0
  192.9840  172.2840  136.4760 C   0  0  1  0  0  3  0  0  0  0  0  0
  191.7190  172.5690  135.6870 C   0  0  0  0  0  1  0  0  0  0  0  0
  193.8260  173.4720  136.5110 N   0  0  0  0  0  2  0  0  0  0  0  0
  195.3140  171.8760  135.4660 C   0  0  0  0  0  1  0  0  0  0  0  0
  195.2150  173.0400  136.4290 C   0  0  1  0  0  3  0  0  0  0  0  0
  197.8640  175.5060  139.0070 C   0  0  0  0  0  1  0  0  0  0  0  0
  197.3790  173.1380  138.4360 C   0  0  0  0  0  1  0  0  0  0  0  0
  197.1880  176.1070  136.3490 O   0  0  0  0  0  0  0  0  0  0  0  0
  197.2920  174.5450  138.0820 N   0  0  0  0  0  0  0  0  0  0  0  0
  196.8500  174.9720  136.7810 C   0  0  0  0  0  0  0  0  0  0  0  0
  196.0440  174.1340  135.9440 N   0  0  0  0  0  2  0  0  0  0  0  0
  186.9770  177.7750  146.0800 C   0  0  0  0  0  1  0  0  0  0  0  0
  188.0260  177.6540  145.1280 O   0  0  0  0  0  0  0  0  0  0  0  0
  194.6310  171.1550  145.7520 C   0  0  0  0  0  2  0  0  0  0  0  0
  197.1130  170.9720  145.6840 C   0  0  0  0  0  1  0  0  0  0  0  0
  195.9370  171.9260  145.5980 C   0  0  1  0  0  3  0  0  0  0  0  0
  195.9870  172.7250  144.3000 C   0  0  0  0  0  2  0  0  0  0  0  0
  195.9640  174.1580  144.5630 N   0  0  0  0  0  2  0  0  0  0  0  0
  196.5790  173.8500  141.8500 O   0  0  0  0  0  0  0  0  0  0  0  0
  197.9110  175.5210  143.3520 O   0  0  0  0  0  1  0  0  0  0  0  0
  196.5220  174.9710  143.1130 P   0  0  2  0  0  0  0  0  0  0  0  0
  193.7340  174.1710  142.1430 O   0  0  0  0  0  0  0  0  0  0  0  0
  195.3630  176.3110  142.6640 C   0  0  0  0  0  2  0  0  0  0  0  0
  193.7970  175.6770  142.0100 P   0  0  0  0  0  0  0  0  0  0  0  0
  195.2420  176.3730  141.3250 O   0  0  0  0  0  0  0  0  0  0  0  0
  192.4670  176.6900  142.7110 C   0  0  0  0  0 15  0  0  0  0  0  0
  1 10  1  0  0  0  0
  2 13  1  0  0  0  0
  3  1  1  0  0  0  0
  4  3  2  0  0  0  0
  5 26  1  6  0  0  0
  5  2  1  0  0  0  0
  5 11  1  0  0  0  0
  6 41  1  0  0  0  0
  7 11  2  0  0  0  0
  7  9  1  0  0  0  0
  8  4  1  0  0  0  0
  8 40  1  0  0  0  0
  9 12  1  0  0  0  0
 11 15  1  0  0  0  0
 12 14  1  0  0  0  0
 12  1  2  0  0  0  0
 13 15  1  0  0  0  0
 13  6  1  0  0  0  0
 15 14  2  0  0  0  0
 16  9  2  0  0  0  0
 16  4  1  0  0  0  0
 17 16  1  0  0  0  0
 18  6  2  0  0  0  0
 19  8  2  0  0  0  0
 20 17  2  0  0  0  0
 20 19  1  0  0  0  0
 21 17  1  0  0  0  0
 22 25  1  0  0  0  0
 23 26  1  0  0  0  0
 24 27  1  0  0  0  0
 24 22  2  0  0  0  0
 25 26  2  0  0  0  0
 27 23  2  0  0  0  0
 28 29  1  6  0  0  0
 28 30  1  0  0  0  0
 28 24  1  0  0  0  0
 32 31  1  6  0  0  0
 32 30  1  0  0  0  0
 35 37  2  0  0  0  0
 36 34  1  0  0  0  0
 36 33  1  0  0  0  0
 37 36  1  0  0  0  0
 38 32  1  0  0  0  0
 38 37  1  0  0  0  0
 40 39  1  0  0  0  0
 43 42  1  6  0  0  0
 43 41  1  0  0  0  0
 44 45  1  0  0  0  0
 44 43  1  0  0  0  0
 48 46  2  6  0  0  0
 48 47  1  0  0  0  0
 48 45  1  0  0  0  0
 50 48  1  0  0  0  0
 51 49  2  0  0  0  0
 52 51  1  0  0  0  0
 52 50  1  0  0  0  0
M  END
>  <MODEL>
8

>  <REMARK>
 VINA RESULT:      -6.4      5.075     10.668
  Name = 
  12 active torsions:
  status: ('A' for Active; 'I' for Inactive)
    1  A    between atoms: N_2  and  C_52
    2  A    between atoms: N_2  and  P_53
    3  A    between atoms: C_7  and  N_10
    4  A    between atoms: C_7  and  C_27
    5  A    between atoms: N_10  and  C_22
    6  A    between atoms: C_13  and  P_53
    7  A    between atoms: C_14  and  C_33
    8  A    between atoms: C_17  and  C_39
    9  A    between atoms: C_22  and  N_50
   10  A    between atoms: C_24  and  O_46
   11  A    between atoms: C_30  and  C_39
   12  A    between atoms: C_30  and  C_52
                            x       y       z     vdW  Elec       q    Type
                         _______ _______ _______ _____ _____    ______ ____

>  <TORSDO>
F 12

$$$$
=
 OpenBabel11042415073D

 53 56  0  0  1  0  0  0  0  0999 V2000
  188.5540  176.4600  141.6830 C   0  0  0  0  0  0  0  0  0  0  0  0
  192.3590  174.0910  145.9080 C   0  0  0  0  0  2  0  0  0  0  0  0
  188.0770  176.0750  140.4350 C   0  0  0  0  0  3  0  0  0  0  0  0
  188.4100  174.8360  139.8820 C   0  0  0  0  0  0  0  0  0  0  0  0
  192.1570  173.1710  144.6890 C   0  0  1  0  0  3  0  0  0  0  0  0
  191.4670  176.3960  146.5290 C   0  0  0  0  0  0  0  0  0  0  0  0
  190.6480  173.5030  142.6100 N   0  0  0  0  0  0  0  0  0  0  0  0
  187.8970  174.4850  138.6250 C   0  0  0  0  0  0  0  0  0  0  0  0
  189.7590  174.3450  141.8620 C   0  0  0  0  0  0  0  0  0  0  0  0
  188.1420  177.7930  142.2170 C   0  0  0  0  0  1  0  0  0  0  0  0
  191.1830  173.9340  143.8570 C   0  0  0  0  0  0  0  0  0  0  0  0
  189.3950  175.6040  142.4070 C   0  0  0  0  0  0  0  0  0  0  0  0
  191.5310  175.2650  145.6450 N   0  0  0  0  0  0  0  0  0  0  0  0
  189.8710  176.0290  143.7840 C   0  0  0  0  0  3  0  0  0  0  0  0
  190.8620  175.0820  144.4020 C   0  0  0  0  0  0  0  0  0  0  0  0
  189.2600  173.9440  140.5900 C   0  0  0  0  0  0  0  0  0  0  0  0
  189.5600  172.6940  139.9790 C   0  0  0  0  0  0  0  0  0  0  0  0
  192.1640  176.4100  147.5770 O   0  0  0  0  0  0  0  0  0  0  0  0
  188.2300  173.2410  138.0830 C   0  0  0  0  0  3  0  0  0  0  0  0
  189.0370  172.3910  138.7610 N   0  0  0  0  0  0  0  0  0  0  0  0
  190.4300  171.6580  140.6110 C   0  0  0  0  0  1  0  0  0  0  0  0
  194.7630  171.8200  142.2580 C   0  0  0  0  0  3  0  0  0  0  0  0
  194.5760  173.6760  144.3390 C   0  0  0  0  0  3  0  0  0  0  0  0
  195.8920  172.5590  142.6360 C   0  0  0  0  0  0  0  0  0  0  0  0
  193.5460  172.0120  142.9140 C   0  0  0  0  0  3  0  0  0  0  0  0
  193.4450  172.9500  143.9540 C   0  0  0  0  0  0  0  0  0  0  0  0
  195.7940  173.4810  143.6830 C   0  0  0  0  0  3  0  0  0  0  0  0
  197.2050  172.3730  141.9450 C   0  0  1  0  0  3  0  0  0  0  0  0
  197.8060  171.0230  142.2920 C   0  0  0  0  0  1  0  0  0  0  0  0
  197.0420  172.4880  140.5020 N   0  0  0  0  0  2  0  0  0  0  0  0
  197.9400  174.3330  139.2220 C   0  0  0  0  0  1  0  0  0  0  0  0
  196.8550  173.8960  140.1820 C   0  0  1  0  0  3  0  0  0  0  0  0
  193.5150  176.1920  142.0070 C   0  0  0  0  0  1  0  0  0  0  0  0
  195.9190  176.4080  141.4230 C   0  0  0  0  0  1  0  0  0  0  0  0
  193.2900  174.5420  139.7460 O   0  0  0  0  0  0  0  0  0  0  0  0
  194.6490  175.7280  141.2290 N   0  0  0  0  0  0  0  0  0  0  0  0
  194.4550  174.7760  140.1670 C   0  0  0  0  0  0  0  0  0  0  0  0
  195.5550  174.0920  139.5550 N   0  0  0  0  0  2  0  0  0  0  0  0
  187.2300  175.6630  136.5490 C   0  0  0  0  0  1  0  0  0  0  0  0
  187.0660  175.3760  137.9320 O   0  0  0  0  0  0  0  0  0  0  0  0
  190.6110  177.5830  146.2270 C   0  0  0  0  0  2  0  0  0  0  0  0
  189.6580  178.2900  148.4160 C   0  0  0  0  0  1  0  0  0  0  0  0
  189.3620  177.5950  147.1000 C   0  0  1  0  0  3  0  0  0  0  0  0
  188.1750  178.2500  146.4020 C   0  0  0  0  0  2  0  0  0  0  0  0
  187.2600  177.2490  145.8690 N   0  0  0  0  0  2  0  0  0  0  0  0
  185.7510  178.3950  147.9290 O   0  0  0  0  0  1  0  0  0  0  0  0
  184.8110  176.4110  146.5140 O   0  0  0  0  0  0  0  0  0  0  0  0
  185.6450  177.6690  146.4060 P   0  0  2  0  0  0  0  0  0  0  0  0
  185.3060  176.7760  143.5010 O   0  0  0  0  0  0  0  0  0  0  0  0
  184.8860  178.8520  145.2380 C   0  0  0  0  0  2  0  0  0  0  0  0
  184.8530  178.2180  143.5410 P   0  0  0  0  0  0  0  0  0  0  0  0
  185.8350  179.3550  144.4260 O   0  0  0  0  0  0  0  0  0  0  0  0
  183.2490  178.6670  142.8260 C   0  0  0  0  0 15  0  0  0  0  0  0
  1 10  1  0  0  0  0
  1 12  1  0  0  0  0
  3  1  2  0  0  0  0
  4  3  1  0  0  0  0
  4 16  1  0  0  0  0
  5 26  1  6  0  0  0
  5  2  1  0  0  0  0
  6 18  2  0  0  0  0
  7 11  1  0  0  0  0
  8  4  2  0  0  0  0
  9 12  1  0  0  0  0
  9  7  2  0  0  0  0
 11 15  2  0  0  0  0
 11  5  1  0  0  0  0
 12 14  2  0  0  0  0
 13  2  1  0  0  0  0
 13  6  1  0  0  0  0
 14 15  1  0  0  0  0
 15 13  1  0  0  0  0
 16  9  1  0  0  0  0
 17 16  2  0  0  0  0
 17 21  1  0  0  0  0
 19  8  1  0  0  0  0
 19 20  2  0  0  0  0
 20 17  1  0  0  0  0
 22 24  2  0  0  0  0
 22 25  1  0  0  0  0
 24 27  1  0  0  0  0
 25 26  2  0  0  0  0
 26 23  1  0  0  0  0
 27 23  2  0  0  0  0
 28 29  1  6  0  0  0
 28 24  1  0  0  0  0
 30 28  1  0  0  0  0
 32 31  1  6  0  0  0
 32 30  1  0  0  0  0
 35 37  2  0  0  0  0
 36 34  1  0  0  0  0
 36 33  1  0  0  0  0
 37 36  1  0  0  0  0
 38 37  1  0  0  0  0
 38 32  1  0  0  0  0
 39 40  1  0  0  0  0
 40  8  1  0  0  0  0
 41  6  1  0  0  0  0
 41 43  1  0  0  0  0
 43 42  1  1  0  0  0
 44 43  1  0  0  0  0
 45 44  1  0  0  0  0
 45 48  1  0  0  0  0
 48 47  2  1  0  0  0
 48 46  1  0  0  0  0
 49 51  2  0  0  0  0
 50 48  1  0  0  0  0
 51 52  1  0  0  0  0
 52 50  1  0  0  0  0
M  END
>  <MODEL>
9

>  <REMARK>
 VINA RESULT:      -6.4      4.292     10.375
  Name = 
  12 active torsions:
  status: ('A' for Active; 'I' for Inactive)
    1  A    between atoms: N_2  and  C_52
    2  A    between atoms: N_2  and  P_53
    3  A    between atoms: C_7  and  N_10
    4  A    between atoms: C_7  and  C_27
    5  A    between atoms: N_10  and  C_22
    6  A    between atoms: C_13  and  P_53
    7  A    between atoms: C_14  and  C_33
    8  A    between atoms: C_17  and  C_39
    9  A    between atoms: C_22  and  N_50
   10  A    between atoms: C_24  and  O_46
   11  A    between atoms: C_30  and  C_39
   12  A    between atoms: C_30  and  C_52
                            x       y       z     vdW  Elec       q    Type
                         _______ _______ _______ _____ _____    ______ ____

>  <TORSDO>
F 12

$$$$
