=
 OpenBabel11042414533D

 32 37  0  0  1  0  0  0  0  0999 V2000
  189.2580  176.1340  143.9250 C   0  0  0  0  0  0  0  0  0  0  0  0
  188.5460  175.2360  143.2990 N   0  0  0  0  0  0  0  0  0  0  0  0
  195.7080  176.3770  142.7650 N   0  0  0  0  0  1  0  0  0  0  0  0
  192.8380  175.7000  145.0680 C   0  0  0  0  0  0  0  0  0  0  0  0
  193.5360  175.3140  146.2110 C   0  0  0  0  0  3  0  0  0  0  0  0
  194.9310  175.2910  146.1840 C   0  0  0  0  0  3  0  0  0  0  0  0
  191.4410  176.4730  142.7710 C   0  0  0  0  0  3  0  0  0  0  0  0
  191.4430  175.7310  145.0760 C   0  0  0  0  0  3  0  0  0  0  0  0
  190.7360  176.1360  143.9330 C   0  0  0  0  0  0  0  0  0  0  0  0
  192.8380  176.4430  142.7530 C   0  0  0  0  0  3  0  0  0  0  0  0
  194.9500  176.0230  143.9190 C   0  0  0  0  0  0  0  0  0  0  0  0
  193.5470  176.0610  143.9000 C   0  0  0  0  0  0  0  0  0  0  0  0
  195.6010  175.6410  145.0530 N   0  0  0  0  0  0  0  0  0  0  0  0
  186.7030  178.9270  144.3560 N   0  0  0  0  0  2  0  0  0  0  0  0
  186.0910  178.2180  145.4720 C   0  0  2  0  0  3  0  0  0  0  0  0
  187.5440  177.9450  143.6570 C   0  0  0  0  0  2  0  0  0  0  0  0
  186.3090  177.5210  147.5840 C   0  0  0  0  0  2  0  0  0  0  0  0
  188.5540  177.2640  144.6110 C   0  0  1  0  0  3  0  0  0  0  0  0
  185.0680  178.9920  146.1490 N   0  0  0  0  0  0  0  0  0  0  0  0
  185.0760  178.4130  147.4920 C   0  0  0  0  0  2  0  0  0  0  0  0
  183.7950  178.6380  145.5470 C   0  0  0  0  0  1  0  0  0  0  0  0
  187.8620  176.7860  145.8990 C   0  0  0  0  0  2  0  0  0  0  0  0
  187.1110  177.9040  146.4460 N   0  0  1  0  0  0  0  0  0  0  0  0
  189.0060  174.0290  142.6730 C   0  0  0  0  0  0  0  0  0  0  0  0
  190.0100  172.0250  139.9570 C   0  0  0  0  0  3  0  0  0  0  0  0
  190.5540  170.7300  139.9930 C   0  0  0  0  0  3  0  0  0  0  0  0
  189.4960  172.8460  143.4750 C   0  0  0  0  0  2  0  0  0  0  0  0
  189.1480  173.9080  141.3850 N   0  0  0  0  0  0  0  0  0  0  0  0
  190.7620  170.0930  141.2350 C   0  0  0  0  0  3  0  0  0  0  0  0
  190.4390  170.7260  142.4030 N   0  0  0  0  0  0  0  0  0  0  0  0
  189.6980  172.6230  141.1730 C   0  0  0  0  0  0  0  0  0  0  0  0
  189.9130  171.9760  142.3530 C   0  0  0  0  0  0  0  0  0  0  0  0
  1  9  1  0  0  0  0
  2  1  2  0  0  0  0
  3 11  1  0  0  0  0
  4  8  1  0  0  0  0
  4  5  2  0  0  0  0
  6  5  1  0  0  0  0
  7  9  1  0  0  0  0
  9  8  2  0  0  0  0
 10  7  2  0  0  0  0
 10 12  1  0  0  0  0
 11 13  1  0  0  0  0
 12 11  2  0  0  0  0
 12  4  1  0  0  0  0
 13  6  2  0  0  0  0
 15 14  1  6  0  0  0
 15 19  1  0  0  0  0
 15 23  1  0  0  0  0
 16 14  1  0  0  0  0
 16 18  1  0  0  0  0
 18  1  1  6  0  0  0
 18 22  1  0  0  0  0
 19 20  1  0  0  0  0
 20 17  1  0  0  0  0
 21 19  1  0  0  0  0
 23 22  1  6  0  0  0
 23 17  1  0  0  0  0
 24  2  1  0  0  0  0
 24 27  1  0  0  0  0
 25 26  2  0  0  0  0
 25 31  1  0  0  0  0
 26 29  1  0  0  0  0
 28 24  2  0  0  0  0
 29 30  2  0  0  0  0
 31 28  1  0  0  0  0
 31 32  2  0  0  0  0
 32 30  1  0  0  0  0
 32 27  1  0  0  0  0
M  END
>  <MODEL>
1

>  <REMARK>
 VINA RESULT:      -7.9      0.000      0.000
  Name = 
  3 active torsions:
  status: ('A' for Active; 'I' for Inactive)
    1  A    between atoms: C_5  and  N_32
    2  A    between atoms: C_12  and  C_16
    3  A    between atoms: C_16  and  C_17
                            x       y       z     vdW  Elec       q    Type
                         _______ _______ _______ _____ _____    ______ ____

>  <TORSDO>
F 3

$$$$
=
 OpenBabel11042414533D

 32 37  0  0  1  0  0  0  0  0999 V2000
  189.7270  175.4070  144.9600 C   0  0  0  0  0  0  0  0  0  0  0  0
  190.7190  176.0300  145.5380 N   0  0  0  0  0  0  0  0  0  0  0  0
  190.7600  169.7090  141.8850 N   0  0  0  0  0  1  0  0  0  0  0  0
  190.1610  173.4000  141.7830 C   0  0  0  0  0  0  0  0  0  0  0  0
  190.1810  173.6070  140.4040 C   0  0  0  0  0  3  0  0  0  0  0  0
  190.3910  172.5210  139.5540 C   0  0  0  0  0  3  0  0  0  0  0  0
  190.1230  172.9810  144.5490 C   0  0  0  0  0  3  0  0  0  0  0  0
  189.9510  174.4740  142.6500 C   0  0  0  0  0  3  0  0  0  0  0  0
  189.9110  174.2680  144.0370 C   0  0  0  0  0  0  0  0  0  0  0  0
  190.3360  171.9010  143.6890 C   0  0  0  0  0  3  0  0  0  0  0  0
  190.5610  171.0370  141.4080 C   0  0  0  0  0  0  0  0  0  0  0  0
  190.3530  172.1000  142.3020 C   0  0  0  0  0  0  0  0  0  0  0  0
  190.5740  171.2740  140.0680 N   0  0  0  0  0  0  0  0  0  0  0  0
  186.8510  176.5740  147.1710 N   0  0  0  0  0  2  0  0  0  0  0  0
  186.7410  177.8090  146.4060 C   0  0  2  0  0  3  0  0  0  0  0  0
  188.1560  175.9910  146.8260 C   0  0  0  0  0  2  0  0  0  0  0  0
  186.1830  178.7540  144.4600 C   0  0  0  0  0  2  0  0  0  0  0  0
  188.3250  175.8130  145.2990 C   0  0  1  0  0  3  0  0  0  0  0  0
  185.5970  178.6150  146.7830 N   0  0  0  0  0  0  0  0  0  0  0  0
  185.3360  179.3790  145.5630 C   0  0  0  0  0  2  0  0  0  0  0  0
  186.0530  179.5640  147.7830 C   0  0  0  0  0  1  0  0  0  0  0  0
  187.9190  177.0900  144.5440 C   0  0  0  0  0  2  0  0  0  0  0  0
  186.5980  177.4830  145.0050 N   0  0  1  0  0  0  0  0  0  0  0  0
  192.1230  175.8740  145.2820 C   0  0  0  0  0  0  0  0  0  0  0  0
  195.3070  174.4350  145.7240 C   0  0  0  0  0  3  0  0  0  0  0  0
  196.4710  174.6660  144.9720 C   0  0  0  0  0  3  0  0  0  0  0  0
  192.8080  176.5580  144.1230 C   0  0  0  0  0  2  0  0  0  0  0  0
  192.8770  175.0480  145.9480 N   0  0  0  0  0  0  0  0  0  0  0  0
  196.4350  175.5650  143.8840 C   0  0  0  0  0  3  0  0  0  0  0  0
  195.2770  176.2120  143.5570 N   0  0  0  0  0  0  0  0  0  0  0  0
  194.1560  175.1200  145.3490 C   0  0  0  0  0  0  0  0  0  0  0  0
  194.1600  175.9810  144.2930 C   0  0  0  0  0  0  0  0  0  0  0  0
  1  2  2  0  0  0  0
  4 12  2  0  0  0  0
  4  8  1  0  0  0  0
  5  4  1  0  0  0  0
  6 13  1  0  0  0  0
  6  5  2  0  0  0  0
  8  9  2  0  0  0  0
  9  7  1  0  0  0  0
  9  1  1  0  0  0  0
 10  7  2  0  0  0  0
 11  3  1  0  0  0  0
 11 12  1  0  0  0  0
 12 10  1  0  0  0  0
 13 11  2  0  0  0  0
 15 19  1  0  0  0  0
 15 14  1  1  0  0  0
 16 14  1  0  0  0  0
 17 20  1  0  0  0  0
 18  1  1  1  0  0  0
 18 16  1  0  0  0  0
 19 21  1  0  0  0  0
 20 19  1  0  0  0  0
 22 23  1  0  0  0  0
 22 18  1  0  0  0  0
 23 17  1  6  0  0  0
 23 15  1  0  0  0  0
 24  2  1  0  0  0  0
 24 28  2  0  0  0  0
 26 25  2  0  0  0  0
 27 32  1  0  0  0  0
 27 24  1  0  0  0  0
 29 26  1  0  0  0  0
 30 29  2  0  0  0  0
 30 32  1  0  0  0  0
 31 25  1  0  0  0  0
 31 28  1  0  0  0  0
 32 31  2  0  0  0  0
M  END
>  <MODEL>
2

>  <REMARK>
 VINA RESULT:      -7.9      1.451      5.377
  Name = 
  3 active torsions:
  status: ('A' for Active; 'I' for Inactive)
    1  A    between atoms: C_5  and  N_32
    2  A    between atoms: C_12  and  C_16
    3  A    between atoms: C_16  and  C_17
                            x       y       z     vdW  Elec       q    Type
                         _______ _______ _______ _____ _____    ______ ____

>  <TORSDO>
F 3

$$$$
=
 OpenBabel11042414533D

 32 37  0  0  1  0  0  0  0  0999 V2000
  188.8950  176.1770  143.2970 C   0  0  0  0  0  0  0  0  0  0  0  0
  188.3340  175.2790  142.5320 N   0  0  0  0  0  0  0  0  0  0  0  0
  194.7490  176.0520  146.2500 N   0  0  0  0  0  1  0  0  0  0  0  0
  192.6740  176.1430  143.1380 C   0  0  0  0  0  0  0  0  0  0  0  0
  193.6860  176.1630  142.1780 C   0  0  0  0  0  3  0  0  0  0  0  0
  195.0180  176.1460  142.5900 C   0  0  0  0  0  3  0  0  0  0  0  0
  190.6480  176.1060  145.0670 C   0  0  0  0  0  3  0  0  0  0  0  0
  191.3350  176.1600  142.7450 C   0  0  0  0  0  3  0  0  0  0  0  0
  190.3140  176.1220  143.7060 C   0  0  0  0  0  0  0  0  0  0  0  0
  191.9870  176.0920  145.4680 C   0  0  0  0  0  3  0  0  0  0  0  0
  194.3630  176.0890  144.8780 C   0  0  0  0  0  0  0  0  0  0  0  0
  193.0080  176.1060  144.5100 C   0  0  0  0  0  0  0  0  0  0  0  0
  195.3260  176.1090  143.9150 N   0  0  0  0  0  0  0  0  0  0  0  0
  186.4110  179.0450  142.9430 N   0  0  0  0  0  2  0  0  0  0  0  0
  185.5270  178.4220  143.9190 C   0  0  2  0  0  3  0  0  0  0  0  0
  187.3590  178.0020  142.5230 C   0  0  0  0  0  2  0  0  0  0  0  0
  185.2120  177.8580  146.0580 C   0  0  0  0  0  2  0  0  0  0  0  0
  188.0880  177.3630  143.7290 C   0  0  1  0  0  3  0  0  0  0  0  0
  184.4010  179.2590  144.2860 N   0  0  0  0  0  0  0  0  0  0  0  0
  184.0690  178.7680  145.6230 C   0  0  0  0  0  2  0  0  0  0  0  0
  183.2960  178.8940  143.4180 C   0  0  0  0  0  1  0  0  0  0  0  0
  187.0940  176.9840  144.8390 C   0  0  0  0  0  2  0  0  0  0  0  0
  186.2750  178.1500  145.1250 N   0  0  1  0  0  0  0  0  0  0  0  0
  188.8860  174.0280  142.0950 C   0  0  0  0  0  0  0  0  0  0  0  0
  190.3160  171.8120  139.7610 C   0  0  0  0  0  3  0  0  0  0  0  0
  190.8400  170.5300  139.9960 C   0  0  0  0  0  3  0  0  0  0  0  0
  189.2290  172.9200  143.0630 C   0  0  0  0  0  2  0  0  0  0  0  0
  189.2390  173.8010  140.8630 N   0  0  0  0  0  0  0  0  0  0  0  0
  190.8350  170.0010  141.3040 C   0  0  0  0  0  3  0  0  0  0  0  0
  190.3260  170.7260  142.3440 N   0  0  0  0  0  0  0  0  0  0  0  0
  189.8090  172.5070  140.8540 C   0  0  0  0  0  0  0  0  0  0  0  0
  189.8210  171.9630  142.1030 C   0  0  0  0  0  0  0  0  0  0  0  0
  1  9  1  0  0  0  0
  2  1  2  0  0  0  0
  4 12  1  0  0  0  0
  5  6  2  0  0  0  0
  5  4  1  0  0  0  0
  6 13  1  0  0  0  0
  7 10  1  0  0  0  0
  8  4  2  0  0  0  0
  8  9  1  0  0  0  0
  9  7  2  0  0  0  0
 11  3  1  0  0  0  0
 12 11  1  0  0  0  0
 12 10  2  0  0  0  0
 13 11  2  0  0  0  0
 15 14  1  6  0  0  0
 15 19  1  0  0  0  0
 15 23  1  0  0  0  0
 16 14  1  0  0  0  0
 16 18  1  0  0  0  0
 18  1  1  6  0  0  0
 18 22  1  0  0  0  0
 19 20  1  0  0  0  0
 20 17  1  0  0  0  0
 21 19  1  0  0  0  0
 23 22  1  6  0  0  0
 23 17  1  0  0  0  0
 24  2  1  0  0  0  0
 24 27  1  0  0  0  0
 25 26  2  0  0  0  0
 25 31  1  0  0  0  0
 26 29  1  0  0  0  0
 28 24  2  0  0  0  0
 29 30  2  0  0  0  0
 31 28  1  0  0  0  0
 31 32  2  0  0  0  0
 32 30  1  0  0  0  0
 32 27  1  0  0  0  0
M  END
>  <MODEL>
3

>  <REMARK>
 VINA RESULT:      -7.6      1.019      1.790
  Name = 
  3 active torsions:
  status: ('A' for Active; 'I' for Inactive)
    1  A    between atoms: C_5  and  N_32
    2  A    between atoms: C_12  and  C_16
    3  A    between atoms: C_16  and  C_17
                            x       y       z     vdW  Elec       q    Type
                         _______ _______ _______ _____ _____    ______ ____

>  <TORSDO>
F 3

$$$$
=
 OpenBabel11042414533D

 32 37  0  0  1  0  0  0  0  0999 V2000
  189.7160  175.5040  144.8440 C   0  0  0  0  0  0  0  0  0  0  0  0
  190.7040  175.9370  145.5790 N   0  0  0  0  0  0  0  0  0  0  0  0
  190.1730  172.6360  138.9650 N   0  0  0  0  0  1  0  0  0  0  0  0
  190.3180  172.4470  142.6980 C   0  0  0  0  0  0  0  0  0  0  0  0
  190.6080  171.0930  142.8580 C   0  0  0  0  0  3  0  0  0  0  0  0
  190.7470  170.2870  141.7270 C   0  0  0  0  0  3  0  0  0  0  0  0
  189.7340  175.1640  142.3760 C   0  0  0  0  0  3  0  0  0  0  0  0
  190.1770  173.2700  143.8170 C   0  0  0  0  0  3  0  0  0  0  0  0
  189.9030  174.6370  143.6630 C   0  0  0  0  0  0  0  0  0  0  0  0
  189.8710  174.3470  141.2500 C   0  0  0  0  0  3  0  0  0  0  0  0
  190.3160  172.1380  140.2930 C   0  0  0  0  0  0  0  0  0  0  0  0
  190.1680  172.9860  141.4010 C   0  0  0  0  0  0  0  0  0  0  0  0
  190.6000  170.8200  140.4840 N   0  0  0  0  0  0  0  0  0  0  0  0
  186.8900  176.4960  147.2000 N   0  0  0  0  0  2  0  0  0  0  0  0
  186.6900  177.7370  146.4660 C   0  0  2  0  0  3  0  0  0  0  0  0
  188.2040  175.9810  146.7880 C   0  0  0  0  0  2  0  0  0  0  0  0
  186.0020  178.6890  144.5640 C   0  0  0  0  0  2  0  0  0  0  0  0
  188.3130  175.8370  145.2520 C   0  0  1  0  0  3  0  0  0  0  0  0
  185.5270  178.4820  146.9070 N   0  0  0  0  0  0  0  0  0  0  0  0
  185.1770  179.2530  145.7160 C   0  0  0  0  0  2  0  0  0  0  0  0
  185.9830  179.4340  147.9050 C   0  0  0  0  0  1  0  0  0  0  0  0
  187.8160  177.1070  144.5400 C   0  0  0  0  0  2  0  0  0  0  0  0
  186.4990  177.4300  145.0660 N   0  0  1  0  0  0  0  0  0  0  0  0
  192.1110  175.8240  145.3160 C   0  0  0  0  0  0  0  0  0  0  0  0
  195.3120  174.3920  145.6370 C   0  0  0  0  0  3  0  0  0  0  0  0
  196.4760  174.7070  144.9150 C   0  0  0  0  0  3  0  0  0  0  0  0
  192.7910  176.6220  144.2290 C   0  0  0  0  0  2  0  0  0  0  0  0
  192.8740  174.9500  145.9070 N   0  0  0  0  0  0  0  0  0  0  0  0
  196.4310  175.7020  143.9150 C   0  0  0  0  0  3  0  0  0  0  0  0
  195.2650  176.3620  143.6440 N   0  0  0  0  0  0  0  0  0  0  0  0
  194.1530  175.0940  145.3220 C   0  0  0  0  0  0  0  0  0  0  0  0
  194.1490  176.0490  144.3500 C   0  0  0  0  0  0  0  0  0  0  0  0
  1  2  2  0  0  0  0
  3 11  1  0  0  0  0
  4  5  1  0  0  0  0
  4  8  1  0  0  0  0
  6  5  2  0  0  0  0
  7  9  1  0  0  0  0
  9  8  2  0  0  0  0
  9  1  1  0  0  0  0
 10 12  1  0  0  0  0
 10  7  2  0  0  0  0
 11 13  2  0  0  0  0
 11 12  1  0  0  0  0
 12  4  2  0  0  0  0
 13  6  1  0  0  0  0
 15 19  1  0  0  0  0
 15 14  1  1  0  0  0
 16 14  1  0  0  0  0
 17 23  1  0  0  0  0
 17 20  1  0  0  0  0
 18  1  1  1  0  0  0
 18 16  1  0  0  0  0
 19 21  1  0  0  0  0
 20 19  1  0  0  0  0
 22 18  1  0  0  0  0
 23 22  1  6  0  0  0
 23 15  1  0  0  0  0
 24  2  1  0  0  0  0
 24 28  2  0  0  0  0
 26 25  2  0  0  0  0
 27 32  1  0  0  0  0
 27 24  1  0  0  0  0
 29 26  1  0  0  0  0
 30 29  2  0  0  0  0
 30 32  1  0  0  0  0
 31 25  1  0  0  0  0
 31 28  1  0  0  0  0
 32 31  2  0  0  0  0
M  END
>  <MODEL>
4

>  <REMARK>
 VINA RESULT:      -7.5      1.497      5.203
  Name = 
  3 active torsions:
  status: ('A' for Active; 'I' for Inactive)
    1  A    between atoms: C_5  and  N_32
    2  A    between atoms: C_12  and  C_16
    3  A    between atoms: C_16  and  C_17
                            x       y       z     vdW  Elec       q    Type
                         _______ _______ _______ _____ _____    ______ ____

>  <TORSDO>
F 3

$$$$
=
 OpenBabel11042414533D

 32 37  0  0  1  0  0  0  0  0999 V2000
  188.4410  174.2980  142.2470 C   0  0  0  0  0  0  0  0  0  0  0  0
  187.2220  174.7550  142.1370 N   0  0  0  0  0  0  0  0  0  0  0  0
  193.4900  177.1040  145.3510 N   0  0  0  0  0  1  0  0  0  0  0  0
  190.2880  175.1720  145.4310 C   0  0  0  0  0  0  0  0  0  0  0  0
  190.1580  174.9820  146.8070 C   0  0  0  0  0  3  0  0  0  0  0  0
  191.1320  175.4990  147.6610 C   0  0  0  0  0  3  0  0  0  0  0  0
  190.5520  175.5520  142.6720 C   0  0  0  0  0  3  0  0  0  0  0  0
  189.3230  174.6640  144.5600 C   0  0  0  0  0  3  0  0  0  0  0  0
  189.4390  174.8670  143.1770 C   0  0  0  0  0  0  0  0  0  0  0  0
  191.5240  176.0620  143.5370 C   0  0  0  0  0  3  0  0  0  0  0  0
  192.3530  176.3830  145.8190 C   0  0  0  0  0  0  0  0  0  0  0  0
  191.3980  175.8810  144.9210 C   0  0  0  0  0  0  0  0  0  0  0  0
  192.1960  176.1800  147.1560 N   0  0  0  0  0  0  0  0  0  0  0  0
  190.0430  172.3600  139.3850 N   0  0  0  0  0  2  0  0  0  0  0  0
  190.9650  171.7190  140.3120 C   0  0  2  0  0  3  0  0  0  0  0  0
  189.4720  173.5100  140.1010 C   0  0  0  0  0  2  0  0  0  0  0  0
  191.2120  170.2650  141.9920 C   0  0  0  0  0  2  0  0  0  0  0  0
  188.8350  173.0940  141.4490 C   0  0  1  0  0  3  0  0  0  0  0  0
  191.7690  170.6830  139.6950 N   0  0  0  0  0  0  0  0  0  0  0  0
  192.0920  169.8180  140.8290 C   0  0  0  0  0  2  0  0  0  0  0  0
  193.0130  171.3010  139.2710 C   0  0  0  0  0  1  0  0  0  0  0  0
  189.7810  172.1830  142.2500 C   0  0  0  0  0  2  0  0  0  0  0  0
  190.2080  171.1010  141.3770 N   0  0  1  0  0  0  0  0  0  0  0  0
  186.6730  175.9440  142.7240 C   0  0  0  0  0  0  0  0  0  0  0  0
  185.0700  177.8140  145.2420 C   0  0  0  0  0  3  0  0  0  0  0  0
  184.8810  179.2050  145.2970 C   0  0  0  0  0  3  0  0  0  0  0  0
  186.8900  177.3110  142.1200 C   0  0  0  0  0  2  0  0  0  0  0  0
  186.0560  175.9490  143.8710 N   0  0  0  0  0  0  0  0  0  0  0  0
  185.3750  180.0200  144.2570 C   0  0  0  0  0  3  0  0  0  0  0  0
  186.0360  179.4670  143.1960 N   0  0  0  0  0  0  0  0  0  0  0  0
  185.7470  177.3020  144.1400 C   0  0  0  0  0  0  0  0  0  0  0  0
  186.2100  178.1210  143.1540 C   0  0  0  0  0  0  0  0  0  0  0  0
  1  9  1  0  0  0  0
  2  1  2  0  0  0  0
  2 24  1  0  0  0  0
  3 11  1  0  0  0  0
  4  5  2  0  0  0  0
  5  6  1  0  0  0  0
  7  9  1  0  0  0  0
  7 10  2  0  0  0  0
  8  4  1  0  0  0  0
  9  8  2  0  0  0  0
 10 12  1  0  0  0  0
 11 13  1  0  0  0  0
 12  4  1  0  0  0  0
 12 11  2  0  0  0  0
 13  6  2  0  0  0  0
 14 16  1  0  0  0  0
 15 14  1  6  0  0  0
 15 23  1  0  0  0  0
 16 18  1  0  0  0  0
 18  1  1  1  0  0  0
 18 22  1  0  0  0  0
 19 15  1  0  0  0  0
 19 20  1  0  0  0  0
 20 17  1  0  0  0  0
 21 19  1  0  0  0  0
 23 17  1  1  0  0  0
 23 22  1  0  0  0  0
 24 28  2  0  0  0  0
 25 26  1  0  0  0  0
 27 24  1  0  0  0  0
 27 32  1  0  0  0  0
 28 31  1  0  0  0  0
 29 26  2  0  0  0  0
 30 29  1  0  0  0  0
 31 25  2  0  0  0  0
 32 30  2  0  0  0  0
 32 31  1  0  0  0  0
M  END
>  <MODEL>
5

>  <REMARK>
 VINA RESULT:      -7.4      1.971      7.236
  Name = 
  3 active torsions:
  status: ('A' for Active; 'I' for Inactive)
    1  A    between atoms: C_5  and  N_32
    2  A    between atoms: C_12  and  C_16
    3  A    between atoms: C_16  and  C_17
                            x       y       z     vdW  Elec       q    Type
                         _______ _______ _______ _____ _____    ______ ____

>  <TORSDO>
F 3

$$$$
=
 OpenBabel11042414533D

 32 37  0  0  1  0  0  0  0  0999 V2000
  188.5990  176.1080  142.0610 C   0  0  0  0  0  0  0  0  0  0  0  0
  188.5270  175.1210  141.2090 N   0  0  0  0  0  0  0  0  0  0  0  0
  193.9130  176.9040  145.8200 N   0  0  0  0  0  1  0  0  0  0  0  0
  190.3870  175.7360  145.3740 C   0  0  0  0  0  0  0  0  0  0  0  0
  190.1380  175.2350  146.6510 C   0  0  0  0  0  3  0  0  0  0  0  0
  191.1430  175.3000  147.6170 C   0  0  0  0  0  3  0  0  0  0  0  0
  190.8900  176.7390  142.8110 C   0  0  0  0  0  3  0  0  0  0  0  0
  189.3940  175.6800  144.3940 C   0  0  0  0  0  3  0  0  0  0  0  0
  189.6330  176.1990  143.1120 C   0  0  0  0  0  0  0  0  0  0  0  0
  191.8900  176.7960  143.7850 C   0  0  0  0  0  3  0  0  0  0  0  0
  192.6270  176.3450  146.0760 C   0  0  0  0  0  0  0  0  0  0  0  0
  191.6470  176.3000  145.0730 C   0  0  0  0  0  0  0  0  0  0  0  0
  192.3510  175.8470  147.3140 N   0  0  0  0  0  0  0  0  0  0  0  0
  185.9570  178.2920  140.3960 N   0  0  0  0  0  2  0  0  0  0  0  0
  184.9910  177.9390  141.4270 C   0  0  2  0  0  3  0  0  0  0  0  0
  187.0470  177.3100  140.5000 C   0  0  0  0  0  2  0  0  0  0  0  0
  184.4000  178.1310  143.5740 C   0  0  0  0  0  2  0  0  0  0  0  0
  187.6340  177.2470  141.9300 C   0  0  1  0  0  3  0  0  0  0  0  0
  183.7530  178.6870  141.3310 N   0  0  0  0  0  0  0  0  0  0  0  0
  183.2620  178.6610  142.7080 C   0  0  0  0  0  2  0  0  0  0  0  0
  182.8310  177.8890  140.5410 C   0  0  0  0  0  1  0  0  0  0  0  0
  186.5170  177.1520  142.9830 C   0  0  0  0  0  2  0  0  0  0  0  0
  185.5640  178.2190  142.7240 N   0  0  1  0  0  0  0  0  0  0  0  0
  189.2750  173.8960  141.2170 C   0  0  0  0  0  0  0  0  0  0  0  0
  191.9900  171.8100  140.3920 C   0  0  0  0  0  3  0  0  0  0  0  0
  192.2650  170.5190  140.8740 C   0  0  0  0  0  3  0  0  0  0  0  0
  188.9160  172.7420  142.1220 C   0  0  0  0  0  2  0  0  0  0  0  0
  190.3770  173.7350  140.5420 N   0  0  0  0  0  0  0  0  0  0  0  0
  191.3970  169.9240  141.8150 C   0  0  0  0  0  3  0  0  0  0  0  0
  190.2920  170.5920  142.2600 N   0  0  0  0  0  0  0  0  0  0  0  0
  190.8520  172.4450  140.8770 C   0  0  0  0  0  0  0  0  0  0  0  0
  190.0370  171.8380  141.7840 C   0  0  0  0  0  0  0  0  0  0  0  0
  1  9  1  0  0  0  0
  2 24  1  0  0  0  0
  2  1  2  0  0  0  0
  3 11  1  0  0  0  0
  4  5  2  0  0  0  0
  5  6  1  0  0  0  0
  7  9  1  0  0  0  0
  7 10  2  0  0  0  0
  8  4  1  0  0  0  0
  9  8  2  0  0  0  0
 10 12  1  0  0  0  0
 11 13  1  0  0  0  0
 12  4  1  0  0  0  0
 12 11  2  0  0  0  0
 13  6  2  0  0  0  0
 14 16  1  0  0  0  0
 15 14  1  6  0  0  0
 15 23  1  0  0  0  0
 16 18  1  0  0  0  0
 18  1  1  6  0  0  0
 18 22  1  0  0  0  0
 19 15  1  0  0  0  0
 19 20  1  0  0  0  0
 20 17  1  0  0  0  0
 21 19  1  0  0  0  0
 23 22  1  1  0  0  0
 23 17  1  0  0  0  0
 24 27  1  0  0  0  0
 25 26  2  0  0  0  0
 25 31  1  0  0  0  0
 26 29  1  0  0  0  0
 28 31  1  0  0  0  0
 28 24  2  0  0  0  0
 29 30  2  0  0  0  0
 31 32  2  0  0  0  0
 32 27  1  0  0  0  0
 32 30  1  0  0  0  0
M  END
>  <MODEL>
6

>  <REMARK>
 VINA RESULT:      -7.4      2.264      3.011
  Name = 
  3 active torsions:
  status: ('A' for Active; 'I' for Inactive)
    1  A    between atoms: C_5  and  N_32
    2  A    between atoms: C_12  and  C_16
    3  A    between atoms: C_16  and  C_17
                            x       y       z     vdW  Elec       q    Type
                         _______ _______ _______ _____ _____    ______ ____

>  <TORSDO>
F 3

$$$$
=
 OpenBabel11042414533D

 32 37  0  0  1  0  0  0  0  0999 V2000
  191.7580  176.3070  144.9680 C   0  0  0  0  0  0  0  0  0  0  0  0
  190.9880  177.2260  145.4860 N   0  0  0  0  0  0  0  0  0  0  0  0
  190.1180  170.6290  142.1280 N   0  0  0  0  0  1  0  0  0  0  0  0
  190.1190  174.3700  142.1630 C   0  0  0  0  0  0  0  0  0  0  0  0
  189.4290  174.6190  140.9770 C   0  0  0  0  0  3  0  0  0  0  0  0
  188.9870  173.5440  140.2050 C   0  0  0  0  0  3  0  0  0  0  0  0
  191.5040  173.8650  144.5400 C   0  0  0  0  0  3  0  0  0  0  0  0
  190.5680  175.4320  142.9480 C   0  0  0  0  0  3  0  0  0  0  0  0
  191.2470  175.1860  144.1520 C   0  0  0  0  0  0  0  0  0  0  0  0
  191.0590  172.7960  143.7580 C   0  0  0  0  0  3  0  0  0  0  0  0
  189.8970  171.9880  141.7600 C   0  0  0  0  0  0  0  0  0  0  0  0
  190.3610  173.0380  142.5680 C   0  0  0  0  0  0  0  0  0  0  0  0
  189.2260  172.2670  140.6080 N   0  0  0  0  0  0  0  0  0  0  0  0
  195.2410  175.2940  146.1330 N   0  0  0  0  0  2  0  0  0  0  0  0
  195.6830  175.1580  144.7520 C   0  0  2  0  0  3  0  0  0  0  0  0
  193.7720  175.3240  146.0950 C   0  0  0  0  0  2  0  0  0  0  0  0
  196.1700  176.2040  142.8380 C   0  0  0  0  0  2  0  0  0  0  0  0
  193.2410  176.4240  145.1450 C   0  0  1  0  0  3  0  0  0  0  0  0
  197.1050  174.9080  144.6280 N   0  0  0  0  0  0  0  0  0  0  0  0
  197.4000  175.4270  143.2930 C   0  0  0  0  0  2  0  0  0  0  0  0
  197.2830  173.4680  144.5670 C   0  0  0  0  0  1  0  0  0  0  0  0
  193.9660  176.3810  143.7880 C   0  0  0  0  0  2  0  0  0  0  0  0
  195.3970  176.3860  144.0440 N   0  0  1  0  0  0  0  0  0  0  0  0
  189.5530  177.2510  145.5260 C   0  0  0  0  0  0  0  0  0  0  0  0
  186.3940  176.8110  147.0190 C   0  0  0  0  0  3  0  0  0  0  0  0
  185.1380  177.1780  146.5070 C   0  0  0  0  0  3  0  0  0  0  0  0
  188.7310  177.8980  144.4370 C   0  0  0  0  0  2  0  0  0  0  0  0
  188.8650  176.8300  146.5480 N   0  0  0  0  0  0  0  0  0  0  0  0
  185.0530  177.8130  145.2500 C   0  0  0  0  0  3  0  0  0  0  0  0
  186.1830  178.0750  144.5270 N   0  0  0  0  0  0  0  0  0  0  0  0
  187.5110  177.0990  146.2420 C   0  0  0  0  0  0  0  0  0  0  0  0
  187.3900  177.7140  145.0320 C   0  0  0  0  0  0  0  0  0  0  0  0
  1  2  2  0  0  0  0
  2 24  1  0  0  0  0
  4 12  2  0  0  0  0
  4  8  1  0  0  0  0
  5  4  1  0  0  0  0
  6 13  1  0  0  0  0
  6  5  2  0  0  0  0
  8  9  2  0  0  0  0
  9  7  1  0  0  0  0
  9  1  1  0  0  0  0
 10  7  2  0  0  0  0
 11  3  1  0  0  0  0
 11 12  1  0  0  0  0
 12 10  1  0  0  0  0
 13 11  2  0  0  0  0
 15 14  1  1  0  0  0
 16 14  1  0  0  0  0
 17 20  1  0  0  0  0
 18  1  1  6  0  0  0
 18 16  1  0  0  0  0
 19 15  1  0  0  0  0
 20 19  1  0  0  0  0
 21 19  1  0  0  0  0
 22 23  1  0  0  0  0
 22 18  1  0  0  0  0
 23 17  1  6  0  0  0
 23 15  1  0  0  0  0
 24 28  2  0  0  0  0
 26 25  1  0  0  0  0
 27 32  1  0  0  0  0
 27 24  1  0  0  0  0
 29 26  2  0  0  0  0
 30 32  2  0  0  0  0
 30 29  1  0  0  0  0
 31 28  1  0  0  0  0
 31 25  2  0  0  0  0
 32 31  1  0  0  0  0
M  END
>  <MODEL>
7

>  <REMARK>
 VINA RESULT:      -7.3      1.590      7.938
  Name = 
  3 active torsions:
  status: ('A' for Active; 'I' for Inactive)
    1  A    between atoms: C_5  and  N_32
    2  A    between atoms: C_12  and  C_16
    3  A    between atoms: C_16  and  C_17
                            x       y       z     vdW  Elec       q    Type
                         _______ _______ _______ _____ _____    ______ ____

>  <TORSDO>
F 3

$$$$
=
 OpenBabel11042414533D

 32 37  0  0  1  0  0  0  0  0999 V2000
  189.8650  174.4850  141.5740 C   0  0  0  0  0  0  0  0  0  0  0  0
  188.6610  174.8220  141.1990 N   0  0  0  0  0  0  0  0  0  0  0  0
  193.5590  176.7920  146.4760 N   0  0  0  0  0  1  0  0  0  0  0  0
  190.4490  175.1050  145.2600 C   0  0  0  0  0  0  0  0  0  0  0  0
  189.8090  174.8780  146.4780 C   0  0  0  0  0  3  0  0  0  0  0  0
  190.4250  175.2900  147.6600 C   0  0  0  0  0  3  0  0  0  0  0  0
  191.7370  175.5600  142.8180 C   0  0  0  0  0  3  0  0  0  0  0  0
  189.8480  174.7020  144.0670 C   0  0  0  0  0  3  0  0  0  0  0  0
  190.4790  174.9440  142.8370 C   0  0  0  0  0  0  0  0  0  0  0  0
  192.3470  175.9650  144.0090 C   0  0  0  0  0  3  0  0  0  0  0  0
  192.2900  176.1430  146.4500 C   0  0  0  0  0  0  0  0  0  0  0  0
  191.7080  175.7460  145.2360 C   0  0  0  0  0  0  0  0  0  0  0  0
  191.6370  175.9060  147.6220 N   0  0  0  0  0  0  0  0  0  0  0  0
  191.0060  171.0990  140.2490 N   0  0  0  0  0  2  0  0  0  0  0  0
  190.4640  171.4120  138.9340 C   0  0  2  0  0  3  0  0  0  0  0  0
  190.4110  172.0690  141.1810 C   0  0  0  0  0  2  0  0  0  0  0  0
  190.6430  172.6640  137.0920 C   0  0  0  0  0  2  0  0  0  0  0  0
  190.6450  173.5280  140.7240 C   0  0  1  0  0  3  0  0  0  0  0  0
  190.7930  170.4200  137.9290 N   0  0  0  0  0  0  0  0  0  0  0  0
  190.7320  171.1950  136.6910 C   0  0  0  0  0  2  0  0  0  0  0  0
  189.6930  169.4730  137.8860 C   0  0  0  0  0  1  0  0  0  0  0  0
  190.3040  173.7040  139.2350 C   0  0  0  0  0  2  0  0  0  0  0  0
  191.0080  172.6750  138.4890 N   0  0  1  0  0  0  0  0  0  0  0  0
  187.7920  175.7930  141.8010 C   0  0  0  0  0  0  0  0  0  0  0  0
  185.3880  176.9250  144.1120 C   0  0  0  0  0  3  0  0  0  0  0  0
  184.9360  178.2400  144.3150 C   0  0  0  0  0  3  0  0  0  0  0  0
  187.8710  177.2620  141.4600 C   0  0  0  0  0  2  0  0  0  0  0  0
  186.9620  175.5020  142.7620 N   0  0  0  0  0  0  0  0  0  0  0  0
  185.4740  179.2910  143.5420 C   0  0  0  0  0  3  0  0  0  0  0  0
  186.4290  179.0400  142.5970 N   0  0  0  0  0  0  0  0  0  0  0  0
  186.3600  176.7240  143.1380 C   0  0  0  0  0  0  0  0  0  0  0  0
  186.8550  177.7650  142.4100 C   0  0  0  0  0  0  0  0  0  0  0  0
  1  9  1  0  0  0  0
  2  1  2  0  0  0  0
  2 24  1  0  0  0  0
  4  5  2  0  0  0  0
  5  6  1  0  0  0  0
  7  9  1  0  0  0  0
  7 10  2  0  0  0  0
  8  4  1  0  0  0  0
  9  8  2  0  0  0  0
 10 12  1  0  0  0  0
 11  3  1  0  0  0  0
 11 13  1  0  0  0  0
 12  4  1  0  0  0  0
 12 11  2  0  0  0  0
 13  6  2  0  0  0  0
 14 16  1  0  0  0  0
 15 14  1  1  0  0  0
 18 16  1  0  0  0  0
 18  1  1  1  0  0  0
 19 15  1  0  0  0  0
 20 17  1  0  0  0  0
 20 19  1  0  0  0  0
 21 19  1  0  0  0  0
 22 18  1  0  0  0  0
 23 17  1  6  0  0  0
 23 15  1  0  0  0  0
 23 22  1  0  0  0  0
 24 28  2  0  0  0  0
 25 26  1  0  0  0  0
 27 24  1  0  0  0  0
 27 32  1  0  0  0  0
 28 31  1  0  0  0  0
 29 26  2  0  0  0  0
 30 29  1  0  0  0  0
 31 25  2  0  0  0  0
 32 30  2  0  0  0  0
 32 31  1  0  0  0  0
M  END
>  <MODEL>
8

>  <REMARK>
 VINA RESULT:      -7.1      2.271      7.440
  Name = 
  3 active torsions:
  status: ('A' for Active; 'I' for Inactive)
    1  A    between atoms: C_5  and  N_32
    2  A    between atoms: C_12  and  C_16
    3  A    between atoms: C_16  and  C_17
                            x       y       z     vdW  Elec       q    Type
                         _______ _______ _______ _____ _____    ______ ____

>  <TORSDO>
F 3

$$$$
=
 OpenBabel11042414533D

 32 37  0  0  1  0  0  0  0  0999 V2000
  190.0030  175.3340  143.7590 C   0  0  0  0  0  0  0  0  0  0  0  0
  189.3260  174.5640  142.9500 N   0  0  0  0  0  0  0  0  0  0  0  0
  196.0670  174.1780  145.9700 N   0  0  0  0  0  1  0  0  0  0  0  0
  193.7590  175.5740  143.3780 C   0  0  0  0  0  0  0  0  0  0  0  0
  194.6930  176.0840  142.4770 C   0  0  0  0  0  3  0  0  0  0  0  0
  196.0530  175.9490  142.7550 C   0  0  0  0  0  3  0  0  0  0  0  0
  191.8880  174.5530  145.1900 C   0  0  0  0  0  3  0  0  0  0  0  0
  192.3930  175.6990  143.1180 C   0  0  0  0  0  3  0  0  0  0  0  0
  191.4500  175.1720  144.0120 C   0  0  0  0  0  0  0  0  0  0  0  0
  193.2530  174.4260  145.4600 C   0  0  0  0  0  3  0  0  0  0  0  0
  195.5770  174.8180  144.7950 C   0  0  0  0  0  0  0  0  0  0  0  0
  194.1980  174.9310  144.5570 C   0  0  0  0  0  0  0  0  0  0  0  0
  196.4620  175.3260  143.8930 N   0  0  0  0  0  0  0  0  0  0  0  0
  187.6180  178.2930  144.0300 N   0  0  0  0  0  2  0  0  0  0  0  0
  186.8290  177.5880  145.0310 C   0  0  2  0  0  3  0  0  0  0  0  0
  188.4650  177.2790  143.3850 C   0  0  0  0  0  2  0  0  0  0  0  0
  186.7440  176.7900  147.1170 C   0  0  0  0  0  2  0  0  0  0  0  0
  189.3030  176.4850  144.4150 C   0  0  1  0  0  3  0  0  0  0  0  0
  185.7900  178.4080  145.6230 N   0  0  0  0  0  0  0  0  0  0  0  0
  185.5970  177.7760  146.9280 C   0  0  0  0  0  2  0  0  0  0  0  0
  184.5760  178.1770  144.8610 C   0  0  0  0  0  1  0  0  0  0  0  0
  188.4310  176.0090  145.5890 C   0  0  0  0  0  2  0  0  0  0  0  0
  187.7020  177.1570  146.1000 N   0  0  1  0  0  0  0  0  0  0  0  0
  189.7680  173.3590  142.3070 C   0  0  0  0  0  0  0  0  0  0  0  0
  191.1220  171.4630  139.6670 C   0  0  0  0  0  3  0  0  0  0  0  0
  191.4810  170.1040  139.6740 C   0  0  0  0  0  3  0  0  0  0  0  0
  189.9110  172.0560  143.0570 C   0  0  0  0  0  2  0  0  0  0  0  0
  190.1890  173.3260  141.0750 N   0  0  0  0  0  0  0  0  0  0  0  0
  191.3170  169.3440  140.8510 C   0  0  0  0  0  3  0  0  0  0  0  0
  190.8120  169.9180  141.9840 N   0  0  0  0  0  0  0  0  0  0  0  0
  190.6110  171.9970  140.8450 C   0  0  0  0  0  0  0  0  0  0  0  0
  190.4670  171.2300  141.9620 C   0  0  0  0  0  0  0  0  0  0  0  0
  1  9  1  0  0  0  0
  2  1  2  0  0  0  0
  4 12  1  0  0  0  0
  5  6  2  0  0  0  0
  5  4  1  0  0  0  0
  6 13  1  0  0  0  0
  7 10  1  0  0  0  0
  8  4  2  0  0  0  0
  8  9  1  0  0  0  0
  9  7  2  0  0  0  0
 11  3  1  0  0  0  0
 12 11  1  0  0  0  0
 12 10  2  0  0  0  0
 13 11  2  0  0  0  0
 15 14  1  6  0  0  0
 15 19  1  0  0  0  0
 15 23  1  0  0  0  0
 16 14  1  0  0  0  0
 16 18  1  0  0  0  0
 18  1  1  6  0  0  0
 18 22  1  0  0  0  0
 19 20  1  0  0  0  0
 20 17  1  0  0  0  0
 21 19  1  0  0  0  0
 23 22  1  6  0  0  0
 23 17  1  0  0  0  0
 24  2  1  0  0  0  0
 24 27  1  0  0  0  0
 25 26  2  0  0  0  0
 25 31  1  0  0  0  0
 26 29  1  0  0  0  0
 28 24  2  0  0  0  0
 29 30  2  0  0  0  0
 31 28  1  0  0  0  0
 31 32  2  0  0  0  0
 32 30  1  0  0  0  0
 32 27  1  0  0  0  0
M  END
>  <MODEL>
9

>  <REMARK>
 VINA RESULT:      -7.1      1.165      1.833
  Name = 
  3 active torsions:
  status: ('A' for Active; 'I' for Inactive)
    1  A    between atoms: C_5  and  N_32
    2  A    between atoms: C_12  and  C_16
    3  A    between atoms: C_16  and  C_17
                            x       y       z     vdW  Elec       q    Type
                         _______ _______ _______ _____ _____    ______ ____

>  <TORSDO>
F 3

$$$$
