=
 OpenBabel11042418043D

 45 49  0  0  1  0  0  0  0  0999 V2000
  188.3660  175.8530  141.6360 C   0  0  0  0  0  0  0  0  0  0  0  0
  190.5410  173.1050  142.7880 C   0  0  0  0  0  0  0  0  0  0  0  0
  187.5770  177.0530  141.4440 C   0  0  0  0  0  0  0  0  0  0  0  0
  189.1990  175.1570  142.4880 C   0  0  0  0  0  3  0  0  0  0  0  0
  190.6380  171.4890  141.0200 N   0  0  0  0  0  0  0  0  0  0  0  0
  187.2110  176.5630  140.1600 N   0  0  0  0  0  2  0  0  0  0  0  0
  187.3210  178.0830  142.1200 O   0  0  0  0  0  0  0  0  0  0  0  0
  191.0200  171.9090  142.2520 C   0  0  0  0  0  3  0  0  0  0  0  0
  189.7860  172.2020  140.2380 C   0  0  0  0  0  0  0  0  0  0  0  0
  189.2830  173.4330  140.6910 C   0  0  0  0  0  0  0  0  0  0  0  0
  188.4190  174.2020  139.8620 C   0  0  0  0  0  3  0  0  0  0  0  0
  188.0030  175.3990  140.4030 C   0  0  0  0  0  0  0  0  0  0  0  0
  189.6690  173.9020  142.0100 C   0  0  0  0  0  0  0  0  0  0  0  0
  189.4260  171.6610  138.8870 C   0  0  0  0  0  2  0  0  0  0  0  0
  191.8190  169.8290  136.8040 O   0  0  0  0  0  0  0  0  0  0  0  0
  190.4310  170.7060  138.4420 N   0  0  0  0  0  2  0  0  0  0  0  0
  191.3500  172.0840  136.5450 N   0  0  0  0  0  2  0  0  0  0  0  0
  191.2190  170.8420  137.2510 C   0  0  0  0  0  0  0  0  0  0  0  0
  190.9810  173.3890  137.0820 C   0  0  1  0  0  3  0  0  0  0  0  0
  193.5210  173.5230  137.0330 C   0  0  0  0  0  2  0  0  0  0  0  0
  192.6450  173.8690  138.9670 C   0  0  0  0  0  2  0  0  0  0  0  0
  193.9320  173.2370  138.4670 C   0  0  0  0  0  2  0  0  0  0  0  0
  192.2370  174.1590  137.5330 C   0  0  0  0  0  3  0  0  0  0  0  0
  190.0820  174.1260  136.1220 C   0  0  0  0  0  0  0  0  0  0  0  0
  188.9550  174.4340  136.4750 O   0  0  0  0  0  0  0  0  0  0  0  0
  190.5530  174.5060  134.7540 C   0  0  0  0  0  1  0  0  0  0  0  0
  190.9920  173.4640  144.1020 N   0  0  0  0  0  2  0  0  0  0  0  0
  192.2370  173.0290  144.7180 C   0  0  0  0  0  2  0  0  0  0  0  0
  192.9310  174.2080  145.3780 C   0  0  0  0  0  2  0  0  0  0  0  0
  193.3670  176.1930  144.1010 O   0  0  0  0  0  1  0  0  0  0  0  0
  192.3930  175.5330  144.8550 C   0  0  2  0  0  3  0  0  0  0  0  0
  191.9170  176.4130  146.0080 C   0  0  0  0  0  2  0  0  0  0  0  0
  188.3670  177.5120  145.1580 C   0  0  0  0  0  2  0  0  0  0  0  0
  187.7690  177.2290  146.4620 N   0  0  0  0  0  0  0  0  0  0  0  0
  189.8760  177.6920  145.3150 C   0  0  0  0  0  2  0  0  0  0  0  0
  190.1960  174.9310  147.6930 O   0  0  0  0  0  0  0  0  0  0  0  0
  188.1690  175.8820  146.8680 C   0  0  0  0  0  2  0  0  0  0  0  0
  189.6630  175.7630  146.9140 C   0  0  0  0  0  0  0  0  0  0  0  0
  190.4650  176.5520  146.0160 N   0  0  0  0  0  0  0  0  0  0  0  0
  186.3800  177.1910  146.2720 N   0  0  0  0  0  2  0  0  0  0  0  0
  186.0730  179.1150  147.7610 C   0  0  0  0  0  1  0  0  0  0  0  0
  185.8890  178.5610  146.3560 C   0  0  2  0  0  3  0  0  0  0  0  0
  184.1400  178.6490  145.8290 S   0  0  0  0  0  0  0  0  0  0  0  0
  185.5170  180.1450  144.1320 O   0  0  0  0  0  1  0  0  0  0  0  0
  184.4640  179.2340  144.1330 C   0  0  0  0  0  2  0  0  0  0  0  0
  1  4  1  0  0  0  0
  2 27  1  0  0  0  0
  3  1  1  0  0  0  0
  3  7  2  0  0  0  0
  5  8  1  0  0  0  0
  6 12  1  0  0  0  0
  6  3  1  0  0  0  0
  8  2  2  0  0  0  0
  9 10  1  0  0  0  0
  9  5  2  0  0  0  0
 10 13  1  0  0  0  0
 11 12  1  0  0  0  0
 11 10  2  0  0  0  0
 12  1  2  0  0  0  0
 13  4  2  0  0  0  0
 13  2  1  0  0  0  0
 14  9  1  0  0  0  0
 15 18  2  0  0  0  0
 16 14  1  0  0  0  0
 17 19  1  0  0  0  0
 17 18  1  0  0  0  0
 18 16  1  0  0  0  0
 19 24  1  6  0  0  0
 19 23  1  0  0  0  0
 20 23  1  0  0  0  0
 20 22  1  0  0  0  0
 22 21  1  0  0  0  0
 23 21  1  0  0  0  0
 24 25  2  0  0  0  0
 26 24  1  0  0  0  0
 27 28  1  0  0  0  0
 28 29  1  0  0  0  0
 31 30  1  1  0  0  0
 31 29  1  0  0  0  0
 31 32  1  0  0  0  0
 32 39  1  0  0  0  0
 33 35  1  0  0  0  0
 33 34  1  0  0  0  0
 34 37  1  0  0  0  0
 35 39  1  0  0  0  0
 37 38  1  0  0  0  0
 38 36  2  0  0  0  0
 39 38  1  0  0  0  0
 40 42  1  0  0  0  0
 40 34  1  0  0  0  0
 42 41  1  1  0  0  0
 43 42  1  0  0  0  0
 44 45  1  0  0  0  0
 45 43  1  0  0  0  0
M  END
>  <MODEL>
1

>  <REMARK>
 VINA RESULT:      -6.2      0.000      0.000
  Name = 
  15 active torsions:
  status: ('A' for Active; 'I' for Inactive)
    1  A    between atoms: C_1  and  C_15
    2  A    between atoms: C_1  and  N_30
    3  A    between atoms: C_2  and  N_27
    4  A    between atoms: C_2  and  C_28
    5  A    between atoms: S_5  and  C_36
    6  A    between atoms: S_5  and  C_44
    7  A    between atoms: C_8  and  C_24
    8  A    between atoms: C_9  and  N_30
    9  A    between atoms: N_10  and  N_23
   10  A    between atoms: N_10  and  C_36
   11  A    between atoms: C_15  and  C_32
   12  A    between atoms: C_24  and  N_31
   13  A    between atoms: C_24  and  C_41
   14  A    between atoms: C_32  and  C_40
   15  A    between atoms: C_40  and  N_42
                            x       y       z     vdW  Elec       q    Type
                         _______ _______ _______ _____ _____    ______ ____

>  <TORSDO>
F 15

$$$$
=
 OpenBabel11042418043D

 45 49  0  0  1  0  0  0  0  0999 V2000
  195.5570  172.1270  144.7750 C   0  0  0  0  0  0  0  0  0  0  0  0
  194.2640  175.4340  143.7760 C   0  0  0  0  0  0  0  0  0  0  0  0
  196.1580  170.9700  145.4080 C   0  0  0  0  0  0  0  0  0  0  0  0
  195.3000  173.4790  144.8740 C   0  0  0  0  0  3  0  0  0  0  0  0
  193.1540  175.1550  141.6700 N   0  0  0  0  0  0  0  0  0  0  0  0
  195.7440  170.1900  144.2920 N   0  0  0  0  0  2  0  0  0  0  0  0
  196.7810  170.7480  146.4790 O   0  0  0  0  0  0  0  0  0  0  0  0
  193.5240  175.9440  142.7080 C   0  0  0  0  0  3  0  0  0  0  0  0
  193.4670  173.8340  141.6090 C   0  0  0  0  0  0  0  0  0  0  0  0
  194.1830  173.2360  142.6600 C   0  0  0  0  0  0  0  0  0  0  0  0
  194.4810  171.8450  142.6210 C   0  0  0  0  0  3  0  0  0  0  0  0
  195.1710  171.3640  143.7130 C   0  0  0  0  0  0  0  0  0  0  0  0
  194.5980  174.0590  143.7810 C   0  0  0  0  0  0  0  0  0  0  0  0
  193.0100  173.0400  140.4230 C   0  0  0  0  0  2  0  0  0  0  0  0
  189.7920  173.5710  138.7560 O   0  0  0  0  0  0  0  0  0  0  0  0
  191.8590  173.6780  139.8020 N   0  0  0  0  0  2  0  0  0  0  0  0
  190.2120  171.8190  140.2130 N   0  0  0  0  0  2  0  0  0  0  0  0
  190.5970  173.0400  139.5660 C   0  0  0  0  0  0  0  0  0  0  0  0
  190.8780  171.2490  141.3790 C   0  0  1  0  0  3  0  0  0  0  0  0
  188.8300  172.3690  142.3900 C   0  0  0  0  0  2  0  0  0  0  0  0
  190.6210  172.5520  143.5680 C   0  0  0  0  0  2  0  0  0  0  0  0
  189.4070  173.4280  143.3130 C   0  0  0  0  0  2  0  0  0  0  0  0
  190.0400  171.4910  142.6490 C   0  0  0  0  0  3  0  0  0  0  0  0
  191.2660  169.8150  141.1250 C   0  0  0  0  0  0  0  0  0  0  0  0
  190.5850  168.9180  141.5960 O   0  0  0  0  0  0  0  0  0  0  0  0
  192.4580  169.4710  140.2880 C   0  0  0  0  0  1  0  0  0  0  0  0
  194.6180  176.3460  144.8260 N   0  0  0  0  0  2  0  0  0  0  0  0
  193.6890  176.9550  145.7680 C   0  0  0  0  0  2  0  0  0  0  0  0
  193.2590  175.9360  146.8080 C   0  0  0  0  0  2  0  0  0  0  0  0
  191.4830  175.4720  148.3550 O   0  0  0  0  0  1  0  0  0  0  0  0
  191.7720  176.0500  147.1170 C   0  0  2  0  0  3  0  0  0  0  0  0
  190.9420  175.4020  146.0130 C   0  0  0  0  0  2  0  0  0  0  0  0
  187.3260  176.5190  146.4660 C   0  0  0  0  0  2  0  0  0  0  0  0
  187.0880  176.9390  145.0860 N   0  0  0  0  0  0  0  0  0  0  0  0
  188.4880  175.5280  146.5070 C   0  0  0  0  0  2  0  0  0  0  0  0
  190.4680  177.3890  144.0580 O   0  0  0  0  0  0  0  0  0  0  0  0
  188.1980  177.7960  144.6690 C   0  0  0  0  0  2  0  0  0  0  0  0
  189.5050  177.0730  144.8040 C   0  0  0  0  0  0  0  0  0  0  0  0
  189.6620  176.0780  145.8310 N   0  0  0  0  0  0  0  0  0  0  0  0
  185.9430  177.7490  145.1010 N   0  0  0  0  0  2  0  0  0  0  0  0
  185.2810  179.9160  144.1630 C   0  0  0  0  0  1  0  0  0  0  0  0
  185.9890  178.5930  143.9140 C   0  0  2  0  0  3  0  0  0  0  0  0
  185.2750  177.7170  142.4760 S   0  0  0  0  0  0  0  0  0  0  0  0
  186.7680  176.9420  140.4290 O   0  0  0  0  0  1  0  0  0  0  0  0
  186.6830  177.9850  141.3500 C   0  0  0  0  0  2  0  0  0  0  0  0
  1  4  1  0  0  0  0
  1  3  1  0  0  0  0
  2 13  1  0  0  0  0
  2 27  1  0  0  0  0
  3  7  2  0  0  0  0
  5  8  1  0  0  0  0
  6  3  1  0  0  0  0
  8  2  2  0  0  0  0
  9  5  2  0  0  0  0
  9 10  1  0  0  0  0
 10 13  1  0  0  0  0
 11 10  2  0  0  0  0
 11 12  1  0  0  0  0
 12  6  1  0  0  0  0
 12  1  2  0  0  0  0
 13  4  2  0  0  0  0
 14  9  1  0  0  0  0
 15 18  2  0  0  0  0
 16 14  1  0  0  0  0
 18 16  1  0  0  0  0
 18 17  1  0  0  0  0
 19 17  1  6  0  0  0
 19 23  1  0  0  0  0
 20 23  1  0  0  0  0
 20 22  1  0  0  0  0
 22 21  1  0  0  0  0
 23 21  1  0  0  0  0
 24 19  1  0  0  0  0
 24 25  2  0  0  0  0
 26 24  1  0  0  0  0
 27 28  1  0  0  0  0
 28 29  1  0  0  0  0
 29 31  1  0  0  0  0
 31 30  1  1  0  0  0
 32 31  1  0  0  0  0
 33 35  1  0  0  0  0
 34 40  1  0  0  0  0
 34 33  1  0  0  0  0
 36 38  2  0  0  0  0
 37 38  1  0  0  0  0
 37 34  1  0  0  0  0
 38 39  1  0  0  0  0
 39 32  1  0  0  0  0
 39 35  1  0  0  0  0
 42 41  1  1  0  0  0
 42 40  1  0  0  0  0
 43 42  1  0  0  0  0
 44 45  1  0  0  0  0
 45 43  1  0  0  0  0
M  END
>  <MODEL>
2

>  <REMARK>
 VINA RESULT:      -6.1      2.706      5.639
  Name = 
  15 active torsions:
  status: ('A' for Active; 'I' for Inactive)
    1  A    between atoms: C_1  and  C_15
    2  A    between atoms: C_1  and  N_30
    3  A    between atoms: C_2  and  N_27
    4  A    between atoms: C_2  and  C_28
    5  A    between atoms: S_5  and  C_36
    6  A    between atoms: S_5  and  C_44
    7  A    between atoms: C_8  and  C_24
    8  A    between atoms: C_9  and  N_30
    9  A    between atoms: N_10  and  N_23
   10  A    between atoms: N_10  and  C_36
   11  A    between atoms: C_15  and  C_32
   12  A    between atoms: C_24  and  N_31
   13  A    between atoms: C_24  and  C_41
   14  A    between atoms: C_32  and  C_40
   15  A    between atoms: C_40  and  N_42
                            x       y       z     vdW  Elec       q    Type
                         _______ _______ _______ _____ _____    ______ ____

>  <TORSDO>
F 15

$$$$
=
 OpenBabel11042418043D

 45 49  0  0  1  0  0  0  0  0999 V2000
  191.7750  172.5830  142.7800 C   0  0  0  0  0  0  0  0  0  0  0  0
  189.9160  173.4810  139.7230 C   0  0  0  0  0  0  0  0  0  0  0  0
  192.6890  172.0940  143.7940 C   0  0  0  0  0  0  0  0  0  0  0  0
  191.4860  172.6320  141.4320 C   0  0  0  0  0  3  0  0  0  0  0  0
  188.0470  174.8210  140.3990 N   0  0  0  0  0  0  0  0  0  0  0  0
  191.8760  172.7240  144.7770 N   0  0  0  0  0  2  0  0  0  0  0  0
  193.7430  171.4070  143.8040 O   0  0  0  0  0  0  0  0  0  0  0  0
  188.7860  174.2410  139.4210 C   0  0  0  0  0  3  0  0  0  0  0  0
  188.3620  174.7080  141.7150 C   0  0  0  0  0  0  0  0  0  0  0  0
  189.5030  173.9860  142.1030 C   0  0  0  0  0  0  0  0  0  0  0  0
  189.8600  173.8960  143.4770 C   0  0  0  0  0  3  0  0  0  0  0  0
  191.0080  173.1770  143.7370 C   0  0  0  0  0  0  0  0  0  0  0  0
  190.3090  173.3490  141.0760 C   0  0  0  0  0  0  0  0  0  0  0  0
  187.4890  175.3900  142.7250 C   0  0  0  0  0  2  0  0  0  0  0  0
  186.2180  178.8190  142.5030 O   0  0  0  0  0  0  0  0  0  0  0  0
  187.0050  176.6580  142.2000 N   0  0  0  0  0  2  0  0  0  0  0  0
  187.6330  178.0770  144.1830 N   0  0  0  0  0  2  0  0  0  0  0  0
  186.9310  177.8800  142.9470 C   0  0  0  0  0  0  0  0  0  0  0  0
  188.7160  177.2290  144.6680 C   0  0  1  0  0  3  0  0  0  0  0  0
  190.5130  177.7580  142.9480 C   0  0  0  0  0  2  0  0  0  0  0  0
  191.2640  177.0430  144.8320 C   0  0  0  0  0  2  0  0  0  0  0  0
  191.6990  176.9160  143.3830 C   0  0  0  0  0  2  0  0  0  0  0  0
  190.0800  177.8900  144.3960 C   0  0  0  0  0  3  0  0  0  0  0  0
  188.4710  176.8180  146.0980 C   0  0  0  0  0  0  0  0  0  0  0  0
  188.0810  177.6500  146.9020 O   0  0  0  0  0  0  0  0  0  0  0  0
  188.6770  175.4050  146.5450 C   0  0  0  0  0  1  0  0  0  0  0  0
  190.6310  172.8980  138.6240 N   0  0  0  0  0  2  0  0  0  0  0  0
  191.6330  173.5730  137.8120 C   0  0  0  0  0  2  0  0  0  0  0  0
  193.0040  172.9750  138.0720 C   0  0  0  0  0  2  0  0  0  0  0  0
  193.8420  175.2240  138.0550 O   0  0  0  0  0  1  0  0  0  0  0  0
  193.9440  173.9920  138.7060 C   0  0  2  0  0  3  0  0  0  0  0  0
  195.3830  173.4860  138.6770 C   0  0  0  0  0  2  0  0  0  0  0  0
  196.5690  172.7460  142.2240 C   0  0  0  0  0  2  0  0  0  0  0  0
  196.7550  174.1330  142.6490 N   0  0  0  0  0  0  0  0  0  0  0  0
  195.5960  172.6980  141.0470 C   0  0  0  0  0  2  0  0  0  0  0  0
  197.0200  175.6610  139.4420 O   0  0  0  0  0  0  0  0  0  0  0  0
  197.5280  174.8280  141.6200 C   0  0  0  0  0  2  0  0  0  0  0  0
  196.8350  174.7520  140.2930 C   0  0  0  0  0  0  0  0  0  0  0  0
  196.0230  173.6050  139.9830 N   0  0  0  0  0  0  0  0  0  0  0  0
  197.5600  174.1000  143.7970 N   0  0  0  0  0  2  0  0  0  0  0  0
  196.7110  173.6110  146.0450 C   0  0  0  0  0  1  0  0  0  0  0  0
  196.7650  174.6150  144.9040 C   0  0  2  0  0  3  0  0  0  0  0  0
  195.0860  175.0660  144.3340 S   0  0  0  0  0  0  0  0  0  0  0  0
  194.5830  176.5110  146.4970 O   0  0  0  0  0  1  0  0  0  0  0  0
  194.3430  175.2350  145.9900 C   0  0  0  0  0  2  0  0  0  0  0  0
  1 12  1  0  0  0  0
  1  3  1  0  0  0  0
  2 13  1  0  0  0  0
  3  7  2  0  0  0  0
  3  6  1  0  0  0  0
  4  1  2  0  0  0  0
  5  9  2  0  0  0  0
  8  2  2  0  0  0  0
  8  5  1  0  0  0  0
  9 10  1  0  0  0  0
  9 14  1  0  0  0  0
 10 11  1  0  0  0  0
 11 12  2  0  0  0  0
 12  6  1  0  0  0  0
 13  4  1  0  0  0  0
 13 10  2  0  0  0  0
 15 18  2  0  0  0  0
 16 14  1  0  0  0  0
 16 18  1  0  0  0  0
 18 17  1  0  0  0  0
 19 17  1  1  0  0  0
 19 24  1  0  0  0  0
 20 22  1  0  0  0  0
 20 23  1  0  0  0  0
 22 21  1  0  0  0  0
 23 19  1  0  0  0  0
 23 21  1  0  0  0  0
 24 26  1  0  0  0  0
 24 25  2  0  0  0  0
 27  2  1  0  0  0  0
 28 29  1  0  0  0  0
 28 27  1  0  0  0  0
 29 31  1  0  0  0  0
 31 30  1  6  0  0  0
 32 31  1  0  0  0  0
 32 39  1  0  0  0  0
 33 34  1  0  0  0  0
 34 40  1  0  0  0  0
 35 33  1  0  0  0  0
 36 38  2  0  0  0  0
 37 34  1  0  0  0  0
 38 37  1  0  0  0  0
 39 38  1  0  0  0  0
 39 35  1  0  0  0  0
 40 42  1  0  0  0  0
 42 41  1  1  0  0  0
 43 42  1  0  0  0  0
 43 45  1  0  0  0  0
 45 44  1  0  0  0  0
M  END
>  <MODEL>
3

>  <REMARK>
 VINA RESULT:      -6.1      3.395      8.434
  Name = 
  15 active torsions:
  status: ('A' for Active; 'I' for Inactive)
    1  A    between atoms: C_1  and  C_15
    2  A    between atoms: C_1  and  N_30
    3  A    between atoms: C_2  and  N_27
    4  A    between atoms: C_2  and  C_28
    5  A    between atoms: S_5  and  C_36
    6  A    between atoms: S_5  and  C_44
    7  A    between atoms: C_8  and  C_24
    8  A    between atoms: C_9  and  N_30
    9  A    between atoms: N_10  and  N_23
   10  A    between atoms: N_10  and  C_36
   11  A    between atoms: C_15  and  C_32
   12  A    between atoms: C_24  and  N_31
   13  A    between atoms: C_24  and  C_41
   14  A    between atoms: C_32  and  C_40
   15  A    between atoms: C_40  and  N_42
                            x       y       z     vdW  Elec       q    Type
                         _______ _______ _______ _____ _____    ______ ____

>  <TORSDO>
F 15

$$$$
=
 OpenBabel11042418043D

 45 49  0  0  1  0  0  0  0  0999 V2000
  189.7640  176.4760  142.3900 C   0  0  0  0  0  0  0  0  0  0  0  0
  192.7610  174.4610  143.1400 C   0  0  0  0  0  0  0  0  0  0  0  0
  188.7500  177.4930  142.1940 C   0  0  0  0  0  0  0  0  0  0  0  0
  191.0480  176.2120  142.8190 C   0  0  0  0  0  3  0  0  0  0  0  0
  192.2700  172.2000  142.5110 N   0  0  0  0  0  0  0  0  0  0  0  0
  187.8840  176.4800  141.6950 N   0  0  0  0  0  2  0  0  0  0  0  0
  188.6660  178.7340  142.3840 O   0  0  0  0  0  0  0  0  0  0  0  0
  193.1370  173.1250  142.9930 C   0  0  0  0  0  3  0  0  0  0  0  0
  191.0030  172.5130  142.1370 C   0  0  0  0  0  0  0  0  0  0  0  0
  190.5550  173.8430  142.2230 C   0  0  0  0  0  0  0  0  0  0  0  0
  189.2410  174.1840  141.7970 C   0  0  0  0  0  3  0  0  0  0  0  0
  188.9190  175.5190  141.9120 C   0  0  0  0  0  0  0  0  0  0  0  0
  191.4600  174.8520  142.7430 C   0  0  0  0  0  0  0  0  0  0  0  0
  190.1180  171.4250  141.6090 C   0  0  0  0  0  2  0  0  0  0  0  0
  191.3980  169.1450  139.0420 O   0  0  0  0  0  0  0  0  0  0  0  0
  190.9130  170.4190  140.9190 N   0  0  0  0  0  2  0  0  0  0  0  0
  190.4370  171.2020  138.5730 N   0  0  0  0  0  2  0  0  0  0  0  0
  190.9310  170.2230  139.4980 C   0  0  0  0  0  0  0  0  0  0  0  0
  190.1530  172.5930  138.9070 C   0  0  1  0  0  3  0  0  0  0  0  0
  191.9650  172.8670  137.1440 C   0  0  0  0  0  2  0  0  0  0  0  0
  192.4990  173.5980  139.0950 C   0  0  0  0  0  2  0  0  0  0  0  0
  193.2510  172.9480  137.9470 C   0  0  0  0  0  2  0  0  0  0  0  0
  191.2140  173.5220  138.2890 C   0  0  0  0  0  3  0  0  0  0  0  0
  188.7220  172.9390  138.5800 C   0  0  0  0  0  0  0  0  0  0  0  0
  187.8190  172.3020  139.0990 O   0  0  0  0  0  0  0  0  0  0  0  0
  188.3890  174.0620  137.6490 C   0  0  0  0  0  1  0  0  0  0  0  0
  193.7410  175.3660  143.6670 N   0  0  0  0  0  2  0  0  0  0  0  0
  194.6690  175.0730  144.7500 C   0  0  0  0  0  2  0  0  0  0  0  0
  193.9060  174.8530  146.0440 C   0  0  0  0  0  2  0  0  0  0  0  0
  193.7590  177.0450  147.0130 O   0  0  0  0  0  1  0  0  0  0  0  0
  193.0180  176.0470  146.3760 C   0  0  2  0  0  3  0  0  0  0  0  0
  191.8390  175.6150  147.2420 C   0  0  0  0  0  2  0  0  0  0  0  0
  188.8390  177.5730  145.9370 C   0  0  0  0  0  2  0  0  0  0  0  0
  187.8730  176.4760  145.9710 N   0  0  0  0  0  0  0  0  0  0  0  0
  189.9900  177.2720  146.8960 C   0  0  0  0  0  2  0  0  0  0  0  0
  190.1520  173.7380  145.9670 O   0  0  0  0  0  0  0  0  0  0  0  0
  188.4780  175.3120  145.3230 C   0  0  0  0  0  2  0  0  0  0  0  0
  189.7600  174.9340  146.0020 C   0  0  0  0  0  0  0  0  0  0  0  0
  190.5620  175.9550  146.6230 N   0  0  0  0  0  0  0  0  0  0  0  0
  186.7930  176.8630  145.1660 N   0  0  0  0  0  2  0  0  0  0  0  0
  184.8610  177.3520  146.5960 C   0  0  0  0  0  1  0  0  0  0  0  0
  186.0750  177.9160  145.8740 C   0  0  2  0  0  3  0  0  0  0  0  0
  185.6020  179.2560  144.7220 S   0  0  0  0  0  0  0  0  0  0  0  0
  185.2310  178.5600  142.1930 O   0  0  0  0  0  1  0  0  0  0  0  0
  184.8190  178.1870  143.4710 C   0  0  0  0  0  2  0  0  0  0  0  0
  1  4  1  0  0  0  0
  2 27  1  0  0  0  0
  3  7  2  0  0  0  0
  3  1  1  0  0  0  0
  5  8  1  0  0  0  0
  6 12  1  0  0  0  0
  6  3  1  0  0  0  0
  8  2  2  0  0  0  0
  9 10  1  0  0  0  0
  9  5  2  0  0  0  0
 10 13  1  0  0  0  0
 11 12  1  0  0  0  0
 11 10  2  0  0  0  0
 12  1  2  0  0  0  0
 13  4  2  0  0  0  0
 13  2  1  0  0  0  0
 14  9  1  0  0  0  0
 15 18  2  0  0  0  0
 16 14  1  0  0  0  0
 17 18  1  0  0  0  0
 18 16  1  0  0  0  0
 19 17  1  6  0  0  0
 20 22  1  0  0  0  0
 20 23  1  0  0  0  0
 22 21  1  0  0  0  0
 23 19  1  0  0  0  0
 23 21  1  0  0  0  0
 24 19  1  0  0  0  0
 24 25  2  0  0  0  0
 26 24  1  0  0  0  0
 27 28  1  0  0  0  0
 28 29  1  0  0  0  0
 29 31  1  0  0  0  0
 31 30  1  1  0  0  0
 31 32  1  0  0  0  0
 33 34  1  0  0  0  0
 33 35  1  0  0  0  0
 36 38  2  0  0  0  0
 37 34  1  0  0  0  0
 37 38  1  0  0  0  0
 38 39  1  0  0  0  0
 39 35  1  0  0  0  0
 39 32  1  0  0  0  0
 40 42  1  0  0  0  0
 40 34  1  0  0  0  0
 42 41  1  6  0  0  0
 43 42  1  0  0  0  0
 44 45  1  0  0  0  0
 45 43  1  0  0  0  0
M  END
>  <MODEL>
4

>  <REMARK>
 VINA RESULT:      -6.0      1.701      2.127
  Name = 
  15 active torsions:
  status: ('A' for Active; 'I' for Inactive)
    1  A    between atoms: C_1  and  C_15
    2  A    between atoms: C_1  and  N_30
    3  A    between atoms: C_2  and  N_27
    4  A    between atoms: C_2  and  C_28
    5  A    between atoms: S_5  and  C_36
    6  A    between atoms: S_5  and  C_44
    7  A    between atoms: C_8  and  C_24
    8  A    between atoms: C_9  and  N_30
    9  A    between atoms: N_10  and  N_23
   10  A    between atoms: N_10  and  C_36
   11  A    between atoms: C_15  and  C_32
   12  A    between atoms: C_24  and  N_31
   13  A    between atoms: C_24  and  C_41
   14  A    between atoms: C_32  and  C_40
   15  A    between atoms: C_40  and  N_42
                            x       y       z     vdW  Elec       q    Type
                         _______ _______ _______ _____ _____    ______ ____

>  <TORSDO>
F 15

$$$$
=
 OpenBabel11042418043D

 45 49  0  0  1  0  0  0  0  0999 V2000
  189.5780  172.5150  139.5380 C   0  0  0  0  0  0  0  0  0  0  0  0
  191.2100  171.7450  142.7560 C   0  0  0  0  0  0  0  0  0  0  0  0
  189.0960  172.5900  138.1730 C   0  0  0  0  0  0  0  0  0  0  0  0
  190.4090  171.8560  140.4210 C   0  0  0  0  0  3  0  0  0  0  0  0
  190.3360  173.2770  144.3780 N   0  0  0  0  0  0  0  0  0  0  0  0
  188.2790  173.6880  138.5620 N   0  0  0  0  0  2  0  0  0  0  0  0
  189.3090  171.9620  137.1040 O   0  0  0  0  0  0  0  0  0  0  0  0
  191.1340  172.2270  144.0630 C   0  0  0  0  0  3  0  0  0  0  0  0
  189.5650  173.9100  143.4570 C   0  0  0  0  0  0  0  0  0  0  0  0
  189.5590  173.4660  142.1240 C   0  0  0  0  0  0  0  0  0  0  0  0
  188.7250  174.1010  141.1610 C   0  0  0  0  0  3  0  0  0  0  0  0
  188.7900  173.5690  139.8910 C   0  0  0  0  0  0  0  0  0  0  0  0
  190.4100  172.3480  141.7570 C   0  0  0  0  0  0  0  0  0  0  0  0
  188.7090  175.0590  143.9000 C   0  0  0  0  0  2  0  0  0  0  0  0
  189.8570  177.4090  146.4650 O   0  0  0  0  0  0  0  0  0  0  0  0
  189.2150  175.6110  145.1490 N   0  0  0  0  0  2  0  0  0  0  0  0
  188.2360  177.9160  144.8880 N   0  0  0  0  0  2  0  0  0  0  0  0
  189.1250  176.9910  145.5300 C   0  0  0  0  0  0  0  0  0  0  0  0
  187.1280  177.5390  144.0180 C   0  0  1  0  0  3  0  0  0  0  0  0
  185.8460  178.9150  145.7290 C   0  0  0  0  0  2  0  0  0  0  0  0
  185.5020  176.7950  145.8500 C   0  0  0  0  0  2  0  0  0  0  0  0
  185.5610  177.9340  146.8530 C   0  0  0  0  0  2  0  0  0  0  0  0
  185.7820  177.7790  144.7260 C   0  0  0  0  0  3  0  0  0  0  0  0
  187.2690  178.1850  142.6630 C   0  0  0  0  0  0  0  0  0  0  0  0
  186.3220  178.7900  142.1870 O   0  0  0  0  0  0  0  0  0  0  0  0
  188.5550  178.1170  141.9010 C   0  0  0  0  0  1  0  0  0  0  0  0
  192.0880  170.6360  142.5140 N   0  0  0  0  0  2  0  0  0  0  0  0
  192.4590  169.6210  143.4890 C   0  0  0  0  0  2  0  0  0  0  0  0
  193.6000  168.7750  142.9540 C   0  0  0  0  0  2  0  0  0  0  0  0
  194.3450  169.1650  145.2020 O   0  0  0  0  0  1  0  0  0  0  0  0
  194.7500  168.6990  143.9490 C   0  0  2  0  0  3  0  0  0  0  0  0
  195.9520  169.4910  143.4430 C   0  0  0  0  0  2  0  0  0  0  0  0
  195.1930  173.1410  144.2400 C   0  0  0  0  0  2  0  0  0  0  0  0
  196.5210  173.5020  144.7330 N   0  0  0  0  0  0  0  0  0  0  0  0
  195.2980  171.9090  143.3430 C   0  0  0  0  0  2  0  0  0  0  0  0
  197.7230  170.2420  145.5160 O   0  0  0  0  0  0  0  0  0  0  0  0
  196.9430  172.4890  145.7010 C   0  0  0  0  0  2  0  0  0  0  0  0
  196.9440  171.1270  145.0760 C   0  0  0  0  0  0  0  0  0  0  0  0
  196.0040  170.8270  144.0280 N   0  0  0  0  0  0  0  0  0  0  0  0
  196.3760  174.6990  145.4490 N   0  0  0  0  0  2  0  0  0  0  0  0
  196.1760  176.4500  143.7430 C   0  0  0  0  0  1  0  0  0  0  0  0
  195.4390  175.5390  144.7120 C   0  0  2  0  0  3  0  0  0  0  0  0
  194.3930  176.4990  145.8650 S   0  0  0  0  0  0  0  0  0  0  0  0
  192.7700  175.7210  143.9220 O   0  0  0  0  0  1  0  0  0  0  0  0
  192.7950  175.8190  145.3120 C   0  0  0  0  0  2  0  0  0  0  0  0
  1 12  2  0  0  0  0
  1  4  1  0  0  0  0
  2  8  2  0  0  0  0
  3  6  1  0  0  0  0
  3  1  1  0  0  0  0
  4 13  2  0  0  0  0
  6 12  1  0  0  0  0
  7  3  2  0  0  0  0
  8  5  1  0  0  0  0
  9 14  1  0  0  0  0
  9  5  2  0  0  0  0
 10  9  1  0  0  0  0
 11 10  2  0  0  0  0
 12 11  1  0  0  0  0
 13 10  1  0  0  0  0
 13  2  1  0  0  0  0
 14 16  1  0  0  0  0
 16 18  1  0  0  0  0
 17 18  1  0  0  0  0
 18 15  2  0  0  0  0
 19 24  1  6  0  0  0
 19 23  1  0  0  0  0
 19 17  1  0  0  0  0
 20 22  1  0  0  0  0
 21 22  1  0  0  0  0
 23 20  1  0  0  0  0
 23 21  1  0  0  0  0
 25 24  2  0  0  0  0
 26 24  1  0  0  0  0
 27  2  1  0  0  0  0
 27 28  1  0  0  0  0
 29 28  1  0  0  0  0
 29 31  1  0  0  0  0
 31 30  1  1  0  0  0
 32 31  1  0  0  0  0
 32 39  1  0  0  0  0
 33 34  1  0  0  0  0
 34 40  1  0  0  0  0
 34 37  1  0  0  0  0
 35 39  1  0  0  0  0
 35 33  1  0  0  0  0
 38 36  2  0  0  0  0
 38 37  1  0  0  0  0
 39 38  1  0  0  0  0
 42 41  1  6  0  0  0
 42 40  1  0  0  0  0
 42 43  1  0  0  0  0
 44 45  1  0  0  0  0
 45 43  1  0  0  0  0
M  END
>  <MODEL>
5

>  <REMARK>
 VINA RESULT:      -6.0      3.504      7.987
  Name = 
  15 active torsions:
  status: ('A' for Active; 'I' for Inactive)
    1  A    between atoms: C_1  and  C_15
    2  A    between atoms: C_1  and  N_30
    3  A    between atoms: C_2  and  N_27
    4  A    between atoms: C_2  and  C_28
    5  A    between atoms: S_5  and  C_36
    6  A    between atoms: S_5  and  C_44
    7  A    between atoms: C_8  and  C_24
    8  A    between atoms: C_9  and  N_30
    9  A    between atoms: N_10  and  N_23
   10  A    between atoms: N_10  and  C_36
   11  A    between atoms: C_15  and  C_32
   12  A    between atoms: C_24  and  N_31
   13  A    between atoms: C_24  and  C_41
   14  A    between atoms: C_32  and  C_40
   15  A    between atoms: C_40  and  N_42
                            x       y       z     vdW  Elec       q    Type
                         _______ _______ _______ _____ _____    ______ ____

>  <TORSDO>
F 15

$$$$
=
 OpenBabel11042418043D

 45 49  0  0  1  0  0  0  0  0999 V2000
  185.4720  178.6610  144.9950 C   0  0  0  0  0  0  0  0  0  0  0  0
  186.2080  178.0380  141.4350 C   0  0  0  0  0  0  0  0  0  0  0  0
  185.4760  178.8870  146.4270 C   0  0  0  0  0  0  0  0  0  0  0  0
  186.2410  178.4160  143.8760 C   0  0  0  0  0  3  0  0  0  0  0  0
  184.1190  178.0880  140.2600 N   0  0  0  0  0  0  0  0  0  0  0  0
  184.0590  179.0050  146.3750 N   0  0  0  0  0  2  0  0  0  0  0  0
  186.3510  178.9480  147.3300 O   0  0  0  0  0  0  0  0  0  0  0  0
  185.4700  177.9660  140.2530 C   0  0  0  0  0  3  0  0  0  0  0  0
  183.4110  178.2940  141.4010 C   0  0  0  0  0  0  0  0  0  0  0  0
  184.0820  178.4100  142.6300 C   0  0  0  0  0  0  0  0  0  0  0  0
  183.3500  178.6630  143.8240 C   0  0  0  0  0  3  0  0  0  0  0  0
  184.1150  178.7750  144.9650 C   0  0  0  0  0  0  0  0  0  0  0  0
  185.5280  178.2770  142.6530 C   0  0  0  0  0  0  0  0  0  0  0  0
  181.9210  178.4210  141.3100 C   0  0  0  0  0  2  0  0  0  0  0  0
  179.8450  176.8290  138.7450 O   0  0  0  0  0  0  0  0  0  0  0  0
  181.4470  177.9010  140.0360 N   0  0  0  0  0  2  0  0  0  0  0  0
  178.9860  177.9830  140.5620 N   0  0  0  0  0  2  0  0  0  0  0  0
  180.0860  177.5500  139.7500 C   0  0  0  0  0  0  0  0  0  0  0  0
  179.0550  179.0460  141.5580 C   0  0  1  0  0  3  0  0  0  0  0  0
  177.7020  180.1390  139.7030 C   0  0  0  0  0  2  0  0  0  0  0  0
  179.5010  181.1910  140.2340 C   0  0  0  0  0  2  0  0  0  0  0  0
  178.7190  180.9780  138.9500 C   0  0  0  0  0  2  0  0  0  0  0  0
  178.4800  180.3560  140.9870 C   0  0  0  0  0  3  0  0  0  0  0  0
  178.4560  178.5930  142.8650 C   0  0  0  0  0  0  0  0  0  0  0  0
  178.2750  179.4090  143.7550 O   0  0  0  0  0  0  0  0  0  0  0  0
  178.0580  177.1670  143.0830 C   0  0  0  0  0  1  0  0  0  0  0  0
  187.6320  177.8900  141.3310 N   0  0  0  0  0  2  0  0  0  0  0  0
  188.4380  176.9250  142.0650 C   0  0  0  0  0  2  0  0  0  0  0  0
  188.5640  175.6380  141.2690 C   0  0  0  0  0  2  0  0  0  0  0  0
  188.3850  173.3610  142.0090 O   0  0  0  0  0  1  0  0  0  0  0  0
  189.1600  174.5190  142.1130 C   0  0  2  0  0  3  0  0  0  0  0  0
  189.2880  174.9530  143.5700 C   0  0  0  0  0  2  0  0  0  0  0  0
  192.9360  175.7280  144.3600 C   0  0  0  0  0  2  0  0  0  0  0  0
  193.4040  174.3450  144.4460 N   0  0  0  0  0  0  0  0  0  0  0  0
  191.6520  175.7830  143.5320 C   0  0  0  0  0  2  0  0  0  0  0  0
  190.2770  172.7420  145.0300 O   0  0  0  0  0  0  0  0  0  0  0  0
  192.4850  173.6030  145.3090 C   0  0  0  0  0  2  0  0  0  0  0  0
  191.0850  173.6740  144.7780 C   0  0  0  0  0  0  0  0  0  0  0  0
  190.6610  174.8400  144.0490 N   0  0  0  0  0  0  0  0  0  0  0  0
  194.6370  174.3760  145.1120 N   0  0  0  0  0  2  0  0  0  0  0  0
  195.7820  172.2340  144.7740 C   0  0  0  0  0  1  0  0  0  0  0  0
  195.6000  173.6620  144.2830 C   0  0  2  0  0  3  0  0  0  0  0  0
  197.1950  174.5570  144.2350 S   0  0  0  0  0  0  0  0  0  0  0  0
  196.3780  177.0320  143.7600 O   0  0  0  0  0  1  0  0  0  0  0  0
  196.6680  175.8560  143.0710 C   0  0  0  0  0  2  0  0  0  0  0  0
  1  3  1  0  0  0  0
  2 13  1  0  0  0  0
  3  7  2  0  0  0  0
  4  1  2  0  0  0  0
  5  9  2  0  0  0  0
  6  3  1  0  0  0  0
  8  5  1  0  0  0  0
  8  2  2  0  0  0  0
  9 10  1  0  0  0  0
 10 13  2  0  0  0  0
 10 11  1  0  0  0  0
 11 12  2  0  0  0  0
 12  1  1  0  0  0  0
 12  6  1  0  0  0  0
 13  4  1  0  0  0  0
 14  9  1  0  0  0  0
 15 18  2  0  0  0  0
 16 14  1  0  0  0  0
 18 16  1  0  0  0  0
 18 17  1  0  0  0  0
 19 17  1  6  0  0  0
 19 24  1  0  0  0  0
 20 23  1  0  0  0  0
 21 23  1  0  0  0  0
 22 20  1  0  0  0  0
 22 21  1  0  0  0  0
 23 19  1  0  0  0  0
 24 26  1  0  0  0  0
 24 25  2  0  0  0  0
 27  2  1  0  0  0  0
 27 28  1  0  0  0  0
 29 28  1  0  0  0  0
 29 31  1  0  0  0  0
 31 30  1  1  0  0  0
 31 32  1  0  0  0  0
 32 39  1  0  0  0  0
 33 34  1  0  0  0  0
 34 40  1  0  0  0  0
 34 37  1  0  0  0  0
 35 39  1  0  0  0  0
 35 33  1  0  0  0  0
 38 36  2  0  0  0  0
 38 37  1  0  0  0  0
 39 38  1  0  0  0  0
 42 41  1  1  0  0  0
 42 40  1  0  0  0  0
 43 42  1  0  0  0  0
 45 44  1  0  0  0  0
 45 43  1  0  0  0  0
M  END
>  <MODEL>
6

>  <REMARK>
 VINA RESULT:      -6.0      4.725      9.994
  Name = 
  15 active torsions:
  status: ('A' for Active; 'I' for Inactive)
    1  A    between atoms: C_1  and  C_15
    2  A    between atoms: C_1  and  N_30
    3  A    between atoms: C_2  and  N_27
    4  A    between atoms: C_2  and  C_28
    5  A    between atoms: S_5  and  C_36
    6  A    between atoms: S_5  and  C_44
    7  A    between atoms: C_8  and  C_24
    8  A    between atoms: C_9  and  N_30
    9  A    between atoms: N_10  and  N_23
   10  A    between atoms: N_10  and  C_36
   11  A    between atoms: C_15  and  C_32
   12  A    between atoms: C_24  and  N_31
   13  A    between atoms: C_24  and  C_41
   14  A    between atoms: C_32  and  C_40
   15  A    between atoms: C_40  and  N_42
                            x       y       z     vdW  Elec       q    Type
                         _______ _______ _______ _____ _____    ______ ____

>  <TORSDO>
F 15

$$$$
=
 OpenBabel11042418043D

 45 49  0  0  1  0  0  0  0  0999 V2000
  189.6310  172.2290  138.2350 C   0  0  0  0  0  0  0  0  0  0  0  0
  189.7970  171.7260  141.8850 C   0  0  0  0  0  0  0  0  0  0  0  0
  189.7010  172.1640  136.7880 C   0  0  0  0  0  0  0  0  0  0  0  0
  189.9330  171.5940  139.4220 C   0  0  0  0  0  3  0  0  0  0  0  0
  188.7320  173.6130  142.9100 N   0  0  0  0  0  0  0  0  0  0  0  0
  189.0430  173.4240  136.7370 N   0  0  0  0  0  2  0  0  0  0  0  0
  190.1510  171.3490  135.9410 O   0  0  0  0  0  0  0  0  0  0  0  0
  189.3560  172.4140  143.0160 C   0  0  0  0  0  3  0  0  0  0  0  0
  188.4930  174.2070  141.7120 C   0  0  0  0  0  0  0  0  0  0  0  0
  188.8780  173.5650  140.5220 C   0  0  0  0  0  0  0  0  0  0  0  0
  188.5960  174.1650  139.2630 C   0  0  0  0  0  3  0  0  0  0  0  0
  189.0040  173.4360  138.1660 C   0  0  0  0  0  0  0  0  0  0  0  0
  189.5540  172.2840  140.6080 C   0  0  0  0  0  0  0  0  0  0  0  0
  187.7910  175.5320  141.6920 C   0  0  0  0  0  2  0  0  0  0  0  0
  189.3230  178.8230  142.1890 O   0  0  0  0  0  0  0  0  0  0  0  0
  188.7000  176.5900  142.1090 N   0  0  0  0  0  2  0  0  0  0  0  0
  187.0360  178.4780  142.0320 N   0  0  0  0  0  2  0  0  0  0  0  0
  188.3820  177.9880  142.1130 C   0  0  0  0  0  0  0  0  0  0  0  0
  185.8420  177.6670  142.2430 C   0  0  1  0  0  3  0  0  0  0  0  0
  185.9280  179.0550  144.3730 C   0  0  0  0  0  2  0  0  0  0  0  0
  185.9480  176.9280  144.6910 C   0  0  0  0  0  2  0  0  0  0  0  0
  186.5630  178.1270  145.3920 C   0  0  0  0  0  2  0  0  0  0  0  0
  185.3080  177.8590  143.6750 C   0  0  0  0  0  3  0  0  0  0  0  0
  184.8380  177.9010  141.1430 C   0  0  0  0  0  0  0  0  0  0  0  0
  185.1790  177.7550  139.9800 O   0  0  0  0  0  0  0  0  0  0  0  0
  183.4250  178.2860  141.4520 C   0  0  0  0  0  1  0  0  0  0  0  0
  190.4550  170.4680  142.0950 N   0  0  0  0  0  2  0  0  0  0  0  0
  191.8610  170.2930  142.4310 C   0  0  0  0  0  2  0  0  0  0  0  0
  192.5490  171.6440  142.5100 C   0  0  0  0  0  2  0  0  0  0  0  0
  194.7530  171.2390  141.6460 O   0  0  0  0  0  1  0  0  0  0  0  0
  193.5250  171.8380  141.3560 C   0  0  2  0  0  3  0  0  0  0  0  0
  193.7090  173.3220  141.0510 C   0  0  0  0  0  2  0  0  0  0  0  0
  191.7940  175.4060  143.6060 C   0  0  0  0  0  2  0  0  0  0  0  0
  192.9220  176.2130  144.0680 N   0  0  0  0  0  0  0  0  0  0  0  0
  192.0990  174.8500  142.2150 C   0  0  0  0  0  2  0  0  0  0  0  0
  195.5830  174.0870  143.0260 O   0  0  0  0  0  0  0  0  0  0  0  0
  194.0370  175.3140  144.3670 C   0  0  0  0  0  2  0  0  0  0  0  0
  194.4030  174.5040  143.1590 C   0  0  0  0  0  0  0  0  0  0  0  0
  193.3840  174.1540  142.2050 N   0  0  0  0  0  0  0  0  0  0  0  0
  192.5360  176.7860  145.2880 N   0  0  0  0  0  2  0  0  0  0  0  0
  190.1990  177.5210  145.3940 C   0  0  0  0  0  1  0  0  0  0  0  0
  191.1680  176.3610  145.5590 C   0  0  2  0  0  3  0  0  0  0  0  0
  191.0440  175.6210  147.2270 S   0  0  0  0  0  0  0  0  0  0  0  0
  189.3120  173.8140  146.3570 O   0  0  0  0  0  1  0  0  0  0  0  0
  189.3320  175.0180  147.0590 C   0  0  0  0  0  2  0  0  0  0  0  0
  1  4  1  0  0  0  0
  2 27  1  0  0  0  0
  2  8  2  0  0  0  0
  3  1  1  0  0  0  0
  4 13  2  0  0  0  0
  5  8  1  0  0  0  0
  6  3  1  0  0  0  0
  6 12  1  0  0  0  0
  7  3  2  0  0  0  0
  9  5  2  0  0  0  0
 10 13  1  0  0  0  0
 10  9  1  0  0  0  0
 11 10  2  0  0  0  0
 12  1  2  0  0  0  0
 12 11  1  0  0  0  0
 13  2  1  0  0  0  0
 14  9  1  0  0  0  0
 14 16  1  0  0  0  0
 16 18  1  0  0  0  0
 17 18  1  0  0  0  0
 17 19  1  0  0  0  0
 18 15  2  0  0  0  0
 19 24  1  6  0  0  0
 19 23  1  0  0  0  0
 20 22  1  0  0  0  0
 21 22  1  0  0  0  0
 23 20  1  0  0  0  0
 23 21  1  0  0  0  0
 24 26  1  0  0  0  0
 25 24  2  0  0  0  0
 27 28  1  0  0  0  0
 28 29  1  0  0  0  0
 31 30  1  1  0  0  0
 31 29  1  0  0  0  0
 32 31  1  0  0  0  0
 32 39  1  0  0  0  0
 33 34  1  0  0  0  0
 34 37  1  0  0  0  0
 34 40  1  0  0  0  0
 35 33  1  0  0  0  0
 36 38  2  0  0  0  0
 38 37  1  0  0  0  0
 39 35  1  0  0  0  0
 39 38  1  0  0  0  0
 40 42  1  0  0  0  0
 42 41  1  1  0  0  0
 42 43  1  0  0  0  0
 44 45  1  0  0  0  0
 45 43  1  0  0  0  0
M  END
>  <MODEL>
7

>  <REMARK>
 VINA RESULT:      -5.9      2.577      6.668
  Name = 
  15 active torsions:
  status: ('A' for Active; 'I' for Inactive)
    1  A    between atoms: C_1  and  C_15
    2  A    between atoms: C_1  and  N_30
    3  A    between atoms: C_2  and  N_27
    4  A    between atoms: C_2  and  C_28
    5  A    between atoms: S_5  and  C_36
    6  A    between atoms: S_5  and  C_44
    7  A    between atoms: C_8  and  C_24
    8  A    between atoms: C_9  and  N_30
    9  A    between atoms: N_10  and  N_23
   10  A    between atoms: N_10  and  C_36
   11  A    between atoms: C_15  and  C_32
   12  A    between atoms: C_24  and  N_31
   13  A    between atoms: C_24  and  C_41
   14  A    between atoms: C_32  and  C_40
   15  A    between atoms: C_40  and  N_42
                            x       y       z     vdW  Elec       q    Type
                         _______ _______ _______ _____ _____    ______ ____

>  <TORSDO>
F 15

$$$$
=
 OpenBabel11042418043D

 45 49  0  0  1  0  0  0  0  0999 V2000
  194.4660  171.3250  145.1610 C   0  0  0  0  0  0  0  0  0  0  0  0
  194.2190  174.8880  144.2350 C   0  0  0  0  0  0  0  0  0  0  0  0
  194.6080  170.0310  145.7970 C   0  0  0  0  0  0  0  0  0  0  0  0
  194.4690  172.6930  145.3420 C   0  0  0  0  0  3  0  0  0  0  0  0
  193.7490  174.9780  141.8860 N   0  0  0  0  0  0  0  0  0  0  0  0
  194.3930  169.4250  144.5280 N   0  0  0  0  0  2  0  0  0  0  0  0
  194.8290  169.6180  146.9650 O   0  0  0  0  0  0  0  0  0  0  0  0
  193.9470  175.6070  143.0710 C   0  0  0  0  0  3  0  0  0  0  0  0
  193.7930  173.6260  141.7610 C   0  0  0  0  0  0  0  0  0  0  0  0
  194.0300  172.8260  142.8920 C   0  0  0  0  0  0  0  0  0  0  0  0
  194.0400  171.4080  142.7760 C   0  0  0  0  0  3  0  0  0  0  0  0
  194.2650  170.7270  143.9530 C   0  0  0  0  0  0  0  0  0  0  0  0
  194.2530  173.4740  144.1720 C   0  0  0  0  0  0  0  0  0  0  0  0
  193.5550  173.0190  140.4120 C   0  0  0  0  0  2  0  0  0  0  0  0
  192.6430  174.9130  137.4110 O   0  0  0  0  0  0  0  0  0  0  0  0
  193.4870  174.0590  139.3960 N   0  0  0  0  0  2  0  0  0  0  0  0
  191.1850  173.5080  138.5390 N   0  0  0  0  0  2  0  0  0  0  0  0
  192.4450  174.1830  138.4190 C   0  0  0  0  0  0  0  0  0  0  0  0
  190.6880  172.8850  139.7610 C   0  0  1  0  0  3  0  0  0  0  0  0
  190.0420  174.3510  141.7360 C   0  0  0  0  0  2  0  0  0  0  0  0
  188.5160  172.9680  141.1140 C   0  0  0  0  0  2  0  0  0  0  0  0
  188.9540  173.5600  142.4420 C   0  0  0  0  0  2  0  0  0  0  0  0
  189.6010  173.7640  140.4080 C   0  0  0  0  0  3  0  0  0  0  0  0
  190.2930  171.4530  139.5070 C   0  0  0  0  0  0  0  0  0  0  0  0
  189.5930  171.1860  138.5430 O   0  0  0  0  0  0  0  0  0  0  0  0
  190.7610  170.3490  140.4030 C   0  0  0  0  0  1  0  0  0  0  0  0
  194.4240  175.6390  145.4400 N   0  0  0  0  0  2  0  0  0  0  0  0
  193.3980  176.3790  146.1600 C   0  0  0  0  0  2  0  0  0  0  0  0
  192.4960  175.4200  146.9160 C   0  0  0  0  0  2  0  0  0  0  0  0
  191.0710  174.7700  145.0970 O   0  0  0  0  0  1  0  0  0  0  0  0
  191.0870  175.4100  146.3390 C   0  0  2  0  0  3  0  0  0  0  0  0
  190.5450  176.8320  146.2190 C   0  0  0  0  0  2  0  0  0  0  0  0
  188.4200  177.4120  143.1080 C   0  0  0  0  0  2  0  0  0  0  0  0
  187.1360  177.5750  143.7890 N   0  0  0  0  0  0  0  0  0  0  0  0
  189.5580  177.7000  144.0860 C   0  0  0  0  0  2  0  0  0  0  0  0
  187.9330  175.9570  146.8610 O   0  0  0  0  0  0  0  0  0  0  0  0
  186.9750  176.4720  144.7370 C   0  0  0  0  0  2  0  0  0  0  0  0
  188.1130  176.4420  145.7130 C   0  0  0  0  0  0  0  0  0  0  0  0
  189.4130  176.9020  145.3020 N   0  0  0  0  0  0  0  0  0  0  0  0
  186.1390  177.4130  142.8170 N   0  0  0  0  0  2  0  0  0  0  0  0
  183.9120  178.2560  142.2270 C   0  0  0  0  0  1  0  0  0  0  0  0
  184.9140  178.0040  143.3430 C   0  0  2  0  0  3  0  0  0  0  0  0
  185.2870  179.5410  144.2620 S   0  0  0  0  0  0  0  0  0  0  0  0
  185.4420  178.8690  146.8200 O   0  0  0  0  0  1  0  0  0  0  0  0
  184.4850  179.0480  145.8240 C   0  0  0  0  0  2  0  0  0  0  0  0
  1  4  1  0  0  0  0
  1  3  1  0  0  0  0
  2 27  1  0  0  0  0
  3  7  2  0  0  0  0
  5  8  1  0  0  0  0
  6  3  1  0  0  0  0
  8  2  2  0  0  0  0
  9  5  2  0  0  0  0
  9 10  1  0  0  0  0
 10 13  1  0  0  0  0
 11 10  2  0  0  0  0
 11 12  1  0  0  0  0
 12  6  1  0  0  0  0
 12  1  2  0  0  0  0
 13  2  1  0  0  0  0
 13  4  2  0  0  0  0
 14  9  1  0  0  0  0
 15 18  2  0  0  0  0
 16 14  1  0  0  0  0
 18 17  1  0  0  0  0
 18 16  1  0  0  0  0
 19 17  1  6  0  0  0
 19 23  1  0  0  0  0
 20 22  1  0  0  0  0
 21 22  1  0  0  0  0
 23 21  1  0  0  0  0
 23 20  1  0  0  0  0
 24 19  1  0  0  0  0
 24 26  1  0  0  0  0
 25 24  2  0  0  0  0
 27 28  1  0  0  0  0
 28 29  1  0  0  0  0
 31 30  1  6  0  0  0
 31 29  1  0  0  0  0
 32 31  1  0  0  0  0
 33 34  1  0  0  0  0
 33 35  1  0  0  0  0
 34 37  1  0  0  0  0
 35 39  1  0  0  0  0
 37 38  1  0  0  0  0
 38 36  2  0  0  0  0
 39 38  1  0  0  0  0
 39 32  1  0  0  0  0
 40 42  1  0  0  0  0
 40 34  1  0  0  0  0
 42 41  1  6  0  0  0
 42 43  1  0  0  0  0
 43 45  1  0  0  0  0
 45 44  1  0  0  0  0
M  END
>  <MODEL>
8

>  <REMARK>
 VINA RESULT:      -5.9      2.669      5.197
  Name = 
  15 active torsions:
  status: ('A' for Active; 'I' for Inactive)
    1  A    between atoms: C_1  and  C_15
    2  A    between atoms: C_1  and  N_30
    3  A    between atoms: C_2  and  N_27
    4  A    between atoms: C_2  and  C_28
    5  A    between atoms: S_5  and  C_36
    6  A    between atoms: S_5  and  C_44
    7  A    between atoms: C_8  and  C_24
    8  A    between atoms: C_9  and  N_30
    9  A    between atoms: N_10  and  N_23
   10  A    between atoms: N_10  and  C_36
   11  A    between atoms: C_15  and  C_32
   12  A    between atoms: C_24  and  N_31
   13  A    between atoms: C_24  and  C_41
   14  A    between atoms: C_32  and  C_40
   15  A    between atoms: C_40  and  N_42
                            x       y       z     vdW  Elec       q    Type
                         _______ _______ _______ _____ _____    ______ ____

>  <TORSDO>
F 15

$$$$
=
 OpenBabel11042418043D

 45 49  0  0  1  0  0  0  0  0999 V2000
  189.4530  172.3990  138.4350 C   0  0  0  0  0  0  0  0  0  0  0  0
  190.0900  171.3140  141.9030 C   0  0  0  0  0  0  0  0  0  0  0  0
  189.3170  172.5630  137.0010 C   0  0  0  0  0  0  0  0  0  0  0  0
  189.8730  171.5700  139.4550 C   0  0  0  0  0  3  0  0  0  0  0  0
  189.3110  173.0620  143.3470 N   0  0  0  0  0  0  0  0  0  0  0  0
  188.7470  173.8450  137.2390 N   0  0  0  0  0  2  0  0  0  0  0  0
  189.5870  171.8740  135.9840 O   0  0  0  0  0  0  0  0  0  0  0  0
  189.8590  171.8330  143.1770 C   0  0  0  0  0  3  0  0  0  0  0  0
  188.9490  173.8500  142.3010 C   0  0  0  0  0  0  0  0  0  0  0  0
  189.1200  173.3880  140.9850 C   0  0  0  0  0  0  0  0  0  0  0  0
  188.7080  174.1930  139.8850 C   0  0  0  0  0  3  0  0  0  0  0  0
  188.9080  173.6310  138.6430 C   0  0  0  0  0  0  0  0  0  0  0  0
  189.7110  172.0790  140.7740 C   0  0  0  0  0  0  0  0  0  0  0  0
  188.3460  175.1920  142.5860 C   0  0  0  0  0  2  0  0  0  0  0  0
  190.1090  178.3590  143.1210 O   0  0  0  0  0  0  0  0  0  0  0  0
  189.3820  176.2140  142.6180 N   0  0  0  0  0  2  0  0  0  0  0  0
  188.4060  177.5860  144.4910 N   0  0  0  0  0  2  0  0  0  0  0  0
  189.3240  177.4140  143.4010 C   0  0  0  0  0  0  0  0  0  0  0  0
  187.6600  176.5070  145.1280 C   0  0  1  0  0  3  0  0  0  0  0  0
  189.4160  177.0950  146.8720 C   0  0  0  0  0  2  0  0  0  0  0  0
  189.1720  174.9860  146.5260 C   0  0  0  0  0  2  0  0  0  0  0  0
  190.3380  175.8890  146.8870 C   0  0  0  0  0  2  0  0  0  0  0  0
  188.2490  176.1930  146.5160 C   0  0  0  0  0  3  0  0  0  0  0  0
  186.1800  176.7950  145.1050 C   0  0  0  0  0  0  0  0  0  0  0  0
  185.6270  176.9990  144.0360 O   0  0  0  0  0  0  0  0  0  0  0  0
  185.3740  176.8120  146.3650 C   0  0  0  0  0  1  0  0  0  0  0  0
  190.6820  170.0090  141.8210 N   0  0  0  0  0  2  0  0  0  0  0  0
  192.1070  169.7210  141.8790 C   0  0  0  0  0  2  0  0  0  0  0  0
  192.4300  168.9420  143.1410 C   0  0  0  0  0  2  0  0  0  0  0  0
  194.0600  169.1400  144.8930 O   0  0  0  0  0  1  0  0  0  0  0  0
  193.9050  169.0620  143.5070 C   0  0  2  0  0  3  0  0  0  0  0  0
  194.5310  170.2740  142.8250 C   0  0  0  0  0  2  0  0  0  0  0  0
  193.9450  173.0290  145.3950 C   0  0  0  0  0  2  0  0  0  0  0  0
  195.1310  173.8260  145.0850 N   0  0  0  0  0  0  0  0  0  0  0  0
  193.5910  172.1510  144.1950 C   0  0  0  0  0  2  0  0  0  0  0  0
  197.0790  171.3110  143.4810 O   0  0  0  0  0  0  0  0  0  0  0  0
  196.2880  172.9300  145.0450 C   0  0  0  0  0  2  0  0  0  0  0  0
  196.0810  171.8420  144.0350 C   0  0  0  0  0  0  0  0  0  0  0  0
  194.7490  171.3690  143.7650 N   0  0  0  0  0  0  0  0  0  0  0  0
  195.3340  174.6890  146.1710 N   0  0  0  0  0  2  0  0  0  0  0  0
  194.0600  176.7570  146.5100 C   0  0  0  0  0  1  0  0  0  0  0  0
  195.1300  176.0510  145.6920 C   0  0  2  0  0  3  0  0  0  0  0  0
  194.7150  176.0500  143.9110 S   0  0  0  0  0  0  0  0  0  0  0  0
  192.1490  175.3950  143.9670 O   0  0  0  0  0  1  0  0  0  0  0  0
  192.9640  176.5160  144.1060 C   0  0  0  0  0  2  0  0  0  0  0  0
  1 12  2  0  0  0  0
  1  4  1  0  0  0  0
  2  8  2  0  0  0  0
  3  6  1  0  0  0  0
  3  1  1  0  0  0  0
  4 13  2  0  0  0  0
  6 12  1  0  0  0  0
  7  3  2  0  0  0  0
  8  5  1  0  0  0  0
  9 14  1  0  0  0  0
  9  5  2  0  0  0  0
 10  9  1  0  0  0  0
 11 10  2  0  0  0  0
 12 11  1  0  0  0  0
 13 10  1  0  0  0  0
 13  2  1  0  0  0  0
 14 16  1  0  0  0  0
 15 18  2  0  0  0  0
 16 18  1  0  0  0  0
 18 17  1  0  0  0  0
 19 17  1  1  0  0  0
 19 23  1  0  0  0  0
 20 22  1  0  0  0  0
 21 22  1  0  0  0  0
 23 21  1  0  0  0  0
 23 20  1  0  0  0  0
 24 19  1  0  0  0  0
 24 26  1  0  0  0  0
 25 24  2  0  0  0  0
 27 28  1  0  0  0  0
 27  2  1  0  0  0  0
 28 29  1  0  0  0  0
 29 31  1  0  0  0  0
 31 30  1  1  0  0  0
 32 31  1  0  0  0  0
 32 39  1  0  0  0  0
 34 33  1  0  0  0  0
 34 40  1  0  0  0  0
 35 33  1  0  0  0  0
 36 38  2  0  0  0  0
 37 34  1  0  0  0  0
 38 37  1  0  0  0  0
 39 38  1  0  0  0  0
 39 35  1  0  0  0  0
 42 40  1  0  0  0  0
 42 41  1  1  0  0  0
 43 45  1  0  0  0  0
 43 42  1  0  0  0  0
 44 45  1  0  0  0  0
M  END
>  <MODEL>
9

>  <REMARK>
 VINA RESULT:      -5.8      3.201      7.596
  Name = 
  15 active torsions:
  status: ('A' for Active; 'I' for Inactive)
    1  A    between atoms: C_1  and  C_15
    2  A    between atoms: C_1  and  N_30
    3  A    between atoms: C_2  and  N_27
    4  A    between atoms: C_2  and  C_28
    5  A    between atoms: S_5  and  C_36
    6  A    between atoms: S_5  and  C_44
    7  A    between atoms: C_8  and  C_24
    8  A    between atoms: C_9  and  N_30
    9  A    between atoms: N_10  and  N_23
   10  A    between atoms: N_10  and  C_36
   11  A    between atoms: C_15  and  C_32
   12  A    between atoms: C_24  and  N_31
   13  A    between atoms: C_24  and  C_41
   14  A    between atoms: C_32  and  C_40
   15  A    between atoms: C_40  and  N_42
                            x       y       z     vdW  Elec       q    Type
                         _______ _______ _______ _____ _____    ______ ____

>  <TORSDO>
F 15

$$$$
