=
 OpenBabel11042417093D

 38 42  0  0  0  0  0  0  0  0999 V2000
  192.9110  175.4760  142.1400 C   0  0  0  0  0  0  0  0  0  0  0  0
  191.5380  175.5770  142.3650 C   0  0  0  0  0  0  0  0  0  0  0  0
  192.4470  173.4500  140.8390 C   0  0  0  0  0  3  0  0  0  0  0  0
  190.6550  174.6680  141.8660 C   0  0  0  0  0  0  0  0  0  0  0  0
  191.0690  173.5850  141.0910 C   0  0  0  0  0  0  0  0  0  0  0  0
  189.4060  174.9880  142.2380 N   0  0  0  0  0  0  0  0  0  0  0  0
  190.8850  176.5100  143.0730 N   0  0  0  0  0  2  0  0  0  0  0  0
  193.3640  174.3890  141.3600 C   0  0  0  0  0  3  0  0  0  0  0  0
  189.5880  176.1180  142.9690 C   0  0  0  0  0  0  0  0  0  0  0  0
  185.9820  177.6310  147.6430 C   0  0  0  0  0  3  0  0  0  0  0  0
  186.4580  178.1930  144.9440 C   0  0  0  0  0  0  0  0  0  0  0  0
  187.6980  177.8190  142.9600 C   0  0  0  0  0  0  0  0  0  0  0  0
  187.0010  176.9580  146.9640 C   0  0  0  0  0  3  0  0  0  0  0  0
  187.2400  177.2360  145.6150 C   0  0  0  0  0  0  0  0  0  0  0  0
  188.4870  176.8560  143.6280 C   0  0  0  0  0  0  0  0  0  0  0  0
  185.2020  178.5840  146.9750 C   0  0  0  0  0  3  0  0  0  0  0  0
  187.9340  178.1630  141.5960 N   0  0  0  0  0  1  0  0  0  0  0  0
  188.2290  176.5970  144.9410 N   0  0  0  0  0  0  0  0  0  0  0  0
  185.4400  178.8670  145.6260 C   0  0  0  0  0  3  0  0  0  0  0  0
  186.7090  178.4610  143.6380 N   0  0  0  0  0  0  0  0  0  0  0  0
  189.9000  172.3870  140.4570 S   0  0  0  0  0  0  0  0  0  0  0  0
  190.4430  171.1090  141.6250 C   0  0  0  0  0  2  0  0  0  0  0  0
  190.0130  171.5020  143.0270 C   0  0  0  0  0  2  0  0  0  0  0  0
  191.0890  171.2480  143.9740 N   0  0  0  0  0  0  0  0  0  0  0  0
  193.4820  171.3540  143.7940 C   0  0  0  0  0  2  0  0  0  0  0  0
  193.0150  172.4490  144.7190 C   0  0  0  0  0  2  0  0  0  0  0  0
  192.2210  170.7580  143.2010 C   0  0  0  0  0  2  0  0  0  0  0  0
  191.5230  172.5340  144.5010 C   0  0  0  0  0  2  0  0  0  0  0  0
  193.8110  176.4460  142.6820 N   0  0  0  0  0  2  0  0  0  0  0  0
  195.0720  176.0830  143.3080 C   0  0  0  0  0  2  0  0  0  0  0  0
  194.8330  175.6280  144.6040 O   0  0  0  0  0  0  0  0  0  0  0  0
  194.8140  176.7840  145.3840 C   0  0  0  0  0  2  0  0  0  0  0  0
  193.8340  176.6100  146.5260 C   0  0  0  0  0  2  0  0  0  0  0  0
  192.6320  175.9590  146.0370 N   0  0  0  0  0  2  0  0  0  0  0  0
  192.0830  175.2060  147.1500 C   0  0  0  0  0  2  0  0  0  0  0  0
  190.7090  175.6910  147.4540 C   0  0  0  0  0  0  0  0  0  0  0  0
  189.7750  174.8650  147.6250 O   0  0  0  0  0  1  0  0  0  0  0  0
  190.4660  177.0540  147.5800 O   0  0  0  0  0  0  0  0  0  0  0  0
  1  2  1  0  0  0  0
  1 29  1  0  0  0  0
  2  7  1  0  0  0  0
  3  5  2  0  0  0  0
  3  8  1  0  0  0  0
  4  6  1  0  0  0  0
  4  2  2  0  0  0  0
  5  4  1  0  0  0  0
  6  9  2  0  0  0  0
  8  1  2  0  0  0  0
  9  7  1  0  0  0  0
  9 15  1  0  0  0  0
 11 14  1  0  0  0  0
 11 19  1  0  0  0  0
 12 15  2  0  0  0  0
 12 20  1  0  0  0  0
 13 10  2  0  0  0  0
 14 13  1  0  0  0  0
 15 18  1  0  0  0  0
 16 10  1  0  0  0  0
 17 12  1  0  0  0  0
 18 14  2  0  0  0  0
 19 16  2  0  0  0  0
 20 11  2  0  0  0  0
 21  5  1  0  0  0  0
 21 22  1  0  0  0  0
 22 23  1  0  0  0  0
 23 24  1  0  0  0  0
 24 28  1  0  0  0  0
 25 26  1  0  0  0  0
 27 25  1  0  0  0  0
 27 24  1  0  0  0  0
 28 26  1  0  0  0  0
 29 30  1  0  0  0  0
 30 31  1  0  0  0  0
 31 32  1  0  0  0  0
 32 33  1  0  0  0  0
 34 33  1  0  0  0  0
 34 35  1  0  0  0  0
 35 36  1  0  0  0  0
 36 38  2  0  0  0  0
 36 37  1  0  0  0  0
M  END
>  <MODEL>
1

>  <REMARK>
 VINA RESULT:      -6.2      0.000      0.000
  Name = 
  13 active torsions:
  status: ('A' for Active; 'I' for Inactive)
    1  A    between atoms: C_2  and  C_3
    2  A    between atoms: C_3  and  N_27
    3  A    between atoms: C_5  and  N_28
    4  A    between atoms: N_6  and  C_14
    5  A    between atoms: C_13  and  S_15
    6  A    between atoms: C_14  and  C_18
    7  A    between atoms: S_15  and  C_18
    8  A    between atoms: C_20  and  C_36
    9  A    between atoms: C_22  and  O_23
   10  A    between atoms: C_22  and  N_28
   11  A    between atoms: O_23  and  C_29
   12  A    between atoms: C_26  and  N_27
   13  A    between atoms: C_26  and  C_29
                            x       y       z     vdW  Elec       q    Type
                         _______ _______ _______ _____ _____    ______ ____

>  <TORSDO>
F 13

$$$$
=
 OpenBabel11042417093D

 38 42  0  0  0  0  0  0  0  0999 V2000
  191.6820  172.6920  144.5730 C   0  0  0  0  0  0  0  0  0  0  0  0
  191.1240  173.9470  144.8120 C   0  0  0  0  0  0  0  0  0  0  0  0
  193.7680  173.5450  145.5400 C   0  0  0  0  0  3  0  0  0  0  0  0
  191.8370  174.9590  145.3790 C   0  0  0  0  0  0  0  0  0  0  0  0
  193.1690  174.7990  145.7620 C   0  0  0  0  0  0  0  0  0  0  0  0
  191.0740  176.0570  145.4850 N   0  0  0  0  0  0  0  0  0  0  0  0
  189.8790  174.3610  144.5370 N   0  0  0  0  0  2  0  0  0  0  0  0
  193.0300  172.4960  144.9480 C   0  0  0  0  0  3  0  0  0  0  0  0
  189.8860  175.6520  144.9640 C   0  0  0  0  0  0  0  0  0  0  0  0
  184.4340  177.8320  146.5950 C   0  0  0  0  0  3  0  0  0  0  0  0
  186.4570  178.1350  144.6860 C   0  0  0  0  0  0  0  0  0  0  0  0
  188.5690  177.5010  143.8190 C   0  0  0  0  0  0  0  0  0  0  0  0
  185.5720  177.0220  146.6550 C   0  0  0  0  0  3  0  0  0  0  0  0
  186.5840  177.1710  145.7030 C   0  0  0  0  0  0  0  0  0  0  0  0
  188.7020  176.5300  144.8370 C   0  0  0  0  0  0  0  0  0  0  0  0
  184.3080  178.7900  145.5820 C   0  0  0  0  0  3  0  0  0  0  0  0
  189.5950  177.7150  142.8510 N   0  0  0  0  0  1  0  0  0  0  0  0
  187.6990  176.3990  145.7500 N   0  0  0  0  0  0  0  0  0  0  0  0
  185.3190  178.9450  144.6280 C   0  0  0  0  0  3  0  0  0  0  0  0
  187.4530  178.2760  143.7750 N   0  0  0  0  0  0  0  0  0  0  0  0
  194.1010  176.1430  146.4890 S   0  0  0  0  0  0  0  0  0  0  0  0
  194.3630  176.9450  144.8820 C   0  0  0  0  0  2  0  0  0  0  0  0
  195.6020  176.3580  144.2300 C   0  0  0  0  0  2  0  0  0  0  0  0
  195.3260  176.0110  142.8440 N   0  0  0  0  0  0  0  0  0  0  0  0
  194.5310  174.0040  141.7900 C   0  0  0  0  0  2  0  0  0  0  0  0
  193.4730  175.0700  141.6640 C   0  0  0  0  0  2  0  0  0  0  0  0
  195.5870  174.5850  142.7090 C   0  0  0  0  0  2  0  0  0  0  0  0
  193.8930  176.1510  142.6320 C   0  0  0  0  0  2  0  0  0  0  0  0
  190.9050  171.6510  143.9730 N   0  0  0  0  0  2  0  0  0  0  0  0
  191.2310  171.0760  142.6770 C   0  0  0  0  0  2  0  0  0  0  0  0
  190.8930  171.9790  141.6710 O   0  0  0  0  0  0  0  0  0  0  0  0
  190.3670  171.1860  140.6500 C   0  0  0  0  0  2  0  0  0  0  0  0
  190.0400  172.0540  139.4520 C   0  0  0  0  0  2  0  0  0  0  0  0
  188.7030  172.6010  139.6010 N   0  0  0  0  0  2  0  0  0  0  0  0
  188.8280  174.0430  139.4890 C   0  0  0  0  0  2  0  0  0  0  0  0
  188.2570  174.6910  140.7030 C   0  0  0  0  0  0  0  0  0  0  0  0
  188.2660  174.0810  141.8030 O   0  0  0  0  0  1  0  0  0  0  0  0
  187.7430  175.9800  140.6240 O   0  0  0  0  0  0  0  0  0  0  0  0
  1  2  2  0  0  0  0
  1  8  1  0  0  0  0
  2  4  1  0  0  0  0
  3  5  1  0  0  0  0
  4  6  1  0  0  0  0
  4  5  2  0  0  0  0
  5 21  1  0  0  0  0
  7  2  1  0  0  0  0
  7  9  1  0  0  0  0
  8  3  2  0  0  0  0
  9  6  2  0  0  0  0
 10 13  1  0  0  0  0
 11 14  1  0  0  0  0
 12 15  1  0  0  0  0
 14 18  1  0  0  0  0
 14 13  2  0  0  0  0
 15  9  1  0  0  0  0
 15 18  2  0  0  0  0
 16 10  2  0  0  0  0
 17 12  1  0  0  0  0
 19 11  2  0  0  0  0
 19 16  1  0  0  0  0
 20 12  2  0  0  0  0
 20 11  1  0  0  0  0
 22 21  1  0  0  0  0
 23 22  1  0  0  0  0
 24 23  1  0  0  0  0
 25 27  1  0  0  0  0
 26 25  1  0  0  0  0
 26 28  1  0  0  0  0
 27 24  1  0  0  0  0
 28 24  1  0  0  0  0
 29  1  1  0  0  0  0
 30 29  1  0  0  0  0
 31 30  1  0  0  0  0
 32 31  1  0  0  0  0
 33 34  1  0  0  0  0
 33 32  1  0  0  0  0
 35 34  1  0  0  0  0
 35 36  1  0  0  0  0
 36 37  1  0  0  0  0
 38 36  2  0  0  0  0
M  END
>  <MODEL>
2

>  <REMARK>
 VINA RESULT:      -6.1      2.718      5.155
  Name = 
  13 active torsions:
  status: ('A' for Active; 'I' for Inactive)
    1  A    between atoms: C_2  and  C_3
    2  A    between atoms: C_3  and  N_27
    3  A    between atoms: C_5  and  N_28
    4  A    between atoms: N_6  and  C_14
    5  A    between atoms: C_13  and  S_15
    6  A    between atoms: C_14  and  C_18
    7  A    between atoms: S_15  and  C_18
    8  A    between atoms: C_20  and  C_36
    9  A    between atoms: C_22  and  O_23
   10  A    between atoms: C_22  and  N_28
   11  A    between atoms: O_23  and  C_29
   12  A    between atoms: C_26  and  N_27
   13  A    between atoms: C_26  and  C_29
                            x       y       z     vdW  Elec       q    Type
                         _______ _______ _______ _____ _____    ______ ____

>  <TORSDO>
F 13

$$$$
=
 OpenBabel11042417093D

 38 42  0  0  0  0  0  0  0  0999 V2000
  192.4770  175.3440  142.5450 C   0  0  0  0  0  0  0  0  0  0  0  0
  191.0850  175.4370  142.5650 C   0  0  0  0  0  0  0  0  0  0  0  0
  192.2170  173.1810  141.4180 C   0  0  0  0  0  3  0  0  0  0  0  0
  190.2880  174.4610  142.0480 C   0  0  0  0  0  0  0  0  0  0  0  0
  190.8160  173.3110  141.4600 C   0  0  0  0  0  0  0  0  0  0  0  0
  188.9970  174.7900  142.2060 N   0  0  0  0  0  0  0  0  0  0  0  0
  190.3320  176.4250  143.0700 N   0  0  0  0  0  2  0  0  0  0  0  0
  193.0440  174.1920  141.9580 C   0  0  0  0  0  3  0  0  0  0  0  0
  189.0650  175.9940  142.8300 C   0  0  0  0  0  0  0  0  0  0  0  0
  184.6580  177.7040  146.6750 C   0  0  0  0  0  3  0  0  0  0  0  0
  185.6660  178.1870  144.1110 C   0  0  0  0  0  0  0  0  0  0  0  0
  187.2590  177.7360  142.4160 C   0  0  0  0  0  0  0  0  0  0  0  0
  185.7720  176.9910  146.2220 C   0  0  0  0  0  3  0  0  0  0  0  0
  186.2770  177.2300  144.9410 C   0  0  0  0  0  0  0  0  0  0  0  0
  187.8770  176.7730  143.2450 C   0  0  0  0  0  0  0  0  0  0  0  0
  184.0490  178.6560  145.8480 C   0  0  0  0  0  3  0  0  0  0  0  0
  187.7660  178.0410  141.1180 N   0  0  0  0  0  1  0  0  0  0  0  0
  187.3610  176.5520  144.4870 N   0  0  0  0  0  0  0  0  0  0  0  0
  184.5530  178.9000  144.5660 C   0  0  0  0  0  3  0  0  0  0  0  0
  186.1740  178.4160  142.8740 N   0  0  0  0  0  0  0  0  0  0  0  0
  189.7570  172.0270  140.8030 S   0  0  0  0  0  0  0  0  0  0  0  0
  190.4060  172.2330  139.1210 C   0  0  0  0  0  2  0  0  0  0  0  0
  189.2560  172.5350  138.1770 C   0  0  0  0  0  2  0  0  0  0  0  0
  189.2600  173.9440  137.8120 N   0  0  0  0  0  0  0  0  0  0  0  0
  188.7590  175.1030  135.7690 C   0  0  0  0  0  2  0  0  0  0  0  0
  187.7020  175.4400  136.7900 C   0  0  0  0  0  2  0  0  0  0  0  0
  189.5980  174.0100  136.3970 C   0  0  0  0  0  2  0  0  0  0  0  0
  187.8880  174.4230  137.8920 C   0  0  0  0  0  2  0  0  0  0  0  0
  193.2840  176.3860  143.0990 N   0  0  0  0  0  2  0  0  0  0  0  0
  194.0670  176.2120  144.3120 C   0  0  0  0  0  2  0  0  0  0  0  0
  193.5970  177.0800  145.2970 O   0  0  0  0  0  0  0  0  0  0  0  0
  193.7990  176.3940  146.4950 C   0  0  0  0  0  2  0  0  0  0  0  0
  192.8490  175.2170  146.5720 C   0  0  0  0  0  2  0  0  0  0  0  0
  191.7190  175.5610  147.4160 N   0  0  0  0  0  2  0  0  0  0  0  0
  190.5960  175.8040  146.5290 C   0  0  0  0  0  2  0  0  0  0  0  0
  189.6560  174.6490  146.5830 C   0  0  0  0  0  0  0  0  0  0  0  0
  188.8950  174.5050  147.5750 O   0  0  0  0  0  1  0  0  0  0  0  0
  189.6010  173.7490  145.5250 O   0  0  0  0  0  0  0  0  0  0  0  0
  1  2  1  0  0  0  0
  1 29  1  0  0  0  0
  2  7  1  0  0  0  0
  3  5  2  0  0  0  0
  3  8  1  0  0  0  0
  4  6  1  0  0  0  0
  4  2  2  0  0  0  0
  5  4  1  0  0  0  0
  6  9  2  0  0  0  0
  8  1  2  0  0  0  0
  9  7  1  0  0  0  0
  9 15  1  0  0  0  0
 11 19  2  0  0  0  0
 11 14  1  0  0  0  0
 12 20  2  0  0  0  0
 12 15  1  0  0  0  0
 13 10  1  0  0  0  0
 14 13  2  0  0  0  0
 15 18  2  0  0  0  0
 16 10  2  0  0  0  0
 17 12  1  0  0  0  0
 18 14  1  0  0  0  0
 19 16  1  0  0  0  0
 20 11  1  0  0  0  0
 21  5  1  0  0  0  0
 22 21  1  0  0  0  0
 23 22  1  0  0  0  0
 24 28  1  0  0  0  0
 24 23  1  0  0  0  0
 25 27  1  0  0  0  0
 25 26  1  0  0  0  0
 26 28  1  0  0  0  0
 27 24  1  0  0  0  0
 29 30  1  0  0  0  0
 30 31  1  0  0  0  0
 31 32  1  0  0  0  0
 32 33  1  0  0  0  0
 33 34  1  0  0  0  0
 35 36  1  0  0  0  0
 35 34  1  0  0  0  0
 36 37  1  0  0  0  0
 38 36  2  0  0  0  0
M  END
>  <MODEL>
3

>  <REMARK>
 VINA RESULT:      -6.1      2.242      3.487
  Name = 
  13 active torsions:
  status: ('A' for Active; 'I' for Inactive)
    1  A    between atoms: C_2  and  C_3
    2  A    between atoms: C_3  and  N_27
    3  A    between atoms: C_5  and  N_28
    4  A    between atoms: N_6  and  C_14
    5  A    between atoms: C_13  and  S_15
    6  A    between atoms: C_14  and  C_18
    7  A    between atoms: S_15  and  C_18
    8  A    between atoms: C_20  and  C_36
    9  A    between atoms: C_22  and  O_23
   10  A    between atoms: C_22  and  N_28
   11  A    between atoms: O_23  and  C_29
   12  A    between atoms: C_26  and  N_27
   13  A    between atoms: C_26  and  C_29
                            x       y       z     vdW  Elec       q    Type
                         _______ _______ _______ _____ _____    ______ ____

>  <TORSDO>
F 13

$$$$
=
 OpenBabel11042417093D

 38 42  0  0  0  0  0  0  0  0999 V2000
  192.3310  174.7480  141.8250 C   0  0  0  0  0  0  0  0  0  0  0  0
  191.7580  175.3140  142.9630 C   0  0  0  0  0  0  0  0  0  0  0  0
  194.5150  175.4370  142.7040 C   0  0  0  0  0  3  0  0  0  0  0  0
  192.5080  175.9170  143.9260 C   0  0  0  0  0  0  0  0  0  0  0  0
  193.8980  176.0000  143.8370 C   0  0  0  0  0  0  0  0  0  0  0  0
  191.7140  176.3870  144.9010 N   0  0  0  0  0  0  0  0  0  0  0  0
  190.4580  175.3750  143.2880 N   0  0  0  0  0  2  0  0  0  0  0  0
  193.7360  174.8150  141.7020 C   0  0  0  0  0  3  0  0  0  0  0  0
  190.4730  176.0340  144.4770 C   0  0  0  0  0  0  0  0  0  0  0  0
  185.2740  179.0500  145.4820 C   0  0  0  0  0  3  0  0  0  0  0  0
  186.8860  177.0140  146.5220 C   0  0  0  0  0  0  0  0  0  0  0  0
  188.8360  175.6740  146.3900 C   0  0  0  0  0  0  0  0  0  0  0  0
  186.4650  178.7100  144.8350 C   0  0  0  0  0  3  0  0  0  0  0  0
  187.2730  177.6940  145.3530 C   0  0  0  0  0  0  0  0  0  0  0  0
  189.2310  176.3540  145.2150 C   0  0  0  0  0  0  0  0  0  0  0  0
  184.8890  178.3730  146.6460 C   0  0  0  0  0  3  0  0  0  0  0  0
  189.6090  174.6040  146.9300 N   0  0  0  0  0  1  0  0  0  0  0  0
  188.4300  177.3460  144.7340 N   0  0  0  0  0  0  0  0  0  0  0  0
  185.6940  177.3540  147.1660 C   0  0  0  0  0  3  0  0  0  0  0  0
  187.6750  176.0220  147.0060 N   0  0  0  0  0  0  0  0  0  0  0  0
  194.8700  176.8120  145.1000 S   0  0  0  0  0  0  0  0  0  0  0  0
  194.8590  175.3490  146.1730 C   0  0  0  0  0  2  0  0  0  0  0  0
  196.0220  174.4480  145.7970 C   0  0  0  0  0  2  0  0  0  0  0  0
  195.5710  173.0700  145.6690 N   0  0  0  0  0  0  0  0  0  0  0  0
  193.6200  172.0750  144.6820 C   0  0  0  0  0  2  0  0  0  0  0  0
  194.8280  171.6860  143.8680 C   0  0  0  0  0  2  0  0  0  0  0  0
  194.1150  173.1020  145.6800 C   0  0  0  0  0  2  0  0  0  0  0  0
  195.9260  172.6140  144.3330 C   0  0  0  0  0  2  0  0  0  0  0  0
  191.5140  174.1240  140.8310 N   0  0  0  0  0  2  0  0  0  0  0  0
  191.2160  172.7000  140.8410 C   0  0  0  0  0  2  0  0  0  0  0  0
  189.9060  172.4970  140.4110 O   0  0  0  0  0  0  0  0  0  0  0  0
  189.1610  172.4040  141.5870 C   0  0  0  0  0  2  0  0  0  0  0  0
  187.8050  173.0470  141.3800 C   0  0  0  0  0  2  0  0  0  0  0  0
  187.7750  174.3370  142.0460 N   0  0  0  0  0  2  0  0  0  0  0  0
  188.0000  175.3400  141.0200 C   0  0  0  0  0  2  0  0  0  0  0  0
  187.4040  176.6360  141.4480 C   0  0  0  0  0  0  0  0  0  0  0  0
  188.0150  177.7130  141.2230 O   0  0  0  0  0  0  0  0  0  0  0  0
  186.1600  176.6570  142.0680 O   0  0  0  0  0  1  0  0  0  0  0  0
  1  2  1  0  0  0  0
  2  7  1  0  0  0  0
  2  4  2  0  0  0  0
  3  5  2  0  0  0  0
  4  6  1  0  0  0  0
  5  4  1  0  0  0  0
  5 21  1  0  0  0  0
  7  9  1  0  0  0  0
  8  1  2  0  0  0  0
  8  3  1  0  0  0  0
  9  6  2  0  0  0  0
  9 15  1  0  0  0  0
 10 16  1  0  0  0  0
 11 20  1  0  0  0  0
 11 19  1  0  0  0  0
 12 17  1  0  0  0  0
 12 20  2  0  0  0  0
 13 14  1  0  0  0  0
 13 10  2  0  0  0  0
 14 11  2  0  0  0  0
 15 12  1  0  0  0  0
 16 19  2  0  0  0  0
 18 15  2  0  0  0  0
 18 14  1  0  0  0  0
 21 22  1  0  0  0  0
 23 22  1  0  0  0  0
 24 27  1  0  0  0  0
 24 23  1  0  0  0  0
 25 27  1  0  0  0  0
 26 28  1  0  0  0  0
 26 25  1  0  0  0  0
 28 24  1  0  0  0  0
 29 30  1  0  0  0  0
 29  1  1  0  0  0  0
 31 30  1  0  0  0  0
 31 32  1  0  0  0  0
 33 32  1  0  0  0  0
 33 34  1  0  0  0  0
 35 36  1  0  0  0  0
 35 34  1  0  0  0  0
 36 38  1  0  0  0  0
 37 36  2  0  0  0  0
M  END
>  <MODEL>
4

>  <REMARK>
 VINA RESULT:      -6.0      2.930      4.865
  Name = 
  13 active torsions:
  status: ('A' for Active; 'I' for Inactive)
    1  A    between atoms: C_2  and  C_3
    2  A    between atoms: C_3  and  N_27
    3  A    between atoms: C_5  and  N_28
    4  A    between atoms: N_6  and  C_14
    5  A    between atoms: C_13  and  S_15
    6  A    between atoms: C_14  and  C_18
    7  A    between atoms: S_15  and  C_18
    8  A    between atoms: C_20  and  C_36
    9  A    between atoms: C_22  and  O_23
   10  A    between atoms: C_22  and  N_28
   11  A    between atoms: O_23  and  C_29
   12  A    between atoms: C_26  and  N_27
   13  A    between atoms: C_26  and  C_29
                            x       y       z     vdW  Elec       q    Type
                         _______ _______ _______ _____ _____    ______ ____

>  <TORSDO>
F 13

$$$$
=
 OpenBabel11042417093D

 38 42  0  0  0  0  0  0  0  0999 V2000
  189.5970  177.2220  142.6580 C   0  0  0  0  0  0  0  0  0  0  0  0
  190.2430  175.9870  142.5920 C   0  0  0  0  0  0  0  0  0  0  0  0
  191.4140  177.9810  144.1190 C   0  0  0  0  0  3  0  0  0  0  0  0
  191.4080  175.7450  143.2530 C   0  0  0  0  0  0  0  0  0  0  0  0
  192.0330  176.7210  144.0300 C   0  0  0  0  0  0  0  0  0  0  0  0
  191.8080  174.4830  143.0340 N   0  0  0  0  0  0  0  0  0  0  0  0
  189.8560  174.8900  141.9260 N   0  0  0  0  0  2  0  0  0  0  0  0
  190.2020  178.2320  143.4380 C   0  0  0  0  0  3  0  0  0  0  0  0
  190.8380  173.9950  142.2180 C   0  0  0  0  0  0  0  0  0  0  0  0
  191.5530  169.6650  137.9900 C   0  0  0  0  0  3  0  0  0  0  0  0
  190.8170  170.0480  140.6620 C   0  0  0  0  0  0  0  0  0  0  0  0
  190.4590  171.4970  142.5020 C   0  0  0  0  0  0  0  0  0  0  0  0
  191.5430  170.9550  138.5280 C   0  0  0  0  0  3  0  0  0  0  0  0
  191.1740  171.1500  139.8630 C   0  0  0  0  0  0  0  0  0  0  0  0
  190.8170  172.6080  141.7050 C   0  0  0  0  0  0  0  0  0  0  0  0
  191.1970  168.5690  138.7850 C   0  0  0  0  0  3  0  0  0  0  0  0
  190.1170  171.6440  143.8790 N   0  0  0  0  0  1  0  0  0  0  0  0
  191.1650  172.3930  140.4040 N   0  0  0  0  0  0  0  0  0  0  0  0
  190.8300  168.7590  140.1220 C   0  0  0  0  0  3  0  0  0  0  0  0
  190.4730  170.2510  141.9580 N   0  0  0  0  0  0  0  0  0  0  0  0
  193.5550  176.3830  144.9090 S   0  0  0  0  0  0  0  0  0  0  0  0
  192.7390  176.4580  146.5280 C   0  0  0  0  0  2  0  0  0  0  0  0
  192.0530  175.1310  146.8000 C   0  0  0  0  0  2  0  0  0  0  0  0
  190.6980  175.3530  147.2830 N   0  0  0  0  0  0  0  0  0  0  0  0
  189.0850  177.0870  146.8810 C   0  0  0  0  0  2  0  0  0  0  0  0
  188.5840  175.8040  146.2660 C   0  0  0  0  0  2  0  0  0  0  0  0
  190.5020  176.7950  147.3320 C   0  0  0  0  0  2  0  0  0  0  0  0
  189.7820  174.8840  146.2540 C   0  0  0  0  0  2  0  0  0  0  0  0
  188.3720  177.4410  141.9530 N   0  0  0  0  0  2  0  0  0  0  0  0
  187.0850  176.9880  142.4570 C   0  0  0  0  0  2  0  0  0  0  0  0
  186.7300  177.7450  143.5720 O   0  0  0  0  0  0  0  0  0  0  0  0
  186.2230  178.9320  143.0440 C   0  0  0  0  0  2  0  0  0  0  0  0
  185.2290  179.5350  144.0160 C   0  0  0  0  0  2  0  0  0  0  0  0
  184.3120  178.5060  144.4720 N   0  0  0  0  0  2  0  0  0  0  0  0
  184.1150  178.7250  145.8940 C   0  0  0  0  0  2  0  0  0  0  0  0
  184.9880  177.7990  146.6690 C   0  0  0  0  0  0  0  0  0  0  0  0
  185.1000  176.5970  146.3130 O   0  0  0  0  0  0  0  0  0  0  0  0
  185.7000  178.2720  147.7650 O   0  0  0  0  0  1  0  0  0  0  0  0
  1  8  1  0  0  0  0
  2  1  2  0  0  0  0
  2  4  1  0  0  0  0
  4  5  2  0  0  0  0
  5  3  1  0  0  0  0
  5 21  1  0  0  0  0
  6  4  1  0  0  0  0
  7  9  1  0  0  0  0
  7  2  1  0  0  0  0
  8  3  2  0  0  0  0
  9  6  2  0  0  0  0
 10 13  2  0  0  0  0
 10 16  1  0  0  0  0
 11 20  1  0  0  0  0
 12 17  1  0  0  0  0
 13 14  1  0  0  0  0
 14 18  1  0  0  0  0
 14 11  2  0  0  0  0
 15  9  1  0  0  0  0
 15 12  1  0  0  0  0
 16 19  2  0  0  0  0
 18 15  2  0  0  0  0
 19 11  1  0  0  0  0
 20 12  2  0  0  0  0
 21 22  1  0  0  0  0
 22 23  1  0  0  0  0
 23 24  1  0  0  0  0
 24 27  1  0  0  0  0
 25 27  1  0  0  0  0
 26 25  1  0  0  0  0
 28 26  1  0  0  0  0
 28 24  1  0  0  0  0
 29 30  1  0  0  0  0
 29  1  1  0  0  0  0
 30 31  1  0  0  0  0
 32 31  1  0  0  0  0
 32 33  1  0  0  0  0
 33 34  1  0  0  0  0
 34 35  1  0  0  0  0
 35 36  1  0  0  0  0
 36 38  1  0  0  0  0
 37 36  2  0  0  0  0
M  END
>  <MODEL>
5

>  <REMARK>
 VINA RESULT:      -6.0      2.814      7.542
  Name = 
  13 active torsions:
  status: ('A' for Active; 'I' for Inactive)
    1  A    between atoms: C_2  and  C_3
    2  A    between atoms: C_3  and  N_27
    3  A    between atoms: C_5  and  N_28
    4  A    between atoms: N_6  and  C_14
    5  A    between atoms: C_13  and  S_15
    6  A    between atoms: C_14  and  C_18
    7  A    between atoms: S_15  and  C_18
    8  A    between atoms: C_20  and  C_36
    9  A    between atoms: C_22  and  O_23
   10  A    between atoms: C_22  and  N_28
   11  A    between atoms: O_23  and  C_29
   12  A    between atoms: C_26  and  N_27
   13  A    between atoms: C_26  and  C_29
                            x       y       z     vdW  Elec       q    Type
                         _______ _______ _______ _____ _____    ______ ____

>  <TORSDO>
F 13

$$$$
=
 OpenBabel11042417093D

 38 42  0  0  0  0  0  0  0  0999 V2000
  190.1990  173.2700  140.8580 C   0  0  0  0  0  0  0  0  0  0  0  0
  189.7520  174.3720  141.5870 C   0  0  0  0  0  0  0  0  0  0  0  0
  192.4850  173.9330  141.4460 C   0  0  0  0  0  3  0  0  0  0  0  0
  190.6130  175.2210  142.2130 C   0  0  0  0  0  0  0  0  0  0  0  0
  191.9950  175.0360  142.1700 C   0  0  0  0  0  0  0  0  0  0  0  0
  189.9300  176.1980  142.8280 N   0  0  0  0  0  0  0  0  0  0  0  0
  188.4880  174.7750  141.7810 N   0  0  0  0  0  2  0  0  0  0  0  0
  191.5930  173.0540  140.7920 C   0  0  0  0  0  3  0  0  0  0  0  0
  188.6380  175.8900  142.5440 C   0  0  0  0  0  0  0  0  0  0  0  0
  184.5090  177.8540  146.5720 C   0  0  0  0  0  3  0  0  0  0  0  0
  185.3390  178.1760  143.9200 C   0  0  0  0  0  0  0  0  0  0  0  0
  186.8110  177.6150  142.1500 C   0  0  0  0  0  0  0  0  0  0  0  0
  185.5870  177.1090  146.0880 C   0  0  0  0  0  3  0  0  0  0  0  0
  186.0040  177.2670  144.7630 C   0  0  0  0  0  0  0  0  0  0  0  0
  187.4830  176.6990  142.9920 C   0  0  0  0  0  0  0  0  0  0  0  0
  183.8460  178.7580  145.7330 C   0  0  0  0  0  3  0  0  0  0  0  0
  187.2280  177.8380  140.8050 N   0  0  0  0  0  1  0  0  0  0  0  0
  187.0530  176.5570  144.2770 N   0  0  0  0  0  0  0  0  0  0  0  0
  184.2620  178.9220  144.4070 C   0  0  0  0  0  3  0  0  0  0  0  0
  185.7620  178.3280  142.6400 N   0  0  0  0  0  0  0  0  0  0  0  0
  193.1170  176.1700  142.9810 S   0  0  0  0  0  0  0  0  0  0  0  0
  192.9760  175.3090  144.5720 C   0  0  0  0  0  2  0  0  0  0  0  0
  192.5480  176.3010  145.6380 C   0  0  0  0  0  2  0  0  0  0  0  0
  191.6010  175.6820  146.5530 N   0  0  0  0  0  0  0  0  0  0  0  0
  189.2230  175.8820  146.8250 C   0  0  0  0  0  2  0  0  0  0  0  0
  189.5390  174.4970  146.3200 C   0  0  0  0  0  2  0  0  0  0  0  0
  190.5300  176.6450  146.7650 C   0  0  0  0  0  2  0  0  0  0  0  0
  190.9730  174.5720  145.8510 C   0  0  0  0  0  2  0  0  0  0  0  0
  189.2670  172.4000  140.2100 N   0  0  0  0  0  2  0  0  0  0  0  0
  189.4580  171.9170  138.8510 C   0  0  0  0  0  2  0  0  0  0  0  0
  189.4950  173.0010  137.9750 O   0  0  0  0  0  0  0  0  0  0  0  0
  189.6750  172.4290  136.7160 C   0  0  0  0  0  2  0  0  0  0  0  0
  189.5210  173.4930  135.6480 C   0  0  0  0  0  2  0  0  0  0  0  0
  188.8850  174.6660  136.2230 N   0  0  0  0  0  2  0  0  0  0  0  0
  189.0030  175.7270  135.2390 C   0  0  0  0  0  2  0  0  0  0  0  0
  187.8950  176.7050  135.4230 C   0  0  0  0  0  0  0  0  0  0  0  0
  188.0650  177.9130  135.1120 O   0  0  0  0  0  0  0  0  0  0  0  0
  186.6650  176.2770  135.9090 O   0  0  0  0  0  1  0  0  0  0  0  0
  1  2  1  0  0  0  0
  2  7  1  0  0  0  0
  2  4  2  0  0  0  0
  3  5  2  0  0  0  0
  4  6  1  0  0  0  0
  5  4  1  0  0  0  0
  5 21  1  0  0  0  0
  7  9  1  0  0  0  0
  8  1  2  0  0  0  0
  8  3  1  0  0  0  0
  9  6  2  0  0  0  0
  9 15  1  0  0  0  0
 11 19  2  0  0  0  0
 11 14  1  0  0  0  0
 12 20  2  0  0  0  0
 12 15  1  0  0  0  0
 13 10  1  0  0  0  0
 14 13  2  0  0  0  0
 15 18  2  0  0  0  0
 16 10  2  0  0  0  0
 17 12  1  0  0  0  0
 18 14  1  0  0  0  0
 19 16  1  0  0  0  0
 20 11  1  0  0  0  0
 21 22  1  0  0  0  0
 22 23  1  0  0  0  0
 23 24  1  0  0  0  0
 24 27  1  0  0  0  0
 26 25  1  0  0  0  0
 27 25  1  0  0  0  0
 28 26  1  0  0  0  0
 28 24  1  0  0  0  0
 29  1  1  0  0  0  0
 30 29  1  0  0  0  0
 31 30  1  0  0  0  0
 32 31  1  0  0  0  0
 33 34  1  0  0  0  0
 33 32  1  0  0  0  0
 35 36  1  0  0  0  0
 35 34  1  0  0  0  0
 36 38  1  0  0  0  0
 37 36  2  0  0  0  0
M  END
>  <MODEL>
6

>  <REMARK>
 VINA RESULT:      -5.9      4.135      6.311
  Name = 
  13 active torsions:
  status: ('A' for Active; 'I' for Inactive)
    1  A    between atoms: C_2  and  C_3
    2  A    between atoms: C_3  and  N_27
    3  A    between atoms: C_5  and  N_28
    4  A    between atoms: N_6  and  C_14
    5  A    between atoms: C_13  and  S_15
    6  A    between atoms: C_14  and  C_18
    7  A    between atoms: S_15  and  C_18
    8  A    between atoms: C_20  and  C_36
    9  A    between atoms: C_22  and  O_23
   10  A    between atoms: C_22  and  N_28
   11  A    between atoms: O_23  and  C_29
   12  A    between atoms: C_26  and  N_27
   13  A    between atoms: C_26  and  C_29
                            x       y       z     vdW  Elec       q    Type
                         _______ _______ _______ _____ _____    ______ ____

>  <TORSDO>
F 13

$$$$
=
 OpenBabel11042417093D

 38 42  0  0  0  0  0  0  0  0999 V2000
  191.0460  176.8750  143.3370 C   0  0  0  0  0  0  0  0  0  0  0  0
  190.3930  175.8530  142.6490 C   0  0  0  0  0  0  0  0  0  0  0  0
  188.8410  177.6450  144.0850 C   0  0  0  0  0  3  0  0  0  0  0  0
  189.0370  175.7240  142.6630 C   0  0  0  0  0  0  0  0  0  0  0  0
  188.2190  176.6010  143.3750 C   0  0  0  0  0  0  0  0  0  0  0  0
  188.6670  174.6730  141.9150 N   0  0  0  0  0  0  0  0  0  0  0  0
  190.9380  174.8900  141.8920 N   0  0  0  0  0  2  0  0  0  0  0  0
  190.2470  177.7820  144.0670 C   0  0  0  0  0  3  0  0  0  0  0  0
  189.8540  174.1890  141.4640 C   0  0  0  0  0  0  0  0  0  0  0  0
  189.7820  171.3480  136.0740 C   0  0  0  0  0  3  0  0  0  0  0  0
  190.1940  170.9010  138.8050 C   0  0  0  0  0  0  0  0  0  0  0  0
  190.2990  171.7240  141.0240 C   0  0  0  0  0  0  0  0  0  0  0  0
  189.6690  172.4100  136.9750 C   0  0  0  0  0  3  0  0  0  0  0  0
  189.8730  172.1890  138.3400 C   0  0  0  0  0  0  0  0  0  0  0  0
  189.9760  173.0220  140.5640 C   0  0  0  0  0  0  0  0  0  0  0  0
  190.1000  170.0650  136.5370 C   0  0  0  0  0  3  0  0  0  0  0  0
  190.5560  171.4630  142.4020 N   0  0  0  0  0  1  0  0  0  0  0  0
  189.7740  173.2100  139.2290 N   0  0  0  0  0  0  0  0  0  0  0  0
  190.3080  169.8400  137.9020 C   0  0  0  0  0  3  0  0  0  0  0  0
  190.4010  170.7040  140.1310 N   0  0  0  0  0  0  0  0  0  0  0  0
  186.4380  176.4310  143.3700 S   0  0  0  0  0  0  0  0  0  0  0  0
  186.1880  178.1090  144.0130 C   0  0  0  0  0  2  0  0  0  0  0  0
  184.7240  178.2940  144.3670 C   0  0  0  0  0  2  0  0  0  0  0  0
  184.5720  178.4910  145.8010 N   0  0  0  0  0  0  0  0  0  0  0  0
  185.6810  177.5390  147.7070 C   0  0  0  0  0  2  0  0  0  0  0  0
  186.0460  178.9990  147.6120 C   0  0  0  0  0  2  0  0  0  0  0  0
  184.9160  177.2280  146.4370 C   0  0  0  0  0  2  0  0  0  0  0  0
  185.6080  179.4200  146.2290 C   0  0  0  0  0  2  0  0  0  0  0  0
  192.4710  176.9840  143.2990 N   0  0  0  0  0  2  0  0  0  0  0  0
  193.3320  176.3760  144.3020 C   0  0  0  0  0  2  0  0  0  0  0  0
  193.4580  177.2390  145.3890 O   0  0  0  0  0  0  0  0  0  0  0  0
  193.8380  176.4160  146.4490 C   0  0  0  0  0  2  0  0  0  0  0  0
  192.6980  175.4820  146.8010 C   0  0  0  0  0  2  0  0  0  0  0  0
  191.4990  176.2600  147.0620 N   0  0  0  0  0  2  0  0  0  0  0  0
  190.5470  175.3590  147.6860 C   0  0  0  0  0  2  0  0  0  0  0  0
  189.4730  175.0140  146.7130 C   0  0  0  0  0  0  0  0  0  0  0  0
  188.3250  175.5120  146.8420 O   0  0  0  0  0  1  0  0  0  0  0  0
  189.7500  174.1650  145.6480 O   0  0  0  0  0  0  0  0  0  0  0  0
  1  8  1  0  0  0  0
  2  4  1  0  0  0  0
  2  1  2  0  0  0  0
  4  5  2  0  0  0  0
  5  3  1  0  0  0  0
  6  4  1  0  0  0  0
  7  2  1  0  0  0  0
  8  3  2  0  0  0  0
  9  7  1  0  0  0  0
  9  6  2  0  0  0  0
 10 16  2  0  0  0  0
 10 13  1  0  0  0  0
 11 20  1  0  0  0  0
 12 17  1  0  0  0  0
 13 14  2  0  0  0  0
 14 11  1  0  0  0  0
 14 18  1  0  0  0  0
 15 12  1  0  0  0  0
 15  9  1  0  0  0  0
 16 19  1  0  0  0  0
 18 15  2  0  0  0  0
 19 11  2  0  0  0  0
 20 12  2  0  0  0  0
 21  5  1  0  0  0  0
 21 22  1  0  0  0  0
 22 23  1  0  0  0  0
 23 24  1  0  0  0  0
 24 28  1  0  0  0  0
 24 27  1  0  0  0  0
 26 25  1  0  0  0  0
 27 25  1  0  0  0  0
 28 26  1  0  0  0  0
 29  1  1  0  0  0  0
 29 30  1  0  0  0  0
 30 31  1  0  0  0  0
 31 32  1  0  0  0  0
 32 33  1  0  0  0  0
 33 34  1  0  0  0  0
 34 35  1  0  0  0  0
 36 37  1  0  0  0  0
 36 35  1  0  0  0  0
 38 36  2  0  0  0  0
M  END
>  <MODEL>
7

>  <REMARK>
 VINA RESULT:      -5.9      2.504      7.218
  Name = 
  13 active torsions:
  status: ('A' for Active; 'I' for Inactive)
    1  A    between atoms: C_2  and  C_3
    2  A    between atoms: C_3  and  N_27
    3  A    between atoms: C_5  and  N_28
    4  A    between atoms: N_6  and  C_14
    5  A    between atoms: C_13  and  S_15
    6  A    between atoms: C_14  and  C_18
    7  A    between atoms: S_15  and  C_18
    8  A    between atoms: C_20  and  C_36
    9  A    between atoms: C_22  and  O_23
   10  A    between atoms: C_22  and  N_28
   11  A    between atoms: O_23  and  C_29
   12  A    between atoms: C_26  and  N_27
   13  A    between atoms: C_26  and  C_29
                            x       y       z     vdW  Elec       q    Type
                         _______ _______ _______ _____ _____    ______ ____

>  <TORSDO>
F 13

$$$$
=
 OpenBabel11042417093D

 38 42  0  0  0  0  0  0  0  0999 V2000
  191.6920  174.8370  141.8000 C   0  0  0  0  0  0  0  0  0  0  0  0
  190.3270  175.1140  141.8680 C   0  0  0  0  0  0  0  0  0  0  0  0
  191.1530  173.0720  140.1850 C   0  0  0  0  0  3  0  0  0  0  0  0
  189.4110  174.4140  141.1440 C   0  0  0  0  0  0  0  0  0  0  0  0
  189.7830  173.3800  140.2840 C   0  0  0  0  0  0  0  0  0  0  0  0
  188.1760  174.8690  141.4010 N   0  0  0  0  0  0  0  0  0  0  0  0
  189.7110  176.0430  142.6120 N   0  0  0  0  0  2  0  0  0  0  0  0
  192.1040  173.7960  140.9400 C   0  0  0  0  0  3  0  0  0  0  0  0
  188.4000  175.8640  142.2980 C   0  0  0  0  0  0  0  0  0  0  0  0
  184.8010  177.7060  146.8580 C   0  0  0  0  0  3  0  0  0  0  0  0
  185.3400  178.1480  144.1490 C   0  0  0  0  0  0  0  0  0  0  0  0
  186.5900  177.6470  142.1990 C   0  0  0  0  0  0  0  0  0  0  0  0
  185.7980  176.9630  146.2190 C   0  0  0  0  0  3  0  0  0  0  0  0
  186.0690  177.1810  144.8650 C   0  0  0  0  0  0  0  0  0  0  0  0
  187.3250  176.6740  142.9130 C   0  0  0  0  0  0  0  0  0  0  0  0
  184.0750  178.6670  146.1440 C   0  0  0  0  0  3  0  0  0  0  0  0
  186.8610  177.9320  140.8280 N   0  0  0  0  0  1  0  0  0  0  0  0
  187.0370  176.4740  144.2300 N   0  0  0  0  0  0  0  0  0  0  0  0
  184.3450  178.8910  144.7900 C   0  0  0  0  0  3  0  0  0  0  0  0
  185.6220  178.3570  142.8380 N   0  0  0  0  0  0  0  0  0  0  0  0
  188.5670  172.4550  139.3530 S   0  0  0  0  0  0  0  0  0  0  0  0
  188.8490  173.4290  137.8490 C   0  0  0  0  0  2  0  0  0  0  0  0
  187.8470  174.5690  137.7990 C   0  0  0  0  0  2  0  0  0  0  0  0
  187.6480  175.0050  136.4250 N   0  0  0  0  0  0  0  0  0  0  0  0
  187.6780  177.1660  135.3760 C   0  0  0  0  0  2  0  0  0  0  0  0
  188.8590  176.3690  134.8810 C   0  0  0  0  0  2  0  0  0  0  0  0
  187.0670  176.3380  136.4880 C   0  0  0  0  0  2  0  0  0  0  0  0
  188.9620  175.1970  135.8280 C   0  0  0  0  0  2  0  0  0  0  0  0
  192.6280  175.5910  142.5760 N   0  0  0  0  0  2  0  0  0  0  0  0
  192.7610  175.4320  144.0160 C   0  0  0  0  0  2  0  0  0  0  0  0
  192.4070  176.6230  144.6490 O   0  0  0  0  0  0  0  0  0  0  0  0
  193.3890  176.8080  145.6230 C   0  0  0  0  0  2  0  0  0  0  0  0
  192.9860  176.0870  146.8920 C   0  0  0  0  0  2  0  0  0  0  0  0
  191.6330  176.4670  147.2570 N   0  0  0  0  0  2  0  0  0  0  0  0
  191.0100  175.2890  147.8320 C   0  0  0  0  0  2  0  0  0  0  0  0
  189.8170  174.9090  147.0260 C   0  0  0  0  0  0  0  0  0  0  0  0
  189.9550  174.5620  145.8240 O   0  0  0  0  0  0  0  0  0  0  0  0
  188.5550  174.9090  147.6110 O   0  0  0  0  0  1  0  0  0  0  0  0
  1  2  1  0  0  0  0
  1 29  1  0  0  0  0
  2  7  1  0  0  0  0
  3  5  2  0  0  0  0
  3  8  1  0  0  0  0
  4  6  1  0  0  0  0
  4  2  2  0  0  0  0
  5  4  1  0  0  0  0
  6  9  2  0  0  0  0
  8  1  2  0  0  0  0
  9  7  1  0  0  0  0
  9 15  1  0  0  0  0
 11 19  2  0  0  0  0
 11 14  1  0  0  0  0
 12 20  2  0  0  0  0
 12 15  1  0  0  0  0
 13 10  1  0  0  0  0
 14 13  2  0  0  0  0
 15 18  2  0  0  0  0
 16 10  2  0  0  0  0
 17 12  1  0  0  0  0
 18 14  1  0  0  0  0
 19 16  1  0  0  0  0
 20 11  1  0  0  0  0
 21  5  1  0  0  0  0
 22 21  1  0  0  0  0
 23 22  1  0  0  0  0
 24 27  1  0  0  0  0
 24 23  1  0  0  0  0
 25 27  1  0  0  0  0
 26 25  1  0  0  0  0
 26 28  1  0  0  0  0
 28 24  1  0  0  0  0
 29 30  1  0  0  0  0
 30 31  1  0  0  0  0
 31 32  1  0  0  0  0
 32 33  1  0  0  0  0
 33 34  1  0  0  0  0
 34 35  1  0  0  0  0
 36 38  1  0  0  0  0
 36 35  1  0  0  0  0
 37 36  2  0  0  0  0
M  END
>  <MODEL>
8

>  <REMARK>
 VINA RESULT:      -5.8      2.904      4.245
  Name = 
  13 active torsions:
  status: ('A' for Active; 'I' for Inactive)
    1  A    between atoms: C_2  and  C_3
    2  A    between atoms: C_3  and  N_27
    3  A    between atoms: C_5  and  N_28
    4  A    between atoms: N_6  and  C_14
    5  A    between atoms: C_13  and  S_15
    6  A    between atoms: C_14  and  C_18
    7  A    between atoms: S_15  and  C_18
    8  A    between atoms: C_20  and  C_36
    9  A    between atoms: C_22  and  O_23
   10  A    between atoms: C_22  and  N_28
   11  A    between atoms: O_23  and  C_29
   12  A    between atoms: C_26  and  N_27
   13  A    between atoms: C_26  and  C_29
                            x       y       z     vdW  Elec       q    Type
                         _______ _______ _______ _____ _____    ______ ____

>  <TORSDO>
F 13

$$$$
=
 OpenBabel11042417093D

 38 42  0  0  0  0  0  0  0  0999 V2000
  191.9910  172.7510  143.5260 C   0  0  0  0  0  0  0  0  0  0  0  0
  191.4450  173.8720  144.1510 C   0  0  0  0  0  0  0  0  0  0  0  0
  194.1760  173.8540  143.6770 C   0  0  0  0  0  3  0  0  0  0  0  0
  192.2090  174.9370  144.5200 C   0  0  0  0  0  0  0  0  0  0  0  0
  193.5870  174.9680  144.3020 C   0  0  0  0  0  0  0  0  0  0  0  0
  191.4410  175.8800  145.0850 N   0  0  0  0  0  0  0  0  0  0  0  0
  190.1620  174.0950  144.4680 N   0  0  0  0  0  2  0  0  0  0  0  0
  193.3840  172.7510  143.2890 C   0  0  0  0  0  3  0  0  0  0  0  0
  190.2000  175.3280  145.0380 C   0  0  0  0  0  0  0  0  0  0  0  0
  185.5470  179.2500  144.7020 C   0  0  0  0  0  3  0  0  0  0  0  0
  186.6950  177.3160  146.3670 C   0  0  0  0  0  0  0  0  0  0  0  0
  188.3840  175.7070  146.7780 C   0  0  0  0  0  0  0  0  0  0  0  0
  186.7070  178.5840  144.2950 C   0  0  0  0  0  3  0  0  0  0  0  0
  187.2830  177.6180  145.1250 C   0  0  0  0  0  0  0  0  0  0  0  0
  188.9810  176.0060  145.5320 C   0  0  0  0  0  0  0  0  0  0  0  0
  184.9630  178.9500  145.9390 C   0  0  0  0  0  3  0  0  0  0  0  0
  188.9150  174.7000  147.6380 N   0  0  0  0  0  1  0  0  0  0  0  0
  188.4050  176.9570  144.7440 N   0  0  0  0  0  0  0  0  0  0  0  0
  185.5340  177.9820  146.7710 C   0  0  0  0  0  3  0  0  0  0  0  0
  187.2590  176.3680  147.1570 N   0  0  0  0  0  0  0  0  0  0  0  0
  194.5760  176.3830  144.7760 S   0  0  0  0  0  0  0  0  0  0  0  0
  196.0580  175.7300  143.9570 C   0  0  0  0  0  2  0  0  0  0  0  0
  196.6620  176.8150  143.0830 C   0  0  0  0  0  2  0  0  0  0  0  0
  196.8320  176.3300  141.7220 N   0  0  0  0  0  0  0  0  0  0  0  0
  196.5300  174.1740  140.7060 C   0  0  0  0  0  2  0  0  0  0  0  0
  195.4820  175.1150  140.1680 C   0  0  0  0  0  2  0  0  0  0  0  0
  197.2240  174.9310  141.8210 C   0  0  0  0  0  2  0  0  0  0  0  0
  195.5190  176.3080  141.0940 C   0  0  0  0  0  2  0  0  0  0  0  0
  191.1600  171.6500  143.1480 N   0  0  0  0  0  2  0  0  0  0  0  0
  191.2540  171.0050  141.8480 C   0  0  0  0  0  2  0  0  0  0  0  0
  190.0820  171.2380  141.1300 O   0  0  0  0  0  0  0  0  0  0  0  0
  190.3600  172.3670  140.3600 C   0  0  0  0  0  2  0  0  0  0  0  0
  189.1010  172.8180  139.6470 C   0  0  0  0  0  2  0  0  0  0  0  0
  188.2110  173.4620  140.5970 N   0  0  0  0  0  2  0  0  0  0  0  0
  188.9230  174.6140  141.1190 C   0  0  0  0  0  2  0  0  0  0  0  0
  187.9470  175.6310  141.5990 C   0  0  0  0  0  0  0  0  0  0  0  0
  188.0760  176.8350  141.2580 O   0  0  0  0  0  0  0  0  0  0  0  0
  186.8780  175.2430  142.3990 O   0  0  0  0  0  1  0  0  0  0  0  0
  1  2  1  0  0  0  0
  2  7  1  0  0  0  0
  2  4  2  0  0  0  0
  3  5  2  0  0  0  0
  4  6  1  0  0  0  0
  5  4  1  0  0  0  0
  5 21  1  0  0  0  0
  7  9  1  0  0  0  0
  8  1  2  0  0  0  0
  8  3  1  0  0  0  0
  9  6  2  0  0  0  0
  9 15  1  0  0  0  0
 10 16  1  0  0  0  0
 11 19  1  0  0  0  0
 11 20  1  0  0  0  0
 12 20  2  0  0  0  0
 12 17  1  0  0  0  0
 13 10  2  0  0  0  0
 13 14  1  0  0  0  0
 14 11  2  0  0  0  0
 15 12  1  0  0  0  0
 16 19  2  0  0  0  0
 18 14  1  0  0  0  0
 18 15  2  0  0  0  0
 22 21  1  0  0  0  0
 23 22  1  0  0  0  0
 24 27  1  0  0  0  0
 24 23  1  0  0  0  0
 25 27  1  0  0  0  0
 26 25  1  0  0  0  0
 26 28  1  0  0  0  0
 28 24  1  0  0  0  0
 29  1  1  0  0  0  0
 30 29  1  0  0  0  0
 31 30  1  0  0  0  0
 32 31  1  0  0  0  0
 33 32  1  0  0  0  0
 33 34  1  0  0  0  0
 34 35  1  0  0  0  0
 35 36  1  0  0  0  0
 36 38  1  0  0  0  0
 37 36  2  0  0  0  0
M  END
>  <MODEL>
9

>  <REMARK>
 VINA RESULT:      -5.8      2.924      5.417
  Name = 
  13 active torsions:
  status: ('A' for Active; 'I' for Inactive)
    1  A    between atoms: C_2  and  C_3
    2  A    between atoms: C_3  and  N_27
    3  A    between atoms: C_5  and  N_28
    4  A    between atoms: N_6  and  C_14
    5  A    between atoms: C_13  and  S_15
    6  A    between atoms: C_14  and  C_18
    7  A    between atoms: S_15  and  C_18
    8  A    between atoms: C_20  and  C_36
    9  A    between atoms: C_22  and  O_23
   10  A    between atoms: C_22  and  N_28
   11  A    between atoms: O_23  and  C_29
   12  A    between atoms: C_26  and  N_27
   13  A    between atoms: C_26  and  C_29
                            x       y       z     vdW  Elec       q    Type
                         _______ _______ _______ _____ _____    ______ ____

>  <TORSDO>
F 13

$$$$
