=
 OpenBabel11042416093D

 34 37  0  0  1  0  0  0  0  0999 V2000
  188.4960  176.9260  144.0190 C   0  0  0  0  0  0  0  0  0  0  0  0
  190.7490  177.0200  145.1040 C   0  0  0  0  0  3  0  0  0  0  0  0
  186.4890  178.1420  144.1670 C   0  0  0  0  0  0  0  0  0  0  0  0
  190.0570  175.5380  143.5300 C   0  0  0  0  0  0  0  0  0  0  0  0
  191.6270  175.0030  143.7690 S   0  0  0  0  0  0  0  0  0  0  0  0
  185.9060  177.2890  143.1770 C   0  0  0  0  0  0  0  0  0  0  0  0
  189.7610  176.5840  144.2920 N   0  0  0  0  0  0  0  0  0  0  0  0
  191.8900  176.2220  144.9460 C   0  0  0  0  0  0  0  0  0  0  0  0
  186.6720  176.2400  142.6200 C   0  0  0  0  0  3  0  0  0  0  0  0
  187.9770  176.0820  143.0650 C   0  0  0  0  0  0  0  0  0  0  0  0
  188.9850  175.1720  142.7340 C   0  0  0  0  0  0  0  0  0  0  0  0
  187.7840  177.9380  144.5670 N   0  0  0  0  0  0  0  0  0  0  0  0
  185.7390  179.2570  144.7860 C   0  0  0  0  0  0  0  0  0  0  0  0
  185.2710  179.1370  146.1260 N   0  0  0  0  0  1  0  0  0  0  0  0
  185.5040  180.3180  144.1500 O   0  0  0  0  0  0  0  0  0  0  0  0
  184.2460  178.1260  141.5370 C   0  0  0  0  0  1  0  0  0  0  0  0
  184.5830  177.4910  142.7620 O   0  0  0  0  0  0  0  0  0  0  0  0
  193.1810  176.4470  145.6480 C   0  0  0  0  0  2  0  0  0  0  0  0
  194.2690  176.4400  144.6840 N   0  0  0  0  0  2  0  0  0  0  0  0
  195.5450  174.7090  145.8890 C   0  0  0  0  0  3  0  0  0  0  0  0
  195.4140  175.5940  144.8090 C   0  0  0  0  0  0  0  0  0  0  0  0
  196.3910  175.6500  143.8630 N   0  0  0  0  0  0  0  0  0  0  0  0
  197.6640  173.9740  144.9930 C   0  0  0  0  0  3  0  0  0  0  0  0
  197.5020  174.8670  143.9320 C   0  0  0  0  0  3  0  0  0  0  0  0
  196.6770  173.8970  145.9760 C   0  0  0  0  0  3  0  0  0  0  0  0
  188.9480  174.0900  141.8020 N   0  0  0  0  0  2  0  0  0  0  0  0
  188.4560  172.7670  142.1510 C   0  0  0  0  0  2  0  0  0  0  0  0
  189.6130  171.8660  142.5520 C   0  0  0  0  0  2  0  0  0  0  0  0
  192.0300  171.5350  142.1430 C   0  0  0  0  0  1  0  0  0  0  0  0
  190.7020  171.8680  141.4910 C   0  0  1  0  0  3  0  0  0  0  0  0
  189.9650  172.4430  138.7870 O   0  0  0  0  0  0  0  0  0  0  0  0
  190.3980  170.8770  140.4670 N   0  0  0  0  0  2  0  0  0  0  0  0
  189.7500  170.1670  138.1390 C   0  0  0  0  0  1  0  0  0  0  0  0
  190.0410  171.2340  139.1310 C   0  0  0  0  0  0  0  0  0  0  0  0
  1  7  1  0  0  0  0
  1 12  1  0  0  0  0
  3 12  2  0  0  0  0
  3 13  1  0  0  0  0
  4  5  1  0  0  0  0
  4  7  1  0  0  0  0
  5  8  1  0  0  0  0
  6  3  1  0  0  0  0
  7  2  1  0  0  0  0
  8  2  2  0  0  0  0
  8 18  1  0  0  0  0
  9 10  1  0  0  0  0
  9  6  2  0  0  0  0
 10  1  2  0  0  0  0
 11 10  1  0  0  0  0
 11  4  2  0  0  0  0
 13 14  1  0  0  0  0
 15 13  2  0  0  0  0
 16 17  1  0  0  0  0
 17  6  1  0  0  0  0
 19 21  1  0  0  0  0
 19 18  1  0  0  0  0
 20 25  2  0  0  0  0
 21 20  1  0  0  0  0
 22 24  1  0  0  0  0
 22 21  2  0  0  0  0
 23 25  1  0  0  0  0
 24 23  2  0  0  0  0
 26 27  1  0  0  0  0
 26 11  1  0  0  0  0
 27 28  1  0  0  0  0
 30 29  1  1  0  0  0
 30 28  1  0  0  0  0
 31 34  2  0  0  0  0
 32 30  1  0  0  0  0
 33 34  1  0  0  0  0
 34 32  1  0  0  0  0
M  END
>  <MODEL>
1

>  <REMARK>
 VINA RESULT:      -7.0      0.000      0.000
  Name = 
  9 active torsions:
  status: ('A' for Active; 'I' for Inactive)
    1  A    between atoms: N_1  and  C_23
    2  A    between atoms: C_2  and  C_15
    3  A    between atoms: C_2  and  N_31
    4  A    between atoms: C_3  and  C_11
    5  A    between atoms: N_7  and  C_26
    6  A    between atoms: C_15  and  C_26
    7  A    between atoms: C_21  and  O_33
    8  A    between atoms: C_23  and  C_27
    9  A    between atoms: N_31  and  C_32
                            x       y       z     vdW  Elec       q    Type
                         _______ _______ _______ _____ _____    ______ ____

>  <TORSDO>
F 9

$$$$
=
 OpenBabel11042416093D

 34 37  0  0  1  0  0  0  0  0999 V2000
  187.6910  176.4560  144.4160 C   0  0  0  0  0  0  0  0  0  0  0  0
  188.2780  175.4630  142.1960 C   0  0  0  0  0  3  0  0  0  0  0  0
  186.2230  178.1180  145.1970 C   0  0  0  0  0  0  0  0  0  0  0  0
  189.1550  174.9010  144.2130 C   0  0  0  0  0  0  0  0  0  0  0  0
  190.0010  173.8490  143.2200 S   0  0  0  0  0  0  0  0  0  0  0  0
  186.6740  177.8800  146.5350 C   0  0  0  0  0  0  0  0  0  0  0  0
  188.3080  175.6630  143.5320 N   0  0  0  0  0  0  0  0  0  0  0  0
  189.1950  174.4650  141.8380 C   0  0  0  0  0  0  0  0  0  0  0  0
  187.6600  176.8960  146.7740 C   0  0  0  0  0  3  0  0  0  0  0  0
  188.1530  176.1930  145.6850 C   0  0  0  0  0  0  0  0  0  0  0  0
  189.1090  175.1790  145.5680 C   0  0  0  0  0  0  0  0  0  0  0  0
  186.7470  177.3920  144.1610 N   0  0  0  0  0  0  0  0  0  0  0  0
  185.1930  179.1320  144.8830 C   0  0  0  0  0  0  0  0  0  0  0  0
  183.8530  178.9420  145.3250 N   0  0  0  0  0  1  0  0  0  0  0  0
  185.4770  180.1700  144.2280 O   0  0  0  0  0  0  0  0  0  0  0  0
  186.9410  179.4240  148.4560 C   0  0  0  0  0  1  0  0  0  0  0  0
  186.1420  178.6180  147.6000 O   0  0  0  0  0  0  0  0  0  0  0  0
  189.3900  173.9550  140.4550 C   0  0  0  0  0  2  0  0  0  0  0  0
  189.8310  172.5710  140.5020 N   0  0  0  0  0  2  0  0  0  0  0  0
  189.5330  172.2220  138.0800 C   0  0  0  0  0  3  0  0  0  0  0  0
  189.8970  171.7350  139.3440 C   0  0  0  0  0  0  0  0  0  0  0  0
  190.3200  170.4480  139.4740 N   0  0  0  0  0  0  0  0  0  0  0  0
  190.0490  170.0610  137.1320 C   0  0  0  0  0  3  0  0  0  0  0  0
  190.4030  169.6100  138.4050 C   0  0  0  0  0  3  0  0  0  0  0  0
  189.6120  171.3760  136.9730 C   0  0  0  0  0  3  0  0  0  0  0  0
  189.8880  174.5570  146.5910 N   0  0  0  0  0  2  0  0  0  0  0  0
  190.8660  175.2810  147.3870 C   0  0  0  0  0  2  0  0  0  0  0  0
  192.2480  175.1510  146.7660 C   0  0  0  0  0  2  0  0  0  0  0  0
  194.2250  176.6300  146.6320 C   0  0  0  0  0  1  0  0  0  0  0  0
  192.7570  176.4970  146.2760 C   0  0  1  0  0  3  0  0  0  0  0  0
  190.8060  178.0960  144.9270 O   0  0  0  0  0  0  0  0  0  0  0  0
  192.5930  176.5930  144.8320 N   0  0  0  0  0  2  0  0  0  0  0  0
  191.4950  177.4690  142.7410 C   0  0  0  0  0  1  0  0  0  0  0  0
  191.5990  177.4170  144.2220 C   0  0  0  0  0  0  0  0  0  0  0  0
  1 10  1  0  0  0  0
  2  7  1  0  0  0  0
  3  6  2  0  0  0  0
  4 11  2  0  0  0  0
  5  4  1  0  0  0  0
  6  9  1  0  0  0  0
  6 17  1  0  0  0  0
  7  4  1  0  0  0  0
  7  1  1  0  0  0  0
  8  2  2  0  0  0  0
  8  5  1  0  0  0  0
 10  9  2  0  0  0  0
 11 10  1  0  0  0  0
 11 26  1  0  0  0  0
 12  1  2  0  0  0  0
 12  3  1  0  0  0  0
 13  3  1  0  0  0  0
 13 14  1  0  0  0  0
 15 13  2  0  0  0  0
 17 16  1  0  0  0  0
 18 19  1  0  0  0  0
 18  8  1  0  0  0  0
 20 21  1  0  0  0  0
 21 22  2  0  0  0  0
 21 19  1  0  0  0  0
 23 24  2  0  0  0  0
 24 22  1  0  0  0  0
 25 23  1  0  0  0  0
 25 20  2  0  0  0  0
 26 27  1  0  0  0  0
 28 27  1  0  0  0  0
 30 29  1  6  0  0  0
 30 28  1  0  0  0  0
 32 30  1  0  0  0  0
 33 34  1  0  0  0  0
 34 32  1  0  0  0  0
 34 31  2  0  0  0  0
M  END
>  <MODEL>
2

>  <REMARK>
 VINA RESULT:      -6.9      2.699      6.405
  Name = 
  9 active torsions:
  status: ('A' for Active; 'I' for Inactive)
    1  A    between atoms: N_1  and  C_23
    2  A    between atoms: C_2  and  C_15
    3  A    between atoms: C_2  and  N_31
    4  A    between atoms: C_3  and  C_11
    5  A    between atoms: N_7  and  C_26
    6  A    between atoms: C_15  and  C_26
    7  A    between atoms: C_21  and  O_33
    8  A    between atoms: C_23  and  C_27
    9  A    between atoms: N_31  and  C_32
                            x       y       z     vdW  Elec       q    Type
                         _______ _______ _______ _____ _____    ______ ____

>  <TORSDO>
F 9

$$$$
=
 OpenBabel11042416093D

 34 37  0  0  1  0  0  0  0  0999 V2000
  188.2360  175.7690  144.1510 C   0  0  0  0  0  0  0  0  0  0  0  0
  189.1790  174.0620  142.5840 C   0  0  0  0  0  3  0  0  0  0  0  0
  186.6940  177.5380  144.0060 C   0  0  0  0  0  0  0  0  0  0  0  0
  189.6760  174.3100  144.7840 C   0  0  0  0  0  0  0  0  0  0  0  0
  190.6570  173.0050  144.4060 S   0  0  0  0  0  0  0  0  0  0  0  0
  186.8980  177.8220  145.3940 C   0  0  0  0  0  0  0  0  0  0  0  0
  188.9790  174.7360  143.7370 N   0  0  0  0  0  0  0  0  0  0  0  0
  190.1200  173.0410  142.7780 C   0  0  0  0  0  0  0  0  0  0  0  0
  187.8040  177.0360  146.1420 C   0  0  0  0  0  3  0  0  0  0  0  0
  188.4630  176.0060  145.4870 C   0  0  0  0  0  0  0  0  0  0  0  0
  189.4000  175.0600  145.9150 C   0  0  0  0  0  0  0  0  0  0  0  0
  187.3740  176.5070  143.4130 N   0  0  0  0  0  0  0  0  0  0  0  0
  185.7600  178.3240  143.1710 C   0  0  0  0  0  0  0  0  0  0  0  0
  184.3550  178.1450  143.3200 N   0  0  0  0  0  1  0  0  0  0  0  0
  186.1820  179.1550  142.3240 O   0  0  0  0  0  0  0  0  0  0  0  0
  185.5940  178.7560  147.2850 C   0  0  0  0  0  1  0  0  0  0  0  0
  186.2060  178.8750  146.0080 O   0  0  0  0  0  0  0  0  0  0  0  0
  190.5410  172.0720  141.7330 C   0  0  0  0  0  2  0  0  0  0  0  0
  191.2900  172.7650  140.6970 N   0  0  0  0  0  2  0  0  0  0  0  0
  189.4490  172.6530  139.0610 C   0  0  0  0  0  3  0  0  0  0  0  0
  190.7520  173.0430  139.4020 C   0  0  0  0  0  0  0  0  0  0  0  0
  191.5200  173.6950  138.4870 N   0  0  0  0  0  0  0  0  0  0  0  0
  189.7650  173.6120  136.8670 C   0  0  0  0  0  3  0  0  0  0  0  0
  191.0580  173.9850  137.2400 C   0  0  0  0  0  3  0  0  0  0  0  0
  188.9590  172.9420  137.7870 C   0  0  0  0  0  3  0  0  0  0  0  0
  189.9730  174.8860  147.2110 N   0  0  0  0  0  2  0  0  0  0  0  0
  191.0490  175.7240  147.7150 C   0  0  0  0  0  2  0  0  0  0  0  0
  192.3690  175.3250  147.0730 C   0  0  0  0  0  2  0  0  0  0  0  0
  194.2410  176.8880  146.6560 C   0  0  0  0  0  1  0  0  0  0  0  0
  192.8860  176.4240  146.1570 C   0  0  1  0  0  3  0  0  0  0  0  0
  191.4410  177.3860  143.8830 O   0  0  0  0  0  0  0  0  0  0  0  0
  193.0120  175.9180  144.7980 N   0  0  0  0  0  2  0  0  0  0  0  0
  192.4490  175.8840  142.3430 C   0  0  0  0  0  1  0  0  0  0  0  0
  192.2620  176.4480  143.7040 C   0  0  0  0  0  0  0  0  0  0  0  0
  1 10  1  0  0  0  0
  2  8  2  0  0  0  0
  2  7  1  0  0  0  0
  3  6  2  0  0  0  0
  4 11  2  0  0  0  0
  5  4  1  0  0  0  0
  6 17  1  0  0  0  0
  6  9  1  0  0  0  0
  7  1  1  0  0  0  0
  7  4  1  0  0  0  0
  8  5  1  0  0  0  0
 10 11  1  0  0  0  0
 10  9  2  0  0  0  0
 11 26  1  0  0  0  0
 12  3  1  0  0  0  0
 12  1  2  0  0  0  0
 13 14  1  0  0  0  0
 13  3  1  0  0  0  0
 15 13  2  0  0  0  0
 17 16  1  0  0  0  0
 18  8  1  0  0  0  0
 19 18  1  0  0  0  0
 20 21  1  0  0  0  0
 21 19  1  0  0  0  0
 22 21  2  0  0  0  0
 23 24  2  0  0  0  0
 23 25  1  0  0  0  0
 24 22  1  0  0  0  0
 25 20  2  0  0  0  0
 26 27  1  0  0  0  0
 28 27  1  0  0  0  0
 30 29  1  1  0  0  0
 30 28  1  0  0  0  0
 32 30  1  0  0  0  0
 33 34  1  0  0  0  0
 34 31  2  0  0  0  0
 34 32  1  0  0  0  0
M  END
>  <MODEL>
3

>  <REMARK>
 VINA RESULT:      -6.9      2.582      5.983
  Name = 
  9 active torsions:
  status: ('A' for Active; 'I' for Inactive)
    1  A    between atoms: N_1  and  C_23
    2  A    between atoms: C_2  and  C_15
    3  A    between atoms: C_2  and  N_31
    4  A    between atoms: C_3  and  C_11
    5  A    between atoms: N_7  and  C_26
    6  A    between atoms: C_15  and  C_26
    7  A    between atoms: C_21  and  O_33
    8  A    between atoms: C_23  and  C_27
    9  A    between atoms: N_31  and  C_32
                            x       y       z     vdW  Elec       q    Type
                         _______ _______ _______ _____ _____    ______ ____

>  <TORSDO>
F 9

$$$$
=
 OpenBabel11042416093D

 34 37  0  0  1  0  0  0  0  0999 V2000
  188.4350  176.9230  144.1170 C   0  0  0  0  0  0  0  0  0  0  0  0
  190.6920  177.0180  145.1940 C   0  0  0  0  0  3  0  0  0  0  0  0
  186.4470  178.1730  144.2300 C   0  0  0  0  0  0  0  0  0  0  0  0
  189.9750  175.4980  143.6680 C   0  0  0  0  0  0  0  0  0  0  0  0
  191.5370  174.9470  143.9210 S   0  0  0  0  0  0  0  0  0  0  0  0
  185.8480  177.2980  143.2680 C   0  0  0  0  0  0  0  0  0  0  0  0
  189.6960  176.5710  144.3970 N   0  0  0  0  0  0  0  0  0  0  0  0
  191.8210  176.1990  145.0580 C   0  0  0  0  0  0  0  0  0  0  0  0
  186.5980  176.2200  142.7440 C   0  0  0  0  0  3  0  0  0  0  0  0
  187.9010  176.0580  143.1900 C   0  0  0  0  0  0  0  0  0  0  0  0
  188.8950  175.1230  142.8860 C   0  0  0  0  0  0  0  0  0  0  0  0
  187.7390  177.9620  144.6340 N   0  0  0  0  0  0  0  0  0  0  0  0
  185.7140  179.3170  144.8150 C   0  0  0  0  0  0  0  0  0  0  0  0
  185.2200  179.2340  146.1480 N   0  0  0  0  0  1  0  0  0  0  0  0
  185.5170  180.3720  144.1570 O   0  0  0  0  0  0  0  0  0  0  0  0
  184.1970  178.1670  141.6370 C   0  0  0  0  0  1  0  0  0  0  0  0
  184.5270  177.5060  142.8500 O   0  0  0  0  0  0  0  0  0  0  0  0
  193.1160  176.4260  145.7500 C   0  0  0  0  0  2  0  0  0  0  0  0
  194.1950  176.4450  144.7750 N   0  0  0  0  0  2  0  0  0  0  0  0
  195.4970  174.7050  145.9390 C   0  0  0  0  0  3  0  0  0  0  0  0
  195.3480  175.6060  144.8740 C   0  0  0  0  0  0  0  0  0  0  0  0
  196.3140  175.6860  143.9200 N   0  0  0  0  0  0  0  0  0  0  0  0
  197.6130  174.0020  145.0100 C   0  0  0  0  0  3  0  0  0  0  0  0
  197.4330  174.9110  143.9650 C   0  0  0  0  0  3  0  0  0  0  0  0
  196.6370  173.9020  146.0010 C   0  0  0  0  0  3  0  0  0  0  0  0
  188.8400  174.0130  141.9890 N   0  0  0  0  0  2  0  0  0  0  0  0
  189.3320  174.0810  140.6220 C   0  0  0  0  0  2  0  0  0  0  0  0
  190.6480  173.3300  140.5000 C   0  0  0  0  0  2  0  0  0  0  0  0
  190.4850  171.0730  139.5010 C   0  0  0  0  0  1  0  0  0  0  0  0
  190.4640  171.8510  140.8030 C   0  0  1  0  0  3  0  0  0  0  0  0
  190.3120  171.5870  143.6470 O   0  0  0  0  0  0  0  0  0  0  0  0
  191.5380  171.3850  141.6690 N   0  0  0  0  0  2  0  0  0  0  0  0
  192.5330  170.7830  143.9030 C   0  0  0  0  0  1  0  0  0  0  0  0
  191.3930  171.2720  143.0850 C   0  0  0  0  0  0  0  0  0  0  0  0
  1  7  1  0  0  0  0
  1 12  1  0  0  0  0
  3 12  2  0  0  0  0
  3 13  1  0  0  0  0
  4  5  1  0  0  0  0
  4  7  1  0  0  0  0
  5  8  1  0  0  0  0
  6  3  1  0  0  0  0
  7  2  1  0  0  0  0
  8  2  2  0  0  0  0
  8 18  1  0  0  0  0
  9 10  1  0  0  0  0
  9  6  2  0  0  0  0
 10  1  2  0  0  0  0
 11 10  1  0  0  0  0
 11  4  2  0  0  0  0
 13 14  1  0  0  0  0
 15 13  2  0  0  0  0
 16 17  1  0  0  0  0
 17  6  1  0  0  0  0
 19 21  1  0  0  0  0
 19 18  1  0  0  0  0
 20 25  2  0  0  0  0
 21 20  1  0  0  0  0
 22 24  1  0  0  0  0
 22 21  2  0  0  0  0
 23 25  1  0  0  0  0
 24 23  2  0  0  0  0
 26 11  1  0  0  0  0
 27 26  1  0  0  0  0
 28 27  1  0  0  0  0
 28 30  1  0  0  0  0
 30 29  1  6  0  0  0
 30 32  1  0  0  0  0
 32 34  1  0  0  0  0
 34 31  2  0  0  0  0
 34 33  1  0  0  0  0
M  END
>  <MODEL>
4

>  <REMARK>
 VINA RESULT:      -6.8      1.111      1.791
  Name = 
  9 active torsions:
  status: ('A' for Active; 'I' for Inactive)
    1  A    between atoms: N_1  and  C_23
    2  A    between atoms: C_2  and  C_15
    3  A    between atoms: C_2  and  N_31
    4  A    between atoms: C_3  and  C_11
    5  A    between atoms: N_7  and  C_26
    6  A    between atoms: C_15  and  C_26
    7  A    between atoms: C_21  and  O_33
    8  A    between atoms: C_23  and  C_27
    9  A    between atoms: N_31  and  C_32
                            x       y       z     vdW  Elec       q    Type
                         _______ _______ _______ _____ _____    ______ ____

>  <TORSDO>
F 9

$$$$
=
 OpenBabel11042416093D

 34 37  0  0  1  0  0  0  0  0999 V2000
  188.0050  176.1890  144.3160 C   0  0  0  0  0  0  0  0  0  0  0  0
  188.9390  174.8120  142.4480 C   0  0  0  0  0  3  0  0  0  0  0  0
  186.4210  177.9140  144.5250 C   0  0  0  0  0  0  0  0  0  0  0  0
  189.4940  174.6800  144.6450 C   0  0  0  0  0  0  0  0  0  0  0  0
  190.4920  173.4890  144.0170 S   0  0  0  0  0  0  0  0  0  0  0  0
  186.6580  177.9540  145.9360 C   0  0  0  0  0  0  0  0  0  0  0  0
  188.7580  175.2660  143.7070 N   0  0  0  0  0  0  0  0  0  0  0  0
  189.9080  173.7990  142.4350 C   0  0  0  0  0  0  0  0  0  0  0  0
  187.6020  177.0710  146.5100 C   0  0  0  0  0  3  0  0  0  0  0  0
  188.2640  176.1920  145.6670 C   0  0  0  0  0  0  0  0  0  0  0  0
  189.2330  175.2100  145.8970 C   0  0  0  0  0  0  0  0  0  0  0  0
  187.1060  177.0230  143.7420 N   0  0  0  0  0  0  0  0  0  0  0  0
  185.4460  178.8110  143.8650 C   0  0  0  0  0  0  0  0  0  0  0  0
  184.2470  178.2720  143.3170 N   0  0  0  0  0  1  0  0  0  0  0  0
  185.6540  180.0500  143.7770 O   0  0  0  0  0  0  0  0  0  0  0  0
  184.7900  178.5110  147.4680 C   0  0  0  0  0  1  0  0  0  0  0  0
  185.9610  178.8620  146.7430 O   0  0  0  0  0  0  0  0  0  0  0  0
  190.3200  173.0420  141.2240 C   0  0  0  0  0  2  0  0  0  0  0  0
  190.0300  171.6290  141.4090 N   0  0  0  0  0  2  0  0  0  0  0  0
  192.4040  171.0000  141.6180 C   0  0  0  0  0  3  0  0  0  0  0  0
  191.0480  170.6430  141.5990 C   0  0  0  0  0  0  0  0  0  0  0  0
  190.6920  169.3400  141.7620 N   0  0  0  0  0  0  0  0  0  0  0  0
  192.9790  168.6810  141.9730 C   0  0  0  0  0  3  0  0  0  0  0  0
  191.6200  168.3620  141.9470 C   0  0  0  0  0  3  0  0  0  0  0  0
  193.3700  170.0090  141.8070 C   0  0  0  0  0  3  0  0  0  0  0  0
  189.8470  174.8250  147.1280 N   0  0  0  0  0  2  0  0  0  0  0  0
  190.9660  175.5480  147.7100 C   0  0  0  0  0  2  0  0  0  0  0  0
  192.2530  175.1970  146.9810 C   0  0  0  0  0  2  0  0  0  0  0  0
  194.0240  176.9210  146.8670 C   0  0  0  0  0  1  0  0  0  0  0  0
  192.7760  176.3860  146.1900 C   0  0  1  0  0  3  0  0  0  0  0  0
  191.5960  177.4510  143.8120 O   0  0  0  0  0  0  0  0  0  0  0  0
  193.0940  175.9760  144.8300 N   0  0  0  0  0  2  0  0  0  0  0  0
  192.8510  176.0870  142.3260 C   0  0  0  0  0  1  0  0  0  0  0  0
  192.4700  176.5540  143.6840 C   0  0  0  0  0  0  0  0  0  0  0  0
  1 10  1  0  0  0  0
  2  7  1  0  0  0  0
  3  6  2  0  0  0  0
  4 11  2  0  0  0  0
  5  4  1  0  0  0  0
  6  9  1  0  0  0  0
  6 17  1  0  0  0  0
  7  1  1  0  0  0  0
  7  4  1  0  0  0  0
  8  2  2  0  0  0  0
  8  5  1  0  0  0  0
 10 11  1  0  0  0  0
 10  9  2  0  0  0  0
 11 26  1  0  0  0  0
 12  1  2  0  0  0  0
 12  3  1  0  0  0  0
 13  3  1  0  0  0  0
 14 13  1  0  0  0  0
 15 13  2  0  0  0  0
 17 16  1  0  0  0  0
 18 19  1  0  0  0  0
 18  8  1  0  0  0  0
 19 21  1  0  0  0  0
 20 25  2  0  0  0  0
 21 20  1  0  0  0  0
 21 22  2  0  0  0  0
 22 24  1  0  0  0  0
 24 23  2  0  0  0  0
 25 23  1  0  0  0  0
 26 27  1  0  0  0  0
 28 27  1  0  0  0  0
 30 29  1  1  0  0  0
 30 28  1  0  0  0  0
 32 30  1  0  0  0  0
 33 34  1  0  0  0  0
 34 31  2  0  0  0  0
 34 32  1  0  0  0  0
M  END
>  <MODEL>
5

>  <REMARK>
 VINA RESULT:      -6.8      2.673      5.519
  Name = 
  9 active torsions:
  status: ('A' for Active; 'I' for Inactive)
    1  A    between atoms: N_1  and  C_23
    2  A    between atoms: C_2  and  C_15
    3  A    between atoms: C_2  and  N_31
    4  A    between atoms: C_3  and  C_11
    5  A    between atoms: N_7  and  C_26
    6  A    between atoms: C_15  and  C_26
    7  A    between atoms: C_21  and  O_33
    8  A    between atoms: C_23  and  C_27
    9  A    between atoms: N_31  and  C_32
                            x       y       z     vdW  Elec       q    Type
                         _______ _______ _______ _____ _____    ______ ____

>  <TORSDO>
F 9

$$$$
=
 OpenBabel11042416093D

 34 37  0  0  1  0  0  0  0  0999 V2000
  187.3090  176.3630  142.8720 C   0  0  0  0  0  0  0  0  0  0  0  0
  188.6130  174.7620  141.4590 C   0  0  0  0  0  3  0  0  0  0  0  0
  185.3840  177.6850  142.6020 C   0  0  0  0  0  0  0  0  0  0  0  0
  189.0670  175.3710  143.5980 C   0  0  0  0  0  0  0  0  0  0  0  0
  190.3290  174.3030  143.3210 S   0  0  0  0  0  0  0  0  0  0  0  0
  185.5330  178.1670  143.9410 C   0  0  0  0  0  0  0  0  0  0  0  0
  188.2740  175.4960  142.5410 N   0  0  0  0  0  0  0  0  0  0  0  0
  189.7750  174.0240  141.7230 C   0  0  0  0  0  0  0  0  0  0  0  0
  186.6120  177.7090  144.7310 C   0  0  0  0  0  3  0  0  0  0  0  0
  187.4910  176.7980  144.1640 C   0  0  0  0  0  0  0  0  0  0  0  0
  188.6340  176.1570  144.6520 C   0  0  0  0  0  0  0  0  0  0  0  0
  186.2840  176.7850  142.0950 N   0  0  0  0  0  0  0  0  0  0  0  0
  184.2760  178.1260  141.7260 C   0  0  0  0  0  0  0  0  0  0  0  0
  184.5530  178.5640  140.4000 N   0  0  0  0  0  1  0  0  0  0  0  0
  183.0830  178.1220  142.1300 O   0  0  0  0  0  0  0  0  0  0  0  0
  183.9520  178.8930  145.7080 C   0  0  0  0  0  1  0  0  0  0  0  0
  184.6170  179.0870  144.4670 O   0  0  0  0  0  0  0  0  0  0  0  0
  190.4030  173.0700  140.7710 C   0  0  0  0  0  2  0  0  0  0  0  0
  190.2010  173.5350  139.4080 N   0  0  0  0  0  2  0  0  0  0  0  0
  190.0440  171.2570  138.4800 C   0  0  0  0  0  3  0  0  0  0  0  0
  190.0280  172.6480  138.3010 C   0  0  0  0  0  0  0  0  0  0  0  0
  189.8450  173.1640  137.0550 N   0  0  0  0  0  0  0  0  0  0  0  0
  189.6860  170.9760  136.1080 C   0  0  0  0  0  3  0  0  0  0  0  0
  189.6750  172.3650  135.9660 C   0  0  0  0  0  3  0  0  0  0  0  0
  189.8720  170.4220  137.3750 C   0  0  0  0  0  3  0  0  0  0  0  0
  189.2510  176.2740  145.9350 N   0  0  0  0  0  2  0  0  0  0  0  0
  189.3900  175.1490  146.8470 C   0  0  0  0  0  2  0  0  0  0  0  0
  190.7950  175.1150  147.4270 C   0  0  0  0  0  2  0  0  0  0  0  0
  191.4830  177.1490  148.6540 C   0  0  0  0  0  1  0  0  0  0  0  0
  191.4730  176.4700  147.2980 C   0  0  1  0  0  3  0  0  0  0  0  0
  192.4100  177.0570  144.6600 O   0  0  0  0  0  0  0  0  0  0  0  0
  192.8400  176.2980  146.8270 N   0  0  0  0  0  2  0  0  0  0  0  0
  194.6580  176.4180  145.0880 C   0  0  0  0  0  1  0  0  0  0  0  0
  193.2430  176.6160  145.4950 C   0  0  0  0  0  0  0  0  0  0  0  0
  1 10  1  0  0  0  0
  2  8  2  0  0  0  0
  2  7  1  0  0  0  0
  3  6  2  0  0  0  0
  4 11  2  0  0  0  0
  5  4  1  0  0  0  0
  6 17  1  0  0  0  0
  6  9  1  0  0  0  0
  7  1  1  0  0  0  0
  7  4  1  0  0  0  0
  8  5  1  0  0  0  0
 10 11  1  0  0  0  0
 10  9  2  0  0  0  0
 11 26  1  0  0  0  0
 12  3  1  0  0  0  0
 12  1  2  0  0  0  0
 13 15  2  0  0  0  0
 13  3  1  0  0  0  0
 14 13  1  0  0  0  0
 17 16  1  0  0  0  0
 18  8  1  0  0  0  0
 19 18  1  0  0  0  0
 21 20  1  0  0  0  0
 21 19  1  0  0  0  0
 22 21  2  0  0  0  0
 23 25  1  0  0  0  0
 24 23  2  0  0  0  0
 24 22  1  0  0  0  0
 25 20  2  0  0  0  0
 26 27  1  0  0  0  0
 27 28  1  0  0  0  0
 30 28  1  0  0  0  0
 30 29  1  1  0  0  0
 31 34  2  0  0  0  0
 32 30  1  0  0  0  0
 33 34  1  0  0  0  0
 34 32  1  0  0  0  0
M  END
>  <MODEL>
6

>  <REMARK>
 VINA RESULT:      -6.8      2.540      6.634
  Name = 
  9 active torsions:
  status: ('A' for Active; 'I' for Inactive)
    1  A    between atoms: N_1  and  C_23
    2  A    between atoms: C_2  and  C_15
    3  A    between atoms: C_2  and  N_31
    4  A    between atoms: C_3  and  C_11
    5  A    between atoms: N_7  and  C_26
    6  A    between atoms: C_15  and  C_26
    7  A    between atoms: C_21  and  O_33
    8  A    between atoms: C_23  and  C_27
    9  A    between atoms: N_31  and  C_32
                            x       y       z     vdW  Elec       q    Type
                         _______ _______ _______ _____ _____    ______ ____

>  <TORSDO>
F 9

$$$$
=
 OpenBabel11042416093D

 34 37  0  0  1  0  0  0  0  0999 V2000
  192.8700  175.3000  143.9480 C   0  0  0  0  0  0  0  0  0  0  0  0
  191.3420  176.7890  145.2560 C   0  0  0  0  0  3  0  0  0  0  0  0
  194.9210  175.5390  142.8250 C   0  0  0  0  0  0  0  0  0  0  0  0
  191.0370  174.5850  144.8060 C   0  0  0  0  0  0  0  0  0  0  0  0
  189.6540  174.8980  145.6980 S   0  0  0  0  0  0  0  0  0  0  0  0
  194.8760  174.1560  142.4580 C   0  0  0  0  0  0  0  0  0  0  0  0
  191.8020  175.6620  144.6690 N   0  0  0  0  0  0  0  0  0  0  0  0
  190.1140  176.5390  145.8840 C   0  0  0  0  0  0  0  0  0  0  0  0
  193.7810  173.3620  142.8680 C   0  0  0  0  0  3  0  0  0  0  0  0
  192.7850  173.9670  143.6190 C   0  0  0  0  0  0  0  0  0  0  0  0
  191.5950  173.4860  144.1740 C   0  0  0  0  0  0  0  0  0  0  0  0
  193.9070  176.0820  143.5690 N   0  0  0  0  0  0  0  0  0  0  0  0
  196.0400  176.4220  142.4280 C   0  0  0  0  0  0  0  0  0  0  0  0
  197.0450  176.7620  143.3780 N   0  0  0  0  0  1  0  0  0  0  0  0
  196.1250  176.8830  141.2590 O   0  0  0  0  0  0  0  0  0  0  0  0
  195.8050  173.3710  140.2980 C   0  0  0  0  0  1  0  0  0  0  0  0
  195.9090  173.5940  141.6980 O   0  0  0  0  0  0  0  0  0  0  0  0
  189.3480  177.5420  146.6690 C   0  0  0  0  0  2  0  0  0  0  0  0
  188.0480  176.9960  147.0230 N   0  0  0  0  0  2  0  0  0  0  0  0
  186.8040  178.6620  145.7000 C   0  0  0  0  0  3  0  0  0  0  0  0
  186.8170  177.5460  146.5490 C   0  0  0  0  0  0  0  0  0  0  0  0
  185.6420  176.9760  146.9300 N   0  0  0  0  0  0  0  0  0  0  0  0
  184.3900  178.5680  145.6610 C   0  0  0  0  0  3  0  0  0  0  0  0
  184.4410  177.4590  146.5080 C   0  0  0  0  0  3  0  0  0  0  0  0
  185.5820  179.1700  145.2570 C   0  0  0  0  0  3  0  0  0  0  0  0
  191.0420  172.1710  144.1120 N   0  0  0  0  0  2  0  0  0  0  0  0
  190.4220  171.6330  142.9120 C   0  0  0  0  0  2  0  0  0  0  0  0
  188.9970  172.1480  142.7810 C   0  0  0  0  0  2  0  0  0  0  0  0
  188.7480  172.7630  140.3980 C   0  0  0  0  0  1  0  0  0  0  0  0
  188.9230  173.3090  141.8030 C   0  0  1  0  0  3  0  0  0  0  0  0
  189.0670  176.1210  142.3090 O   0  0  0  0  0  0  0  0  0  0  0  0
  187.7950  174.1680  142.1370 N   0  0  0  0  0  2  0  0  0  0  0  0
  186.7390  176.3830  142.7050 C   0  0  0  0  0  1  0  0  0  0  0  0
  187.9370  175.5690  142.3730 C   0  0  0  0  0  0  0  0  0  0  0  0
  1  7  1  0  0  0  0
  2  8  2  0  0  0  0
  3 12  1  0  0  0  0
  4  5  1  0  0  0  0
  5  8  1  0  0  0  0
  6  3  2  0  0  0  0
  6  9  1  0  0  0  0
  7  4  1  0  0  0  0
  7  2  1  0  0  0  0
  8 18  1  0  0  0  0
  9 10  2  0  0  0  0
 10  1  1  0  0  0  0
 10 11  1  0  0  0  0
 11  4  2  0  0  0  0
 12  1  2  0  0  0  0
 13  3  1  0  0  0  0
 13 14  1  0  0  0  0
 15 13  2  0  0  0  0
 16 17  1  0  0  0  0
 17  6  1  0  0  0  0
 18 19  1  0  0  0  0
 20 21  1  0  0  0  0
 21 22  2  0  0  0  0
 21 19  1  0  0  0  0
 23 24  2  0  0  0  0
 24 22  1  0  0  0  0
 25 23  1  0  0  0  0
 25 20  2  0  0  0  0
 26 11  1  0  0  0  0
 27 26  1  0  0  0  0
 28 27  1  0  0  0  0
 30 29  1  6  0  0  0
 30 32  1  0  0  0  0
 30 28  1  0  0  0  0
 31 34  2  0  0  0  0
 32 34  1  0  0  0  0
 34 33  1  0  0  0  0
M  END
>  <MODEL>
7

>  <REMARK>
 VINA RESULT:      -6.7      2.825      7.941
  Name = 
  9 active torsions:
  status: ('A' for Active; 'I' for Inactive)
    1  A    between atoms: N_1  and  C_23
    2  A    between atoms: C_2  and  C_15
    3  A    between atoms: C_2  and  N_31
    4  A    between atoms: C_3  and  C_11
    5  A    between atoms: N_7  and  C_26
    6  A    between atoms: C_15  and  C_26
    7  A    between atoms: C_21  and  O_33
    8  A    between atoms: C_23  and  C_27
    9  A    between atoms: N_31  and  C_32
                            x       y       z     vdW  Elec       q    Type
                         _______ _______ _______ _____ _____    ______ ____

>  <TORSDO>
F 9

$$$$
=
 OpenBabel11042416093D

 34 37  0  0  1  0  0  0  0  0999 V2000
  192.9890  174.0120  145.2590 C   0  0  0  0  0  0  0  0  0  0  0  0
  191.6510  176.0110  145.9510 C   0  0  0  0  0  3  0  0  0  0  0  0
  195.2590  173.4020  145.2710 C   0  0  0  0  0  0  0  0  0  0  0  0
  190.8560  174.0920  145.0340 C   0  0  0  0  0  0  0  0  0  0  0  0
  189.4250  174.9430  145.2250 S   0  0  0  0  0  0  0  0  0  0  0  0
  194.9170  172.1390  144.6900 C   0  0  0  0  0  0  0  0  0  0  0  0
  191.9100  174.7800  145.4560 N   0  0  0  0  0  0  0  0  0  0  0  0
  190.2770  176.2760  145.8860 C   0  0  0  0  0  0  0  0  0  0  0  0
  193.5650  171.8470  144.4020 C   0  0  0  0  0  3  0  0  0  0  0  0
  192.6140  172.8110  144.7010 C   0  0  0  0  0  0  0  0  0  0  0  0
  191.2250  172.8480  144.5500 C   0  0  0  0  0  0  0  0  0  0  0  0
  194.2760  174.3160  145.5450 N   0  0  0  0  0  0  0  0  0  0  0  0
  196.6550  173.7660  145.5970 C   0  0  0  0  0  0  0  0  0  0  0  0
  197.4490  174.4570  144.6360 N   0  0  0  0  0  1  0  0  0  0  0  0
  197.1630  173.4780  146.7120 O   0  0  0  0  0  0  0  0  0  0  0  0
  196.2700  170.1540  145.3040 C   0  0  0  0  0  1  0  0  0  0  0  0
  195.9170  171.1990  144.4080 O   0  0  0  0  0  0  0  0  0  0  0  0
  189.6330  177.5180  146.3900 C   0  0  0  0  0  2  0  0  0  0  0  0
  188.3410  177.1960  146.9740 N   0  0  0  0  0  2  0  0  0  0  0  0
  187.0670  178.1620  145.0970 C   0  0  0  0  0  3  0  0  0  0  0  0
  187.0990  177.5130  146.3400 C   0  0  0  0  0  0  0  0  0  0  0  0
  185.9330  177.1780  146.9550 N   0  0  0  0  0  0  0  0  0  0  0  0
  184.6540  178.1000  145.1590 C   0  0  0  0  0  3  0  0  0  0  0  0
  184.7230  177.4550  146.3960 C   0  0  0  0  0  3  0  0  0  0  0  0
  185.8360  178.4540  144.5090 C   0  0  0  0  0  3  0  0  0  0  0  0
  190.3530  171.8540  144.0110 N   0  0  0  0  0  2  0  0  0  0  0  0
  190.0540  171.7540  142.5920 C   0  0  0  0  0  2  0  0  0  0  0  0
  188.8750  172.6480  142.2400 C   0  0  0  0  0  2  0  0  0  0  0  0
  190.0690  173.5690  140.2800 C   0  0  0  0  0  1  0  0  0  0  0  0
  189.3400  173.9260  141.5610 C   0  0  1  0  0  3  0  0  0  0  0  0
  189.1120  176.7110  142.1750 O   0  0  0  0  0  0  0  0  0  0  0  0
  188.1940  174.7700  141.2530 N   0  0  0  0  0  2  0  0  0  0  0  0
  186.9450  176.9570  141.2320 C   0  0  0  0  0  1  0  0  0  0  0  0
  188.1480  176.1580  141.5840 C   0  0  0  0  0  0  0  0  0  0  0  0
  1  7  1  0  0  0  0
  1 12  1  0  0  0  0
  3 12  2  0  0  0  0
  3 13  1  0  0  0  0
  4  5  1  0  0  0  0
  4  7  1  0  0  0  0
  5  8  1  0  0  0  0
  6  3  1  0  0  0  0
  7  2  1  0  0  0  0
  8  2  2  0  0  0  0
  8 18  1  0  0  0  0
  9  6  2  0  0  0  0
  9 10  1  0  0  0  0
 10  1  2  0  0  0  0
 11 10  1  0  0  0  0
 11  4  2  0  0  0  0
 13 15  2  0  0  0  0
 14 13  1  0  0  0  0
 17  6  1  0  0  0  0
 17 16  1  0  0  0  0
 18 19  1  0  0  0  0
 20 21  1  0  0  0  0
 21 22  2  0  0  0  0
 21 19  1  0  0  0  0
 23 24  2  0  0  0  0
 24 22  1  0  0  0  0
 25 20  2  0  0  0  0
 25 23  1  0  0  0  0
 26 11  1  0  0  0  0
 27 26  1  0  0  0  0
 28 27  1  0  0  0  0
 30 29  1  6  0  0  0
 30 28  1  0  0  0  0
 32 30  1  0  0  0  0
 32 34  1  0  0  0  0
 33 34  1  0  0  0  0
 34 31  2  0  0  0  0
M  END
>  <MODEL>
8

>  <REMARK>
 VINA RESULT:      -6.6      3.205      8.348
  Name = 
  9 active torsions:
  status: ('A' for Active; 'I' for Inactive)
    1  A    between atoms: N_1  and  C_23
    2  A    between atoms: C_2  and  C_15
    3  A    between atoms: C_2  and  N_31
    4  A    between atoms: C_3  and  C_11
    5  A    between atoms: N_7  and  C_26
    6  A    between atoms: C_15  and  C_26
    7  A    between atoms: C_21  and  O_33
    8  A    between atoms: C_23  and  C_27
    9  A    between atoms: N_31  and  C_32
                            x       y       z     vdW  Elec       q    Type
                         _______ _______ _______ _____ _____    ______ ____

>  <TORSDO>
F 9

$$$$
=
 OpenBabel11042416093D

 34 37  0  0  1  0  0  0  0  0999 V2000
  187.8750  176.4980  142.0190 C   0  0  0  0  0  0  0  0  0  0  0  0
  188.6430  174.4480  140.8080 C   0  0  0  0  0  3  0  0  0  0  0  0
  185.9430  177.8380  142.0320 C   0  0  0  0  0  0  0  0  0  0  0  0
  189.8020  175.6210  142.3680 C   0  0  0  0  0  0  0  0  0  0  0  0
  190.9140  174.4180  142.0190 S   0  0  0  0  0  0  0  0  0  0  0  0
  186.5400  178.6790  143.0250 C   0  0  0  0  0  0  0  0  0  0  0  0
  188.6850  175.4950  141.6610 N   0  0  0  0  0  0  0  0  0  0  0  0
  189.8430  173.7270  140.8710 C   0  0  0  0  0  0  0  0  0  0  0  0
  187.8390  178.3860  143.4990 C   0  0  0  0  0  3  0  0  0  0  0  0
  188.4870  177.2780  142.9730 C   0  0  0  0  0  0  0  0  0  0  0  0
  189.7450  176.7170  143.2130 C   0  0  0  0  0  0  0  0  0  0  0  0
  186.6320  176.7570  141.5500 N   0  0  0  0  0  0  0  0  0  0  0  0
  184.5870  178.0920  141.4970 C   0  0  0  0  0  0  0  0  0  0  0  0
  184.4270  178.5170  140.1470 N   0  0  0  0  0  1  0  0  0  0  0  0
  183.5630  177.9390  142.2140 O   0  0  0  0  0  0  0  0  0  0  0  0
  185.1600  179.7730  144.7700 C   0  0  0  0  0  1  0  0  0  0  0  0
  185.8410  179.7870  143.5230 O   0  0  0  0  0  0  0  0  0  0  0  0
  190.1230  172.4860  140.1020 C   0  0  0  0  0  2  0  0  0  0  0  0
  189.9570  172.7430  138.6810 N   0  0  0  0  0  2  0  0  0  0  0  0
  190.7290  170.4990  138.0160 C   0  0  0  0  0  3  0  0  0  0  0  0
  190.2540  171.7730  137.6740 C   0  0  0  0  0  0  0  0  0  0  0  0
  190.0730  172.0950  136.3650 N   0  0  0  0  0  0  0  0  0  0  0  0
  190.8130  169.9310  135.6700 C   0  0  0  0  0  3  0  0  0  0  0  0
  190.3390  171.2090  135.3660 C   0  0  0  0  0  3  0  0  0  0  0  0
  191.0070  169.5780  137.0050 C   0  0  0  0  0  3  0  0  0  0  0  0
  190.7680  177.1550  144.1070 N   0  0  0  0  0  2  0  0  0  0  0  0
  191.0520  176.4860  145.3670 C   0  0  0  0  0  2  0  0  0  0  0  0
  190.1400  177.0190  146.4610 C   0  0  0  0  0  2  0  0  0  0  0  0
  189.1170  174.9130  147.2560 C   0  0  0  0  0  1  0  0  0  0  0  0
  188.8490  176.2190  146.5350 C   0  0  1  0  0  3  0  0  0  0  0  0
  186.0900  176.4230  145.8070 O   0  0  0  0  0  0  0  0  0  0  0  0
  187.8360  176.9770  147.2570 N   0  0  0  0  0  2  0  0  0  0  0  0
  185.4940  177.8230  147.6310 C   0  0  0  0  0  1  0  0  0  0  0  0
  186.4710  177.0330  146.8400 C   0  0  0  0  0  0  0  0  0  0  0  0
  1 10  1  0  0  0  0
  2  8  2  0  0  0  0
  2  7  1  0  0  0  0
  3  6  2  0  0  0  0
  4 11  2  0  0  0  0
  5  4  1  0  0  0  0
  6  9  1  0  0  0  0
  6 17  1  0  0  0  0
  7  1  1  0  0  0  0
  7  4  1  0  0  0  0
  8  5  1  0  0  0  0
 10 11  1  0  0  0  0
 10  9  2  0  0  0  0
 11 26  1  0  0  0  0
 12  1  2  0  0  0  0
 12  3  1  0  0  0  0
 13  3  1  0  0  0  0
 13 15  2  0  0  0  0
 14 13  1  0  0  0  0
 17 16  1  0  0  0  0
 18  8  1  0  0  0  0
 19 18  1  0  0  0  0
 21 20  1  0  0  0  0
 21 19  1  0  0  0  0
 22 21  2  0  0  0  0
 23 25  1  0  0  0  0
 24 23  2  0  0  0  0
 24 22  1  0  0  0  0
 25 20  2  0  0  0  0
 26 27  1  0  0  0  0
 27 28  1  0  0  0  0
 28 30  1  0  0  0  0
 30 29  1  1  0  0  0
 30 32  1  0  0  0  0
 31 34  2  0  0  0  0
 34 32  1  0  0  0  0
 34 33  1  0  0  0  0
M  END
>  <MODEL>
9

>  <REMARK>
 VINA RESULT:      -6.5      3.368      7.001
  Name = 
  9 active torsions:
  status: ('A' for Active; 'I' for Inactive)
    1  A    between atoms: N_1  and  C_23
    2  A    between atoms: C_2  and  C_15
    3  A    between atoms: C_2  and  N_31
    4  A    between atoms: C_3  and  C_11
    5  A    between atoms: N_7  and  C_26
    6  A    between atoms: C_15  and  C_26
    7  A    between atoms: C_21  and  O_33
    8  A    between atoms: C_23  and  C_27
    9  A    between atoms: N_31  and  C_32
                            x       y       z     vdW  Elec       q    Type
                         _______ _______ _______ _____ _____    ______ ____

>  <TORSDO>
F 9

$$$$
