=
 OpenBabel11042416243D

 38 43  0  0  1  0  0  0  0  0999 V2000
  188.1870  175.4300  140.6060 C   0  0  0  0  0  0  0  0  0  0  0  0
  189.7530  171.2930  139.9710 C   0  0  0  0  0  3  0  0  0  0  0  0
  188.7300  174.5120  141.4510 N   0  0  0  0  0  0  0  0  0  0  0  0
  188.1300  175.0050  139.3140 N   0  0  0  0  0  0  0  0  0  0  0  0
  189.5600  172.2260  141.0050 C   0  0  0  0  0  3  0  0  0  0  0  0
  189.0080  173.4620  140.6610 C   0  0  0  0  0  0  0  0  0  0  0  0
  188.8390  172.8680  138.3310 C   0  0  0  0  0  3  0  0  0  0  0  0
  189.5910  170.6760  137.6340 O   0  0  0  0  0  1  0  0  0  0  0  0
  189.3960  171.6120  138.6390 C   0  0  0  0  0  0  0  0  0  0  0  0
  188.6560  173.7680  139.3790 C   0  0  0  0  0  0  0  0  0  0  0  0
  186.2060  176.7100  141.2570 N   0  0  1  0  0  0  0  0  0  0  0  0
  186.7700  177.3130  140.0430 C   0  0  0  0  0  2  0  0  0  0  0  0
  187.6640  176.7610  141.0580 C   0  0  2  0  0  3  0  0  0  0  0  0
  185.8830  177.8020  142.1530 C   0  0  1  0  0  3  0  0  0  0  0  0
  184.4890  177.9320  142.2460 O   0  0  0  0  0  0  0  0  0  0  0  0
  185.1290  177.2850  143.3230 C   0  0  2  0  0  3  0  0  0  0  0  0
  184.0280  178.7960  145.0600 C   0  0  0  0  0  2  0  0  0  0  0  0
  186.0260  177.5610  145.5360 O   0  0  0  0  0  0  0  0  0  0  0  0
  185.1280  177.4030  146.6060 C   0  0  2  0  0  3  0  0  0  0  0  0
  184.0790  178.4810  146.5190 C   0  0  0  0  0  2  0  0  0  0  0  0
  185.3260  178.2300  144.5090 C   0  0  1  0  0  3  0  0  0  0  0  0
  185.8620  177.5270  147.9230 C   0  0  0  0  0  2  0  0  0  0  0  0
  187.1540  178.1590  147.7070 N   0  0  0  0  0  2  0  0  0  0  0  0
  187.1720  179.3630  148.5180 C   0  0  0  0  0  1  0  0  0  0  0  0
  190.3000  174.7400  143.3280 C   0  0  0  0  0  2  0  0  0  0  0  0
  188.8480  174.6100  142.9070 C   0  0  1  0  0  3  0  0  0  0  0  0
  189.4190  175.9650  143.2710 C   0  0  1  0  0  3  0  0  0  0  0  0
  188.9610  176.3400  144.6670 C   0  0  0  0  0  2  0  0  0  0  0  0
  189.7290  175.1620  147.2800 C   0  0  0  0  0  1  0  0  0  0  0  0
  190.1340  176.8360  145.4450 C   0  0  0  0  0  0  0  0  0  0  0  0
  190.7740  177.8370  145.0190 O   0  0  0  0  0  0  0  0  0  0  0  0
  190.5820  176.1430  146.6240 N   0  0  0  0  0  0  0  0  0  0  0  0
  191.9620  176.2680  147.0730 C   0  0  0  0  0  2  0  0  0  0  0  0
  192.8320  175.2250  146.3930 C   0  0  0  0  0  2  0  0  0  0  0  0
  193.4170  176.3020  143.7660 O   0  0  0  0  0  0  0  0  0  0  0  0
  195.5400  176.7510  144.4880 O   0  0  0  0  0  1  0  0  0  0  0  0
  194.3990  176.2980  144.7470 C   0  0  0  0  0  0  0  0  0  0  0  0
  194.1170  175.8050  146.0540 N   0  0  0  0  0  2  0  0  0  0  0  0
  1  3  1  0  0  0  0
  2  5  1  0  0  0  0
  4 10  1  0  0  0  0
  4  1  2  0  0  0  0
  6  5  2  0  0  0  0
  6  3  1  0  0  0  0
  7  9  1  0  0  0  0
  7 10  2  0  0  0  0
  8  9  1  0  0  0  0
  9  2  2  0  0  0  0
 10  6  1  0  0  0  0
 11 12  1  6  0  0  0
 11 14  1  0  0  0  0
 12 13  1  0  0  0  0
 13  1  1  6  0  0  0
 13 11  1  0  0  0  0
 14 15  1  6  0  0  0
 14 16  1  0  0  0  0
 16 15  1  6  0  0  0
 16 21  1  0  0  0  0
 17 20  1  0  0  0  0
 18 19  1  0  0  0  0
 19 22  1  1  0  0  0
 20 19  1  0  0  0  0
 21 17  1  1  0  0  0
 21 18  1  0  0  0  0
 23 22  1  0  0  0  0
 23 24  1  0  0  0  0
 26  3  1  6  0  0  0
 26 27  1  0  0  0  0
 26 25  1  0  0  0  0
 27 25  1  0  0  0  0
 27 28  1  1  0  0  0
 28 30  1  0  0  0  0
 30 32  1  0  0  0  0
 31 30  2  0  0  0  0
 32 33  1  0  0  0  0
 32 29  1  0  0  0  0
 34 33  1  0  0  0  0
 35 37  2  0  0  0  0
 36 37  1  0  0  0  0
 37 38  1  0  0  0  0
 38 34  1  0  0  0  0
M  END
>  <MODEL>
1

>  <REMARK>
 VINA RESULT:      -6.5      0.000      0.000
  Name = 
  11 active torsions:
  status: ('A' for Active; 'I' for Inactive)
    1  A    between atoms: C_1  and  C_36
    2  A    between atoms: N_2  and  C_3
    3  A    between atoms: N_6  and  C_23
    4  A    between atoms: C_8  and  C_17
    5  A    between atoms: C_8  and  C_29
    6  A    between atoms: C_12  and  C_27
    7  A    between atoms: C_12  and  N_34
    8  A    between atoms: N_16  and  C_38
    9  A    between atoms: C_22  and  C_38
   10  A    between atoms: C_27  and  N_37
   11  A    between atoms: C_30  and  C_35
                            x       y       z     vdW  Elec       q    Type
                         _______ _______ _______ _____ _____    ______ ____

>  <TORSDO>
F 11

$$$$
=
 OpenBabel11042416243D

 38 43  0  0  1  0  0  0  0  0999 V2000
  192.8260  176.1280  143.1450 C   0  0  0  0  0  0  0  0  0  0  0  0
  197.0550  174.9000  142.3900 C   0  0  0  0  0  3  0  0  0  0  0  0
  193.7400  175.4630  143.9030 N   0  0  0  0  0  0  0  0  0  0  0  0
  193.3070  176.5060  141.9290 N   0  0  0  0  0  0  0  0  0  0  0  0
  196.0690  174.8120  143.3880 C   0  0  0  0  0  3  0  0  0  0  0  0
  194.8320  175.4040  143.1240 C   0  0  0  0  0  0  0  0  0  0  0  0
  195.5270  176.1510  140.9390 C   0  0  0  0  0  3  0  0  0  0  0  0
  197.7730  175.6390  140.1970 O   0  0  0  0  0  1  0  0  0  0  0  0
  196.7870  175.5670  141.1710 C   0  0  0  0  0  0  0  0  0  0  0  0
  194.5700  176.0410  141.9460 C   0  0  0  0  0  0  0  0  0  0  0  0
  190.6900  177.1820  142.5860 N   0  0  1  0  0  0  0  0  0  0  0  0
  191.2160  177.8150  143.8020 C   0  0  0  0  0  2  0  0  0  0  0  0
  191.4160  176.3830  143.5880 C   0  0  2  0  0  3  0  0  0  0  0  0
  189.2810  176.9370  142.8200 C   0  0  1  0  0  3  0  0  0  0  0  0
  188.6540  178.1380  143.1850 O   0  0  0  0  0  0  0  0  0  0  0  0
  188.4690  177.7160  141.8530 C   0  0  2  0  0  3  0  0  0  0  0  0
  186.3220  176.8810  142.9500 C   0  0  0  0  0  2  0  0  0  0  0  0
  186.3500  177.7470  140.7170 O   0  0  0  0  0  0  0  0  0  0  0  0
  185.2690  178.3170  141.4120 C   0  0  2  0  0  3  0  0  0  0  0  0
  184.9930  177.4870  142.6390 C   0  0  0  0  0  2  0  0  0  0  0  0
  187.1140  177.0310  141.6630 C   0  0  1  0  0  3  0  0  0  0  0  0
  184.0360  178.3320  140.5330 C   0  0  0  0  0  2  0  0  0  0  0  0
  182.8600  178.0360  141.3350 N   0  0  0  0  0  2  0  0  0  0  0  0
  181.7050  178.3510  140.5140 C   0  0  0  0  0  1  0  0  0  0  0  0
  194.4100  175.4660  146.2670 C   0  0  0  0  0  2  0  0  0  0  0  0
  193.5210  174.8390  145.2080 C   0  0  1  0  0  3  0  0  0  0  0  0
  192.9590  175.8700  146.1670 C   0  0  1  0  0  3  0  0  0  0  0  0
  192.1490  175.1650  147.2370 C   0  0  0  0  0  2  0  0  0  0  0  0
  189.7520  174.1130  145.8400 C   0  0  0  0  0  1  0  0  0  0  0  0
  190.8150  175.8260  147.3470 C   0  0  0  0  0  0  0  0  0  0  0  0
  190.7170  176.9070  147.9890 O   0  0  0  0  0  0  0  0  0  0  0  0
  189.6390  175.2050  146.7960 N   0  0  0  0  0  0  0  0  0  0  0  0
  188.3200  175.5290  147.3230 C   0  0  0  0  0  2  0  0  0  0  0  0
  187.7250  176.7010  146.5620 C   0  0  0  0  0  2  0  0  0  0  0  0
  186.0770  178.9680  145.8240 O   0  0  0  0  0  0  0  0  0  0  0  0
  184.2520  177.8130  146.5740 O   0  0  0  0  0  1  0  0  0  0  0  0
  185.4920  177.8400  146.3820 C   0  0  0  0  0  0  0  0  0  0  0  0
  186.2830  176.7040  146.7180 N   0  0  0  0  0  2  0  0  0  0  0  0
  1  3  1  0  0  0  0
  2  5  1  0  0  0  0
  4 10  1  0  0  0  0
  4  1  2  0  0  0  0
  6  5  2  0  0  0  0
  6  3  1  0  0  0  0
  7  9  1  0  0  0  0
  7 10  2  0  0  0  0
  8  9  1  0  0  0  0
  9  2  2  0  0  0  0
 10  6  1  0  0  0  0
 11 14  1  0  0  0  0
 11 13  1  0  0  0  0
 11 12  1  1  0  0  0
 13  1  1  6  0  0  0
 13 12  1  0  0  0  0
 14 15  1  1  0  0  0
 16 14  1  0  0  0  0
 16 15  1  1  0  0  0
 18 19  1  0  0  0  0
 18 21  1  0  0  0  0
 19 22  1  6  0  0  0
 19 20  1  0  0  0  0
 20 17  1  0  0  0  0
 21 16  1  0  0  0  0
 21 17  1  1  0  0  0
 22 23  1  0  0  0  0
 24 23  1  0  0  0  0
 26  3  1  6  0  0  0
 26 27  1  0  0  0  0
 26 25  1  0  0  0  0
 27 25  1  0  0  0  0
 27 28  1  1  0  0  0
 28 30  1  0  0  0  0
 29 32  1  0  0  0  0
 30 31  2  0  0  0  0
 32 33  1  0  0  0  0
 32 30  1  0  0  0  0
 34 38  1  0  0  0  0
 34 33  1  0  0  0  0
 35 37  2  0  0  0  0
 37 36  1  0  0  0  0
 37 38  1  0  0  0  0
M  END
>  <MODEL>
2

>  <REMARK>
 VINA RESULT:      -6.5      3.361      6.237
  Name = 
  11 active torsions:
  status: ('A' for Active; 'I' for Inactive)
    1  A    between atoms: C_1  and  C_36
    2  A    between atoms: N_2  and  C_3
    3  A    between atoms: N_6  and  C_23
    4  A    between atoms: C_8  and  C_17
    5  A    between atoms: C_8  and  C_29
    6  A    between atoms: C_12  and  C_27
    7  A    between atoms: C_12  and  N_34
    8  A    between atoms: N_16  and  C_38
    9  A    between atoms: C_22  and  C_38
   10  A    between atoms: C_27  and  N_37
   11  A    between atoms: C_30  and  C_35
                            x       y       z     vdW  Elec       q    Type
                         _______ _______ _______ _____ _____    ______ ____

>  <TORSDO>
F 11

$$$$
=
 OpenBabel11042416243D

 38 43  0  0  1  0  0  0  0  0999 V2000
  192.2140  175.7020  144.8110 C   0  0  0  0  0  0  0  0  0  0  0  0
  195.5560  176.3740  141.9230 C   0  0  0  0  0  3  0  0  0  0  0  0
  192.2660  175.7120  143.4520 N   0  0  0  0  0  0  0  0  0  0  0  0
  193.4220  175.9210  145.3990 N   0  0  0  0  0  0  0  0  0  0  0  0
  194.1750  176.1110  141.9310 C   0  0  0  0  0  3  0  0  0  0  0  0
  193.5560  175.9670  143.1740 C   0  0  0  0  0  0  0  0  0  0  0  0
  195.6150  176.3340  144.3720 C   0  0  0  0  0  3  0  0  0  0  0  0
  197.6370  176.7470  143.1070 O   0  0  0  0  0  1  0  0  0  0  0  0
  196.2750  176.4830  143.1370 C   0  0  0  0  0  0  0  0  0  0  0  0
  194.2460  176.0800  144.3460 C   0  0  0  0  0  0  0  0  0  0  0  0
  190.2780  176.8010  145.8270 N   0  0  1  0  0  0  0  0  0  0  0  0
  191.0580  176.1570  146.8920 C   0  0  0  0  0  2  0  0  0  0  0  0
  190.9440  175.5090  145.5860 C   0  0  2  0  0  3  0  0  0  0  0  0
  188.8860  176.4940  146.0870 C   0  0  1  0  0  3  0  0  0  0  0  0
  188.3530  177.4510  146.9630 O   0  0  0  0  0  0  0  0  0  0  0  0
  188.0280  177.6020  145.5990 C   0  0  2  0  0  3  0  0  0  0  0  0
  185.5470  177.6260  146.1930 C   0  0  0  0  0  2  0  0  0  0  0  0
  186.3090  177.3220  143.9420 O   0  0  0  0  0  0  0  0  0  0  0  0
  185.2680  178.2670  143.9460 C   0  0  2  0  0  3  0  0  0  0  0  0
  184.5180  178.1540  145.2480 C   0  0  0  0  0  2  0  0  0  0  0  0
  186.6300  177.0610  145.2910 C   0  0  1  0  0  3  0  0  0  0  0  0
  184.3180  177.9990  142.7990 C   0  0  0  0  0  2  0  0  0  0  0  0
  185.0050  178.2080  141.5350 N   0  0  0  0  0  2  0  0  0  0  0  0
  183.9770  178.3670  140.5210 C   0  0  0  0  0  1  0  0  0  0  0  0
  191.2340  174.3380  141.6950 C   0  0  0  0  0  2  0  0  0  0  0  0
  191.1410  175.6080  142.5210 C   0  0  1  0  0  3  0  0  0  0  0  0
  190.3050  174.3970  142.8830 C   0  0  1  0  0  3  0  0  0  0  0  0
  188.8790  174.6190  142.4170 C   0  0  0  0  0  2  0  0  0  0  0  0
  188.1550  174.7840  139.5450 C   0  0  0  0  0  1  0  0  0  0  0  0
  188.4320  173.4230  141.6440 C   0  0  0  0  0  0  0  0  0  0  0  0
  188.2810  172.3250  142.2450 O   0  0  0  0  0  0  0  0  0  0  0  0
  188.2450  173.4970  140.2190 N   0  0  0  0  0  0  0  0  0  0  0  0
  188.3320  172.2930  139.4010 C   0  0  0  0  0  2  0  0  0  0  0  0
  189.7820  172.0010  139.0520 C   0  0  0  0  0  2  0  0  0  0  0  0
  191.7180  173.9540  138.1370 O   0  0  0  0  0  1  0  0  0  0  0  0
  191.0760  173.5000  135.9910 O   0  0  0  0  0  0  0  0  0  0  0  0
  190.9420  173.2650  137.2160 C   0  0  0  0  0  0  0  0  0  0  0  0
  190.0110  172.2770  137.6470 N   0  0  0  0  0  2  0  0  0  0  0  0
  1  4  2  0  0  0  0
  2  5  2  0  0  0  0
  2  9  1  0  0  0  0
  3  1  1  0  0  0  0
  5  6  1  0  0  0  0
  6  3  1  0  0  0  0
  6 10  2  0  0  0  0
  8  9  1  0  0  0  0
  9  7  2  0  0  0  0
 10  7  1  0  0  0  0
 10  4  1  0  0  0  0
 11 14  1  0  0  0  0
 11 12  1  1  0  0  0
 13  1  1  6  0  0  0
 13 11  1  0  0  0  0
 13 12  1  0  0  0  0
 14 15  1  1  0  0  0
 16 14  1  0  0  0  0
 16 15  1  1  0  0  0
 18 19  1  0  0  0  0
 18 21  1  0  0  0  0
 19 22  1  6  0  0  0
 19 20  1  0  0  0  0
 20 17  1  0  0  0  0
 21 16  1  0  0  0  0
 21 17  1  1  0  0  0
 23 22  1  0  0  0  0
 24 23  1  0  0  0  0
 25 27  1  0  0  0  0
 26 25  1  6  0  0  0
 26 27  1  0  0  0  0
 26  3  1  0  0  0  0
 27 28  1  6  0  0  0
 29 32  1  0  0  0  0
 30 31  2  0  0  0  0
 30 28  1  0  0  0  0
 32 30  1  0  0  0  0
 33 32  1  0  0  0  0
 34 33  1  0  0  0  0
 36 37  2  0  0  0  0
 37 38  1  0  0  0  0
 37 35  1  0  0  0  0
 38 34  1  0  0  0  0
M  END
>  <MODEL>
3

>  <REMARK>
 VINA RESULT:      -6.4      2.138      6.698
  Name = 
  11 active torsions:
  status: ('A' for Active; 'I' for Inactive)
    1  A    between atoms: C_1  and  C_36
    2  A    between atoms: N_2  and  C_3
    3  A    between atoms: N_6  and  C_23
    4  A    between atoms: C_8  and  C_17
    5  A    between atoms: C_8  and  C_29
    6  A    between atoms: C_12  and  C_27
    7  A    between atoms: C_12  and  N_34
    8  A    between atoms: N_16  and  C_38
    9  A    between atoms: C_22  and  C_38
   10  A    between atoms: C_27  and  N_37
   11  A    between atoms: C_30  and  C_35
                            x       y       z     vdW  Elec       q    Type
                         _______ _______ _______ _____ _____    ______ ____

>  <TORSDO>
F 11

$$$$
=
 OpenBabel11042416243D

 38 43  0  0  1  0  0  0  0  0999 V2000
  185.1520  178.5890  143.9350 C   0  0  0  0  0  0  0  0  0  0  0  0
  183.0520  177.8260  140.0650 C   0  0  0  0  0  3  0  0  0  0  0  0
  185.5840  178.1350  142.7270 N   0  0  0  0  0  0  0  0  0  0  0  0
  183.8230  178.8850  143.9540 N   0  0  0  0  0  0  0  0  0  0  0  0
  184.3340  177.7290  140.6330 C   0  0  0  0  0  3  0  0  0  0  0  0
  184.4790  178.1270  141.9640 C   0  0  0  0  0  0  0  0  0  0  0  0
  182.1470  178.7030  142.1670 C   0  0  0  0  0  3  0  0  0  0  0  0
  180.7050  178.3980  140.2480 O   0  0  0  0  0  1  0  0  0  0  0  0
  181.9620  178.3130  140.8270 C   0  0  0  0  0  0  0  0  0  0  0  0
  183.4290  178.5880  142.7020 C   0  0  0  0  0  0  0  0  0  0  0  0
  185.6140  177.7880  146.2000 N   0  0  1  0  0  0  0  0  0  0  0  0
  185.2690  179.2130  146.2730 C   0  0  0  0  0  2  0  0  0  0  0  0
  186.0400  178.7140  145.1360 C   0  0  2  0  0  3  0  0  0  0  0  0
  186.7690  177.5940  147.0520 C   0  0  1  0  0  3  0  0  0  0  0  0
  186.5090  176.5580  147.9620 O   0  0  0  0  0  0  0  0  0  0  0  0
  187.3170  176.2290  146.8540 C   0  0  2  0  0  3  0  0  0  0  0  0
  189.3820  174.8260  147.3810 C   0  0  0  0  0  2  0  0  0  0  0  0
  189.5350  176.9330  146.2510 O   0  0  0  0  0  0  0  0  0  0  0  0
  190.3330  175.9950  145.5730 C   0  0  2  0  0  3  0  0  0  0  0  0
  190.5770  174.8210  146.4860 C   0  0  0  0  0  2  0  0  0  0  0  0
  188.8020  176.2210  147.2230 C   0  0  1  0  0  3  0  0  0  0  0  0
  191.6600  176.6170  145.1970 C   0  0  0  0  0  2  0  0  0  0  0  0
  192.5920  176.4950  146.3070 N   0  0  0  0  0  2  0  0  0  0  0  0
  193.9110  176.7980  145.7810 C   0  0  0  0  0  1  0  0  0  0  0  0
  187.4770  176.7790  143.5150 C   0  0  0  0  0  2  0  0  0  0  0  0
  186.9210  177.6400  142.3950 C   0  0  1  0  0  3  0  0  0  0  0  0
  186.8820  176.1290  142.2900 C   0  0  1  0  0  3  0  0  0  0  0  0
  187.9870  175.6660  141.3600 C   0  0  0  0  0  2  0  0  0  0  0  0
  190.8020  175.0230  142.0420 C   0  0  0  0  0  1  0  0  0  0  0  0
  188.4110  174.2920  141.7590 C   0  0  0  0  0  0  0  0  0  0  0  0
  187.5650  173.3560  141.7300 O   0  0  0  0  0  0  0  0  0  0  0  0
  189.7430  174.0440  142.2410 N   0  0  0  0  0  0  0  0  0  0  0  0
  190.0150  172.8990  143.1010 C   0  0  0  0  0  2  0  0  0  0  0  0
  191.4730  172.4870  142.9800 C   0  0  0  0  0  2  0  0  0  0  0  0
  193.8660  173.9910  143.6200 O   0  0  0  0  0  0  0  0  0  0  0  0
  193.7980  173.0950  145.7220 O   0  0  0  0  0  1  0  0  0  0  0  0
  193.2810  173.1800  144.5820 C   0  0  0  0  0  0  0  0  0  0  0  0
  192.0840  172.4630  144.2950 N   0  0  0  0  0  2  0  0  0  0  0  0
  1  4  2  0  0  0  0
  2  5  2  0  0  0  0
  2  9  1  0  0  0  0
  3  1  1  0  0  0  0
  5  6  1  0  0  0  0
  6 10  2  0  0  0  0
  6  3  1  0  0  0  0
  7 10  1  0  0  0  0
  8  9  1  0  0  0  0
  9  7  2  0  0  0  0
 10  4  1  0  0  0  0
 11 12  1  1  0  0  0
 11 14  1  0  0  0  0
 13  1  1  6  0  0  0
 13 11  1  0  0  0  0
 13 12  1  0  0  0  0
 14 15  1  1  0  0  0
 16 14  1  0  0  0  0
 16 21  1  0  0  0  0
 16 15  1  1  0  0  0
 18 21  1  0  0  0  0
 19 22  1  1  0  0  0
 19 18  1  0  0  0  0
 19 20  1  0  0  0  0
 20 17  1  0  0  0  0
 21 17  1  6  0  0  0
 22 23  1  0  0  0  0
 24 23  1  0  0  0  0
 26  3  1  1  0  0  0
 26 25  1  0  0  0  0
 27 28  1  6  0  0  0
 27 26  1  0  0  0  0
 27 25  1  0  0  0  0
 28 30  1  0  0  0  0
 29 32  1  0  0  0  0
 30 32  1  0  0  0  0
 31 30  2  0  0  0  0
 32 33  1  0  0  0  0
 34 33  1  0  0  0  0
 34 38  1  0  0  0  0
 35 37  2  0  0  0  0
 37 36  1  0  0  0  0
 38 37  1  0  0  0  0
M  END
>  <MODEL>
4

>  <REMARK>
 VINA RESULT:      -6.4      2.455      6.189
  Name = 
  11 active torsions:
  status: ('A' for Active; 'I' for Inactive)
    1  A    between atoms: C_1  and  C_36
    2  A    between atoms: N_2  and  C_3
    3  A    between atoms: N_6  and  C_23
    4  A    between atoms: C_8  and  C_17
    5  A    between atoms: C_8  and  C_29
    6  A    between atoms: C_12  and  C_27
    7  A    between atoms: C_12  and  N_34
    8  A    between atoms: N_16  and  C_38
    9  A    between atoms: C_22  and  C_38
   10  A    between atoms: C_27  and  N_37
   11  A    between atoms: C_30  and  C_35
                            x       y       z     vdW  Elec       q    Type
                         _______ _______ _______ _____ _____    ______ ____

>  <TORSDO>
F 11

$$$$
=
 OpenBabel11042416243D

 38 43  0  0  1  0  0  0  0  0999 V2000
  190.7880  172.9470  140.7370 C   0  0  0  0  0  0  0  0  0  0  0  0
  188.1920  174.5400  137.4670 C   0  0  0  0  0  3  0  0  0  0  0  0
  189.5360  173.4800  140.7330 N   0  0  0  0  0  0  0  0  0  0  0  0
  191.3440  172.8700  139.4960 N   0  0  0  0  0  0  0  0  0  0  0  0
  188.1780  174.3530  138.8610 C   0  0  0  0  0  3  0  0  0  0  0  0
  189.3040  173.7670  139.4420 C   0  0  0  0  0  0  0  0  0  0  0  0
  190.4300  173.5540  137.3210 C   0  0  0  0  0  3  0  0  0  0  0  0
  189.3060  174.3370  135.3260 O   0  0  0  0  0  1  0  0  0  0  0  0
  189.3120  174.1410  136.6990 C   0  0  0  0  0  0  0  0  0  0  0  0
  190.3880  173.3890  138.7040 C   0  0  0  0  0  0  0  0  0  0  0  0
  192.8000  173.2090  142.1040 N   0  0  1  0  0  0  0  0  0  0  0  0
  192.7340  171.8180  141.6380 C   0  0  0  0  0  2  0  0  0  0  0  0
  191.5020  172.5240  141.9860 C   0  0  2  0  0  3  0  0  0  0  0  0
  193.1550  173.1630  143.5080 C   0  0  1  0  0  3  0  0  0  0  0  0
  194.5070  173.5050  143.6590 O   0  0  0  0  0  0  0  0  0  0  0  0
  193.5700  174.5120  143.9660 C   0  0  2  0  0  3  0  0  0  0  0  0
  194.2250  175.6620  146.1470 C   0  0  0  0  0  2  0  0  0  0  0  0
  191.9860  174.9220  145.7270 O   0  0  0  0  0  0  0  0  0  0  0  0
  191.9430  176.2280  146.2470 C   0  0  2  0  0  3  0  0  0  0  0  0
  193.2690  176.5330  146.8940 C   0  0  0  0  0  2  0  0  0  0  0  0
  193.3420  174.6260  145.4750 C   0  0  1  0  0  3  0  0  0  0  0  0
  190.8450  176.3390  147.2830 C   0  0  0  0  0  2  0  0  0  0  0  0
  190.1570  175.0640  147.4060 N   0  0  0  0  0  2  0  0  0  0  0  0
  188.7630  175.3090  147.0830 C   0  0  0  0  0  1  0  0  0  0  0  0
  189.4190  174.7410  142.8400 C   0  0  0  0  0  2  0  0  0  0  0  0
  188.7040  173.7910  141.8960 C   0  0  1  0  0  3  0  0  0  0  0  0
  188.3710  175.2700  141.8900 C   0  0  1  0  0  3  0  0  0  0  0  0
  187.0650  175.4890  142.6290 C   0  0  0  0  0  2  0  0  0  0  0  0
  185.6370  177.6270  141.1470 C   0  0  0  0  0  1  0  0  0  0  0  0
  187.0180  176.8980  143.1210 C   0  0  0  0  0  0  0  0  0  0  0  0
  187.6700  177.2080  144.1560 O   0  0  0  0  0  0  0  0  0  0  0  0
  186.1850  177.8760  142.4730 N   0  0  0  0  0  0  0  0  0  0  0  0
  185.7200  179.0480  143.2040 C   0  0  0  0  0  2  0  0  0  0  0  0
  184.4590  178.7130  143.9820 C   0  0  0  0  0  2  0  0  0  0  0  0
  185.0790  176.8710  146.1320 O   0  0  0  0  0  0  0  0  0  0  0  0
  184.9540  178.6250  147.5930 O   0  0  0  0  0  1  0  0  0  0  0  0
  184.8770  178.2160  146.4100 C   0  0  0  0  0  0  0  0  0  0  0  0
  184.6070  179.1400  145.3600 N   0  0  0  0  0  2  0  0  0  0  0  0
  2  5  1  0  0  0  0
  3  1  1  0  0  0  0
  4  1  2  0  0  0  0
  5  6  2  0  0  0  0
  6  3  1  0  0  0  0
  7 10  2  0  0  0  0
  8  9  1  0  0  0  0
  9  7  1  0  0  0  0
  9  2  2  0  0  0  0
 10  6  1  0  0  0  0
 10  4  1  0  0  0  0
 11 12  1  6  0  0  0
 11 14  1  0  0  0  0
 12 13  1  0  0  0  0
 13  1  1  6  0  0  0
 13 11  1  0  0  0  0
 14 15  1  6  0  0  0
 14 16  1  0  0  0  0
 16 15  1  1  0  0  0
 16 21  1  0  0  0  0
 17 20  1  0  0  0  0
 18 19  1  0  0  0  0
 19 20  1  0  0  0  0
 19 22  1  1  0  0  0
 21 18  1  0  0  0  0
 21 17  1  6  0  0  0
 22 23  1  0  0  0  0
 24 23  1  0  0  0  0
 26  3  1  6  0  0  0
 26 25  1  0  0  0  0
 27 26  1  0  0  0  0
 27 28  1  1  0  0  0
 27 25  1  0  0  0  0
 28 30  1  0  0  0  0
 29 32  1  0  0  0  0
 30 31  2  0  0  0  0
 32 30  1  0  0  0  0
 32 33  1  0  0  0  0
 33 34  1  0  0  0  0
 34 38  1  0  0  0  0
 35 37  2  0  0  0  0
 37 36  1  0  0  0  0
 38 37  1  0  0  0  0
M  END
>  <MODEL>
5

>  <REMARK>
 VINA RESULT:      -6.1      2.145      6.615
  Name = 
  11 active torsions:
  status: ('A' for Active; 'I' for Inactive)
    1  A    between atoms: C_1  and  C_36
    2  A    between atoms: N_2  and  C_3
    3  A    between atoms: N_6  and  C_23
    4  A    between atoms: C_8  and  C_17
    5  A    between atoms: C_8  and  C_29
    6  A    between atoms: C_12  and  C_27
    7  A    between atoms: C_12  and  N_34
    8  A    between atoms: N_16  and  C_38
    9  A    between atoms: C_22  and  C_38
   10  A    between atoms: C_27  and  N_37
   11  A    between atoms: C_30  and  C_35
                            x       y       z     vdW  Elec       q    Type
                         _______ _______ _______ _____ _____    ______ ____

>  <TORSDO>
F 11

$$$$
=
 OpenBabel11042416243D

 38 43  0  0  1  0  0  0  0  0999 V2000
  189.4660  174.5000  141.8500 C   0  0  0  0  0  0  0  0  0  0  0  0
  191.6880  170.7580  142.8650 C   0  0  0  0  0  3  0  0  0  0  0  0
  190.3390  174.1900  142.8470 N   0  0  0  0  0  0  0  0  0  0  0  0
  189.2480  173.4710  140.9860 N   0  0  0  0  0  0  0  0  0  0  0  0
  191.5140  172.0710  143.3380 C   0  0  0  0  0  3  0  0  0  0  0  0
  190.6660  172.9090  142.6110 C   0  0  0  0  0  0  0  0  0  0  0  0
  190.1720  171.1950  140.9890 C   0  0  0  0  0  3  0  0  0  0  0  0
  191.2050  169.0210  141.2470 O   0  0  0  0  0  1  0  0  0  0  0  0
  191.0220  170.3210  141.6950 C   0  0  0  0  0  0  0  0  0  0  0  0
  190.0170  172.4870  141.4880 C   0  0  0  0  0  0  0  0  0  0  0  0
  187.3430  175.7030  142.0200 N   0  0  1  0  0  0  0  0  0  0  0  0
  187.8210  175.8000  140.6350 C   0  0  0  0  0  2  0  0  0  0  0  0
  188.7820  175.8300  141.7360 C   0  0  2  0  0  3  0  0  0  0  0  0
  186.8880  177.0260  142.3970 C   0  0  1  0  0  3  0  0  0  0  0  0
  185.5970  177.2370  141.8910 O   0  0  0  0  0  0  0  0  0  0  0  0
  185.6860  176.9170  143.2610 C   0  0  2  0  0  3  0  0  0  0  0  0
  184.2100  178.8240  144.0960 C   0  0  0  0  0  2  0  0  0  0  0  0
  185.9060  177.8370  145.4710 O   0  0  0  0  0  0  0  0  0  0  0  0
  184.7250  177.9610  146.2240 C   0  0  2  0  0  3  0  0  0  0  0  0
  183.8110  178.9380  145.5300 C   0  0  0  0  0  2  0  0  0  0  0  0
  185.5790  178.1660  144.1390 C   0  0  1  0  0  3  0  0  0  0  0  0
  185.0440  178.4760  147.6110 C   0  0  0  0  0  2  0  0  0  0  0  0
  186.4090  178.1200  147.9630 N   0  0  0  0  0  2  0  0  0  0  0  0
  187.0230  179.3130  148.5190 C   0  0  0  0  0  1  0  0  0  0  0  0
  189.5740  175.1350  144.9840 C   0  0  0  0  0  2  0  0  0  0  0  0
  190.7150  175.0280  143.9870 C   0  0  1  0  0  3  0  0  0  0  0  0
  190.7180  174.1850  145.2460 C   0  0  1  0  0  3  0  0  0  0  0  0
  191.6780  174.7940  146.2500 C   0  0  0  0  0  2  0  0  0  0  0  0
  193.5480  176.8670  145.2460 C   0  0  0  0  0  1  0  0  0  0  0  0
  193.0760  174.4680  145.8410 C   0  0  0  0  0  0  0  0  0  0  0  0
  193.4520  173.2630  145.8470 O   0  0  0  0  0  0  0  0  0  0  0  0
  194.0100  175.5130  145.5150 N   0  0  0  0  0  0  0  0  0  0  0  0
  195.4440  175.2830  145.6330 C   0  0  0  0  0  2  0  0  0  0  0  0
  195.9850  174.6840  144.3460 C   0  0  0  0  0  2  0  0  0  0  0  0
  194.4940  175.5010  141.9990 O   0  0  0  0  0  1  0  0  0  0  0  0
  196.1550  177.0030  141.5380 O   0  0  0  0  0  0  0  0  0  0  0  0
  195.7060  176.1090  142.2960 C   0  0  0  0  0  0  0  0  0  0  0  0
  196.4340  175.7440  143.4640 N   0  0  0  0  0  2  0  0  0  0  0  0
  1  3  1  0  0  0  0
  2  5  1  0  0  0  0
  4 10  1  0  0  0  0
  4  1  2  0  0  0  0
  6  3  1  0  0  0  0
  6  5  2  0  0  0  0
  7 10  2  0  0  0  0
  7  9  1  0  0  0  0
  8  9  1  0  0  0  0
  9  2  2  0  0  0  0
 10  6  1  0  0  0  0
 11 12  1  6  0  0  0
 11 14  1  0  0  0  0
 12 13  1  0  0  0  0
 13  1  1  6  0  0  0
 13 11  1  0  0  0  0
 14 15  1  6  0  0  0
 14 16  1  0  0  0  0
 16 15  1  6  0  0  0
 16 21  1  0  0  0  0
 17 20  1  0  0  0  0
 18 19  1  0  0  0  0
 19 22  1  1  0  0  0
 20 19  1  0  0  0  0
 21 17  1  1  0  0  0
 21 18  1  0  0  0  0
 22 23  1  0  0  0  0
 23 24  1  0  0  0  0
 25 27  1  0  0  0  0
 26  3  1  6  0  0  0
 26 25  1  0  0  0  0
 26 27  1  0  0  0  0
 27 28  1  1  0  0  0
 29 32  1  0  0  0  0
 30 31  2  0  0  0  0
 30 28  1  0  0  0  0
 32 33  1  0  0  0  0
 32 30  1  0  0  0  0
 34 33  1  0  0  0  0
 35 37  1  0  0  0  0
 36 37  2  0  0  0  0
 37 38  1  0  0  0  0
 38 34  1  0  0  0  0
M  END
>  <MODEL>
6

>  <REMARK>
 VINA RESULT:      -6.1      1.941      2.738
  Name = 
  11 active torsions:
  status: ('A' for Active; 'I' for Inactive)
    1  A    between atoms: C_1  and  C_36
    2  A    between atoms: N_2  and  C_3
    3  A    between atoms: N_6  and  C_23
    4  A    between atoms: C_8  and  C_17
    5  A    between atoms: C_8  and  C_29
    6  A    between atoms: C_12  and  C_27
    7  A    between atoms: C_12  and  N_34
    8  A    between atoms: N_16  and  C_38
    9  A    between atoms: C_22  and  C_38
   10  A    between atoms: C_27  and  N_37
   11  A    between atoms: C_30  and  C_35
                            x       y       z     vdW  Elec       q    Type
                         _______ _______ _______ _____ _____    ______ ____

>  <TORSDO>
F 11

$$$$
=
 OpenBabel11042416243D

 38 43  0  0  1  0  0  0  0  0999 V2000
  189.0420  175.7430  145.6380 C   0  0  0  0  0  0  0  0  0  0  0  0
  185.9450  178.7970  144.6130 C   0  0  0  0  0  3  0  0  0  0  0  0
  188.9820  176.7050  144.6780 N   0  0  0  0  0  0  0  0  0  0  0  0
  187.9520  175.7260  146.4530 N   0  0  0  0  0  0  0  0  0  0  0  0
  187.2050  178.3510  144.1770 C   0  0  0  0  0  3  0  0  0  0  0  0
  187.7970  177.3040  144.8870 C   0  0  0  0  0  0  0  0  0  0  0  0
  185.9440  177.1420  146.4200 C   0  0  0  0  0  3  0  0  0  0  0  0
  184.0720  178.6500  146.1430 O   0  0  0  0  0  1  0  0  0  0  0  0
  185.3170  178.1970  145.7310 C   0  0  0  0  0  0  0  0  0  0  0  0
  187.1890  176.7190  145.9590 C   0  0  0  0  0  0  0  0  0  0  0  0
  190.0530  173.6930  144.7660 N   0  0  1  0  0  0  0  0  0  0  0  0
  189.6670  173.4610  146.1630 C   0  0  0  0  0  2  0  0  0  0  0  0
  190.1770  174.7710  145.7620 C   0  0  2  0  0  3  0  0  0  0  0  0
  191.3830  173.1400  144.6040 C   0  0  1  0  0  3  0  0  0  0  0  0
  191.2840  171.7800  144.2690 O   0  0  0  0  0  0  0  0  0  0  0  0
  191.5630  172.6660  143.2080 C   0  0  2  0  0  3  0  0  0  0  0  0
  193.6530  171.2860  142.7210 C   0  0  0  0  0  2  0  0  0  0  0  0
  193.2560  173.4010  141.6680 O   0  0  0  0  0  0  0  0  0  0  0  0
  193.6650  172.4760  140.6910 C   0  0  2  0  0  3  0  0  0  0  0  0
  194.3090  171.3000  141.3790 C   0  0  0  0  0  2  0  0  0  0  0  0
  193.0530  172.6750  142.8600 C   0  0  1  0  0  3  0  0  0  0  0  0
  194.6690  173.1170  139.7570 C   0  0  0  0  0  2  0  0  0  0  0  0
  196.0130  172.6920  140.1160 N   0  0  0  0  0  2  0  0  0  0  0  0
  196.8840  173.8320  139.8970 C   0  0  0  0  0  1  0  0  0  0  0  0
  190.5890  178.2950  143.7120 C   0  0  0  0  0  2  0  0  0  0  0  0
  189.9330  176.9310  143.5890 C   0  0  1  0  0  3  0  0  0  0  0  0
  191.3290  177.0600  144.1660 C   0  0  1  0  0  3  0  0  0  0  0  0
  192.3420  176.6470  143.1150 C   0  0  0  0  0  2  0  0  0  0  0  0
  194.9230  176.3810  141.6760 C   0  0  0  0  0  1  0  0  0  0  0  0
  193.5840  176.1790  143.7970 C   0  0  0  0  0  0  0  0  0  0  0  0
  193.5200  175.8090  145.0020 O   0  0  0  0  0  0  0  0  0  0  0  0
  194.8530  176.2160  143.1210 N   0  0  0  0  0  0  0  0  0  0  0  0
  196.0930  176.2780  143.8840 C   0  0  0  0  0  2  0  0  0  0  0  0
  196.9590  175.0680  143.5750 C   0  0  0  0  0  2  0  0  0  0  0  0
  197.1910  173.7920  146.1680 O   0  0  0  0  0  1  0  0  0  0  0  0
  195.7900  172.1480  145.4190 O   0  0  0  0  0  0  0  0  0  0  0  0
  196.3960  173.2210  145.1840 C   0  0  0  0  0  0  0  0  0  0  0  0
  196.2430  173.8540  143.9170 N   0  0  0  0  0  2  0  0  0  0  0  0
  1  4  2  0  0  0  0
  2  9  1  0  0  0  0
  3  6  1  0  0  0  0
  3  1  1  0  0  0  0
  5  2  2  0  0  0  0
  5  6  1  0  0  0  0
  6 10  2  0  0  0  0
  9  8  1  0  0  0  0
  9  7  2  0  0  0  0
 10  7  1  0  0  0  0
 10  4  1  0  0  0  0
 11 13  1  0  0  0  0
 11 12  1  1  0  0  0
 13  1  1  6  0  0  0
 13 12  1  0  0  0  0
 14 15  1  1  0  0  0
 14 11  1  0  0  0  0
 16 15  1  1  0  0  0
 16 14  1  0  0  0  0
 18 21  1  0  0  0  0
 19 22  1  6  0  0  0
 19 20  1  0  0  0  0
 19 18  1  0  0  0  0
 20 17  1  0  0  0  0
 21 17  1  6  0  0  0
 21 16  1  0  0  0  0
 22 23  1  0  0  0  0
 24 23  1  0  0  0  0
 25 27  1  0  0  0  0
 26 25  1  1  0  0  0
 26 27  1  0  0  0  0
 26  3  1  0  0  0  0
 27 28  1  6  0  0  0
 28 30  1  0  0  0  0
 29 32  1  0  0  0  0
 30 31  2  0  0  0  0
 32 30  1  0  0  0  0
 32 33  1  0  0  0  0
 34 33  1  0  0  0  0
 34 38  1  0  0  0  0
 37 36  2  0  0  0  0
 37 35  1  0  0  0  0
 38 37  1  0  0  0  0
M  END
>  <MODEL>
7

>  <REMARK>
 VINA RESULT:      -6.1      3.243      8.100
  Name = 
  11 active torsions:
  status: ('A' for Active; 'I' for Inactive)
    1  A    between atoms: C_1  and  C_36
    2  A    between atoms: N_2  and  C_3
    3  A    between atoms: N_6  and  C_23
    4  A    between atoms: C_8  and  C_17
    5  A    between atoms: C_8  and  C_29
    6  A    between atoms: C_12  and  C_27
    7  A    between atoms: C_12  and  N_34
    8  A    between atoms: N_16  and  C_38
    9  A    between atoms: C_22  and  C_38
   10  A    between atoms: C_27  and  N_37
   11  A    between atoms: C_30  and  C_35
                            x       y       z     vdW  Elec       q    Type
                         _______ _______ _______ _____ _____    ______ ____

>  <TORSDO>
F 11

$$$$
=
 OpenBabel11042416243D

 38 43  0  0  1  0  0  0  0  0999 V2000
  185.0300  178.7020  143.8130 C   0  0  0  0  0  0  0  0  0  0  0  0
  182.6050  177.9580  140.1350 C   0  0  0  0  0  3  0  0  0  0  0  0
  185.3680  178.3370  142.5470 N   0  0  0  0  0  0  0  0  0  0  0  0
  183.6930  178.8950  143.9800 N   0  0  0  0  0  0  0  0  0  0  0  0
  183.9420  177.9330  140.5680 C   0  0  0  0  0  3  0  0  0  0  0  0
  184.1940  178.2800  141.8970 C   0  0  0  0  0  0  0  0  0  0  0  0
  181.8600  178.6670  142.3600 C   0  0  0  0  0  3  0  0  0  0  0  0
  180.2540  178.3400  140.5790 O   0  0  0  0  0  1  0  0  0  0  0  0
  181.5670  178.3250  141.0260 C   0  0  0  0  0  0  0  0  0  0  0  0
  183.1950  178.6250  142.7590 C   0  0  0  0  0  0  0  0  0  0  0  0
  185.6680  177.9680  146.0590 N   0  0  1  0  0  0  0  0  0  0  0  0
  185.3760  179.4060  146.1060 C   0  0  0  0  0  2  0  0  0  0  0  0
  186.0260  178.8390  144.9260 C   0  0  2  0  0  3  0  0  0  0  0  0
  186.8880  177.7650  146.8130 C   0  0  1  0  0  3  0  0  0  0  0  0
  186.6650  176.8030  147.8110 O   0  0  0  0  0  0  0  0  0  0  0  0
  187.3470  176.3620  146.6580 C   0  0  2  0  0  3  0  0  0  0  0  0
  189.3560  174.9110  147.2660 C   0  0  0  0  0  2  0  0  0  0  0  0
  189.5330  176.7460  145.7360 O   0  0  0  0  0  0  0  0  0  0  0  0
  190.1930  175.6310  145.1880 C   0  0  2  0  0  3  0  0  0  0  0  0
  190.4490  174.6340  146.2870 C   0  0  0  0  0  2  0  0  0  0  0  0
  188.8580  176.2960  146.8900 C   0  0  1  0  0  3  0  0  0  0  0  0
  191.5130  176.0550  144.5810 C   0  0  0  0  0  2  0  0  0  0  0  0
  191.4650  177.4680  144.2420 N   0  0  0  0  0  2  0  0  0  0  0  0
  191.2510  177.5470  142.8080 C   0  0  0  0  0  1  0  0  0  0  0  0
  187.4960  177.2580  143.1410 C   0  0  0  0  0  2  0  0  0  0  0  0
  186.6960  177.9610  142.0580 C   0  0  1  0  0  3  0  0  0  0  0  0
  186.8190  176.4510  142.0590 C   0  0  1  0  0  3  0  0  0  0  0  0
  187.8330  176.0330  141.0120 C   0  0  0  0  0  2  0  0  0  0  0  0
  188.2260  174.1490  138.7540 C   0  0  0  0  0  1  0  0  0  0  0  0
  188.1910  174.6010  141.2290 C   0  0  0  0  0  0  0  0  0  0  0  0
  188.2530  174.1560  142.4080 O   0  0  0  0  0  0  0  0  0  0  0  0
  188.5360  173.7520  140.1200 N   0  0  0  0  0  0  0  0  0  0  0  0
  189.3670  172.5730  140.3250 C   0  0  0  0  0  2  0  0  0  0  0  0
  190.0960  172.2160  139.0400 C   0  0  0  0  0  2  0  0  0  0  0  0
  189.6940  169.8030  137.4860 O   0  0  0  0  0  0  0  0  0  0  0  0
  191.3270  168.7980  138.7320 O   0  0  0  0  0  1  0  0  0  0  0  0
  190.6490  169.8270  138.4930 C   0  0  0  0  0  0  0  0  0  0  0  0
  190.8840  171.0150  139.2420 N   0  0  0  0  0  2  0  0  0  0  0  0
  1  4  2  0  0  0  0
  2  5  2  0  0  0  0
  2  9  1  0  0  0  0
  3  1  1  0  0  0  0
  5  6  1  0  0  0  0
  6  3  1  0  0  0  0
  6 10  2  0  0  0  0
  7 10  1  0  0  0  0
  8  9  1  0  0  0  0
  9  7  2  0  0  0  0
 10  4  1  0  0  0  0
 11 12  1  1  0  0  0
 11 14  1  0  0  0  0
 13  1  1  6  0  0  0
 13 11  1  0  0  0  0
 13 12  1  0  0  0  0
 14 15  1  1  0  0  0
 16 14  1  0  0  0  0
 16 21  1  0  0  0  0
 16 15  1  1  0  0  0
 18 21  1  0  0  0  0
 19 22  1  1  0  0  0
 19 18  1  0  0  0  0
 19 20  1  0  0  0  0
 20 17  1  0  0  0  0
 21 17  1  6  0  0  0
 23 22  1  0  0  0  0
 24 23  1  0  0  0  0
 26 27  1  0  0  0  0
 26  3  1  1  0  0  0
 26 25  1  0  0  0  0
 27 28  1  6  0  0  0
 27 25  1  0  0  0  0
 28 30  1  0  0  0  0
 29 32  1  0  0  0  0
 30 31  2  0  0  0  0
 32 33  1  0  0  0  0
 32 30  1  0  0  0  0
 34 38  1  0  0  0  0
 34 33  1  0  0  0  0
 35 37  2  0  0  0  0
 37 36  1  0  0  0  0
 37 38  1  0  0  0  0
M  END
>  <MODEL>
8

>  <REMARK>
 VINA RESULT:      -6.1      2.457      7.207
  Name = 
  11 active torsions:
  status: ('A' for Active; 'I' for Inactive)
    1  A    between atoms: C_1  and  C_36
    2  A    between atoms: N_2  and  C_3
    3  A    between atoms: N_6  and  C_23
    4  A    between atoms: C_8  and  C_17
    5  A    between atoms: C_8  and  C_29
    6  A    between atoms: C_12  and  C_27
    7  A    between atoms: C_12  and  N_34
    8  A    between atoms: N_16  and  C_38
    9  A    between atoms: C_22  and  C_38
   10  A    between atoms: C_27  and  N_37
   11  A    between atoms: C_30  and  C_35
                            x       y       z     vdW  Elec       q    Type
                         _______ _______ _______ _____ _____    ______ ____

>  <TORSDO>
F 11

$$$$
=
 OpenBabel11042416243D

 38 43  0  0  1  0  0  0  0  0999 V2000
  191.6810  174.7020  146.0500 C   0  0  0  0  0  0  0  0  0  0  0  0
  195.2990  173.4390  143.7510 C   0  0  0  0  0  3  0  0  0  0  0  0
  191.8740  173.7700  145.0780 N   0  0  0  0  0  0  0  0  0  0  0  0
  192.8210  175.3610  146.3980 N   0  0  0  0  0  0  0  0  0  0  0  0
  193.9270  173.1480  143.8470 C   0  0  0  0  0  3  0  0  0  0  0  0
  193.1840  173.8600  144.7910 C   0  0  0  0  0  0  0  0  0  0  0  0
  195.1050  175.1150  145.5280 C   0  0  0  0  0  3  0  0  0  0  0  0
  197.2430  174.6900  144.4760 O   0  0  0  0  0  1  0  0  0  0  0  0
  195.8870  174.4160  144.5890 C   0  0  0  0  0  0  0  0  0  0  0  0
  193.7470  174.8080  145.5930 C   0  0  0  0  0  0  0  0  0  0  0  0
  189.8940  176.3570  146.2800 N   0  0  1  0  0  0  0  0  0  0  0  0
  190.4620  176.0990  147.6090 C   0  0  0  0  0  2  0  0  0  0  0  0
  190.3400  175.0030  146.6500 C   0  0  2  0  0  3  0  0  0  0  0  0
  188.4540  176.3630  146.4360 C   0  0  1  0  0  3  0  0  0  0  0  0
  188.0430  177.6150  146.9190 O   0  0  0  0  0  0  0  0  0  0  0  0
  187.8560  177.3850  145.5410 C   0  0  2  0  0  3  0  0  0  0  0  0
  185.3940  177.6220  146.1670 C   0  0  0  0  0  2  0  0  0  0  0  0
  186.1050  177.3520  143.8940 O   0  0  0  0  0  0  0  0  0  0  0  0
  185.1610  178.3930  143.9550 C   0  0  2  0  0  3  0  0  0  0  0  0
  184.4140  178.2920  145.2600 C   0  0  0  0  0  2  0  0  0  0  0  0
  186.4100  176.9980  145.2260 C   0  0  1  0  0  3  0  0  0  0  0  0
  184.1800  178.2730  142.8090 C   0  0  0  0  0  2  0  0  0  0  0  0
  184.8830  178.4260  141.5450 N   0  0  0  0  0  2  0  0  0  0  0  0
  183.8890  178.2920  140.4950 C   0  0  0  0  0  1  0  0  0  0  0  0
  189.8930  173.8360  143.6250 C   0  0  0  0  0  2  0  0  0  0  0  0
  190.8530  172.9610  144.4120 C   0  0  1  0  0  3  0  0  0  0  0  0
  191.0040  173.1030  142.9100 C   0  0  1  0  0  3  0  0  0  0  0  0
  190.4560  171.8610  142.2350 C   0  0  0  0  0  2  0  0  0  0  0  0
  188.0050  172.6830  140.7770 C   0  0  0  0  0  1  0  0  0  0  0  0
  190.4480  172.0780  140.7580 C   0  0  0  0  0  0  0  0  0  0  0  0
  191.4930  171.8290  140.0960 O   0  0  0  0  0  0  0  0  0  0  0  0
  189.2940  172.6330  140.1020 N   0  0  0  0  0  0  0  0  0  0  0  0
  189.4330  173.3240  138.8270 C   0  0  0  0  0  2  0  0  0  0  0  0
  188.1920  174.1550  138.5440 C   0  0  0  0  0  2  0  0  0  0  0  0
  186.2490  176.0420  137.5120 O   0  0  0  0  0  1  0  0  0  0  0  0
  187.3400  175.9790  135.5040 O   0  0  0  0  0  0  0  0  0  0  0  0
  187.2710  175.5820  136.6920 C   0  0  0  0  0  0  0  0  0  0  0  0
  188.2540  174.6830  137.1940 N   0  0  0  0  0  2  0  0  0  0  0  0
  1  4  2  0  0  0  0
  2  5  2  0  0  0  0
  2  9  1  0  0  0  0
  3  1  1  0  0  0  0
  5  6  1  0  0  0  0
  6  3  1  0  0  0  0
  6 10  2  0  0  0  0
  7 10  1  0  0  0  0
  8  9  1  0  0  0  0
  9  7  2  0  0  0  0
 10  4  1  0  0  0  0
 11 14  1  0  0  0  0
 11 13  1  0  0  0  0
 11 12  1  1  0  0  0
 13  1  1  6  0  0  0
 13 12  1  0  0  0  0
 14 15  1  1  0  0  0
 16 14  1  0  0  0  0
 16 15  1  1  0  0  0
 18 19  1  0  0  0  0
 18 21  1  0  0  0  0
 19 22  1  6  0  0  0
 19 20  1  0  0  0  0
 20 17  1  0  0  0  0
 21 16  1  0  0  0  0
 21 17  1  1  0  0  0
 23 22  1  0  0  0  0
 24 23  1  0  0  0  0
 26 25  1  1  0  0  0
 26  3  1  0  0  0  0
 27 28  1  6  0  0  0
 27 25  1  0  0  0  0
 27 26  1  0  0  0  0
 30 28  1  0  0  0  0
 31 30  2  0  0  0  0
 32 30  1  0  0  0  0
 32 29  1  0  0  0  0
 33 32  1  0  0  0  0
 34 33  1  0  0  0  0
 36 37  2  0  0  0  0
 37 38  1  0  0  0  0
 37 35  1  0  0  0  0
 38 34  1  0  0  0  0
M  END
>  <MODEL>
9

>  <REMARK>
 VINA RESULT:      -6.1      2.344      7.098
  Name = 
  11 active torsions:
  status: ('A' for Active; 'I' for Inactive)
    1  A    between atoms: C_1  and  C_36
    2  A    between atoms: N_2  and  C_3
    3  A    between atoms: N_6  and  C_23
    4  A    between atoms: C_8  and  C_17
    5  A    between atoms: C_8  and  C_29
    6  A    between atoms: C_12  and  C_27
    7  A    between atoms: C_12  and  N_34
    8  A    between atoms: N_16  and  C_38
    9  A    between atoms: C_22  and  C_38
   10  A    between atoms: C_27  and  N_37
   11  A    between atoms: C_30  and  C_35
                            x       y       z     vdW  Elec       q    Type
                         _______ _______ _______ _____ _____    ______ ____

>  <TORSDO>
F 11

$$$$
