=
 OpenBabel11042419423D

 61 66  0  0  1  0  0  0  0  0999 V2000
  195.0930  174.6870  141.2570 C   0  0  1  0  0  3  0  0  0  0  0  0
  195.8700  175.7790  140.5220 C   0  0  0  0  0  1  0  0  0  0  0  0
  195.9830  172.7630  142.8750 C   0  0  2  0  0  3  0  0  0  0  0  0
  194.8750  173.4640  143.3860 O   0  0  0  0  0  0  0  0  0  0  0  0
  195.7590  174.2130  142.5740 C   0  0  2  0  0  0  0  0  0  0  0  0
  195.2830  174.4510  145.3630 O   0  0  0  0  0  1  0  0  0  0  0  0
  196.3060  175.3110  144.9360 C   0  0  2  0  0  3  0  0  0  0  0  0
  194.3710  176.3140  143.8680 O   0  0  0  0  0  1  0  0  0  0  0  0
  195.7600  176.4280  144.0390 C   0  0  2  0  0  3  0  0  0  0  0  0
  196.5230  175.2560  143.4270 C   0  0  2  0  0  0  0  0  0  0  0  0
  197.9400  175.6100  143.0270 C   0  0  0  0  0  1  0  0  0  0  0  0
  195.5140  171.8140  141.7770 C   0  0  0  0  0  2  0  0  0  0  0  0
  194.7990  170.6750  142.3450 N   0  0  0  0  0  0  0  0  0  0  0  0
  195.8170  169.7020  142.7000 C   0  0  0  0  0  2  0  0  0  0  0  0
  195.4130  168.9820  143.9740 C   0  0  0  0  0  2  0  0  0  0  0  0
  195.0640  169.5110  146.3850 C   0  0  0  0  0  1  0  0  0  0  0  0
  194.8000  169.9560  144.9550 C   0  0  0  0  0  2  0  0  0  0  0  0
  194.0050  170.0780  141.2740 C   0  0  0  0  0  2  0  0  0  0  0  0
  194.7180  170.2900  139.9480 C   0  0  0  0  0  2  0  0  0  0  0  0
  193.9370  169.6020  138.8410 C   0  0  0  0  0  2  0  0  0  0  0  0
  193.7260  170.5820  137.7060 C   0  0  0  0  0  2  0  0  0  0  0  0
  192.3970  171.2880  137.8760 C   0  0  0  0  0  2  0  0  0  0  0  0
  191.4460  170.6880  137.0450 O   0  0  0  0  0  0  0  0  0  0  0  0
  190.2360  170.7890  137.7370 C   0  0  2  0  0  3  0  0  0  0  0  0
  189.5320  169.5870  137.6030 O   0  0  0  0  0  0  0  0  0  0  0  0
  190.4350  168.5970  137.9850 C   0  0  0  0  0  1  0  0  0  0  0  0
  189.4090  171.9450  137.1770 C   0  0  2  0  0  3  0  0  0  0  0  0
  190.1480  172.6370  136.2220 O   0  0  0  0  0  1  0  0  0  0  0  0
  187.9790  172.5460  139.1540 O   0  0  0  0  0  1  0  0  0  0  0  0
  189.5720  174.0200  138.3640 O   0  0  0  0  0  0  0  0  0  0  0  0
  188.9960  172.8950  138.2610 C   0  0  0  0  0  0  0  0  0  0  0  0
  193.7540  175.0900  141.5140 O   0  0  0  0  0  0  0  0  0  0  0  0
  192.5200  174.2380  139.7520 O   0  0  0  0  0  0  0  0  0  0  0  0
  192.6420  174.4230  140.9930 C   0  0  0  0  0  0  0  0  0  0  0  0
  189.1930  174.0330  142.6550 C   0  0  2  0  0  3  0  0  0  0  0  0
  191.4100  172.3800  141.6420 C   0  0  0  0  0  2  0  0  0  0  0  0
  190.4830  175.9820  142.1050 O   0  0  0  0  0  1  0  0  0  0  0  0
  191.6120  173.8720  141.9210 C   0  0  2  0  0  3  0  0  0  0  0  0
  190.3360  171.8080  142.5620 C   0  0  2  0  0  3  0  0  0  0  0  0
  190.2890  174.6400  141.7650 C   0  0  1  0  0  3  0  0  0  0  0  0
  190.1610  170.4520  142.2830 O   0  0  0  0  0  1  0  0  0  0  0  0
  189.0190  172.5480  142.3460 C   0  0  0  0  0  2  0  0  0  0  0  0
  187.9290  174.7220  142.4370 N   0  0  0  0  0  0  0  0  0  0  0  0
  184.9360  179.0900  145.7040 C   0  0  0  0  0  2  0  0  0  0  0  0
  186.5460  177.6980  144.9580 C   0  0  1  0  0  3  0  0  0  0  0  0
  187.5170  175.6840  143.2080 C   0  0  0  0  0  0  0  0  0  0  0  0
  188.2590  176.0510  144.3470 O   0  0  0  0  0  0  0  0  0  0  0  0
  187.9900  177.2130  145.1430 C   0  0  2  0  0  3  0  0  0  0  0  0
  184.9840  178.6180  143.1870 C   0  0  1  0  0  3  0  0  0  0  0  0
  186.3320  178.9670  145.5160 O   0  0  0  0  0  0  0  0  0  0  0  0
  186.2430  177.7690  143.4630 C   0  0  2  0  0  3  0  0  0  0  0  0
  184.2220  178.1120  142.1310 O   0  0  0  0  0  1  0  0  0  0  0  0
  186.2160  176.3580  142.8960 C   0  0  0  0  0  2  0  0  0  0  0  0
  184.1070  178.8190  144.4280 C   0  0  0  0  0  2  0  0  0  0  0  0
  190.8850  176.9640  146.8920 C   0  0  0  0  0  2  0  0  0  0  0  0
  190.8300  175.5400  147.4260 C   0  0  2  0  0  3  0  0  0  0  0  0
  188.3740  175.4070  146.9470 C   0  0  0  0  0  2  0  0  0  0  0  0
  189.5610  177.6820  147.1540 C   0  0  0  0  0  2  0  0  0  0  0  0
  192.3940  174.7420  147.1540 Cl  0  0  0  0  0  0  0  0  0  0  0  0
  189.7370  174.7630  146.7060 C   0  0  0  0  0  2  0  0  0  0  0  0
  188.3660  176.8980  146.5960 C   0  0  1  0  0  3  0  0  0  0  0  0
  1  2  1  1  0  0  0
  1 32  1  0  0  0  0
  3 12  1  6  0  0  0
  3  4  1  0  0  0  0
  5  1  1  6  0  0  0
  5  3  1  0  0  0  0
  5  4  1  0  0  0  0
  5 10  1  0  0  0  0
  7  6  1  6  0  0  0
  9  8  1  6  0  0  0
  9  7  1  0  0  0  0
 10 11  1  6  0  0  0
 10  9  1  0  0  0  0
 10  7  1  0  0  0  0
 12 13  1  0  0  0  0
 13 14  1  0  0  0  0
 14 15  1  0  0  0  0
 15 17  1  0  0  0  0
 17 16  1  0  0  0  0
 18 13  1  0  0  0  0
 19 18  1  0  0  0  0
 20 19  1  0  0  0  0
 21 22  1  0  0  0  0
 21 20  1  0  0  0  0
 23 22  1  0  0  0  0
 24 23  1  6  0  0  0
 25 24  1  0  0  0  0
 25 26  1  0  0  0  0
 27 28  1  6  0  0  0
 27 24  1  0  0  0  0
 27 31  1  0  0  0  0
 31 30  2  0  0  0  0
 31 29  1  0  0  0  0
 33 34  2  0  0  0  0
 34 32  1  0  0  0  0
 35 43  1  6  0  0  0
 36 38  1  0  0  0  0
 36 39  1  0  0  0  0
 38 34  1  6  0  0  0
 39 41  1  6  0  0  0
 40 38  1  0  0  0  0
 40 37  1  1  0  0  0
 40 35  1  0  0  0  0
 42 39  1  0  0  0  0
 42 35  1  0  0  0  0
 43 46  2  0  0  0  0
 45 48  1  0  0  0  0
 45 50  1  6  0  0  0
 46 47  1  0  0  0  0
 48 47  1  6  0  0  0
 48 61  1  0  0  0  0
 49 52  1  6  0  0  0
 49 51  1  0  0  0  0
 49 54  1  0  0  0  0
 50 44  1  0  0  0  0
 51 53  1  1  0  0  0
 51 45  1  0  0  0  0
 53 46  1  0  0  0  0
 54 44  1  0  0  0  0
 55 58  1  0  0  0  0
 55 56  1  0  0  0  0
 56 59  1  6  0  0  0
 60 57  1  0  0  0  0
 60 56  1  0  0  0  0
 61 57  1  6  0  0  0
 61 58  1  0  0  0  0
M  END
>  <MODEL>
1

>  <REMARK>
 VINA RESULT:      -6.3      0.000      0.000
  Name = 
  22 active torsions:
  status: ('A' for Active; 'I' for Inactive)
    1  A    between atoms: C_3  and  N_7
    2  A    between atoms: C_3  and  C_16
    3  A    between atoms: C_4  and  N_7
    4  A    between atoms: C_4  and  C_61
    5  A    between atoms: N_5  and  C_15
    6  A    between atoms: N_7  and  C_25
    7  A    between atoms: C_9  and  C_10
    8  A    between atoms: C_9  and  C_18
    9  A    between atoms: C_10  and  C_16
   10  A    between atoms: C_11  and  C_32
   11  A    between atoms: C_11  and  C_42
   12  A    between atoms: C_18  and  O_22
   13  A    between atoms: C_19  and  C_57
   14  A    between atoms: C_20  and  C_25
   15  A    between atoms: O_22  and  C_42
   16  A    between atoms: O_26  and  C_45
   17  A    between atoms: O_26  and  C_60
   18  A    between atoms: C_33  and  C_55
   19  A    between atoms: C_36  and  C_61
   20  A    between atoms: C_37  and  C_60
   21  A    between atoms: C_42  and  O_47
   22  A    between atoms: C_45  and  C_57
                            x       y       z     vdW  Elec       q    Type
                         _______ _______ _______ _____ _____    ______ ____

>  <TORSDO>
F 22

$$$$
=
 OpenBabel11042419423D

 61 66  0  0  1  0  0  0  0  0999 V2000
  194.2890  170.8850  143.5100 C   0  0  1  0  0  3  0  0  0  0  0  0
  193.7180  170.2700  142.2310 C   0  0  0  0  0  1  0  0  0  0  0  0
  196.8220  171.5680  143.0380 C   0  0  2  0  0  3  0  0  0  0  0  0
  196.4550  170.3330  142.4740 O   0  0  0  0  0  0  0  0  0  0  0  0
  195.8140  170.6720  143.6890 C   0  0  2  0  0  0  0  0  0  0  0  0
  194.4880  170.6380  146.1990 O   0  0  0  0  0  1  0  0  0  0  0  0
  195.5200  169.6910  146.1450 C   0  0  2  0  0  3  0  0  0  0  0  0
  196.7820  171.7640  146.1150 O   0  0  0  0  0  1  0  0  0  0  0  0
  196.8970  170.3640  146.0940 C   0  0  2  0  0  3  0  0  0  0  0  0
  196.2970  169.7470  144.8330 C   0  0  2  0  0  0  0  0  0  0  0  0
  196.9200  168.4170  144.4650 C   0  0  0  0  0  1  0  0  0  0  0  0
  196.2190  172.6970  142.2110 C   0  0  0  0  0  2  0  0  0  0  0  0
  196.9620  172.8860  140.9680 N   0  0  0  0  0  0  0  0  0  0  0  0
  197.0840  174.3220  140.7920 C   0  0  0  0  0  2  0  0  0  0  0  0
  196.5570  175.0340  142.0250 C   0  0  0  0  0  2  0  0  0  0  0  0
  194.5610  176.1450  141.0270 C   0  0  0  0  0  1  0  0  0  0  0  0
  195.9370  176.3580  141.6410 C   0  0  0  0  0  2  0  0  0  0  0  0
  196.1220  172.4000  139.8760 C   0  0  0  0  0  2  0  0  0  0  0  0
  196.0260  173.4750  138.8050 C   0  0  0  0  0  2  0  0  0  0  0  0
  194.9800  173.0710  137.7800 C   0  0  0  0  0  2  0  0  0  0  0  0
  193.6670  172.8200  138.4910 C   0  0  0  0  0  2  0  0  0  0  0  0
  192.8540  174.0970  138.5370 C   0  0  0  0  0  2  0  0  0  0  0  0
  191.6960  173.8810  139.2900 O   0  0  0  0  0  0  0  0  0  0  0  0
  190.8680  173.1030  138.4760 C   0  0  2  0  0  3  0  0  0  0  0  0
  190.2740  173.9250  137.5110 O   0  0  0  0  0  0  0  0  0  0  0  0
  189.4420  173.0790  136.7810 C   0  0  0  0  0  1  0  0  0  0  0  0
  189.7900  172.4280  139.3210 C   0  0  2  0  0  3  0  0  0  0  0  0
  189.1710  173.3680  140.1400 O   0  0  0  0  0  1  0  0  0  0  0  0
  190.4660  171.5080  141.5600 O   0  0  0  0  0  1  0  0  0  0  0  0
  190.7740  170.2660  139.6370 O   0  0  0  0  0  0  0  0  0  0  0  0
  190.3690  171.3400  140.1750 C   0  0  0  0  0  0  0  0  0  0  0  0
  193.9830  172.2710  143.5970 O   0  0  0  0  0  0  0  0  0  0  0  0
  191.8910  171.9700  144.5390 O   0  0  0  0  0  0  0  0  0  0  0  0
  192.7640  172.7550  144.0800 C   0  0  0  0  0  0  0  0  0  0  0  0
  191.1240  176.0680  145.1480 C   0  0  2  0  0  3  0  0  0  0  0  0
  193.7850  174.9580  144.5450 C   0  0  0  0  0  2  0  0  0  0  0  0
  190.1780  173.9370  144.5750 O   0  0  0  0  0  1  0  0  0  0  0  0
  192.5140  174.2260  144.1050 C   0  0  2  0  0  3  0  0  0  0  0  0
  193.5370  176.4630  144.6070 C   0  0  2  0  0  3  0  0  0  0  0  0
  191.3420  174.5510  145.0470 C   0  0  1  0  0  3  0  0  0  0  0  0
  194.7020  177.1080  145.0210 O   0  0  0  0  0  1  0  0  0  0  0  0
  192.4100  176.7630  145.5910 C   0  0  0  0  0  2  0  0  0  0  0  0
  190.0640  176.3620  146.1010 N   0  0  0  0  0  0  0  0  0  0  0  0
  184.3250  178.6570  145.3910 C   0  0  0  0  0  2  0  0  0  0  0  0
  186.3450  177.7590  144.9440 C   0  0  1  0  0  3  0  0  0  0  0  0
  188.8840  176.7630  145.7310 C   0  0  0  0  0  0  0  0  0  0  0  0
  188.6060  177.0020  144.3720 O   0  0  0  0  0  0  0  0  0  0  0  0
  187.2960  177.2580  143.8500 C   0  0  2  0  0  3  0  0  0  0  0  0
  185.2740  177.0230  147.1200 C   0  0  1  0  0  3  0  0  0  0  0  0
  185.0060  177.7710  144.5250 O   0  0  0  0  0  0  0  0  0  0  0  0
  186.4650  176.8380  146.1560 C   0  0  2  0  0  3  0  0  0  0  0  0
  185.6520  176.9100  148.4600 O   0  0  0  0  0  1  0  0  0  0  0  0
  187.8420  177.0150  146.7780 C   0  0  0  0  0  2  0  0  0  0  0  0
  184.5090  178.3310  146.8910 C   0  0  0  0  0  2  0  0  0  0  0  0
  185.4860  177.8950  141.0530 C   0  0  0  0  0  2  0  0  0  0  0  0
  186.4850  177.6140  139.9390 C   0  0  2  0  0  3  0  0  0  0  0  0
  188.3920  177.7240  141.5600 C   0  0  0  0  0  2  0  0  0  0  0  0
  186.1170  178.7900  142.1200 C   0  0  0  0  0  2  0  0  0  0  0  0
  185.7140  176.6130  138.6900 Cl  0  0  0  0  0  0  0  0  0  0  0  0
  187.6900  176.8750  140.5030 C   0  0  0  0  0  2  0  0  0  0  0  0
  187.4320  178.2050  142.6520 C   0  0  1  0  0  3  0  0  0  0  0  0
  1  2  1  6  0  0  0
  1 32  1  0  0  0  0
  3 12  1  6  0  0  0
  3  5  1  0  0  0  0
  4  3  1  0  0  0  0
  4  5  1  0  0  0  0
  5  1  1  6  0  0  0
  5 10  1  0  0  0  0
  7  6  1  6  0  0  0
  9  8  1  6  0  0  0
  9  7  1  0  0  0  0
 10 11  1  6  0  0  0
 10  9  1  0  0  0  0
 10  7  1  0  0  0  0
 13 12  1  0  0  0  0
 14 13  1  0  0  0  0
 14 15  1  0  0  0  0
 16 17  1  0  0  0  0
 17 15  1  0  0  0  0
 18 13  1  0  0  0  0
 19 18  1  0  0  0  0
 20 21  1  0  0  0  0
 20 19  1  0  0  0  0
 21 22  1  0  0  0  0
 22 23  1  0  0  0  0
 24 25  1  6  0  0  0
 24 23  1  0  0  0  0
 24 27  1  0  0  0  0
 26 25  1  0  0  0  0
 27 28  1  1  0  0  0
 27 31  1  0  0  0  0
 30 31  2  0  0  0  0
 31 29  1  0  0  0  0
 32 34  1  0  0  0  0
 34 33  2  0  0  0  0
 35 42  1  0  0  0  0
 35 43  1  1  0  0  0
 36 39  1  0  0  0  0
 38 34  1  1  0  0  0
 38 36  1  0  0  0  0
 38 40  1  0  0  0  0
 39 41  1  1  0  0  0
 39 42  1  0  0  0  0
 40 37  1  6  0  0  0
 40 35  1  0  0  0  0
 44 54  1  0  0  0  0
 45 50  1  6  0  0  0
 45 51  1  0  0  0  0
 46 43  2  0  0  0  0
 46 53  1  0  0  0  0
 47 46  1  0  0  0  0
 48 47  1  1  0  0  0
 48 45  1  0  0  0  0
 49 52  1  1  0  0  0
 50 44  1  0  0  0  0
 51 53  1  1  0  0  0
 51 49  1  0  0  0  0
 54 49  1  0  0  0  0
 55 58  1  0  0  0  0
 56 59  1  6  0  0  0
 56 60  1  0  0  0  0
 56 55  1  0  0  0  0
 58 61  1  0  0  0  0
 60 57  1  0  0  0  0
 61 57  1  6  0  0  0
 61 48  1  0  0  0  0
M  END
>  <MODEL>
2

>  <REMARK>
 VINA RESULT:      -5.9      2.572      4.926
  Name = 
  22 active torsions:
  status: ('A' for Active; 'I' for Inactive)
    1  A    between atoms: C_3  and  N_7
    2  A    between atoms: C_3  and  C_16
    3  A    between atoms: C_4  and  N_7
    4  A    between atoms: C_4  and  C_61
    5  A    between atoms: N_5  and  C_15
    6  A    between atoms: N_7  and  C_25
    7  A    between atoms: C_9  and  C_10
    8  A    between atoms: C_9  and  C_18
    9  A    between atoms: C_10  and  C_16
   10  A    between atoms: C_11  and  C_32
   11  A    between atoms: C_11  and  C_42
   12  A    between atoms: C_18  and  O_22
   13  A    between atoms: C_19  and  C_57
   14  A    between atoms: C_20  and  C_25
   15  A    between atoms: O_22  and  C_42
   16  A    between atoms: O_26  and  C_45
   17  A    between atoms: O_26  and  C_60
   18  A    between atoms: C_33  and  C_55
   19  A    between atoms: C_36  and  C_61
   20  A    between atoms: C_37  and  C_60
   21  A    between atoms: C_42  and  O_47
   22  A    between atoms: C_45  and  C_57
                            x       y       z     vdW  Elec       q    Type
                         _______ _______ _______ _____ _____    ______ ____

>  <TORSDO>
F 22

$$$$
=
 OpenBabel11042419423D

 61 66  0  0  1  0  0  0  0  0999 V2000
  195.0750  175.2380  141.2550 C   0  0  1  0  0  3  0  0  0  0  0  0
  195.4880  176.7050  141.1370 C   0  0  0  0  0  1  0  0  0  0  0  0
  196.6780  173.1100  141.3550 C   0  0  2  0  0  3  0  0  0  0  0  0
  195.6060  173.0530  142.2640 O   0  0  0  0  0  0  0  0  0  0  0  0
  196.1110  174.3450  141.9840 C   0  0  2  0  0  0  0  0  0  0  0  0
  196.4980  172.7720  144.3160 O   0  0  0  0  0  1  0  0  0  0  0  0
  197.0980  174.0330  144.4360 C   0  0  2  0  0  3  0  0  0  0  0  0
  194.7450  174.6280  144.4480 O   0  0  0  0  0  1  0  0  0  0  0  0
  196.0480  175.1480  144.5150 C   0  0  2  0  0  3  0  0  0  0  0  0
  196.8340  174.9240  143.2250 C   0  0  2  0  0  0  0  0  0  0  0  0
  197.9260  175.9500  143.0060 C   0  0  0  0  0  1  0  0  0  0  0  0
  196.1600  172.8260  139.9500 C   0  0  0  0  0  2  0  0  0  0  0  0
  197.0760  171.9510  139.2240 N   0  0  0  0  0  0  0  0  0  0  0  0
  196.5700  171.8830  137.8650 C   0  0  0  0  0  2  0  0  0  0  0  0
  196.9690  173.1380  137.1090 C   0  0  0  0  0  2  0  0  0  0  0  0
  195.9550  171.6700  135.3690 C   0  0  0  0  0  1  0  0  0  0  0  0
  196.5010  173.0570  135.6740 C   0  0  0  0  0  2  0  0  0  0  0  0
  196.9390  170.6100  139.7880 C   0  0  0  0  0  2  0  0  0  0  0  0
  195.8710  169.8510  139.0170 C   0  0  0  0  0  2  0  0  0  0  0  0
  194.9550  169.1370  139.9960 C   0  0  0  0  0  2  0  0  0  0  0  0
  193.7340  169.9980  140.2440 C   0  0  0  0  0  2  0  0  0  0  0  0
  193.1110  170.3990  138.9230 C   0  0  0  0  0  2  0  0  0  0  0  0
  191.7190  170.3160  139.0250 O   0  0  0  0  0  0  0  0  0  0  0  0
  191.2540  170.2800  137.7070 C   0  0  2  0  0  3  0  0  0  0  0  0
  192.2040  169.6350  136.9070 O   0  0  0  0  0  0  0  0  0  0  0  0
  191.6460  168.3900  136.6200 C   0  0  0  0  0  1  0  0  0  0  0  0
  191.0190  171.7000  137.1970 C   0  0  2  0  0  3  0  0  0  0  0  0
  190.1800  172.3850  138.0710 O   0  0  0  0  0  1  0  0  0  0  0  0
  191.1770  171.9990  134.7070 O   0  0  0  0  0  0  0  0  0  0  0  0
  189.1740  171.4100  135.6960 O   0  0  0  0  0  1  0  0  0  0  0  0
  190.4030  171.6930  135.8310 C   0  0  0  0  0  0  0  0  0  0  0  0
  193.8040  175.1090  141.8810 O   0  0  0  0  0  0  0  0  0  0  0  0
  192.6540  174.3650  140.0160 O   0  0  0  0  0  0  0  0  0  0  0  0
  192.7110  174.4890  141.2690 C   0  0  0  0  0  0  0  0  0  0  0  0
  189.1630  174.0680  142.6980 C   0  0  2  0  0  3  0  0  0  0  0  0
  191.4330  172.4340  141.7760 C   0  0  0  0  0  2  0  0  0  0  0  0
  190.4920  176.0250  142.2920 O   0  0  0  0  0  1  0  0  0  0  0  0
  191.6230  173.9150  142.1130 C   0  0  2  0  0  3  0  0  0  0  0  0
  190.3010  171.8400  142.6080 C   0  0  2  0  0  3  0  0  0  0  0  0
  190.3150  174.6960  141.8990 C   0  0  1  0  0  3  0  0  0  0  0  0
  190.1390  170.4950  142.2770 O   0  0  0  0  0  1  0  0  0  0  0  0
  189.0040  172.5940  142.3330 C   0  0  0  0  0  2  0  0  0  0  0  0
  187.9180  174.7700  142.4230 N   0  0  0  0  0  0  0  0  0  0  0  0
  184.8570  179.2130  145.5210 C   0  0  0  0  0  2  0  0  0  0  0  0
  186.4760  177.7930  144.8540 C   0  0  1  0  0  3  0  0  0  0  0  0
  187.4880  175.7460  143.1670 C   0  0  0  0  0  0  0  0  0  0  0  0
  188.1890  176.1170  144.3300 O   0  0  0  0  0  0  0  0  0  0  0  0
  187.9050  177.2920  145.1020 C   0  0  2  0  0  3  0  0  0  0  0  0
  184.9970  178.7120  143.0130 C   0  0  1  0  0  3  0  0  0  0  0  0
  186.2580  179.0710  145.3900 O   0  0  0  0  0  0  0  0  0  0  0  0
  186.2330  177.8500  143.3490 C   0  0  2  0  0  3  0  0  0  0  0  0
  184.2710  178.2040  141.9340 O   0  0  0  0  0  1  0  0  0  0  0  0
  186.2100  176.4330  142.7960 C   0  0  0  0  0  2  0  0  0  0  0  0
  184.0750  178.9380  144.2160 C   0  0  0  0  0  2  0  0  0  0  0  0
  190.7230  177.0790  146.9780 C   0  0  0  0  0  2  0  0  0  0  0  0
  190.6560  175.6580  147.5180 C   0  0  2  0  0  3  0  0  0  0  0  0
  188.2250  175.5000  146.9330 C   0  0  0  0  0  2  0  0  0  0  0  0
  189.3820  177.7870  147.1770 C   0  0  0  0  0  2  0  0  0  0  0  0
  192.2380  174.8720  147.3200 Cl  0  0  0  0  0  0  0  0  0  0  0  0
  189.6030  174.8660  146.7560 C   0  0  0  0  0  2  0  0  0  0  0  0
  188.2200  176.9890  146.5720 C   0  0  1  0  0  3  0  0  0  0  0  0
  1  2  1  1  0  0  0
  1 32  1  0  0  0  0
  3 12  1  6  0  0  0
  3  5  1  0  0  0  0
  3  4  1  0  0  0  0
  5  1  1  6  0  0  0
  5  4  1  0  0  0  0
  5 10  1  0  0  0  0
  7  6  1  6  0  0  0
  7  9  1  0  0  0  0
  9  8  1  6  0  0  0
 10 11  1  6  0  0  0
 10  7  1  0  0  0  0
 10  9  1  0  0  0  0
 13 18  1  0  0  0  0
 13 12  1  0  0  0  0
 14 13  1  0  0  0  0
 15 14  1  0  0  0  0
 16 17  1  0  0  0  0
 17 15  1  0  0  0  0
 19 18  1  0  0  0  0
 19 20  1  0  0  0  0
 20 21  1  0  0  0  0
 22 23  1  0  0  0  0
 22 21  1  0  0  0  0
 24 25  1  6  0  0  0
 24 23  1  0  0  0  0
 26 25  1  0  0  0  0
 27 24  1  0  0  0  0
 27 28  1  1  0  0  0
 29 31  2  0  0  0  0
 30 31  1  0  0  0  0
 31 27  1  0  0  0  0
 33 34  2  0  0  0  0
 34 32  1  0  0  0  0
 35 43  1  6  0  0  0
 36 38  1  0  0  0  0
 36 39  1  0  0  0  0
 38 34  1  6  0  0  0
 39 41  1  6  0  0  0
 40 38  1  0  0  0  0
 40 37  1  1  0  0  0
 40 35  1  0  0  0  0
 42 39  1  0  0  0  0
 42 35  1  0  0  0  0
 43 46  2  0  0  0  0
 45 48  1  0  0  0  0
 45 50  1  6  0  0  0
 46 47  1  0  0  0  0
 48 47  1  6  0  0  0
 48 61  1  0  0  0  0
 49 52  1  6  0  0  0
 49 51  1  0  0  0  0
 49 54  1  0  0  0  0
 50 44  1  0  0  0  0
 51 53  1  1  0  0  0
 51 45  1  0  0  0  0
 53 46  1  0  0  0  0
 54 44  1  0  0  0  0
 55 58  1  0  0  0  0
 55 56  1  0  0  0  0
 56 59  1  6  0  0  0
 60 57  1  0  0  0  0
 60 56  1  0  0  0  0
 61 57  1  6  0  0  0
 61 58  1  0  0  0  0
M  END
>  <MODEL>
3

>  <REMARK>
 VINA RESULT:      -5.8      1.581      2.763
  Name = 
  22 active torsions:
  status: ('A' for Active; 'I' for Inactive)
    1  A    between atoms: C_3  and  N_7
    2  A    between atoms: C_3  and  C_16
    3  A    between atoms: C_4  and  N_7
    4  A    between atoms: C_4  and  C_61
    5  A    between atoms: N_5  and  C_15
    6  A    between atoms: N_7  and  C_25
    7  A    between atoms: C_9  and  C_10
    8  A    between atoms: C_9  and  C_18
    9  A    between atoms: C_10  and  C_16
   10  A    between atoms: C_11  and  C_32
   11  A    between atoms: C_11  and  C_42
   12  A    between atoms: C_18  and  O_22
   13  A    between atoms: C_19  and  C_57
   14  A    between atoms: C_20  and  C_25
   15  A    between atoms: O_22  and  C_42
   16  A    between atoms: O_26  and  C_45
   17  A    between atoms: O_26  and  C_60
   18  A    between atoms: C_33  and  C_55
   19  A    between atoms: C_36  and  C_61
   20  A    between atoms: C_37  and  C_60
   21  A    between atoms: C_42  and  O_47
   22  A    between atoms: C_45  and  C_57
                            x       y       z     vdW  Elec       q    Type
                         _______ _______ _______ _____ _____    ______ ____

>  <TORSDO>
F 22

$$$$
=
 OpenBabel11042419423D

 61 66  0  0  1  0  0  0  0  0999 V2000
  194.4260  171.9710  144.7050 C   0  0  1  0  0  3  0  0  0  0  0  0
  194.7410  170.6400  145.3890 C   0  0  0  0  0  1  0  0  0  0  0  0
  196.3000  172.9420  143.0760 C   0  0  2  0  0  3  0  0  0  0  0  0
  196.8050  172.0860  144.0720 O   0  0  0  0  0  0  0  0  0  0  0  0
  195.6710  172.8530  144.4320 C   0  0  2  0  0  0  0  0  0  0  0  0
  193.7120  174.5890  145.5300 O   0  0  0  0  0  1  0  0  0  0  0  0
  194.9700  174.7930  146.1130 C   0  0  2  0  0  3  0  0  0  0  0  0
  195.3570  175.6080  143.8600 O   0  0  0  0  0  1  0  0  0  0  0  0
  195.9590  175.4040  145.1130 C   0  0  2  0  0  3  0  0  0  0  0  0
  196.0550  173.9250  145.4820 C   0  0  2  0  0  0  0  0  0  0  0  0
  197.1900  173.6210  146.4370 C   0  0  0  0  0  1  0  0  0  0  0  0
  195.6040  172.1110  142.0050 C   0  0  0  0  0  2  0  0  0  0  0  0
  196.5070  171.8390  140.8890 N   0  0  0  0  0  0  0  0  0  0  0  0
  196.8910  173.1370  140.3630 C   0  0  0  0  0  2  0  0  0  0  0  0
  195.7700  173.6890  139.4990 C   0  0  0  0  0  2  0  0  0  0  0  0
  195.4250  174.8940  137.3450 C   0  0  0  0  0  1  0  0  0  0  0  0
  196.2980  174.7710  138.5840 C   0  0  0  0  0  2  0  0  0  0  0  0
  195.7270  171.1780  139.8460 C   0  0  0  0  0  2  0  0  0  0  0  0
  194.8470  170.1130  140.4800 C   0  0  0  0  0  2  0  0  0  0  0  0
  193.6790  169.8110  139.5580 C   0  0  0  0  0  2  0  0  0  0  0  0
  192.4020  170.3130  140.2000 C   0  0  0  0  0  2  0  0  0  0  0  0
  191.8780  171.5100  139.4340 C   0  0  0  0  0  2  0  0  0  0  0  0
  190.5860  171.2340  138.9740 O   0  0  0  0  0  0  0  0  0  0  0  0
  189.9290  172.4680  138.9630 C   0  0  2  0  0  3  0  0  0  0  0  0
  188.8980  172.4440  139.9090 O   0  0  0  0  0  0  0  0  0  0  0  0
  188.9970  173.6630  140.5780 C   0  0  0  0  0  1  0  0  0  0  0  0
  189.3560  172.7410  137.5730 C   0  0  2  0  0  3  0  0  0  0  0  0
  189.5110  171.6170  136.7670 O   0  0  0  0  0  1  0  0  0  0  0  0
  191.3410  174.2560  137.2890 O   0  0  0  0  0  1  0  0  0  0  0  0
  189.4260  174.5820  136.0400 O   0  0  0  0  0  0  0  0  0  0  0  0
  190.0370  173.9080  136.9240 C   0  0  0  0  0  0  0  0  0  0  0  0
  193.7050  171.7710  143.4960 O   0  0  0  0  0  0  0  0  0  0  0  0
  191.6500  170.7270  143.7070 O   0  0  0  0  0  0  0  0  0  0  0  0
  192.3090  171.7660  143.4310 C   0  0  0  0  0  0  0  0  0  0  0  0
  190.0550  174.8380  143.9710 C   0  0  2  0  0  3  0  0  0  0  0  0
  192.5880  174.0990  142.6620 C   0  0  0  0  0  2  0  0  0  0  0  0
  189.7820  172.5360  144.5940 O   0  0  0  0  0  1  0  0  0  0  0  0
  191.5840  173.0240  143.0850 C   0  0  2  0  0  3  0  0  0  0  0  0
  191.8650  175.4020  142.3350 C   0  0  2  0  0  3  0  0  0  0  0  0
  190.7440  173.5010  144.2820 C   0  0  1  0  0  3  0  0  0  0  0  0
  192.7980  176.3700  141.9630 O   0  0  0  0  0  1  0  0  0  0  0  0
  191.0870  175.8850  143.5560 C   0  0  0  0  0  2  0  0  0  0  0  0
  189.3290  175.3150  145.1390 N   0  0  0  0  0  0  0  0  0  0  0  0
  184.5050  179.1940  145.7640 C   0  0  0  0  0  2  0  0  0  0  0  0
  186.0450  177.8170  144.8590 C   0  0  1  0  0  3  0  0  0  0  0  0
  188.2740  176.0680  145.0460 C   0  0  0  0  0  0  0  0  0  0  0  0
  187.8300  176.5200  143.7880 O   0  0  0  0  0  0  0  0  0  0  0  0
  186.5820  177.1890  143.5670 C   0  0  2  0  0  3  0  0  0  0  0  0
  185.2320  177.1840  147.1750 C   0  0  1  0  0  3  0  0  0  0  0  0
  184.7170  178.2500  144.7330 O   0  0  0  0  0  0  0  0  0  0  0  0
  186.1120  176.7760  145.9730 C   0  0  2  0  0  3  0  0  0  0  0  0
  185.8040  176.8260  148.3980 O   0  0  0  0  0  1  0  0  0  0  0  0
  187.5700  176.4900  146.2990 C   0  0  0  0  0  2  0  0  0  0  0  0
  184.8620  178.6710  147.1740 C   0  0  0  0  0  2  0  0  0  0  0  0
  185.1680  177.6430  140.5170 C   0  0  0  0  0  2  0  0  0  0  0  0
  186.3620  177.5430  139.5790 C   0  0  2  0  0  3  0  0  0  0  0  0
  187.9490  177.8790  141.4890 C   0  0  0  0  0  2  0  0  0  0  0  0
  185.4810  178.5870  141.6790 C   0  0  0  0  0  2  0  0  0  0  0  0
  185.9580  176.4800  138.2140 Cl  0  0  0  0  0  0  0  0  0  0  0  0
  187.5570  176.9700  140.3260 C   0  0  0  0  0  2  0  0  0  0  0  0
  186.7660  178.1820  142.4130 C   0  0  1  0  0  3  0  0  0  0  0  0
  1  2  1  6  0  0  0
  3 12  1  6  0  0  0
  3  4  1  0  0  0  0
  3  5  1  0  0  0  0
  4  5  1  0  0  0  0
  5  1  1  1  0  0  0
  5 10  1  0  0  0  0
  7  6  1  6  0  0  0
  9  8  1  6  0  0  0
  9 10  1  0  0  0  0
  9  7  1  0  0  0  0
 10  7  1  0  0  0  0
 10 11  1  1  0  0  0
 13 12  1  0  0  0  0
 14 13  1  0  0  0  0
 15 14  1  0  0  0  0
 16 17  1  0  0  0  0
 17 15  1  0  0  0  0
 18 19  1  0  0  0  0
 18 13  1  0  0  0  0
 20 21  1  0  0  0  0
 20 19  1  0  0  0  0
 22 21  1  0  0  0  0
 23 22  1  0  0  0  0
 24 23  1  6  0  0  0
 24 25  1  0  0  0  0
 25 26  1  0  0  0  0
 27 28  1  6  0  0  0
 27 24  1  0  0  0  0
 30 31  2  0  0  0  0
 31 29  1  0  0  0  0
 31 27  1  0  0  0  0
 32  1  1  0  0  0  0
 34 32  1  0  0  0  0
 34 33  2  0  0  0  0
 35 40  1  0  0  0  0
 35 43  1  1  0  0  0
 36 38  1  0  0  0  0
 38 34  1  1  0  0  0
 38 40  1  0  0  0  0
 39 41  1  1  0  0  0
 39 36  1  0  0  0  0
 39 42  1  0  0  0  0
 40 37  1  6  0  0  0
 42 35  1  0  0  0  0
 44 54  1  0  0  0  0
 45 50  1  6  0  0  0
 45 51  1  0  0  0  0
 46 43  2  0  0  0  0
 46 53  1  0  0  0  0
 47 46  1  0  0  0  0
 48 47  1  1  0  0  0
 48 45  1  0  0  0  0
 49 52  1  1  0  0  0
 50 44  1  0  0  0  0
 51 53  1  1  0  0  0
 51 49  1  0  0  0  0
 54 49  1  0  0  0  0
 55 58  1  0  0  0  0
 56 59  1  6  0  0  0
 56 60  1  0  0  0  0
 56 55  1  0  0  0  0
 58 61  1  0  0  0  0
 60 57  1  0  0  0  0
 61 57  1  6  0  0  0
 61 48  1  0  0  0  0
M  END
>  <MODEL>
4

>  <REMARK>
 VINA RESULT:      -5.7      2.392      4.407
  Name = 
  22 active torsions:
  status: ('A' for Active; 'I' for Inactive)
    1  A    between atoms: C_3  and  N_7
    2  A    between atoms: C_3  and  C_16
    3  A    between atoms: C_4  and  N_7
    4  A    between atoms: C_4  and  C_61
    5  A    between atoms: N_5  and  C_15
    6  A    between atoms: N_7  and  C_25
    7  A    between atoms: C_9  and  C_10
    8  A    between atoms: C_9  and  C_18
    9  A    between atoms: C_10  and  C_16
   10  A    between atoms: C_11  and  C_32
   11  A    between atoms: C_11  and  C_42
   12  A    between atoms: C_18  and  O_22
   13  A    between atoms: C_19  and  C_57
   14  A    between atoms: C_20  and  C_25
   15  A    between atoms: O_22  and  C_42
   16  A    between atoms: O_26  and  C_45
   17  A    between atoms: O_26  and  C_60
   18  A    between atoms: C_33  and  C_55
   19  A    between atoms: C_36  and  C_61
   20  A    between atoms: C_37  and  C_60
   21  A    between atoms: C_42  and  O_47
   22  A    between atoms: C_45  and  C_57
                            x       y       z     vdW  Elec       q    Type
                         _______ _______ _______ _____ _____    ______ ____

>  <TORSDO>
F 22

$$$$
=
 OpenBabel11042419423D

 61 66  0  0  1  0  0  0  0  0999 V2000
  188.4020  176.8180  146.1830 C   0  0  1  0  0  3  0  0  0  0  0  0
  189.3130  177.5900  147.1390 C   0  0  0  0  0  1  0  0  0  0  0  0
  186.3730  177.3150  144.5270 C   0  0  2  0  0  3  0  0  0  0  0  0
  187.2500  178.4030  144.6890 O   0  0  0  0  0  0  0  0  0  0  0  0
  187.0930  177.5630  145.8160 C   0  0  2  0  0  0  0  0  0  0  0  0
  186.2780  176.2040  148.1720 O   0  0  0  0  0  1  0  0  0  0  0  0
  185.9730  177.5710  148.2310 C   0  0  2  0  0  3  0  0  0  0  0  0
  184.4470  176.8220  146.4990 O   0  0  0  0  0  1  0  0  0  0  0  0
  184.8750  177.9440  147.2270 C   0  0  2  0  0  3  0  0  0  0  0  0
  186.3310  178.3060  146.9420 C   0  0  2  0  0  0  0  0  0  0  0  0
  186.6380  179.7710  147.1700 C   0  0  0  0  0  1  0  0  0  0  0  0
  187.0280  176.2700  143.6320 C   0  0  0  0  0  2  0  0  0  0  0  0
  186.3820  176.2270  142.3240 N   0  0  0  0  0  0  0  0  0  0  0  0
  187.3900  176.6500  141.3670 C   0  0  0  0  0  2  0  0  0  0  0  0
  188.5570  175.6780  141.3930 C   0  0  0  0  0  2  0  0  0  0  0  0
  188.4210  173.2310  141.8470 C   0  0  0  0  0  1  0  0  0  0  0  0
  188.1330  174.3360  140.8420 C   0  0  0  0  0  2  0  0  0  0  0  0
  185.3410  177.2520  142.3140 C   0  0  0  0  0  2  0  0  0  0  0  0
  185.2700  177.8780  140.9310 C   0  0  0  0  0  2  0  0  0  0  0  0
  184.0940  178.8370  140.8720 C   0  0  0  0  0  2  0  0  0  0  0  0
  182.8610  178.0780  140.4280 C   0  0  0  0  0  2  0  0  0  0  0  0
  181.6740  178.4810  141.2780 C   0  0  0  0  0  2  0  0  0  0  0  0
  180.6350  178.9100  140.4470 O   0  0  0  0  0  0  0  0  0  0  0  0
  179.6850  177.8850  140.4870 C   0  0  2  0  0  3  0  0  0  0  0  0
  179.3960  177.4790  139.1800 O   0  0  0  0  0  0  0  0  0  0  0  0
  178.1080  176.9510  139.2440 C   0  0  0  0  0  1  0  0  0  0  0  0
  178.4130  178.3800  141.1730 C   0  0  2  0  0  3  0  0  0  0  0  0
  178.3770  179.7710  141.1600 O   0  0  0  0  0  1  0  0  0  0  0  0
  178.5860  178.7840  143.6480 O   0  0  0  0  0  1  0  0  0  0  0  0
  178.0500  176.6900  142.8340 O   0  0  0  0  0  0  0  0  0  0  0  0
  178.3380  177.9010  142.5920 C   0  0  0  0  0  0  0  0  0  0  0  0
  189.0940  176.4490  144.9970 O   0  0  0  0  0  0  0  0  0  0  0  0
  190.3180  178.2510  144.2190 O   0  0  0  0  0  0  0  0  0  0  0  0
  190.2900  177.0480  144.5920 C   0  0  0  0  0  0  0  0  0  0  0  0
  193.6840  175.6720  143.4100 C   0  0  2  0  0  3  0  0  0  0  0  0
  192.4100  176.7630  145.8320 C   0  0  0  0  0  2  0  0  0  0  0  0
  191.5690  175.8680  142.2900 O   0  0  0  0  0  1  0  0  0  0  0  0
  191.5610  176.2700  144.6570 C   0  0  2  0  0  3  0  0  0  0  0  0
  193.7290  175.9990  145.8920 C   0  0  2  0  0  3  0  0  0  0  0  0
  192.3330  176.4000  143.3330 C   0  0  1  0  0  3  0  0  0  0  0  0
  194.4900  176.4720  146.9610 O   0  0  0  0  0  1  0  0  0  0  0  0
  194.5020  176.1930  144.5900 C   0  0  0  0  0  2  0  0  0  0  0  0
  194.4350  175.8710  142.1790 N   0  0  0  0  0  0  0  0  0  0  0  0
  197.9390  172.0340  138.7580 C   0  0  0  0  0  2  0  0  0  0  0  0
  196.4760  172.8070  140.2900 C   0  0  1  0  0  3  0  0  0  0  0  0
  195.0410  174.8980  141.5670 C   0  0  0  0  0  0  0  0  0  0  0  0
  195.0560  173.6050  142.1240 O   0  0  0  0  0  0  0  0  0  0  0  0
  195.5280  172.4380  141.4380 C   0  0  2  0  0  3  0  0  0  0  0  0
  196.5130  174.0500  138.0820 C   0  0  1  0  0  3  0  0  0  0  0  0
  196.7470  171.7170  139.4490 O   0  0  0  0  0  0  0  0  0  0  0  0
  195.8290  173.9120  139.4590 C   0  0  2  0  0  3  0  0  0  0  0  0
  196.5870  175.3790  137.6570 O   0  0  0  0  0  1  0  0  0  0  0  0
  195.7680  175.1850  140.2890 C   0  0  0  0  0  2  0  0  0  0  0  0
  197.8970  173.3950  138.0270 C   0  0  0  0  0  2  0  0  0  0  0  0
  195.4330  172.1600  144.8170 C   0  0  0  0  0  2  0  0  0  0  0  0
  196.9040  172.2510  145.2000 C   0  0  2  0  0  3  0  0  0  0  0  0
  197.5950  171.7800  142.8380 C   0  0  0  0  0  2  0  0  0  0  0  0
  195.2420  171.1590  143.6780 C   0  0  0  0  0  2  0  0  0  0  0  0
  197.0960  173.3820  146.5570 Cl  0  0  0  0  0  0  0  0  0  0  0  0
  197.7150  172.7480  144.0120 C   0  0  0  0  0  2  0  0  0  0  0  0
  196.1370  171.4850  142.4750 C   0  0  1  0  0  3  0  0  0  0  0  0
  1  2  1  1  0  0  0
  3 12  1  6  0  0  0
  3  4  1  0  0  0  0
  3  5  1  0  0  0  0
  4  5  1  0  0  0  0
  5  1  1  1  0  0  0
  5 10  1  0  0  0  0
  7  6  1  6  0  0  0
  9  8  1  6  0  0  0
  9  7  1  0  0  0  0
 10 11  1  1  0  0  0
 10  9  1  0  0  0  0
 10  7  1  0  0  0  0
 13 12  1  0  0  0  0
 14 15  1  0  0  0  0
 14 13  1  0  0  0  0
 17 15  1  0  0  0  0
 17 16  1  0  0  0  0
 18 13  1  0  0  0  0
 19 18  1  0  0  0  0
 20 19  1  0  0  0  0
 21 20  1  0  0  0  0
 21 22  1  0  0  0  0
 23 24  1  0  0  0  0
 23 22  1  0  0  0  0
 24 25  1  6  0  0  0
 24 27  1  0  0  0  0
 25 26  1  0  0  0  0
 27 28  1  1  0  0  0
 27 31  1  0  0  0  0
 31 30  2  0  0  0  0
 31 29  1  0  0  0  0
 32  1  1  0  0  0  0
 33 34  2  0  0  0  0
 34 32  1  0  0  0  0
 35 43  1  6  0  0  0
 35 42  1  0  0  0  0
 36 39  1  0  0  0  0
 38 34  1  6  0  0  0
 38 36  1  0  0  0  0
 39 41  1  1  0  0  0
 40 37  1  6  0  0  0
 40 35  1  0  0  0  0
 40 38  1  0  0  0  0
 42 39  1  0  0  0  0
 44 50  1  0  0  0  0
 45 50  1  6  0  0  0
 45 48  1  0  0  0  0
 46 47  1  0  0  0  0
 46 43  2  0  0  0  0
 48 47  1  1  0  0  0
 48 61  1  0  0  0  0
 49 52  1  1  0  0  0
 49 51  1  0  0  0  0
 51 53  1  1  0  0  0
 51 45  1  0  0  0  0
 53 46  1  0  0  0  0
 54 49  1  0  0  0  0
 54 44  1  0  0  0  0
 55 56  1  0  0  0  0
 56 59  1  1  0  0  0
 57 60  1  0  0  0  0
 58 55  1  0  0  0  0
 60 56  1  0  0  0  0
 61 57  1  1  0  0  0
 61 58  1  0  0  0  0
M  END
>  <MODEL>
5

>  <REMARK>
 VINA RESULT:      -5.6      3.342     10.541
  Name = 
  22 active torsions:
  status: ('A' for Active; 'I' for Inactive)
    1  A    between atoms: C_3  and  N_7
    2  A    between atoms: C_3  and  C_16
    3  A    between atoms: C_4  and  N_7
    4  A    between atoms: C_4  and  C_61
    5  A    between atoms: N_5  and  C_15
    6  A    between atoms: N_7  and  C_25
    7  A    between atoms: C_9  and  C_10
    8  A    between atoms: C_9  and  C_18
    9  A    between atoms: C_10  and  C_16
   10  A    between atoms: C_11  and  C_32
   11  A    between atoms: C_11  and  C_42
   12  A    between atoms: C_18  and  O_22
   13  A    between atoms: C_19  and  C_57
   14  A    between atoms: C_20  and  C_25
   15  A    between atoms: O_22  and  C_42
   16  A    between atoms: O_26  and  C_45
   17  A    between atoms: O_26  and  C_60
   18  A    between atoms: C_33  and  C_55
   19  A    between atoms: C_36  and  C_61
   20  A    between atoms: C_37  and  C_60
   21  A    between atoms: C_42  and  O_47
   22  A    between atoms: C_45  and  C_57
                            x       y       z     vdW  Elec       q    Type
                         _______ _______ _______ _____ _____    ______ ____

>  <TORSDO>
F 22

$$$$
=
 OpenBabel11042419423D

 61 66  0  0  1  0  0  0  0  0999 V2000
  191.0740  177.0310  144.8390 C   0  0  1  0  0  3  0  0  0  0  0  0
  190.6760  178.3810  144.2410 C   0  0  0  0  0  1  0  0  0  0  0  0
  188.9300  175.8120  143.8270 C   0  0  2  0  0  3  0  0  0  0  0  0
  188.6420  176.6470  144.9230 O   0  0  0  0  0  0  0  0  0  0  0  0
  189.9080  176.0160  144.9430 C   0  0  2  0  0  0  0  0  0  0  0  0
  188.2050  176.1870  147.2090 O   0  0  0  0  0  1  0  0  0  0  0  0
  188.9830  175.0210  147.2320 C   0  0  2  0  0  3  0  0  0  0  0  0
  190.6770  176.7240  147.5740 O   0  0  0  0  0  1  0  0  0  0  0  0
  190.4670  175.3410  147.4500 C   0  0  2  0  0  3  0  0  0  0  0  0
  189.9620  174.9480  146.0640 C   0  0  2  0  0  0  0  0  0  0  0  0
  190.3130  173.5250  145.6830 C   0  0  0  0  0  1  0  0  0  0  0  0
  189.1930  176.6720  142.5970 C   0  0  0  0  0  2  0  0  0  0  0  0
  188.2880  176.3130  141.5090 N   0  0  0  0  0  0  0  0  0  0  0  0
  187.3900  177.4430  141.3490 C   0  0  0  0  0  2  0  0  0  0  0  0
  186.0850  177.1650  142.0740 C   0  0  0  0  0  2  0  0  0  0  0  0
  183.9570  178.2980  142.7050 C   0  0  0  0  0  1  0  0  0  0  0  0
  185.4610  178.4590  142.5450 C   0  0  0  0  0  2  0  0  0  0  0  0
  187.4720  175.1920  141.9680 C   0  0  0  0  0  2  0  0  0  0  0  0
  187.9020  173.9290  141.2390 C   0  0  0  0  0  2  0  0  0  0  0  0
  189.0160  174.2680  140.2630 C   0  0  0  0  0  2  0  0  0  0  0  0
  188.6950  173.6520  138.9170 C   0  0  0  0  0  2  0  0  0  0  0  0
  188.9300  172.1570  138.9670 C   0  0  0  0  0  2  0  0  0  0  0  0
  190.2610  171.9100  139.3170 O   0  0  0  0  0  0  0  0  0  0  0  0
  190.9290  171.7100  138.1050 C   0  0  2  0  0  3  0  0  0  0  0  0
  191.1620  170.3400  137.9330 O   0  0  0  0  0  0  0  0  0  0  0  0
  191.1330  170.1420  136.5540 C   0  0  0  0  0  1  0  0  0  0  0  0
  192.2550  172.4690  138.1090 C   0  0  2  0  0  3  0  0  0  0  0  0
  192.4300  173.1130  139.3300 O   0  0  0  0  0  1  0  0  0  0  0  0
  193.0910  173.2580  135.8740 O   0  0  0  0  0  0  0  0  0  0  0  0
  191.6300  174.5540  137.1070 O   0  0  0  0  0  1  0  0  0  0  0  0
  192.3040  173.4850  137.0080 C   0  0  0  0  0  0  0  0  0  0  0  0
  192.1560  176.4490  144.1220 O   0  0  0  0  0  0  0  0  0  0  0  0
  193.8260  177.1660  145.5550 O   0  0  0  0  0  0  0  0  0  0  0  0
  193.4640  176.4110  144.6120 C   0  0  0  0  0  0  0  0  0  0  0  0
  196.0030  174.9370  142.1250 C   0  0  2  0  0  3  0  0  0  0  0  0
  195.5960  175.2290  145.0270 C   0  0  0  0  0  2  0  0  0  0  0  0
  193.8730  175.9910  141.7870 O   0  0  0  0  0  1  0  0  0  0  0  0
  194.4320  175.4240  144.0510 C   0  0  2  0  0  3  0  0  0  0  0  0
  196.6120  174.2470  144.4530 C   0  0  2  0  0  3  0  0  0  0  0  0
  194.9430  175.9010  142.6810 C   0  0  1  0  0  3  0  0  0  0  0  0
  197.6670  174.0920  145.3520 O   0  0  0  0  0  1  0  0  0  0  0  0
  197.1470  174.7700  143.1240 C   0  0  0  0  0  2  0  0  0  0  0  0
  196.5330  175.4420  140.8670 N   0  0  0  0  0  0  0  0  0  0  0  0
  197.5740  172.7070  135.3760 C   0  0  0  0  0  2  0  0  0  0  0  0
  196.8350  173.0960  137.4710 C   0  0  1  0  0  3  0  0  0  0  0  0
  196.5890  174.7140  139.7910 C   0  0  0  0  0  0  0  0  0  0  0  0
  196.2000  173.3610  139.8250 O   0  0  0  0  0  0  0  0  0  0  0  0
  196.0470  172.5370  138.6620 C   0  0  2  0  0  3  0  0  0  0  0  0
  196.9480  175.1220  135.9520 C   0  0  1  0  0  3  0  0  0  0  0  0
  196.5010  172.4640  136.2640 O   0  0  0  0  0  0  0  0  0  0  0  0
  196.5290  174.5860  137.3380 C   0  0  2  0  0  3  0  0  0  0  0  0
  197.4550  176.4220  136.0170 O   0  0  0  0  0  1  0  0  0  0  0  0
  197.1220  175.3220  138.5300 C   0  0  0  0  0  2  0  0  0  0  0  0
  197.9320  174.2030  135.2220 C   0  0  0  0  0  2  0  0  0  0  0  0
  194.4060  169.9010  140.0280 C   0  0  0  0  0  2  0  0  0  0  0  0
  195.2330  169.6030  141.2700 C   0  0  2  0  0  3  0  0  0  0  0  0
  197.1460  170.9530  140.3790 C   0  0  0  0  0  2  0  0  0  0  0  0
  195.3150  170.0520  138.8080 C   0  0  0  0  0  2  0  0  0  0  0  0
  194.1520  169.3850  142.6640 Cl  0  0  0  0  0  0  0  0  0  0  0  0
  196.1820  170.7600  141.5470 C   0  0  0  0  0  2  0  0  0  0  0  0
  196.4140  171.0970  139.0400 C   0  0  1  0  0  3  0  0  0  0  0  0
  1  2  1  6  0  0  0
  3 12  1  6  0  0  0
  3  4  1  0  0  0  0
  3  5  1  0  0  0  0
  4  5  1  0  0  0  0
  5  1  1  6  0  0  0
  5 10  1  0  0  0  0
  7  6  1  6  0  0  0
  7  9  1  0  0  0  0
  9  8  1  6  0  0  0
 10 11  1  6  0  0  0
 10  7  1  0  0  0  0
 10  9  1  0  0  0  0
 13 18  1  0  0  0  0
 13 12  1  0  0  0  0
 14 13  1  0  0  0  0
 14 15  1  0  0  0  0
 15 17  1  0  0  0  0
 17 16  1  0  0  0  0
 19 18  1  0  0  0  0
 20 19  1  0  0  0  0
 21 22  1  0  0  0  0
 21 20  1  0  0  0  0
 22 23  1  0  0  0  0
 24 25  1  1  0  0  0
 24 27  1  0  0  0  0
 24 23  1  0  0  0  0
 26 25  1  0  0  0  0
 27 28  1  1  0  0  0
 29 31  2  0  0  0  0
 31 30  1  0  0  0  0
 31 27  1  0  0  0  0
 32 34  1  0  0  0  0
 32  1  1  0  0  0  0
 34 33  2  0  0  0  0
 35 43  1  6  0  0  0
 35 40  1  0  0  0  0
 35 42  1  0  0  0  0
 38 34  1  1  0  0  0
 38 36  1  0  0  0  0
 39 36  1  0  0  0  0
 39 41  1  1  0  0  0
 40 37  1  6  0  0  0
 40 38  1  0  0  0  0
 42 39  1  0  0  0  0
 44 50  1  0  0  0  0
 45 50  1  6  0  0  0
 45 48  1  0  0  0  0
 46 47  1  0  0  0  0
 46 43  2  0  0  0  0
 48 61  1  0  0  0  0
 48 47  1  1  0  0  0
 49 52  1  1  0  0  0
 49 51  1  0  0  0  0
 51 45  1  0  0  0  0
 51 53  1  1  0  0  0
 53 46  1  0  0  0  0
 54 44  1  0  0  0  0
 54 49  1  0  0  0  0
 55 56  1  0  0  0  0
 56 60  1  0  0  0  0
 56 59  1  1  0  0  0
 57 60  1  0  0  0  0
 58 55  1  0  0  0  0
 61 58  1  1  0  0  0
 61 57  1  0  0  0  0
M  END
>  <MODEL>
6

>  <REMARK>
 VINA RESULT:      -5.4      2.711      9.057
  Name = 
  22 active torsions:
  status: ('A' for Active; 'I' for Inactive)
    1  A    between atoms: C_3  and  N_7
    2  A    between atoms: C_3  and  C_16
    3  A    between atoms: C_4  and  N_7
    4  A    between atoms: C_4  and  C_61
    5  A    between atoms: N_5  and  C_15
    6  A    between atoms: N_7  and  C_25
    7  A    between atoms: C_9  and  C_10
    8  A    between atoms: C_9  and  C_18
    9  A    between atoms: C_10  and  C_16
   10  A    between atoms: C_11  and  C_32
   11  A    between atoms: C_11  and  C_42
   12  A    between atoms: C_18  and  O_22
   13  A    between atoms: C_19  and  C_57
   14  A    between atoms: C_20  and  C_25
   15  A    between atoms: O_22  and  C_42
   16  A    between atoms: O_26  and  C_45
   17  A    between atoms: O_26  and  C_60
   18  A    between atoms: C_33  and  C_55
   19  A    between atoms: C_36  and  C_61
   20  A    between atoms: C_37  and  C_60
   21  A    between atoms: C_42  and  O_47
   22  A    between atoms: C_45  and  C_57
                            x       y       z     vdW  Elec       q    Type
                         _______ _______ _______ _____ _____    ______ ____

>  <TORSDO>
F 22

$$$$
=
 OpenBabel11042419423D

 61 66  0  0  1  0  0  0  0  0999 V2000
  193.7170  172.5970  143.7920 C   0  0  1  0  0  3  0  0  0  0  0  0
  193.9670  171.5030  144.8300 C   0  0  0  0  0  1  0  0  0  0  0  0
  194.9280  174.9640  143.5940 C   0  0  2  0  0  3  0  0  0  0  0  0
  194.7600  174.3100  142.3590 O   0  0  0  0  0  0  0  0  0  0  0  0
  194.9590  173.4710  143.4810 C   0  0  2  0  0  0  0  0  0  0  0  0
  196.5920  173.1940  145.7870 O   0  0  0  0  0  1  0  0  0  0  0  0
  197.1650  172.5730  144.6690 C   0  0  2  0  0  3  0  0  0  0  0  0
  197.3300  174.9130  144.0450 O   0  0  0  0  0  1  0  0  0  0  0  0
  197.6080  173.6020  143.6220 C   0  0  2  0  0  3  0  0  0  0  0  0
  196.3420  172.7780  143.4000 C   0  0  2  0  0  0  0  0  0  0  0  0
  196.5260  171.6600  142.3970 C   0  0  0  0  0  1  0  0  0  0  0  0
  193.5890  175.5330  144.0470 C   0  0  0  0  0  2  0  0  0  0  0  0
  193.7820  176.6260  144.9950 N   0  0  0  0  0  0  0  0  0  0  0  0
  193.6820  176.0300  146.3160 C   0  0  0  0  0  2  0  0  0  0  0  0
  192.5470  175.0220  146.3360 C   0  0  0  0  0  2  0  0  0  0  0  0
  190.2020  175.5210  147.0190 C   0  0  0  0  0  1  0  0  0  0  0  0
  191.6260  175.2940  147.5040 C   0  0  0  0  0  2  0  0  0  0  0  0
  192.6440  177.5320  144.8580 C   0  0  0  0  0  2  0  0  0  0  0  0
  191.7610  177.0530  143.7160 C   0  0  0  0  0  2  0  0  0  0  0  0
  190.4400  177.8020  143.7540 C   0  0  0  0  0  2  0  0  0  0  0  0
  189.5500  177.2860  142.6420 C   0  0  0  0  0  2  0  0  0  0  0  0
  188.1250  177.7440  142.8700 C   0  0  0  0  0  2  0  0  0  0  0  0
  187.3230  177.2990  141.8150 O   0  0  0  0  0  0  0  0  0  0  0  0
  186.0120  177.3660  142.2960 C   0  0  2  0  0  3  0  0  0  0  0  0
  185.2680  178.2240  141.4770 O   0  0  0  0  0  0  0  0  0  0  0  0
  185.6650  177.9110  140.1780 C   0  0  0  0  0  1  0  0  0  0  0  0
  186.0090  177.8830  143.7330 C   0  0  2  0  0  3  0  0  0  0  0  0
  185.6360  176.8630  144.6040 O   0  0  0  0  0  1  0  0  0  0  0  0
  183.6940  178.8590  143.6780 O   0  0  0  0  0  0  0  0  0  0  0  0
  185.5110  180.1740  144.2290 O   0  0  0  0  0  1  0  0  0  0  0  0
  185.0640  179.0350  143.8950 C   0  0  0  0  0  0  0  0  0  0  0  0
  193.1970  172.0540  142.5850 O   0  0  0  0  0  0  0  0  0  0  0  0
  190.9680  172.2030  143.1850 O   0  0  0  0  0  0  0  0  0  0  0  0
  191.8330  172.0280  142.2840 C   0  0  0  0  0  0  0  0  0  0  0  0
  191.2450  172.9460  138.5940 C   0  0  2  0  0  3  0  0  0  0  0  0
  192.1580  170.6790  140.2380 C   0  0  0  0  0  2  0  0  0  0  0  0
  190.8430  174.1680  140.6210 O   0  0  0  0  0  1  0  0  0  0  0  0
  191.3930  171.8450  140.8700 C   0  0  2  0  0  3  0  0  0  0  0  0
  191.7440  170.5000  138.7810 C   0  0  2  0  0  3  0  0  0  0  0  0
  191.6160  173.1410  140.0730 C   0  0  1  0  0  3  0  0  0  0  0  0
  192.4600  169.4410  138.2220 O   0  0  0  0  0  1  0  0  0  0  0  0
  192.0290  171.7780  137.9990 C   0  0  0  0  0  2  0  0  0  0  0  0
  191.5350  174.1560  137.8390 N   0  0  0  0  0  0  0  0  0  0  0  0
  196.8170  176.4320  135.4650 C   0  0  0  0  0  2  0  0  0  0  0  0
  195.3110  175.0290  136.3870 C   0  0  1  0  0  3  0  0  0  0  0  0
  192.7140  174.4080  137.3500 C   0  0  0  0  0  0  0  0  0  0  0  0
  193.7910  173.5370  137.6030 O   0  0  0  0  0  0  0  0  0  0  0  0
  195.0670  173.6260  136.9560 C   0  0  2  0  0  3  0  0  0  0  0  0
  194.3920  176.6530  134.6720 C   0  0  1  0  0  3  0  0  0  0  0  0
  196.4250  175.0750  135.5350 O   0  0  0  0  0  0  0  0  0  0  0  0
  194.0780  175.4570  135.5970 C   0  0  2  0  0  3  0  0  0  0  0  0
  193.3250  177.5480  134.5800 O   0  0  0  0  0  1  0  0  0  0  0  0
  192.9190  175.6640  136.5600 C   0  0  0  0  0  2  0  0  0  0  0  0
  195.6770  177.3930  135.0580 C   0  0  0  0  0  2  0  0  0  0  0  0
  197.4720  171.2330  136.9520 C   0  0  0  0  0  2  0  0  0  0  0  0
  197.1050  170.3910  138.1650 C   0  0  2  0  0  3  0  0  0  0  0  0
  195.6300  172.2150  139.0440 C   0  0  0  0  0  2  0  0  0  0  0  0
  197.4710  172.7180  137.3160 C   0  0  0  0  0  2  0  0  0  0  0  0
  197.1590  168.6680  137.7300 Cl  0  0  0  0  0  0  0  0  0  0  0  0
  195.7010  170.7470  138.6330 C   0  0  0  0  0  2  0  0  0  0  0  0
  196.1410  173.1520  137.9440 C   0  0  1  0  0  3  0  0  0  0  0  0
  1  2  1  1  0  0  0
  3 12  1  1  0  0  0
  4  5  1  0  0  0  0
  4  3  1  0  0  0  0
  5  3  1  0  0  0  0
  5  1  1  1  0  0  0
  7  6  1  1  0  0  0
  9  8  1  1  0  0  0
  9  7  1  0  0  0  0
 10 11  1  6  0  0  0
 10  5  1  0  0  0  0
 10  9  1  0  0  0  0
 10  7  1  0  0  0  0
 12 13  1  0  0  0  0
 13 14  1  0  0  0  0
 14 15  1  0  0  0  0
 15 17  1  0  0  0  0
 16 17  1  0  0  0  0
 18 13  1  0  0  0  0
 19 20  1  0  0  0  0
 19 18  1  0  0  0  0
 21 22  1  0  0  0  0
 21 20  1  0  0  0  0
 23 24  1  0  0  0  0
 23 22  1  0  0  0  0
 24 25  1  6  0  0  0
 24 27  1  0  0  0  0
 26 25  1  0  0  0  0
 27 31  1  0  0  0  0
 27 28  1  1  0  0  0
 29 31  2  0  0  0  0
 31 30  1  0  0  0  0
 32  1  1  0  0  0  0
 34 32  1  0  0  0  0
 34 33  2  0  0  0  0
 35 43  1  6  0  0  0
 35 40  1  0  0  0  0
 36 38  1  0  0  0  0
 38 34  1  1  0  0  0
 39 41  1  6  0  0  0
 39 36  1  0  0  0  0
 40 37  1  1  0  0  0
 40 38  1  0  0  0  0
 42 35  1  0  0  0  0
 42 39  1  0  0  0  0
 44 50  1  0  0  0  0
 45 50  1  6  0  0  0
 45 48  1  0  0  0  0
 46 47  1  0  0  0  0
 46 43  2  0  0  0  0
 48 47  1  1  0  0  0
 48 61  1  0  0  0  0
 49 52  1  1  0  0  0
 49 54  1  0  0  0  0
 49 51  1  0  0  0  0
 51 45  1  0  0  0  0
 51 53  1  1  0  0  0
 53 46  1  0  0  0  0
 54 44  1  0  0  0  0
 55 58  1  0  0  0  0
 55 56  1  0  0  0  0
 56 59  1  6  0  0  0
 56 60  1  0  0  0  0
 60 57  1  0  0  0  0
 61 58  1  6  0  0  0
 61 57  1  0  0  0  0
M  END
>  <MODEL>
7

>  <REMARK>
 VINA RESULT:      -5.3      3.417      8.623
  Name = 
  22 active torsions:
  status: ('A' for Active; 'I' for Inactive)
    1  A    between atoms: C_3  and  N_7
    2  A    between atoms: C_3  and  C_16
    3  A    between atoms: C_4  and  N_7
    4  A    between atoms: C_4  and  C_61
    5  A    between atoms: N_5  and  C_15
    6  A    between atoms: N_7  and  C_25
    7  A    between atoms: C_9  and  C_10
    8  A    between atoms: C_9  and  C_18
    9  A    between atoms: C_10  and  C_16
   10  A    between atoms: C_11  and  C_32
   11  A    between atoms: C_11  and  C_42
   12  A    between atoms: C_18  and  O_22
   13  A    between atoms: C_19  and  C_57
   14  A    between atoms: C_20  and  C_25
   15  A    between atoms: O_22  and  C_42
   16  A    between atoms: O_26  and  C_45
   17  A    between atoms: O_26  and  C_60
   18  A    between atoms: C_33  and  C_55
   19  A    between atoms: C_36  and  C_61
   20  A    between atoms: C_37  and  C_60
   21  A    between atoms: C_42  and  O_47
   22  A    between atoms: C_45  and  C_57
                            x       y       z     vdW  Elec       q    Type
                         _______ _______ _______ _____ _____    ______ ____

>  <TORSDO>
F 22

$$$$
=
 OpenBabel11042419423D

 61 66  0  0  1  0  0  0  0  0999 V2000
  191.3030  174.5630  144.4550 C   0  0  1  0  0  3  0  0  0  0  0  0
  191.0930  173.0570  144.6180 C   0  0  0  0  0  1  0  0  0  0  0  0
  189.1030  175.9720  143.9220 C   0  0  2  0  0  3  0  0  0  0  0  0
  190.1670  176.7490  144.4180 O   0  0  0  0  0  0  0  0  0  0  0  0
  190.0930  175.4220  144.9030 C   0  0  2  0  0  0  0  0  0  0  0  0
  189.1390  177.7740  146.1750 O   0  0  0  0  0  1  0  0  0  0  0  0
  189.1190  176.6710  147.0410 C   0  0  2  0  0  3  0  0  0  0  0  0
  191.5060  177.0140  146.7700 O   0  0  0  0  0  1  0  0  0  0  0  0
  190.5380  176.2130  147.3990 C   0  0  2  0  0  3  0  0  0  0  0  0
  189.7020  175.4150  146.4010 C   0  0  2  0  0  0  0  0  0  0  0  0
  189.1300  174.1410  146.9870 C   0  0  0  0  0  1  0  0  0  0  0  0
  189.3850  175.6030  142.4710 C   0  0  0  0  0  2  0  0  0  0  0  0
  188.2880  174.8180  141.9120 N   0  0  0  0  0  0  0  0  0  0  0  0
  188.7880  173.4590  141.8000 C   0  0  0  0  0  2  0  0  0  0  0  0
  190.0690  173.4520  140.9850 C   0  0  0  0  0  2  0  0  0  0  0  0
  191.0890  171.1780  141.0320 C   0  0  0  0  0  1  0  0  0  0  0  0
  190.2120  172.1410  140.2460 C   0  0  0  0  0  2  0  0  0  0  0  0
  188.0590  175.2930  140.5490 C   0  0  0  0  0  2  0  0  0  0  0  0
  187.8890  176.8040  140.5700 C   0  0  0  0  0  2  0  0  0  0  0  0
  186.4080  177.1430  140.5740 C   0  0  0  0  0  2  0  0  0  0  0  0
  186.1740  178.3120  141.5080 C   0  0  0  0  0  2  0  0  0  0  0  0
  184.7480  178.2850  142.0160 C   0  0  0  0  0  2  0  0  0  0  0  0
  184.7010  177.5800  143.2230 O   0  0  0  0  0  0  0  0  0  0  0  0
  185.6190  178.2200  144.0600 C   0  0  2  0  0  3  0  0  0  0  0  0
  186.1670  177.2800  144.9390 O   0  0  0  0  0  0  0  0  0  0  0  0
  185.6750  176.0510  144.5030 C   0  0  0  0  0  1  0  0  0  0  0  0
  184.9230  179.3290  144.8470 C   0  0  2  0  0  3  0  0  0  0  0  0
  185.5380  180.5510  144.5920 O   0  0  0  0  0  1  0  0  0  0  0  0
  184.0690  178.1510  146.8960 O   0  0  0  0  0  0  0  0  0  0  0  0
  185.8140  179.6560  147.0480 O   0  0  0  0  0  1  0  0  0  0  0  0
  184.9650  179.0580  146.3210 C   0  0  0  0  0  0  0  0  0  0  0  0
  192.4770  174.9960  145.1300 O   0  0  0  0  0  0  0  0  0  0  0  0
  193.7130  176.8300  144.4490 O   0  0  0  0  0  0  0  0  0  0  0  0
  193.5650  175.5780  144.4730 C   0  0  0  0  0  0  0  0  0  0  0  0
  196.1720  174.4610  141.8740 C   0  0  2  0  0  3  0  0  0  0  0  0
  195.7820  174.5330  144.7920 C   0  0  0  0  0  2  0  0  0  0  0  0
  193.9660  175.3740  141.6230 O   0  0  0  0  0  1  0  0  0  0  0  0
  194.5950  174.7040  143.8400 C   0  0  2  0  0  3  0  0  0  0  0  0
  196.8600  173.6680  144.1460 C   0  0  2  0  0  3  0  0  0  0  0  0
  195.0520  175.3050  142.5000 C   0  0  1  0  0  3  0  0  0  0  0  0
  197.9350  173.5340  145.0250 O   0  0  0  0  0  1  0  0  0  0  0  0
  197.3380  174.3150  142.8500 C   0  0  0  0  0  2  0  0  0  0  0  0
  196.6470  175.0850  140.6470 N   0  0  0  0  0  0  0  0  0  0  0  0
  196.6940  173.1610  134.7300 C   0  0  0  0  0  2  0  0  0  0  0  0
  196.2370  173.3050  136.9340 C   0  0  1  0  0  3  0  0  0  0  0  0
  196.4810  174.5410  139.4780 C   0  0  0  0  0  0  0  0  0  0  0  0
  195.8890  173.2690  139.3620 O   0  0  0  0  0  0  0  0  0  0  0  0
  195.4930  172.6750  138.1180 C   0  0  2  0  0  3  0  0  0  0  0  0
  196.5160  175.5140  135.7250 C   0  0  1  0  0  3  0  0  0  0  0  0
  195.6890  172.9300  135.6980 O   0  0  0  0  0  0  0  0  0  0  0  0
  196.1580  174.8240  137.0590 C   0  0  2  0  0  3  0  0  0  0  0  0
  197.2250  176.7030  135.9160 O   0  0  0  0  0  1  0  0  0  0  0  0
  196.9750  175.2650  138.2630 C   0  0  0  0  0  2  0  0  0  0  0  0
  197.2650  174.5980  134.7530 C   0  0  0  0  0  2  0  0  0  0  0  0
  194.7490  170.3280  140.4510 C   0  0  0  0  0  2  0  0  0  0  0  0
  196.1090  169.7130  140.7490 C   0  0  2  0  0  3  0  0  0  0  0  0
  197.0660  170.6990  138.6550 C   0  0  0  0  0  2  0  0  0  0  0  0
  194.5230  170.4140  138.9420 C   0  0  0  0  0  2  0  0  0  0  0  0
  196.3280  169.5790  142.5080 Cl  0  0  0  0  0  0  0  0  0  0  0  0
  197.2090  170.5910  140.1710 C   0  0  0  0  0  2  0  0  0  0  0  0
  195.6650  171.1550  138.2350 C   0  0  1  0  0  3  0  0  0  0  0  0
  1  2  1  1  0  0  0
  1 32  1  0  0  0  0
  3 12  1  6  0  0  0
  3  4  1  0  0  0  0
  3  5  1  0  0  0  0
  4  5  1  0  0  0  0
  5  1  1  6  0  0  0
  5 10  1  0  0  0  0
  7  6  1  6  0  0  0
  7  9  1  0  0  0  0
  9  8  1  6  0  0  0
 10 11  1  1  0  0  0
 10  7  1  0  0  0  0
 10  9  1  0  0  0  0
 13 12  1  0  0  0  0
 14 13  1  0  0  0  0
 15 14  1  0  0  0  0
 17 15  1  0  0  0  0
 17 16  1  0  0  0  0
 18 19  1  0  0  0  0
 18 13  1  0  0  0  0
 19 20  1  0  0  0  0
 20 21  1  0  0  0  0
 21 22  1  0  0  0  0
 22 23  1  0  0  0  0
 24 23  1  6  0  0  0
 24 27  1  0  0  0  0
 24 25  1  0  0  0  0
 26 25  1  0  0  0  0
 27 28  1  1  0  0  0
 27 31  1  0  0  0  0
 31 29  2  0  0  0  0
 31 30  1  0  0  0  0
 33 34  2  0  0  0  0
 34 32  1  0  0  0  0
 35 43  1  6  0  0  0
 35 40  1  0  0  0  0
 35 42  1  0  0  0  0
 38 34  1  1  0  0  0
 38 36  1  0  0  0  0
 39 36  1  0  0  0  0
 39 41  1  1  0  0  0
 40 37  1  6  0  0  0
 40 38  1  0  0  0  0
 42 39  1  0  0  0  0
 44 54  1  0  0  0  0
 44 50  1  0  0  0  0
 45 50  1  6  0  0  0
 45 51  1  0  0  0  0
 45 48  1  0  0  0  0
 46 43  2  0  0  0  0
 47 46  1  0  0  0  0
 48 61  1  0  0  0  0
 48 47  1  1  0  0  0
 49 52  1  1  0  0  0
 49 51  1  0  0  0  0
 51 53  1  1  0  0  0
 53 46  1  0  0  0  0
 54 49  1  0  0  0  0
 55 56  1  0  0  0  0
 56 59  1  1  0  0  0
 57 60  1  0  0  0  0
 58 55  1  0  0  0  0
 60 56  1  0  0  0  0
 61 57  1  1  0  0  0
 61 58  1  0  0  0  0
M  END
>  <MODEL>
8

>  <REMARK>
 VINA RESULT:      -5.0      2.945      9.756
  Name = 
  22 active torsions:
  status: ('A' for Active; 'I' for Inactive)
    1  A    between atoms: C_3  and  N_7
    2  A    between atoms: C_3  and  C_16
    3  A    between atoms: C_4  and  N_7
    4  A    between atoms: C_4  and  C_61
    5  A    between atoms: N_5  and  C_15
    6  A    between atoms: N_7  and  C_25
    7  A    between atoms: C_9  and  C_10
    8  A    between atoms: C_9  and  C_18
    9  A    between atoms: C_10  and  C_16
   10  A    between atoms: C_11  and  C_32
   11  A    between atoms: C_11  and  C_42
   12  A    between atoms: C_18  and  O_22
   13  A    between atoms: C_19  and  C_57
   14  A    between atoms: C_20  and  C_25
   15  A    between atoms: O_22  and  C_42
   16  A    between atoms: O_26  and  C_45
   17  A    between atoms: O_26  and  C_60
   18  A    between atoms: C_33  and  C_55
   19  A    between atoms: C_36  and  C_61
   20  A    between atoms: C_37  and  C_60
   21  A    between atoms: C_42  and  O_47
   22  A    between atoms: C_45  and  C_57
                            x       y       z     vdW  Elec       q    Type
                         _______ _______ _______ _____ _____    ______ ____

>  <TORSDO>
F 22

$$$$
=
 OpenBabel11042419423D

 61 66  0  0  1  0  0  0  0  0999 V2000
  189.2070  173.4580  139.9100 C   0  0  1  0  0  3  0  0  0  0  0  0
  187.8340  172.8560  139.6080 C   0  0  0  0  0  1  0  0  0  0  0  0
  189.0950  174.7640  142.2320 C   0  0  2  0  0  3  0  0  0  0  0  0
  190.3950  174.6610  141.7030 O   0  0  0  0  0  0  0  0  0  0  0  0
  189.5250  173.5800  141.4230 C   0  0  2  0  0  0  0  0  0  0  0  0
  188.9210  173.2270  144.1740 O   0  0  0  0  0  1  0  0  0  0  0  0
  189.5750  172.1080  143.6390 C   0  0  2  0  0  3  0  0  0  0  0  0
  191.3490  173.7630  143.5810 O   0  0  0  0  0  1  0  0  0  0  0  0
  191.0310  172.4280  143.2820 C   0  0  2  0  0  3  0  0  0  0  0  0
  189.9800  172.3090  142.1810 C   0  0  2  0  0  0  0  0  0  0  0  0
  190.0640  171.0070  141.4140 C   0  0  0  0  0  1  0  0  0  0  0  0
  188.3160  175.8130  141.4470 C   0  0  0  0  0  2  0  0  0  0  0  0
  187.4450  176.5830  142.3300 N   0  0  0  0  0  0  0  0  0  0  0  0
  186.3210  177.0050  141.5120 C   0  0  0  0  0  2  0  0  0  0  0  0
  185.7390  178.2920  142.0700 C   0  0  0  0  0  2  0  0  0  0  0  0
  184.5830  178.8290  144.2120 C   0  0  0  0  0  1  0  0  0  0  0  0
  184.5420  177.9910  142.9430 C   0  0  0  0  0  2  0  0  0  0  0  0
  188.1660  177.7960  142.7080 C   0  0  0  0  0  2  0  0  0  0  0  0
  188.2040  177.9020  144.2240 C   0  0  0  0  0  2  0  0  0  0  0  0
  187.6370  176.6300  144.8310 C   0  0  0  0  0  2  0  0  0  0  0  0
  188.5400  176.1790  145.9600 C   0  0  0  0  0  2  0  0  0  0  0  0
  189.8080  177.0070  145.9660 C   0  0  0  0  0  2  0  0  0  0  0  0
  190.9160  176.1540  145.9750 O   0  0  0  0  0  0  0  0  0  0  0  0
  191.8920  176.8100  145.2190 C   0  0  2  0  0  3  0  0  0  0  0  0
  191.4750  176.8620  143.8840 O   0  0  0  0  0  0  0  0  0  0  0  0
  191.9630  178.0760  143.4030 C   0  0  0  0  0  1  0  0  0  0  0  0
  193.2210  176.0650  145.3230 C   0  0  2  0  0  3  0  0  0  0  0  0
  193.0950  174.9880  146.1950 O   0  0  0  0  0  1  0  0  0  0  0  0
  194.2310  177.5500  147.0800 O   0  0  0  0  0  1  0  0  0  0  0  0
  195.3160  177.2020  145.0710 O   0  0  0  0  0  0  0  0  0  0  0  0
  194.3140  176.9670  145.8120 C   0  0  0  0  0  0  0  0  0  0  0  0
  190.2420  172.7350  139.2570 O   0  0  0  0  0  0  0  0  0  0  0  0
  190.6260  174.1630  137.4780 O   0  0  0  0  0  0  0  0  0  0  0  0
  191.0680  173.2980  138.2810 C   0  0  0  0  0  0  0  0  0  0  0  0
  194.3950  171.7760  139.4730 C   0  0  2  0  0  3  0  0  0  0  0  0
  192.7410  171.9620  137.0430 C   0  0  0  0  0  2  0  0  0  0  0  0
  192.7920  173.1690  140.5920 O   0  0  0  0  0  1  0  0  0  0  0  0
  192.5080  172.9110  138.2220 C   0  0  2  0  0  3  0  0  0  0  0  0
  194.2030  171.5320  136.9880 C   0  0  2  0  0  3  0  0  0  0  0  0
  192.9370  172.2540  139.5450 C   0  0  1  0  0  3  0  0  0  0  0  0
  194.3900  170.6610  135.9150 O   0  0  0  0  0  1  0  0  0  0  0  0
  194.5870  170.8310  138.2880 C   0  0  0  0  0  2  0  0  0  0  0  0
  194.7610  171.0870  140.7020 N   0  0  0  0  0  0  0  0  0  0  0  0
  197.1010  173.1280  146.0940 C   0  0  0  0  0  2  0  0  0  0  0  0
  196.1470  173.0840  144.0510 C   0  0  1  0  0  3  0  0  0  0  0  0
  195.1580  171.7210  141.7650 C   0  0  0  0  0  0  0  0  0  0  0  0
  195.3220  173.1200  141.7410 O   0  0  0  0  0  0  0  0  0  0  0  0
  195.5680  173.9220  142.9040 C   0  0  2  0  0  3  0  0  0  0  0  0
  195.5560  171.1510  145.5790 C   0  0  1  0  0  3  0  0  0  0  0  0
  196.1560  173.7800  145.2690 O   0  0  0  0  0  0  0  0  0  0  0  0
  195.2970  171.8280  144.2160 C   0  0  2  0  0  3  0  0  0  0  0  0
  195.5150  169.7570  145.4970 O   0  0  0  0  0  1  0  0  0  0  0  0
  195.4870  170.9370  142.9980 C   0  0  0  0  0  2  0  0  0  0  0  0
  196.8600  171.6070  146.2410 C   0  0  0  0  0  2  0  0  0  0  0  0
  195.8960  175.8280  140.1170 C   0  0  0  0  0  2  0  0  0  0  0  0
  197.3630  175.6380  139.7550 C   0  0  2  0  0  3  0  0  0  0  0  0
  197.8590  174.7420  142.0420 C   0  0  0  0  0  2  0  0  0  0  0  0
  195.7550  176.1590  141.6030 C   0  0  0  0  0  2  0  0  0  0  0  0
  197.5050  175.3020  138.0160 Cl  0  0  0  0  0  0  0  0  0  0  0  0
  197.9390  174.4700  140.5420 C   0  0  0  0  0  2  0  0  0  0  0  0
  196.4420  175.1130  142.4900 C   0  0  1  0  0  3  0  0  0  0  0  0
  1  2  1  1  0  0  0
  3 12  1  6  0  0  0
  4  3  1  0  0  0  0
  5  1  1  6  0  0  0
  5  4  1  0  0  0  0
  5 10  1  0  0  0  0
  5  3  1  0  0  0  0
  7  6  1  1  0  0  0
  9  8  1  1  0  0  0
  9  7  1  0  0  0  0
 10 11  1  6  0  0  0
 10  9  1  0  0  0  0
 10  7  1  0  0  0  0
 12 13  1  0  0  0  0
 13 18  1  0  0  0  0
 14 15  1  0  0  0  0
 14 13  1  0  0  0  0
 15 17  1  0  0  0  0
 17 16  1  0  0  0  0
 18 19  1  0  0  0  0
 19 20  1  0  0  0  0
 20 21  1  0  0  0  0
 21 22  1  0  0  0  0
 22 23  1  0  0  0  0
 24 25  1  6  0  0  0
 24 27  1  0  0  0  0
 24 23  1  0  0  0  0
 26 25  1  0  0  0  0
 27 31  1  0  0  0  0
 27 28  1  1  0  0  0
 30 31  2  0  0  0  0
 31 29  1  0  0  0  0
 32  1  1  0  0  0  0
 33 34  2  0  0  0  0
 34 32  1  0  0  0  0
 35 40  1  0  0  0  0
 35 43  1  1  0  0  0
 36 38  1  0  0  0  0
 38 34  1  1  0  0  0
 38 40  1  0  0  0  0
 39 41  1  6  0  0  0
 39 36  1  0  0  0  0
 39 42  1  0  0  0  0
 40 37  1  1  0  0  0
 42 35  1  0  0  0  0
 43 46  2  0  0  0  0
 44 54  1  0  0  0  0
 45 51  1  0  0  0  0
 45 50  1  1  0  0  0
 46 53  1  0  0  0  0
 47 46  1  0  0  0  0
 48 47  1  6  0  0  0
 48 45  1  0  0  0  0
 49 52  1  6  0  0  0
 49 54  1  0  0  0  0
 50 44  1  0  0  0  0
 51 53  1  6  0  0  0
 51 49  1  0  0  0  0
 55 58  1  0  0  0  0
 56 59  1  6  0  0  0
 56 55  1  0  0  0  0
 56 60  1  0  0  0  0
 57 61  1  0  0  0  0
 60 57  1  0  0  0  0
 61 58  1  6  0  0  0
 61 48  1  0  0  0  0
M  END
>  <MODEL>
9

>  <REMARK>
 VINA RESULT:      -5.0      2.533      9.417
  Name = 
  22 active torsions:
  status: ('A' for Active; 'I' for Inactive)
    1  A    between atoms: C_3  and  N_7
    2  A    between atoms: C_3  and  C_16
    3  A    between atoms: C_4  and  N_7
    4  A    between atoms: C_4  and  C_61
    5  A    between atoms: N_5  and  C_15
    6  A    between atoms: N_7  and  C_25
    7  A    between atoms: C_9  and  C_10
    8  A    between atoms: C_9  and  C_18
    9  A    between atoms: C_10  and  C_16
   10  A    between atoms: C_11  and  C_32
   11  A    between atoms: C_11  and  C_42
   12  A    between atoms: C_18  and  O_22
   13  A    between atoms: C_19  and  C_57
   14  A    between atoms: C_20  and  C_25
   15  A    between atoms: O_22  and  C_42
   16  A    between atoms: O_26  and  C_45
   17  A    between atoms: O_26  and  C_60
   18  A    between atoms: C_33  and  C_55
   19  A    between atoms: C_36  and  C_61
   20  A    between atoms: C_37  and  C_60
   21  A    between atoms: C_42  and  O_47
   22  A    between atoms: C_45  and  C_57
                            x       y       z     vdW  Elec       q    Type
                         _______ _______ _______ _____ _____    ______ ____

>  <TORSDO>
F 22

$$$$
