=
 OpenBabel11042415273D

 44 48  0  0  1  0  0  0  0  0999 V2000
  187.0980  177.3380  147.3740 N   0  0  0  0  0  2  0  0  0  0  0  0
  186.3140  178.4470  146.8620 C   0  0  0  0  0  2  0  0  0  0  0  0
  184.8540  178.2440  147.2180 C   0  0  0  0  0  2  0  0  0  0  0  0
  184.0180  178.6120  146.0890 N   0  0  0  0  0  2  0  0  0  0  0  0
  184.8980  179.0950  145.0360 C   0  0  0  0  0  2  0  0  0  0  0  0
  184.2970  178.8070  143.6990 C   0  0  0  0  0  3  0  0  0  0  0  0
  184.3170  178.2030  141.3520 C   0  0  0  0  0  1  0  0  0  0  0  0
  185.0280  178.4730  142.6350 C   0  0  0  0  0  0  0  0  0  0  0  0
  186.7930  176.0180  142.3960 N   0  0  0  0  0  0  0  0  0  0  0  0
  186.4580  178.4000  142.7360 N   0  0  0  0  0  2  0  0  0  0  0  0
  187.2660  177.2270  142.5890 C   0  0  0  0  0  0  0  0  0  0  0  0
  189.0690  175.9290  142.5050 C   0  0  0  0  0  0  0  0  0  0  0  0
  190.3600  175.4630  142.5210 C   0  0  0  0  0  0  0  0  0  0  0  0
  189.6670  178.1750  142.8630 N   0  0  0  0  0  0  0  0  0  0  0  0
  188.7290  177.2130  142.6670 C   0  0  0  0  0  0  0  0  0  0  0  0
  189.3800  173.2490  142.1630 C   0  0  0  0  0  3  0  0  0  0  0  0
  187.9580  175.1810  142.3390 C   0  0  0  0  0  0  0  0  0  0  0  0
  191.3700  176.4300  142.7200 C   0  0  0  0  0  0  0  0  0  0  0  0
  193.1020  175.9790  142.7660 S   0  0  0  0  0  1  0  0  0  0  0  0
  190.5270  174.0750  142.3430 C   0  0  0  0  0  3  0  0  0  0  0  0
  190.9910  177.7950  142.8910 C   0  0  0  0  0  3  0  0  0  0  0  0
  188.0710  173.8000  142.1620 C   0  0  0  0  0  3  0  0  0  0  0  0
  187.3940  176.4790  146.2400 C   0  0  0  0  0  2  0  0  0  0  0  0
  189.8000  177.1400  146.4220 C   0  0  0  0  0  3  0  0  0  0  0  0
  189.2450  174.8110  146.0610 C   0  0  0  0  0  3  0  0  0  0  0  0
  190.6040  174.4850  146.0750 C   0  0  0  0  0  3  0  0  0  0  0  0
  191.5710  175.4840  146.2620 C   0  0  0  0  0  0  0  0  0  0  0  0
  188.8420  176.1390  146.2290 C   0  0  0  0  0  0  0  0  0  0  0  0
  191.1600  176.8130  146.4370 C   0  0  0  0  0  3  0  0  0  0  0  0
  193.8440  175.9620  146.7430 O   0  0  0  0  0  0  0  0  0  0  0  0
  193.0040  175.1400  146.2850 C   0  0  0  0  0  0  0  0  0  0  0  0
  193.4470  173.8750  145.7840 N   0  0  0  0  0  2  0  0  0  0  0  0
  194.8070  173.5370  145.7260 N   0  0  0  0  0  2  0  0  0  0  0  0
  195.0070  172.7050  144.5460 C   0  0  0  0  0  2  0  0  0  0  0  0
  194.2080  171.4040  144.6620 C   0  0  2  0  0  3  0  0  0  0  0  0
  196.3830  169.5830  146.6340 C   0  0  0  0  0  0  0  0  0  0  0  0
  196.6990  169.1620  147.7770 O   0  0  0  0  0  0  0  0  0  0  0  0
  196.5890  170.4440  144.5100 C   0  0  1  0  0  3  0  0  0  0  0  0
  195.1000  170.1660  144.8220 C   0  0  1  0  0  3  0  0  0  0  0  0
  197.3330  170.0190  145.6870 N   0  0  0  0  0  2  0  0  0  0  0  0
  197.0230  169.6250  143.3090 C   0  0  0  0  0  1  0  0  0  0  0  0
  195.0480  169.6610  146.1880 N   0  0  0  0  0  2  0  0  0  0  0  0
  191.8590  171.0380  143.9030 C   0  0  0  0  0  1  0  0  0  0  0  0
  193.2960  171.2350  143.4570 C   0  0  0  0  0  2  0  0  0  0  0  0
  2  3  1  0  0  0  0
  2  1  1  0  0  0  0
  4  3  1  0  0  0  0
  5  4  1  0  0  0  0
  6  5  1  0  0  0  0
  7  8  1  0  0  0  0
  8 10  1  0  0  0  0
  8  6  2  0  0  0  0
  9 11  2  0  0  0  0
 11 15  1  0  0  0  0
 11 10  1  0  0  0  0
 12 13  1  0  0  0  0
 12 15  1  0  0  0  0
 13 18  1  0  0  0  0
 14 21  1  0  0  0  0
 15 14  2  0  0  0  0
 16 20  1  0  0  0  0
 17  9  1  0  0  0  0
 17 12  2  0  0  0  0
 18 19  1  0  0  0  0
 18 21  2  0  0  0  0
 20 13  2  0  0  0  0
 22 16  2  0  0  0  0
 22 17  1  0  0  0  0
 23  1  1  0  0  0  0
 24 29  1  0  0  0  0
 25 26  2  0  0  0  0
 25 28  1  0  0  0  0
 26 27  1  0  0  0  0
 27 31  1  0  0  0  0
 27 29  2  0  0  0  0
 28 23  1  0  0  0  0
 28 24  2  0  0  0  0
 31 30  2  0  0  0  0
 32 31  1  0  0  0  0
 33 32  1  0  0  0  0
 34 35  1  0  0  0  0
 34 33  1  0  0  0  0
 35 44  1  6  0  0  0
 36 37  2  0  0  0  0
 38 41  1  6  0  0  0
 38 39  1  0  0  0  0
 38 40  1  0  0  0  0
 39 35  1  1  0  0  0
 39 42  1  0  0  0  0
 40 36  1  0  0  0  0
 42 36  1  0  0  0  0
 44 43  1  0  0  0  0
M  END
>  <MODEL>
1

>  <REMARK>
 VINA RESULT:      -7.1      0.000      0.000
  Name = 
  14 active torsions:
  status: ('A' for Active; 'I' for Inactive)
    1  A    between atoms: C_5  and  C_12
    2  A    between atoms: C_5  and  N_31
    3  A    between atoms: N_8  and  C_33
    4  A    between atoms: C_11  and  C_44
    5  A    between atoms: C_18  and  N_27
    6  A    between atoms: C_18  and  C_44
    7  A    between atoms: C_19  and  C_44
    8  A    between atoms: C_21  and  C_29
    9  A    between atoms: N_27  and  N_34
   10  A    between atoms: N_31  and  C_38
   11  A    between atoms: C_35  and  C_42
   12  A    between atoms: C_37  and  C_38
   13  A    between atoms: C_37  and  N_40
   14  A    between atoms: N_40  and  C_42
                            x       y       z     vdW  Elec       q    Type
                         _______ _______ _______ _____ _____    ______ ____

>  <TORSDO>
F 14

$$$$
=
 OpenBabel11042415273D

 44 48  0  0  1  0  0  0  0  0999 V2000
  186.3180  177.3340  147.7230 N   0  0  0  0  0  2  0  0  0  0  0  0
  185.7780  178.5940  147.2500 C   0  0  0  0  0  2  0  0  0  0  0  0
  184.4340  178.3550  146.5910 C   0  0  0  0  0  2  0  0  0  0  0  0
  184.4080  178.9900  145.2840 N   0  0  0  0  0  2  0  0  0  0  0  0
  184.5480  177.9390  144.2880 C   0  0  0  0  0  2  0  0  0  0  0  0
  184.3960  178.5150  142.9170 C   0  0  0  0  0  3  0  0  0  0  0  0
  184.7820  178.6650  140.5300 C   0  0  0  0  0  1  0  0  0  0  0  0
  185.0140  178.0110  141.8490 C   0  0  0  0  0  0  0  0  0  0  0  0
  187.9840  178.0140  142.4680 N   0  0  0  0  0  0  0  0  0  0  0  0
  185.8890  176.8810  141.9880 N   0  0  0  0  0  2  0  0  0  0  0  0
  187.2840  176.9150  142.3100 C   0  0  0  0  0  0  0  0  0  0  0  0
  189.3470  176.2070  142.7390 C   0  0  0  0  0  0  0  0  0  0  0  0
  190.4550  175.4250  142.9530 C   0  0  0  0  0  0  0  0  0  0  0  0
  187.8910  174.3930  142.3990 N   0  0  0  0  0  0  0  0  0  0  0  0
  188.1260  175.7280  142.4750 C   0  0  0  0  0  0  0  0  0  0  0  0
  191.6720  177.5300  143.2290 C   0  0  0  0  0  3  0  0  0  0  0  0
  189.3150  177.5560  142.7480 C   0  0  0  0  0  0  0  0  0  0  0  0
  190.2550  174.0290  142.8880 C   0  0  0  0  0  0  0  0  0  0  0  0
  191.6020  172.8780  143.1440 S   0  0  0  0  0  1  0  0  0  0  0  0
  191.6620  176.1060  143.2100 C   0  0  0  0  0  3  0  0  0  0  0  0
  188.9470  173.5340  142.6050 C   0  0  0  0  0  3  0  0  0  0  0  0
  190.4860  178.2770  142.9930 C   0  0  0  0  0  3  0  0  0  0  0  0
  186.7430  176.5950  146.5470 C   0  0  0  0  0  2  0  0  0  0  0  0
  189.0600  177.5400  146.5890 C   0  0  0  0  0  3  0  0  0  0  0  0
  188.7710  175.1370  146.6000 C   0  0  0  0  0  3  0  0  0  0  0  0
  190.1580  174.9700  146.6420 C   0  0  0  0  0  3  0  0  0  0  0  0
  191.0060  176.0870  146.6590 C   0  0  0  0  0  0  0  0  0  0  0  0
  188.2210  176.4210  146.5670 C   0  0  0  0  0  0  0  0  0  0  0  0
  190.4480  177.3740  146.6320 C   0  0  0  0  0  3  0  0  0  0  0  0
  193.1890  176.7910  147.2620 O   0  0  0  0  0  0  0  0  0  0  0  0
  192.4680  175.9140  146.7120 C   0  0  0  0  0  0  0  0  0  0  0  0
  193.0750  174.7520  146.1380 N   0  0  0  0  0  2  0  0  0  0  0  0
  194.4680  174.5810  146.1090 N   0  0  0  0  0  2  0  0  0  0  0  0
  194.9490  175.0890  144.8310 C   0  0  0  0  0  2  0  0  0  0  0  0
  196.4130  174.6980  144.6110 C   0  0  2  0  0  3  0  0  0  0  0  0
  196.7720  175.2960  141.2270 C   0  0  0  0  0  0  0  0  0  0  0  0
  197.1990  176.0420  140.3090 O   0  0  0  0  0  0  0  0  0  0  0  0
  195.3860  173.8810  142.4000 C   0  0  1  0  0  3  0  0  0  0  0  0
  196.6790  174.1390  143.2080 C   0  0  1  0  0  3  0  0  0  0  0  0
  195.5360  174.6180  141.1530 N   0  0  0  0  0  2  0  0  0  0  0  0
  195.2520  172.3990  142.1050 C   0  0  0  0  0  1  0  0  0  0  0  0
  197.4830  175.0670  142.4220 N   0  0  0  0  0  2  0  0  0  0  0  0
  197.5660  172.5220  145.0130 C   0  0  0  0  0  1  0  0  0  0  0  0
  196.8560  173.6950  145.6640 C   0  0  0  0  0  2  0  0  0  0  0  0
  2  1  1  0  0  0  0
  3  2  1  0  0  0  0
  4  3  1  0  0  0  0
  5  4  1  0  0  0  0
  6  5  1  0  0  0  0
  7  8  1  0  0  0  0
  8 10  1  0  0  0  0
  8  6  2  0  0  0  0
  9 17  1  0  0  0  0
 10 11  1  0  0  0  0
 11  9  2  0  0  0  0
 11 15  1  0  0  0  0
 12 17  2  0  0  0  0
 12 13  1  0  0  0  0
 13 20  2  0  0  0  0
 14 15  2  0  0  0  0
 14 21  1  0  0  0  0
 15 12  1  0  0  0  0
 17 22  1  0  0  0  0
 18 13  1  0  0  0  0
 18 19  1  0  0  0  0
 20 16  1  0  0  0  0
 21 18  2  0  0  0  0
 22 16  2  0  0  0  0
 23 28  1  0  0  0  0
 23  1  1  0  0  0  0
 24 29  1  0  0  0  0
 25 26  2  0  0  0  0
 26 27  1  0  0  0  0
 27 31  1  0  0  0  0
 28 24  2  0  0  0  0
 28 25  1  0  0  0  0
 29 27  2  0  0  0  0
 31 30  2  0  0  0  0
 32 31  1  0  0  0  0
 33 32  1  0  0  0  0
 34 33  1  0  0  0  0
 35 34  1  6  0  0  0
 35 44  1  0  0  0  0
 36 42  1  0  0  0  0
 37 36  2  0  0  0  0
 38 41  1  6  0  0  0
 38 39  1  0  0  0  0
 39 35  1  1  0  0  0
 40 36  1  0  0  0  0
 40 38  1  0  0  0  0
 42 39  1  0  0  0  0
 43 44  1  0  0  0  0
M  END
>  <MODEL>
2

>  <REMARK>
 VINA RESULT:      -6.9      2.332      3.519
  Name = 
  14 active torsions:
  status: ('A' for Active; 'I' for Inactive)
    1  A    between atoms: C_5  and  C_12
    2  A    between atoms: C_5  and  N_31
    3  A    between atoms: N_8  and  C_33
    4  A    between atoms: C_11  and  C_44
    5  A    between atoms: C_18  and  N_27
    6  A    between atoms: C_18  and  C_44
    7  A    between atoms: C_19  and  C_44
    8  A    between atoms: C_21  and  C_29
    9  A    between atoms: N_27  and  N_34
   10  A    between atoms: N_31  and  C_38
   11  A    between atoms: C_35  and  C_42
   12  A    between atoms: C_37  and  C_38
   13  A    between atoms: C_37  and  N_40
   14  A    between atoms: N_40  and  C_42
                            x       y       z     vdW  Elec       q    Type
                         _______ _______ _______ _____ _____    ______ ____

>  <TORSDO>
F 14

$$$$
=
 OpenBabel11042415273D

 44 48  0  0  1  0  0  0  0  0999 V2000
  196.0390  176.3360  142.3320 N   0  0  0  0  0  2  0  0  0  0  0  0
  197.1230  175.3720  142.3100 C   0  0  0  0  0  2  0  0  0  0  0  0
  197.8950  175.4460  143.6130 C   0  0  0  0  0  2  0  0  0  0  0  0
  197.9260  174.1350  144.2400 N   0  0  0  0  0  2  0  0  0  0  0  0
  196.8090  174.0730  145.1700 C   0  0  0  0  0  2  0  0  0  0  0  0
  196.7850  172.7410  145.8470 C   0  0  0  0  0  3  0  0  0  0  0  0
  196.1610  170.4160  146.1240 C   0  0  0  0  0  1  0  0  0  0  0  0
  196.1070  171.6980  145.3650 C   0  0  0  0  0  0  0  0  0  0  0  0
  193.2050  172.5380  145.0840 N   0  0  0  0  0  0  0  0  0  0  0  0
  195.3380  171.8310  144.1600 N   0  0  0  0  0  2  0  0  0  0  0  0
  193.9760  172.2600  144.0580 C   0  0  0  0  0  0  0  0  0  0  0  0
  192.0170  172.7970  143.1560 C   0  0  0  0  0  0  0  0  0  0  0  0
  190.9950  173.0440  142.2730 C   0  0  0  0  0  0  0  0  0  0  0  0
  193.5810  172.2350  141.4930 N   0  0  0  0  0  0  0  0  0  0  0  0
  193.2470  172.4120  142.7970 C   0  0  0  0  0  0  0  0  0  0  0  0
  189.6410  173.5420  144.2490 C   0  0  0  0  0  3  0  0  0  0  0  0
  191.9420  172.8880  144.5010 C   0  0  0  0  0  0  0  0  0  0  0  0
  191.2990  172.8760  140.9040 C   0  0  0  0  0  0  0  0  0  0  0  0
  190.0730  173.1610  139.6310 S   0  0  0  0  0  1  0  0  0  0  0  0
  189.7620  173.4330  142.8340 C   0  0  0  0  0  3  0  0  0  0  0  0
  192.6150  172.4650  140.5380 C   0  0  0  0  0  3  0  0  0  0  0  0
  190.7410  173.2660  145.1050 C   0  0  0  0  0  3  0  0  0  0  0  0
  194.8360  175.6170  141.9520 C   0  0  0  0  0  2  0  0  0  0  0  0
  192.4640  176.3500  142.2670 C   0  0  0  0  0  3  0  0  0  0  0  0
  193.8730  176.0600  144.2140 C   0  0  0  0  0  3  0  0  0  0  0  0
  192.8060  176.4230  145.0410 C   0  0  0  0  0  3  0  0  0  0  0  0
  191.5600  176.7520  144.4870 C   0  0  0  0  0  0  0  0  0  0  0  0
  193.7050  176.0290  142.8280 C   0  0  0  0  0  0  0  0  0  0  0  0
  191.3950  176.7120  143.0940 C   0  0  0  0  0  3  0  0  0  0  0  0
  190.5720  177.1270  146.6110 O   0  0  0  0  0  0  0  0  0  0  0  0
  190.4310  177.1260  145.3570 C   0  0  0  0  0  0  0  0  0  0  0  0
  189.1700  177.4850  144.7830 N   0  0  0  0  0  2  0  0  0  0  0  0
  188.0530  177.7830  145.5780 N   0  0  0  0  0  2  0  0  0  0  0  0
  187.1480  176.6420  145.5140 C   0  0  0  0  0  2  0  0  0  0  0  0
  185.7830  177.0650  144.9660 C   0  0  2  0  0  3  0  0  0  0  0  0
  187.3040  176.6120  141.8970 C   0  0  0  0  0  0  0  0  0  0  0  0
  188.2550  176.1270  141.2330 O   0  0  0  0  0  0  0  0  0  0  0  0
  185.6960  178.0950  142.6110 C   0  0  1  0  0  3  0  0  0  0  0  0
  185.6350  176.8050  143.4620 C   0  0  1  0  0  3  0  0  0  0  0  0
  186.7490  177.8810  141.6290 N   0  0  0  0  0  2  0  0  0  0  0  0
  184.3710  178.3050  141.9020 C   0  0  0  0  0  1  0  0  0  0  0  0
  186.7000  175.9360  142.9770 N   0  0  0  0  0  2  0  0  0  0  0  0
  184.0950  178.7330  145.7380 C   0  0  0  0  0  1  0  0  0  0  0  0
  185.5240  178.5330  145.2680 C   0  0  0  0  0  2  0  0  0  0  0  0
  2  1  1  0  0  0  0
  2  3  1  0  0  0  0
  3  4  1  0  0  0  0
  4  5  1  0  0  0  0
  5  6  1  0  0  0  0
  8  6  2  0  0  0  0
  8  7  1  0  0  0  0
 10  8  1  0  0  0  0
 11 10  1  0  0  0  0
 11  9  2  0  0  0  0
 12 17  1  0  0  0  0
 13 20  1  0  0  0  0
 13 12  1  0  0  0  0
 14 15  1  0  0  0  0
 15 12  2  0  0  0  0
 15 11  1  0  0  0  0
 16 22  1  0  0  0  0
 17  9  1  0  0  0  0
 17 22  2  0  0  0  0
 18 13  2  0  0  0  0
 19 18  1  0  0  0  0
 20 16  2  0  0  0  0
 21 18  1  0  0  0  0
 21 14  2  0  0  0  0
 23  1  1  0  0  0  0
 23 28  1  0  0  0  0
 24 28  2  0  0  0  0
 24 29  1  0  0  0  0
 25 26  2  0  0  0  0
 27 26  1  0  0  0  0
 27 31  1  0  0  0  0
 28 25  1  0  0  0  0
 29 27  2  0  0  0  0
 31 30  2  0  0  0  0
 32 31  1  0  0  0  0
 32 33  1  0  0  0  0
 34 33  1  0  0  0  0
 35 44  1  6  0  0  0
 35 34  1  0  0  0  0
 36 42  1  0  0  0  0
 37 36  2  0  0  0  0
 38 41  1  6  0  0  0
 38 39  1  0  0  0  0
 39 35  1  1  0  0  0
 40 36  1  0  0  0  0
 40 38  1  0  0  0  0
 42 39  1  0  0  0  0
 44 43  1  0  0  0  0
M  END
>  <MODEL>
3

>  <REMARK>
 VINA RESULT:      -6.8      2.617      9.339
  Name = 
  14 active torsions:
  status: ('A' for Active; 'I' for Inactive)
    1  A    between atoms: C_5  and  C_12
    2  A    between atoms: C_5  and  N_31
    3  A    between atoms: N_8  and  C_33
    4  A    between atoms: C_11  and  C_44
    5  A    between atoms: C_18  and  N_27
    6  A    between atoms: C_18  and  C_44
    7  A    between atoms: C_19  and  C_44
    8  A    between atoms: C_21  and  C_29
    9  A    between atoms: N_27  and  N_34
   10  A    between atoms: N_31  and  C_38
   11  A    between atoms: C_35  and  C_42
   12  A    between atoms: C_37  and  C_38
   13  A    between atoms: C_37  and  N_40
   14  A    between atoms: N_40  and  C_42
                            x       y       z     vdW  Elec       q    Type
                         _______ _______ _______ _____ _____    ______ ____

>  <TORSDO>
F 14

$$$$
=
 OpenBabel11042415273D

 44 48  0  0  1  0  0  0  0  0999 V2000
  194.6020  172.2300  145.3300 N   0  0  0  0  0  2  0  0  0  0  0  0
  195.8430  171.4820  145.2550 C   0  0  0  0  0  2  0  0  0  0  0  0
  197.0120  172.4440  145.1690 C   0  0  0  0  0  2  0  0  0  0  0  0
  197.9410  171.9960  144.1460 N   0  0  0  0  0  2  0  0  0  0  0  0
  197.2970  172.1960  142.8570 C   0  0  0  0  0  2  0  0  0  0  0  0
  197.5800  173.5760  142.3560 C   0  0  0  0  0  3  0  0  0  0  0  0
  197.0340  175.7240  141.3780 C   0  0  0  0  0  1  0  0  0  0  0  0
  196.6360  174.3640  141.8410 C   0  0  0  0  0  0  0  0  0  0  0  0
  194.0770  175.8380  142.5360 N   0  0  0  0  0  0  0  0  0  0  0  0
  195.2850  173.8920  141.7240 N   0  0  0  0  0  2  0  0  0  0  0  0
  194.0950  174.6250  142.0340 C   0  0  0  0  0  0  0  0  0  0  0  0
  191.9370  175.0920  142.2930 C   0  0  0  0  0  0  0  0  0  0  0  0
  190.5660  175.0200  142.3180 C   0  0  0  0  0  0  0  0  0  0  0  0
  192.2280  172.9330  141.4090 N   0  0  0  0  0  0  0  0  0  0  0  0
  192.7350  174.1070  141.8640 C   0  0  0  0  0  0  0  0  0  0  0  0
  190.6400  177.2820  143.2510 C   0  0  0  0  0  3  0  0  0  0  0  0
  192.6840  176.1400  142.7000 C   0  0  0  0  0  0  0  0  0  0  0  0
  189.9950  173.8170  141.8500 C   0  0  0  0  0  0  0  0  0  0  0  0
  188.2220  173.5710  141.8200 S   0  0  0  0  0  1  0  0  0  0  0  0
  189.8890  176.1540  142.8120 C   0  0  0  0  0  3  0  0  0  0  0  0
  190.8600  172.7760  141.3960 C   0  0  0  0  0  3  0  0  0  0  0  0
  192.0600  177.2840  143.2000 C   0  0  0  0  0  3  0  0  0  0  0  0
  194.9660  173.6330  145.4120 C   0  0  0  0  0  2  0  0  0  0  0  0
  192.4910  173.9270  145.6310 C   0  0  0  0  0  3  0  0  0  0  0  0
  193.9570  175.6970  146.3930 C   0  0  0  0  0  3  0  0  0  0  0  0
  192.8460  176.4480  146.7890 C   0  0  0  0  0  3  0  0  0  0  0  0
  191.5490  175.9430  146.6090 C   0  0  0  0  0  0  0  0  0  0  0  0
  193.7800  174.4400  145.8090 C   0  0  0  0  0  0  0  0  0  0  0  0
  191.3790  174.6780  146.0280 C   0  0  0  0  0  3  0  0  0  0  0  0
  190.5060  177.6400  147.8960 O   0  0  0  0  0  0  0  0  0  0  0  0
  190.3780  176.7290  147.0340 C   0  0  0  0  0  0  0  0  0  0  0  0
  189.0890  176.4570  146.4720 N   0  0  0  0  0  2  0  0  0  0  0  0
  187.9380  177.1370  146.8980 N   0  0  0  0  0  2  0  0  0  0  0  0
  187.2500  177.6290  145.7110 C   0  0  0  0  0  2  0  0  0  0  0  0
  186.0010  176.7900  145.4240 C   0  0  2  0  0  3  0  0  0  0  0  0
  186.4530  177.3250  142.0410 C   0  0  0  0  0  0  0  0  0  0  0  0
  187.0570  177.0280  140.9780 O   0  0  0  0  0  0  0  0  0  0  0  0
  185.4440  178.5920  143.6760 C   0  0  1  0  0  3  0  0  0  0  0  0
  185.3780  177.0940  144.0560 C   0  0  1  0  0  3  0  0  0  0  0  0
  186.1050  178.6500  142.3800 N   0  0  0  0  0  2  0  0  0  0  0  0
  184.0400  179.1540  143.5580 C   0  0  0  0  0  1  0  0  0  0  0  0
  186.0650  176.3650  142.9980 N   0  0  0  0  0  2  0  0  0  0  0  0
  185.0490  178.3970  147.0790 C   0  0  0  0  0  1  0  0  0  0  0  0
  184.9680  176.9880  146.5220 C   0  0  0  0  0  2  0  0  0  0  0  0
  1 23  1  0  0  0  0
  2  1  1  0  0  0  0
  3  2  1  0  0  0  0
  4  3  1  0  0  0  0
  5  4  1  0  0  0  0
  6  5  1  0  0  0  0
  7  8  1  0  0  0  0
  8  6  2  0  0  0  0
  9 17  1  0  0  0  0
 10  8  1  0  0  0  0
 10 11  1  0  0  0  0
 11  9  2  0  0  0  0
 12 13  1  0  0  0  0
 12 17  1  0  0  0  0
 13 20  1  0  0  0  0
 14 15  1  0  0  0  0
 15 11  1  0  0  0  0
 15 12  2  0  0  0  0
 17 22  2  0  0  0  0
 18 13  2  0  0  0  0
 19 18  1  0  0  0  0
 20 16  2  0  0  0  0
 21 14  2  0  0  0  0
 21 18  1  0  0  0  0
 22 16  1  0  0  0  0
 23 28  1  0  0  0  0
 24 28  2  0  0  0  0
 24 29  1  0  0  0  0
 25 26  2  0  0  0  0
 27 26  1  0  0  0  0
 27 31  1  0  0  0  0
 28 25  1  0  0  0  0
 29 27  2  0  0  0  0
 31 30  2  0  0  0  0
 32 33  1  0  0  0  0
 32 31  1  0  0  0  0
 34 33  1  0  0  0  0
 35 34  1  1  0  0  0
 35 44  1  0  0  0  0
 36 40  1  0  0  0  0
 36 42  1  0  0  0  0
 37 36  2  0  0  0  0
 38 41  1  6  0  0  0
 38 39  1  0  0  0  0
 39 35  1  1  0  0  0
 40 38  1  0  0  0  0
 42 39  1  0  0  0  0
 44 43  1  0  0  0  0
M  END
>  <MODEL>
4

>  <REMARK>
 VINA RESULT:      -6.7      2.637      9.291
  Name = 
  14 active torsions:
  status: ('A' for Active; 'I' for Inactive)
    1  A    between atoms: C_5  and  C_12
    2  A    between atoms: C_5  and  N_31
    3  A    between atoms: N_8  and  C_33
    4  A    between atoms: C_11  and  C_44
    5  A    between atoms: C_18  and  N_27
    6  A    between atoms: C_18  and  C_44
    7  A    between atoms: C_19  and  C_44
    8  A    between atoms: C_21  and  C_29
    9  A    between atoms: N_27  and  N_34
   10  A    between atoms: N_31  and  C_38
   11  A    between atoms: C_35  and  C_42
   12  A    between atoms: C_37  and  C_38
   13  A    between atoms: C_37  and  N_40
   14  A    between atoms: N_40  and  C_42
                            x       y       z     vdW  Elec       q    Type
                         _______ _______ _______ _____ _____    ______ ____

>  <TORSDO>
F 14

$$$$
=
 OpenBabel11042415273D

 44 48  0  0  1  0  0  0  0  0999 V2000
  189.2390  176.3280  146.5870 N   0  0  0  0  0  2  0  0  0  0  0  0
  188.2540  177.3860  146.7090 C   0  0  0  0  0  2  0  0  0  0  0  0
  187.0330  176.8620  147.4410 C   0  0  0  0  0  2  0  0  0  0  0  0
  185.8310  177.4410  146.8660 N   0  0  0  0  0  2  0  0  0  0  0  0
  185.5320  176.7010  145.6500 C   0  0  0  0  0  2  0  0  0  0  0  0
  185.0590  177.6410  144.5870 C   0  0  0  0  0  3  0  0  0  0  0  0
  184.8770  178.5150  142.3350 C   0  0  0  0  0  1  0  0  0  0  0  0
  185.4160  177.5220  143.3080 C   0  0  0  0  0  0  0  0  0  0  0  0
  188.4490  177.5640  143.2660 N   0  0  0  0  0  0  0  0  0  0  0  0
  186.3090  176.4740  142.9010 N   0  0  0  0  0  2  0  0  0  0  0  0
  187.7400  176.5150  142.9220 C   0  0  0  0  0  0  0  0  0  0  0  0
  189.8520  175.8700  142.6690 C   0  0  0  0  0  0  0  0  0  0  0  0
  190.9860  175.1470  142.3930 C   0  0  0  0  0  0  0  0  0  0  0  0
  188.3710  174.1390  142.0880 N   0  0  0  0  0  0  0  0  0  0  0  0
  188.6060  175.4020  142.5280 C   0  0  0  0  0  0  0  0  0  0  0  0
  192.2170  177.1560  143.0550 C   0  0  0  0  0  3  0  0  0  0  0  0
  189.8120  177.1460  143.1060 C   0  0  0  0  0  0  0  0  0  0  0  0
  190.7880  173.8250  141.9360 C   0  0  0  0  0  0  0  0  0  0  0  0
  192.1670  172.7570  141.5340 S   0  0  0  0  0  1  0  0  0  0  0  0
  192.2150  175.8080  142.5930 C   0  0  0  0  0  3  0  0  0  0  0  0
  189.4530  173.3410  141.7900 C   0  0  0  0  0  3  0  0  0  0  0  0
  191.0030  177.8450  143.3170 C   0  0  0  0  0  3  0  0  0  0  0  0
  190.4530  176.8150  147.2180 C   0  0  0  0  0  2  0  0  0  0  0  0
  191.4470  174.8000  146.1160 C   0  0  0  0  0  3  0  0  0  0  0  0
  192.9060  176.6110  146.7910 C   0  0  0  0  0  3  0  0  0  0  0  0
  194.0080  175.9090  146.2920 C   0  0  0  0  0  3  0  0  0  0  0  0
  193.8370  174.6480  145.7010 C   0  0  0  0  0  0  0  0  0  0  0  0
  191.6270  176.0540  146.7090 C   0  0  0  0  0  0  0  0  0  0  0  0
  192.5490  174.0980  145.6170 C   0  0  0  0  0  3  0  0  0  0  0  0
  196.0120  173.7220  145.8890 O   0  0  0  0  0  0  0  0  0  0  0  0
  194.9950  173.9110  145.1670 C   0  0  0  0  0  0  0  0  0  0  0  0
  194.9720  173.4100  143.8270 N   0  0  0  0  0  2  0  0  0  0  0  0
  196.0790  172.7620  143.2590 N   0  0  0  0  0  2  0  0  0  0  0  0
  196.3110  173.3510  141.9460 C   0  0  0  0  0  2  0  0  0  0  0  0
  196.1250  174.8700  141.9940 C   0  0  2  0  0  3  0  0  0  0  0  0
  194.5760  174.9770  138.9080 C   0  0  0  0  0  0  0  0  0  0  0  0
  193.5150  174.9030  138.2370 O   0  0  0  0  0  0  0  0  0  0  0  0
  196.7790  174.7010  139.5130 C   0  0  1  0  0  3  0  0  0  0  0  0
  196.0320  175.5060  140.6020 C   0  0  1  0  0  3  0  0  0  0  0  0
  195.8020  174.4350  138.4670 N   0  0  0  0  0  2  0  0  0  0  0  0
  197.9170  175.5310  138.9500 C   0  0  0  0  0  1  0  0  0  0  0  0
  194.6450  175.6070  140.1670 N   0  0  0  0  0  2  0  0  0  0  0  0
  196.7770  176.8130  143.4170 C   0  0  0  0  0  1  0  0  0  0  0  0
  197.2490  175.5150  142.7880 C   0  0  0  0  0  2  0  0  0  0  0  0
  1  2  1  0  0  0  0
  1 23  1  0  0  0  0
  2  3  1  0  0  0  0
  4  3  1  0  0  0  0
  5  4  1  0  0  0  0
  6  5  1  0  0  0  0
  7  8  1  0  0  0  0
  8  6  2  0  0  0  0
 10 11  1  0  0  0  0
 10  8  1  0  0  0  0
 11  9  2  0  0  0  0
 12 17  1  0  0  0  0
 13 20  1  0  0  0  0
 13 12  1  0  0  0  0
 14 15  1  0  0  0  0
 15 12  2  0  0  0  0
 15 11  1  0  0  0  0
 16 22  1  0  0  0  0
 17  9  1  0  0  0  0
 17 22  2  0  0  0  0
 18 13  2  0  0  0  0
 19 18  1  0  0  0  0
 20 16  2  0  0  0  0
 21 18  1  0  0  0  0
 21 14  2  0  0  0  0
 24 28  1  0  0  0  0
 26 25  1  0  0  0  0
 27 26  2  0  0  0  0
 28 25  2  0  0  0  0
 28 23  1  0  0  0  0
 29 27  1  0  0  0  0
 29 24  2  0  0  0  0
 31 27  1  0  0  0  0
 31 30  2  0  0  0  0
 32 31  1  0  0  0  0
 33 32  1  0  0  0  0
 34 33  1  0  0  0  0
 35 34  1  6  0  0  0
 35 44  1  0  0  0  0
 36 42  1  0  0  0  0
 37 36  2  0  0  0  0
 38 41  1  6  0  0  0
 38 39  1  0  0  0  0
 39 35  1  1  0  0  0
 40 36  1  0  0  0  0
 40 38  1  0  0  0  0
 42 39  1  0  0  0  0
 44 43  1  0  0  0  0
M  END
>  <MODEL>
5

>  <REMARK>
 VINA RESULT:      -6.7      3.143      4.580
  Name = 
  14 active torsions:
  status: ('A' for Active; 'I' for Inactive)
    1  A    between atoms: C_5  and  C_12
    2  A    between atoms: C_5  and  N_31
    3  A    between atoms: N_8  and  C_33
    4  A    between atoms: C_11  and  C_44
    5  A    between atoms: C_18  and  N_27
    6  A    between atoms: C_18  and  C_44
    7  A    between atoms: C_19  and  C_44
    8  A    between atoms: C_21  and  C_29
    9  A    between atoms: N_27  and  N_34
   10  A    between atoms: N_31  and  C_38
   11  A    between atoms: C_35  and  C_42
   12  A    between atoms: C_37  and  C_38
   13  A    between atoms: C_37  and  N_40
   14  A    between atoms: N_40  and  C_42
                            x       y       z     vdW  Elec       q    Type
                         _______ _______ _______ _____ _____    ______ ____

>  <TORSDO>
F 14

$$$$
=
 OpenBabel11042415273D

 44 48  0  0  1  0  0  0  0  0999 V2000
  188.2340  175.9480  140.9240 N   0  0  0  0  0  2  0  0  0  0  0  0
  187.6610  177.2430  141.2360 C   0  0  0  0  0  2  0  0  0  0  0  0
  186.5220  177.5390  140.2790 C   0  0  0  0  0  2  0  0  0  0  0  0
  185.4110  178.1290  141.0070 N   0  0  0  0  0  2  0  0  0  0  0  0
  185.1970  177.3230  142.1990 C   0  0  0  0  0  2  0  0  0  0  0  0
  184.6930  178.1860  143.3110 C   0  0  0  0  0  3  0  0  0  0  0  0
  184.8880  179.6450  145.2350 C   0  0  0  0  0  1  0  0  0  0  0  0
  185.5040  178.8060  144.1690 C   0  0  0  0  0  0  0  0  0  0  0  0
  187.2920  176.9480  145.7670 N   0  0  0  0  0  0  0  0  0  0  0  0
  186.9270  178.6420  144.0640 N   0  0  0  0  0  2  0  0  0  0  0  0
  187.7390  177.7330  144.8140 C   0  0  0  0  0  0  0  0  0  0  0  0
  189.5430  176.6610  145.5480 C   0  0  0  0  0  0  0  0  0  0  0  0
  190.8300  176.2220  145.7380 C   0  0  0  0  0  0  0  0  0  0  0  0
  190.1000  178.1590  143.8240 N   0  0  0  0  0  0  0  0  0  0  0  0
  189.1860  177.5800  144.6440 C   0  0  0  0  0  0  0  0  0  0  0  0
  189.8990  174.7960  147.4960 C   0  0  0  0  0  3  0  0  0  0  0  0
  188.4560  176.2540  146.2380 C   0  0  0  0  0  0  0  0  0  0  0  0
  191.8150  176.7960  144.9040 C   0  0  0  0  0  0  0  0  0  0  0  0
  193.5380  176.3270  145.0310 S   0  0  0  0  0  1  0  0  0  0  0  0
  191.0190  175.2540  146.7460 C   0  0  0  0  0  3  0  0  0  0  0  0
  191.4170  177.7750  143.9450 C   0  0  0  0  0  3  0  0  0  0  0  0
  188.5930  175.2990  147.2480 C   0  0  0  0  0  3  0  0  0  0  0  0
  188.0130  175.1040  142.0850 C   0  0  0  0  0  2  0  0  0  0  0  0
  189.3160  173.5380  143.5380 C   0  0  0  0  0  3  0  0  0  0  0  0
  190.4920  174.8660  141.8900 C   0  0  0  0  0  3  0  0  0  0  0  0
  191.7010  174.2820  142.2820 C   0  0  0  0  0  3  0  0  0  0  0  0
  191.7260  173.3220  143.3040 C   0  0  0  0  0  0  0  0  0  0  0  0
  189.3010  174.4990  142.5220 C   0  0  0  0  0  0  0  0  0  0  0  0
  190.5250  172.9530  143.9290 C   0  0  0  0  0  3  0  0  0  0  0  0
  193.0140  171.8500  144.6450 O   0  0  0  0  0  0  0  0  0  0  0  0
  192.9970  172.6990  143.7120 C   0  0  0  0  0  0  0  0  0  0  0  0
  194.2160  173.0590  143.0540 N   0  0  0  0  0  2  0  0  0  0  0  0
  195.4560  172.5390  143.4570 N   0  0  0  0  0  2  0  0  0  0  0  0
  196.4820  173.1370  142.6130 C   0  0  0  0  0  2  0  0  0  0  0  0
  196.2360  174.6390  142.4450 C   0  0  2  0  0  3  0  0  0  0  0  0
  194.5620  174.6450  139.4230 C   0  0  0  0  0  0  0  0  0  0  0  0
  193.4700  174.7080  138.8020 O   0  0  0  0  0  0  0  0  0  0  0  0
  196.6910  173.9870  140.0000 C   0  0  1  0  0  3  0  0  0  0  0  0
  196.1960  175.0790  140.9770 C   0  0  1  0  0  3  0  0  0  0  0  0
  195.6190  173.7940  139.0340 N   0  0  0  0  0  2  0  0  0  0  0  0
  197.9410  174.4650  139.2860 C   0  0  0  0  0  1  0  0  0  0  0  0
  194.8370  175.4150  140.5720 N   0  0  0  0  0  2  0  0  0  0  0  0
  196.9690  176.9160  143.1570 C   0  0  0  0  0  1  0  0  0  0  0  0
  197.2920  175.4340  143.1980 C   0  0  0  0  0  2  0  0  0  0  0  0
  1  2  1  0  0  0  0
  1 23  1  0  0  0  0
  3  4  1  0  0  0  0
  3  2  1  0  0  0  0
  4  5  1  0  0  0  0
  5  6  1  0  0  0  0
  6  8  2  0  0  0  0
  8  7  1  0  0  0  0
  9 17  1  0  0  0  0
 10  8  1  0  0  0  0
 10 11  1  0  0  0  0
 11  9  2  0  0  0  0
 12 13  1  0  0  0  0
 12 17  1  0  0  0  0
 13 20  1  0  0  0  0
 14 21  2  0  0  0  0
 14 15  1  0  0  0  0
 15 11  1  0  0  0  0
 15 12  2  0  0  0  0
 17 22  2  0  0  0  0
 18 19  1  0  0  0  0
 18 13  2  0  0  0  0
 20 16  2  0  0  0  0
 21 18  1  0  0  0  0
 22 16  1  0  0  0  0
 23 28  1  0  0  0  0
 24 29  1  0  0  0  0
 25 26  2  0  0  0  0
 25 28  1  0  0  0  0
 26 27  1  0  0  0  0
 27 31  1  0  0  0  0
 27 29  2  0  0  0  0
 28 24  2  0  0  0  0
 31 30  2  0  0  0  0
 32 33  1  0  0  0  0
 32 31  1  0  0  0  0
 34 33  1  0  0  0  0
 35 34  1  6  0  0  0
 35 44  1  0  0  0  0
 36 42  1  0  0  0  0
 37 36  2  0  0  0  0
 38 41  1  6  0  0  0
 38 39  1  0  0  0  0
 39 35  1  1  0  0  0
 40 36  1  0  0  0  0
 40 38  1  0  0  0  0
 42 39  1  0  0  0  0
 43 44  1  0  0  0  0
M  END
>  <MODEL>
6

>  <REMARK>
 VINA RESULT:      -6.6      3.030      4.970
  Name = 
  14 active torsions:
  status: ('A' for Active; 'I' for Inactive)
    1  A    between atoms: C_5  and  C_12
    2  A    between atoms: C_5  and  N_31
    3  A    between atoms: N_8  and  C_33
    4  A    between atoms: C_11  and  C_44
    5  A    between atoms: C_18  and  N_27
    6  A    between atoms: C_18  and  C_44
    7  A    between atoms: C_19  and  C_44
    8  A    between atoms: C_21  and  C_29
    9  A    between atoms: N_27  and  N_34
   10  A    between atoms: N_31  and  C_38
   11  A    between atoms: C_35  and  C_42
   12  A    between atoms: C_37  and  C_38
   13  A    between atoms: C_37  and  N_40
   14  A    between atoms: N_40  and  C_42
                            x       y       z     vdW  Elec       q    Type
                         _______ _______ _______ _____ _____    ______ ____

>  <TORSDO>
F 14

$$$$
=
 OpenBabel11042415273D

 44 48  0  0  1  0  0  0  0  0999 V2000
  188.5620  176.9010  146.6480 N   0  0  0  0  0  2  0  0  0  0  0  0
  187.6980  177.8860  147.2710 C   0  0  0  0  0  2  0  0  0  0  0  0
  186.3470  177.2630  147.5640 C   0  0  0  0  0  2  0  0  0  0  0  0
  185.3300  177.8810  146.7310 N   0  0  0  0  0  2  0  0  0  0  0  0
  185.2310  177.0930  145.5120 C   0  0  0  0  0  2  0  0  0  0  0  0
  184.6700  177.9320  144.4090 C   0  0  0  0  0  3  0  0  0  0  0  0
  184.3740  178.6510  142.1140 C   0  0  0  0  0  1  0  0  0  0  0  0
  185.0020  177.7580  143.1290 C   0  0  0  0  0  0  0  0  0  0  0  0
  188.0300  177.9070  143.2550 N   0  0  0  0  0  0  0  0  0  0  0  0
  185.9530  176.7470  142.7610 N   0  0  0  0  0  2  0  0  0  0  0  0
  187.3780  176.8380  142.8600 C   0  0  0  0  0  0  0  0  0  0  0  0
  189.5230  176.2710  142.7170 C   0  0  0  0  0  0  0  0  0  0  0  0
  190.6950  175.5920  142.4960 C   0  0  0  0  0  0  0  0  0  0  0  0
  188.1390  174.4970  142.0370 N   0  0  0  0  0  0  0  0  0  0  0  0
  188.3050  175.7620  142.5020 C   0  0  0  0  0  0  0  0  0  0  0  0
  191.8160  177.6340  143.2470 C   0  0  0  0  0  3  0  0  0  0  0  0
  189.4140  177.5400  143.1660 C   0  0  0  0  0  0  0  0  0  0  0  0
  190.5700  174.2710  142.0140 C   0  0  0  0  0  0  0  0  0  0  0  0
  192.0070  173.2570  141.6770 S   0  0  0  0  0  1  0  0  0  0  0  0
  191.8870  176.2940  142.7710 C   0  0  0  0  0  3  0  0  0  0  0  0
  189.2640  173.7420  141.7900 C   0  0  0  0  0  3  0  0  0  0  0  0
  190.5650  178.2770  143.4490 C   0  0  0  0  0  3  0  0  0  0  0  0
  189.9270  177.2910  146.9560 C   0  0  0  0  0  2  0  0  0  0  0  0
  190.3700  175.0140  146.0190 C   0  0  0  0  0  3  0  0  0  0  0  0
  192.2400  176.3710  146.7400 C   0  0  0  0  0  3  0  0  0  0  0  0
  193.1230  175.3570  146.3610 C   0  0  0  0  0  3  0  0  0  0  0  0
  192.6360  174.1630  145.8070 C   0  0  0  0  0  0  0  0  0  0  0  0
  190.8630  176.1980  146.5750 C   0  0  0  0  0  0  0  0  0  0  0  0
  191.2530  173.9980  145.6380 C   0  0  0  0  0  3  0  0  0  0  0  0
  193.1200  172.0150  144.9260 O   0  0  0  0  0  0  0  0  0  0  0  0
  193.5660  173.0960  145.3990 C   0  0  0  0  0  0  0  0  0  0  0  0
  194.9780  173.2810  145.5400 N   0  0  0  0  0  2  0  0  0  0  0  0
  195.8930  172.2640  145.2260 N   0  0  0  0  0  2  0  0  0  0  0  0
  197.1950  172.8880  145.0260 C   0  0  0  0  0  2  0  0  0  0  0  0
  197.5680  172.8940  143.5410 C   0  0  2  0  0  3  0  0  0  0  0  0
  196.0520  175.9970  143.6030 C   0  0  0  0  0  0  0  0  0  0  0  0
  195.6520  176.9830  144.2740 O   0  0  0  0  0  0  0  0  0  0  0  0
  196.1000  174.3420  142.0050 C   0  0  1  0  0  3  0  0  0  0  0  0
  197.3720  174.2640  142.8800 C   0  0  1  0  0  3  0  0  0  0  0  0
  195.3370  175.4780  142.5020 N   0  0  0  0  0  2  0  0  0  0  0  0
  196.4870  174.5800  140.5580 C   0  0  0  0  0  1  0  0  0  0  0  0
  197.2520  175.3130  143.8850 N   0  0  0  0  0  2  0  0  0  0  0  0
  197.7050  170.9090  142.0350 C   0  0  0  0  0  1  0  0  0  0  0  0
  196.7730  171.8360  142.7920 C   0  0  0  0  0  2  0  0  0  0  0  0
  1 23  1  0  0  0  0
  1  2  1  0  0  0  0
  2  3  1  0  0  0  0
  4  3  1  0  0  0  0
  5  4  1  0  0  0  0
  6  5  1  0  0  0  0
  7  8  1  0  0  0  0
  8  6  2  0  0  0  0
 10 11  1  0  0  0  0
 10  8  1  0  0  0  0
 11  9  2  0  0  0  0
 12 17  1  0  0  0  0
 13 12  1  0  0  0  0
 13 20  1  0  0  0  0
 14 15  1  0  0  0  0
 15 12  2  0  0  0  0
 15 11  1  0  0  0  0
 16 22  1  0  0  0  0
 17  9  1  0  0  0  0
 17 22  2  0  0  0  0
 18 13  2  0  0  0  0
 19 18  1  0  0  0  0
 20 16  2  0  0  0  0
 21 18  1  0  0  0  0
 21 14  2  0  0  0  0
 24 28  1  0  0  0  0
 26 25  1  0  0  0  0
 27 26  2  0  0  0  0
 28 25  2  0  0  0  0
 28 23  1  0  0  0  0
 29 27  1  0  0  0  0
 29 24  2  0  0  0  0
 30 31  2  0  0  0  0
 31 32  1  0  0  0  0
 31 27  1  0  0  0  0
 33 32  1  0  0  0  0
 34 33  1  0  0  0  0
 35 44  1  6  0  0  0
 35 34  1  0  0  0  0
 36 42  1  0  0  0  0
 36 37  2  0  0  0  0
 38 41  1  6  0  0  0
 38 40  1  0  0  0  0
 38 39  1  0  0  0  0
 39 35  1  1  0  0  0
 39 42  1  0  0  0  0
 40 36  1  0  0  0  0
 43 44  1  0  0  0  0
M  END
>  <MODEL>
7

>  <REMARK>
 VINA RESULT:      -6.5      2.048      3.668
  Name = 
  14 active torsions:
  status: ('A' for Active; 'I' for Inactive)
    1  A    between atoms: C_5  and  C_12
    2  A    between atoms: C_5  and  N_31
    3  A    between atoms: N_8  and  C_33
    4  A    between atoms: C_11  and  C_44
    5  A    between atoms: C_18  and  N_27
    6  A    between atoms: C_18  and  C_44
    7  A    between atoms: C_19  and  C_44
    8  A    between atoms: C_21  and  C_29
    9  A    between atoms: N_27  and  N_34
   10  A    between atoms: N_31  and  C_38
   11  A    between atoms: C_35  and  C_42
   12  A    between atoms: C_37  and  C_38
   13  A    between atoms: C_37  and  N_40
   14  A    between atoms: N_40  and  C_42
                            x       y       z     vdW  Elec       q    Type
                         _______ _______ _______ _____ _____    ______ ____

>  <TORSDO>
F 14

$$$$
=
 OpenBabel11042415273D

 44 48  0  0  1  0  0  0  0  0999 V2000
  187.9050  175.8140  140.8340 N   0  0  0  0  0  2  0  0  0  0  0  0
  187.6110  177.2300  140.9540 C   0  0  0  0  0  2  0  0  0  0  0  0
  186.3400  177.5510  140.1910 C   0  0  0  0  0  2  0  0  0  0  0  0
  185.4000  178.2290  141.0670 N   0  0  0  0  0  2  0  0  0  0  0  0
  185.0850  177.3150  142.1550 C   0  0  0  0  0  2  0  0  0  0  0  0
  184.5340  178.0790  143.3160 C   0  0  0  0  0  3  0  0  0  0  0  0
  184.6470  179.4170  145.3320 C   0  0  0  0  0  1  0  0  0  0  0  0
  185.3090  178.6780  144.2190 C   0  0  0  0  0  0  0  0  0  0  0  0
  187.1850  176.8910  145.7970 N   0  0  0  0  0  0  0  0  0  0  0  0
  186.7390  178.5890  144.1170 N   0  0  0  0  0  2  0  0  0  0  0  0
  187.5940  177.7110  144.8570 C   0  0  0  0  0  0  0  0  0  0  0  0
  189.4480  176.7220  145.5820 C   0  0  0  0  0  0  0  0  0  0  0  0
  190.7550  176.3470  145.7710 C   0  0  0  0  0  0  0  0  0  0  0  0
  189.9340  178.2710  143.8820 N   0  0  0  0  0  0  0  0  0  0  0  0
  189.0480  177.6340  144.6900 C   0  0  0  0  0  0  0  0  0  0  0  0
  189.8930  174.8500  147.5050 C   0  0  0  0  0  3  0  0  0  0  0  0
  188.3820  176.2500  146.2620 C   0  0  0  0  0  0  0  0  0  0  0  0
  191.7120  176.9820  144.9490 C   0  0  0  0  0  0  0  0  0  0  0  0
  193.4560  176.5990  145.0750 S   0  0  0  0  0  1  0  0  0  0  0  0
  190.9910  175.3750  146.7650 C   0  0  0  0  0  3  0  0  0  0  0  0
  191.2680  177.9530  144.0020 C   0  0  0  0  0  3  0  0  0  0  0  0
  188.5640  175.2890  147.2590 C   0  0  0  0  0  3  0  0  0  0  0  0
  187.6800  175.2300  142.1450 C   0  0  0  0  0  2  0  0  0  0  0  0
  188.5630  172.9760  142.7760 C   0  0  0  0  0  3  0  0  0  0  0  0
  190.1170  174.8120  142.5030 C   0  0  0  0  0  3  0  0  0  0  0  0
  191.1810  173.9580  142.8070 C   0  0  0  0  0  3  0  0  0  0  0  0
  190.9440  172.6060  143.0970 C   0  0  0  0  0  0  0  0  0  0  0  0
  188.8080  174.3240  142.4940 C   0  0  0  0  0  0  0  0  0  0  0  0
  189.6280  172.1200  143.0790 C   0  0  0  0  0  3  0  0  0  0  0  0
  192.2070  170.6270  142.7640 O   0  0  0  0  0  0  0  0  0  0  0  0
  192.0640  171.7020  143.4080 C   0  0  0  0  0  0  0  0  0  0  0  0
  192.9920  172.0380  144.4450 N   0  0  0  0  0  2  0  0  0  0  0  0
  194.0320  171.1730  144.8180 N   0  0  0  0  0  2  0  0  0  0  0  0
  195.1630  171.4380  143.9380 C   0  0  0  0  0  2  0  0  0  0  0  0
  195.8900  172.7170  144.3620 C   0  0  2  0  0  3  0  0  0  0  0  0
  196.5820  175.8300  143.0350 C   0  0  0  0  0  0  0  0  0  0  0  0
  197.0290  176.9940  143.2040 O   0  0  0  0  0  0  0  0  0  0  0  0
  195.2350  174.1130  142.3050 C   0  0  1  0  0  3  0  0  0  0  0  0
  196.3840  173.5470  143.1720 C   0  0  1  0  0  3  0  0  0  0  0  0
  195.4490  175.5510  142.2400 N   0  0  0  0  0  2  0  0  0  0  0  0
  195.3070  173.5230  140.9090 C   0  0  0  0  0  1  0  0  0  0  0  0
  197.1660  174.6910  143.6240 N   0  0  0  0  0  2  0  0  0  0  0  0
  197.9400  171.3240  144.6540 C   0  0  0  0  0  1  0  0  0  0  0  0
  197.0540  172.3830  145.2830 C   0  0  0  0  0  2  0  0  0  0  0  0
  1  2  1  0  0  0  0
  1 23  1  0  0  0  0
  3  2  1  0  0  0  0
  3  4  1  0  0  0  0
  4  5  1  0  0  0  0
  5  6  1  0  0  0  0
  6  8  2  0  0  0  0
  8  7  1  0  0  0  0
  9 17  1  0  0  0  0
 10  8  1  0  0  0  0
 10 11  1  0  0  0  0
 11  9  2  0  0  0  0
 12 13  1  0  0  0  0
 12 17  1  0  0  0  0
 13 20  1  0  0  0  0
 14 21  2  0  0  0  0
 14 15  1  0  0  0  0
 15 11  1  0  0  0  0
 15 12  2  0  0  0  0
 17 22  2  0  0  0  0
 18 19  1  0  0  0  0
 18 13  2  0  0  0  0
 20 16  2  0  0  0  0
 21 18  1  0  0  0  0
 22 16  1  0  0  0  0
 23 28  1  0  0  0  0
 24 29  1  0  0  0  0
 25 26  2  0  0  0  0
 26 27  1  0  0  0  0
 27 31  1  0  0  0  0
 28 25  1  0  0  0  0
 28 24  2  0  0  0  0
 29 27  2  0  0  0  0
 30 31  2  0  0  0  0
 31 32  1  0  0  0  0
 32 33  1  0  0  0  0
 34 33  1  0  0  0  0
 35 34  1  6  0  0  0
 35 44  1  0  0  0  0
 36 37  2  0  0  0  0
 36 42  1  0  0  0  0
 38 41  1  6  0  0  0
 38 39  1  0  0  0  0
 39 42  1  0  0  0  0
 39 35  1  1  0  0  0
 40 38  1  0  0  0  0
 40 36  1  0  0  0  0
 43 44  1  0  0  0  0
M  END
>  <MODEL>
8

>  <REMARK>
 VINA RESULT:      -6.4      2.224      4.573
  Name = 
  14 active torsions:
  status: ('A' for Active; 'I' for Inactive)
    1  A    between atoms: C_5  and  C_12
    2  A    between atoms: C_5  and  N_31
    3  A    between atoms: N_8  and  C_33
    4  A    between atoms: C_11  and  C_44
    5  A    between atoms: C_18  and  N_27
    6  A    between atoms: C_18  and  C_44
    7  A    between atoms: C_19  and  C_44
    8  A    between atoms: C_21  and  C_29
    9  A    between atoms: N_27  and  N_34
   10  A    between atoms: N_31  and  C_38
   11  A    between atoms: C_35  and  C_42
   12  A    between atoms: C_37  and  C_38
   13  A    between atoms: C_37  and  N_40
   14  A    between atoms: N_40  and  C_42
                            x       y       z     vdW  Elec       q    Type
                         _______ _______ _______ _____ _____    ______ ____

>  <TORSDO>
F 14

$$$$
=
 OpenBabel11042415273D

 44 48  0  0  1  0  0  0  0  0999 V2000
  195.4870  174.2980  143.3890 N   0  0  0  0  0  2  0  0  0  0  0  0
  196.8040  173.7770  143.7020 C   0  0  0  0  0  2  0  0  0  0  0  0
  197.2080  174.2200  145.0950 C   0  0  0  0  0  2  0  0  0  0  0  0
  196.9450  173.1520  146.0440 N   0  0  0  0  0  2  0  0  0  0  0  0
  197.2150  171.8930  145.3670 C   0  0  0  0  0  2  0  0  0  0  0  0
  196.4860  170.7810  146.0500 C   0  0  0  0  0  3  0  0  0  0  0  0
  194.7800  169.0780  146.2870 C   0  0  0  0  0  1  0  0  0  0  0  0
  195.4230  170.1790  145.5160 C   0  0  0  0  0  0  0  0  0  0  0  0
  192.7860  171.5570  144.9230 N   0  0  0  0  0  0  0  0  0  0  0  0
  194.9160  170.6060  144.2420 N   0  0  0  0  0  2  0  0  0  0  0  0
  193.6770  171.2820  143.9990 C   0  0  0  0  0  0  0  0  0  0  0  0
  192.0210  172.2770  142.9000 C   0  0  0  0  0  0  0  0  0  0  0  0
  191.2280  172.8180  141.9190 C   0  0  0  0  0  0  0  0  0  0  0  0
  193.7550  171.6670  141.4330 N   0  0  0  0  0  0  0  0  0  0  0  0
  193.2210  171.7280  142.6800 C   0  0  0  0  0  0  0  0  0  0  0  0
  189.6310  173.2870  143.7130 C   0  0  0  0  0  3  0  0  0  0  0  0
  191.7190  172.2020  144.2130 C   0  0  0  0  0  0  0  0  0  0  0  0
  191.7450  172.7800  140.6050 C   0  0  0  0  0  0  0  0  0  0  0  0
  190.8290  173.4450  139.2190 S   0  0  0  0  0  1  0  0  0  0  0  0
  189.9880  173.3450  142.3360 C   0  0  0  0  0  3  0  0  0  0  0  0
  193.0260  172.1900  140.3880 C   0  0  0  0  0  3  0  0  0  0  0  0
  190.5010  172.7070  144.6750 C   0  0  0  0  0  3  0  0  0  0  0  0
  195.3560  175.5570  144.1020 C   0  0  0  0  0  2  0  0  0  0  0  0
  192.9790  176.3360  144.0740 C   0  0  0  0  0  3  0  0  0  0  0  0
  193.7600  175.0120  145.9440 C   0  0  0  0  0  3  0  0  0  0  0  0
  192.4870  175.0750  146.5210 C   0  0  0  0  0  3  0  0  0  0  0  0
  191.4510  175.7690  145.8770 C   0  0  0  0  0  0  0  0  0  0  0  0
  194.0080  175.6470  144.7250 C   0  0  0  0  0  0  0  0  0  0  0  0
  191.7060  176.3990  144.6500 C   0  0  0  0  0  3  0  0  0  0  0  0
  189.8990  175.3200  147.6140 O   0  0  0  0  0  0  0  0  0  0  0  0
  190.1080  175.8290  146.4780 C   0  0  0  0  0  0  0  0  0  0  0  0
  189.0340  176.4610  145.7740 N   0  0  0  0  0  2  0  0  0  0  0  0
  187.7260  176.4800  146.2810 N   0  0  0  0  0  2  0  0  0  0  0  0
  187.0940  177.7140  145.8310 C   0  0  0  0  0  2  0  0  0  0  0  0
  186.2130  177.4540  144.6060 C   0  0  2  0  0  3  0  0  0  0  0  0
  185.8840  177.9960  141.2100 C   0  0  0  0  0  0  0  0  0  0  0  0
  185.1280  178.1810  140.2220 O   0  0  0  0  0  0  0  0  0  0  0  0
  187.6380  177.2170  142.4790 C   0  0  1  0  0  3  0  0  0  0  0  0
  186.7370  178.1360  143.3370 C   0  0  1  0  0  3  0  0  0  0  0  0
  187.0520  177.2070  141.1470 N   0  0  0  0  0  2  0  0  0  0  0  0
  189.0420  177.7890  142.4150 C   0  0  0  0  0  1  0  0  0  0  0  0
  185.6360  178.5570  142.4800 N   0  0  0  0  0  2  0  0  0  0  0  0
  184.7660  179.0640  145.8470 C   0  0  0  0  0  1  0  0  0  0  0  0
  184.7840  177.8940  144.8810 C   0  0  0  0  0  2  0  0  0  0  0  0
  1  2  1  0  0  0  0
  1 23  1  0  0  0  0
  2  3  1  0  0  0  0
  3  4  1  0  0  0  0
  5  4  1  0  0  0  0
  5  6  1  0  0  0  0
  8  6  2  0  0  0  0
  8  7  1  0  0  0  0
 10  8  1  0  0  0  0
 11 10  1  0  0  0  0
 11  9  2  0  0  0  0
 12 17  1  0  0  0  0
 13 20  1  0  0  0  0
 13 12  1  0  0  0  0
 14 15  1  0  0  0  0
 15 12  2  0  0  0  0
 15 11  1  0  0  0  0
 16 22  1  0  0  0  0
 17 22  2  0  0  0  0
 17  9  1  0  0  0  0
 18 13  2  0  0  0  0
 19 18  1  0  0  0  0
 20 16  2  0  0  0  0
 21 18  1  0  0  0  0
 21 14  2  0  0  0  0
 23 28  1  0  0  0  0
 24 29  2  0  0  0  0
 24 28  1  0  0  0  0
 25 26  1  0  0  0  0
 27 31  1  0  0  0  0
 27 26  2  0  0  0  0
 28 25  2  0  0  0  0
 29 27  1  0  0  0  0
 31 30  2  0  0  0  0
 32 33  1  0  0  0  0
 32 31  1  0  0  0  0
 34 33  1  0  0  0  0
 35 44  1  1  0  0  0
 35 34  1  0  0  0  0
 36 42  1  0  0  0  0
 37 36  2  0  0  0  0
 38 41  1  6  0  0  0
 38 39  1  0  0  0  0
 39 35  1  1  0  0  0
 40 36  1  0  0  0  0
 40 38  1  0  0  0  0
 42 39  1  0  0  0  0
 44 43  1  0  0  0  0
M  END
>  <MODEL>
9

>  <REMARK>
 VINA RESULT:      -6.4      2.666      9.410
  Name = 
  14 active torsions:
  status: ('A' for Active; 'I' for Inactive)
    1  A    between atoms: C_5  and  C_12
    2  A    between atoms: C_5  and  N_31
    3  A    between atoms: N_8  and  C_33
    4  A    between atoms: C_11  and  C_44
    5  A    between atoms: C_18  and  N_27
    6  A    between atoms: C_18  and  C_44
    7  A    between atoms: C_19  and  C_44
    8  A    between atoms: C_21  and  C_29
    9  A    between atoms: N_27  and  N_34
   10  A    between atoms: N_31  and  C_38
   11  A    between atoms: C_35  and  C_42
   12  A    between atoms: C_37  and  C_38
   13  A    between atoms: C_37  and  N_40
   14  A    between atoms: N_40  and  C_42
                            x       y       z     vdW  Elec       q    Type
                         _______ _______ _______ _____ _____    ______ ____

>  <TORSDO>
F 14

$$$$
