=
 OpenBabel11042416103D

 34 38  0  0  1  0  0  0  0  0999 V2000
  191.7400  175.2690  144.1850 C   0  0  1  0  0  0  0  0  0  0  0  0
  189.5990  175.8870  142.9150 C   0  0  0  0  0  3  0  0  0  0  0  0
  193.1180  175.4050  146.1910 C   0  0  0  0  0  2  0  0  0  0  0  0
  191.7770  176.6510  144.4880 O   0  0  0  0  0  0  0  0  0  0  0  0
  193.1100  174.6560  143.8660 C   0  0  1  0  0  3  0  0  0  0  0  0
  191.7780  175.7550  145.5780 C   0  0  1  0  0  0  0  0  0  0  0  0
  188.6870  176.6840  143.4870 C   0  0  0  0  0  0  0  0  0  0  0  0
  190.1390  176.7960  146.7640 C   0  0  0  0  0  2  0  0  0  0  0  0
  190.5740  175.5540  146.2740 O   0  0  0  0  0  0  0  0  0  0  0  0
  190.3700  174.8020  143.6170 C   0  0  1  0  0  3  0  0  0  0  0  0
  194.8070  176.1250  144.6710 O   0  0  0  0  0  1  0  0  0  0  0  0
  188.3850  176.5850  144.9540 C   0  0  0  0  0  2  0  0  0  0  0  0
  194.0250  175.0260  145.0280 C   0  0  1  0  0  3  0  0  0  0  0  0
  189.2850  177.5360  145.7330 C   0  0  0  0  0  2  0  0  0  0  0  0
  193.0270  173.2630  143.8110 O   0  0  0  0  0  1  0  0  0  0  0  0
  190.2140  171.1610  142.4190 C   0  0  0  0  0  3  0  0  0  0  0  0
  190.5630  171.3230  141.0760 C   0  0  0  0  0  0  0  0  0  0  0  0
  190.1390  172.2660  143.2720 C   0  0  0  0  0  0  0  0  0  0  0  0
  190.8390  172.6030  140.5760 C   0  0  0  0  0  0  0  0  0  0  0  0
  190.6310  170.2080  140.2490 O   0  0  0  0  0  1  0  0  0  0  0  0
  190.4190  173.5590  142.7700 C   0  0  0  0  0  0  0  0  0  0  0  0
  190.7670  173.7100  141.4240 C   0  0  0  0  0  3  0  0  0  0  0  0
  191.2130  172.8030  139.1480 C   0  0  0  0  0  1  0  0  0  0  0  0
  189.7540  172.0320  144.6940 C   0  0  0  0  0  1  0  0  0  0  0  0
  188.0020  177.7310  142.6830 C   0  0  0  0  0  0  0  0  0  0  0  0
  188.7030  178.4600  141.9280 O   0  0  0  0  0  0  0  0  0  0  0  0
  183.8170  178.9460  145.5680 Cl  0  0  0  0  0  0  0  0  0  0  0  0
  185.7290  177.8720  141.5820 C   0  0  0  0  0  0  0  0  0  0  0  0
  184.5500  178.5390  144.0320 C   0  0  0  0  0  0  0  0  0  0  0  0
  186.2790  177.5320  140.3510 O   0  0  0  0  0  1  0  0  0  0  0  0
  184.3530  178.1130  141.6620 C   0  0  0  0  0  3  0  0  0  0  0  0
  185.9240  178.3040  143.9580 C   0  0  0  0  0  3  0  0  0  0  0  0
  186.5330  177.9610  142.7400 C   0  0  0  0  0  0  0  0  0  0  0  0
  183.7650  178.4440  142.8840 C   0  0  0  0  0  3  0  0  0  0  0  0
  1  4  1  6  0  0  0
  1  6  1  0  0  0  0
  2  7  2  0  0  0  0
  2 10  1  0  0  0  0
  4  6  1  0  0  0  0
  5 15  1  1  0  0  0
  5  1  1  0  0  0  0
  5 13  1  0  0  0  0
  6  3  1  1  0  0  0
  6  9  1  0  0  0  0
  7 12  1  0  0  0  0
  9  8  1  0  0  0  0
 10 21  1  6  0  0  0
 10  1  1  0  0  0  0
 12 14  1  0  0  0  0
 13 11  1  6  0  0  0
 13  3  1  0  0  0  0
 14  8  1  0  0  0  0
 16 18  1  0  0  0  0
 17 16  2  0  0  0  0
 18 24  1  0  0  0  0
 19 17  1  0  0  0  0
 19 22  2  0  0  0  0
 20 17  1  0  0  0  0
 21 18  2  0  0  0  0
 22 21  1  0  0  0  0
 23 19  1  0  0  0  0
 25 33  1  0  0  0  0
 25  7  1  0  0  0  0
 26 25  2  0  0  0  0
 28 31  2  0  0  0  0
 28 33  1  0  0  0  0
 29 27  1  0  0  0  0
 30 28  1  0  0  0  0
 31 34  1  0  0  0  0
 32 29  1  0  0  0  0
 33 32  2  0  0  0  0
 34 29  2  0  0  0  0
M  END
>  <MODEL>
1

>  <REMARK>
 VINA RESULT:      -8.8      0.000      0.000
  Name = 
  3 active torsions:
  status: ('A' for Active; 'I' for Inactive)
    1  A    between atoms: C_8  and  C_24
    2  A    between atoms: C_19  and  C_27
    3  A    between atoms: C_24  and  C_30
                            x       y       z     vdW  Elec       q    Type
                         _______ _______ _______ _____ _____    ______ ____

>  <TORSDO>
F 3

$$$$
=
 OpenBabel11042416103D

 34 38  0  0  1  0  0  0  0  0999 V2000
  192.0820  175.2310  143.5940 C   0  0  1  0  0  0  0  0  0  0  0  0
  189.7780  175.8390  144.5440 C   0  0  0  0  0  3  0  0  0  0  0  0
  194.4420  174.7270  143.9400 C   0  0  0  0  0  2  0  0  0  0  0  0
  192.5360  176.2660  144.4460 O   0  0  0  0  0  0  0  0  0  0  0  0
  192.7690  175.1950  142.2230 C   0  0  1  0  0  3  0  0  0  0  0  0
  193.1150  174.9910  144.6210 C   0  0  1  0  0  0  0  0  0  0  0  0
  189.6230  176.0220  145.8620 C   0  0  0  0  0  0  0  0  0  0  0  0
  192.8770  174.9130  146.8820 C   0  0  0  0  0  2  0  0  0  0  0  0
  192.6650  174.1990  145.6920 O   0  0  0  0  0  0  0  0  0  0  0  0
  190.6290  174.7750  143.9060 C   0  0  1  0  0  3  0  0  0  0  0  0
  194.7820  176.4660  142.3460 O   0  0  0  0  0  1  0  0  0  0  0  0
  190.3610  175.1690  146.8520 C   0  0  0  0  0  2  0  0  0  0  0  0
  194.2680  175.1780  142.4960 C   0  0  1  0  0  3  0  0  0  0  0  0
  191.6910  175.8220  147.2080 C   0  0  0  0  0  2  0  0  0  0  0  0
  192.4430  174.0220  141.5380 O   0  0  0  0  0  1  0  0  0  0  0  0
  189.1830  172.2280  141.4280 C   0  0  0  0  0  3  0  0  0  0  0  0
  188.5020  173.0820  140.5570 C   0  0  0  0  0  0  0  0  0  0  0  0
  189.8810  172.7400  142.5260 C   0  0  0  0  0  0  0  0  0  0  0  0
  188.5170  174.4660  140.7840 C   0  0  0  0  0  0  0  0  0  0  0  0
  187.8170  172.5480  139.4730 O   0  0  0  0  0  1  0  0  0  0  0  0
  189.8990  174.1360  142.7560 C   0  0  0  0  0  0  0  0  0  0  0  0
  189.2140  174.9830  141.8780 C   0  0  0  0  0  3  0  0  0  0  0  0
  187.8000  175.3990  139.8710 C   0  0  0  0  0  1  0  0  0  0  0  0
  190.5820  171.7780  143.4240 C   0  0  0  0  0  1  0  0  0  0  0  0
  188.7610  177.1240  146.3660 C   0  0  0  0  0  0  0  0  0  0  0  0
  189.1900  177.8320  147.3180 O   0  0  0  0  0  0  0  0  0  0  0  0
  185.9320  178.9070  142.3500 Cl  0  0  0  0  0  0  0  0  0  0  0  0
  186.2370  177.1450  146.5330 C   0  0  0  0  0  0  0  0  0  0  0  0
  186.0460  178.2240  143.9560 C   0  0  0  0  0  0  0  0  0  0  0  0
  186.2960  176.6200  147.8190 O   0  0  0  0  0  1  0  0  0  0  0  0
  184.9850  177.4150  145.9710 C   0  0  0  0  0  3  0  0  0  0  0  0
  187.2990  177.9530  144.5100 C   0  0  0  0  0  3  0  0  0  0  0  0
  187.4150  177.4190  145.8040 C   0  0  0  0  0  0  0  0  0  0  0  0
  184.8890  177.9540  144.6860 C   0  0  0  0  0  3  0  0  0  0  0  0
  1 10  1  0  0  0  0
  1  4  1  1  0  0  0
  1  6  1  0  0  0  0
  2  7  2  0  0  0  0
  4  6  1  0  0  0  0
  5 15  1  1  0  0  0
  5 13  1  0  0  0  0
  5  1  1  0  0  0  0
  6  3  1  6  0  0  0
  6  9  1  0  0  0  0
  7 25  1  0  0  0  0
  7 12  1  0  0  0  0
  8 14  1  0  0  0  0
  9  8  1  0  0  0  0
 10 21  1  6  0  0  0
 10  2  1  0  0  0  0
 12 14  1  0  0  0  0
 13 11  1  1  0  0  0
 13  3  1  0  0  0  0
 16 18  1  0  0  0  0
 17 19  1  0  0  0  0
 17 16  2  0  0  0  0
 18 21  2  0  0  0  0
 18 24  1  0  0  0  0
 19 22  2  0  0  0  0
 20 17  1  0  0  0  0
 22 21  1  0  0  0  0
 23 19  1  0  0  0  0
 25 26  2  0  0  0  0
 27 29  1  0  0  0  0
 28 30  1  0  0  0  0
 29 32  2  0  0  0  0
 29 34  1  0  0  0  0
 31 28  1  0  0  0  0
 32 33  1  0  0  0  0
 33 25  1  0  0  0  0
 33 28  2  0  0  0  0
 34 31  2  0  0  0  0
M  END
>  <MODEL>
2

>  <REMARK>
 VINA RESULT:      -8.4      2.198      3.076
  Name = 
  3 active torsions:
  status: ('A' for Active; 'I' for Inactive)
    1  A    between atoms: C_8  and  C_24
    2  A    between atoms: C_19  and  C_27
    3  A    between atoms: C_24  and  C_30
                            x       y       z     vdW  Elec       q    Type
                         _______ _______ _______ _____ _____    ______ ____

>  <TORSDO>
F 3

$$$$
=
 OpenBabel11042416103D

 34 38  0  0  1  0  0  0  0  0999 V2000
  195.0160  174.8230  143.7130 C   0  0  1  0  0  0  0  0  0  0  0  0
  192.9520  173.5300  144.5160 C   0  0  0  0  0  3  0  0  0  0  0  0
  196.4120  176.8210  143.7760 C   0  0  0  0  0  2  0  0  0  0  0  0
  194.1000  175.8900  143.5640 O   0  0  0  0  0  0  0  0  0  0  0  0
  196.0520  174.7170  142.5870 C   0  0  1  0  0  3  0  0  0  0  0  0
  195.2200  176.1180  144.3920 C   0  0  1  0  0  0  0  0  0  0  0  0
  192.1080  174.0910  145.3920 C   0  0  0  0  0  0  0  0  0  0  0  0
  194.0660  177.0000  146.1430 C   0  0  0  0  0  2  0  0  0  0  0  0
  195.0400  176.0550  145.7850 O   0  0  0  0  0  0  0  0  0  0  0  0
  194.4520  173.6440  144.5550 C   0  0  1  0  0  3  0  0  0  0  0  0
  196.1120  176.7910  141.4110 O   0  0  0  0  0  1  0  0  0  0  0  0
  192.6150  174.9600  146.5060 C   0  0  0  0  0  2  0  0  0  0  0  0
  196.6980  176.0940  142.4690 C   0  0  1  0  0  3  0  0  0  0  0  0
  192.6560  176.4140  146.0500 C   0  0  0  0  0  2  0  0  0  0  0  0
  197.0530  173.8020  142.9200 O   0  0  0  0  0  1  0  0  0  0  0  0
  196.7320  170.5630  144.7090 C   0  0  0  0  0  3  0  0  0  0  0  0
  196.1860  169.7940  143.6780 C   0  0  0  0  0  0  0  0  0  0  0  0
  196.1950  171.8150  145.0230 C   0  0  0  0  0  0  0  0  0  0  0  0
  195.0890  170.2780  142.9520 C   0  0  0  0  0  0  0  0  0  0  0  0
  196.7400  168.5530  143.3850 O   0  0  0  0  0  1  0  0  0  0  0  0
  195.0890  172.3070  144.2910 C   0  0  0  0  0  0  0  0  0  0  0  0
  194.5490  171.5290  143.2620 C   0  0  0  0  0  3  0  0  0  0  0  0
  194.4870  169.4780  141.8500 C   0  0  0  0  0  1  0  0  0  0  0  0
  196.8160  172.5870  146.1380 C   0  0  0  0  0  1  0  0  0  0  0  0
  190.6400  173.9120  145.2330 C   0  0  0  0  0  0  0  0  0  0  0  0
  190.1980  172.7510  145.0170 O   0  0  0  0  0  0  0  0  0  0  0  0
  188.3160  177.9160  142.8090 Cl  0  0  0  0  0  0  0  0  0  0  0  0
  188.9420  175.3100  146.4840 C   0  0  0  0  0  0  0  0  0  0  0  0
  188.5510  176.9120  144.2230 C   0  0  0  0  0  0  0  0  0  0  0  0
  189.1200  174.5410  147.6300 O   0  0  0  0  0  1  0  0  0  0  0  0
  188.0290  176.3680  146.5180 C   0  0  0  0  0  3  0  0  0  0  0  0
  189.4600  175.8540  144.1810 C   0  0  0  0  0  3  0  0  0  0  0  0
  189.6760  175.0440  145.3070 C   0  0  0  0  0  0  0  0  0  0  0  0
  187.8340  177.1690  145.3910 C   0  0  0  0  0  3  0  0  0  0  0  0
  1  4  1  6  0  0  0
  1  6  1  0  0  0  0
  1 10  1  0  0  0  0
  2 10  1  0  0  0  0
  2  7  2  0  0  0  0
  4  6  1  0  0  0  0
  5 15  1  1  0  0  0
  5  1  1  0  0  0  0
  6  3  1  6  0  0  0
  6  9  1  0  0  0  0
  7 12  1  0  0  0  0
  9  8  1  0  0  0  0
 10 21  1  6  0  0  0
 13 11  1  6  0  0  0
 13  5  1  0  0  0  0
 13  3  1  0  0  0  0
 14  8  1  0  0  0  0
 14 12  1  0  0  0  0
 16 18  1  0  0  0  0
 17 16  2  0  0  0  0
 18 24  1  0  0  0  0
 19 22  2  0  0  0  0
 19 17  1  0  0  0  0
 20 17  1  0  0  0  0
 21 18  2  0  0  0  0
 22 21  1  0  0  0  0
 23 19  1  0  0  0  0
 25 33  1  0  0  0  0
 25  7  1  0  0  0  0
 26 25  2  0  0  0  0
 27 29  1  0  0  0  0
 28 31  1  0  0  0  0
 28 30  1  0  0  0  0
 29 34  1  0  0  0  0
 32 29  2  0  0  0  0
 32 33  1  0  0  0  0
 33 28  2  0  0  0  0
 34 31  2  0  0  0  0
M  END
>  <MODEL>
3

>  <REMARK>
 VINA RESULT:      -8.3      3.485      5.184
  Name = 
  3 active torsions:
  status: ('A' for Active; 'I' for Inactive)
    1  A    between atoms: C_8  and  C_24
    2  A    between atoms: C_19  and  C_27
    3  A    between atoms: C_24  and  C_30
                            x       y       z     vdW  Elec       q    Type
                         _______ _______ _______ _____ _____    ______ ____

>  <TORSDO>
F 3

$$$$
=
 OpenBabel11042416103D

 34 38  0  0  1  0  0  0  0  0999 V2000
  189.4730  174.5170  142.8390 C   0  0  1  0  0  0  0  0  0  0  0  0
  191.0520  176.0790  144.1220 C   0  0  0  0  0  3  0  0  0  0  0  0
  188.8640  172.2760  142.0980 C   0  0  0  0  0  2  0  0  0  0  0  0
  190.6740  173.9890  142.3100 O   0  0  0  0  0  0  0  0  0  0  0  0
  188.3350  174.6450  141.8180 C   0  0  1  0  0  3  0  0  0  0  0  0
  189.8090  173.0850  142.9620 C   0  0  1  0  0  0  0  0  0  0  0  0
  192.1370  175.5830  144.7320 C   0  0  0  0  0  0  0  0  0  0  0  0
  191.3970  172.1050  144.2630 C   0  0  0  0  0  2  0  0  0  0  0  0
  190.1230  172.6950  144.2750 O   0  0  0  0  0  0  0  0  0  0  0  0
  189.6990  175.4240  144.0820 C   0  0  1  0  0  3  0  0  0  0  0  0
  188.8460  173.2770  139.9340 O   0  0  0  0  0  1  0  0  0  0  0  0
  192.0960  174.2470  145.4140 C   0  0  0  0  0  2  0  0  0  0  0  0
  188.1900  173.2750  141.1660 C   0  0  1  0  0  3  0  0  0  0  0  0
  192.5000  173.1520  144.4340 C   0  0  0  0  0  2  0  0  0  0  0  0
  187.1310  174.9460  142.4570 O   0  0  0  0  0  1  0  0  0  0  0  0
  187.4120  178.4970  143.8680 C   0  0  0  0  0  3  0  0  0  0  0  0
  186.5570  178.2510  144.9450 C   0  0  0  0  0  0  0  0  0  0  0  0
  188.4400  177.6020  143.5560 C   0  0  0  0  0  0  0  0  0  0  0  0
  186.7290  177.0960  145.7220 C   0  0  0  0  0  0  0  0  0  0  0  0
  185.5440  179.1570  145.2340 O   0  0  0  0  0  1  0  0  0  0  0  0
  188.6160  176.4370  144.3390 C   0  0  0  0  0  0  0  0  0  0  0  0
  187.7550  176.1990  145.4160 C   0  0  0  0  0  3  0  0  0  0  0  0
  185.8320  176.8090  146.8750 C   0  0  0  0  0  1  0  0  0  0  0  0
  189.3150  177.9150  142.3900 C   0  0  0  0  0  1  0  0  0  0  0  0
  193.4240  176.3260  144.6860 C   0  0  0  0  0  0  0  0  0  0  0  0
  193.4780  177.4660  145.2230 O   0  0  0  0  0  0  0  0  0  0  0  0
  196.1470  175.6670  140.2740 Cl  0  0  0  0  0  0  0  0  0  0  0  0
  195.6550  175.1340  144.7650 C   0  0  0  0  0  0  0  0  0  0  0  0
  195.9630  175.4650  142.0020 C   0  0  0  0  0  0  0  0  0  0  0  0
  195.5280  174.9420  146.1370 O   0  0  0  0  0  1  0  0  0  0  0  0
  196.7990  174.6550  144.1200 C   0  0  0  0  0  3  0  0  0  0  0  0
  194.8210  175.9500  142.6410 C   0  0  0  0  0  3  0  0  0  0  0  0
  194.6440  175.7870  144.0250 C   0  0  0  0  0  0  0  0  0  0  0  0
  196.9530  174.8190  142.7420 C   0  0  0  0  0  3  0  0  0  0  0  0
  1  4  1  6  0  0  0
  1  6  1  0  0  0  0
  1 10  1  0  0  0  0
  2  7  2  0  0  0  0
  4  6  1  0  0  0  0
  5 15  1  1  0  0  0
  5  1  1  0  0  0  0
  6  3  1  6  0  0  0
  6  9  1  0  0  0  0
  7 12  1  0  0  0  0
  8  9  1  0  0  0  0
  8 14  1  0  0  0  0
 10  2  1  0  0  0  0
 10 21  1  6  0  0  0
 13 11  1  6  0  0  0
 13  5  1  0  0  0  0
 13  3  1  0  0  0  0
 14 12  1  0  0  0  0
 16 17  1  0  0  0  0
 17 20  1  0  0  0  0
 17 19  2  0  0  0  0
 18 16  2  0  0  0  0
 18 21  1  0  0  0  0
 19 23  1  0  0  0  0
 21 22  2  0  0  0  0
 22 19  1  0  0  0  0
 24 18  1  0  0  0  0
 25  7  1  0  0  0  0
 25 26  2  0  0  0  0
 27 29  1  0  0  0  0
 28 30  1  0  0  0  0
 29 32  2  0  0  0  0
 29 34  1  0  0  0  0
 31 28  1  0  0  0  0
 32 33  1  0  0  0  0
 33 25  1  0  0  0  0
 33 28  2  0  0  0  0
 34 31  2  0  0  0  0
M  END
>  <MODEL>
4

>  <REMARK>
 VINA RESULT:      -8.0      3.271      7.866
  Name = 
  3 active torsions:
  status: ('A' for Active; 'I' for Inactive)
    1  A    between atoms: C_8  and  C_24
    2  A    between atoms: C_19  and  C_27
    3  A    between atoms: C_24  and  C_30
                            x       y       z     vdW  Elec       q    Type
                         _______ _______ _______ _____ _____    ______ ____

>  <TORSDO>
F 3

$$$$
=
 OpenBabel11042416103D

 34 38  0  0  1  0  0  0  0  0999 V2000
  190.2830  175.7370  145.4010 C   0  0  1  0  0  0  0  0  0  0  0  0
  189.0630  174.5680  143.4720 C   0  0  0  0  0  3  0  0  0  0  0  0
  192.3600  176.4050  146.4900 C   0  0  0  0  0  2  0  0  0  0  0  0
  191.0570  174.5540  145.4260 O   0  0  0  0  0  0  0  0  0  0  0  0
  189.9370  176.2960  146.7870 C   0  0  1  0  0  3  0  0  0  0  0  0
  191.7510  175.7700  145.2560 C   0  0  1  0  0  0  0  0  0  0  0  0
  189.7640  173.9570  142.5070 C   0  0  0  0  0  0  0  0  0  0  0  0
  193.0200  175.0950  143.4920 C   0  0  0  0  0  2  0  0  0  0  0  0
  192.1790  176.1160  143.9620 O   0  0  0  0  0  0  0  0  0  0  0  0
  189.4240  175.8800  144.1130 C   0  0  1  0  0  3  0  0  0  0  0  0
  191.4100  175.3230  148.3890 O   0  0  0  0  0  1  0  0  0  0  0  0
  191.0530  174.5390  142.0020 C   0  0  0  0  0  2  0  0  0  0  0  0
  191.2570  176.4190  147.5400 C   0  0  1  0  0  3  0  0  0  0  0  0
  192.2220  173.9840  142.8070 C   0  0  0  0  0  2  0  0  0  0  0  0
  189.3830  177.5730  146.6810 O   0  0  0  0  0  1  0  0  0  0  0  0
  186.8040  178.6400  143.6310 C   0  0  0  0  0  3  0  0  0  0  0  0
  185.8890  178.2970  144.6300 C   0  0  0  0  0  0  0  0  0  0  0  0
  187.9590  177.8790  143.4320 C   0  0  0  0  0  0  0  0  0  0  0  0
  186.1290  177.1790  145.4410 C   0  0  0  0  0  0  0  0  0  0  0  0
  184.7490  179.0710  144.8070 O   0  0  0  0  0  1  0  0  0  0  0  0
  188.2050  176.7510  144.2510 C   0  0  0  0  0  0  0  0  0  0  0  0
  187.2830  176.4160  145.2470 C   0  0  0  0  0  3  0  0  0  0  0  0
  185.1710  176.7910  146.5130 C   0  0  0  0  0  1  0  0  0  0  0  0
  188.8940  178.2900  142.3450 C   0  0  0  0  0  1  0  0  0  0  0  0
  189.3060  172.6500  141.9650 C   0  0  0  0  0  0  0  0  0  0  0  0
  188.5670  171.9280  142.6880 O   0  0  0  0  0  0  0  0  0  0  0  0
  192.1670  169.3350  139.1120 Cl  0  0  0  0  0  0  0  0  0  0  0  0
  189.1160  172.6940  139.4430 C   0  0  0  0  0  0  0  0  0  0  0  0
  190.9890  170.6230  139.2360 C   0  0  0  0  0  0  0  0  0  0  0  0
  188.1910  173.7310  139.5080 O   0  0  0  0  0  1  0  0  0  0  0  0
  189.4830  172.1960  138.1880 C   0  0  0  0  0  3  0  0  0  0  0  0
  190.6230  171.1130  140.4910 C   0  0  0  0  0  3  0  0  0  0  0  0
  189.6910  172.1560  140.6150 C   0  0  0  0  0  0  0  0  0  0  0  0
  190.4180  171.1640  138.0840 C   0  0  0  0  0  3  0  0  0  0  0  0
  1  4  1  1  0  0  0
  1  5  1  0  0  0  0
  2 10  1  0  0  0  0
  3 13  1  0  0  0  0
  5 15  1  6  0  0  0
  5 13  1  0  0  0  0
  6  1  1  0  0  0  0
  6  4  1  0  0  0  0
  6  3  1  1  0  0  0
  7  2  2  0  0  0  0
  8  9  1  0  0  0  0
  9  6  1  0  0  0  0
 10 21  1  1  0  0  0
 10  1  1  0  0  0  0
 12  7  1  0  0  0  0
 12 14  1  0  0  0  0
 13 11  1  1  0  0  0
 14  8  1  0  0  0  0
 16 17  1  0  0  0  0
 17 20  1  0  0  0  0
 17 19  2  0  0  0  0
 18 16  2  0  0  0  0
 18 21  1  0  0  0  0
 19 23  1  0  0  0  0
 21 22  2  0  0  0  0
 22 19  1  0  0  0  0
 24 18  1  0  0  0  0
 25  7  1  0  0  0  0
 25 26  2  0  0  0  0
 27 29  1  0  0  0  0
 28 30  1  0  0  0  0
 28 33  1  0  0  0  0
 29 32  1  0  0  0  0
 31 28  2  0  0  0  0
 32 33  2  0  0  0  0
 33 25  1  0  0  0  0
 34 31  1  0  0  0  0
 34 29  2  0  0  0  0
M  END
>  <MODEL>
5

>  <REMARK>
 VINA RESULT:      -8.0      3.165      6.845
  Name = 
  3 active torsions:
  status: ('A' for Active; 'I' for Inactive)
    1  A    between atoms: C_8  and  C_24
    2  A    between atoms: C_19  and  C_27
    3  A    between atoms: C_24  and  C_30
                            x       y       z     vdW  Elec       q    Type
                         _______ _______ _______ _____ _____    ______ ____

>  <TORSDO>
F 3

$$$$
=
 OpenBabel11042416103D

 34 38  0  0  1  0  0  0  0  0999 V2000
  189.1400  174.5770  143.0300 C   0  0  1  0  0  0  0  0  0  0  0  0
  190.7390  176.1130  144.3180 C   0  0  0  0  0  3  0  0  0  0  0  0
  188.5440  172.3590  142.2130 C   0  0  0  0  0  2  0  0  0  0  0  0
  190.3280  174.0980  142.4300 O   0  0  0  0  0  0  0  0  0  0  0  0
  187.9590  174.7260  142.0630 C   0  0  1  0  0  3  0  0  0  0  0  0
  189.5080  173.1480  143.0750 C   0  0  1  0  0  0  0  0  0  0  0  0
  191.8580  175.6140  144.8620 C   0  0  0  0  0  0  0  0  0  0  0  0
  191.1680  172.1450  144.2640 C   0  0  0  0  0  2  0  0  0  0  0  0
  189.8840  172.7060  144.3550 O   0  0  0  0  0  0  0  0  0  0  0  0
  189.3990  175.4320  144.3030 C   0  0  1  0  0  3  0  0  0  0  0  0
  188.4180  173.4540  140.1000 O   0  0  0  0  0  1  0  0  0  0  0  0
  191.8710  174.2480  145.4830 C   0  0  0  0  0  2  0  0  0  0  0  0
  187.8130  173.3840  141.3550 C   0  0  1  0  0  3  0  0  0  0  0  0
  192.2550  173.2070  144.4380 C   0  0  0  0  0  2  0  0  0  0  0  0
  186.7750  174.9720  142.7630 O   0  0  0  0  0  1  0  0  0  0  0  0
  186.7230  177.4430  146.1780 C   0  0  0  0  0  3  0  0  0  0  0  0
  186.2650  178.2710  145.1510 C   0  0  0  0  0  0  0  0  0  0  0  0
  187.7390  176.5120  145.9410 C   0  0  0  0  0  0  0  0  0  0  0  0
  186.8270  178.1720  143.8710 C   0  0  0  0  0  0  0  0  0  0  0  0
  185.2530  179.1870  145.4120 O   0  0  0  0  0  1  0  0  0  0  0  0
  188.3080  176.4080  144.6500 C   0  0  0  0  0  0  0  0  0  0  0  0
  187.8420  177.2430  143.6290 C   0  0  0  0  0  3  0  0  0  0  0  0
  186.3580  179.0430  142.7580 C   0  0  0  0  0  1  0  0  0  0  0  0
  188.1920  175.6610  147.0790 C   0  0  0  0  0  1  0  0  0  0  0  0
  193.1280  176.3850  144.7970 C   0  0  0  0  0  0  0  0  0  0  0  0
  193.0860  177.6270  145.0130 O   0  0  0  0  0  0  0  0  0  0  0  0
  197.3270  173.7910  146.5130 Cl  0  0  0  0  0  0  0  0  0  0  0  0
  194.9450  175.7360  143.1610 C   0  0  0  0  0  0  0  0  0  0  0  0
  196.4110  174.5330  145.2200 C   0  0  0  0  0  0  0  0  0  0  0  0
  194.2480  176.3340  142.1160 O   0  0  0  0  0  1  0  0  0  0  0  0
  196.1710  175.1210  142.8890 C   0  0  0  0  0  3  0  0  0  0  0  0
  195.1850  175.1410  145.4970 C   0  0  0  0  0  3  0  0  0  0  0  0
  194.4390  175.7560  144.4800 C   0  0  0  0  0  0  0  0  0  0  0  0
  196.9030  174.5220  143.9160 C   0  0  0  0  0  3  0  0  0  0  0  0
  1  4  1  6  0  0  0
  1  6  1  0  0  0  0
  1 10  1  0  0  0  0
  2  7  2  0  0  0  0
  4  6  1  0  0  0  0
  5 15  1  1  0  0  0
  5  1  1  0  0  0  0
  6  3  1  6  0  0  0
  6  9  1  0  0  0  0
  7 12  1  0  0  0  0
  8  9  1  0  0  0  0
  8 14  1  0  0  0  0
 10  2  1  0  0  0  0
 10 21  1  6  0  0  0
 13 11  1  6  0  0  0
 13  5  1  0  0  0  0
 13  3  1  0  0  0  0
 14 12  1  0  0  0  0
 17 20  1  0  0  0  0
 17 16  2  0  0  0  0
 18 16  1  0  0  0  0
 18 24  1  0  0  0  0
 19 17  1  0  0  0  0
 21 18  2  0  0  0  0
 22 19  2  0  0  0  0
 22 21  1  0  0  0  0
 23 19  1  0  0  0  0
 25  7  1  0  0  0  0
 25 26  2  0  0  0  0
 28 33  1  0  0  0  0
 29 32  1  0  0  0  0
 29 27  1  0  0  0  0
 30 28  1  0  0  0  0
 31 28  2  0  0  0  0
 31 34  1  0  0  0  0
 33 25  1  0  0  0  0
 33 32  2  0  0  0  0
 34 29  2  0  0  0  0
M  END
>  <MODEL>
6

>  <REMARK>
 VINA RESULT:      -7.9      3.326      7.669
  Name = 
  3 active torsions:
  status: ('A' for Active; 'I' for Inactive)
    1  A    between atoms: C_8  and  C_24
    2  A    between atoms: C_19  and  C_27
    3  A    between atoms: C_24  and  C_30
                            x       y       z     vdW  Elec       q    Type
                         _______ _______ _______ _____ _____    ______ ____

>  <TORSDO>
F 3

$$$$
=
 OpenBabel11042416103D

 34 38  0  0  1  0  0  0  0  0999 V2000
  190.9410  173.9110  142.8730 C   0  0  1  0  0  0  0  0  0  0  0  0
  190.7770  175.9960  144.3580 C   0  0  0  0  0  3  0  0  0  0  0  0
  190.0220  172.4940  141.1150 C   0  0  0  0  0  2  0  0  0  0  0  0
  189.5910  173.7240  143.2490 O   0  0  0  0  0  0  0  0  0  0  0  0
  191.7670  172.6200  142.8210 C   0  0  1  0  0  3  0  0  0  0  0  0
  189.8670  173.7990  141.8670 C   0  0  1  0  0  0  0  0  0  0  0  0
  189.7170  176.8100  144.2570 C   0  0  0  0  0  0  0  0  0  0  0  0
  188.2320  175.2990  141.3620 C   0  0  0  0  0  2  0  0  0  0  0  0
  189.5960  175.0070  141.2000 O   0  0  0  0  0  0  0  0  0  0  0  0
  191.4780  175.3320  143.2050 C   0  0  1  0  0  3  0  0  0  0  0  0
  190.2730  170.7640  142.7360 O   0  0  0  0  0  1  0  0  0  0  0  0
  189.0870  177.0960  142.9250 C   0  0  0  0  0  2  0  0  0  0  0  0
  190.9920  171.6520  141.9340 C   0  0  1  0  0  3  0  0  0  0  0  0
  187.9790  176.0870  142.6490 C   0  0  0  0  0  2  0  0  0  0  0  0
  193.0070  172.8500  142.2220 O   0  0  0  0  0  1  0  0  0  0  0  0
  195.0390  175.1630  144.6230 C   0  0  0  0  0  3  0  0  0  0  0  0
  195.7640  175.6790  143.5470 C   0  0  0  0  0  0  0  0  0  0  0  0
  193.6490  175.0330  144.5480 C   0  0  0  0  0  0  0  0  0  0  0  0
  195.0950  176.0710  142.3790 C   0  0  0  0  0  0  0  0  0  0  0  0
  197.1450  175.7990  143.6480 O   0  0  0  0  0  1  0  0  0  0  0  0
  192.9710  175.4290  143.3710 C   0  0  0  0  0  0  0  0  0  0  0  0
  193.7060  175.9450  142.2980 C   0  0  0  0  0  3  0  0  0  0  0  0
  195.8440  176.6240  141.2160 C   0  0  0  0  0  1  0  0  0  0  0  0
  192.9310  174.4680  145.7270 C   0  0  0  0  0  1  0  0  0  0  0  0
  189.1050  177.3930  145.4800 C   0  0  0  0  0  0  0  0  0  0  0  0
  189.8700  177.8220  146.3870 O   0  0  0  0  0  0  0  0  0  0  0  0
  184.6000  179.7500  144.2730 Cl  0  0  0  0  0  0  0  0  0  0  0  0
  186.9560  176.5950  146.5510 C   0  0  0  0  0  0  0  0  0  0  0  0
  185.5020  178.5320  145.1460 C   0  0  0  0  0  0  0  0  0  0  0  0
  187.6480  175.6280  147.2730 O   0  0  0  0  0  1  0  0  0  0  0  0
  185.5690  176.6880  146.7070 C   0  0  0  0  0  3  0  0  0  0  0  0
  186.8850  178.4400  144.9820 C   0  0  0  0  0  3  0  0  0  0  0  0
  187.6330  177.4800  145.6840 C   0  0  0  0  0  0  0  0  0  0  0  0
  184.8440  177.6550  146.0080 C   0  0  0  0  0  3  0  0  0  0  0  0
  1 10  1  0  0  0  0
  1  4  1  1  0  0  0
  3 13  1  0  0  0  0
  5 15  1  6  0  0  0
  5  1  1  0  0  0  0
  6  3  1  6  0  0  0
  6  1  1  0  0  0  0
  6  4  1  0  0  0  0
  7  2  2  0  0  0  0
  7 25  1  0  0  0  0
  8 14  1  0  0  0  0
  9  8  1  0  0  0  0
  9  6  1  0  0  0  0
 10 21  1  1  0  0  0
 10  2  1  0  0  0  0
 12  7  1  0  0  0  0
 13 11  1  1  0  0  0
 13  5  1  0  0  0  0
 14 12  1  0  0  0  0
 17 20  1  0  0  0  0
 17 16  2  0  0  0  0
 18 16  1  0  0  0  0
 18 24  1  0  0  0  0
 19 17  1  0  0  0  0
 21 18  2  0  0  0  0
 22 19  2  0  0  0  0
 22 21  1  0  0  0  0
 23 19  1  0  0  0  0
 25 33  1  0  0  0  0
 25 26  2  0  0  0  0
 27 29  1  0  0  0  0
 28 31  1  0  0  0  0
 28 30  1  0  0  0  0
 29 34  1  0  0  0  0
 32 29  2  0  0  0  0
 32 33  1  0  0  0  0
 33 28  2  0  0  0  0
 34 31  2  0  0  0  0
M  END
>  <MODEL>
7

>  <REMARK>
 VINA RESULT:      -7.8      2.046      4.705
  Name = 
  3 active torsions:
  status: ('A' for Active; 'I' for Inactive)
    1  A    between atoms: C_8  and  C_24
    2  A    between atoms: C_19  and  C_27
    3  A    between atoms: C_24  and  C_30
                            x       y       z     vdW  Elec       q    Type
                         _______ _______ _______ _____ _____    ______ ____

>  <TORSDO>
F 3

$$$$
=
 OpenBabel11042416103D

 34 38  0  0  1  0  0  0  0  0999 V2000
  193.6590  175.2040  143.4960 C   0  0  1  0  0  0  0  0  0  0  0  0
  191.3940  175.3310  144.6920 C   0  0  0  0  0  3  0  0  0  0  0  0
  196.0580  175.6370  143.4660 C   0  0  0  0  0  2  0  0  0  0  0  0
  193.7720  176.5570  143.8930 O   0  0  0  0  0  0  0  0  0  0  0  0
  194.1780  174.9160  142.0820 C   0  0  1  0  0  3  0  0  0  0  0  0
  194.7970  175.6800  144.3050 C   0  0  1  0  0  0  0  0  0  0  0  0
  191.3050  175.9010  145.9020 C   0  0  0  0  0  0  0  0  0  0  0  0
  194.8180  176.3210  146.4880 C   0  0  0  0  0  2  0  0  0  0  0  0
  194.7770  175.2110  145.6300 O   0  0  0  0  0  0  0  0  0  0  0  0
  192.5160  174.4440  144.2280 C   0  0  1  0  0  3  0  0  0  0  0  0
  195.5750  176.7240  141.4000 O   0  0  0  0  0  1  0  0  0  0  0  0
  192.3960  175.7300  146.9180 C   0  0  0  0  0  2  0  0  0  0  0  0
  195.5950  175.4760  142.0240 C   0  0  1  0  0  3  0  0  0  0  0  0
  193.4140  176.8550  146.7790 C   0  0  0  0  0  2  0  0  0  0  0  0
  194.2510  173.5400  141.8530 O   0  0  0  0  0  1  0  0  0  0  0  0
  191.8720  170.8700  142.9920 C   0  0  0  0  0  3  0  0  0  0  0  0
  190.8760  171.1080  142.0410 C   0  0  0  0  0  0  0  0  0  0  0  0
  192.4260  171.9260  143.7210 C   0  0  0  0  0  0  0  0  0  0  0  0
  190.4240  172.4160  141.8160 C   0  0  0  0  0  0  0  0  0  0  0  0
  190.3430  170.0400  141.3290 O   0  0  0  0  0  1  0  0  0  0  0  0
  191.9730  173.2480  143.4950 C   0  0  0  0  0  0  0  0  0  0  0  0
  190.9750  173.4750  142.5420 C   0  0  0  0  0  3  0  0  0  0  0  0
  189.3630  172.6970  140.8100 C   0  0  0  0  0  1  0  0  0  0  0  0
  193.4800  171.6090  144.7270 C   0  0  0  0  0  1  0  0  0  0  0  0
  190.1460  176.7710  146.2340 C   0  0  0  0  0  0  0  0  0  0  0  0
  190.1620  177.3990  147.3280 O   0  0  0  0  0  0  0  0  0  0  0  0
  188.2910  178.1570  141.5490 Cl  0  0  0  0  0  0  0  0  0  0  0  0
  187.6680  176.5630  145.7640 C   0  0  0  0  0  0  0  0  0  0  0  0
  188.0490  177.5390  143.1670 C   0  0  0  0  0  0  0  0  0  0  0  0
  187.4420  176.0870  147.0510 O   0  0  0  0  0  1  0  0  0  0  0  0
  186.5820  176.6980  144.8940 C   0  0  0  0  0  3  0  0  0  0  0  0
  189.1380  177.4020  144.0300 C   0  0  0  0  0  3  0  0  0  0  0  0
  188.9670  176.9220  145.3380 C   0  0  0  0  0  0  0  0  0  0  0  0
  186.7710  177.1860  143.5990 C   0  0  0  0  0  3  0  0  0  0  0  0
  1  4  1  6  0  0  0
  1 10  1  0  0  0  0
  1  6  1  0  0  0  0
  2  7  2  0  0  0  0
  4  6  1  0  0  0  0
  5 15  1  1  0  0  0
  5  1  1  0  0  0  0
  6  3  1  6  0  0  0
  6  9  1  0  0  0  0
  7 25  1  0  0  0  0
  7 12  1  0  0  0  0
  8 14  1  0  0  0  0
  9  8  1  0  0  0  0
 10 21  1  6  0  0  0
 10  2  1  0  0  0  0
 13 11  1  1  0  0  0
 13  5  1  0  0  0  0
 13  3  1  0  0  0  0
 14 12  1  0  0  0  0
 16 18  1  0  0  0  0
 17 16  2  0  0  0  0
 18 24  1  0  0  0  0
 19 17  1  0  0  0  0
 19 22  2  0  0  0  0
 20 17  1  0  0  0  0
 21 18  2  0  0  0  0
 22 21  1  0  0  0  0
 23 19  1  0  0  0  0
 25 26  2  0  0  0  0
 27 29  1  0  0  0  0
 28 30  1  0  0  0  0
 29 34  2  0  0  0  0
 29 32  1  0  0  0  0
 31 28  2  0  0  0  0
 32 33  2  0  0  0  0
 33 28  1  0  0  0  0
 33 25  1  0  0  0  0
 34 31  1  0  0  0  0
M  END
>  <MODEL>
8

>  <REMARK>
 VINA RESULT:      -7.7      2.468      3.584
  Name = 
  3 active torsions:
  status: ('A' for Active; 'I' for Inactive)
    1  A    between atoms: C_8  and  C_24
    2  A    between atoms: C_19  and  C_27
    3  A    between atoms: C_24  and  C_30
                            x       y       z     vdW  Elec       q    Type
                         _______ _______ _______ _____ _____    ______ ____

>  <TORSDO>
F 3

$$$$
=
 OpenBabel11042416103D

 34 38  0  0  1  0  0  0  0  0999 V2000
  191.9470  173.2180  142.6710 C   0  0  1  0  0  0  0  0  0  0  0  0
  191.5710  175.7370  142.9710 C   0  0  0  0  0  3  0  0  0  0  0  0
  191.0550  170.9780  142.3130 C   0  0  0  0  0  2  0  0  0  0  0  0
  190.9050  173.1050  143.6210 O   0  0  0  0  0  0  0  0  0  0  0  0
  193.0900  172.2130  142.8640 C   0  0  1  0  0  3  0  0  0  0  0  0
  190.7180  172.4530  142.3830 C   0  0  1  0  0  0  0  0  0  0  0  0
  190.3260  176.2340  142.9710 C   0  0  0  0  0  0  0  0  0  0  0  0
  188.6170  173.2350  141.9980 C   0  0  0  0  0  2  0  0  0  0  0  0
  189.8890  173.0660  141.4280 O   0  0  0  0  0  0  0  0  0  0  0  0
  192.0720  174.6450  142.0660 C   0  0  1  0  0  3  0  0  0  0  0  0
  192.3170  170.4430  144.2630 O   0  0  0  0  0  1  0  0  0  0  0  0
  189.2720  175.6780  142.0580 C   0  0  0  0  0  2  0  0  0  0  0  0
  192.4400  170.8350  142.9300 C   0  0  1  0  0  3  0  0  0  0  0  0
  188.5180  174.5570  142.7620 C   0  0  0  0  0  2  0  0  0  0  0  0
  193.9530  172.2290  141.7670 O   0  0  0  0  0  1  0  0  0  0  0  0
  195.1030  175.1110  139.7610 C   0  0  0  0  0  3  0  0  0  0  0  0
  196.0140  175.6810  140.6540 C   0  0  0  0  0  0  0  0  0  0  0  0
  193.8160  174.7640  140.1820 C   0  0  0  0  0  0  0  0  0  0  0  0
  195.6360  175.9100  141.9850 C   0  0  0  0  0  0  0  0  0  0  0  0
  197.2870  176.0160  140.2100 O   0  0  0  0  0  1  0  0  0  0  0  0
  193.4320  174.9930  141.5250 C   0  0  0  0  0  0  0  0  0  0  0  0
  194.3510  175.5650  142.4110 C   0  0  0  0  0  3  0  0  0  0  0  0
  196.5860  176.5180  142.9570 C   0  0  0  0  0  1  0  0  0  0  0  0
  192.8860  174.1660  139.1810 C   0  0  0  0  0  1  0  0  0  0  0  0
  189.9520  177.3080  143.9290 C   0  0  0  0  0  0  0  0  0  0  0  0
  190.6260  178.3750  143.9270 O   0  0  0  0  0  0  0  0  0  0  0  0
  185.1280  178.7450  145.3360 Cl  0  0  0  0  0  0  0  0  0  0  0  0
  188.9000  176.2870  145.9910 C   0  0  0  0  0  0  0  0  0  0  0  0
  186.5750  177.7950  145.5870 C   0  0  0  0  0  0  0  0  0  0  0  0
  190.0440  175.5330  146.2280 O   0  0  0  0  0  1  0  0  0  0  0  0
  187.8190  176.1680  146.8700 C   0  0  0  0  0  3  0  0  0  0  0  0
  187.6490  177.9150  144.7030 C   0  0  0  0  0  3  0  0  0  0  0  0
  188.8270  177.1740  144.8930 C   0  0  0  0  0  0  0  0  0  0  0  0
  186.6600  176.9200  146.6700 C   0  0  0  0  0  3  0  0  0  0  0  0
  1  5  1  0  0  0  0
  1  4  1  1  0  0  0
  2  7  2  0  0  0  0
  3 13  1  0  0  0  0
  5 15  1  6  0  0  0
  5 13  1  0  0  0  0
  6  3  1  6  0  0  0
  6  1  1  0  0  0  0
  6  4  1  0  0  0  0
  7 25  1  0  0  0  0
  8 14  1  0  0  0  0
  9  8  1  0  0  0  0
  9  6  1  0  0  0  0
 10 21  1  1  0  0  0
 10  1  1  0  0  0  0
 10  2  1  0  0  0  0
 12 14  1  0  0  0  0
 12  7  1  0  0  0  0
 13 11  1  1  0  0  0
 16 18  2  0  0  0  0
 16 17  1  0  0  0  0
 17 19  2  0  0  0  0
 18 21  1  0  0  0  0
 19 22  1  0  0  0  0
 19 23  1  0  0  0  0
 20 17  1  0  0  0  0
 21 22  2  0  0  0  0
 24 18  1  0  0  0  0
 25 33  1  0  0  0  0
 26 25  2  0  0  0  0
 27 29  1  0  0  0  0
 28 30  1  0  0  0  0
 28 31  1  0  0  0  0
 29 34  1  0  0  0  0
 32 33  1  0  0  0  0
 32 29  2  0  0  0  0
 33 28  2  0  0  0  0
 34 31  2  0  0  0  0
M  END
>  <MODEL>
9

>  <REMARK>
 VINA RESULT:      -7.7      2.532      4.929
  Name = 
  3 active torsions:
  status: ('A' for Active; 'I' for Inactive)
    1  A    between atoms: C_8  and  C_24
    2  A    between atoms: C_19  and  C_27
    3  A    between atoms: C_24  and  C_30
                            x       y       z     vdW  Elec       q    Type
                         _______ _______ _______ _____ _____    ______ ____

>  <TORSDO>
F 3

$$$$
