=
 OpenBabel11042414243D

 48 52  0  0  1  0  0  0  0  0999 V2000
  189.5330  177.4090  144.4300 S   0  0  0  0  0  0  0  0  0  0  0  0
  188.1570  176.7000  143.4470 C   0  0  2  0  0  3  0  0  0  0  0  0
  190.5810  176.0850  143.8130 C   0  0  2  0  0  3  0  0  0  0  0  0
  188.3530  175.2530  143.2810 N   0  0  0  0  0  2  0  0  0  0  0  0
  189.7050  174.8610  143.6630 C   0  0  1  0  0  3  0  0  0  0  0  0
  191.5250  175.0190  145.9070 O   0  0  0  0  0  0  0  0  0  0  0  0
  192.7660  176.5100  144.8040 N   0  0  0  0  0  0  0  0  0  0  0  0
  192.6820  175.1200  146.7160 C   0  0  0  0  0  2  0  0  0  0  0  0
  191.6600  175.8560  144.8200 C   0  0  0  0  0  0  0  0  0  0  0  0
  193.5130  176.1870  146.0020 C   0  0  1  0  0  3  0  0  0  0  0  0
  194.9460  175.7340  145.7100 C   0  0  2  0  0  3  0  0  0  0  0  0
  195.4500  176.4360  144.6250 O   0  0  0  0  0  1  0  0  0  0  0  0
  194.2760  172.5770  143.7140 C   0  0  2  0  0  3  0  0  0  0  0  0
  195.8020  172.6050  143.6310 C   0  0  2  0  0  3  0  0  0  0  0  0
  196.7340  172.3500  145.8660 C   0  0  0  0  0  2  0  0  0  0  0  0
  195.1710  174.2060  145.5480 C   0  0  2  0  0  3  0  0  0  0  0  0
  196.3920  171.7680  144.6010 O   0  0  0  0  0  0  0  0  0  0  0  0
  196.5930  173.8500  145.9450 C   0  0  0  0  0  2  0  0  0  0  0  0
  195.0390  173.8560  144.0660 C   0  0  2  0  0  3  0  0  0  0  0  0
  193.1810  170.6110  144.5060 O   0  0  0  0  0  1  0  0  0  0  0  0
  193.6960  171.8390  144.9170 C   0  0  0  0  0  2  0  0  0  0  0  0
  187.7830  176.2890  141.1330 C   0  0  0  0  0  1  0  0  0  0  0  0
  188.0240  177.3390  142.1250 N   0  0  0  0  0  0  0  0  0  0  0  0
  185.6570  177.7620  141.3970 C   0  0  0  0  0  2  0  0  0  0  0  0
  186.8950  178.2930  142.1330 C   0  0  1  0  0  3  0  0  0  0  0  0
  184.9710  178.8040  143.3750 C   0  0  0  0  0  0  0  0  0  0  0  0
  184.5550  178.2620  142.2480 C   0  0  0  0  0  0  0  0  0  0  0  0
  186.4530  178.7670  143.5240 C   0  0  0  0  0  2  0  0  0  0  0  0
  183.2200  178.1750  141.8860 O   0  0  0  0  0  1  0  0  0  0  0  0
  184.0830  179.2860  144.3800 N   0  0  0  0  0  2  0  0  0  0  0  0
  183.9490  178.6170  145.6700 C   0  0  0  0  0  2  0  0  0  0  0  0
  186.1380  177.0750  146.7880 O   0  0  0  0  0  0  0  0  0  0  0  0
  186.8970  178.8050  148.2290 C   0  0  0  0  0  1  0  0  0  0  0  0
  185.9950  178.2640  147.1710 C   0  0  0  0  0  0  0  0  0  0  0  0
  184.9560  179.0890  146.6130 N   0  0  0  0  0  2  0  0  0  0  0  0
  190.2960  173.9300  142.6000 C   0  0  0  0  0  2  0  0  0  0  0  0
  190.4590  172.5160  143.1240 C   0  0  0  0  0  2  0  0  0  0  0  0
  190.4950  171.5290  142.0150 C   0  0  0  0  0  0  0  0  0  0  0  0
  190.4120  171.9890  140.6610 N   0  0  0  0  0  2  0  0  0  0  0  0
  190.5780  170.2930  142.2720 O   0  0  0  0  0  0  0  0  0  0  0  0
  190.3710  171.0990  139.5130 C   0  0  0  0  0  2  0  0  0  0  0  0
  190.6270  171.8570  138.2070 C   0  0  0  0  0  2  0  0  0  0  0  0
  191.3740  173.1600  138.4340 C   0  0  2  0  0  3  0  0  0  0  0  0
  190.9370  174.1220  137.5110 O   0  0  0  0  0  1  0  0  0  0  0  0
  192.8790  172.9820  138.3330 C   0  0  0  0  0  2  0  0  0  0  0  0
  194.8970  172.8780  139.9650 C   0  0  0  0  0  1  0  0  0  0  0  0
  193.5500  173.4010  139.6040 C   0  0  0  0  0  0  0  0  0  0  0  0
  192.9960  174.1930  140.3470 O   0  0  0  0  0  0  0  0  0  0  0  0
  2 23  1  6  0  0  0
  2  1  1  0  0  0  0
  3  1  1  0  0  0  0
  3  9  1  1  0  0  0
  4  2  1  0  0  0  0
  4  5  1  0  0  0  0
  5 36  1  6  0  0  0
  5  3  1  0  0  0  0
  6  8  1  0  0  0  0
  7  9  2  0  0  0  0
  7 10  1  0  0  0  0
  9  6  1  0  0  0  0
 10 11  1  6  0  0  0
 10  8  1  0  0  0  0
 11 12  1  6  0  0  0
 13 19  1  0  0  0  0
 13 21  1  1  0  0  0
 14 13  1  0  0  0  0
 14 19  1  0  0  0  0
 14 17  1  1  0  0  0
 15 18  1  0  0  0  0
 16 11  1  6  0  0  0
 16 18  1  0  0  0  0
 17 15  1  0  0  0  0
 19 16  1  0  0  0  0
 20 21  1  0  0  0  0
 22 23  1  0  0  0  0
 23 25  1  0  0  0  0
 24 25  1  0  0  0  0
 24 27  1  0  0  0  0
 25 28  1  0  0  0  0
 26 28  1  0  0  0  0
 26 30  1  0  0  0  0
 27 26  2  0  0  0  0
 29 27  1  0  0  0  0
 30 31  1  0  0  0  0
 31 35  1  0  0  0  0
 32 34  2  0  0  0  0
 34 33  1  0  0  0  0
 35 34  1  0  0  0  0
 36 37  1  0  0  0  0
 38 40  2  0  0  0  0
 38 37  1  0  0  0  0
 39 38  1  0  0  0  0
 41 39  1  0  0  0  0
 42 43  1  0  0  0  0
 42 41  1  0  0  0  0
 44 43  1  0  0  0  0
 45 43  1  0  0  0  0
 45 47  1  0  0  0  0
 47 46  1  0  0  0  0
 47 48  2  0  0  0  0
M  END
>  <MODEL>
1

>  <REMARK>
 VINA RESULT:      -6.6      0.000      0.000
  Name = 
  17 active torsions:
  status: ('A' for Active; 'I' for Inactive)
    1  A    between atoms: C_1  and  C_25
    2  A    between atoms: C_1  and  C_46
    3  A    between atoms: C_2  and  C_9
    4  A    between atoms: C_2  and  C_24
    5  A    between atoms: C_3  and  C_36
    6  A    between atoms: C_3  and  C_45
    7  A    between atoms: C_7  and  C_30
    8  A    between atoms: C_9  and  C_17
    9  A    between atoms: C_10  and  N_37
   10  A    between atoms: C_14  and  C_36
   11  A    between atoms: C_18  and  N_37
   12  A    between atoms: C_19  and  N_21
   13  A    between atoms: N_21  and  C_27
   14  A    between atoms: C_24  and  C_29
   15  A    between atoms: C_26  and  C_33
   16  A    between atoms: C_27  and  N_48
   17  A    between atoms: C_29  and  N_32
                            x       y       z     vdW  Elec       q    Type
                         _______ _______ _______ _____ _____    ______ ____

>  <TORSDO>
F 17

$$$$
=
 OpenBabel11042414243D

 48 52  0  0  1  0  0  0  0  0999 V2000
  189.9170  177.8470  144.2380 S   0  0  0  0  0  0  0  0  0  0  0  0
  188.3930  177.1040  143.5390 C   0  0  2  0  0  3  0  0  0  0  0  0
  190.8060  176.3760  143.7120 C   0  0  2  0  0  3  0  0  0  0  0  0
  188.4880  175.6380  143.5720 N   0  0  0  0  0  2  0  0  0  0  0  0
  189.8550  175.2090  143.8500 C   0  0  1  0  0  3  0  0  0  0  0  0
  191.9310  175.6170  145.8490 O   0  0  0  0  0  0  0  0  0  0  0  0
  193.1360  176.7290  144.3340 N   0  0  0  0  0  0  0  0  0  0  0  0
  193.1930  175.7350  146.4800 C   0  0  0  0  0  2  0  0  0  0  0  0
  191.9890  176.2170  144.6100 C   0  0  0  0  0  0  0  0  0  0  0  0
  194.0080  176.5510  145.4760 C   0  0  1  0  0  3  0  0  0  0  0  0
  195.3430  175.8940  145.1140 C   0  0  2  0  0  3  0  0  0  0  0  0
  195.7520  176.3220  143.8590 O   0  0  0  0  0  1  0  0  0  0  0  0
  194.4170  172.5130  143.6600 C   0  0  2  0  0  3  0  0  0  0  0  0
  195.9400  172.3750  143.6620 C   0  0  2  0  0  3  0  0  0  0  0  0
  196.7500  172.4330  145.9570 C   0  0  0  0  0  2  0  0  0  0  0  0
  195.4090  174.3470  145.2320 C   0  0  2  0  0  3  0  0  0  0  0  0
  196.3980  171.6710  144.7950 O   0  0  0  0  0  0  0  0  0  0  0  0
  196.7680  173.9300  145.7670 C   0  0  0  0  0  2  0  0  0  0  0  0
  195.2980  173.7530  143.8290 C   0  0  2  0  0  3  0  0  0  0  0  0
  192.3730  172.4360  144.8870 O   0  0  0  0  0  1  0  0  0  0  0  0
  193.7140  172.0630  144.9380 C   0  0  0  0  0  2  0  0  0  0  0  0
  187.9150  176.3700  141.3270 C   0  0  0  0  0  1  0  0  0  0  0  0
  188.1300  177.5540  142.1600 N   0  0  0  0  0  0  0  0  0  0  0  0
  185.8460  177.8990  141.1720 C   0  0  0  0  0  2  0  0  0  0  0  0
  186.9300  178.4180  142.1260 C   0  0  1  0  0  3  0  0  0  0  0  0
  184.8290  178.6290  143.1480 C   0  0  0  0  0  0  0  0  0  0  0  0
  184.6060  178.2080  141.9180 C   0  0  0  0  0  0  0  0  0  0  0  0
  186.2770  178.6770  143.4910 C   0  0  0  0  0  2  0  0  0  0  0  0
  183.3410  178.0750  141.3710 O   0  0  0  0  0  1  0  0  0  0  0  0
  183.7830  178.9150  144.0720 N   0  0  0  0  0  2  0  0  0  0  0  0
  184.0320  179.0030  145.5080 C   0  0  0  0  0  2  0  0  0  0  0  0
  186.1070  178.9650  147.5350 O   0  0  0  0  0  0  0  0  0  0  0  0
  186.5920  176.6500  147.2940 C   0  0  0  0  0  1  0  0  0  0  0  0
  185.8160  177.8820  146.9650 C   0  0  0  0  0  0  0  0  0  0  0  0
  184.7610  177.8340  145.9870 N   0  0  0  0  0  2  0  0  0  0  0  0
  190.2570  174.0960  142.8790 C   0  0  0  0  0  2  0  0  0  0  0  0
  189.3480  172.8870  143.0080 C   0  0  0  0  0  2  0  0  0  0  0  0
  188.5360  172.6890  141.7800 C   0  0  0  0  0  0  0  0  0  0  0  0
  189.1890  172.6240  140.5060 N   0  0  0  0  0  2  0  0  0  0  0  0
  187.2760  172.6000  141.8630 O   0  0  0  0  0  0  0  0  0  0  0  0
  188.4780  172.5020  139.2460 C   0  0  0  0  0  2  0  0  0  0  0  0
  189.4180  172.6920  138.0520 C   0  0  0  0  0  2  0  0  0  0  0  0
  189.7560  171.3780  137.3700 C   0  0  2  0  0  3  0  0  0  0  0  0
  189.4780  170.3100  138.2370 O   0  0  0  0  0  1  0  0  0  0  0  0
  191.2050  171.3240  136.9200 C   0  0  0  0  0  2  0  0  0  0  0  0
  191.2930  170.0020  134.6850 C   0  0  0  0  0  1  0  0  0  0  0  0
  191.2970  171.2950  135.4250 C   0  0  0  0  0  0  0  0  0  0  0  0
  191.3600  172.3410  134.8040 O   0  0  0  0  0  0  0  0  0  0  0  0
  2 23  1  6  0  0  0
  2  4  1  0  0  0  0
  2  1  1  0  0  0  0
  3  5  1  0  0  0  0
  3  1  1  0  0  0  0
  3  9  1  1  0  0  0
  4  5  1  0  0  0  0
  5 36  1  6  0  0  0
  6  8  1  0  0  0  0
  7  9  2  0  0  0  0
  7 10  1  0  0  0  0
  9  6  1  0  0  0  0
 10 11  1  6  0  0  0
 10  8  1  0  0  0  0
 11 12  1  6  0  0  0
 13 14  1  0  0  0  0
 13 19  1  0  0  0  0
 13 21  1  1  0  0  0
 14 19  1  0  0  0  0
 14 17  1  1  0  0  0
 16 11  1  6  0  0  0
 16 18  1  0  0  0  0
 17 15  1  0  0  0  0
 18 15  1  0  0  0  0
 19 16  1  0  0  0  0
 20 21  1  0  0  0  0
 22 23  1  0  0  0  0
 24 27  1  0  0  0  0
 24 25  1  0  0  0  0
 25 23  1  0  0  0  0
 25 28  1  0  0  0  0
 26 28  1  0  0  0  0
 26 30  1  0  0  0  0
 27 26  2  0  0  0  0
 29 27  1  0  0  0  0
 30 31  1  0  0  0  0
 31 35  1  0  0  0  0
 34 33  1  0  0  0  0
 34 32  2  0  0  0  0
 35 34  1  0  0  0  0
 36 37  1  0  0  0  0
 38 40  2  0  0  0  0
 38 37  1  0  0  0  0
 39 38  1  0  0  0  0
 41 39  1  0  0  0  0
 42 41  1  0  0  0  0
 43 42  1  0  0  0  0
 43 44  1  0  0  0  0
 45 43  1  0  0  0  0
 46 47  1  0  0  0  0
 47 45  1  0  0  0  0
 48 47  2  0  0  0  0
M  END
>  <MODEL>
2

>  <REMARK>
 VINA RESULT:      -6.3      1.629      2.043
  Name = 
  17 active torsions:
  status: ('A' for Active; 'I' for Inactive)
    1  A    between atoms: C_1  and  C_25
    2  A    between atoms: C_1  and  C_46
    3  A    between atoms: C_2  and  C_9
    4  A    between atoms: C_2  and  C_24
    5  A    between atoms: C_3  and  C_36
    6  A    between atoms: C_3  and  C_45
    7  A    between atoms: C_7  and  C_30
    8  A    between atoms: C_9  and  C_17
    9  A    between atoms: C_10  and  N_37
   10  A    between atoms: C_14  and  C_36
   11  A    between atoms: C_18  and  N_37
   12  A    between atoms: C_19  and  N_21
   13  A    between atoms: N_21  and  C_27
   14  A    between atoms: C_24  and  C_29
   15  A    between atoms: C_26  and  C_33
   16  A    between atoms: C_27  and  N_48
   17  A    between atoms: C_29  and  N_32
                            x       y       z     vdW  Elec       q    Type
                         _______ _______ _______ _____ _____    ______ ____

>  <TORSDO>
F 17

$$$$
=
 OpenBabel11042414243D

 48 52  0  0  1  0  0  0  0  0999 V2000
  187.9430  174.3760  142.1660 S   0  0  0  0  0  0  0  0  0  0  0  0
  188.5310  172.7450  141.5670 C   0  0  2  0  0  3  0  0  0  0  0  0
  189.6380  174.7520  142.6320 C   0  0  2  0  0  3  0  0  0  0  0  0
  189.7270  172.3370  142.3150 N   0  0  0  0  0  2  0  0  0  0  0  0
  190.2730  173.4540  143.0790 C   0  0  1  0  0  3  0  0  0  0  0  0
  189.7060  177.1040  143.5650 O   0  0  0  0  0  0  0  0  0  0  0  0
  189.5490  175.3870  144.9830 N   0  0  0  0  0  0  0  0  0  0  0  0
  189.7370  177.7400  144.8290 C   0  0  0  0  0  2  0  0  0  0  0  0
  189.5920  175.7430  143.7480 C   0  0  0  0  0  0  0  0  0  0  0  0
  189.6940  176.5670  145.8090 C   0  0  1  0  0  3  0  0  0  0  0  0
  188.5860  176.7040  146.8570 C   0  0  2  0  0  3  0  0  0  0  0  0
  188.1420  175.4460  147.2390 O   0  0  0  0  0  1  0  0  0  0  0  0
  185.5690  177.3620  144.6520 C   0  0  2  0  0  3  0  0  0  0  0  0
  184.8820  177.3560  146.0180 C   0  0  2  0  0  3  0  0  0  0  0  0
  185.7310  179.2080  147.3520 C   0  0  0  0  0  2  0  0  0  0  0  0
  187.3980  177.6370  146.4950 C   0  0  2  0  0  3  0  0  0  0  0  0
  184.7020  178.6640  146.5160 O   0  0  0  0  0  0  0  0  0  0  0  0
  186.8120  178.2380  147.7600 C   0  0  0  0  0  2  0  0  0  0  0  0
  186.2930  176.7850  145.8710 C   0  0  2  0  0  3  0  0  0  0  0  0
  185.1490  179.3340  143.3770 O   0  0  0  0  0  1  0  0  0  0  0  0
  186.0990  178.7160  144.1870 C   0  0  0  0  0  2  0  0  0  0  0  0
  188.5730  174.1000  139.6120 C   0  0  0  0  0  1  0  0  0  0  0  0
  188.8250  172.7520  140.1220 N   0  0  0  0  0  0  0  0  0  0  0  0
  190.3930  171.1240  139.0230 C   0  0  0  0  0  2  0  0  0  0  0  0
  190.2380  172.3820  139.8900 C   0  0  1  0  0  3  0  0  0  0  0  0
  191.9590  172.7170  138.3310 C   0  0  0  0  0  0  0  0  0  0  0  0
  191.5700  171.4650  138.1940 C   0  0  1  0  0  3  0  0  0  0  0  0
  191.1090  173.4880  139.2790 C   0  0  0  0  0  2  0  0  0  0  0  0
  192.2010  170.5520  137.3650 O   0  0  0  0  0  1  0  0  0  0  0  0
  193.0250  173.2850  137.5760 N   0  0  0  0  0  0  0  0  0  0  0  0
  193.2820  174.7230  137.5740 C   0  0  0  0  0  2  0  0  0  0  0  0
  196.1450  174.8250  137.1210 O   0  0  0  0  0  0  0  0  0  0  0  0
  196.6970  175.3110  139.3810 C   0  0  0  0  0  1  0  0  0  0  0  0
  195.7210  175.0640  138.2810 C   0  0  0  0  0  0  0  0  0  0  0  0
  194.3070  175.0740  138.5500 N   0  0  0  0  0  2  0  0  0  0  0  0
  191.7900  173.5250  142.8820 C   0  0  0  0  0  2  0  0  0  0  0  0
  192.4060  172.1420  142.7860 C   0  0  0  0  0  2  0  0  0  0  0  0
  193.5050  171.9710  143.7700 C   0  0  0  0  0  0  0  0  0  0  0  0
  194.8200  172.4380  143.4450 N   0  0  0  0  0  2  0  0  0  0  0  0
  193.2800  171.3970  144.8760 O   0  0  0  0  0  0  0  0  0  0  0  0
  195.9730  172.2560  144.3110 C   0  0  0  0  0  2  0  0  0  0  0  0
  196.1500  173.4400  145.2640 C   0  0  0  0  0  2  0  0  0  0  0  0
  195.7690  174.7610  144.6190 C   0  0  2  0  0  3  0  0  0  0  0  0
  196.9150  175.3760  144.0890 O   0  0  0  0  0  1  0  0  0  0  0  0
  195.0780  175.6960  145.5960 C   0  0  0  0  0  2  0  0  0  0  0  0
  192.7940  174.6740  146.2930 C   0  0  0  0  0  1  0  0  0  0  0  0
  193.5900  175.6100  145.4510 C   0  0  0  0  0  0  0  0  0  0  0  0
  193.0190  176.3250  144.6470 O   0  0  0  0  0  0  0  0  0  0  0  0
  1  3  1  0  0  0  0
  2 23  1  6  0  0  0
  2  1  1  0  0  0  0
  2  4  1  0  0  0  0
  3  5  1  0  0  0  0
  3  9  1  1  0  0  0
  4  5  1  0  0  0  0
  5 36  1  6  0  0  0
  6  9  1  0  0  0  0
  6  8  1  0  0  0  0
  7 10  1  0  0  0  0
  8 10  1  0  0  0  0
  9  7  2  0  0  0  0
 10 11  1  1  0  0  0
 11 12  1  6  0  0  0
 13 21  1  1  0  0  0
 13 19  1  0  0  0  0
 13 14  1  0  0  0  0
 14 17  1  1  0  0  0
 15 18  1  0  0  0  0
 16 11  1  1  0  0  0
 16 18  1  0  0  0  0
 17 15  1  0  0  0  0
 19 14  1  0  0  0  0
 19 16  1  0  0  0  0
 20 21  1  0  0  0  0
 22 23  1  0  0  0  0
 24 25  1  0  0  0  0
 25 23  1  0  0  0  0
 26 28  1  0  0  0  0
 27 26  1  0  0  0  0
 27 24  1  0  0  0  0
 28 25  1  0  0  0  0
 29 27  1  0  0  0  0
 30 26  2  0  0  0  0
 31 30  1  0  0  0  0
 31 35  1  0  0  0  0
 32 34  2  0  0  0  0
 34 35  1  0  0  0  0
 34 33  1  0  0  0  0
 37 36  1  0  0  0  0
 37 38  1  0  0  0  0
 38 40  2  0  0  0  0
 39 38  1  0  0  0  0
 39 41  1  0  0  0  0
 41 42  1  0  0  0  0
 43 42  1  0  0  0  0
 43 45  1  0  0  0  0
 44 43  1  0  0  0  0
 47 45  1  0  0  0  0
 47 46  1  0  0  0  0
 48 47  2  0  0  0  0
M  END
>  <MODEL>
3

>  <REMARK>
 VINA RESULT:      -6.3      2.461      8.593
  Name = 
  17 active torsions:
  status: ('A' for Active; 'I' for Inactive)
    1  A    between atoms: C_1  and  C_25
    2  A    between atoms: C_1  and  C_46
    3  A    between atoms: C_2  and  C_9
    4  A    between atoms: C_2  and  C_24
    5  A    between atoms: C_3  and  C_36
    6  A    between atoms: C_3  and  C_45
    7  A    between atoms: C_7  and  C_30
    8  A    between atoms: C_9  and  C_17
    9  A    between atoms: C_10  and  N_37
   10  A    between atoms: C_14  and  C_36
   11  A    between atoms: C_18  and  N_37
   12  A    between atoms: C_19  and  N_21
   13  A    between atoms: N_21  and  C_27
   14  A    between atoms: C_24  and  C_29
   15  A    between atoms: C_26  and  C_33
   16  A    between atoms: C_27  and  N_48
   17  A    between atoms: C_29  and  N_32
                            x       y       z     vdW  Elec       q    Type
                         _______ _______ _______ _____ _____    ______ ____

>  <TORSDO>
F 17

$$$$
=
 OpenBabel11042414243D

 48 52  0  0  1  0  0  0  0  0999 V2000
  190.0460  177.7950  144.2080 S   0  0  0  0  0  0  0  0  0  0  0  0
  188.5080  176.9440  143.6820 C   0  0  2  0  0  3  0  0  0  0  0  0
  190.9430  176.2840  143.8280 C   0  0  2  0  0  3  0  0  0  0  0  0
  188.6380  175.4960  143.8940 N   0  0  0  0  0  2  0  0  0  0  0  0
  190.0250  175.1280  144.1570 C   0  0  1  0  0  3  0  0  0  0  0  0
  192.1600  175.9390  146.0210 O   0  0  0  0  0  0  0  0  0  0  0  0
  193.3170  176.6410  144.2460 N   0  0  0  0  0  0  0  0  0  0  0  0
  193.4600  176.1230  146.5500 C   0  0  0  0  0  2  0  0  0  0  0  0
  192.1690  176.2590  144.6810 C   0  0  0  0  0  0  0  0  0  0  0  0
  194.2470  176.6650  145.3560 C   0  0  1  0  0  3  0  0  0  0  0  0
  195.5310  175.8780  145.0790 C   0  0  2  0  0  3  0  0  0  0  0  0
  196.0800  176.2850  143.8710 O   0  0  0  0  0  1  0  0  0  0  0  0
  194.3100  172.6480  143.5050 C   0  0  2  0  0  3  0  0  0  0  0  0
  195.8090  172.3480  143.5610 C   0  0  2  0  0  3  0  0  0  0  0  0
  196.5270  172.2690  145.8850 C   0  0  0  0  0  2  0  0  0  0  0  0
  195.4280  174.3310  145.1600 C   0  0  2  0  0  3  0  0  0  0  0  0
  196.1440  171.5750  144.6920 O   0  0  0  0  0  0  0  0  0  0  0  0
  196.7120  173.7590  145.7350 C   0  0  0  0  0  2  0  0  0  0  0  0
  195.3110  173.7830  143.7390 C   0  0  2  0  0  3  0  0  0  0  0  0
  192.6320  171.2180  144.4180 O   0  0  0  0  0  1  0  0  0  0  0  0
  193.5130  172.2480  144.7440 C   0  0  0  0  0  2  0  0  0  0  0  0
  187.7880  175.9480  141.6460 C   0  0  0  0  0  1  0  0  0  0  0  0
  188.1730  177.2140  142.2720 N   0  0  0  0  0  0  0  0  0  0  0  0
  185.8510  177.6320  141.4070 C   0  0  0  0  0  2  0  0  0  0  0  0
  187.0530  178.1770  142.1900 C   0  0  1  0  0  3  0  0  0  0  0  0
  185.0730  178.7420  143.3120 C   0  0  0  0  0  0  0  0  0  0  0  0
  184.7110  178.1680  142.1820 C   0  0  0  0  0  0  0  0  0  0  0  0
  186.5440  178.6980  143.5400 C   0  0  0  0  0  2  0  0  0  0  0  0
  183.3960  178.0810  141.7520 O   0  0  0  0  0  1  0  0  0  0  0  0
  184.1380  179.2630  144.2530 N   0  0  0  0  0  2  0  0  0  0  0  0
  183.9740  178.6730  145.5780 C   0  0  0  0  0  2  0  0  0  0  0  0
  185.9040  177.0420  147.0040 O   0  0  0  0  0  0  0  0  0  0  0  0
  186.8440  178.8530  148.2250 C   0  0  0  0  0  1  0  0  0  0  0  0
  185.9090  178.2830  147.2100 C   0  0  0  0  0  0  0  0  0  0  0  0
  185.0060  179.1440  146.4940 N   0  0  0  0  0  2  0  0  0  0  0  0
  190.4070  173.9080  143.3140 C   0  0  0  0  0  2  0  0  0  0  0  0
  191.1210  174.3130  142.0380 C   0  0  0  0  0  2  0  0  0  0  0  0
  191.1270  173.2060  141.0480 C   0  0  0  0  0  0  0  0  0  0  0  0
  190.7210  171.8930  141.4570 N   0  0  0  0  0  2  0  0  0  0  0  0
  191.5070  173.4220  139.8610 O   0  0  0  0  0  0  0  0  0  0  0  0
  190.7580  170.7340  140.5820 C   0  0  0  0  0  2  0  0  0  0  0  0
  191.5060  169.5660  141.2310 C   0  0  0  0  0  2  0  0  0  0  0  0
  193.0070  169.7920  141.2650 C   0  0  2  0  0  3  0  0  0  0  0  0
  193.4310  170.3400  140.0440 O   0  0  0  0  0  1  0  0  0  0  0  0
  193.7710  168.5120  141.5580 C   0  0  0  0  0  2  0  0  0  0  0  0
  196.2820  169.0860  141.8940 C   0  0  0  0  0  1  0  0  0  0  0  0
  194.9370  168.7830  142.4580 C   0  0  0  0  0  0  0  0  0  0  0  0
  194.7820  168.7720  143.6660 O   0  0  0  0  0  0  0  0  0  0  0  0
  2 23  1  6  0  0  0
  2  4  1  0  0  0  0
  2  1  1  0  0  0  0
  3  5  1  0  0  0  0
  3  1  1  0  0  0  0
  3  9  1  1  0  0  0
  4  5  1  0  0  0  0
  5 36  1  6  0  0  0
  6  8  1  0  0  0  0
  7  9  2  0  0  0  0
  7 10  1  0  0  0  0
  9  6  1  0  0  0  0
 10 11  1  6  0  0  0
 10  8  1  0  0  0  0
 11 12  1  6  0  0  0
 13 14  1  0  0  0  0
 13 19  1  0  0  0  0
 13 21  1  1  0  0  0
 14 19  1  0  0  0  0
 14 17  1  1  0  0  0
 16 11  1  6  0  0  0
 16 18  1  0  0  0  0
 17 15  1  0  0  0  0
 18 15  1  0  0  0  0
 19 16  1  0  0  0  0
 20 21  1  0  0  0  0
 22 23  1  0  0  0  0
 24 27  1  0  0  0  0
 24 25  1  0  0  0  0
 25 23  1  0  0  0  0
 25 28  1  0  0  0  0
 26 28  1  0  0  0  0
 26 30  1  0  0  0  0
 27 26  2  0  0  0  0
 29 27  1  0  0  0  0
 30 31  1  0  0  0  0
 31 35  1  0  0  0  0
 32 34  2  0  0  0  0
 34 33  1  0  0  0  0
 35 34  1  0  0  0  0
 37 36  1  0  0  0  0
 38 39  1  0  0  0  0
 38 37  1  0  0  0  0
 40 38  2  0  0  0  0
 41 42  1  0  0  0  0
 41 39  1  0  0  0  0
 42 43  1  0  0  0  0
 43 45  1  0  0  0  0
 44 43  1  0  0  0  0
 45 47  1  0  0  0  0
 46 47  1  0  0  0  0
 47 48  2  0  0  0  0
M  END
>  <MODEL>
4

>  <REMARK>
 VINA RESULT:      -6.3      1.497      2.187
  Name = 
  17 active torsions:
  status: ('A' for Active; 'I' for Inactive)
    1  A    between atoms: C_1  and  C_25
    2  A    between atoms: C_1  and  C_46
    3  A    between atoms: C_2  and  C_9
    4  A    between atoms: C_2  and  C_24
    5  A    between atoms: C_3  and  C_36
    6  A    between atoms: C_3  and  C_45
    7  A    between atoms: C_7  and  C_30
    8  A    between atoms: C_9  and  C_17
    9  A    between atoms: C_10  and  N_37
   10  A    between atoms: C_14  and  C_36
   11  A    between atoms: C_18  and  N_37
   12  A    between atoms: C_19  and  N_21
   13  A    between atoms: N_21  and  C_27
   14  A    between atoms: C_24  and  C_29
   15  A    between atoms: C_26  and  C_33
   16  A    between atoms: C_27  and  N_48
   17  A    between atoms: C_29  and  N_32
                            x       y       z     vdW  Elec       q    Type
                         _______ _______ _______ _____ _____    ______ ____

>  <TORSDO>
F 17

$$$$
=
 OpenBabel11042414243D

 48 52  0  0  1  0  0  0  0  0999 V2000
  193.5720  175.0110  143.0410 S   0  0  0  0  0  0  0  0  0  0  0  0
  192.4980  176.4610  143.3710 C   0  0  2  0  0  3  0  0  0  0  0  0
  193.8460  174.8830  144.8130 C   0  0  2  0  0  3  0  0  0  0  0  0
  192.9220  177.1290  144.6090 N   0  0  0  0  0  2  0  0  0  0  0  0
  193.8470  176.2910  145.3650 C   0  0  1  0  0  3  0  0  0  0  0  0
  195.9890  174.4740  146.0970 O   0  0  0  0  0  0  0  0  0  0  0  0
  195.6910  173.4390  144.1430 N   0  0  0  0  0  0  0  0  0  0  0  0
  197.2070  173.7730  145.9280 C   0  0  0  0  0  2  0  0  0  0  0  0
  195.1690  174.2210  145.0190 C   0  0  0  0  0  0  0  0  0  0  0  0
  197.0380  173.1100  144.5600 C   0  0  1  0  0  3  0  0  0  0  0  0
  197.3050  171.6030  144.5890 C   0  0  2  0  0  3  0  0  0  0  0  0
  197.7790  171.1860  143.3530 O   0  0  0  0  0  1  0  0  0  0  0  0
  194.4150  169.3100  143.7020 C   0  0  2  0  0  3  0  0  0  0  0  0
  195.2490  168.3450  144.5450 C   0  0  2  0  0  3  0  0  0  0  0  0
  195.3710  169.1740  146.8310 C   0  0  0  0  0  2  0  0  0  0  0  0
  196.1410  170.7010  145.0810 C   0  0  2  0  0  3  0  0  0  0  0  0
  194.7850  168.2810  145.8760 O   0  0  0  0  0  0  0  0  0  0  0  0
  196.5620  169.9570  146.3370 C   0  0  0  0  0  2  0  0  0  0  0  0
  195.8760  169.6360  144.0180 C   0  0  2  0  0  3  0  0  0  0  0  0
  192.8680  171.1240  143.6310 O   0  0  0  0  0  1  0  0  0  0  0  0
  193.4020  170.1510  144.4740 C   0  0  0  0  0  2  0  0  0  0  0  0
  190.2890  177.1230  142.7860 C   0  0  0  0  0  1  0  0  0  0  0  0
  191.0730  176.0920  143.4680 N   0  0  0  0  0  0  0  0  0  0  0  0
  190.4310  173.6900  143.8290 C   0  0  0  0  0  2  0  0  0  0  0  0
  190.8420  174.7790  142.8290 C   0  0  1  0  0  3  0  0  0  0  0  0
  189.1050  173.4970  141.9130 C   0  0  0  0  0  0  0  0  0  0  0  0
  189.4280  172.9250  143.0570 C   0  0  0  0  0  0  0  0  0  0  0  0
  189.8200  174.7830  141.6850 C   0  0  0  0  0  2  0  0  0  0  0  0
  188.8910  171.7250  143.4930 O   0  0  0  0  0  1  0  0  0  0  0  0
  188.1060  172.9770  141.0400 N   0  0  0  0  0  2  0  0  0  0  0  0
  188.3580  172.7850  139.6150 C   0  0  0  0  0  2  0  0  0  0  0  0
  190.9900  173.4930  138.6220 O   0  0  0  0  0  0  0  0  0  0  0  0
  191.7940  171.2570  138.5500 C   0  0  0  0  0  1  0  0  0  0  0  0
  190.7520  172.2800  138.8580 C   0  0  0  0  0  0  0  0  0  0  0  0
  189.4800  171.8790  139.3980 N   0  0  0  0  0  2  0  0  0  0  0  0
  193.4400  176.2690  146.8400 C   0  0  0  0  0  2  0  0  0  0  0  0
  192.1290  175.5340  147.0460 C   0  0  0  0  0  2  0  0  0  0  0  0
  191.0390  176.4690  147.4250 C   0  0  0  0  0  0  0  0  0  0  0  0
  189.8380  176.5040  146.6440 N   0  0  0  0  0  2  0  0  0  0  0  0
  191.1850  177.2400  148.4180 O   0  0  0  0  0  0  0  0  0  0  0  0
  188.7460  177.4300  146.8930 C   0  0  0  0  0  2  0  0  0  0  0  0
  187.4700  177.0000  146.1640 C   0  0  0  0  0  2  0  0  0  0  0  0
  186.2490  177.7670  146.6390 C   0  0  2  0  0  3  0  0  0  0  0  0
  185.9850  177.4520  147.9820 O   0  0  0  0  0  1  0  0  0  0  0  0
  185.0260  177.4810  145.7840 C   0  0  0  0  0  2  0  0  0  0  0  0
  185.7840  179.5880  144.4680 C   0  0  0  0  0  1  0  0  0  0  0  0
  184.7130  178.6470  144.8980 C   0  0  0  0  0  0  0  0  0  0  0  0
  183.5710  178.8200  144.5100 O   0  0  0  0  0  0  0  0  0  0  0  0
  1  2  1  0  0  0  0
  1  3  1  0  0  0  0
  2 23  1  1  0  0  0
  2  4  1  0  0  0  0
  3  9  1  6  0  0  0
  3  5  1  0  0  0  0
  4  5  1  0  0  0  0
  5 36  1  1  0  0  0
  7 10  1  0  0  0  0
  7  9  2  0  0  0  0
  8  6  1  0  0  0  0
  9  6  1  0  0  0  0
 10 11  1  1  0  0  0
 10  8  1  0  0  0  0
 11 12  1  6  0  0  0
 13 19  1  0  0  0  0
 13 21  1  1  0  0  0
 13 14  1  0  0  0  0
 14 17  1  1  0  0  0
 16 11  1  6  0  0  0
 16 18  1  0  0  0  0
 17 15  1  0  0  0  0
 18 15  1  0  0  0  0
 19 14  1  0  0  0  0
 19 16  1  0  0  0  0
 20 21  1  0  0  0  0
 22 23  1  0  0  0  0
 25 23  1  0  0  0  0
 25 24  1  0  0  0  0
 26 27  2  0  0  0  0
 27 29  1  0  0  0  0
 27 24  1  0  0  0  0
 28 26  1  0  0  0  0
 28 25  1  0  0  0  0
 30 26  1  0  0  0  0
 31 30  1  0  0  0  0
 32 34  2  0  0  0  0
 33 34  1  0  0  0  0
 34 35  1  0  0  0  0
 35 31  1  0  0  0  0
 36 37  1  0  0  0  0
 37 38  1  0  0  0  0
 38 40  2  0  0  0  0
 39 41  1  0  0  0  0
 39 38  1  0  0  0  0
 42 43  1  0  0  0  0
 42 41  1  0  0  0  0
 43 44  1  0  0  0  0
 45 43  1  0  0  0  0
 46 47  1  0  0  0  0
 47 45  1  0  0  0  0
 48 47  2  0  0  0  0
M  END
>  <MODEL>
5

>  <REMARK>
 VINA RESULT:      -6.2      2.434      7.396
  Name = 
  17 active torsions:
  status: ('A' for Active; 'I' for Inactive)
    1  A    between atoms: C_1  and  C_25
    2  A    between atoms: C_1  and  C_46
    3  A    between atoms: C_2  and  C_9
    4  A    between atoms: C_2  and  C_24
    5  A    between atoms: C_3  and  C_36
    6  A    between atoms: C_3  and  C_45
    7  A    between atoms: C_7  and  C_30
    8  A    between atoms: C_9  and  C_17
    9  A    between atoms: C_10  and  N_37
   10  A    between atoms: C_14  and  C_36
   11  A    between atoms: C_18  and  N_37
   12  A    between atoms: C_19  and  N_21
   13  A    between atoms: N_21  and  C_27
   14  A    between atoms: C_24  and  C_29
   15  A    between atoms: C_26  and  C_33
   16  A    between atoms: C_27  and  N_48
   17  A    between atoms: C_29  and  N_32
                            x       y       z     vdW  Elec       q    Type
                         _______ _______ _______ _____ _____    ______ ____

>  <TORSDO>
F 17

$$$$
=
 OpenBabel11042414243D

 48 52  0  0  1  0  0  0  0  0999 V2000
  189.2830  174.3630  141.7780 S   0  0  0  0  0  0  0  0  0  0  0  0
  189.7210  172.5820  141.7480 C   0  0  2  0  0  3  0  0  0  0  0  0
  190.4580  174.5700  143.1230 C   0  0  2  0  0  3  0  0  0  0  0  0
  190.1640  172.1510  143.0810 N   0  0  0  0  0  2  0  0  0  0  0  0
  190.4220  173.3000  143.9430 C   0  0  1  0  0  3  0  0  0  0  0  0
  190.4280  177.0390  143.6830 O   0  0  0  0  0  0  0  0  0  0  0  0
  189.3020  175.6250  144.9910 N   0  0  0  0  0  0  0  0  0  0  0  0
  189.9220  177.8880  144.6960 C   0  0  0  0  0  2  0  0  0  0  0  0
  190.0180  175.7470  143.9310 C   0  0  0  0  0  0  0  0  0  0  0  0
  189.2010  176.9190  145.6340 C   0  0  1  0  0  3  0  0  0  0  0  0
  187.7560  177.3310  145.9250 C   0  0  2  0  0  3  0  0  0  0  0  0
  187.0420  176.2400  146.3990 O   0  0  0  0  0  1  0  0  0  0  0  0
  186.2570  177.1380  142.4440 C   0  0  2  0  0  3  0  0  0  0  0  0
  185.0020  177.5100  143.2350 C   0  0  2  0  0  3  0  0  0  0  0  0
  185.2960  179.7190  144.2160 C   0  0  0  0  0  2  0  0  0  0  0  0
  186.9940  178.0490  144.7780 C   0  0  2  0  0  3  0  0  0  0  0  0
  184.7440  178.8960  143.1810 O   0  0  0  0  0  0  0  0  0  0  0  0
  185.9390  178.9740  145.3600 C   0  0  0  0  0  2  0  0  0  0  0  0
  186.2410  176.9940  143.9680 C   0  0  2  0  0  3  0  0  0  0  0  0
  188.2240  177.8350  141.2890 O   0  0  0  0  0  1  0  0  0  0  0  0
  187.0840  178.3140  141.9320 C   0  0  0  0  0  2  0  0  0  0  0  0
  190.3760  171.0620  140.0390 C   0  0  0  0  0  1  0  0  0  0  0  0
  190.7670  172.2780  140.7540 N   0  0  0  0  0  0  0  0  0  0  0  0
  192.3600  173.8370  139.5950 C   0  0  0  0  0  2  0  0  0  0  0  0
  190.9040  173.4010  139.8010 C   0  0  1  0  0  3  0  0  0  0  0  0
  191.2830  173.7960  137.5200 C   0  0  0  0  0  0  0  0  0  0  0  0
  192.3880  174.1460  138.1480 C   0  0  0  0  0  0  0  0  0  0  0  0
  190.2810  173.1600  138.4190 C   0  0  0  0  0  2  0  0  0  0  0  0
  193.4660  174.7520  137.5240 O   0  0  0  0  0  1  0  0  0  0  0  0
  191.1150  173.9310  136.1110 N   0  0  0  0  0  2  0  0  0  0  0  0
  191.2250  172.7850  135.2130 C   0  0  0  0  0  2  0  0  0  0  0  0
  194.0710  172.8280  134.6510 O   0  0  0  0  0  0  0  0  0  0  0  0
  194.5370  170.7880  135.7790 C   0  0  0  0  0  1  0  0  0  0  0  0
  193.6180  171.8810  135.3440 C   0  0  0  0  0  0  0  0  0  0  0  0
  192.2230  171.8360  135.6930 N   0  0  0  0  0  2  0  0  0  0  0  0
  191.7580  173.1150  144.6690 C   0  0  0  0  0  2  0  0  0  0  0  0
  192.4110  171.7940  144.3070 C   0  0  0  0  0  2  0  0  0  0  0  0
  193.8250  171.7480  144.7590 C   0  0  0  0  0  0  0  0  0  0  0  0
  194.8200  172.4840  144.0360 N   0  0  0  0  0  2  0  0  0  0  0  0
  194.1440  171.0480  145.7630 O   0  0  0  0  0  0  0  0  0  0  0  0
  196.2360  172.4480  144.3590 C   0  0  0  0  0  2  0  0  0  0  0  0
  196.6750  173.7190  145.0900 C   0  0  0  0  0  2  0  0  0  0  0  0
  195.8190  174.9190  144.7270 C   0  0  2  0  0  3  0  0  0  0  0  0
  196.6080  175.8880  144.0890 O   0  0  0  0  0  1  0  0  0  0  0  0
  195.1310  175.5190  145.9410 C   0  0  0  0  0  2  0  0  0  0  0  0
  192.7180  176.1710  146.6460 C   0  0  0  0  0  1  0  0  0  0  0  0
  193.7540  175.9940  145.5920 C   0  0  0  0  0  0  0  0  0  0  0  0
  193.4820  176.2550  144.4330 O   0  0  0  0  0  0  0  0  0  0  0  0
  1  3  1  0  0  0  0
  2 23  1  6  0  0  0
  2  1  1  0  0  0  0
  2  4  1  0  0  0  0
  3  9  1  1  0  0  0
  3  5  1  0  0  0  0
  4  5  1  0  0  0  0
  5 36  1  6  0  0  0
  6  9  1  0  0  0  0
  6  8  1  0  0  0  0
  7 10  1  0  0  0  0
  8 10  1  0  0  0  0
  9  7  2  0  0  0  0
 10 11  1  6  0  0  0
 11 12  1  6  0  0  0
 13 21  1  1  0  0  0
 13 14  1  0  0  0  0
 13 19  1  0  0  0  0
 14 17  1  1  0  0  0
 14 19  1  0  0  0  0
 15 18  1  0  0  0  0
 16 18  1  0  0  0  0
 16 11  1  1  0  0  0
 17 15  1  0  0  0  0
 19 16  1  0  0  0  0
 20 21  1  0  0  0  0
 22 23  1  0  0  0  0
 24 25  1  0  0  0  0
 25 23  1  0  0  0  0
 26 27  2  0  0  0  0
 26 28  1  0  0  0  0
 27 24  1  0  0  0  0
 28 25  1  0  0  0  0
 29 27  1  0  0  0  0
 30 26  1  0  0  0  0
 31 35  1  0  0  0  0
 31 30  1  0  0  0  0
 32 34  2  0  0  0  0
 34 35  1  0  0  0  0
 34 33  1  0  0  0  0
 37 36  1  0  0  0  0
 37 38  1  0  0  0  0
 38 40  2  0  0  0  0
 39 41  1  0  0  0  0
 39 38  1  0  0  0  0
 41 42  1  0  0  0  0
 43 42  1  0  0  0  0
 43 45  1  0  0  0  0
 44 43  1  0  0  0  0
 47 45  1  0  0  0  0
 47 46  1  0  0  0  0
 48 47  2  0  0  0  0
M  END
>  <MODEL>
6

>  <REMARK>
 VINA RESULT:      -6.1      2.356      8.908
  Name = 
  17 active torsions:
  status: ('A' for Active; 'I' for Inactive)
    1  A    between atoms: C_1  and  C_25
    2  A    between atoms: C_1  and  C_46
    3  A    between atoms: C_2  and  C_9
    4  A    between atoms: C_2  and  C_24
    5  A    between atoms: C_3  and  C_36
    6  A    between atoms: C_3  and  C_45
    7  A    between atoms: C_7  and  C_30
    8  A    between atoms: C_9  and  C_17
    9  A    between atoms: C_10  and  N_37
   10  A    between atoms: C_14  and  C_36
   11  A    between atoms: C_18  and  N_37
   12  A    between atoms: C_19  and  N_21
   13  A    between atoms: N_21  and  C_27
   14  A    between atoms: C_24  and  C_29
   15  A    between atoms: C_26  and  C_33
   16  A    between atoms: C_27  and  N_48
   17  A    between atoms: C_29  and  N_32
                            x       y       z     vdW  Elec       q    Type
                         _______ _______ _______ _____ _____    ______ ____

>  <TORSDO>
F 17

$$$$
=
 OpenBabel11042414243D

 48 52  0  0  1  0  0  0  0  0999 V2000
  188.5310  174.1310  142.3190 S   0  0  0  0  0  0  0  0  0  0  0  0
  189.3100  172.4880  142.0820 C   0  0  2  0  0  3  0  0  0  0  0  0
  190.0480  174.6710  143.1180 C   0  0  2  0  0  3  0  0  0  0  0  0
  190.3070  172.2480  143.1340 N   0  0  0  0  0  2  0  0  0  0  0  0
  190.6080  173.4770  143.8590 C   0  0  1  0  0  3  0  0  0  0  0  0
  190.2940  177.0150  144.0430 O   0  0  0  0  0  0  0  0  0  0  0  0
  188.8730  175.6100  145.0360 N   0  0  0  0  0  0  0  0  0  0  0  0
  189.8130  177.7780  145.1340 C   0  0  0  0  0  2  0  0  0  0  0  0
  189.6950  175.7740  144.0610 C   0  0  0  0  0  0  0  0  0  0  0  0
  188.8850  176.8020  145.8580 C   0  0  1  0  0  3  0  0  0  0  0  0
  187.4860  177.3750  146.1020 C   0  0  2  0  0  3  0  0  0  0  0  0
  186.6620  176.3930  146.6310 O   0  0  0  0  0  1  0  0  0  0  0  0
  186.1400  177.1520  142.5610 C   0  0  2  0  0  3  0  0  0  0  0  0
  184.8690  177.6010  143.2830 C   0  0  2  0  0  3  0  0  0  0  0  0
  185.2190  179.8210  144.2200 C   0  0  0  0  0  2  0  0  0  0  0  0
  186.8110  178.0940  144.9030 C   0  0  2  0  0  3  0  0  0  0  0  0
  184.6770  178.9950  143.1810 O   0  0  0  0  0  0  0  0  0  0  0  0
  185.7750  179.0800  145.4110 C   0  0  0  0  0  2  0  0  0  0  0  0
  186.0490  177.0510  144.0860 C   0  0  2  0  0  3  0  0  0  0  0  0
  188.1750  177.7270  141.4570 O   0  0  0  0  0  1  0  0  0  0  0  0
  187.0430  178.2750  142.0580 C   0  0  0  0  0  2  0  0  0  0  0  0
  189.5330  173.4960  139.9380 C   0  0  0  0  0  1  0  0  0  0  0  0
  189.9440  172.3540  140.7560 N   0  0  0  0  0  0  0  0  0  0  0  0
  192.0670  171.1190  140.2270 C   0  0  0  0  0  2  0  0  0  0  0  0
  191.4160  172.3380  140.8950 C   0  0  1  0  0  3  0  0  0  0  0  0
  193.3450  173.0170  139.7470 C   0  0  0  0  0  0  0  0  0  0  0  0
  193.3020  171.7030  139.6590 C   0  0  1  0  0  3  0  0  0  0  0  0
  192.1310  173.5970  140.3860 C   0  0  0  0  0  2  0  0  0  0  0  0
  194.3120  170.9380  139.0990 O   0  0  0  0  0  1  0  0  0  0  0  0
  194.4040  173.7980  139.2000 N   0  0  0  0  0  0  0  0  0  0  0  0
  194.5330  175.2240  139.4870 C   0  0  0  0  0  2  0  0  0  0  0  0
  193.8210  176.1650  142.1370 O   0  0  0  0  0  0  0  0  0  0  0  0
  196.0610  176.2940  142.9220 C   0  0  0  0  0  1  0  0  0  0  0  0
  195.0380  175.9670  141.8860 C   0  0  0  0  0  0  0  0  0  0  0  0
  195.4420  175.4550  140.6040 N   0  0  0  0  0  2  0  0  0  0  0  0
  192.1240  173.6300  144.0150 C   0  0  0  0  0  2  0  0  0  0  0  0
  192.4940  174.1380  145.3970 C   0  0  0  0  0  2  0  0  0  0  0  0
  193.9610  174.3290  145.5260 C   0  0  0  0  0  0  0  0  0  0  0  0
  194.8480  173.2970  145.0760 N   0  0  0  0  0  2  0  0  0  0  0  0
  194.4170  175.3870  146.0500 O   0  0  0  0  0  0  0  0  0  0  0  0
  196.2920  173.3610  145.2220 C   0  0  0  0  0  2  0  0  0  0  0  0
  196.8150  172.2280  146.1090 C   0  0  0  0  0  2  0  0  0  0  0  0
  197.4830  171.1260  145.3040 C   0  0  2  0  0  3  0  0  0  0  0  0
  197.1400  171.2570  143.9500 O   0  0  0  0  0  1  0  0  0  0  0  0
  197.1090  169.7430  145.8080 C   0  0  0  0  0  2  0  0  0  0  0  0
  194.9770  169.2760  147.2170 C   0  0  0  0  0  1  0  0  0  0  0  0
  195.6210  169.6000  145.9140 C   0  0  0  0  0  0  0  0  0  0  0  0
  194.9270  169.7660  144.9270 O   0  0  0  0  0  0  0  0  0  0  0  0
  1  3  1  0  0  0  0
  2 23  1  6  0  0  0
  2  1  1  0  0  0  0
  2  4  1  0  0  0  0
  3  5  1  0  0  0  0
  3  9  1  1  0  0  0
  4  5  1  0  0  0  0
  5 36  1  6  0  0  0
  6  9  1  0  0  0  0
  6  8  1  0  0  0  0
  7 10  1  0  0  0  0
  8 10  1  0  0  0  0
  9  7  2  0  0  0  0
 10 11  1  6  0  0  0
 11 12  1  6  0  0  0
 13 21  1  1  0  0  0
 13 14  1  0  0  0  0
 13 19  1  0  0  0  0
 14 17  1  1  0  0  0
 14 19  1  0  0  0  0
 15 18  1  0  0  0  0
 16 18  1  0  0  0  0
 16 11  1  1  0  0  0
 17 15  1  0  0  0  0
 19 16  1  0  0  0  0
 20 21  1  0  0  0  0
 22 23  1  0  0  0  0
 23 25  1  0  0  0  0
 24 25  1  0  0  0  0
 26 28  1  0  0  0  0
 27 26  1  0  0  0  0
 27 24  1  0  0  0  0
 28 25  1  0  0  0  0
 29 27  1  0  0  0  0
 30 31  1  0  0  0  0
 30 26  2  0  0  0  0
 31 35  1  0  0  0  0
 34 32  2  0  0  0  0
 34 33  1  0  0  0  0
 35 34  1  0  0  0  0
 36 37  1  0  0  0  0
 37 38  1  0  0  0  0
 38 40  2  0  0  0  0
 39 41  1  0  0  0  0
 39 38  1  0  0  0  0
 41 42  1  0  0  0  0
 43 45  1  0  0  0  0
 43 42  1  0  0  0  0
 44 43  1  0  0  0  0
 45 47  1  0  0  0  0
 47 46  1  0  0  0  0
 48 47  2  0  0  0  0
M  END
>  <MODEL>
7

>  <REMARK>
 VINA RESULT:      -5.9      2.434      8.672
  Name = 
  17 active torsions:
  status: ('A' for Active; 'I' for Inactive)
    1  A    between atoms: C_1  and  C_25
    2  A    between atoms: C_1  and  C_46
    3  A    between atoms: C_2  and  C_9
    4  A    between atoms: C_2  and  C_24
    5  A    between atoms: C_3  and  C_36
    6  A    between atoms: C_3  and  C_45
    7  A    between atoms: C_7  and  C_30
    8  A    between atoms: C_9  and  C_17
    9  A    between atoms: C_10  and  N_37
   10  A    between atoms: C_14  and  C_36
   11  A    between atoms: C_18  and  N_37
   12  A    between atoms: C_19  and  N_21
   13  A    between atoms: N_21  and  C_27
   14  A    between atoms: C_24  and  C_29
   15  A    between atoms: C_26  and  C_33
   16  A    between atoms: C_27  and  N_48
   17  A    between atoms: C_29  and  N_32
                            x       y       z     vdW  Elec       q    Type
                         _______ _______ _______ _____ _____    ______ ____

>  <TORSDO>
F 17

$$$$
=
 OpenBabel11042414243D

 48 52  0  0  1  0  0  0  0  0999 V2000
  192.1060  174.9830  142.6210 S   0  0  0  0  0  0  0  0  0  0  0  0
  193.3790  174.0470  141.6910 C   0  0  2  0  0  3  0  0  0  0  0  0
  190.8940  173.7800  142.0590 C   0  0  2  0  0  3  0  0  0  0  0  0
  192.7610  173.3530  140.5530 N   0  0  0  0  0  2  0  0  0  0  0  0
  191.3070  173.3510  140.6690 C   0  0  1  0  0  3  0  0  0  0  0  0
  188.4660  173.9990  142.7440 O   0  0  0  0  0  0  0  0  0  0  0  0
  189.3070  175.4580  141.2790 N   0  0  0  0  0  0  0  0  0  0  0  0
  187.3420  174.7970  142.4180 C   0  0  0  0  0  2  0  0  0  0  0  0
  189.5610  174.4550  142.0420 C   0  0  0  0  0  0  0  0  0  0  0  0
  187.8940  175.7600  141.3660 C   0  0  1  0  0  3  0  0  0  0  0  0
  187.6150  177.2290  141.6960 C   0  0  2  0  0  3  0  0  0  0  0  0
  188.7690  177.8300  142.1790 O   0  0  0  0  0  1  0  0  0  0  0  0
  186.3490  178.3650  145.0880 C   0  0  2  0  0  3  0  0  0  0  0  0
  185.6640  179.4080  144.2040 C   0  0  2  0  0  3  0  0  0  0  0  0
  184.0830  178.2940  142.7250 C   0  0  0  0  0  2  0  0  0  0  0  0
  186.4000  177.5150  142.6190 C   0  0  2  0  0  3  0  0  0  0  0  0
  184.3300  179.0510  143.9170 O   0  0  0  0  0  0  0  0  0  0  0  0
  185.2700  178.1260  141.8090 C   0  0  0  0  0  2  0  0  0  0  0  0
  186.8140  178.5700  143.6440 C   0  0  2  0  0  3  0  0  0  0  0  0
  185.5140  176.8000  146.6830 O   0  0  0  0  0  1  0  0  0  0  0  0
  185.5620  177.0780  145.3180 C   0  0  0  0  0  2  0  0  0  0  0  0
  194.8280  172.1600  141.6650 C   0  0  0  0  0  1  0  0  0  0  0  0
  194.0920  173.0740  142.5400 N   0  0  0  0  0  0  0  0  0  0  0  0
  195.7070  174.9850  142.7740 C   0  0  0  0  0  2  0  0  0  0  0  0
  195.0330  173.7770  143.4390 C   0  0  1  0  0  3  0  0  0  0  0  0
  195.0860  175.5690  144.9520 C   0  0  0  0  0  0  0  0  0  0  0  0
  195.7550  175.9610  143.8850 C   0  0  0  0  0  0  0  0  0  0  0  0
  194.4330  174.2430  144.7720 C   0  0  0  0  0  2  0  0  0  0  0  0
  196.4420  177.1610  143.8090 O   0  0  0  0  0  1  0  0  0  0  0  0
  194.9340  176.3790  146.1140 N   0  0  0  0  0  2  0  0  0  0  0  0
  193.6820  176.4180  146.8630 C   0  0  0  0  0  2  0  0  0  0  0  0
  190.8740  175.9140  147.3900 O   0  0  0  0  0  0  0  0  0  0  0  0
  190.1220  176.6830  145.2700 C   0  0  0  0  0  1  0  0  0  0  0  0
  191.1860  176.4270  146.2850 C   0  0  0  0  0  0  0  0  0  0  0  0
  192.5590  176.7430  145.9910 N   0  0  0  0  0  2  0  0  0  0  0  0
  190.7660  171.9480  140.3780 C   0  0  0  0  0  2  0  0  0  0  0  0
  190.6190  171.1320  141.6490 C   0  0  0  0  0  2  0  0  0  0  0  0
  191.7670  170.2090  141.8340 C   0  0  0  0  0  0  0  0  0  0  0  0
  192.2950  169.9960  143.1490 N   0  0  0  0  0  2  0  0  0  0  0  0
  192.2840  169.6340  140.8320 O   0  0  0  0  0  0  0  0  0  0  0  0
  193.4560  169.1670  143.4230 C   0  0  0  0  0  2  0  0  0  0  0  0
  193.6410  168.9400  144.9250 C   0  0  0  0  0  2  0  0  0  0  0  0
  194.9160  169.5740  145.4520 C   0  0  2  0  0  3  0  0  0  0  0  0
  194.6080  170.7690  146.1210 O   0  0  0  0  0  1  0  0  0  0  0  0
  195.9230  169.8370  144.3460 C   0  0  0  0  0  2  0  0  0  0  0  0
  197.7630  171.6630  144.5060 C   0  0  0  0  0  1  0  0  0  0  0  0
  197.2160  170.3390  144.9120 C   0  0  0  0  0  0  0  0  0  0  0  0
  197.8200  169.6650  145.7270 O   0  0  0  0  0  0  0  0  0  0  0  0
  2 23  1  1  0  0  0
  2  1  1  0  0  0  0
  3  9  1  6  0  0  0
  3  1  1  0  0  0  0
  4  5  1  0  0  0  0
  4  2  1  0  0  0  0
  5 36  1  1  0  0  0
  5  3  1  0  0  0  0
  7 10  1  0  0  0  0
  7  9  2  0  0  0  0
  8  6  1  0  0  0  0
  9  6  1  0  0  0  0
 10 11  1  1  0  0  0
 10  8  1  0  0  0  0
 11 12  1  1  0  0  0
 13 21  1  6  0  0  0
 14 17  1  6  0  0  0
 14 13  1  0  0  0  0
 15 17  1  0  0  0  0
 16 11  1  6  0  0  0
 16 19  1  0  0  0  0
 18 16  1  0  0  0  0
 18 15  1  0  0  0  0
 19 14  1  0  0  0  0
 19 13  1  0  0  0  0
 21 20  1  0  0  0  0
 22 23  1  0  0  0  0
 23 25  1  0  0  0  0
 24 25  1  0  0  0  0
 24 27  1  0  0  0  0
 25 28  1  0  0  0  0
 26 30  1  0  0  0  0
 27 26  2  0  0  0  0
 28 26  1  0  0  0  0
 29 27  1  0  0  0  0
 30 31  1  0  0  0  0
 33 34  1  0  0  0  0
 34 32  2  0  0  0  0
 35 34  1  0  0  0  0
 35 31  1  0  0  0  0
 36 37  1  0  0  0  0
 37 38  1  0  0  0  0
 38 39  1  0  0  0  0
 39 41  1  0  0  0  0
 40 38  2  0  0  0  0
 41 42  1  0  0  0  0
 42 43  1  0  0  0  0
 43 44  1  0  0  0  0
 45 47  1  0  0  0  0
 45 43  1  0  0  0  0
 46 47  1  0  0  0  0
 47 48  2  0  0  0  0
M  END
>  <MODEL>
8

>  <REMARK>
 VINA RESULT:      -5.9      2.598      8.299
  Name = 
  17 active torsions:
  status: ('A' for Active; 'I' for Inactive)
    1  A    between atoms: C_1  and  C_25
    2  A    between atoms: C_1  and  C_46
    3  A    between atoms: C_2  and  C_9
    4  A    between atoms: C_2  and  C_24
    5  A    between atoms: C_3  and  C_36
    6  A    between atoms: C_3  and  C_45
    7  A    between atoms: C_7  and  C_30
    8  A    between atoms: C_9  and  C_17
    9  A    between atoms: C_10  and  N_37
   10  A    between atoms: C_14  and  C_36
   11  A    between atoms: C_18  and  N_37
   12  A    between atoms: C_19  and  N_21
   13  A    between atoms: N_21  and  C_27
   14  A    between atoms: C_24  and  C_29
   15  A    between atoms: C_26  and  C_33
   16  A    between atoms: C_27  and  N_48
   17  A    between atoms: C_29  and  N_32
                            x       y       z     vdW  Elec       q    Type
                         _______ _______ _______ _____ _____    ______ ____

>  <TORSDO>
F 17

$$$$
=
 OpenBabel11042414243D

 48 52  0  0  1  0  0  0  0  0999 V2000
  191.0540  176.8570  144.1030 S   0  0  0  0  0  0  0  0  0  0  0  0
  189.4240  176.0180  144.0530 C   0  0  2  0  0  3  0  0  0  0  0  0
  191.8260  175.2390  143.9550 C   0  0  2  0  0  3  0  0  0  0  0  0
  189.5450  174.6530  144.5820 N   0  0  0  0  0  2  0  0  0  0  0  0
  190.9450  174.2590  144.6970 C   0  0  1  0  0  3  0  0  0  0  0  0
  193.5020  176.2090  145.5860 O   0  0  0  0  0  0  0  0  0  0  0  0
  194.1830  174.6500  144.1420 N   0  0  0  0  0  0  0  0  0  0  0  0
  194.8870  176.1110  145.8650 C   0  0  0  0  0  2  0  0  0  0  0  0
  193.1810  175.3260  144.5780 C   0  0  0  0  0  0  0  0  0  0  0  0
  195.3760  175.0900  144.8370 C   0  0  1  0  0  3  0  0  0  0  0  0
  196.1610  173.9360  145.4660 C   0  0  2  0  0  3  0  0  0  0  0  0
  197.5220  174.1930  145.3820 O   0  0  0  0  0  1  0  0  0  0  0  0
  195.8220  171.5620  142.5250 C   0  0  2  0  0  3  0  0  0  0  0  0
  196.8740  170.8050  143.3360 C   0  0  2  0  0  3  0  0  0  0  0  0
  195.9070  170.1150  145.4610 C   0  0  0  0  0  2  0  0  0  0  0  0
  195.8230  172.5080  144.9590 C   0  0  2  0  0  3  0  0  0  0  0  0
  196.2940  169.7870  144.1210 O   0  0  0  0  0  0  0  0  0  0  0  0
  196.3440  171.4760  145.9450 C   0  0  0  0  0  2  0  0  0  0  0  0
  196.5780  172.2720  143.6520 C   0  0  2  0  0  3  0  0  0  0  0  0
  193.6850  170.9170  141.6820 O   0  0  0  0  0  1  0  0  0  0  0  0
  194.3700  171.2280  142.8560 C   0  0  0  0  0  2  0  0  0  0  0  0
  187.8330  174.9310  142.6590 C   0  0  0  0  0  1  0  0  0  0  0  0
  188.8560  175.9770  142.6930 N   0  0  0  0  0  0  0  0  0  0  0  0
  187.2610  177.2000  141.1850 C   0  0  0  0  0  2  0  0  0  0  0  0
  188.2510  177.2830  142.3550 C   0  0  1  0  0  3  0  0  0  0  0  0
  186.3570  178.5770  142.8440 C   0  0  0  0  0  0  0  0  0  0  0  0
  186.2040  178.1440  141.6080 C   0  0  0  0  0  0  0  0  0  0  0  0
  187.5520  177.9980  143.5190 C   0  0  0  0  0  2  0  0  0  0  0  0
  185.1650  178.5370  140.7810 O   0  0  0  0  0  1  0  0  0  0  0  0
  185.4200  179.4360  143.4880 N   0  0  0  0  0  2  0  0  0  0  0  0
  184.4660  178.9310  144.4710 C   0  0  0  0  0  2  0  0  0  0  0  0
  185.4570  176.7280  146.0780 O   0  0  0  0  0  0  0  0  0  0  0  0
  185.8690  178.0490  148.0110 C   0  0  0  0  0  1  0  0  0  0  0  0
  185.4480  177.8780  146.5900 C   0  0  0  0  0  0  0  0  0  0  0  0
  185.0130  179.0130  145.8210 N   0  0  0  0  0  2  0  0  0  0  0  0
  191.1380  172.8530  144.1210 C   0  0  0  0  0  2  0  0  0  0  0  0
  189.8510  172.3130  143.5250 C   0  0  0  0  0  2  0  0  0  0  0  0
  190.0720  171.7780  142.1570 C   0  0  0  0  0  0  0  0  0  0  0  0
  189.8780  172.6360  141.0260 N   0  0  0  0  0  2  0  0  0  0  0  0
  190.4080  170.5690  141.9990 O   0  0  0  0  0  0  0  0  0  0  0  0
  190.0030  172.1880  139.6490 C   0  0  0  0  0  2  0  0  0  0  0  0
  190.6350  173.2660  138.7640 C   0  0  0  0  0  2  0  0  0  0  0  0
  192.1080  173.0050  138.5020 C   0  0  2  0  0  3  0  0  0  0  0  0
  192.3860  171.6410  138.6800 O   0  0  0  0  0  1  0  0  0  0  0  0
  193.0050  173.8450  139.3950 C   0  0  0  0  0  2  0  0  0  0  0  0
  195.3220  174.9330  138.9520 C   0  0  0  0  0  1  0  0  0  0  0  0
  193.8950  174.7270  138.5750 C   0  0  0  0  0  0  0  0  0  0  0  0
  193.4550  175.2700  137.5780 O   0  0  0  0  0  0  0  0  0  0  0  0
  2 23  1  6  0  0  0
  2  1  1  0  0  0  0
  2  4  1  0  0  0  0
  3  1  1  0  0  0  0
  3  9  1  1  0  0  0
  3  5  1  0  0  0  0
  4  5  1  0  0  0  0
  5 36  1  6  0  0  0
  6  8  1  0  0  0  0
  7  9  2  0  0  0  0
  7 10  1  0  0  0  0
  9  6  1  0  0  0  0
 10 11  1  1  0  0  0
 10  8  1  0  0  0  0
 11 12  1  6  0  0  0
 13 21  1  1  0  0  0
 13 14  1  0  0  0  0
 13 19  1  0  0  0  0
 14 19  1  0  0  0  0
 14 17  1  1  0  0  0
 15 18  1  0  0  0  0
 16 11  1  1  0  0  0
 16 18  1  0  0  0  0
 17 15  1  0  0  0  0
 19 16  1  0  0  0  0
 20 21  1  0  0  0  0
 22 23  1  0  0  0  0
 24 27  1  0  0  0  0
 24 25  1  0  0  0  0
 25 23  1  0  0  0  0
 25 28  1  0  0  0  0
 26 30  1  0  0  0  0
 26 28  1  0  0  0  0
 27 26  2  0  0  0  0
 29 27  1  0  0  0  0
 30 31  1  0  0  0  0
 31 35  1  0  0  0  0
 32 34  2  0  0  0  0
 34 33  1  0  0  0  0
 35 34  1  0  0  0  0
 37 36  1  0  0  0  0
 38 37  1  0  0  0  0
 39 38  1  0  0  0  0
 40 38  2  0  0  0  0
 41 39  1  0  0  0  0
 42 41  1  0  0  0  0
 43 44  1  0  0  0  0
 43 42  1  0  0  0  0
 43 45  1  0  0  0  0
 47 46  1  0  0  0  0
 47 45  1  0  0  0  0
 48 47  2  0  0  0  0
M  END
>  <MODEL>
9

>  <REMARK>
 VINA RESULT:      -5.9      1.586      1.911
  Name = 
  17 active torsions:
  status: ('A' for Active; 'I' for Inactive)
    1  A    between atoms: C_1  and  C_25
    2  A    between atoms: C_1  and  C_46
    3  A    between atoms: C_2  and  C_9
    4  A    between atoms: C_2  and  C_24
    5  A    between atoms: C_3  and  C_36
    6  A    between atoms: C_3  and  C_45
    7  A    between atoms: C_7  and  C_30
    8  A    between atoms: C_9  and  C_17
    9  A    between atoms: C_10  and  N_37
   10  A    between atoms: C_14  and  C_36
   11  A    between atoms: C_18  and  N_37
   12  A    between atoms: C_19  and  N_21
   13  A    between atoms: N_21  and  C_27
   14  A    between atoms: C_24  and  C_29
   15  A    between atoms: C_26  and  C_33
   16  A    between atoms: C_27  and  N_48
   17  A    between atoms: C_29  and  N_32
                            x       y       z     vdW  Elec       q    Type
                         _______ _______ _______ _____ _____    ______ ____

>  <TORSDO>
F 17

$$$$
