=
 OpenBabel11042413423D

 58 64  0  0  1  0  0  0  0  0999 V2000
  192.3290  177.2310  144.0710 C   0  0  0  0  0  1  0  0  0  0  0  0
  193.4350  173.0020  144.8780 C   0  0  0  0  0  2  0  0  0  0  0  0
  192.0570  175.0730  144.9430 C   0  0  2  0  0  3  0  0  0  0  0  0
  193.3000  174.2980  145.1760 C   0  0  0  0  0  0  0  0  0  0  0  0
  193.7100  176.9580  147.2790 C   0  0  0  0  0  1  0  0  0  0  0  0
  194.3880  175.1460  145.7050 C   0  0  2  0  0  3  0  0  0  0  0  0
  192.3520  176.4610  145.3020 N   0  0  0  0  0  0  0  0  0  0  0  0
  193.7280  176.5200  145.8230 C   0  0  1  0  0  3  0  0  0  0  0  0
  196.4680  174.0040  144.9430 N   0  0  0  0  0  0  0  0  0  0  0  0
  195.1600  175.3810  143.3260 C   0  0  0  0  0  3  0  0  0  0  0  0
  196.7630  173.7580  142.6130 N   0  0  0  0  0  2  0  0  0  0  0  0
  197.0310  173.3710  143.9630 C   0  0  0  0  0  0  0  0  0  0  0  0
  195.5960  175.1740  144.7550 C   0  0  1  0  0  3  0  0  0  0  0  0
  195.7680  174.7450  142.3190 C   0  0  0  0  0  0  0  0  0  0  0  0
  197.9410  172.2260  144.2420 C   0  0  0  0  0  1  0  0  0  0  0  0
  195.3900  175.0050  140.9180 C   0  0  0  0  0  0  0  0  0  0  0  0
  194.1420  175.7720  140.5900 C   0  0  0  0  0  1  0  0  0  0  0  0
  196.1710  174.5930  139.9670 N   0  0  0  0  0  0  0  0  0  0  0  0
  195.8910  174.8010  138.6350 O   0  0  0  0  0  0  0  0  0  0  0  0
  195.3710  172.1930  135.1590 C   0  0  0  0  0  1  0  0  0  0  0  0
  196.2100  173.7960  137.6880 C   0  0  1  0  0  3  0  0  0  0  0  0
  196.4590  173.2550  135.2650 C   0  0  1  0  0  3  0  0  0  0  0  0
  196.1140  174.2520  136.2860 N   0  0  0  0  0  0  0  0  0  0  0  0
  197.6170  173.2870  137.9560 C   0  0  0  0  0  2  0  0  0  0  0  0
  197.8300  172.6340  135.5500 C   0  0  0  0  0  2  0  0  0  0  0  0
  197.9410  172.1510  136.9940 C   0  0  0  0  0  2  0  0  0  0  0  0
  195.8790  177.7650  134.9250 C   0  0  0  0  0  3  0  0  0  0  0  0
  196.4110  176.5380  135.3330 C   0  0  0  0  0  3  0  0  0  0  0  0
  193.8370  179.5400  134.5420 Cl  0  0  0  0  0  0  0  0  0  0  0  0
  195.5840  175.5280  135.8500 C   0  0  0  0  0  0  0  0  0  0  0  0
  194.2040  175.7840  135.9460 C   0  0  0  0  0  3  0  0  0  0  0  0
  193.6710  177.0130  135.5460 C   0  0  0  0  0  3  0  0  0  0  0  0
  194.5070  178.0020  135.0310 C   0  0  0  0  0  0  0  0  0  0  0  0
  190.9380  174.5490  145.8330 C   0  0  0  0  0  2  0  0  0  0  0  0
  190.0520  175.6970  146.2660 C   0  0  0  0  0  2  0  0  0  0  0  0
  188.6530  175.3470  146.0740 N   0  0  0  0  0  2  0  0  0  0  0  0
  187.9100  176.5880  145.8940 C   0  0  2  0  0  3  0  0  0  0  0  0
  186.5330  175.7140  142.7380 S   0  0  0  0  0  0  0  0  0  0  0  0
  186.9590  178.0130  144.1320 N   0  0  0  0  0  2  0  0  0  0  0  0
  188.1250  176.0660  143.4390 C   0  0  1  0  0  3  0  0  0  0  0  0
  189.4420  175.9520  142.5080 S   0  0  0  0  0  0  0  0  0  0  0  0
  185.8780  177.1930  143.5830 C   0  0  1  0  0  3  0  0  0  0  0  0
  188.0770  177.1360  144.4680 C   0  0  2  0  0  3  0  0  0  0  0  0
  189.6500  174.1930  142.2120 C   0  0  2  0  0  3  0  0  0  0  0  0
  190.6630  173.9990  141.0990 C   0  0  2  0  0  3  0  0  0  0  0  0
  189.1870  173.8690  140.8100 C   0  0  0  0  0  2  0  0  0  0  0  0
  191.2770  172.6100  141.1880 C   0  0  0  0  0  2  0  0  0  0  0  0
  192.0580  170.8670  139.5180 C   0  0  0  0  0  0  0  0  0  0  0  0
  191.8330  172.2130  139.8530 C   0  0  0  0  0  0  0  0  0  0  0  0
  192.4700  170.5450  138.2650 N   0  0  0  0  0  0  0  0  0  0  0  0
  191.8120  169.7750  140.5020 C   0  0  0  0  0  1  0  0  0  0  0  0
  192.4810  172.8450  137.6090 C   0  0  0  0  0  3  0  0  0  0  0  0
  192.6820  171.4960  137.3130 C   0  0  0  0  0  3  0  0  0  0  0  0
  192.0560  173.1990  138.8870 C   0  0  0  0  0  3  0  0  0  0  0  0
  184.4340  178.6340  141.9350 N   0  0  0  0  0  0  0  0  0  0  0  0
  185.0680  177.9990  142.6690 C   0  0  0  0  0  0  0  0  0  0  0  0
  188.3970  177.6240  146.9000 C   0  0  0  0  0  2  0  0  0  0  0  0
  187.2030  178.2390  147.6070 C   0  0  0  0  0  1  0  0  0  0  0  0
  1  7  1  0  0  0  0
  2  4  2  0  0  0  0
  3  4  1  0  0  0  0
  3  7  1  0  0  0  0
  3 34  1  1  0  0  0
  6  4  1  6  0  0  0
  6  8  1  0  0  0  0
  7  8  1  0  0  0  0
  8  5  1  1  0  0  0
 11 12  1  0  0  0  0
 12 15  1  0  0  0  0
 12  9  2  0  0  0  0
 13 10  1  6  0  0  0
 13  9  1  0  0  0  0
 13  6  1  0  0  0  0
 14 11  1  0  0  0  0
 14 10  2  0  0  0  0
 16 14  1  0  0  0  0
 17 16  1  0  0  0  0
 18 16  2  0  0  0  0
 19 18  1  0  0  0  0
 21 24  1  0  0  0  0
 21 19  1  1  0  0  0
 22 20  1  1  0  0  0
 22 25  1  0  0  0  0
 22 23  1  0  0  0  0
 23 21  1  0  0  0  0
 25 26  1  0  0  0  0
 26 24  1  0  0  0  0
 27 33  2  0  0  0  0
 27 28  1  0  0  0  0
 28 30  2  0  0  0  0
 29 33  1  0  0  0  0
 30 31  1  0  0  0  0
 30 23  1  0  0  0  0
 32 31  2  0  0  0  0
 33 32  1  0  0  0  0
 34 35  1  0  0  0  0
 36 35  1  0  0  0  0
 37 36  1  0  0  0  0
 37 57  1  1  0  0  0
 38 40  1  0  0  0  0
 38 42  1  0  0  0  0
 39 43  1  0  0  0  0
 40 41  1  6  0  0  0
 40 43  1  0  0  0  0
 42 56  1  6  0  0  0
 42 39  1  0  0  0  0
 43 37  1  1  0  0  0
 44 41  1  6  0  0  0
 45 47  1  1  0  0  0
 45 44  1  0  0  0  0
 46 45  1  0  0  0  0
 46 44  1  0  0  0  0
 48 49  1  0  0  0  0
 48 51  1  0  0  0  0
 49 47  1  0  0  0  0
 50 48  2  0  0  0  0
 52 54  1  0  0  0  0
 53 52  2  0  0  0  0
 53 50  1  0  0  0  0
 54 49  2  0  0  0  0
 55 56  3  0  0  0  0
 57 58  1  0  0  0  0
M  END
>  <MODEL>
1

>  <REMARK>
 VINA RESULT:      -6.5      0.000      0.000
  Name = 
  15 active torsions:
  status: ('A' for Active; 'I' for Inactive)
    1  A    between atoms: C_2  and  C_25
    2  A    between atoms: C_5  and  C_7
    3  A    between atoms: C_5  and  N_8
    4  A    between atoms: C_7  and  C_22
    5  A    between atoms: N_8  and  C_15
    6  A    between atoms: C_9  and  O_39
    7  A    between atoms: N_12  and  C_49
    8  A    between atoms: C_14  and  C_15
    9  A    between atoms: C_15  and  C_56
   10  A    between atoms: C_17  and  C_46
   11  A    between atoms: C_18  and  S_43
   12  A    between atoms: C_25  and  C_28
   13  A    between atoms: N_35  and  O_39
   14  A    between atoms: C_40  and  C_45
   15  A    between atoms: C_47  and  C_54
                            x       y       z     vdW  Elec       q    Type
                         _______ _______ _______ _____ _____    ______ ____

>  <TORSDO>
F 15

$$$$
=
 OpenBabel11042413423D

 58 64  0  0  1  0  0  0  0  0999 V2000
  192.9570  176.7500  143.6620 C   0  0  0  0  0  1  0  0  0  0  0  0
  193.9100  172.8360  145.5420 C   0  0  0  0  0  2  0  0  0  0  0  0
  192.5870  174.8790  145.0250 C   0  0  2  0  0  3  0  0  0  0  0  0
  193.7970  174.1680  145.5040 C   0  0  0  0  0  0  0  0  0  0  0  0
  194.1850  177.2590  146.9030 C   0  0  0  0  0  1  0  0  0  0  0  0
  194.8830  175.1030  145.8610 C   0  0  2  0  0  3  0  0  0  0  0  0
  192.9030  176.3090  145.0450 N   0  0  0  0  0  0  0  0  0  0  0  0
  194.2560  176.4730  145.6030 C   0  0  1  0  0  3  0  0  0  0  0  0
  196.7340  173.5560  145.2350 N   0  0  0  0  0  0  0  0  0  0  0  0
  195.8450  175.1560  143.5410 C   0  0  0  0  0  2  0  0  0  0  0  0
  197.1290  173.2350  142.9300 N   0  0  0  0  0  0  0  0  0  0  0  0
  197.2210  172.8140  144.2930 C   0  0  0  0  0  0  0  0  0  0  0  0
  196.1330  174.8770  144.9950 C   0  0  1  0  0  3  0  0  0  0  0  0
  196.3770  174.4010  142.5740 C   0  0  0  0  0  0  0  0  0  0  0  0
  197.8590  171.5100  144.6270 C   0  0  0  0  0  1  0  0  0  0  0  0
  196.1550  174.7200  141.1520 C   0  0  0  0  0  0  0  0  0  0  0  0
  196.7640  175.9480  140.5370 C   0  0  0  0  0  1  0  0  0  0  0  0
  195.4530  173.9060  140.4250 N   0  0  0  0  0  0  0  0  0  0  0  0
  195.2060  174.1310  139.0890 O   0  0  0  0  0  0  0  0  0  0  0  0
  195.8270  170.5170  136.6990 C   0  0  0  0  0  1  0  0  0  0  0  0
  195.7950  173.2840  138.1170 C   0  0  1  0  0  3  0  0  0  0  0  0
  195.3860  171.8530  136.1140 C   0  0  1  0  0  3  0  0  0  0  0  0
  194.8230  172.7180  137.1590 N   0  0  0  0  0  0  0  0  0  0  0  0
  196.8550  174.0630  137.3560 C   0  0  0  0  0  2  0  0  0  0  0  0
  196.5340  172.5570  135.3830 C   0  0  0  0  0  2  0  0  0  0  0  0
  197.5510  173.1420  136.3620 C   0  0  0  0  0  2  0  0  0  0  0  0
  191.2920  174.0030  136.7920 C   0  0  0  0  0  3  0  0  0  0  0  0
  192.6830  173.9080  136.6830 C   0  0  0  0  0  3  0  0  0  0  0  0
  188.8420  173.1410  137.6400 Cl  0  0  0  0  0  0  0  0  0  0  0  0
  193.3820  172.8330  137.2540 C   0  0  0  0  0  0  0  0  0  0  0  0
  192.6440  171.8520  137.9410 C   0  0  0  0  0  3  0  0  0  0  0  0
  191.2540  171.9470  138.0590 C   0  0  0  0  0  3  0  0  0  0  0  0
  190.5780  173.0200  137.4810 C   0  0  0  0  0  0  0  0  0  0  0  0
  191.4150  174.6090  145.9590 C   0  0  0  0  0  2  0  0  0  0  0  0
  190.4580  175.7800  145.9270 C   0  0  0  0  0  2  0  0  0  0  0  0
  189.1100  175.3310  146.2410 N   0  0  0  0  0  2  0  0  0  0  0  0
  188.1830  176.1420  145.4630 C   0  0  2  0  0  3  0  0  0  0  0  0
  187.1200  175.0730  142.2460 S   0  0  0  0  0  0  0  0  0  0  0  0
  187.9250  177.4150  143.3760 N   0  0  0  0  0  2  0  0  0  0  0  0
  188.6220  175.1540  143.1880 C   0  0  1  0  0  3  0  0  0  0  0  0
  189.9870  174.5650  142.5520 S   0  0  0  0  0  0  0  0  0  0  0  0
  186.7610  176.7920  142.7440 C   0  0  1  0  0  3  0  0  0  0  0  0
  188.7050  176.3720  144.0350 C   0  0  2  0  0  3  0  0  0  0  0  0
  189.7610  172.7830  142.5400 C   0  0  2  0  0  3  0  0  0  0  0  0
  190.7700  172.1680  141.5880 C   0  0  2  0  0  3  0  0  0  0  0  0
  189.3340  172.3480  141.1570 C   0  0  0  0  0  2  0  0  0  0  0  0
  191.0030  170.7070  141.9450 C   0  0  0  0  0  2  0  0  0  0  0  0
  192.4590  169.2190  140.4970 C   0  0  0  0  0  0  0  0  0  0  0  0
  192.3380  170.2630  141.4290 C   0  0  0  0  0  0  0  0  0  0  0  0
  193.6780  168.9140  139.9820 N   0  0  0  0  0  0  0  0  0  0  0  0
  191.2650  168.4620  140.0260 C   0  0  0  0  0  1  0  0  0  0  0  0
  194.7260  170.6260  141.2820 C   0  0  0  0  0  3  0  0  0  0  0  0
  194.8020  169.5910  140.3500 C   0  0  0  0  0  3  0  0  0  0  0  0
  193.4860  170.9590  141.8220 C   0  0  0  0  0  3  0  0  0  0  0  0
  186.0070  178.2330  140.6870 N   0  0  0  0  0  0  0  0  0  0  0  0
  186.3440  177.5910  141.5920 C   0  0  0  0  0  0  0  0  0  0  0  0
  187.9770  177.4860  146.1530 C   0  0  0  0  0  2  0  0  0  0  0  0
  186.8280  177.3750  147.1380 C   0  0  0  0  0  1  0  0  0  0  0  0
  1  7  1  0  0  0  0
  3  7  1  0  0  0  0
  3  4  1  0  0  0  0
  3 34  1  1  0  0  0
  4  2  2  0  0  0  0
  6  4  1  6  0  0  0
  7  8  1  0  0  0  0
  8  6  1  0  0  0  0
  8  5  1  1  0  0  0
 11 12  1  0  0  0  0
 12 15  1  0  0  0  0
 12  9  2  0  0  0  0
 13 10  1  6  0  0  0
 13  9  1  0  0  0  0
 13  6  1  0  0  0  0
 14 11  2  0  0  0  0
 14 10  1  0  0  0  0
 16 14  1  0  0  0  0
 17 16  1  0  0  0  0
 18 16  2  0  0  0  0
 19 18  1  0  0  0  0
 21 19  1  1  0  0  0
 22 20  1  1  0  0  0
 22 23  1  0  0  0  0
 23 30  1  0  0  0  0
 23 21  1  0  0  0  0
 24 21  1  0  0  0  0
 25 22  1  0  0  0  0
 25 26  1  0  0  0  0
 26 24  1  0  0  0  0
 27 33  1  0  0  0  0
 28 27  2  0  0  0  0
 28 30  1  0  0  0  0
 30 31  2  0  0  0  0
 31 32  1  0  0  0  0
 33 29  1  0  0  0  0
 33 32  2  0  0  0  0
 35 34  1  0  0  0  0
 35 36  1  0  0  0  0
 37 57  1  1  0  0  0
 37 36  1  0  0  0  0
 38 42  1  0  0  0  0
 38 40  1  0  0  0  0
 39 43  1  0  0  0  0
 40 41  1  6  0  0  0
 40 43  1  0  0  0  0
 42 56  1  6  0  0  0
 42 39  1  0  0  0  0
 43 37  1  1  0  0  0
 44 41  1  6  0  0  0
 45 47  1  1  0  0  0
 45 44  1  0  0  0  0
 46 45  1  0  0  0  0
 46 44  1  0  0  0  0
 48 49  1  0  0  0  0
 49 54  2  0  0  0  0
 49 47  1  0  0  0  0
 50 53  1  0  0  0  0
 50 48  2  0  0  0  0
 51 48  1  0  0  0  0
 52 54  1  0  0  0  0
 53 52  2  0  0  0  0
 55 56  3  0  0  0  0
 57 58  1  0  0  0  0
M  END
>  <MODEL>
2

>  <REMARK>
 VINA RESULT:      -6.5      1.981      2.630
  Name = 
  15 active torsions:
  status: ('A' for Active; 'I' for Inactive)
    1  A    between atoms: C_2  and  C_25
    2  A    between atoms: C_5  and  C_7
    3  A    between atoms: C_5  and  N_8
    4  A    between atoms: C_7  and  C_22
    5  A    between atoms: N_8  and  C_15
    6  A    between atoms: C_9  and  O_39
    7  A    between atoms: N_12  and  C_49
    8  A    between atoms: C_14  and  C_15
    9  A    between atoms: C_15  and  C_56
   10  A    between atoms: C_17  and  C_46
   11  A    between atoms: C_18  and  S_43
   12  A    between atoms: C_25  and  C_28
   13  A    between atoms: N_35  and  O_39
   14  A    between atoms: C_40  and  C_45
   15  A    between atoms: C_47  and  C_54
                            x       y       z     vdW  Elec       q    Type
                         _______ _______ _______ _____ _____    ______ ____

>  <TORSDO>
F 15

$$$$
=
 OpenBabel11042413423D

 58 64  0  0  1  0  0  0  0  0999 V2000
  196.7430  176.7100  143.1700 C   0  0  0  0  0  1  0  0  0  0  0  0
  195.5170  172.4450  143.4350 C   0  0  0  0  0  2  0  0  0  0  0  0
  196.8120  174.4230  142.6590 C   0  0  2  0  0  3  0  0  0  0  0  0
  195.5600  173.6630  142.8850 C   0  0  0  0  0  0  0  0  0  0  0  0
  194.6050  175.9230  140.5080 C   0  0  0  0  0  1  0  0  0  0  0  0
  194.3640  174.4410  142.5000 C   0  0  2  0  0  3  0  0  0  0  0  0
  196.4210  175.7360  142.1420 N   0  0  0  0  0  0  0  0  0  0  0  0
  194.9570  175.7490  141.9780 C   0  0  1  0  0  3  0  0  0  0  0  0
  194.1720  175.1300  144.8880 N   0  0  0  0  0  0  0  0  0  0  0  0
  192.2810  175.5770  143.3240 C   0  0  0  0  0  3  0  0  0  0  0  0
  192.5030  176.7150  145.4150 N   0  0  0  0  0  2  0  0  0  0  0  0
  193.7330  176.0420  145.6950 C   0  0  0  0  0  0  0  0  0  0  0  0
  193.4320  174.6780  143.6990 C   0  0  1  0  0  3  0  0  0  0  0  0
  191.8170  176.4980  144.1770 C   0  0  0  0  0  0  0  0  0  0  0  0
  194.5210  176.4060  146.9050 C   0  0  0  0  0  1  0  0  0  0  0  0
  190.6450  177.3250  143.8370 C   0  0  0  0  0  0  0  0  0  0  0  0
  190.4060  177.7730  142.4240 C   0  0  0  0  0  1  0  0  0  0  0  0
  189.7980  177.6330  144.7720 N   0  0  0  0  0  0  0  0  0  0  0  0
  188.6770  178.3970  144.5340 O   0  0  0  0  0  0  0  0  0  0  0  0
  184.4210  178.5650  145.5410 C   0  0  0  0  0  1  0  0  0  0  0  0
  187.4890  178.1400  145.2630 C   0  0  1  0  0  3  0  0  0  0  0  0
  185.1480  177.2840  145.1500 C   0  0  1  0  0  3  0  0  0  0  0  0
  186.3950  177.5910  144.4370 N   0  0  0  0  0  0  0  0  0  0  0  0
  187.7980  177.1750  146.3950 C   0  0  0  0  0  2  0  0  0  0  0  0
  185.4210  176.3940  146.3670 C   0  0  0  0  0  2  0  0  0  0  0  0
  186.5460  176.9540  147.2350 C   0  0  0  0  0  2  0  0  0  0  0  0
  185.7060  178.2000  140.7750 C   0  0  0  0  0  3  0  0  0  0  0  0
  185.6840  178.3410  142.1670 C   0  0  0  0  0  3  0  0  0  0  0  0
  186.4720  176.9810  138.4530 Cl  0  0  0  0  0  0  0  0  0  0  0  0
  186.4090  177.4690  142.9930 C   0  0  0  0  0  0  0  0  0  0  0  0
  187.1590  176.4460  142.3840 C   0  0  0  0  0  3  0  0  0  0  0  0
  187.1770  176.2970  140.9930 C   0  0  0  0  0  3  0  0  0  0  0  0
  186.4540  177.1770  140.1890 C   0  0  0  0  0  0  0  0  0  0  0  0
  197.6780  173.7120  141.6280 C   0  0  0  0  0  2  0  0  0  0  0  0
  196.8430  172.7020  140.8720 C   0  0  0  0  0  2  0  0  0  0  0  0
  196.6550  173.1400  139.4970 N   0  0  0  0  0  2  0  0  0  0  0  0
  195.9110  172.0980  138.8020 C   0  0  2  0  0  3  0  0  0  0  0  0
  194.2180  174.7380  137.1330 S   0  0  0  0  0  0  0  0  0  0  0  0
  196.6320  173.4980  136.9140 N   0  0  0  0  0  2  0  0  0  0  0  0
  194.3230  172.9680  137.0520 C   0  0  1  0  0  3  0  0  0  0  0  0
  193.4020  172.1700  135.9890 S   0  0  0  0  0  0  0  0  0  0  0  0
  196.0400  174.8020  137.2180 C   0  0  1  0  0  3  0  0  0  0  0  0
  195.6910  172.4590  137.3240 C   0  0  2  0  0  3  0  0  0  0  0  0
  191.7280  172.3210  136.6190 C   0  0  2  0  0  3  0  0  0  0  0  0
  191.4290  171.1310  137.5120 C   0  0  2  0  0  3  0  0  0  0  0  0
  190.8970  171.1710  136.0990 C   0  0  0  0  0  2  0  0  0  0  0  0
  190.3030  171.4700  138.4770 C   0  0  0  0  0  2  0  0  0  0  0  0
  191.1020  172.2620  140.7510 C   0  0  0  0  0  0  0  0  0  0  0  0
  190.7470  171.2130  139.8860 C   0  0  0  0  0  0  0  0  0  0  0  0
  191.4030  171.9940  142.0470 N   0  0  0  0  0  0  0  0  0  0  0  0
  191.1140  173.6770  140.2840 C   0  0  0  0  0  1  0  0  0  0  0  0
  191.0430  169.6530  141.7110 C   0  0  0  0  0  3  0  0  0  0  0  0
  191.3790  170.7240  142.5410 C   0  0  0  0  0  3  0  0  0  0  0  0
  190.7270  169.9050  140.3790 C   0  0  0  0  0  3  0  0  0  0  0  0
  196.9960  176.5930  135.5580 N   0  0  0  0  0  0  0  0  0  0  0  0
  196.5690  175.8070  136.2950 C   0  0  0  0  0  0  0  0  0  0  0  0
  194.5640  171.8920  139.4830 C   0  0  0  0  0  2  0  0  0  0  0  0
  194.3420  170.4090  139.7220 C   0  0  0  0  0  1  0  0  0  0  0  0
  3 34  1  6  0  0  0
  3  4  1  0  0  0  0
  4  2  2  0  0  0  0
  6  4  1  1  0  0  0
  6 13  1  0  0  0  0
  7  3  1  0  0  0  0
  7  1  1  0  0  0  0
  8  5  1  6  0  0  0
  8  7  1  0  0  0  0
  8  6  1  0  0  0  0
  9 12  2  0  0  0  0
 10 14  2  0  0  0  0
 11 12  1  0  0  0  0
 12 15  1  0  0  0  0
 13 10  1  6  0  0  0
 13  9  1  0  0  0  0
 14 11  1  0  0  0  0
 16 14  1  0  0  0  0
 16 18  2  0  0  0  0
 17 16  1  0  0  0  0
 19 18  1  0  0  0  0
 21 19  1  6  0  0  0
 21 24  1  0  0  0  0
 22 20  1  1  0  0  0
 22 25  1  0  0  0  0
 23 22  1  0  0  0  0
 23 21  1  0  0  0  0
 24 26  1  0  0  0  0
 25 26  1  0  0  0  0
 27 28  1  0  0  0  0
 28 30  2  0  0  0  0
 29 33  1  0  0  0  0
 30 23  1  0  0  0  0
 31 30  1  0  0  0  0
 32 31  2  0  0  0  0
 33 27  2  0  0  0  0
 33 32  1  0  0  0  0
 35 34  1  0  0  0  0
 36 35  1  0  0  0  0
 37 57  1  1  0  0  0
 37 36  1  0  0  0  0
 38 42  1  0  0  0  0
 39 42  1  0  0  0  0
 39 43  1  0  0  0  0
 40 41  1  6  0  0  0
 40 38  1  0  0  0  0
 40 43  1  0  0  0  0
 42 56  1  6  0  0  0
 43 37  1  1  0  0  0
 44 41  1  6  0  0  0
 44 45  1  0  0  0  0
 45 47  1  1  0  0  0
 46 44  1  0  0  0  0
 46 45  1  0  0  0  0
 47 49  1  0  0  0  0
 48 50  1  0  0  0  0
 49 54  1  0  0  0  0
 49 48  2  0  0  0  0
 50 53  2  0  0  0  0
 51 48  1  0  0  0  0
 52 53  1  0  0  0  0
 54 52  2  0  0  0  0
 55 56  3  0  0  0  0
 57 58  1  0  0  0  0
M  END
>  <MODEL>
3

>  <REMARK>
 VINA RESULT:      -6.4      2.985      9.153
  Name = 
  15 active torsions:
  status: ('A' for Active; 'I' for Inactive)
    1  A    between atoms: C_2  and  C_25
    2  A    between atoms: C_5  and  C_7
    3  A    between atoms: C_5  and  N_8
    4  A    between atoms: C_7  and  C_22
    5  A    between atoms: N_8  and  C_15
    6  A    between atoms: C_9  and  O_39
    7  A    between atoms: N_12  and  C_49
    8  A    between atoms: C_14  and  C_15
    9  A    between atoms: C_15  and  C_56
   10  A    between atoms: C_17  and  C_46
   11  A    between atoms: C_18  and  S_43
   12  A    between atoms: C_25  and  C_28
   13  A    between atoms: N_35  and  O_39
   14  A    between atoms: C_40  and  C_45
   15  A    between atoms: C_47  and  C_54
                            x       y       z     vdW  Elec       q    Type
                         _______ _______ _______ _____ _____    ______ ____

>  <TORSDO>
F 15

$$$$
=
 OpenBabel11042413423D

 58 64  0  0  1  0  0  0  0  0999 V2000
  192.6820  174.4360  142.9790 C   0  0  0  0  0  1  0  0  0  0  0  0
  194.1140  177.5760  145.7810 C   0  0  0  0  0  2  0  0  0  0  0  0
  194.1840  176.0140  143.8460 C   0  0  2  0  0  3  0  0  0  0  0  0
  194.0370  176.3370  145.2850 C   0  0  0  0  0  0  0  0  0  0  0  0
  194.8030  173.0100  145.3760 C   0  0  0  0  0  1  0  0  0  0  0  0
  193.7200  175.1400  146.0910 C   0  0  2  0  0  3  0  0  0  0  0  0
  193.9300  174.5780  143.7090 N   0  0  0  0  0  0  0  0  0  0  0  0
  193.7110  174.0180  145.0530 C   0  0  1  0  0  3  0  0  0  0  0  0
  192.4390  176.1510  147.9750 N   0  0  0  0  0  0  0  0  0  0  0  0
  191.2790  175.6670  145.8210 C   0  0  0  0  0  3  0  0  0  0  0  0
  190.3800  177.1760  147.4420 N   0  0  0  0  0  2  0  0  0  0  0  0
  191.5160  177.0020  148.2920 C   0  0  0  0  0  0  0  0  0  0  0  0
  192.3610  175.2750  146.7960 C   0  0  1  0  0  3  0  0  0  0  0  0
  190.3130  176.5260  146.1680 C   0  0  0  0  0  0  0  0  0  0  0  0
  191.6490  177.8170  149.5320 C   0  0  0  0  0  1  0  0  0  0  0  0
  189.2160  176.8500  145.2390 C   0  0  0  0  0  0  0  0  0  0  0  0
  189.4830  177.6080  143.9710 C   0  0  0  0  0  1  0  0  0  0  0  0
  188.0150  176.4400  145.5140 N   0  0  0  0  0  0  0  0  0  0  0  0
  186.9390  176.6980  144.6950 O   0  0  0  0  0  0  0  0  0  0  0  0
  185.2670  180.7360  144.4660 C   0  0  0  0  0  1  0  0  0  0  0  0
  186.0750  177.7800  144.9950 C   0  0  1  0  0  3  0  0  0  0  0  0
  184.5040  179.4800  144.0640 C   0  0  1  0  0  3  0  0  0  0  0  0
  185.4300  178.3700  143.8040 N   0  0  0  0  0  0  0  0  0  0  0  0
  185.0050  177.3090  145.9660 C   0  0  0  0  0  2  0  0  0  0  0  0
  183.4630  179.0880  145.1180 C   0  0  0  0  0  2  0  0  0  0  0  0
  184.1180  178.4840  146.3590 C   0  0  0  0  0  2  0  0  0  0  0  0
  187.3300  177.4910  140.6630 C   0  0  0  0  0  3  0  0  0  0  0  0
  187.0530  177.8010  141.9990 C   0  0  0  0  0  3  0  0  0  0  0  0
  186.6290  177.0510  138.0590 Cl  0  0  0  0  0  0  0  0  0  0  0  0
  185.7380  178.0400  142.4280 C   0  0  0  0  0  0  0  0  0  0  0  0
  184.7050  177.9590  141.4770 C   0  0  0  0  0  3  0  0  0  0  0  0
  184.9780  177.6560  140.1400 C   0  0  0  0  0  3  0  0  0  0  0  0
  186.2900  177.4180  139.7340 C   0  0  0  0  0  0  0  0  0  0  0  0
  195.6010  176.3220  143.3820 C   0  0  0  0  0  2  0  0  0  0  0  0
  195.6640  176.2730  141.8700 C   0  0  0  0  0  2  0  0  0  0  0  0
  195.6160  174.8930  141.4130 N   0  0  0  0  0  2  0  0  0  0  0  0
  196.6730  174.7200  140.4260 C   0  0  2  0  0  3  0  0  0  0  0  0
  195.1620  175.0300  137.2250 S   0  0  0  0  0  0  0  0  0  0  0  0
  197.2720  173.6730  138.2830 N   0  0  0  0  0  2  0  0  0  0  0  0
  194.9670  174.0560  138.6970 C   0  0  1  0  0  3  0  0  0  0  0  0
  193.7610  172.9820  138.7790 S   0  0  0  0  0  0  0  0  0  0  0  0
  196.9580  174.7130  137.3020 C   0  0  1  0  0  3  0  0  0  0  0  0
  196.2620  173.7150  139.3370 C   0  0  2  0  0  3  0  0  0  0  0  0
  192.2660  173.9700  138.8970 C   0  0  2  0  0  3  0  0  0  0  0  0
  191.0670  173.0420  138.9520 C   0  0  2  0  0  3  0  0  0  0  0  0
  191.4240  173.7430  137.6630 C   0  0  0  0  0  2  0  0  0  0  0  0
  189.8850  173.7520  139.5940 C   0  0  0  0  0  2  0  0  0  0  0  0
  189.9740  171.9040  141.3300 C   0  0  0  0  0  0  0  0  0  0  0  0
  189.6740  173.2320  140.9850 C   0  0  0  0  0  0  0  0  0  0  0  0
  189.8600  171.5010  142.6210 N   0  0  0  0  0  0  0  0  0  0  0  0
  190.4580  170.9310  140.3090 C   0  0  0  0  0  1  0  0  0  0  0  0
  189.1330  173.6760  143.3010 C   0  0  0  0  0  3  0  0  0  0  0  0
  189.4520  172.3520  143.6040 C   0  0  0  0  0  3  0  0  0  0  0  0
  189.2450  174.1130  141.9830 C   0  0  0  0  0  3  0  0  0  0  0  0
  197.8940  174.0040  134.9580 N   0  0  0  0  0  0  0  0  0  0  0  0
  197.4740  174.3210  135.9910 C   0  0  0  0  0  0  0  0  0  0  0  0
  197.9410  174.2330  141.1170 C   0  0  0  0  0  2  0  0  0  0  0  0
  197.6130  173.0330  141.9860 C   0  0  0  0  0  1  0  0  0  0  0  0
  1  7  1  0  0  0  0
  3 34  1  1  0  0  0
  3  4  1  0  0  0  0
  4  2  2  0  0  0  0
  6  4  1  6  0  0  0
  6 13  1  0  0  0  0
  7  3  1  0  0  0  0
  7  8  1  0  0  0  0
  8  5  1  1  0  0  0
  8  6  1  0  0  0  0
  9 12  2  0  0  0  0
 10 14  2  0  0  0  0
 11 12  1  0  0  0  0
 12 15  1  0  0  0  0
 13 10  1  6  0  0  0
 13  9  1  0  0  0  0
 14 11  1  0  0  0  0
 16 18  2  0  0  0  0
 16 14  1  0  0  0  0
 17 16  1  0  0  0  0
 19 18  1  0  0  0  0
 21 19  1  6  0  0  0
 21 24  1  0  0  0  0
 22 20  1  1  0  0  0
 22 25  1  0  0  0  0
 23 22  1  0  0  0  0
 23 21  1  0  0  0  0
 24 26  1  0  0  0  0
 25 26  1  0  0  0  0
 27 28  1  0  0  0  0
 28 30  2  0  0  0  0
 29 33  1  0  0  0  0
 30 23  1  0  0  0  0
 31 30  1  0  0  0  0
 32 31  2  0  0  0  0
 33 32  1  0  0  0  0
 33 27  2  0  0  0  0
 35 34  1  0  0  0  0
 36 35  1  0  0  0  0
 37 57  1  1  0  0  0
 37 36  1  0  0  0  0
 38 42  1  0  0  0  0
 38 40  1  0  0  0  0
 39 43  1  0  0  0  0
 40 41  1  6  0  0  0
 40 43  1  0  0  0  0
 42 56  1  6  0  0  0
 42 39  1  0  0  0  0
 43 37  1  1  0  0  0
 44 41  1  6  0  0  0
 44 45  1  0  0  0  0
 45 47  1  1  0  0  0
 46 44  1  0  0  0  0
 46 45  1  0  0  0  0
 47 49  1  0  0  0  0
 48 50  1  0  0  0  0
 49 48  2  0  0  0  0
 49 54  1  0  0  0  0
 50 53  2  0  0  0  0
 51 48  1  0  0  0  0
 52 53  1  0  0  0  0
 54 52  2  0  0  0  0
 55 56  3  0  0  0  0
 57 58  1  0  0  0  0
M  END
>  <MODEL>
4

>  <REMARK>
 VINA RESULT:      -6.2      3.102      9.451
  Name = 
  15 active torsions:
  status: ('A' for Active; 'I' for Inactive)
    1  A    between atoms: C_2  and  C_25
    2  A    between atoms: C_5  and  C_7
    3  A    between atoms: C_5  and  N_8
    4  A    between atoms: C_7  and  C_22
    5  A    between atoms: N_8  and  C_15
    6  A    between atoms: C_9  and  O_39
    7  A    between atoms: N_12  and  C_49
    8  A    between atoms: C_14  and  C_15
    9  A    between atoms: C_15  and  C_56
   10  A    between atoms: C_17  and  C_46
   11  A    between atoms: C_18  and  S_43
   12  A    between atoms: C_25  and  C_28
   13  A    between atoms: N_35  and  O_39
   14  A    between atoms: C_40  and  C_45
   15  A    between atoms: C_47  and  C_54
                            x       y       z     vdW  Elec       q    Type
                         _______ _______ _______ _____ _____    ______ ____

>  <TORSDO>
F 15

$$$$
=
 OpenBabel11042413423D

 58 64  0  0  1  0  0  0  0  0999 V2000
  192.3340  174.1930  143.0600 C   0  0  0  0  0  1  0  0  0  0  0  0
  194.0710  177.3250  145.6920 C   0  0  0  0  0  2  0  0  0  0  0  0
  193.9650  175.6980  143.8120 C   0  0  2  0  0  3  0  0  0  0  0  0
  193.8960  176.0780  145.2440 C   0  0  0  0  0  0  0  0  0  0  0  0
  194.4550  172.7130  145.4230 C   0  0  0  0  0  1  0  0  0  0  0  0
  193.5380  174.9310  146.1030 C   0  0  2  0  0  3  0  0  0  0  0  0
  193.6170  174.2780  143.7360 N   0  0  0  0  0  0  0  0  0  0  0  0
  193.4170  173.7780  145.1060 C   0  0  1  0  0  3  0  0  0  0  0  0
  192.3960  176.0980  147.9860 N   0  0  0  0  0  0  0  0  0  0  0  0
  191.1210  175.5860  145.9050 C   0  0  0  0  0  3  0  0  0  0  0  0
  190.3760  177.2140  147.4870 N   0  0  0  0  0  2  0  0  0  0  0  0
  191.5360  177.0140  148.2980 C   0  0  0  0  0  0  0  0  0  0  0  0
  192.2190  175.1750  146.8540 C   0  0  1  0  0  3  0  0  0  0  0  0
  190.2200  176.5130  146.2490 C   0  0  0  0  0  0  0  0  0  0  0  0
  191.7660  177.8750  149.4920 C   0  0  0  0  0  1  0  0  0  0  0  0
  189.1050  176.8580  145.3490 C   0  0  0  0  0  0  0  0  0  0  0  0
  189.2630  177.9240  144.3040 C   0  0  0  0  0  1  0  0  0  0  0  0
  187.9890  176.2020  145.4480 N   0  0  0  0  0  0  0  0  0  0  0  0
  186.9030  176.4610  144.6410 O   0  0  0  0  0  0  0  0  0  0  0  0
  185.4550  180.5740  144.2640 C   0  0  0  0  0  1  0  0  0  0  0  0
  186.0970  177.5980  144.8980 C   0  0  1  0  0  3  0  0  0  0  0  0
  184.6270  179.3480  143.8970 C   0  0  1  0  0  3  0  0  0  0  0  0
  185.4930  178.1810  143.6820 N   0  0  0  0  0  0  0  0  0  0  0  0
  184.9950  177.2180  145.8740 C   0  0  0  0  0  2  0  0  0  0  0  0
  183.5590  179.0480  144.9530 C   0  0  0  0  0  2  0  0  0  0  0  0
  184.1710  178.4510  146.2190 C   0  0  0  0  0  2  0  0  0  0  0  0
  187.1430  176.5760  140.6900 C   0  0  0  0  0  3  0  0  0  0  0  0
  186.8660  176.9360  142.0130 C   0  0  0  0  0  3  0  0  0  0  0  0
  186.7010  176.6400  137.9940 Cl  0  0  0  0  0  0  0  0  0  0  0  0
  185.7940  177.7890  142.3210 C   0  0  0  0  0  0  0  0  0  0  0  0
  185.0050  178.2720  141.2610 C   0  0  0  0  0  3  0  0  0  0  0  0
  185.2840  177.9200  139.9370 C   0  0  0  0  0  3  0  0  0  0  0  0
  186.3490  177.0690  139.6520 C   0  0  0  0  0  0  0  0  0  0  0  0
  195.3790  175.9000  143.2840 C   0  0  0  0  0  2  0  0  0  0  0  0
  195.3910  175.7230  141.7810 C   0  0  0  0  0  2  0  0  0  0  0  0
  195.7230  174.3470  141.4430 N   0  0  0  0  0  2  0  0  0  0  0  0
  197.1280  174.3160  141.0580 C   0  0  2  0  0  3  0  0  0  0  0  0
  195.3060  174.2890  138.0080 S   0  0  0  0  0  0  0  0  0  0  0  0
  197.9170  174.5310  138.7400 N   0  0  0  0  0  2  0  0  0  0  0  0
  196.0460  173.1220  139.1230 C   0  0  1  0  0  3  0  0  0  0  0  0
  195.8930  171.5400  138.8270 S   0  0  0  0  0  0  0  0  0  0  0  0
  196.8400  175.2760  138.0860 C   0  0  1  0  0  3  0  0  0  0  0  0
  197.3210  173.6120  139.7060 C   0  0  2  0  0  3  0  0  0  0  0  0
  194.1640  171.1730  139.1460 C   0  0  2  0  0  3  0  0  0  0  0  0
  194.0590  169.7780  139.7330 C   0  0  2  0  0  3  0  0  0  0  0  0
  193.7360  170.0130  138.2770 C   0  0  0  0  0  2  0  0  0  0  0  0
  192.7610  169.6360  140.5140 C   0  0  0  0  0  2  0  0  0  0  0  0
  192.1810  170.1090  142.9380 C   0  0  0  0  0  0  0  0  0  0  0  0
  193.0560  169.5640  141.9820 C   0  0  0  0  0  0  0  0  0  0  0  0
  192.4370  169.9370  144.2600 N   0  0  0  0  0  0  0  0  0  0  0  0
  190.9480  170.8400  142.5290 C   0  0  0  0  0  1  0  0  0  0  0  0
  194.4300  168.7050  143.7780 C   0  0  0  0  0  3  0  0  0  0  0  0
  193.5310  169.2510  144.6950 C   0  0  0  0  0  3  0  0  0  0  0  0
  194.1870  168.8670  142.4170 C   0  0  0  0  0  3  0  0  0  0  0  0
  197.5970  176.0110  135.6860 N   0  0  0  0  0  0  0  0  0  0  0  0
  197.2670  175.6800  136.7470 C   0  0  0  0  0  0  0  0  0  0  0  0
  197.9340  173.5920  142.1300 C   0  0  0  0  0  2  0  0  0  0  0  0
  197.0300  172.6260  142.8740 C   0  0  0  0  0  1  0  0  0  0  0  0
  1  7  1  0  0  0  0
  3 34  1  1  0  0  0
  3  4  1  0  0  0  0
  4  2  2  0  0  0  0
  6  4  1  6  0  0  0
  6 13  1  0  0  0  0
  7  3  1  0  0  0  0
  7  8  1  0  0  0  0
  8  5  1  1  0  0  0
  8  6  1  0  0  0  0
  9 12  2  0  0  0  0
 10 14  2  0  0  0  0
 11 12  1  0  0  0  0
 12 15  1  0  0  0  0
 13 10  1  6  0  0  0
 13  9  1  0  0  0  0
 14 11  1  0  0  0  0
 16 18  2  0  0  0  0
 16 14  1  0  0  0  0
 17 16  1  0  0  0  0
 19 18  1  0  0  0  0
 21 19  1  6  0  0  0
 21 24  1  0  0  0  0
 22 20  1  1  0  0  0
 22 25  1  0  0  0  0
 23 22  1  0  0  0  0
 23 21  1  0  0  0  0
 24 26  1  0  0  0  0
 25 26  1  0  0  0  0
 27 28  1  0  0  0  0
 28 30  2  0  0  0  0
 29 33  1  0  0  0  0
 30 23  1  0  0  0  0
 31 30  1  0  0  0  0
 32 31  2  0  0  0  0
 33 32  1  0  0  0  0
 33 27  2  0  0  0  0
 35 34  1  0  0  0  0
 36 35  1  0  0  0  0
 37 36  1  0  0  0  0
 37 57  1  1  0  0  0
 38 42  1  0  0  0  0
 38 40  1  0  0  0  0
 39 43  1  0  0  0  0
 40 41  1  6  0  0  0
 40 43  1  0  0  0  0
 42 56  1  6  0  0  0
 42 39  1  0  0  0  0
 43 37  1  1  0  0  0
 44 41  1  6  0  0  0
 44 45  1  0  0  0  0
 45 47  1  1  0  0  0
 46 44  1  0  0  0  0
 46 45  1  0  0  0  0
 47 49  1  0  0  0  0
 48 50  1  0  0  0  0
 49 54  1  0  0  0  0
 49 48  2  0  0  0  0
 50 53  2  0  0  0  0
 51 48  1  0  0  0  0
 52 53  1  0  0  0  0
 54 52  2  0  0  0  0
 55 56  3  0  0  0  0
 57 58  1  0  0  0  0
M  END
>  <MODEL>
5

>  <REMARK>
 VINA RESULT:      -6.1      3.335      9.520
  Name = 
  15 active torsions:
  status: ('A' for Active; 'I' for Inactive)
    1  A    between atoms: C_2  and  C_25
    2  A    between atoms: C_5  and  C_7
    3  A    between atoms: C_5  and  N_8
    4  A    between atoms: C_7  and  C_22
    5  A    between atoms: N_8  and  C_15
    6  A    between atoms: C_9  and  O_39
    7  A    between atoms: N_12  and  C_49
    8  A    between atoms: C_14  and  C_15
    9  A    between atoms: C_15  and  C_56
   10  A    between atoms: C_17  and  C_46
   11  A    between atoms: C_18  and  S_43
   12  A    between atoms: C_25  and  C_28
   13  A    between atoms: N_35  and  O_39
   14  A    between atoms: C_40  and  C_45
   15  A    between atoms: C_47  and  C_54
                            x       y       z     vdW  Elec       q    Type
                         _______ _______ _______ _____ _____    ______ ____

>  <TORSDO>
F 15

$$$$
=
 OpenBabel11042413423D

 58 64  0  0  1  0  0  0  0  0999 V2000
  190.3860  172.4370  144.0120 C   0  0  0  0  0  1  0  0  0  0  0  0
  191.3790  173.8810  139.9270 C   0  0  0  0  0  2  0  0  0  0  0  0
  190.6270  174.0140  142.2950 C   0  0  2  0  0  3  0  0  0  0  0  0
  190.5620  173.4900  140.9090 C   0  0  0  0  0  0  0  0  0  0  0  0
  187.4570  172.7230  142.1100 C   0  0  0  0  0  1  0  0  0  0  0  0
  189.5380  172.4340  140.7660 C   0  0  2  0  0  3  0  0  0  0  0  0
  189.6420  173.2630  143.0760 N   0  0  0  0  0  0  0  0  0  0  0  0
  188.9310  172.3500  142.1660 C   0  0  1  0  0  3  0  0  0  0  0  0
  189.9760  170.8450  138.8960 N   0  0  0  0  0  0  0  0  0  0  0  0
  191.5950  170.9930  140.7870 C   0  0  0  0  0  3  0  0  0  0  0  0
  192.1790  170.0240  138.6820 N   0  0  0  0  0  2  0  0  0  0  0  0
  190.8900  170.3220  138.1420 C   0  0  0  0  0  0  0  0  0  0  0  0
  190.1610  171.0960  140.3340 C   0  0  1  0  0  3  0  0  0  0  0  0
  192.5260  170.4250  140.0120 C   0  0  0  0  0  0  0  0  0  0  0  0
  190.6040  170.0520  136.7060 C   0  0  0  0  0  1  0  0  0  0  0  0
  193.9110  170.2590  140.4870 C   0  0  0  0  0  0  0  0  0  0  0  0
  195.0270  169.9840  139.5200 C   0  0  0  0  0  1  0  0  0  0  0  0
  194.1630  170.3880  141.7540 N   0  0  0  0  0  0  0  0  0  0  0  0
  195.4300  170.2520  142.2750 O   0  0  0  0  0  0  0  0  0  0  0  0
  197.3930  169.6310  146.1380 C   0  0  0  0  0  1  0  0  0  0  0  0
  195.5930  169.7960  143.6070 C   0  0  1  0  0  3  0  0  0  0  0  0
  196.1200  170.4490  145.9570 C   0  0  1  0  0  3  0  0  0  0  0  0
  195.9640  170.8650  144.5570 N   0  0  0  0  0  0  0  0  0  0  0  0
  194.3040  169.1370  144.0700 C   0  0  0  0  0  2  0  0  0  0  0  0
  194.8830  169.6860  146.4410 C   0  0  0  0  0  2  0  0  0  0  0  0
  194.4930  168.5720  145.4720 C   0  0  0  0  0  2  0  0  0  0  0  0
  197.9340  173.9030  143.4880 C   0  0  0  0  0  3  0  0  0  0  0  0
  197.6160  172.5820  143.8220 C   0  0  0  0  0  3  0  0  0  0  0  0
  197.3390  176.5470  143.1390 Cl  0  0  0  0  0  0  0  0  0  0  0  0
  196.3130  172.2250  144.2010 C   0  0  0  0  0  0  0  0  0  0  0  0
  195.3330  173.2330  144.2380 C   0  0  0  0  0  3  0  0  0  0  0  0
  195.6480  174.5560  143.9120 C   0  0  0  0  0  3  0  0  0  0  0  0
  196.9470  174.8900  143.5340 C   0  0  0  0  0  0  0  0  0  0  0  0
  190.2630  175.4930  142.3130 C   0  0  0  0  0  2  0  0  0  0  0  0
  188.8180  175.6670  141.9000 C   0  0  0  0  0  2  0  0  0  0  0  0
  188.4520  177.0740  141.9410 N   0  0  0  0  0  2  0  0  0  0  0  0
  187.1800  177.2190  141.2470 C   0  0  2  0  0  3  0  0  0  0  0  0
  185.0610  179.0090  143.4670 S   0  0  0  0  0  0  0  0  0  0  0  0
  184.7360  177.1520  141.5020 N   0  0  0  0  0  2  0  0  0  0  0  0
  186.0220  177.5160  143.4640 C   0  0  1  0  0  3  0  0  0  0  0  0
  186.0950  176.6200  144.8070 S   0  0  0  0  0  0  0  0  0  0  0  0
  184.3950  178.5360  141.8340 C   0  0  1  0  0  3  0  0  0  0  0  0
  186.0020  176.8220  142.1510 C   0  0  2  0  0  3  0  0  0  0  0  0
  187.0820  177.5850  145.9560 C   0  0  2  0  0  3  0  0  0  0  0  0
  187.9880  176.6480  146.7330 C   0  0  2  0  0  3  0  0  0  0  0  0
  186.7290  177.1850  147.3700 C   0  0  0  0  0  2  0  0  0  0  0  0
  189.1860  177.4110  147.2780 C   0  0  0  0  0  2  0  0  0  0  0  0
  191.0720  177.1420  145.6030 C   0  0  0  0  0  0  0  0  0  0  0  0
  190.4560  176.7670  146.8090 C   0  0  0  0  0  0  0  0  0  0  0  0
  192.2710  176.6040  145.2640 N   0  0  0  0  0  0  0  0  0  0  0  0
  190.4540  178.1570  144.7030 C   0  0  0  0  0  1  0  0  0  0  0  0
  192.3160  175.2880  147.2600 C   0  0  0  0  0  3  0  0  0  0  0  0
  192.9010  175.6950  146.0600 C   0  0  0  0  0  3  0  0  0  0  0  0
  191.0880  175.8280  147.6300 C   0  0  0  0  0  3  0  0  0  0  0  0
  181.7900  178.8280  141.7570 N   0  0  0  0  0  0  0  0  0  0  0  0
  182.9420  178.7050  141.7970 C   0  0  0  0  0  0  0  0  0  0  0  0
  187.1800  176.3490  139.9960 C   0  0  0  0  0  2  0  0  0  0  0  0
  186.6890  177.1660  138.8150 C   0  0  0  0  0  1  0  0  0  0  0  0
  2  4  2  0  0  0  0
  3 34  1  6  0  0  0
  3  7  1  0  0  0  0
  4  3  1  0  0  0  0
  6  4  1  1  0  0  0
  6  8  1  0  0  0  0
  7  1  1  0  0  0  0
  8  5  1  6  0  0  0
  8  7  1  0  0  0  0
  9 13  1  0  0  0  0
 11 14  1  0  0  0  0
 12 11  1  0  0  0  0
 12  9  2  0  0  0  0
 13  6  1  0  0  0  0
 13 10  1  6  0  0  0
 14 16  1  0  0  0  0
 14 10  2  0  0  0  0
 15 12  1  0  0  0  0
 16 18  2  0  0  0  0
 17 16  1  0  0  0  0
 18 19  1  0  0  0  0
 21 19  1  6  0  0  0
 21 24  1  0  0  0  0
 21 23  1  0  0  0  0
 22 20  1  6  0  0  0
 22 25  1  0  0  0  0
 23 22  1  0  0  0  0
 24 26  1  0  0  0  0
 26 25  1  0  0  0  0
 27 33  2  0  0  0  0
 27 28  1  0  0  0  0
 28 30  2  0  0  0  0
 29 33  1  0  0  0  0
 30 31  1  0  0  0  0
 30 23  1  0  0  0  0
 32 31  2  0  0  0  0
 33 32  1  0  0  0  0
 35 36  1  0  0  0  0
 35 34  1  0  0  0  0
 37 57  1  6  0  0  0
 37 36  1  0  0  0  0
 39 42  1  0  0  0  0
 39 43  1  0  0  0  0
 40 38  1  0  0  0  0
 40 41  1  1  0  0  0
 42 56  1  1  0  0  0
 42 38  1  0  0  0  0
 43 37  1  6  0  0  0
 43 40  1  0  0  0  0
 44 41  1  6  0  0  0
 44 45  1  0  0  0  0
 44 46  1  0  0  0  0
 45 47  1  1  0  0  0
 45 46  1  0  0  0  0
 48 49  1  0  0  0  0
 49 47  1  0  0  0  0
 49 54  2  0  0  0  0
 50 48  2  0  0  0  0
 50 53  1  0  0  0  0
 51 48  1  0  0  0  0
 52 54  1  0  0  0  0
 53 52  2  0  0  0  0
 55 56  3  0  0  0  0
 58 57  1  0  0  0  0
M  END
>  <MODEL>
6

>  <REMARK>
 VINA RESULT:      -6.0      3.622      7.516
  Name = 
  15 active torsions:
  status: ('A' for Active; 'I' for Inactive)
    1  A    between atoms: C_2  and  C_25
    2  A    between atoms: C_5  and  C_7
    3  A    between atoms: C_5  and  N_8
    4  A    between atoms: C_7  and  C_22
    5  A    between atoms: N_8  and  C_15
    6  A    between atoms: C_9  and  O_39
    7  A    between atoms: N_12  and  C_49
    8  A    between atoms: C_14  and  C_15
    9  A    between atoms: C_15  and  C_56
   10  A    between atoms: C_17  and  C_46
   11  A    between atoms: C_18  and  S_43
   12  A    between atoms: C_25  and  C_28
   13  A    between atoms: N_35  and  O_39
   14  A    between atoms: C_40  and  C_45
   15  A    between atoms: C_47  and  C_54
                            x       y       z     vdW  Elec       q    Type
                         _______ _______ _______ _____ _____    ______ ____

>  <TORSDO>
F 15

$$$$
=
 OpenBabel11042413423D

 58 64  0  0  1  0  0  0  0  0999 V2000
  193.0370  177.0190  143.7360 C   0  0  0  0  0  1  0  0  0  0  0  0
  193.8800  173.0960  145.6480 C   0  0  0  0  0  2  0  0  0  0  0  0
  192.6450  175.2010  145.1620 C   0  0  2  0  0  3  0  0  0  0  0  0
  193.8400  174.4300  145.5850 C   0  0  0  0  0  0  0  0  0  0  0  0
  194.4860  177.5220  146.8860 C   0  0  0  0  0  1  0  0  0  0  0  0
  194.9970  175.3090  145.8550 C   0  0  2  0  0  3  0  0  0  0  0  0
  193.0430  176.6100  145.1290 N   0  0  0  0  0  0  0  0  0  0  0  0
  194.4340  176.7070  145.6020 C   0  0  1  0  0  3  0  0  0  0  0  0
  196.7000  173.6350  145.1400 N   0  0  0  0  0  0  0  0  0  0  0  0
  195.8270  175.2840  143.4840 C   0  0  0  0  0  3  0  0  0  0  0  0
  196.9400  173.2760  142.8190 N   0  0  0  0  0  2  0  0  0  0  0  0
  197.0810  172.8570  144.1780 C   0  0  0  0  0  0  0  0  0  0  0  0
  196.1770  174.9930  144.9220 C   0  0  1  0  0  3  0  0  0  0  0  0
  196.2510  174.4880  142.4950 C   0  0  0  0  0  0  0  0  0  0  0  0
  197.6460  171.5140  144.4880 C   0  0  0  0  0  1  0  0  0  0  0  0
  195.9700  174.8150  141.0860 C   0  0  0  0  0  0  0  0  0  0  0  0
  195.5020  176.1870  140.6940 C   0  0  0  0  0  1  0  0  0  0  0  0
  196.1680  173.9090  140.1770 N   0  0  0  0  0  0  0  0  0  0  0  0
  195.9350  174.1380  138.8400 O   0  0  0  0  0  0  0  0  0  0  0  0
  194.0510  171.4240  135.9690 C   0  0  0  0  0  1  0  0  0  0  0  0
  195.8190  173.0390  137.9520 C   0  0  1  0  0  3  0  0  0  0  0  0
  195.2410  172.3150  135.6350 C   0  0  1  0  0  3  0  0  0  0  0  0
  195.3540  173.4150  136.6020 N   0  0  0  0  0  0  0  0  0  0  0  0
  197.1660  172.3420  137.8440 C   0  0  0  0  0  2  0  0  0  0  0  0
  196.5460  171.5140  135.5660 C   0  0  0  0  0  2  0  0  0  0  0  0
  197.0350  171.1120  136.9550 C   0  0  0  0  0  2  0  0  0  0  0  0
  193.1020  176.3850  135.9990 C   0  0  0  0  0  3  0  0  0  0  0  0
  193.5420  175.1160  136.3910 C   0  0  0  0  0  3  0  0  0  0  0  0
  193.4510  178.8620  134.9000 Cl  0  0  0  0  0  0  0  0  0  0  0  0
  194.8780  174.7260  136.2100 C   0  0  0  0  0  0  0  0  0  0  0  0
  195.7640  175.6460  135.6200 C   0  0  0  0  0  3  0  0  0  0  0  0
  195.3260  176.9120  135.2190 C   0  0  0  0  0  3  0  0  0  0  0  0
  193.9970  177.2830  135.4120 C   0  0  0  0  0  0  0  0  0  0  0  0
  191.5190  175.0180  146.1710 C   0  0  0  0  0  2  0  0  0  0  0  0
  190.4770  176.0960  145.9710 C   0  0  0  0  0  2  0  0  0  0  0  0
  189.2250  175.7040  146.6020 N   0  0  0  0  0  2  0  0  0  0  0  0
  188.1410  176.0990  145.7120 C   0  0  2  0  0  3  0  0  0  0  0  0
  187.2600  175.1570  142.4020 S   0  0  0  0  0  0  0  0  0  0  0  0
  187.8080  177.4830  143.7080 N   0  0  0  0  0  2  0  0  0  0  0  0
  188.7260  175.3170  143.3910 C   0  0  1  0  0  3  0  0  0  0  0  0
  190.1550  174.9060  142.7580 S   0  0  0  0  0  0  0  0  0  0  0  0
  186.7250  176.7960  143.0020 C   0  0  1  0  0  3  0  0  0  0  0  0
  188.6700  176.4750  144.3190 C   0  0  2  0  0  3  0  0  0  0  0  0
  190.1050  173.1170  142.6200 C   0  0  2  0  0  3  0  0  0  0  0  0
  191.4520  172.6240  142.1230 C   0  0  2  0  0  3  0  0  0  0  0  0
  190.2840  172.7260  141.1710 C   0  0  0  0  0  2  0  0  0  0  0  0
  191.6520  171.1670  142.5110 C   0  0  0  0  0  2  0  0  0  0  0  0
  193.7520  169.9390  143.2280 C   0  0  0  0  0  0  0  0  0  0  0  0
  193.0880  170.7820  142.3210 C   0  0  0  0  0  0  0  0  0  0  0  0
  195.0230  169.5370  142.9680 N   0  0  0  0  0  0  0  0  0  0  0  0
  193.0730  169.4390  144.4570 C   0  0  0  0  0  1  0  0  0  0  0  0
  195.0650  170.7830  140.9270 C   0  0  0  0  0  3  0  0  0  0  0  0
  195.6850  169.9360  141.8460 C   0  0  0  0  0  3  0  0  0  0  0  0
  193.7610  171.2060  141.1710 C   0  0  0  0  0  3  0  0  0  0  0  0
  185.8740  178.2900  141.0220 N   0  0  0  0  0  0  0  0  0  0  0  0
  186.2580  177.6290  141.8940 C   0  0  0  0  0  0  0  0  0  0  0  0
  187.3960  177.2850  146.3130 C   0  0  0  0  0  2  0  0  0  0  0  0
  186.1420  176.7910  147.0100 C   0  0  0  0  0  1  0  0  0  0  0  0
  1  7  1  0  0  0  0
  3  4  1  0  0  0  0
  3 34  1  1  0  0  0
  4  2  2  0  0  0  0
  6  4  1  6  0  0  0
  7  3  1  0  0  0  0
  7  8  1  0  0  0  0
  8  6  1  0  0  0  0
  8  5  1  1  0  0  0
 11 12  1  0  0  0  0
 12 15  1  0  0  0  0
 12  9  2  0  0  0  0
 13 10  1  6  0  0  0
 13  9  1  0  0  0  0
 13  6  1  0  0  0  0
 14 11  1  0  0  0  0
 14 10  2  0  0  0  0
 16 14  1  0  0  0  0
 17 16  1  0  0  0  0
 18 16  2  0  0  0  0
 19 18  1  0  0  0  0
 21 19  1  1  0  0  0
 22 20  1  1  0  0  0
 22 23  1  0  0  0  0
 23 21  1  0  0  0  0
 24 21  1  0  0  0  0
 25 22  1  0  0  0  0
 25 26  1  0  0  0  0
 26 24  1  0  0  0  0
 27 28  1  0  0  0  0
 29 33  1  0  0  0  0
 30 28  2  0  0  0  0
 30 23  1  0  0  0  0
 31 30  1  0  0  0  0
 32 33  1  0  0  0  0
 32 31  2  0  0  0  0
 33 27  2  0  0  0  0
 35 34  1  0  0  0  0
 35 36  1  0  0  0  0
 37 57  1  1  0  0  0
 37 36  1  0  0  0  0
 38 42  1  0  0  0  0
 38 40  1  0  0  0  0
 39 43  1  0  0  0  0
 40 41  1  6  0  0  0
 40 43  1  0  0  0  0
 42 56  1  6  0  0  0
 42 39  1  0  0  0  0
 43 37  1  1  0  0  0
 44 41  1  6  0  0  0
 45 47  1  1  0  0  0
 45 44  1  0  0  0  0
 46 45  1  0  0  0  0
 46 44  1  0  0  0  0
 48 51  1  0  0  0  0
 49 47  1  0  0  0  0
 49 48  2  0  0  0  0
 50 48  1  0  0  0  0
 52 54  2  0  0  0  0
 52 53  1  0  0  0  0
 53 50  2  0  0  0  0
 54 49  1  0  0  0  0
 55 56  3  0  0  0  0
 57 58  1  0  0  0  0
M  END
>  <MODEL>
7

>  <REMARK>
 VINA RESULT:      -6.0      1.534      1.975
  Name = 
  15 active torsions:
  status: ('A' for Active; 'I' for Inactive)
    1  A    between atoms: C_2  and  C_25
    2  A    between atoms: C_5  and  C_7
    3  A    between atoms: C_5  and  N_8
    4  A    between atoms: C_7  and  C_22
    5  A    between atoms: N_8  and  C_15
    6  A    between atoms: C_9  and  O_39
    7  A    between atoms: N_12  and  C_49
    8  A    between atoms: C_14  and  C_15
    9  A    between atoms: C_15  and  C_56
   10  A    between atoms: C_17  and  C_46
   11  A    between atoms: C_18  and  S_43
   12  A    between atoms: C_25  and  C_28
   13  A    between atoms: N_35  and  O_39
   14  A    between atoms: C_40  and  C_45
   15  A    between atoms: C_47  and  C_54
                            x       y       z     vdW  Elec       q    Type
                         _______ _______ _______ _____ _____    ______ ____

>  <TORSDO>
F 15

$$$$
=
 OpenBabel11042413423D

 58 64  0  0  1  0  0  0  0  0999 V2000
  193.9820  175.8520  142.6810 C   0  0  0  0  0  1  0  0  0  0  0  0
  193.9020  171.7880  144.4790 C   0  0  0  0  0  2  0  0  0  0  0  0
  193.0330  174.0120  143.7790 C   0  0  2  0  0  3  0  0  0  0  0  0
  193.9740  173.1220  144.5010 C   0  0  0  0  0  0  0  0  0  0  0  0
  194.3790  176.0840  146.1540 C   0  0  0  0  0  1  0  0  0  0  0  0
  195.0410  173.8840  145.1830 C   0  0  2  0  0  3  0  0  0  0  0  0
  193.5140  175.3810  143.9730 N   0  0  0  0  0  0  0  0  0  0  0  0
  194.6840  175.3360  144.8650 C   0  0  1  0  0  3  0  0  0  0  0  0
  196.8640  172.1860  145.1240 N   0  0  0  0  0  0  0  0  0  0  0  0
  196.5030  173.6680  143.1510 C   0  0  0  0  0  3  0  0  0  0  0  0
  197.7440  171.6310  143.0040 N   0  0  0  0  0  2  0  0  0  0  0  0
  197.4940  171.3340  144.3800 C   0  0  0  0  0  0  0  0  0  0  0  0
  196.4330  173.5100  144.6500 C   0  0  1  0  0  3  0  0  0  0  0  0
  197.1810  172.7980  142.3940 C   0  0  0  0  0  0  0  0  0  0  0  0
  197.9410  170.0340  144.9520 C   0  0  0  0  0  1  0  0  0  0  0  0
  197.3090  172.9970  140.9400 C   0  0  0  0  0  0  0  0  0  0  0  0
  197.2650  174.3750  140.3460 C   0  0  0  0  0  1  0  0  0  0  0  0
  197.4980  171.9630  140.1770 N   0  0  0  0  0  0  0  0  0  0  0  0
  197.6330  172.0660  138.8100 O   0  0  0  0  0  0  0  0  0  0  0  0
  194.4740  170.3640  136.3030 C   0  0  0  0  0  1  0  0  0  0  0  0
  196.9860  171.1240  137.9710 C   0  0  1  0  0  3  0  0  0  0  0  0
  195.8510  170.7570  135.7800 C   0  0  1  0  0  3  0  0  0  0  0  0
  196.5060  171.6980  136.6980 N   0  0  0  0  0  0  0  0  0  0  0  0
  197.9410  169.9790  137.6790 C   0  0  0  0  0  2  0  0  0  0  0  0
  196.7340  169.5290  135.5340 C   0  0  0  0  0  2  0  0  0  0  0  0
  197.2310  168.9210  136.8440 C   0  0  0  0  0  2  0  0  0  0  0  0
  195.3550  175.2320  136.0360 C   0  0  0  0  0  3  0  0  0  0  0  0
  195.3340  173.8760  136.3780 C   0  0  0  0  0  3  0  0  0  0  0  0
  196.5890  177.5260  135.2110 Cl  0  0  0  0  0  0  0  0  0  0  0  0
  196.5070  173.1050  136.3550 C   0  0  0  0  0  0  0  0  0  0  0  0
  197.7070  173.7350  135.9760 C   0  0  0  0  0  3  0  0  0  0  0  0
  197.7310  175.0880  135.6260 C   0  0  0  0  0  3  0  0  0  0  0  0
  196.5560  175.8370  135.6600 C   0  0  0  0  0  0  0  0  0  0  0  0
  191.6340  173.8810  144.3660 C   0  0  0  0  0  2  0  0  0  0  0  0
  191.0520  175.2570  144.6070 C   0  0  0  0  0  2  0  0  0  0  0  0
  189.7770  175.1460  145.2980 N   0  0  0  0  0  2  0  0  0  0  0  0
  189.2840  176.4970  145.5310 C   0  0  2  0  0  3  0  0  0  0  0  0
  186.4400  176.1160  143.4360 S   0  0  0  0  0  0  0  0  0  0  0  0
  187.8380  178.1970  144.4990 N   0  0  0  0  0  2  0  0  0  0  0  0
  188.2060  176.1970  143.2750 C   0  0  1  0  0  3  0  0  0  0  0  0
  188.8760  176.0130  141.8150 S   0  0  0  0  0  0  0  0  0  0  0  0
  186.5130  177.5750  144.5310 C   0  0  1  0  0  3  0  0  0  0  0  0
  188.8270  177.1590  144.2210 C   0  0  2  0  0  3  0  0  0  0  0  0
  188.6380  174.2790  141.4100 C   0  0  2  0  0  3  0  0  0  0  0  0
  189.7440  173.8380  140.4710 C   0  0  2  0  0  3  0  0  0  0  0  0
  188.3700  174.1490  139.9280 C   0  0  0  0  0  2  0  0  0  0  0  0
  189.9210  172.3280  140.5430 C   0  0  0  0  0  2  0  0  0  0  0  0
  191.8060  170.7540  141.1760 C   0  0  0  0  0  0  0  0  0  0  0  0
  191.3760  171.9920  140.6690 C   0  0  0  0  0  0  0  0  0  0  0  0
  193.1300  170.4510  141.1820 N   0  0  0  0  0  0  0  0  0  0  0  0
  190.8310  169.7410  141.6710 C   0  0  0  0  0  1  0  0  0  0  0  0
  193.6820  172.5680  140.2130 C   0  0  0  0  0  3  0  0  0  0  0  0
  194.0670  171.3230  140.7140 C   0  0  0  0  0  3  0  0  0  0  0  0
  192.3290  172.8990  140.1950 C   0  0  0  0  0  3  0  0  0  0  0  0
  184.6890  179.3370  143.8640 N   0  0  0  0  0  0  0  0  0  0  0  0
  185.5000  178.5600  144.1530 C   0  0  0  0  0  0  0  0  0  0  0  0
  190.3820  177.3380  146.1710 C   0  0  0  0  0  2  0  0  0  0  0  0
  190.3910  177.0980  147.6700 C   0  0  0  0  0  1  0  0  0  0  0  0
  1  7  1  0  0  0  0
  2  4  2  0  0  0  0
  3  7  1  0  0  0  0
  3 34  1  1  0  0  0
  3  4  1  0  0  0  0
  6  4  1  6  0  0  0
  7  8  1  0  0  0  0
  8  6  1  0  0  0  0
  8  5  1  1  0  0  0
 11 12  1  0  0  0  0
 12 15  1  0  0  0  0
 12  9  2  0  0  0  0
 13 10  1  6  0  0  0
 13  9  1  0  0  0  0
 13  6  1  0  0  0  0
 14 11  1  0  0  0  0
 14 10  2  0  0  0  0
 16 14  1  0  0  0  0
 17 16  1  0  0  0  0
 18 16  2  0  0  0  0
 19 18  1  0  0  0  0
 21 19  1  6  0  0  0
 22 20  1  1  0  0  0
 22 23  1  0  0  0  0
 23 21  1  0  0  0  0
 24 21  1  0  0  0  0
 25 22  1  0  0  0  0
 25 26  1  0  0  0  0
 26 24  1  0  0  0  0
 27 28  1  0  0  0  0
 29 33  1  0  0  0  0
 30 28  2  0  0  0  0
 30 23  1  0  0  0  0
 31 30  1  0  0  0  0
 32 33  1  0  0  0  0
 32 31  2  0  0  0  0
 33 27  2  0  0  0  0
 34 35  1  0  0  0  0
 35 36  1  0  0  0  0
 36 37  1  0  0  0  0
 37 57  1  6  0  0  0
 38 42  1  0  0  0  0
 39 42  1  0  0  0  0
 40 41  1  6  0  0  0
 40 38  1  0  0  0  0
 40 43  1  0  0  0  0
 42 56  1  6  0  0  0
 43 39  1  0  0  0  0
 43 37  1  1  0  0  0
 44 41  1  6  0  0  0
 45 47  1  1  0  0  0
 45 44  1  0  0  0  0
 46 45  1  0  0  0  0
 46 44  1  0  0  0  0
 47 49  1  0  0  0  0
 48 50  1  0  0  0  0
 48 51  1  0  0  0  0
 49 48  2  0  0  0  0
 52 53  1  0  0  0  0
 53 50  2  0  0  0  0
 54 52  2  0  0  0  0
 54 49  1  0  0  0  0
 55 56  3  0  0  0  0
 57 58  1  0  0  0  0
M  END
>  <MODEL>
8

>  <REMARK>
 VINA RESULT:      -5.9      1.780      2.365
  Name = 
  15 active torsions:
  status: ('A' for Active; 'I' for Inactive)
    1  A    between atoms: C_2  and  C_25
    2  A    between atoms: C_5  and  C_7
    3  A    between atoms: C_5  and  N_8
    4  A    between atoms: C_7  and  C_22
    5  A    between atoms: N_8  and  C_15
    6  A    between atoms: C_9  and  O_39
    7  A    between atoms: N_12  and  C_49
    8  A    between atoms: C_14  and  C_15
    9  A    between atoms: C_15  and  C_56
   10  A    between atoms: C_17  and  C_46
   11  A    between atoms: C_18  and  S_43
   12  A    between atoms: C_25  and  C_28
   13  A    between atoms: N_35  and  O_39
   14  A    between atoms: C_40  and  C_45
   15  A    between atoms: C_47  and  C_54
                            x       y       z     vdW  Elec       q    Type
                         _______ _______ _______ _____ _____    ______ ____

>  <TORSDO>
F 15

$$$$
=
 OpenBabel11042413423D

 58 64  0  0  1  0  0  0  0  0999 V2000
  192.8910  171.5400  143.5800 C   0  0  0  0  0  1  0  0  0  0  0  0
  196.0960  174.6080  143.3130 C   0  0  0  0  0  2  0  0  0  0  0  0
  194.9630  172.4250  142.9340 C   0  0  2  0  0  3  0  0  0  0  0  0
  195.5090  173.5070  143.7900 C   0  0  0  0  0  0  0  0  0  0  0  0
  195.3700  170.8760  145.9650 C   0  0  0  0  0  1  0  0  0  0  0  0
  195.2590  173.2550  145.2240 C   0  0  2  0  0  3  0  0  0  0  0  0
  194.3200  171.4630  143.8310 N   0  0  0  0  0  0  0  0  0  0  0  0
  194.5390  171.9070  145.2180 C   0  0  1  0  0  3  0  0  0  0  0  0
  195.1000  175.6500  145.8950 N   0  0  0  0  0  0  0  0  0  0  0  0
  193.0410  174.4330  145.1880 C   0  0  0  0  0  3  0  0  0  0  0  0
  193.1570  176.8200  145.2370 N   0  0  0  0  0  2  0  0  0  0  0  0
  194.5260  176.7840  145.6450 C   0  0  0  0  0  0  0  0  0  0  0  0
  194.3940  174.3600  145.8510 C   0  0  1  0  0  3  0  0  0  0  0  0
  192.4440  175.6090  144.9600 C   0  0  0  0  0  0  0  0  0  0  0  0
  195.3010  178.0510  145.7620 C   0  0  0  0  0  1  0  0  0  0  0  0
  191.0910  175.6740  144.3810 C   0  0  0  0  0  0  0  0  0  0  0  0
  190.6690  174.7140  143.3060 C   0  0  0  0  0  1  0  0  0  0  0  0
  190.2510  176.5520  144.8370 N   0  0  0  0  0  0  0  0  0  0  0  0
  188.9680  176.6730  144.3530 O   0  0  0  0  0  0  0  0  0  0  0  0
  185.8960  179.4650  145.7400 C   0  0  0  0  0  1  0  0  0  0  0  0
  187.9510  177.1970  145.1890 C   0  0  1  0  0  3  0  0  0  0  0  0
  185.6040  178.0360  145.2980 C   0  0  1  0  0  3  0  0  0  0  0  0
  186.6990  177.5130  144.4710 N   0  0  0  0  0  0  0  0  0  0  0  0
  187.6570  176.2020  146.2990 C   0  0  0  0  0  2  0  0  0  0  0  0
  185.3360  177.1170  146.4950 C   0  0  0  0  0  2  0  0  0  0  0  0
  186.6220  176.7880  147.2510 C   0  0  0  0  0  2  0  0  0  0  0  0
  185.1990  177.9120  141.0300 C   0  0  0  0  0  3  0  0  0  0  0  0
  185.3530  177.9590  142.4200 C   0  0  0  0  0  3  0  0  0  0  0  0
  186.0210  177.2970  138.4980 Cl  0  0  0  0  0  0  0  0  0  0  0  0
  186.5210  177.4810  143.0340 C   0  0  0  0  0  0  0  0  0  0  0  0
  187.5330  176.9500  142.2140 C   0  0  0  0  0  3  0  0  0  0  0  0
  187.3790  176.8940  140.8250 C   0  0  0  0  0  3  0  0  0  0  0  0
  186.2140  177.3790  140.2330 C   0  0  0  0  0  0  0  0  0  0  0  0
  196.0910  171.7350  142.1790 C   0  0  0  0  0  2  0  0  0  0  0  0
  195.7100  171.5840  140.7220 C   0  0  0  0  0  2  0  0  0  0  0  0
  195.7770  172.8740  140.0530 N   0  0  0  0  0  2  0  0  0  0  0  0
  194.6110  172.9800  139.1860 C   0  0  2  0  0  3  0  0  0  0  0  0
  193.9860  175.0670  136.3790 S   0  0  0  0  0  0  0  0  0  0  0  0
  196.1470  173.8060  137.4520 N   0  0  0  0  0  2  0  0  0  0  0  0
  193.9140  173.3420  136.7930 C   0  0  1  0  0  3  0  0  0  0  0  0
  193.3830  172.2870  135.6900 S   0  0  0  0  0  0  0  0  0  0  0  0
  195.6340  175.1450  137.1600 C   0  0  1  0  0  3  0  0  0  0  0  0
  195.0110  172.9230  137.7030 C   0  0  2  0  0  3  0  0  0  0  0  0
  191.6230  172.6120  135.5450 C   0  0  2  0  0  3  0  0  0  0  0  0
  190.8660  171.6060  136.3920 C   0  0  2  0  0  3  0  0  0  0  0  0
  190.9510  171.4240  134.8960 C   0  0  0  0  0  2  0  0  0  0  0  0
  189.4920  172.1510  136.7500 C   0  0  0  0  0  2  0  0  0  0  0  0
  188.6450  173.4280  138.7710 C   0  0  0  0  0  0  0  0  0  0  0  0
  189.4030  172.3770  138.2290 C   0  0  0  0  0  0  0  0  0  0  0  0
  188.5120  173.5390  140.1180 N   0  0  0  0  0  0  0  0  0  0  0  0
  187.9430  174.4070  137.8930 C   0  0  0  0  0  1  0  0  0  0  0  0
  189.8750  171.6060  140.4730 C   0  0  0  0  0  3  0  0  0  0  0  0
  189.1040  172.6570  140.9710 C   0  0  0  0  0  3  0  0  0  0  0  0
  190.0230  171.4710  139.0960 C   0  0  0  0  0  3  0  0  0  0  0  0
  197.3280  176.4130  135.6110 N   0  0  0  0  0  0  0  0  0  0  0  0
  196.5830  175.8550  136.3020 C   0  0  0  0  0  0  0  0  0  0  0  0
  193.8830  174.2890  139.4680 C   0  0  0  0  0  2  0  0  0  0  0  0
  192.6630  174.0120  140.3270 C   0  0  0  0  0  1  0  0  0  0  0  0
  1  7  1  0  0  0  0
  2  4  2  0  0  0  0
  3 34  1  1  0  0  0
  3  4  1  0  0  0  0
  3  7  1  0  0  0  0
  6  4  1  6  0  0  0
  6 13  1  0  0  0  0
  7  8  1  0  0  0  0
  8  6  1  0  0  0  0
  8  5  1  1  0  0  0
 11 12  1  0  0  0  0
 12 15  1  0  0  0  0
 12  9  2  0  0  0  0
 13 10  1  6  0  0  0
 13  9  1  0  0  0  0
 14 10  2  0  0  0  0
 14 11  1  0  0  0  0
 16 18  2  0  0  0  0
 16 14  1  0  0  0  0
 17 16  1  0  0  0  0
 19 18  1  0  0  0  0
 21 19  1  6  0  0  0
 21 24  1  0  0  0  0
 22 20  1  1  0  0  0
 22 25  1  0  0  0  0
 23 21  1  0  0  0  0
 23 22  1  0  0  0  0
 24 26  1  0  0  0  0
 25 26  1  0  0  0  0
 27 28  1  0  0  0  0
 28 30  2  0  0  0  0
 29 33  1  0  0  0  0
 30 23  1  0  0  0  0
 31 30  1  0  0  0  0
 32 31  2  0  0  0  0
 33 32  1  0  0  0  0
 33 27  2  0  0  0  0
 35 34  1  0  0  0  0
 36 35  1  0  0  0  0
 37 57  1  6  0  0  0
 37 36  1  0  0  0  0
 38 40  1  0  0  0  0
 38 42  1  0  0  0  0
 39 43  1  0  0  0  0
 40 41  1  6  0  0  0
 40 43  1  0  0  0  0
 42 56  1  6  0  0  0
 42 39  1  0  0  0  0
 43 37  1  1  0  0  0
 44 41  1  1  0  0  0
 44 45  1  0  0  0  0
 45 47  1  6  0  0  0
 46 44  1  0  0  0  0
 46 45  1  0  0  0  0
 47 49  1  0  0  0  0
 48 50  1  0  0  0  0
 49 48  2  0  0  0  0
 49 54  1  0  0  0  0
 50 53  2  0  0  0  0
 51 48  1  0  0  0  0
 52 53  1  0  0  0  0
 54 52  2  0  0  0  0
 55 56  3  0  0  0  0
 57 58  1  0  0  0  0
M  END
>  <MODEL>
9

>  <REMARK>
 VINA RESULT:      -5.9      3.074      8.984
  Name = 
  15 active torsions:
  status: ('A' for Active; 'I' for Inactive)
    1  A    between atoms: C_2  and  C_25
    2  A    between atoms: C_5  and  C_7
    3  A    between atoms: C_5  and  N_8
    4  A    between atoms: C_7  and  C_22
    5  A    between atoms: N_8  and  C_15
    6  A    between atoms: C_9  and  O_39
    7  A    between atoms: N_12  and  C_49
    8  A    between atoms: C_14  and  C_15
    9  A    between atoms: C_15  and  C_56
   10  A    between atoms: C_17  and  C_46
   11  A    between atoms: C_18  and  S_43
   12  A    between atoms: C_25  and  C_28
   13  A    between atoms: N_35  and  O_39
   14  A    between atoms: C_40  and  C_45
   15  A    between atoms: C_47  and  C_54
                            x       y       z     vdW  Elec       q    Type
                         _______ _______ _______ _____ _____    ______ ____

>  <TORSDO>
F 15

$$$$
