=
 OpenBabel11042415373D

 39 43  0  0  1  0  0  0  0  0999 V2000
  190.0670  174.7440  144.0550 C   0  0  0  0  0  0  0  0  0  0  0  0
  191.2350  175.4460  143.6730 C   0  0  0  0  0  0  0  0  0  0  0  0
  191.2770  174.2210  141.5710 C   0  0  0  0  0  3  0  0  0  0  0  0
  189.5180  173.8040  143.1730 C   0  0  0  0  0  3  0  0  0  0  0  0
  191.8340  175.1670  142.4330 C   0  0  0  0  0  3  0  0  0  0  0  0
  190.1150  173.5430  141.9370 C   0  0  0  0  0  3  0  0  0  0  0  0
  189.6510  174.1710  146.3320 O   0  0  0  0  0  0  0  0  0  0  0  0
  189.4140  174.9480  145.3690 C   0  0  0  0  0  0  0  0  0  0  0  0
  188.4970  176.0250  145.5530 N   0  0  0  0  0  2  0  0  0  0  0  0
  186.5550  176.8750  146.8920 C   0  0  0  0  0  0  0  0  0  0  0  0
  185.0210  179.5740  143.8590 C   0  0  0  0  0  2  0  0  0  0  0  0
  187.8130  176.1940  146.7650 N   0  0  0  0  0  2  0  0  0  0  0  0
  185.9210  177.5700  145.7940 N   0  0  0  0  0  0  0  0  0  0  0  0
  186.4060  178.9190  143.8100 C   0  0  1  0  0  3  0  0  0  0  0  0
  184.7280  178.3810  146.0780 C   0  0  0  0  0  2  0  0  0  0  0  0
  184.0430  178.8620  144.7990 C   0  0  0  0  0  2  0  0  0  0  0  0
  186.4600  177.5180  144.4330 C   0  0  2  0  0  3  0  0  0  0  0  0
  186.0070  176.8960  148.0270 O   0  0  0  0  0  0  0  0  0  0  0  0
  186.9160  178.9270  142.5110 O   0  0  0  0  0  1  0  0  0  0  0  0
  186.6160  175.7400  142.8300 O   0  0  0  0  0  1  0  0  0  0  0  0
  185.7150  176.4650  143.6100 C   0  0  0  0  0  2  0  0  0  0  0  0
  191.7740  176.4210  144.5200 O   0  0  0  0  0  0  0  0  0  0  0  0
  192.9520  176.3430  146.6590 C   0  0  0  0  0  2  0  0  0  0  0  0
  193.0440  176.3090  145.1550 C   0  0  1  0  0  0  0  0  0  0  0  0
  193.3360  175.0470  145.9430 C   0  0  1  0  0  3  0  0  0  0  0  0
  194.1000  177.0780  144.6550 O   0  0  0  0  0  1  0  0  0  0  0  0
  195.3990  173.6400  145.5530 C   0  0  0  0  0  0  0  0  0  0  0  0
  195.0080  170.1390  145.0540 C   0  0  0  0  0  0  0  0  0  0  0  0
  194.7720  174.8250  146.0430 N   0  0  0  0  0  2  0  0  0  0  0  0
  193.6380  169.9210  145.0110 O   0  0  0  0  0  1  0  0  0  0  0  0
  195.5770  171.5070  144.8260 C   0  0  2  0  0  3  0  0  0  0  0  0
  197.1830  173.4430  145.5920 S   0  0  0  0  0  0  0  0  0  0  0  0
  197.8640  170.7260  145.1110 C   0  0  0  0  0  2  0  0  0  0  0  0
  196.8160  171.6720  145.6630 C   0  0  2  0  0  3  0  0  0  0  0  0
  194.7130  172.6050  145.1920 N   0  0  0  0  0  0  0  0  0  0  0  0
  195.8480  169.1060  145.2220 C   0  0  0  0  0  3  0  0  0  0  0  0
  197.3660  169.2700  145.2730 C   0  0  2  0  0  3  0  0  0  0  0  0
  196.7530  168.1790  147.1090 C   0  0  0  0  0  1  0  0  0  0  0  0
  197.8610  168.7360  146.4670 O   0  0  0  0  0  0  0  0  0  0  0  0
  1  8  1  0  0  0  0
  2  1  1  0  0  0  0
  2 22  1  0  0  0  0
  3  6  2  0  0  0  0
  3  5  1  0  0  0  0
  4  1  2  0  0  0  0
  5  2  2  0  0  0  0
  6  4  1  0  0  0  0
  8  9  1  0  0  0  0
  8  7  2  0  0  0  0
  9 12  1  0  0  0  0
 10 18  2  0  0  0  0
 11 16  1  0  0  0  0
 12 10  1  0  0  0  0
 13 15  1  0  0  0  0
 13 10  1  0  0  0  0
 14 19  1  6  0  0  0
 14 11  1  0  0  0  0
 14 17  1  0  0  0  0
 16 15  1  0  0  0  0
 17 21  1  6  0  0  0
 17 13  1  0  0  0  0
 20 21  1  0  0  0  0
 22 24  1  0  0  0  0
 24 26  1  6  0  0  0
 24 25  1  0  0  0  0
 24 23  1  0  0  0  0
 25 29  1  1  0  0  0
 25 23  1  0  0  0  0
 27 32  1  0  0  0  0
 27 29  1  0  0  0  0
 28 36  2  0  0  0  0
 30 28  1  0  0  0  0
 31 28  1  1  0  0  0
 31 35  1  0  0  0  0
 31 34  1  0  0  0  0
 32 34  1  0  0  0  0
 33 37  1  0  0  0  0
 34 33  1  6  0  0  0
 35 27  2  0  0  0  0
 36 37  1  0  0  0  0
 37 39  1  1  0  0  0
 39 38  1  0  0  0  0
M  END
>  <MODEL>
1

>  <REMARK>
 VINA RESULT:      -8.0      0.000      0.000
  Name = 
  7 active torsions:
  status: ('A' for Active; 'I' for Inactive)
    1  A    between atoms: N_3  and  C_19
    2  A    between atoms: C_5  and  C_9
    3  A    between atoms: O_8  and  C_13
    4  A    between atoms: O_8  and  C_15
    5  A    between atoms: N_12  and  N_26
    6  A    between atoms: C_31  and  C_33
    7  A    between atoms: C_38  and  O_39
                            x       y       z     vdW  Elec       q    Type
                         _______ _______ _______ _____ _____    ______ ____

>  <TORSDO>
F 7

$$$$
=
 OpenBabel11042415373D

 39 43  0  0  1  0  0  0  0  0999 V2000
  192.3860  173.7090  140.6740 C   0  0  0  0  0  0  0  0  0  0  0  0
  191.7470  173.5590  139.4210 C   0  0  0  0  0  0  0  0  0  0  0  0
  193.6400  174.6350  138.3340 C   0  0  0  0  0  3  0  0  0  0  0  0
  193.6520  174.3060  140.7280 C   0  0  0  0  0  3  0  0  0  0  0  0
  192.3810  174.0350  138.2610 C   0  0  0  0  0  3  0  0  0  0  0  0
  194.2790  174.7650  139.5670 C   0  0  0  0  0  3  0  0  0  0  0  0
  191.8030  172.0760  142.3130 O   0  0  0  0  0  0  0  0  0  0  0  0
  191.7510  173.2790  141.9430 C   0  0  0  0  0  0  0  0  0  0  0  0
  191.0620  174.2280  142.7550 N   0  0  0  0  0  2  0  0  0  0  0  0
  190.7250  174.2990  145.2380 C   0  0  0  0  0  0  0  0  0  0  0  0
  194.5300  176.1560  146.1900 C   0  0  0  0  0  2  0  0  0  0  0  0
  190.3930  173.8310  143.9220 N   0  0  0  0  0  2  0  0  0  0  0  0
  191.8720  175.1360  145.5120 N   0  0  0  0  0  0  0  0  0  0  0  0
  194.1860  175.5450  144.8270 C   0  0  1  0  0  3  0  0  0  0  0  0
  192.2180  175.4080  146.9140 C   0  0  0  0  0  2  0  0  0  0  0  0
  193.2990  176.4810  147.0410 C   0  0  0  0  0  2  0  0  0  0  0  0
  192.7070  175.6760  144.4370 C   0  0  2  0  0  3  0  0  0  0  0  0
  190.0000  173.9230  146.1980 O   0  0  0  0  0  0  0  0  0  0  0  0
  195.0280  176.0400  143.8310 O   0  0  0  0  0  1  0  0  0  0  0  0
  190.9220  177.2750  144.3130 O   0  0  0  0  0  1  0  0  0  0  0  0
  192.2940  177.1140  144.1180 C   0  0  0  0  0  2  0  0  0  0  0  0
  190.5010  172.9250  139.3400 O   0  0  0  0  0  0  0  0  0  0  0  0
  188.1780  172.9410  140.0950 C   0  0  0  0  0  2  0  0  0  0  0  0
  189.2580  173.6170  139.2910 C   0  0  1  0  0  0  0  0  0  0  0  0
  188.7590  174.2770  140.5610 C   0  0  1  0  0  3  0  0  0  0  0  0
  188.8080  174.0730  138.0470 O   0  0  0  0  0  1  0  0  0  0  0  0
  187.5700  176.4230  141.1660 C   0  0  0  0  0  0  0  0  0  0  0  0
  187.2420  177.2840  144.6020 C   0  0  0  0  0  0  0  0  0  0  0  0
  187.8400  175.3620  140.2500 N   0  0  0  0  0  2  0  0  0  0  0  0
  187.9630  176.3230  145.2960 O   0  0  0  0  0  1  0  0  0  0  0  0
  187.4800  177.5190  143.1410 C   0  0  2  0  0  3  0  0  0  0  0  0
  186.5150  177.8030  140.7110 S   0  0  0  0  0  0  0  0  0  0  0  0
  185.7990  179.2750  143.0340 C   0  0  0  0  0  2  0  0  0  0  0  0
  186.1840  177.9150  142.4870 C   0  0  2  0  0  3  0  0  0  0  0  0
  187.9530  176.3730  142.4000 N   0  0  0  0  0  0  0  0  0  0  0  0
  186.3740  178.0740  145.2530 C   0  0  0  0  0  3  0  0  0  0  0  0
  185.5510  179.1560  144.5570 C   0  0  2  0  0  3  0  0  0  0  0  0
  184.1140  178.4720  146.1060 C   0  0  0  0  0  1  0  0  0  0  0  0
  184.1890  178.9440  144.7940 O   0  0  0  0  0  0  0  0  0  0  0  0
  1  4  1  0  0  0  0
  1  8  1  0  0  0  0
  2  1  2  0  0  0  0
  3  6  1  0  0  0  0
  5  3  2  0  0  0  0
  5  2  1  0  0  0  0
  6  4  2  0  0  0  0
  8  7  2  0  0  0  0
  8  9  1  0  0  0  0
  9 12  1  0  0  0  0
 10 13  1  0  0  0  0
 10 18  2  0  0  0  0
 11 16  1  0  0  0  0
 12 10  1  0  0  0  0
 13 15  1  0  0  0  0
 14 19  1  6  0  0  0
 14 11  1  0  0  0  0
 15 16  1  0  0  0  0
 17 21  1  1  0  0  0
 17 14  1  0  0  0  0
 17 13  1  0  0  0  0
 21 20  1  0  0  0  0
 22  2  1  0  0  0  0
 23 25  1  0  0  0  0
 24 26  1  6  0  0  0
 24 22  1  0  0  0  0
 24 23  1  0  0  0  0
 24 25  1  0  0  0  0
 25 29  1  6  0  0  0
 27 35  2  0  0  0  0
 28 36  2  0  0  0  0
 28 30  1  0  0  0  0
 29 27  1  0  0  0  0
 31 35  1  6  0  0  0
 31 28  1  0  0  0  0
 32 27  1  0  0  0  0
 32 34  1  0  0  0  0
 33 37  1  0  0  0  0
 34 33  1  6  0  0  0
 34 31  1  0  0  0  0
 37 39  1  6  0  0  0
 37 36  1  0  0  0  0
 39 38  1  0  0  0  0
M  END
>  <MODEL>
2

>  <REMARK>
 VINA RESULT:      -7.8      4.096      9.020
  Name = 
  7 active torsions:
  status: ('A' for Active; 'I' for Inactive)
    1  A    between atoms: N_3  and  C_19
    2  A    between atoms: C_5  and  C_9
    3  A    between atoms: O_8  and  C_13
    4  A    between atoms: O_8  and  C_15
    5  A    between atoms: N_12  and  N_26
    6  A    between atoms: C_31  and  C_33
    7  A    between atoms: C_38  and  O_39
                            x       y       z     vdW  Elec       q    Type
                         _______ _______ _______ _____ _____    ______ ____

>  <TORSDO>
F 7

$$$$
=
 OpenBabel11042415373D

 39 43  0  0  1  0  0  0  0  0999 V2000
  192.3510  175.4170  145.9650 C   0  0  0  0  0  0  0  0  0  0  0  0
  191.4220  174.6430  145.2300 C   0  0  0  0  0  0  0  0  0  0  0  0
  189.9240  174.6310  147.1480 C   0  0  0  0  0  3  0  0  0  0  0  0
  192.0360  175.7970  147.2760 C   0  0  0  0  0  3  0  0  0  0  0  0
  190.2180  174.2500  145.8370 C   0  0  0  0  0  3  0  0  0  0  0  0
  190.8300  175.4100  147.8660 C   0  0  0  0  0  3  0  0  0  0  0  0
  193.8070  176.9400  144.8460 O   0  0  0  0  0  0  0  0  0  0  0  0
  193.6630  175.8210  145.4070 C   0  0  0  0  0  0  0  0  0  0  0  0
  194.7790  174.9350  145.4890 N   0  0  0  0  0  2  0  0  0  0  0  0
  196.8840  174.3150  144.2770 C   0  0  0  0  0  0  0  0  0  0  0  0
  196.5910  170.0380  144.9550 C   0  0  0  0  0  2  0  0  0  0  0  0
  196.0100  175.2660  144.9050 N   0  0  0  0  0  2  0  0  0  0  0  0
  196.6410  172.8900  144.2950 N   0  0  0  0  0  0  0  0  0  0  0  0
  195.7510  171.0880  145.6920 C   0  0  1  0  0  3  0  0  0  0  0  0
  197.6900  171.9980  143.7780 C   0  0  0  0  0  2  0  0  0  0  0  0
  197.2030  170.5550  143.6500 C   0  0  0  0  0  2  0  0  0  0  0  0
  195.4090  172.3230  144.8470 C   0  0  2  0  0  3  0  0  0  0  0  0
  197.9290  174.7510  143.7230 O   0  0  0  0  0  0  0  0  0  0  0  0
  194.6090  170.5120  146.2490 O   0  0  0  0  0  1  0  0  0  0  0  0
  194.5500  172.9660  142.7010 O   0  0  0  0  0  1  0  0  0  0  0  0
  194.4140  172.0270  143.7240 C   0  0  0  0  0  2  0  0  0  0  0  0
  191.6980  174.2910  143.9040 O   0  0  0  0  0  0  0  0  0  0  0  0
  190.8900  173.8420  141.6420 C   0  0  0  0  0  2  0  0  0  0  0  0
  191.0080  174.8250  142.7780 C   0  0  1  0  0  0  0  0  0  0  0  0
  189.6480  174.2480  142.4370 C   0  0  1  0  0  3  0  0  0  0  0  0
  191.3450  176.1150  142.3530 O   0  0  0  0  0  1  0  0  0  0  0  0
  188.3450  176.4060  142.2630 C   0  0  0  0  0  0  0  0  0  0  0  0
  187.0610  177.8710  145.2400 C   0  0  0  0  0  0  0  0  0  0  0  0
  188.8580  175.2090  141.6800 N   0  0  0  0  0  2  0  0  0  0  0  0
  187.5530  177.0930  146.2790 O   0  0  0  0  0  1  0  0  0  0  0  0
  187.7040  177.8430  143.8860 C   0  0  2  0  0  3  0  0  0  0  0  0
  187.4670  177.6230  141.2760 S   0  0  0  0  0  0  0  0  0  0  0  0
  186.1280  179.4620  142.9800 C   0  0  0  0  0  2  0  0  0  0  0  0
  186.6470  178.0450  142.8340 C   0  0  2  0  0  3  0  0  0  0  0  0
  188.3630  176.6050  143.5400 N   0  0  0  0  0  0  0  0  0  0  0  0
  186.0470  178.7230  145.4600 C   0  0  0  0  0  3  0  0  0  0  0  0
  185.4590  179.6140  144.3670 C   0  0  2  0  0  3  0  0  0  0  0  0
  183.7090  178.7980  145.4640 C   0  0  0  0  0  1  0  0  0  0  0  0
  184.0850  179.3810  144.2520 O   0  0  0  0  0  0  0  0  0  0  0  0
  1  4  1  0  0  0  0
  2  5  1  0  0  0  0
  2  1  2  0  0  0  0
  3  6  1  0  0  0  0
  4  6  2  0  0  0  0
  5  3  2  0  0  0  0
  7  8  2  0  0  0  0
  8  9  1  0  0  0  0
  8  1  1  0  0  0  0
 10 13  1  0  0  0  0
 10 12  1  0  0  0  0
 11 14  1  0  0  0  0
 12  9  1  0  0  0  0
 13 17  1  0  0  0  0
 14 19  1  6  0  0  0
 15 13  1  0  0  0  0
 16 15  1  0  0  0  0
 16 11  1  0  0  0  0
 17 21  1  6  0  0  0
 17 14  1  0  0  0  0
 18 10  2  0  0  0  0
 20 21  1  0  0  0  0
 22  2  1  0  0  0  0
 23 25  1  0  0  0  0
 23 24  1  0  0  0  0
 24 26  1  6  0  0  0
 24 22  1  0  0  0  0
 25 29  1  6  0  0  0
 25 24  1  0  0  0  0
 27 35  2  0  0  0  0
 28 36  2  0  0  0  0
 28 30  1  0  0  0  0
 29 27  1  0  0  0  0
 31 35  1  6  0  0  0
 31 28  1  0  0  0  0
 32 27  1  0  0  0  0
 32 34  1  0  0  0  0
 33 37  1  0  0  0  0
 34 33  1  6  0  0  0
 34 31  1  0  0  0  0
 37 39  1  6  0  0  0
 37 36  1  0  0  0  0
 39 38  1  0  0  0  0
M  END
>  <MODEL>
3

>  <REMARK>
 VINA RESULT:      -7.5      2.673     10.235
  Name = 
  7 active torsions:
  status: ('A' for Active; 'I' for Inactive)
    1  A    between atoms: N_3  and  C_19
    2  A    between atoms: C_5  and  C_9
    3  A    between atoms: O_8  and  C_13
    4  A    between atoms: O_8  and  C_15
    5  A    between atoms: N_12  and  N_26
    6  A    between atoms: C_31  and  C_33
    7  A    between atoms: C_38  and  O_39
                            x       y       z     vdW  Elec       q    Type
                         _______ _______ _______ _____ _____    ______ ____

>  <TORSDO>
F 7

$$$$
=
 OpenBabel11042415373D

 39 43  0  0  1  0  0  0  0  0999 V2000
  194.1310  174.2840  145.4870 C   0  0  0  0  0  0  0  0  0  0  0  0
  192.7200  174.3370  145.3960 C   0  0  0  0  0  0  0  0  0  0  0  0
  192.7300  176.4630  146.5820 C   0  0  0  0  0  3  0  0  0  0  0  0
  194.8150  175.3360  146.1110 C   0  0  0  0  0  3  0  0  0  0  0  0
  192.0330  175.4270  145.9570 C   0  0  0  0  0  3  0  0  0  0  0  0
  194.1210  176.4210  146.6540 C   0  0  0  0  0  3  0  0  0  0  0  0
  195.0060  172.0700  145.6250 O   0  0  0  0  0  0  0  0  0  0  0  0
  194.9160  173.1400  144.9670 C   0  0  0  0  0  0  0  0  0  0  0  0
  195.5910  173.2450  143.7140 N   0  0  0  0  0  0  0  0  0  0  0  0
  197.1990  172.2840  142.0480 C   0  0  0  0  0  0  0  0  0  0  0  0
  196.5510  175.2740  138.9700 C   0  0  0  0  0  2  0  0  0  0  0  0
  196.3970  172.2020  143.2370 N   0  0  0  0  0  0  0  0  0  0  0  0
  197.1590  173.4140  141.1470 N   0  0  0  0  0  0  0  0  0  0  0  0
  195.6470  175.0870  140.1940 C   0  0  1  0  0  3  0  0  0  0  0  0
  197.8840  173.3150  139.8720 C   0  0  0  0  0  2  0  0  0  0  0  0
  197.9410  174.6540  139.1380 C   0  0  0  0  0  2  0  0  0  0  0  0
  196.3880  174.6200  141.4550 C   0  0  2  0  0  3  0  0  0  0  0  0
  197.9370  171.3020  141.7660 O   0  0  0  0  0  0  0  0  0  0  0  0
  194.8890  176.2320  140.4350 O   0  0  0  0  0  1  0  0  0  0  0  0
  196.6800  176.3080  143.1350 O   0  0  0  0  0  1  0  0  0  0  0  0
  197.3010  175.6950  142.0470 C   0  0  0  0  0  2  0  0  0  0  0  0
  192.0210  173.3190  144.7380 O   0  0  0  0  0  0  0  0  0  0  0  0
  190.4820  172.2770  143.1530 C   0  0  0  0  0  2  0  0  0  0  0  0
  191.1770  173.5320  143.6120 C   0  0  1  0  0  0  0  0  0  0  0  0
  189.6800  173.4020  143.8090 C   0  0  1  0  0  3  0  0  0  0  0  0
  191.6760  174.2990  142.5520 O   0  0  0  0  0  1  0  0  0  0  0  0
  188.4900  175.4900  143.0280 C   0  0  0  0  0  0  0  0  0  0  0  0
  187.1970  177.7340  145.4680 C   0  0  0  0  0  0  0  0  0  0  0  0
  188.9600  174.1620  142.7970 N   0  0  0  0  0  2  0  0  0  0  0  0
  187.6210  177.2350  146.6920 O   0  0  0  0  0  1  0  0  0  0  0  0
  187.8760  177.3260  144.1950 C   0  0  2  0  0  3  0  0  0  0  0  0
  187.7020  176.4410  141.7240 S   0  0  0  0  0  0  0  0  0  0  0  0
  186.4090  178.7140  142.8370 C   0  0  0  0  0  2  0  0  0  0  0  0
  186.8610  177.2880  143.0840 C   0  0  2  0  0  3  0  0  0  0  0  0
  188.4820  176.0150  144.2090 N   0  0  0  0  0  0  0  0  0  0  0  0
  186.2210  178.6530  145.4180 C   0  0  0  0  0  3  0  0  0  0  0  0
  185.7090  179.2510  144.1080 C   0  0  2  0  0  3  0  0  0  0  0  0
  183.8640  178.9960  145.3190 C   0  0  0  0  0  1  0  0  0  0  0  0
  184.3300  179.0510  144.0030 O   0  0  0  0  0  0  0  0  0  0  0  0
  1  4  1  0  0  0  0
  2  1  2  0  0  0  0
  2  5  1  0  0  0  0
  3  6  1  0  0  0  0
  4  6  2  0  0  0  0
  5  3  2  0  0  0  0
  8  1  1  0  0  0  0
  8  7  2  0  0  0  0
  9  8  1  0  0  0  0
 10 12  1  0  0  0  0
 11 16  1  0  0  0  0
 11 14  1  0  0  0  0
 12  9  2  0  0  0  0
 13 17  1  0  0  0  0
 13 10  1  0  0  0  0
 14 19  1  1  0  0  0
 14 17  1  0  0  0  0
 15 13  1  0  0  0  0
 16 15  1  0  0  0  0
 17 21  1  6  0  0  0
 18 10  2  0  0  0  0
 21 20  1  0  0  0  0
 22  2  1  0  0  0  0
 23 24  1  0  0  0  0
 23 25  1  0  0  0  0
 24 26  1  6  0  0  0
 24 25  1  0  0  0  0
 24 22  1  0  0  0  0
 25 29  1  6  0  0  0
 27 35  2  0  0  0  0
 28 30  1  0  0  0  0
 29 27  1  0  0  0  0
 31 35  1  1  0  0  0
 31 28  1  0  0  0  0
 32 27  1  0  0  0  0
 32 34  1  0  0  0  0
 33 37  1  0  0  0  0
 34 33  1  6  0  0  0
 34 31  1  0  0  0  0
 36 28  2  0  0  0  0
 37 39  1  6  0  0  0
 37 36  1  0  0  0  0
 39 38  1  0  0  0  0
M  END
>  <MODEL>
4

>  <REMARK>
 VINA RESULT:      -7.5      3.469     10.291
  Name = 
  7 active torsions:
  status: ('A' for Active; 'I' for Inactive)
    1  A    between atoms: N_3  and  C_19
    2  A    between atoms: C_5  and  C_9
    3  A    between atoms: O_8  and  C_13
    4  A    between atoms: O_8  and  C_15
    5  A    between atoms: N_12  and  N_26
    6  A    between atoms: C_31  and  C_33
    7  A    between atoms: C_38  and  O_39
                            x       y       z     vdW  Elec       q    Type
                         _______ _______ _______ _____ _____    ______ ____

>  <TORSDO>
F 7

$$$$
=
 OpenBabel11042415373D

 39 43  0  0  1  0  0  0  0  0999 V2000
  192.5550  171.7850  141.3560 C   0  0  0  0  0  0  0  0  0  0  0  0
  191.2630  171.7590  140.7790 C   0  0  0  0  0  0  0  0  0  0  0  0
  190.9240  169.5140  141.6550 C   0  0  0  0  0  3  0  0  0  0  0  0
  192.9980  170.6760  142.0880 C   0  0  0  0  0  3  0  0  0  0  0  0
  190.4640  170.6140  140.9290 C   0  0  0  0  0  3  0  0  0  0  0  0
  192.1890  169.5470  142.2410 C   0  0  0  0  0  3  0  0  0  0  0  0
  194.0800  173.1270  140.1050 O   0  0  0  0  0  0  0  0  0  0  0  0
  193.4720  172.9380  141.1920 C   0  0  0  0  0  0  0  0  0  0  0  0
  193.6860  173.8410  142.2760 N   0  0  0  0  0  0  0  0  0  0  0  0
  194.9050  175.8130  143.2310 C   0  0  0  0  0  0  0  0  0  0  0  0
  192.3240  176.3530  146.6780 C   0  0  0  0  0  2  0  0  0  0  0  0
  194.6040  174.8960  142.1680 N   0  0  0  0  0  0  0  0  0  0  0  0
  194.1940  175.8210  144.4900 N   0  0  0  0  0  0  0  0  0  0  0  0
  191.9810  175.4690  145.4740 C   0  0  1  0  0  3  0  0  0  0  0  0
  194.4620  176.9140  145.4350 C   0  0  0  0  0  2  0  0  0  0  0  0
  193.8190  176.6650  146.7990 C   0  0  0  0  0  2  0  0  0  0  0  0
  193.1980  174.8000  144.8200 C   0  0  2  0  0  3  0  0  0  0  0  0
  195.8030  176.6740  143.0300 O   0  0  0  0  0  0  0  0  0  0  0  0
  190.9950  174.5380  145.8030 O   0  0  0  0  0  1  0  0  0  0  0  0
  193.4520  172.4490  145.2280 O   0  0  0  0  0  1  0  0  0  0  0  0
  193.8260  173.7110  145.6910 C   0  0  0  0  0  2  0  0  0  0  0  0
  190.7840  172.8740  140.0810 O   0  0  0  0  0  0  0  0  0  0  0  0
  188.9310  173.1590  141.6470 C   0  0  0  0  0  2  0  0  0  0  0  0
  189.4940  173.4420  140.2780 C   0  0  1  0  0  0  0  0  0  0  0  0
  189.3600  174.5780  141.2730 C   0  0  1  0  0  3  0  0  0  0  0  0
  188.5480  173.2950  139.2580 O   0  0  0  0  0  1  0  0  0  0  0  0
  187.7760  176.4750  141.8010 C   0  0  0  0  0  0  0  0  0  0  0  0
  187.5890  177.6630  145.1500 C   0  0  0  0  0  0  0  0  0  0  0  0
  188.1920  175.3930  140.9690 N   0  0  0  0  0  2  0  0  0  0  0  0
  188.5730  176.9730  145.8430 O   0  0  0  0  0  1  0  0  0  0  0  0
  187.6270  177.7620  143.6540 C   0  0  2  0  0  3  0  0  0  0  0  0
  186.3960  177.5290  141.3420 S   0  0  0  0  0  0  0  0  0  0  0  0
  185.5880  179.0880  143.5770 C   0  0  0  0  0  2  0  0  0  0  0  0
  186.2190  177.7850  143.1240 C   0  0  2  0  0  3  0  0  0  0  0  0
  188.2760  176.6620  142.9780 N   0  0  0  0  0  0  0  0  0  0  0  0
  186.6300  178.3220  145.8190 C   0  0  0  0  0  3  0  0  0  0  0  0
  185.5200  179.1070  145.1220 C   0  0  2  0  0  3  0  0  0  0  0  0
  184.4410  178.2890  146.8830 C   0  0  0  0  0  1  0  0  0  0  0  0
  184.2720  178.6370  145.5410 O   0  0  0  0  0  0  0  0  0  0  0  0
  1  4  1  0  0  0  0
  2  5  1  0  0  0  0
  2  1  2  0  0  0  0
  3  6  1  0  0  0  0
  4  6  2  0  0  0  0
  5  3  2  0  0  0  0
  7  8  2  0  0  0  0
  8  1  1  0  0  0  0
  8  9  1  0  0  0  0
 10 13  1  0  0  0  0
 11 16  1  0  0  0  0
 12  9  2  0  0  0  0
 12 10  1  0  0  0  0
 13 17  1  0  0  0  0
 13 15  1  0  0  0  0
 14 19  1  1  0  0  0
 14 11  1  0  0  0  0
 15 16  1  0  0  0  0
 17 14  1  0  0  0  0
 17 21  1  1  0  0  0
 18 10  2  0  0  0  0
 20 21  1  0  0  0  0
 22 24  1  0  0  0  0
 22  2  1  0  0  0  0
 24 26  1  6  0  0  0
 24 25  1  0  0  0  0
 24 23  1  0  0  0  0
 25 29  1  6  0  0  0
 25 23  1  0  0  0  0
 27 35  2  0  0  0  0
 28 36  2  0  0  0  0
 28 30  1  0  0  0  0
 29 27  1  0  0  0  0
 31 35  1  6  0  0  0
 31 28  1  0  0  0  0
 32 27  1  0  0  0  0
 32 34  1  0  0  0  0
 33 37  1  0  0  0  0
 34 33  1  6  0  0  0
 34 31  1  0  0  0  0
 37 39  1  6  0  0  0
 37 36  1  0  0  0  0
 39 38  1  0  0  0  0
M  END
>  <MODEL>
5

>  <REMARK>
 VINA RESULT:      -7.4      3.593      9.340
  Name = 
  7 active torsions:
  status: ('A' for Active; 'I' for Inactive)
    1  A    between atoms: N_3  and  C_19
    2  A    between atoms: C_5  and  C_9
    3  A    between atoms: O_8  and  C_13
    4  A    between atoms: O_8  and  C_15
    5  A    between atoms: N_12  and  N_26
    6  A    between atoms: C_31  and  C_33
    7  A    between atoms: C_38  and  O_39
                            x       y       z     vdW  Elec       q    Type
                         _______ _______ _______ _____ _____    ______ ____

>  <TORSDO>
F 7

$$$$
=
 OpenBabel11042415373D

 39 43  0  0  1  0  0  0  0  0999 V2000
  187.1720  176.7450  144.4440 C   0  0  0  0  0  0  0  0  0  0  0  0
  187.8010  176.2890  145.6270 C   0  0  0  0  0  0  0  0  0  0  0  0
  185.8890  177.0470  146.9280 C   0  0  0  0  0  3  0  0  0  0  0  0
  185.9020  177.3300  144.5290 C   0  0  0  0  0  3  0  0  0  0  0  0
  187.1520  176.4550  146.8620 C   0  0  0  0  0  3  0  0  0  0  0  0
  185.2610  177.4790  145.7610 C   0  0  0  0  0  3  0  0  0  0  0  0
  188.5270  177.5990  142.6760 O   0  0  0  0  0  0  0  0  0  0  0  0
  187.8220  176.6520  143.1150 C   0  0  0  0  0  0  0  0  0  0  0  0
  187.6430  175.4860  142.3120 N   0  0  0  0  0  2  0  0  0  0  0  0
  189.0050  174.3190  140.5610 C   0  0  0  0  0  0  0  0  0  0  0  0
  190.9810  171.5470  143.2540 C   0  0  0  0  0  2  0  0  0  0  0  0
  188.1870  175.4050  141.0230 N   0  0  0  0  0  2  0  0  0  0  0  0
  189.4580  173.2510  141.4250 N   0  0  0  0  0  0  0  0  0  0  0  0
  190.1950  172.7810  143.7110 C   0  0  1  0  0  3  0  0  0  0  0  0
  190.4350  172.2900  140.8920 C   0  0  0  0  0  2  0  0  0  0  0  0
  190.6400  171.1010  141.8290 C   0  0  0  0  0  2  0  0  0  0  0  0
  189.0020  173.1340  142.8110 C   0  0  2  0  0  3  0  0  0  0  0  0
  189.3740  174.3290  139.3560 O   0  0  0  0  0  0  0  0  0  0  0  0
  189.8160  172.6640  145.0480 O   0  0  0  0  0  1  0  0  0  0  0  0
  186.9400  172.3380  141.8790 O   0  0  0  0  0  1  0  0  0  0  0  0
  187.8580  172.1240  142.9080 C   0  0  0  0  0  2  0  0  0  0  0  0
  189.0510  175.6620  145.5590 O   0  0  0  0  0  0  0  0  0  0  0  0
  190.4660  175.7160  147.5490 C   0  0  0  0  0  2  0  0  0  0  0  0
  190.2390  176.1920  146.1380 C   0  0  1  0  0  0  0  0  0  0  0  0
  191.3800  175.2350  146.4220 C   0  0  1  0  0  3  0  0  0  0  0  0
  190.4990  177.5560  145.9720 O   0  0  0  0  0  1  0  0  0  0  0  0
  193.4510  176.1540  145.3010 C   0  0  0  0  0  0  0  0  0  0  0  0
  194.4670  174.7640  142.1870 C   0  0  0  0  0  0  0  0  0  0  0  0
  192.6490  175.9480  146.4640 N   0  0  0  0  0  2  0  0  0  0  0  0
  193.4680  173.8670  141.8380 O   0  0  0  0  0  1  0  0  0  0  0  0
  194.2130  175.8440  143.1960 C   0  0  2  0  0  3  0  0  0  0  0  0
  194.9570  177.1300  145.3660 S   0  0  0  0  0  0  0  0  0  0  0  0
  196.4780  176.7140  143.0020 C   0  0  0  0  0  2  0  0  0  0  0  0
  195.4780  176.1080  143.9670 C   0  0  2  0  0  3  0  0  0  0  0  0
  193.2100  175.5390  144.1900 N   0  0  0  0  0  0  0  0  0  0  0  0
  195.6550  174.7250  141.5650 C   0  0  0  0  0  3  0  0  0  0  0  0
  196.7980  175.6840  141.8920 C   0  0  2  0  0  3  0  0  0  0  0  0
  197.8800  173.7870  141.4840 C   0  0  0  0  0  1  0  0  0  0  0  0
  197.9410  174.9580  142.2430 O   0  0  0  0  0  0  0  0  0  0  0  0
  1  4  2  0  0  0  0
  1  2  1  0  0  0  0
  2  5  2  0  0  0  0
  4  6  1  0  0  0  0
  5  3  1  0  0  0  0
  6  3  2  0  0  0  0
  7  8  2  0  0  0  0
  8  1  1  0  0  0  0
  9  8  1  0  0  0  0
 10 12  1  0  0  0  0
 10 13  1  0  0  0  0
 11 14  1  0  0  0  0
 12  9  1  0  0  0  0
 13 17  1  0  0  0  0
 14 19  1  1  0  0  0
 15 13  1  0  0  0  0
 15 16  1  0  0  0  0
 16 11  1  0  0  0  0
 17 21  1  6  0  0  0
 17 14  1  0  0  0  0
 18 10  2  0  0  0  0
 20 21  1  0  0  0  0
 22  2  1  0  0  0  0
 22 24  1  0  0  0  0
 24 26  1  6  0  0  0
 24 25  1  0  0  0  0
 24 23  1  0  0  0  0
 25 29  1  1  0  0  0
 25 23  1  0  0  0  0
 27 32  1  0  0  0  0
 27 29  1  0  0  0  0
 30 28  1  0  0  0  0
 31 28  1  6  0  0  0
 31 34  1  0  0  0  0
 31 35  1  0  0  0  0
 34 33  1  6  0  0  0
 34 32  1  0  0  0  0
 35 27  2  0  0  0  0
 36 37  1  0  0  0  0
 36 28  2  0  0  0  0
 37 39  1  1  0  0  0
 37 33  1  0  0  0  0
 38 39  1  0  0  0  0
M  END
>  <MODEL>
6

>  <REMARK>
 VINA RESULT:      -7.3      3.548      6.061
  Name = 
  7 active torsions:
  status: ('A' for Active; 'I' for Inactive)
    1  A    between atoms: N_3  and  C_19
    2  A    between atoms: C_5  and  C_9
    3  A    between atoms: O_8  and  C_13
    4  A    between atoms: O_8  and  C_15
    5  A    between atoms: N_12  and  N_26
    6  A    between atoms: C_31  and  C_33
    7  A    between atoms: C_38  and  O_39
                            x       y       z     vdW  Elec       q    Type
                         _______ _______ _______ _____ _____    ______ ____

>  <TORSDO>
F 7

$$$$
=
 OpenBabel11042415373D

 39 43  0  0  1  0  0  0  0  0999 V2000
  191.6010  171.9900  141.9340 C   0  0  0  0  0  0  0  0  0  0  0  0
  191.0310  172.0540  140.6410 C   0  0  0  0  0  0  0  0  0  0  0  0
  191.0630  169.6240  140.5130 C   0  0  0  0  0  3  0  0  0  0  0  0
  191.8740  170.7370  142.4980 C   0  0  0  0  0  3  0  0  0  0  0  0
  190.7770  170.8640  139.9390 C   0  0  0  0  0  3  0  0  0  0  0  0
  191.6060  169.5600  141.7950 C   0  0  0  0  0  3  0  0  0  0  0  0
  191.1840  173.6250  143.6200 O   0  0  0  0  0  0  0  0  0  0  0  0
  191.9460  173.2060  142.7090 C   0  0  0  0  0  0  0  0  0  0  0  0
  193.1460  173.9220  142.4200 N   0  0  0  0  0  2  0  0  0  0  0  0
  194.5330  175.2510  144.0310 C   0  0  0  0  0  0  0  0  0  0  0  0
  196.4340  171.8540  145.9500 C   0  0  0  0  0  2  0  0  0  0  0  0
  193.4560  175.1140  143.0910 N   0  0  0  0  0  2  0  0  0  0  0  0
  195.3340  174.1340  144.4810 N   0  0  0  0  0  0  0  0  0  0  0  0
  195.2120  171.7520  145.0300 C   0  0  1  0  0  3  0  0  0  0  0  0
  196.2890  174.3580  145.5760 C   0  0  0  0  0  2  0  0  0  0  0  0
  197.2150  173.1600  145.7830 C   0  0  0  0  0  2  0  0  0  0  0  0
  195.1850  172.7960  143.9050 C   0  0  2  0  0  3  0  0  0  0  0  0
  194.7540  176.3950  144.5120 O   0  0  0  0  0  0  0  0  0  0  0  0
  195.0670  170.4560  144.5340 O   0  0  0  0  0  1  0  0  0  0  0  0
  195.6870  171.9690  141.7100 O   0  0  0  0  0  1  0  0  0  0  0  0
  196.2550  172.5590  142.8380 C   0  0  0  0  0  2  0  0  0  0  0  0
  190.7100  173.2950  140.0770 O   0  0  0  0  0  0  0  0  0  0  0  0
  188.4830  173.1930  141.0760 C   0  0  0  0  0  2  0  0  0  0  0  0
  189.4010  173.8550  140.0810 C   0  0  1  0  0  0  0  0  0  0  0  0
  188.9600  174.6270  141.3100 C   0  0  1  0  0  3  0  0  0  0  0  0
  188.7860  174.0980  138.8480 O   0  0  0  0  0  1  0  0  0  0  0  0
  187.5450  176.6550  141.8270 C   0  0  0  0  0  0  0  0  0  0  0  0
  187.2550  177.7180  145.2100 C   0  0  0  0  0  0  0  0  0  0  0  0
  187.9040  175.5700  140.9720 N   0  0  0  0  0  2  0  0  0  0  0  0
  188.1150  176.9010  145.9310 O   0  0  0  0  0  1  0  0  0  0  0  0
  187.4030  177.8730  143.7270 C   0  0  2  0  0  3  0  0  0  0  0  0
  186.3120  177.8650  141.3330 S   0  0  0  0  0  0  0  0  0  0  0  0
  185.5180  179.4060  143.5850 C   0  0  0  0  0  2  0  0  0  0  0  0
  186.0430  178.0640  143.1120 C   0  0  2  0  0  3  0  0  0  0  0  0
  187.9810  176.7400  143.0410 N   0  0  0  0  0  0  0  0  0  0  0  0
  186.3240  178.4440  145.8490 C   0  0  0  0  0  3  0  0  0  0  0  0
  185.3490  179.3690  145.1230 C   0  0  2  0  0  3  0  0  0  0  0  0
  184.1220  178.3130  146.6450 C   0  0  0  0  0  1  0  0  0  0  0  0
  184.0340  179.0140  145.4400 O   0  0  0  0  0  0  0  0  0  0  0  0
  1  4  1  0  0  0  0
  1  8  1  0  0  0  0
  2  1  2  0  0  0  0
  3  6  1  0  0  0  0
  5  3  2  0  0  0  0
  5  2  1  0  0  0  0
  6  4  2  0  0  0  0
  8  7  2  0  0  0  0
  9  8  1  0  0  0  0
  9 12  1  0  0  0  0
 10 13  1  0  0  0  0
 10 18  2  0  0  0  0
 12 10  1  0  0  0  0
 13 15  1  0  0  0  0
 14 19  1  6  0  0  0
 14 11  1  0  0  0  0
 15 16  1  0  0  0  0
 16 11  1  0  0  0  0
 17 21  1  6  0  0  0
 17 13  1  0  0  0  0
 17 14  1  0  0  0  0
 20 21  1  0  0  0  0
 22 24  1  0  0  0  0
 22  2  1  0  0  0  0
 23 25  1  0  0  0  0
 24 26  1  6  0  0  0
 24 23  1  0  0  0  0
 24 25  1  0  0  0  0
 25 29  1  6  0  0  0
 27 35  2  0  0  0  0
 28 36  2  0  0  0  0
 28 30  1  0  0  0  0
 29 27  1  0  0  0  0
 31 35  1  6  0  0  0
 31 28  1  0  0  0  0
 32 27  1  0  0  0  0
 32 34  1  0  0  0  0
 33 37  1  0  0  0  0
 34 33  1  6  0  0  0
 34 31  1  0  0  0  0
 37 39  1  6  0  0  0
 37 36  1  0  0  0  0
 39 38  1  0  0  0  0
M  END
>  <MODEL>
7

>  <REMARK>
 VINA RESULT:      -7.2      3.337     10.068
  Name = 
  7 active torsions:
  status: ('A' for Active; 'I' for Inactive)
    1  A    between atoms: N_3  and  C_19
    2  A    between atoms: C_5  and  C_9
    3  A    between atoms: O_8  and  C_13
    4  A    between atoms: O_8  and  C_15
    5  A    between atoms: N_12  and  N_26
    6  A    between atoms: C_31  and  C_33
    7  A    between atoms: C_38  and  O_39
                            x       y       z     vdW  Elec       q    Type
                         _______ _______ _______ _____ _____    ______ ____

>  <TORSDO>
F 7

$$$$
=
 OpenBabel11042415373D

 39 43  0  0  1  0  0  0  0  0999 V2000
  192.1160  171.1300  142.7910 C   0  0  0  0  0  0  0  0  0  0  0  0
  191.9120  171.5320  141.4490 C   0  0  0  0  0  0  0  0  0  0  0  0
  192.2140  169.2290  140.7200 C   0  0  0  0  0  3  0  0  0  0  0  0
  192.3480  169.7760  143.0700 C   0  0  0  0  0  3  0  0  0  0  0  0
  191.9740  170.5730  140.4250 C   0  0  0  0  0  3  0  0  0  0  0  0
  192.3940  168.8290  142.0430 C   0  0  0  0  0  3  0  0  0  0  0  0
  191.0690  172.3200  144.5730 O   0  0  0  0  0  0  0  0  0  0  0  0
  192.1190  172.0950  143.9150 C   0  0  0  0  0  0  0  0  0  0  0  0
  193.3170  172.7910  144.2570 N   0  0  0  0  0  2  0  0  0  0  0  0
  194.0760  174.9840  145.2060 C   0  0  0  0  0  0  0  0  0  0  0  0
  197.3870  175.5770  142.4630 C   0  0  0  0  0  2  0  0  0  0  0  0
  193.3260  173.7610  145.2690 N   0  0  0  0  0  2  0  0  0  0  0  0
  195.0050  175.2840  144.1390 N   0  0  0  0  0  0  0  0  0  0  0  0
  196.6380  174.2510  142.6370 C   0  0  1  0  0  3  0  0  0  0  0  0
  195.8500  176.4800  144.2670 C   0  0  0  0  0  2  0  0  0  0  0  0
  196.6050  176.7910  142.9740 C   0  0  0  0  0  2  0  0  0  0  0  0
  195.1490  174.4110  142.9720 C   0  0  2  0  0  3  0  0  0  0  0  0
  193.9420  175.8080  146.1500 O   0  0  0  0  0  0  0  0  0  0  0  0
  196.8320  173.4200  141.5330 O   0  0  0  0  0  1  0  0  0  0  0  0
  193.1990  175.6250  142.2790 O   0  0  0  0  0  1  0  0  0  0  0  0
  194.3240  174.9520  141.8030 C   0  0  0  0  0  2  0  0  0  0  0  0
  191.6350  172.8720  141.1540 O   0  0  0  0  0  0  0  0  0  0  0  0
  189.2270  172.5740  141.4370 C   0  0  0  0  0  2  0  0  0  0  0  0
  190.3450  173.3580  140.7990 C   0  0  1  0  0  0  0  0  0  0  0  0
  189.5070  174.0100  141.8810 C   0  0  1  0  0  3  0  0  0  0  0  0
  190.1030  173.6590  139.4540 O   0  0  0  0  0  1  0  0  0  0  0  0
  188.0920  176.1020  141.9610 C   0  0  0  0  0  0  0  0  0  0  0  0
  187.3940  177.5720  145.1260 C   0  0  0  0  0  0  0  0  0  0  0  0
  188.5290  174.9160  141.2970 N   0  0  0  0  0  2  0  0  0  0  0  0
  188.1320  176.8400  146.0460 O   0  0  0  0  0  1  0  0  0  0  0  0
  187.7380  177.5430  143.6670 C   0  0  2  0  0  3  0  0  0  0  0  0
  186.9670  177.2560  141.1690 S   0  0  0  0  0  0  0  0  0  0  0  0
  185.9290  179.0690  143.0960 C   0  0  0  0  0  2  0  0  0  0  0  0
  186.4750  177.6730  142.8590 C   0  0  2  0  0  3  0  0  0  0  0  0
  188.3690  176.3290  143.2040 N   0  0  0  0  0  0  0  0  0  0  0  0
  186.4090  178.3810  145.5450 C   0  0  0  0  0  3  0  0  0  0  0  0
  185.5610  179.2210  144.5910 C   0  0  2  0  0  3  0  0  0  0  0  0
  184.0660  178.6660  146.1380 C   0  0  0  0  0  1  0  0  0  0  0  0
  184.2070  178.9220  144.7720 O   0  0  0  0  0  0  0  0  0  0  0  0
  1  4  1  0  0  0  0
  1  8  1  0  0  0  0
  2  1  2  0  0  0  0
  3  6  1  0  0  0  0
  5  3  2  0  0  0  0
  5  2  1  0  0  0  0
  6  4  2  0  0  0  0
  8  9  1  0  0  0  0
  8  7  2  0  0  0  0
  9 12  1  0  0  0  0
 10 12  1  0  0  0  0
 10 18  2  0  0  0  0
 11 14  1  0  0  0  0
 11 16  1  0  0  0  0
 13 15  1  0  0  0  0
 13 10  1  0  0  0  0
 14 19  1  6  0  0  0
 14 17  1  0  0  0  0
 16 15  1  0  0  0  0
 17 21  1  6  0  0  0
 17 13  1  0  0  0  0
 21 20  1  0  0  0  0
 22  2  1  0  0  0  0
 23 25  1  0  0  0  0
 24 26  1  6  0  0  0
 24 22  1  0  0  0  0
 24 23  1  0  0  0  0
 24 25  1  0  0  0  0
 25 29  1  6  0  0  0
 27 35  2  0  0  0  0
 28 36  2  0  0  0  0
 28 30  1  0  0  0  0
 29 27  1  0  0  0  0
 31 35  1  6  0  0  0
 31 28  1  0  0  0  0
 32 27  1  0  0  0  0
 32 34  1  0  0  0  0
 33 37  1  0  0  0  0
 34 33  1  6  0  0  0
 34 31  1  0  0  0  0
 37 39  1  6  0  0  0
 37 36  1  0  0  0  0
 39 38  1  0  0  0  0
M  END
>  <MODEL>
8

>  <REMARK>
 VINA RESULT:      -7.1      3.576      9.565
  Name = 
  7 active torsions:
  status: ('A' for Active; 'I' for Inactive)
    1  A    between atoms: N_3  and  C_19
    2  A    between atoms: C_5  and  C_9
    3  A    between atoms: O_8  and  C_13
    4  A    between atoms: O_8  and  C_15
    5  A    between atoms: N_12  and  N_26
    6  A    between atoms: C_31  and  C_33
    7  A    between atoms: C_38  and  O_39
                            x       y       z     vdW  Elec       q    Type
                         _______ _______ _______ _____ _____    ______ ____

>  <TORSDO>
F 7

$$$$
=
 OpenBabel11042415373D

 39 43  0  0  1  0  0  0  0  0999 V2000
  196.0750  174.2480  143.3240 C   0  0  0  0  0  0  0  0  0  0  0  0
  195.5040  174.7050  144.5350 C   0  0  0  0  0  0  0  0  0  0  0  0
  197.1770  173.4570  145.7870 C   0  0  0  0  0  3  0  0  0  0  0  0
  197.2010  173.4160  143.3720 C   0  0  0  0  0  3  0  0  0  0  0  0
  196.0590  174.2940  145.7580 C   0  0  0  0  0  3  0  0  0  0  0  0
  197.7520  173.0230  144.5940 C   0  0  0  0  0  3  0  0  0  0  0  0
  195.6370  175.7610  141.5320 O   0  0  0  0  0  0  0  0  0  0  0  0
  195.5090  174.5980  142.0000 C   0  0  0  0  0  0  0  0  0  0  0  0
  194.7980  173.6180  141.2440 N   0  0  0  0  0  2  0  0  0  0  0  0
  192.7960  173.7650  139.7430 C   0  0  0  0  0  0  0  0  0  0  0  0
  190.2440  171.1500  142.0850 C   0  0  0  0  0  2  0  0  0  0  0  0
  194.1930  173.9460  140.0230 N   0  0  0  0  0  2  0  0  0  0  0  0
  191.8890  173.1030  140.6540 N   0  0  0  0  0  0  0  0  0  0  0  0
  191.7580  171.2820  142.2840 C   0  0  1  0  0  3  0  0  0  0  0  0
  190.5240  172.8130  140.1910 C   0  0  0  0  0  2  0  0  0  0  0  0
  189.6240  172.3280  141.3270 C   0  0  0  0  0  2  0  0  0  0  0  0
  192.3090  172.6850  141.9930 C   0  0  2  0  0  3  0  0  0  0  0  0
  192.3600  174.1670  138.6310 O   0  0  0  0  0  0  0  0  0  0  0  0
  192.1360  170.8310  143.5490 O   0  0  0  0  0  1  0  0  0  0  0  0
  191.9000  175.0010  142.4660 O   0  0  0  0  0  1  0  0  0  0  0  0
  191.8820  173.7250  143.0300 C   0  0  0  0  0  2  0  0  0  0  0  0
  194.4060  175.5740  144.5090 O   0  0  0  0  0  0  0  0  0  0  0  0
  193.7460  176.8010  146.5150 C   0  0  0  0  0  2  0  0  0  0  0  0
  193.4480  175.6770  145.5570 C   0  0  1  0  0  0  0  0  0  0  0  0
  192.5420  176.8920  145.5760 C   0  0  1  0  0  3  0  0  0  0  0  0
  193.0500  174.5010  146.2020 O   0  0  0  0  0  1  0  0  0  0  0  0
  190.0440  176.5170  145.6580 C   0  0  0  0  0  0  0  0  0  0  0  0
  188.0400  177.7760  143.0020 C   0  0  0  0  0  0  0  0  0  0  0  0
  191.3140  176.6060  146.3040 N   0  0  0  0  0  2  0  0  0  0  0  0
  188.9350  178.2830  142.0700 O   0  0  0  0  0  1  0  0  0  0  0  0
  188.4870  176.7950  144.0430 C   0  0  2  0  0  3  0  0  0  0  0  0
  188.5650  176.0550  146.5660 S   0  0  0  0  0  0  0  0  0  0  0  0
  186.2590  176.6330  145.0090 C   0  0  0  0  0  2  0  0  0  0  0  0
  187.6960  177.0170  145.3030 C   0  0  2  0  0  3  0  0  0  0  0  0
  189.8740  176.8970  144.4340 N   0  0  0  0  0  0  0  0  0  0  0  0
  186.7390  178.1000  142.9310 C   0  0  0  0  0  3  0  0  0  0  0  0
  185.6970  177.5750  143.9170 C   0  0  2  0  0  3  0  0  0  0  0  0
  185.5360  179.7900  143.8960 C   0  0  0  0  0  1  0  0  0  0  0  0
  185.0330  178.6470  144.5200 O   0  0  0  0  0  0  0  0  0  0  0  0
  1  4  2  0  0  0  0
  1  2  1  0  0  0  0
  2  5  2  0  0  0  0
  4  6  1  0  0  0  0
  5  3  1  0  0  0  0
  6  3  2  0  0  0  0
  7  8  2  0  0  0  0
  8  1  1  0  0  0  0
  9  8  1  0  0  0  0
 10 12  1  0  0  0  0
 10 13  1  0  0  0  0
 11 14  1  0  0  0  0
 12  9  1  0  0  0  0
 13 17  1  0  0  0  0
 14 19  1  1  0  0  0
 15 13  1  0  0  0  0
 15 16  1  0  0  0  0
 16 11  1  0  0  0  0
 17 14  1  0  0  0  0
 17 21  1  1  0  0  0
 18 10  2  0  0  0  0
 20 21  1  0  0  0  0
 22  2  1  0  0  0  0
 22 24  1  0  0  0  0
 24 25  1  0  0  0  0
 24 26  1  1  0  0  0
 24 23  1  0  0  0  0
 25 29  1  1  0  0  0
 25 23  1  0  0  0  0
 27 29  1  0  0  0  0
 27 32  1  0  0  0  0
 30 28  1  0  0  0  0
 31 28  1  6  0  0  0
 31 35  1  0  0  0  0
 31 34  1  0  0  0  0
 34 33  1  6  0  0  0
 34 32  1  0  0  0  0
 35 27  2  0  0  0  0
 36 28  2  0  0  0  0
 36 37  1  0  0  0  0
 37 39  1  1  0  0  0
 37 33  1  0  0  0  0
 38 39  1  0  0  0  0
M  END
>  <MODEL>
9

>  <REMARK>
 VINA RESULT:      -7.1      3.171      8.974
  Name = 
  7 active torsions:
  status: ('A' for Active; 'I' for Inactive)
    1  A    between atoms: N_3  and  C_19
    2  A    between atoms: C_5  and  C_9
    3  A    between atoms: O_8  and  C_13
    4  A    between atoms: O_8  and  C_15
    5  A    between atoms: N_12  and  N_26
    6  A    between atoms: C_31  and  C_33
    7  A    between atoms: C_38  and  O_39
                            x       y       z     vdW  Elec       q    Type
                         _______ _______ _______ _____ _____    ______ ____

>  <TORSDO>
F 7

$$$$
