=
 OpenBabel11042417203D

 26 29  0  0  1  0  0  0  0  0999 V2000
  185.0500  179.8310  144.5980 C   0  0  0  0  0  2  0  0  0  0  0  0
  186.9820  177.4340  141.0020 N   0  0  0  0  0  0  0  0  0  0  0  0
  184.8340  178.6000  146.7320 C   0  0  2  0  0  3  0  0  0  0  0  0
  186.2780  178.9940  144.2060 C   0  0  1  0  0  3  0  0  0  0  0  0
  185.8860  177.5570  146.3540 C   0  0  2  0  0  3  0  0  0  0  0  0
  187.2860  177.9320  142.2180 C   0  0  0  0  0  0  0  0  0  0  0  0
  183.7230  178.3200  142.3790 C   0  0  0  0  0  1  0  0  0  0  0  0
  183.9360  178.0690  147.6590 O   0  0  0  0  0  1  0  0  0  0  0  0
  186.7990  178.0360  145.2510 C   0  0  0  0  0  0  0  0  0  0  0  0
  188.0480  177.5350  145.1680 C   0  0  0  0  0  0  0  0  0  0  0  0
  185.1630  178.0750  142.0840 C   0  0  0  0  0  0  0  0  0  0  0  0
  188.9710  177.8280  144.0310 C   0  0  0  0  0  3  0  0  0  0  0  0
  186.2050  178.3510  142.8960 N   0  0  0  0  0  0  0  0  0  0  0  0
  184.0870  179.0710  145.4970 C   0  0  0  0  0  2  0  0  0  0  0  0
  185.2790  176.3590  145.9700 O   0  0  0  0  0  1  0  0  0  0  0  0
  185.6360  177.5160  140.9150 C   0  0  0  0  0  3  0  0  0  0  0  0
  188.6640  178.0130  142.7380 C   0  0  0  0  0  0  0  0  0  0  0  0
  189.7310  178.1940  141.8140 N   0  0  0  0  0  1  0  0  0  0  0  0
  188.5080  176.7470  146.2380 O   0  0  0  0  0  0  0  0  0  0  0  0
  192.0550  176.0070  147.1240 C   0  0  0  0  0  3  0  0  0  0  0  0
  189.7570  176.1150  146.3330 C   0  0  0  0  0  0  0  0  0  0  0  0
  193.4390  174.1810  146.4680 F   0  0  0  0  0  0  0  0  0  0  0  0
  191.1940  174.2730  145.6720 C   0  0  0  0  0  3  0  0  0  0  0  0
  192.2420  174.8120  146.4230 C   0  0  0  0  0  0  0  0  0  0  0  0
  190.8190  176.6570  147.0770 C   0  0  0  0  0  3  0  0  0  0  0  0
  189.9580  174.9240  145.6270 C   0  0  0  0  0  3  0  0  0  0  0  0
  1 14  1  0  0  0  0
  2  6  2  0  0  0  0
  3  8  1  1  0  0  0
  4  1  1  1  0  0  0
  4  9  1  0  0  0  0
  5 15  1  6  0  0  0
  5  3  1  0  0  0  0
  6 17  1  0  0  0  0
  6 13  1  0  0  0  0
  9  5  1  0  0  0  0
 10  9  2  0  0  0  0
 10 19  1  0  0  0  0
 11  7  1  0  0  0  0
 11 13  1  0  0  0  0
 12 10  1  0  0  0  0
 13  4  1  0  0  0  0
 14  3  1  0  0  0  0
 16  2  1  0  0  0  0
 16 11  2  0  0  0  0
 17 12  2  0  0  0  0
 18 17  1  0  0  0  0
 19 21  1  0  0  0  0
 21 25  2  0  0  0  0
 23 24  1  0  0  0  0
 24 22  1  0  0  0  0
 24 20  2  0  0  0  0
 25 20  1  0  0  0  0
 26 23  2  0  0  0  0
 26 21  1  0  0  0  0
M  END
>  <MODEL>
1

>  <REMARK>
 VINA RESULT:      -7.5      0.000      0.000
  Name = 
  2 active torsions:
  status: ('A' for Active; 'I' for Inactive)
    1  A    between atoms: O_1  and  C_5
    2  A    between atoms: O_1  and  C_15
                            x       y       z     vdW  Elec       q    Type
                         _______ _______ _______ _____ _____    ______ ____

>  <TORSDO>
F 2

$$$$
=
 OpenBabel11042417203D

 26 29  0  0  1  0  0  0  0  0999 V2000
  189.6540  174.5350  146.3940 C   0  0  0  0  0  2  0  0  0  0  0  0
  191.1430  173.4280  142.0390 N   0  0  0  0  0  0  0  0  0  0  0  0
  189.2990  176.9420  146.8410 C   0  0  2  0  0  3  0  0  0  0  0  0
  189.3330  174.7350  144.9050 C   0  0  1  0  0  3  0  0  0  0  0  0
  189.1930  177.3050  145.3600 C   0  0  2  0  0  3  0  0  0  0  0  0
  190.0800  173.9470  142.6870 C   0  0  0  0  0  0  0  0  0  0  0  0
  192.4350  174.0560  145.3910 C   0  0  0  0  0  1  0  0  0  0  0  0
  189.7320  178.0420  147.5810 O   0  0  0  0  0  1  0  0  0  0  0  0
  188.8610  176.1100  144.4980 C   0  0  0  0  0  0  0  0  0  0  0  0
  188.2160  176.3030  143.3290 C   0  0  0  0  0  0  0  0  0  0  0  0
  191.6390  173.9060  144.1400 C   0  0  0  0  0  0  0  0  0  0  0  0
  187.9790  175.2110  142.3390 C   0  0  0  0  0  3  0  0  0  0  0  0
  190.3400  174.2300  143.9740 N   0  0  0  0  0  0  0  0  0  0  0  0
  190.2540  175.7780  147.0350 C   0  0  0  0  0  2  0  0  0  0  0  0
  190.3790  177.8910  144.9090 O   0  0  0  0  0  1  0  0  0  0  0  0
  192.1360  173.4060  142.9550 C   0  0  0  0  0  3  0  0  0  0  0  0
  188.7710  174.1680  142.0460 C   0  0  0  0  0  0  0  0  0  0  0  0
  188.3710  173.2970  140.9940 N   0  0  0  0  0  1  0  0  0  0  0  0
  187.6990  177.5860  143.0730 O   0  0  0  0  0  0  0  0  0  0  0  0
  184.1010  178.1310  142.2520 C   0  0  0  0  0  3  0  0  0  0  0  0
  186.3540  177.9750  143.1570 C   0  0  0  0  0  0  0  0  0  0  0  0
  182.4090  179.2590  143.4960 F   0  0  0  0  0  0  0  0  0  0  0  0
  184.6130  179.1290  144.3970 C   0  0  0  0  0  3  0  0  0  0  0  0
  183.6930  178.8430  143.3840 C   0  0  0  0  0  0  0  0  0  0  0  0
  185.4260  177.7020  142.1380 C   0  0  0  0  0  3  0  0  0  0  0  0
  185.9370  178.6980  144.2810 C   0  0  0  0  0  3  0  0  0  0  0  0
  1 14  1  0  0  0  0
  2  6  2  0  0  0  0
  2 16  1  0  0  0  0
  3 14  1  0  0  0  0
  3  8  1  1  0  0  0
  4  1  1  1  0  0  0
  5 15  1  6  0  0  0
  5  3  1  0  0  0  0
  6 13  1  0  0  0  0
  9  4  1  0  0  0  0
  9  5  1  0  0  0  0
 10  9  2  0  0  0  0
 11  7  1  0  0  0  0
 12 10  1  0  0  0  0
 13 11  1  0  0  0  0
 13  4  1  0  0  0  0
 16 11  2  0  0  0  0
 17 12  2  0  0  0  0
 17  6  1  0  0  0  0
 18 17  1  0  0  0  0
 19 21  1  0  0  0  0
 19 10  1  0  0  0  0
 20 24  1  0  0  0  0
 21 26  2  0  0  0  0
 24 22  1  0  0  0  0
 24 23  2  0  0  0  0
 25 20  2  0  0  0  0
 25 21  1  0  0  0  0
 26 23  1  0  0  0  0
M  END
>  <MODEL>
2

>  <REMARK>
 VINA RESULT:      -7.3      3.510      6.671
  Name = 
  2 active torsions:
  status: ('A' for Active; 'I' for Inactive)
    1  A    between atoms: O_1  and  C_5
    2  A    between atoms: O_1  and  C_15
                            x       y       z     vdW  Elec       q    Type
                         _______ _______ _______ _____ _____    ______ ____

>  <TORSDO>
F 2

$$$$
=
 OpenBabel11042417203D

 26 29  0  0  1  0  0  0  0  0999 V2000
  192.5300  173.6850  145.1620 C   0  0  0  0  0  2  0  0  0  0  0  0
  190.6560  173.8530  140.8180 N   0  0  0  0  0  0  0  0  0  0  0  0
  192.6990  175.8450  146.3560 C   0  0  2  0  0  3  0  0  0  0  0  0
  191.3060  174.1820  144.3770 C   0  0  1  0  0  3  0  0  0  0  0  0
  191.6490  176.5270  145.4790 C   0  0  2  0  0  3  0  0  0  0  0  0
  190.3310  174.0500  142.1130 C   0  0  0  0  0  0  0  0  0  0  0  0
  193.8920  173.8520  142.5000 C   0  0  0  0  0  1  0  0  0  0  0  0
  193.5760  176.7910  146.8880 O   0  0  0  0  0  1  0  0  0  0  0  0
  190.7600  175.5340  144.7690 C   0  0  0  0  0  0  0  0  0  0  0  0
  189.5100  175.9030  144.4220 C   0  0  0  0  0  0  0  0  0  0  0  0
  192.4570  173.8890  142.1010 C   0  0  0  0  0  0  0  0  0  0  0  0
  188.6110  175.0520  143.5870 C   0  0  0  0  0  3  0  0  0  0  0  0
  191.4010  174.0570  142.9240 N   0  0  0  0  0  0  0  0  0  0  0  0
  193.4720  174.8140  145.5530 C   0  0  0  0  0  2  0  0  0  0  0  0
  192.2570  177.3640  144.5400 O   0  0  0  0  0  1  0  0  0  0  0  0
  192.0030  173.7570  140.8050 C   0  0  0  0  0  3  0  0  0  0  0  0
  188.9440  174.2300  142.5800 C   0  0  0  0  0  0  0  0  0  0  0  0
  187.8960  173.5820  141.8680 N   0  0  0  0  0  1  0  0  0  0  0  0
  189.0260  177.1240  144.9250 O   0  0  0  0  0  0  0  0  0  0  0  0
  185.7290  177.1320  146.6710 C   0  0  0  0  0  3  0  0  0  0  0  0
  187.6980  177.4170  145.2700 C   0  0  0  0  0  0  0  0  0  0  0  0
  183.7260  178.3070  146.1380 F   0  0  0  0  0  0  0  0  0  0  0  0
  185.6390  178.5920  144.7440 C   0  0  0  0  0  3  0  0  0  0  0  0
  185.0180  178.0150  145.8550 C   0  0  0  0  0  0  0  0  0  0  0  0
  187.0630  176.8310  146.3780 C   0  0  0  0  0  3  0  0  0  0  0  0
  186.9720  178.2910  144.4530 C   0  0  0  0  0  3  0  0  0  0  0  0
  1 14  1  0  0  0  0
  2  6  2  0  0  0  0
  3  8  1  6  0  0  0
  4  9  1  0  0  0  0
  4  1  1  1  0  0  0
  5 15  1  6  0  0  0
  5  3  1  0  0  0  0
  6 17  1  0  0  0  0
  6 13  1  0  0  0  0
  9  5  1  0  0  0  0
 10  9  2  0  0  0  0
 10 19  1  0  0  0  0
 11  7  1  0  0  0  0
 11 13  1  0  0  0  0
 12 10  1  0  0  0  0
 13  4  1  0  0  0  0
 14  3  1  0  0  0  0
 16  2  1  0  0  0  0
 16 11  2  0  0  0  0
 17 12  2  0  0  0  0
 18 17  1  0  0  0  0
 19 21  1  0  0  0  0
 21 25  2  0  0  0  0
 23 24  1  0  0  0  0
 24 22  1  0  0  0  0
 24 20  2  0  0  0  0
 25 20  1  0  0  0  0
 26 23  2  0  0  0  0
 26 21  1  0  0  0  0
M  END
>  <MODEL>
3

>  <REMARK>
 VINA RESULT:      -7.3      3.519      6.882
  Name = 
  2 active torsions:
  status: ('A' for Active; 'I' for Inactive)
    1  A    between atoms: O_1  and  C_5
    2  A    between atoms: O_1  and  C_15
                            x       y       z     vdW  Elec       q    Type
                         _______ _______ _______ _____ _____    ______ ____

>  <TORSDO>
F 2

$$$$
=
 OpenBabel11042417203D

 26 29  0  0  1  0  0  0  0  0999 V2000
  194.3260  174.0910  145.0960 C   0  0  0  0  0  2  0  0  0  0  0  0
  191.0820  173.3000  141.7400 N   0  0  0  0  0  0  0  0  0  0  0  0
  194.0280  176.1540  146.4290 C   0  0  2  0  0  3  0  0  0  0  0  0
  192.8110  173.9910  144.8600 C   0  0  1  0  0  3  0  0  0  0  0  0
  192.5480  176.2920  146.0710 C   0  0  2  0  0  3  0  0  0  0  0  0
  191.2110  173.3810  143.0810 C   0  0  0  0  0  0  0  0  0  0  0  0
  194.4060  174.7370  142.1730 C   0  0  0  0  0  1  0  0  0  0  0  0
  194.5710  177.4000  146.7420 O   0  0  0  0  0  1  0  0  0  0  0  0
  191.9490  174.9920  145.5920 C   0  0  0  0  0  0  0  0  0  0  0  0
  190.6270  174.7800  145.7530 C   0  0  0  0  0  0  0  0  0  0  0  0
  193.0460  174.1440  142.3080 C   0  0  0  0  0  0  0  0  0  0  0  0
  189.9150  173.5990  145.1800 C   0  0  0  0  0  3  0  0  0  0  0  0
  192.4020  173.8710  143.4620 N   0  0  0  0  0  0  0  0  0  0  0  0
  194.7960  175.5270  145.2790 C   0  0  0  0  0  2  0  0  0  0  0  0
  192.3660  177.2770  145.0970 O   0  0  0  0  0  1  0  0  0  0  0  0
  192.2410  173.7890  141.2460 C   0  0  0  0  0  3  0  0  0  0  0  0
  190.1550  172.9660  144.0220 C   0  0  0  0  0  0  0  0  0  0  0  0
  189.2800  171.9090  143.6410 N   0  0  0  0  0  1  0  0  0  0  0  0
  189.9110  175.6920  146.5490 O   0  0  0  0  0  0  0  0  0  0  0  0
  186.4690  177.1280  146.4550 C   0  0  0  0  0  3  0  0  0  0  0  0
  188.7810  176.4290  146.1630 C   0  0  0  0  0  0  0  0  0  0  0  0
  185.4770  178.6000  144.8660 F   0  0  0  0  0  0  0  0  0  0  0  0
  187.7400  177.9190  144.5530 C   0  0  0  0  0  3  0  0  0  0  0  0
  186.5510  177.8920  145.2870 C   0  0  0  0  0  0  0  0  0  0  0  0
  187.5790  176.3980  146.8900 C   0  0  0  0  0  3  0  0  0  0  0  0
  188.8480  177.1880  144.9900 C   0  0  0  0  0  3  0  0  0  0  0  0
  1 14  1  0  0  0  0
  2  6  2  0  0  0  0
  3  8  1  6  0  0  0
  4  1  1  6  0  0  0
  4  9  1  0  0  0  0
  5 15  1  6  0  0  0
  5  3  1  0  0  0  0
  6 13  1  0  0  0  0
  6 17  1  0  0  0  0
  7 11  1  0  0  0  0
  9 10  2  0  0  0  0
  9  5  1  0  0  0  0
 10 19  1  0  0  0  0
 11 13  1  0  0  0  0
 12 10  1  0  0  0  0
 13  4  1  0  0  0  0
 14  3  1  0  0  0  0
 16  2  1  0  0  0  0
 16 11  2  0  0  0  0
 17 12  2  0  0  0  0
 18 17  1  0  0  0  0
 20 25  1  0  0  0  0
 21 19  1  0  0  0  0
 21 25  2  0  0  0  0
 22 24  1  0  0  0  0
 23 26  2  0  0  0  0
 23 24  1  0  0  0  0
 24 20  2  0  0  0  0
 26 21  1  0  0  0  0
M  END
>  <MODEL>
4

>  <REMARK>
 VINA RESULT:      -7.1      3.687      7.239
  Name = 
  2 active torsions:
  status: ('A' for Active; 'I' for Inactive)
    1  A    between atoms: O_1  and  C_5
    2  A    between atoms: O_1  and  C_15
                            x       y       z     vdW  Elec       q    Type
                         _______ _______ _______ _____ _____    ______ ____

>  <TORSDO>
F 2

$$$$
=
 OpenBabel11042417203D

 26 29  0  0  1  0  0  0  0  0999 V2000
  185.5680  176.7270  143.1340 C   0  0  0  0  0  2  0  0  0  0  0  0
  187.3750  177.6910  147.4030 N   0  0  0  0  0  0  0  0  0  0  0  0
  187.0580  177.1460  141.2050 C   0  0  2  0  0  3  0  0  0  0  0  0
  186.7760  176.4470  144.0420 C   0  0  1  0  0  3  0  0  0  0  0  0
  188.3310  177.1210  142.0520 C   0  0  2  0  0  3  0  0  0  0  0  0
  187.5390  176.8570  146.3550 C   0  0  0  0  0  0  0  0  0  0  0  0
  185.3030  179.1970  144.8070 C   0  0  0  0  0  1  0  0  0  0  0  0
  187.2540  177.9170  140.0590 O   0  0  0  0  0  1  0  0  0  0  0  0
  188.1280  176.4140  143.3710 C   0  0  0  0  0  0  0  0  0  0  0  0
  189.1850  175.8320  143.9730 C   0  0  0  0  0  0  0  0  0  0  0  0
  186.2030  178.3630  145.6520 C   0  0  0  0  0  0  0  0  0  0  0  0
  189.1210  175.2430  145.3440 C   0  0  0  0  0  3  0  0  0  0  0  0
  186.8230  177.2250  145.2790 N   0  0  0  0  0  0  0  0  0  0  0  0
  185.8950  177.6980  142.0100 C   0  0  0  0  0  2  0  0  0  0  0  0
  188.7950  178.4180  142.2850 O   0  0  0  0  0  1  0  0  0  0  0  0
  186.5340  178.6510  146.9590 C   0  0  0  0  0  3  0  0  0  0  0  0
  188.4060  175.6660  146.3970 C   0  0  0  0  0  0  0  0  0  0  0  0
  188.5750  174.9900  147.6380 N   0  0  0  0  0  1  0  0  0  0  0  0
  190.3810  175.7310  143.2380 O   0  0  0  0  0  0  0  0  0  0  0  0
  193.7690  174.5230  144.2250 C   0  0  0  0  0  3  0  0  0  0  0  0
  191.6810  175.6820  143.7630 C   0  0  0  0  0  0  0  0  0  0  0  0
  195.4920  175.6400  145.4340 F   0  0  0  0  0  0  0  0  0  0  0  0
  193.4490  176.7910  145.0030 C   0  0  0  0  0  3  0  0  0  0  0  0
  194.2510  175.6530  144.8920 C   0  0  0  0  0  0  0  0  0  0  0  0
  192.4890  174.5360  143.6650 C   0  0  0  0  0  3  0  0  0  0  0  0
  192.1690  176.8030  144.4430 C   0  0  0  0  0  3  0  0  0  0  0  0
  3  8  1  6  0  0  0
  3 14  1  0  0  0  0
  3  5  1  0  0  0  0
  4  1  1  6  0  0  0
  4 13  1  0  0  0  0
  5 15  1  1  0  0  0
  5  9  1  0  0  0  0
  6 17  1  0  0  0  0
  6  2  2  0  0  0  0
  7 11  1  0  0  0  0
  9 10  2  0  0  0  0
  9  4  1  0  0  0  0
 10 12  1  0  0  0  0
 11 16  2  0  0  0  0
 12 17  2  0  0  0  0
 13 11  1  0  0  0  0
 13  6  1  0  0  0  0
 14  1  1  0  0  0  0
 16  2  1  0  0  0  0
 17 18  1  0  0  0  0
 19 21  1  0  0  0  0
 19 10  1  0  0  0  0
 20 24  1  0  0  0  0
 21 26  2  0  0  0  0
 24 23  2  0  0  0  0
 24 22  1  0  0  0  0
 25 21  1  0  0  0  0
 25 20  2  0  0  0  0
 26 23  1  0  0  0  0
M  END
>  <MODEL>
5

>  <REMARK>
 VINA RESULT:      -7.1      2.885      4.408
  Name = 
  2 active torsions:
  status: ('A' for Active; 'I' for Inactive)
    1  A    between atoms: O_1  and  C_5
    2  A    between atoms: O_1  and  C_15
                            x       y       z     vdW  Elec       q    Type
                         _______ _______ _______ _____ _____    ______ ____

>  <TORSDO>
F 2

$$$$
=
 OpenBabel11042417203D

 26 29  0  0  1  0  0  0  0  0999 V2000
  189.4460  174.4830  146.1270 C   0  0  0  0  0  2  0  0  0  0  0  0
  192.3550  174.0120  142.4220 N   0  0  0  0  0  0  0  0  0  0  0  0
  188.6150  176.7700  146.5710 C   0  0  2  0  0  3  0  0  0  0  0  0
  189.5750  174.7900  144.6270 C   0  0  1  0  0  3  0  0  0  0  0  0
  188.9190  177.2640  145.1560 C   0  0  2  0  0  3  0  0  0  0  0  0
  191.0790  174.3280  142.7240 C   0  0  0  0  0  0  0  0  0  0  0  0
  192.4400  174.4560  146.0410 C   0  0  0  0  0  1  0  0  0  0  0  0
  188.6290  177.8360  147.4710 O   0  0  0  0  0  1  0  0  0  0  0  0
  189.0520  176.1300  144.1680 C   0  0  0  0  0  0  0  0  0  0  0  0
  188.7780  176.3580  142.8670 C   0  0  0  0  0  0  0  0  0  0  0  0
  192.1010  174.3340  144.5950 C   0  0  0  0  0  0  0  0  0  0  0  0
  189.0240  175.3500  141.7940 C   0  0  0  0  0  3  0  0  0  0  0  0
  190.8830  174.5100  144.0400 N   0  0  0  0  0  0  0  0  0  0  0  0
  189.6260  175.7200  146.9950 C   0  0  0  0  0  2  0  0  0  0  0  0
  190.0840  178.0350  145.1420 O   0  0  0  0  0  1  0  0  0  0  0  0
  193.0080  174.0220  143.6050 C   0  0  0  0  0  3  0  0  0  0  0  0
  190.0140  174.4480  141.7110 C   0  0  0  0  0  0  0  0  0  0  0  0
  190.0930  173.6440  140.5400 N   0  0  0  0  0  1  0  0  0  0  0  0
  188.1790  177.5860  142.5310 O   0  0  0  0  0  0  0  0  0  0  0  0
  185.2610  177.9900  140.2430 C   0  0  0  0  0  3  0  0  0  0  0  0
  186.8750  177.7750  142.0510 C   0  0  0  0  0  0  0  0  0  0  0  0
  182.9750  178.4280  140.7540 F   0  0  0  0  0  0  0  0  0  0  0  0
  184.5410  178.2330  142.5400 C   0  0  0  0  0  3  0  0  0  0  0  0
  184.2440  178.2170  141.1750 C   0  0  0  0  0  0  0  0  0  0  0  0
  186.5710  177.7720  140.6790 C   0  0  0  0  0  3  0  0  0  0  0  0
  185.8510  178.0150  142.9740 C   0  0  0  0  0  3  0  0  0  0  0  0
  1 14  1  0  0  0  0
  2  6  2  0  0  0  0
  2 16  1  0  0  0  0
  3 14  1  0  0  0  0
  3  8  1  1  0  0  0
  4  1  1  1  0  0  0
  5 15  1  1  0  0  0
  5  3  1  0  0  0  0
  6 13  1  0  0  0  0
  9  4  1  0  0  0  0
  9  5  1  0  0  0  0
 10  9  2  0  0  0  0
 11  7  1  0  0  0  0
 12 10  1  0  0  0  0
 13 11  1  0  0  0  0
 13  4  1  0  0  0  0
 16 11  2  0  0  0  0
 17 12  2  0  0  0  0
 17  6  1  0  0  0  0
 18 17  1  0  0  0  0
 19 10  1  0  0  0  0
 20 25  2  0  0  0  0
 20 24  1  0  0  0  0
 21 19  1  0  0  0  0
 21 26  2  0  0  0  0
 22 24  1  0  0  0  0
 23 26  1  0  0  0  0
 24 23  2  0  0  0  0
 25 21  1  0  0  0  0
M  END
>  <MODEL>
6

>  <REMARK>
 VINA RESULT:      -7.0      3.655      6.764
  Name = 
  2 active torsions:
  status: ('A' for Active; 'I' for Inactive)
    1  A    between atoms: O_1  and  C_5
    2  A    between atoms: O_1  and  C_15
                            x       y       z     vdW  Elec       q    Type
                         _______ _______ _______ _____ _____    ______ ____

>  <TORSDO>
F 2

$$$$
=
 OpenBabel11042417203D

 26 29  0  0  1  0  0  0  0  0999 V2000
  192.9160  174.9610  146.5130 C   0  0  0  0  0  2  0  0  0  0  0  0
  191.9520  175.1030  141.8800 N   0  0  0  0  0  0  0  0  0  0  0  0
  191.5460  176.4340  147.9530 C   0  0  2  0  0  3  0  0  0  0  0  0
  191.7680  174.8370  145.4990 C   0  0  1  0  0  3  0  0  0  0  0  0
  190.4310  176.5780  146.9180 C   0  0  2  0  0  3  0  0  0  0  0  0
  191.4030  174.7420  143.0590 C   0  0  0  0  0  0  0  0  0  0  0  0
  194.2260  176.5480  144.3380 C   0  0  0  0  0  1  0  0  0  0  0  0
  191.5660  177.5410  148.8020 O   0  0  0  0  0  1  0  0  0  0  0  0
  190.4550  175.4720  145.8890 C   0  0  0  0  0  0  0  0  0  0  0  0
  189.3080  175.1240  145.2720 C   0  0  0  0  0  0  0  0  0  0  0  0
  193.1480  175.8480  143.5850 C   0  0  0  0  0  0  0  0  0  0  0  0
  189.2530  174.1550  144.1380 C   0  0  0  0  0  3  0  0  0  0  0  0
  192.1160  175.1610  144.1170 N   0  0  0  0  0  0  0  0  0  0  0  0
  192.8920  176.2830  147.2650 C   0  0  0  0  0  2  0  0  0  0  0  0
  190.5110  177.8160  146.2740 O   0  0  0  0  0  1  0  0  0  0  0  0
  193.0550  175.8110  142.2100 C   0  0  0  0  0  3  0  0  0  0  0  0
  190.1560  173.9620  143.1650 C   0  0  0  0  0  0  0  0  0  0  0  0
  189.8430  173.0340  142.1330 N   0  0  0  0  0  1  0  0  0  0  0  0
  188.1080  175.6660  145.7700 O   0  0  0  0  0  0  0  0  0  0  0  0
  186.8400  178.3010  143.4550 C   0  0  0  0  0  3  0  0  0  0  0  0
  187.4180  176.7750  145.2590 C   0  0  0  0  0  0  0  0  0  0  0  0
  185.3790  180.1340  143.8880 F   0  0  0  0  0  0  0  0  0  0  0  0
  185.9410  178.6580  145.6730 C   0  0  0  0  0  3  0  0  0  0  0  0
  186.0440  179.0420  144.3340 C   0  0  0  0  0  0  0  0  0  0  0  0
  187.5260  177.1740  143.9160 C   0  0  0  0  0  3  0  0  0  0  0  0
  186.6280  177.5300  146.1320 C   0  0  0  0  0  3  0  0  0  0  0  0
  1 14  1  0  0  0  0
  2 16  1  0  0  0  0
  2  6  2  0  0  0  0
  3  8  1  1  0  0  0
  4  9  1  0  0  0  0
  4  1  1  1  0  0  0
  5 15  1  6  0  0  0
  5  3  1  0  0  0  0
  6 17  1  0  0  0  0
  6 13  1  0  0  0  0
  9  5  1  0  0  0  0
 10 19  1  0  0  0  0
 10  9  2  0  0  0  0
 11 13  1  0  0  0  0
 11  7  1  0  0  0  0
 12 10  1  0  0  0  0
 13  4  1  0  0  0  0
 14  3  1  0  0  0  0
 16 11  2  0  0  0  0
 17 12  2  0  0  0  0
 18 17  1  0  0  0  0
 20 25  2  0  0  0  0
 20 24  1  0  0  0  0
 21 19  1  0  0  0  0
 21 26  2  0  0  0  0
 22 24  1  0  0  0  0
 23 26  1  0  0  0  0
 24 23  2  0  0  0  0
 25 21  1  0  0  0  0
M  END
>  <MODEL>
7

>  <REMARK>
 VINA RESULT:      -6.9      3.247      6.615
  Name = 
  2 active torsions:
  status: ('A' for Active; 'I' for Inactive)
    1  A    between atoms: O_1  and  C_5
    2  A    between atoms: O_1  and  C_15
                            x       y       z     vdW  Elec       q    Type
                         _______ _______ _______ _____ _____    ______ ____

>  <TORSDO>
F 2

$$$$
=
 OpenBabel11042417203D

 26 29  0  0  1  0  0  0  0  0999 V2000
  189.5560  172.4150  143.9090 C   0  0  0  0  0  2  0  0  0  0  0  0
  190.8380  173.3530  139.4490 N   0  0  0  0  0  0  0  0  0  0  0  0
  189.6670  174.3120  145.4930 C   0  0  2  0  0  3  0  0  0  0  0  0
  189.2910  173.3720  142.7370 C   0  0  1  0  0  3  0  0  0  0  0  0
  189.6450  175.3680  144.3870 C   0  0  2  0  0  3  0  0  0  0  0  0
  189.8890  173.6600  140.3580 C   0  0  0  0  0  0  0  0  0  0  0  0
  192.2000  172.0220  142.5590 C   0  0  0  0  0  1  0  0  0  0  0  0
  190.2990  174.8140  146.6310 O   0  0  0  0  0  1  0  0  0  0  0  0
  189.0960  174.8270  143.0880 C   0  0  0  0  0  0  0  0  0  0  0  0
  188.5090  175.6760  142.2200 C   0  0  0  0  0  0  0  0  0  0  0  0
  191.4000  172.6440  141.4670 C   0  0  0  0  0  0  0  0  0  0  0  0
  188.0730  175.2710  140.8510 C   0  0  0  0  0  3  0  0  0  0  0  0
  190.1890  173.2250  141.5930 N   0  0  0  0  0  0  0  0  0  0  0  0
  190.3790  173.0580  145.0150 C   0  0  0  0  0  2  0  0  0  0  0  0
  190.9250  175.8860  144.1730 O   0  0  0  0  0  1  0  0  0  0  0  0
  191.8010  172.7140  140.1490 C   0  0  0  0  0  3  0  0  0  0  0  0
  188.6520  174.3890  140.0220 C   0  0  0  0  0  0  0  0  0  0  0  0
  188.1000  174.2290  138.7200 N   0  0  0  0  0  1  0  0  0  0  0  0
  188.2500  176.9870  142.6620 O   0  0  0  0  0  0  0  0  0  0  0  0
  184.6610  177.8670  143.1690 C   0  0  0  0  0  3  0  0  0  0  0  0
  187.0580  177.4540  143.2340 C   0  0  0  0  0  0  0  0  0  0  0  0
  183.6050  178.9550  145.0080 F   0  0  0  0  0  0  0  0  0  0  0  0
  185.9570  178.5720  145.0870 C   0  0  0  0  0  3  0  0  0  0  0  0
  184.7290  178.4680  144.4290 C   0  0  0  0  0  0  0  0  0  0  0  0
  185.8210  177.3640  142.5730 C   0  0  0  0  0  3  0  0  0  0  0  0
  187.1150  178.0690  144.4900 C   0  0  0  0  0  3  0  0  0  0  0  0
  1 14  1  0  0  0  0
  2 16  1  0  0  0  0
  2  6  2  0  0  0  0
  3  8  1  1  0  0  0
  4  9  1  0  0  0  0
  4  1  1  1  0  0  0
  5 15  1  6  0  0  0
  5  3  1  0  0  0  0
  6 13  1  0  0  0  0
  9  5  1  0  0  0  0
 10 19  1  0  0  0  0
 10  9  2  0  0  0  0
 11 13  1  0  0  0  0
 11  7  1  0  0  0  0
 12 10  1  0  0  0  0
 13  4  1  0  0  0  0
 14  3  1  0  0  0  0
 16 11  2  0  0  0  0
 17  6  1  0  0  0  0
 17 12  2  0  0  0  0
 18 17  1  0  0  0  0
 19 21  1  0  0  0  0
 20 24  1  0  0  0  0
 21 26  2  0  0  0  0
 24 22  1  0  0  0  0
 24 23  2  0  0  0  0
 25 20  2  0  0  0  0
 25 21  1  0  0  0  0
 26 23  1  0  0  0  0
M  END
>  <MODEL>
8

>  <REMARK>
 VINA RESULT:      -6.9      3.896      6.814
  Name = 
  2 active torsions:
  status: ('A' for Active; 'I' for Inactive)
    1  A    between atoms: O_1  and  C_5
    2  A    between atoms: O_1  and  C_15
                            x       y       z     vdW  Elec       q    Type
                         _______ _______ _______ _____ _____    ______ ____

>  <TORSDO>
F 2

$$$$
=
 OpenBabel11042417203D

 26 29  0  0  1  0  0  0  0  0999 V2000
  191.1700  173.7370  140.8960 C   0  0  0  0  0  2  0  0  0  0  0  0
  191.6290  175.2830  145.3470 N   0  0  0  0  0  0  0  0  0  0  0  0
  188.8530  173.4720  140.0720 C   0  0  2  0  0  3  0  0  0  0  0  0
  190.7320  174.8570  141.8520 C   0  0  1  0  0  3  0  0  0  0  0  0
  188.2610  174.3970  141.1360 C   0  0  2  0  0  3  0  0  0  0  0  0
  191.1870  175.6800  144.1350 C   0  0  0  0  0  0  0  0  0  0  0  0
  191.5660  172.1840  143.4260 C   0  0  0  0  0  1  0  0  0  0  0  0
  187.8940  172.5580  139.6360 O   0  0  0  0  0  1  0  0  0  0  0  0
  189.2980  175.3140  141.7400 C   0  0  0  0  0  0  0  0  0  0  0  0
  188.9080  176.5010  142.2470 C   0  0  0  0  0  0  0  0  0  0  0  0
  191.4980  173.5800  143.9430 C   0  0  0  0  0  0  0  0  0  0  0  0
  189.8250  177.4080  142.9990 C   0  0  0  0  0  3  0  0  0  0  0  0
  191.1150  174.6720  143.2500 N   0  0  0  0  0  0  0  0  0  0  0  0
  190.0600  172.7330  140.6240 C   0  0  0  0  0  2  0  0  0  0  0  0
  187.6470  173.6560  142.1480 O   0  0  0  0  0  1  0  0  0  0  0  0
  191.8210  173.9510  145.2310 C   0  0  0  0  0  3  0  0  0  0  0  0
  190.8320  177.0760  143.8210 C   0  0  0  0  0  0  0  0  0  0  0  0
  191.5170  178.1230  144.4990 N   0  0  0  0  0  1  0  0  0  0  0  0
  187.5860  176.9150  141.9990 O   0  0  0  0  0  0  0  0  0  0  0  0
  185.3360  179.2760  143.8100 C   0  0  0  0  0  3  0  0  0  0  0  0
  186.6900  177.4540  142.9340 C   0  0  0  0  0  0  0  0  0  0  0  0
  184.0990  178.9580  145.8220 F   0  0  0  0  0  0  0  0  0  0  0  0
  185.4280  177.1640  144.9880 C   0  0  0  0  0  3  0  0  0  0  0  0
  184.9440  178.4700  144.8830 C   0  0  0  0  0  0  0  0  0  0  0  0
  186.2080  178.7710  142.8420 C   0  0  0  0  0  3  0  0  0  0  0  0
  186.3000  176.6610  144.0180 C   0  0  0  0  0  3  0  0  0  0  0  0
  3  8  1  1  0  0  0
  3 14  1  0  0  0  0
  3  5  1  0  0  0  0
  4  1  1  6  0  0  0
  4 13  1  0  0  0  0
  5  9  1  0  0  0  0
  5 15  1  1  0  0  0
  6  2  2  0  0  0  0
  7 11  1  0  0  0  0
  9  4  1  0  0  0  0
  9 10  2  0  0  0  0
 10 12  1  0  0  0  0
 11 16  2  0  0  0  0
 12 17  2  0  0  0  0
 13 11  1  0  0  0  0
 13  6  1  0  0  0  0
 14  1  1  0  0  0  0
 16  2  1  0  0  0  0
 17  6  1  0  0  0  0
 17 18  1  0  0  0  0
 19 10  1  0  0  0  0
 19 21  1  0  0  0  0
 20 24  1  0  0  0  0
 21 26  2  0  0  0  0
 24 23  2  0  0  0  0
 24 22  1  0  0  0  0
 25 21  1  0  0  0  0
 25 20  2  0  0  0  0
 26 23  1  0  0  0  0
M  END
>  <MODEL>
9

>  <REMARK>
 VINA RESULT:      -6.8      4.040      7.034
  Name = 
  2 active torsions:
  status: ('A' for Active; 'I' for Inactive)
    1  A    between atoms: O_1  and  C_5
    2  A    between atoms: O_1  and  C_15
                            x       y       z     vdW  Elec       q    Type
                         _______ _______ _______ _____ _____    ______ ____

>  <TORSDO>
F 2

$$$$
