=
 OpenBabel11042413563D

 51 53  0  0  1  0  0  0  0  0999 V2000
  190.8310  176.6010  146.6800 C   0  0  0  0  0  3  0  0  0  0  0  0
  193.2610  175.5550  144.4000 C   0  0  1  0  0  3  0  0  0  0  0  0
  192.5360  174.2110  144.4770 C   0  0  0  0  0  0  0  0  0  0  0  0
  192.0440  176.6030  146.1960 C   0  0  0  0  0  0  0  0  0  0  0  0
  190.3610  174.3070  145.7020 C   0  0  0  0  0  2  0  0  0  0  0  0
  190.0990  175.2970  146.8550 C   0  0  2  0  0  3  0  0  0  0  0  0
  191.7960  173.7680  145.7150 C   0  0  0  0  0  2  0  0  0  0  0  0
  192.4910  173.4550  143.3660 C   0  0  0  0  0  3  0  0  0  0  0  0
  193.2020  176.4150  145.6330 C   0  0  0  0  0  3  0  0  0  0  0  0
  196.4090  175.9450  142.1360 C   0  0  1  0  0  3  0  0  0  0  0  0
  195.0210  176.0340  142.7200 C   0  0  0  0  0  3  0  0  0  0  0  0
  195.9320  172.2700  144.4160 O   0  0  0  0  0  0  0  0  0  0  0  0
  196.0780  173.3980  143.8840 C   0  0  0  0  0  0  0  0  0  0  0  0
  196.6750  173.4630  142.5360 C   0  0  0  0  0  3  0  0  0  0  0  0
  195.2280  174.3110  145.9130 F   0  0  0  0  0  0  0  0  0  0  0  0
  197.4500  176.6180  143.0140 C   0  0  0  0  0  1  0  0  0  0  0  0
  196.8240  174.5480  141.7460 C   0  0  0  0  0  0  0  0  0  0  0  0
  195.6850  174.6320  144.6430 C   0  0  2  0  0  3  0  0  0  0  0  0
  194.6710  175.4400  143.8780 C   0  0  0  0  0  0  0  0  0  0  0  0
  197.5270  174.4070  140.5050 N   0  0  0  0  0  2  0  0  0  0  0  0
  196.3740  175.5100  137.0330 C   0  0  0  0  0  1  0  0  0  0  0  0
  196.6610  174.6390  138.2080 C   0  0  0  0  0  0  0  0  0  0  0  0
  196.3920  173.4060  138.1550 O   0  0  0  0  0  0  0  0  0  0  0  0
  197.2200  175.2110  139.3900 N   0  0  0  0  0  2  0  0  0  0  0  0
  191.3480  171.7440  141.9410 C   0  0  1  0  0  0  0  0  0  0  0  0
  191.0950  170.2630  141.7140 C   0  0  0  0  0  1  0  0  0  0  0  0
  190.4680  172.2970  142.8930 O   0  0  0  0  0  0  0  0  0  0  0  0
  191.8080  172.1150  143.3060 C   0  0  2  0  0  3  0  0  0  0  0  0
  190.7020  172.9210  139.8060 C   0  0  0  0  0  3  0  0  0  0  0  0
  191.5970  172.6580  140.7670 C   0  0  0  0  0  3  0  0  0  0  0  0
  189.3280  172.3400  139.7640 C   0  0  0  0  0  2  0  0  0  0  0  0
  188.4200  173.1920  140.4450 O   0  0  0  0  0  0  0  0  0  0  0  0
  188.2400  174.5240  140.0640 C   0  0  0  0  0  0  0  0  0  0  0  0
  188.0290  174.8180  138.8530 O   0  0  0  0  0  0  0  0  0  0  0  0
  188.3040  175.5300  141.0330 O   0  0  0  0  0  0  0  0  0  0  0  0
  188.8360  175.2910  142.3340 C   0  0  0  0  0  2  0  0  0  0  0  0
  189.9530  176.2780  142.6230 C   0  0  0  0  0  1  0  0  0  0  0  0
  188.6110  175.6080  146.9180 C   0  0  0  0  0  2  0  0  0  0  0  0
  188.3460  176.9430  146.3980 N   0  0  0  0  0  2  0  0  0  0  0  0
  186.4490  178.7010  146.9750 O   0  0  0  0  0  0  0  0  0  0  0  0
  186.6510  177.2530  146.6000 S   0  0  0  0  0  0  0  0  0  0  0  0
  186.1060  176.3810  147.7090 O   0  0  0  0  0  0  0  0  0  0  0  0
  185.7640  176.8880  145.0750 C   0  0  0  0  0  2  0  0  0  0  0  0
  187.3150  178.3480  143.9330 O   0  0  0  0  0  1  0  0  0  0  0  0
  185.9680  177.9370  143.9590 C   0  0  2  0  0  0  0  0  0  0  0  0
  185.0910  179.1240  144.2840 C   0  0  0  0  0  0  0  0  0  0  0  0
  183.8200  178.9350  144.8340 O   0  0  0  0  0  1  0  0  0  0  0  0
  185.5330  180.3030  144.1240 O   0  0  0  0  0  0  0  0  0  0  0  0
  185.5960  177.3240  142.6020 C   0  0  0  0  0  2  0  0  0  0  0  0
  185.7770  177.6600  140.1550 C   0  0  0  0  0  1  0  0  0  0  0  0
  185.5350  178.3520  141.4850 C   0  0  0  0  0  2  0  0  0  0  0  0
  1  6  1  0  0  0  0
  2 19  1  1  0  0  0
  2  3  1  0  0  0  0
  2  9  1  0  0  0  0
  3  7  1  0  0  0  0
  4  1  2  0  0  0  0
  5  7  1  0  0  0  0
  5  6  1  0  0  0  0
  6 38  1  6  0  0  0
  8  3  2  0  0  0  0
  9  4  2  0  0  0  0
 10 11  1  0  0  0  0
 10 16  1  1  0  0  0
 11 19  2  0  0  0  0
 13 12  2  0  0  0  0
 13 18  1  0  0  0  0
 14 13  1  0  0  0  0
 17 10  1  0  0  0  0
 17 14  2  0  0  0  0
 18 15  1  1  0  0  0
 19 18  1  0  0  0  0
 20 17  1  0  0  0  0
 21 22  1  0  0  0  0
 22 24  1  0  0  0  0
 23 22  2  0  0  0  0
 24 20  1  0  0  0  0
 25 26  1  6  0  0  0
 25 27  1  0  0  0  0
 25 28  1  0  0  0  0
 27 28  1  0  0  0  0
 28  8  1  6  0  0  0
 29 30  2  0  0  0  0
 30 25  1  0  0  0  0
 31 29  1  0  0  0  0
 31 32  1  0  0  0  0
 33 32  1  0  0  0  0
 33 35  1  0  0  0  0
 34 33  2  0  0  0  0
 35 36  1  0  0  0  0
 36 37  1  0  0  0  0
 39 41  1  0  0  0  0
 39 38  1  0  0  0  0
 41 40  2  0  0  0  0
 41 42  2  0  0  0  0
 43 41  1  0  0  0  0
 45 44  1  6  0  0  0
 45 46  1  0  0  0  0
 45 43  1  0  0  0  0
 46 47  1  0  0  0  0
 48 46  2  0  0  0  0
 49 45  1  0  0  0  0
 50 51  1  0  0  0  0
 51 49  1  0  0  0  0
M  END
>  <MODEL>
1

>  <REMARK>
 VINA RESULT:      -6.6      0.000      0.000
  Name = 
  18 active torsions:
  status: ('A' for Active; 'I' for Inactive)
    1  A    between atoms: C_3  and  C_51
    2  A    between atoms: C_8  and  C_32
    3  A    between atoms: C_10  and  C_12
    4  A    between atoms: C_11  and  O_27
    5  A    between atoms: C_12  and  N_36
    6  A    between atoms: C_13  and  C_44
    7  A    between atoms: C_13  and  C_45
    8  A    between atoms: S_16  and  C_18
    9  A    between atoms: S_16  and  N_36
   10  A    between atoms: O_17  and  C_46
   11  A    between atoms: O_17  and  C_47
   12  A    between atoms: C_18  and  C_45
   13  A    between atoms: C_21  and  C_39
   14  A    between atoms: C_24  and  C_45
   15  A    between atoms: N_25  and  N_43
   16  A    between atoms: O_27  and  C_46
   17  A    between atoms: C_29  and  C_47
   18  A    between atoms: N_43  and  C_48
                            x       y       z     vdW  Elec       q    Type
                         _______ _______ _______ _____ _____    ______ ____

>  <TORSDO>
F 18

$$$$
=
 OpenBabel11042413563D

 51 53  0  0  1  0  0  0  0  0999 V2000
  190.2160  176.5580  147.0330 C   0  0  0  0  0  3  0  0  0  0  0  0
  192.5370  175.6280  144.5930 C   0  0  1  0  0  3  0  0  0  0  0  0
  191.6110  174.4290  144.3880 C   0  0  0  0  0  0  0  0  0  0  0  0
  191.4310  176.4670  146.5630 C   0  0  0  0  0  0  0  0  0  0  0  0
  189.4340  174.6150  145.5990 C   0  0  0  0  0  2  0  0  0  0  0  0
  189.2870  175.3780  146.9310 C   0  0  2  0  0  3  0  0  0  0  0  0
  190.7680  173.8650  145.5050 C   0  0  0  0  0  2  0  0  0  0  0  0
  191.4900  173.9320  143.1440 C   0  0  0  0  0  3  0  0  0  0  0  0
  192.5660  176.2170  145.9770 C   0  0  0  0  0  3  0  0  0  0  0  0
  195.7290  175.8550  142.3700 C   0  0  1  0  0  3  0  0  0  0  0  0
  194.3540  176.0480  142.9590 C   0  0  0  0  0  3  0  0  0  0  0  0
  194.8250  172.0760  144.3290 O   0  0  0  0  0  0  0  0  0  0  0  0
  195.1010  173.2220  143.8950 C   0  0  0  0  0  0  0  0  0  0  0  0
  195.7140  173.3340  142.5570 C   0  0  0  0  0  3  0  0  0  0  0  0
  194.3390  174.0490  145.9950 F   0  0  0  0  0  0  0  0  0  0  0  0
  196.8310  176.3300  143.3020 C   0  0  0  0  0  1  0  0  0  0  0  0
  195.9900  174.4580  141.8630 C   0  0  0  0  0  0  0  0  0  0  0  0
  194.8400  174.4230  144.7560 C   0  0  2  0  0  3  0  0  0  0  0  0
  193.9300  175.4010  144.0620 C   0  0  0  0  0  0  0  0  0  0  0  0
  196.6840  174.3460  140.6140 N   0  0  0  0  0  2  0  0  0  0  0  0
  195.4760  175.2370  137.1000 C   0  0  0  0  0  1  0  0  0  0  0  0
  195.8600  174.4280  138.2920 C   0  0  0  0  0  0  0  0  0  0  0  0
  195.7860  173.1680  138.2430 O   0  0  0  0  0  0  0  0  0  0  0  0
  196.2900  175.0860  139.4830 N   0  0  0  0  0  2  0  0  0  0  0  0
  191.2400  171.8020  141.8550 C   0  0  1  0  0  0  0  0  0  0  0  0
  190.6420  170.4050  141.8380 C   0  0  0  0  0  1  0  0  0  0  0  0
  190.3230  172.7810  141.4220 O   0  0  0  0  0  0  0  0  0  0  0  0
  190.6120  172.7570  142.8050 C   0  0  2  0  0  3  0  0  0  0  0  0
  193.0100  171.8780  140.0590 C   0  0  0  0  0  3  0  0  0  0  0  0
  192.6380  172.0320  141.3370 C   0  0  0  0  0  3  0  0  0  0  0  0
  192.0860  171.4520  138.9670 C   0  0  0  0  0  2  0  0  0  0  0  0
  192.3770  172.1710  137.7790 O   0  0  0  0  0  0  0  0  0  0  0  0
  191.6980  173.3470  137.4490 C   0  0  0  0  0  0  0  0  0  0  0  0
  192.2320  174.4720  137.6590 O   0  0  0  0  0  0  0  0  0  0  0  0
  190.4170  173.2660  136.8930 O   0  0  0  0  0  0  0  0  0  0  0  0
  190.1950  172.7660  135.5770 C   0  0  0  0  0  2  0  0  0  0  0  0
  189.4020  171.4740  135.6420 C   0  0  0  0  0  1  0  0  0  0  0  0
  187.8630  175.9000  147.0520 C   0  0  0  0  0  2  0  0  0  0  0  0
  187.8010  177.3060  146.6740 N   0  0  0  0  0  2  0  0  0  0  0  0
  186.2000  178.9890  145.4000 O   0  0  0  0  0  0  0  0  0  0  0  0
  186.3810  177.5210  145.7010 S   0  0  0  0  0  0  0  0  0  0  0  0
  185.1690  177.0240  146.4570 O   0  0  0  0  0  0  0  0  0  0  0  0
  186.5340  176.5970  144.1620 C   0  0  0  0  0  2  0  0  0  0  0  0
  186.9580  178.4420  142.6610 O   0  0  0  0  0  1  0  0  0  0  0  0
  187.4990  177.2330  143.1370 C   0  0  2  0  0  0  0  0  0  0  0  0
  187.6450  176.2640  141.9860 C   0  0  0  0  0  0  0  0  0  0  0  0
  187.5140  176.7080  140.6670 O   0  0  0  0  0  0  0  0  0  0  0  0
  187.9560  175.0550  142.2110 O   0  0  0  0  0  1  0  0  0  0  0  0
  188.8530  177.5100  143.8070 C   0  0  0  0  0  2  0  0  0  0  0  0
  191.0720  178.5720  143.5250 C   0  0  0  0  0  1  0  0  0  0  0  0
  189.9500  177.8400  142.8100 C   0  0  0  0  0  2  0  0  0  0  0  0
  2 19  1  1  0  0  0
  2  9  1  0  0  0  0
  3  2  1  0  0  0  0
  3  7  1  0  0  0  0
  4  1  2  0  0  0  0
  5  6  1  0  0  0  0
  6  1  1  0  0  0  0
  6 38  1  6  0  0  0
  7  5  1  0  0  0  0
  8  3  2  0  0  0  0
  9  4  2  0  0  0  0
 10 11  1  0  0  0  0
 10 16  1  1  0  0  0
 11 19  2  0  0  0  0
 13 12  2  0  0  0  0
 13 18  1  0  0  0  0
 14 13  1  0  0  0  0
 17 10  1  0  0  0  0
 17 14  2  0  0  0  0
 18 15  1  1  0  0  0
 19 18  1  0  0  0  0
 20 17  1  0  0  0  0
 21 22  1  0  0  0  0
 22 24  1  0  0  0  0
 23 22  2  0  0  0  0
 24 20  1  0  0  0  0
 25 26  1  1  0  0  0
 25 28  1  0  0  0  0
 27 25  1  0  0  0  0
 27 28  1  0  0  0  0
 28  8  1  6  0  0  0
 29 30  2  0  0  0  0
 30 25  1  0  0  0  0
 31 29  1  0  0  0  0
 32 31  1  0  0  0  0
 33 34  2  0  0  0  0
 33 32  1  0  0  0  0
 35 33  1  0  0  0  0
 36 37  1  0  0  0  0
 36 35  1  0  0  0  0
 39 38  1  0  0  0  0
 40 41  2  0  0  0  0
 41 42  2  0  0  0  0
 41 39  1  0  0  0  0
 43 41  1  0  0  0  0
 45 44  1  6  0  0  0
 45 49  1  0  0  0  0
 45 43  1  0  0  0  0
 46 48  1  0  0  0  0
 46 45  1  0  0  0  0
 47 46  2  0  0  0  0
 51 50  1  0  0  0  0
 51 49  1  0  0  0  0
M  END
>  <MODEL>
2

>  <REMARK>
 VINA RESULT:      -6.5      1.758      2.929
  Name = 
  18 active torsions:
  status: ('A' for Active; 'I' for Inactive)
    1  A    between atoms: C_3  and  C_51
    2  A    between atoms: C_8  and  C_32
    3  A    between atoms: C_10  and  C_12
    4  A    between atoms: C_11  and  O_27
    5  A    between atoms: C_12  and  N_36
    6  A    between atoms: C_13  and  C_44
    7  A    between atoms: C_13  and  C_45
    8  A    between atoms: S_16  and  C_18
    9  A    between atoms: S_16  and  N_36
   10  A    between atoms: O_17  and  C_46
   11  A    between atoms: O_17  and  C_47
   12  A    between atoms: C_18  and  C_45
   13  A    between atoms: C_21  and  C_39
   14  A    between atoms: C_24  and  C_45
   15  A    between atoms: N_25  and  N_43
   16  A    between atoms: O_27  and  C_46
   17  A    between atoms: C_29  and  C_47
   18  A    between atoms: N_43  and  C_48
                            x       y       z     vdW  Elec       q    Type
                         _______ _______ _______ _____ _____    ______ ____

>  <TORSDO>
F 18

$$$$
=
 OpenBabel11042413563D

 51 53  0  0  1  0  0  0  0  0999 V2000
  190.2400  176.3000  147.2060 C   0  0  0  0  0  3  0  0  0  0  0  0
  192.1240  174.5170  144.8670 C   0  0  1  0  0  3  0  0  0  0  0  0
  190.7700  174.2450  144.2110 C   0  0  0  0  0  0  0  0  0  0  0  0
  191.2380  175.5300  146.8650 C   0  0  0  0  0  0  0  0  0  0  0  0
  188.8940  175.5800  145.1790 C   0  0  0  0  0  2  0  0  0  0  0  0
  188.8660  176.0270  146.6550 C   0  0  2  0  0  3  0  0  0  0  0  0
  189.4910  174.1790  145.0090 C   0  0  0  0  0  2  0  0  0  0  0  0
  190.7260  174.1540  142.8700 C   0  0  0  0  0  3  0  0  0  0  0  0
  192.1140  174.7120  146.3590 C   0  0  0  0  0  3  0  0  0  0  0  0
  193.9230  171.2120  143.8520 C   0  0  1  0  0  3  0  0  0  0  0  0
  192.8970  172.2410  144.2580 C   0  0  0  0  0  3  0  0  0  0  0  0
  196.1770  174.2150  146.0510 O   0  0  0  0  0  0  0  0  0  0  0  0
  195.5160  173.4450  145.3110 C   0  0  0  0  0  0  0  0  0  0  0  0
  195.6930  171.9900  145.4800 C   0  0  0  0  0  3  0  0  0  0  0  0
  194.6810  175.4080  144.2510 F   0  0  0  0  0  0  0  0  0  0  0  0
  194.4910  171.4770  142.4680 C   0  0  0  0  0  1  0  0  0  0  0  0
  195.0130  170.9950  144.8720 C   0  0  0  0  0  0  0  0  0  0  0  0
  194.6090  174.0220  144.2640 C   0  0  2  0  0  3  0  0  0  0  0  0
  193.1950  173.5420  144.4460 C   0  0  0  0  0  0  0  0  0  0  0  0
  195.4150  169.6390  145.1050 N   0  0  0  0  0  2  0  0  0  0  0  0
  197.1640  168.4210  148.2760 C   0  0  0  0  0  1  0  0  0  0  0  0
  196.0850  168.7230  147.2940 C   0  0  0  0  0  0  0  0  0  0  0  0
  194.8870  168.4340  147.5720 O   0  0  0  0  0  0  0  0  0  0  0  0
  196.4170  169.3190  146.0400 N   0  0  0  0  0  2  0  0  0  0  0  0
  189.6950  173.3390  140.7410 C   0  0  1  0  0  0  0  0  0  0  0  0
  188.5120  172.6230  140.1090 C   0  0  0  0  0  1  0  0  0  0  0  0
  189.4410  174.7100  140.9480 O   0  0  0  0  0  0  0  0  0  0  0  0
  189.4590  173.8920  142.1010 C   0  0  2  0  0  3  0  0  0  0  0  0
  191.6860  171.8640  140.2720 C   0  0  0  0  0  3  0  0  0  0  0  0
  191.0940  173.0660  140.2490 C   0  0  0  0  0  3  0  0  0  0  0  0
  191.0380  170.6250  140.7930 C   0  0  0  0  0  2  0  0  0  0  0  0
  191.1400  169.5840  139.8330 O   0  0  0  0  0  0  0  0  0  0  0  0
  190.7480  169.7730  138.5040 C   0  0  0  0  0  0  0  0  0  0  0  0
  189.5310  169.9560  138.2180 O   0  0  0  0  0  0  0  0  0  0  0  0
  191.7150  169.7460  137.4950 O   0  0  0  0  0  0  0  0  0  0  0  0
  191.5330  169.0010  136.2940 C   0  0  0  0  0  2  0  0  0  0  0  0
  191.2430  169.9430  135.1410 C   0  0  0  0  0  1  0  0  0  0  0  0
  188.0580  177.3100  146.7720 C   0  0  0  0  0  2  0  0  0  0  0  0
  187.6840  177.8010  145.4520 N   0  0  0  0  0  2  0  0  0  0  0  0
  185.3700  179.0800  145.6190 O   0  0  0  0  0  0  0  0  0  0  0  0
  185.9550  177.7180  145.3370 S   0  0  0  0  0  0  0  0  0  0  0  0
  185.4260  176.7370  146.3600 O   0  0  0  0  0  0  0  0  0  0  0  0
  185.4650  177.1720  143.6910 C   0  0  0  0  0  2  0  0  0  0  0  0
  186.4090  179.2720  142.9550 O   0  0  0  0  0  1  0  0  0  0  0  0
  186.1390  177.9540  142.5410 C   0  0  2  0  0  0  0  0  0  0  0  0
  185.1690  177.9840  141.3830 C   0  0  0  0  0  0  0  0  0  0  0  0
  183.8170  178.2680  141.5990 O   0  0  0  0  0  1  0  0  0  0  0  0
  185.5900  177.8200  140.1970 O   0  0  0  0  0  0  0  0  0  0  0  0
  187.4530  177.2630  142.1500 C   0  0  0  0  0  2  0  0  0  0  0  0
  189.8200  177.8010  142.6380 C   0  0  0  0  0  1  0  0  0  0  0  0
  188.5800  178.2450  141.8820 C   0  0  0  0  0  2  0  0  0  0  0  0
  2 19  1  1  0  0  0
  2  9  1  0  0  0  0
  3  2  1  0  0  0  0
  3  7  1  0  0  0  0
  4  1  2  0  0  0  0
  5  6  1  0  0  0  0
  6 38  1  6  0  0  0
  6  1  1  0  0  0  0
  7  5  1  0  0  0  0
  8  3  2  0  0  0  0
  9  4  2  0  0  0  0
 10 16  1  6  0  0  0
 10 11  1  0  0  0  0
 10 17  1  0  0  0  0
 11 19  2  0  0  0  0
 13 14  1  0  0  0  0
 13 12  2  0  0  0  0
 17 20  1  0  0  0  0
 17 14  2  0  0  0  0
 18 15  1  1  0  0  0
 18 19  1  0  0  0  0
 18 13  1  0  0  0  0
 20 24  1  0  0  0  0
 22 23  2  0  0  0  0
 22 21  1  0  0  0  0
 24 22  1  0  0  0  0
 25 26  1  6  0  0  0
 25 27  1  0  0  0  0
 25 28  1  0  0  0  0
 27 28  1  0  0  0  0
 28  8  1  1  0  0  0
 29 31  1  0  0  0  0
 30 29  2  0  0  0  0
 30 25  1  0  0  0  0
 32 31  1  0  0  0  0
 33 32  1  0  0  0  0
 34 33  2  0  0  0  0
 35 33  1  0  0  0  0
 36 35  1  0  0  0  0
 37 36  1  0  0  0  0
 39 38  1  0  0  0  0
 41 39  1  0  0  0  0
 41 40  2  0  0  0  0
 41 42  2  0  0  0  0
 43 41  1  0  0  0  0
 45 44  1  1  0  0  0
 45 43  1  0  0  0  0
 46 47  1  0  0  0  0
 46 45  1  0  0  0  0
 48 46  2  0  0  0  0
 49 45  1  0  0  0  0
 51 49  1  0  0  0  0
 51 50  1  0  0  0  0
M  END
>  <MODEL>
3

>  <REMARK>
 VINA RESULT:      -6.5      3.026      4.814
  Name = 
  18 active torsions:
  status: ('A' for Active; 'I' for Inactive)
    1  A    between atoms: C_3  and  C_51
    2  A    between atoms: C_8  and  C_32
    3  A    between atoms: C_10  and  C_12
    4  A    between atoms: C_11  and  O_27
    5  A    between atoms: C_12  and  N_36
    6  A    between atoms: C_13  and  C_44
    7  A    between atoms: C_13  and  C_45
    8  A    between atoms: S_16  and  C_18
    9  A    between atoms: S_16  and  N_36
   10  A    between atoms: O_17  and  C_46
   11  A    between atoms: O_17  and  C_47
   12  A    between atoms: C_18  and  C_45
   13  A    between atoms: C_21  and  C_39
   14  A    between atoms: C_24  and  C_45
   15  A    between atoms: N_25  and  N_43
   16  A    between atoms: O_27  and  C_46
   17  A    between atoms: C_29  and  C_47
   18  A    between atoms: N_43  and  C_48
                            x       y       z     vdW  Elec       q    Type
                         _______ _______ _______ _____ _____    ______ ____

>  <TORSDO>
F 18

$$$$
=
 OpenBabel11042413563D

 51 53  0  0  1  0  0  0  0  0999 V2000
  189.5440  176.1730  142.7330 C   0  0  0  0  0  3  0  0  0  0  0  0
  192.3110  174.6730  141.2170 C   0  0  1  0  0  3  0  0  0  0  0  0
  191.2720  173.7400  140.5950 C   0  0  0  0  0  0  0  0  0  0  0  0
  190.7890  175.7780  142.7230 C   0  0  0  0  0  0  0  0  0  0  0  0
  188.9110  174.4730  140.9590 C   0  0  0  0  0  2  0  0  0  0  0  0
  188.4680  175.2610  142.2080 C   0  0  2  0  0  3  0  0  0  0  0  0
  189.9700  173.4140  141.2860 C   0  0  0  0  0  2  0  0  0  0  0  0
  191.5030  173.2770  139.3540 C   0  0  0  0  0  3  0  0  0  0  0  0
  191.9670  175.2490  142.5640 C   0  0  0  0  0  3  0  0  0  0  0  0
  195.3910  172.4190  142.0020 C   0  0  1  0  0  3  0  0  0  0  0  0
  194.0120  173.0300  141.9590 C   0  0  0  0  0  3  0  0  0  0  0  0
  196.0690  176.6170  141.0810 O   0  0  0  0  0  0  0  0  0  0  0  0
  195.8230  175.3930  141.2130 C   0  0  0  0  0  0  0  0  0  0  0  0
  196.6190  174.6210  142.1870 C   0  0  0  0  0  3  0  0  0  0  0  0
  194.2240  175.6680  139.4690 F   0  0  0  0  0  0  0  0  0  0  0  0
  195.8030  171.8290  140.6640 C   0  0  0  0  0  1  0  0  0  0  0  0
  196.4520  173.3340  142.5600 C   0  0  0  0  0  0  0  0  0  0  0  0
  194.7680  174.7530  140.3580 C   0  0  2  0  0  3  0  0  0  0  0  0
  193.7060  174.1020  141.2030 C   0  0  0  0  0  0  0  0  0  0  0  0
  197.4060  172.7450  143.4530 N   0  0  0  0  0  2  0  0  0  0  0  0
  196.6690  170.3000  146.2950 C   0  0  0  0  0  1  0  0  0  0  0  0
  196.9400  171.5750  145.5730 C   0  0  0  0  0  0  0  0  0  0  0  0
  196.9920  172.6610  146.2170 O   0  0  0  0  0  0  0  0  0  0  0  0
  197.1220  171.5600  144.1570 N   0  0  0  0  0  2  0  0  0  0  0  0
  191.0610  170.9580  138.5240 C   0  0  1  0  0  0  0  0  0  0  0  0
  190.0040  169.9020  138.2450 C   0  0  0  0  0  1  0  0  0  0  0  0
  191.1960  171.8730  137.4600 O   0  0  0  0  0  0  0  0  0  0  0  0
  190.5620  172.3550  138.6280 C   0  0  2  0  0  3  0  0  0  0  0  0
  192.5380  170.1210  140.3890 C   0  0  0  0  0  3  0  0  0  0  0  0
  192.3830  170.5620  139.1340 C   0  0  0  0  0  3  0  0  0  0  0  0
  191.4170  169.9610  141.3620 C   0  0  0  0  0  2  0  0  0  0  0  0
  191.8660  169.2510  142.5060 O   0  0  0  0  0  0  0  0  0  0  0  0
  192.6350  169.8700  143.4960 C   0  0  0  0  0  0  0  0  0  0  0  0
  193.8900  169.7290  143.5090 O   0  0  0  0  0  0  0  0  0  0  0  0
  192.0000  170.6370  144.4770 O   0  0  0  0  0  0  0  0  0  0  0  0
  191.6830  172.0120  144.2730 C   0  0  0  0  0  2  0  0  0  0  0  0
  190.2120  172.2510  144.5640 C   0  0  0  0  0  1  0  0  0  0  0  0
  187.2650  176.1210  141.8550 C   0  0  0  0  0  2  0  0  0  0  0  0
  186.2780  176.0850  142.9270 N   0  0  0  0  0  2  0  0  0  0  0  0
  184.6230  177.9980  143.7140 O   0  0  0  0  0  0  0  0  0  0  0  0
  186.0900  177.7060  143.5160 S   0  0  0  0  0  0  0  0  0  0  0  0
  186.6510  178.6800  142.5040 O   0  0  0  0  0  0  0  0  0  0  0  0
  186.9680  177.9080  145.0760 C   0  0  0  0  0  2  0  0  0  0  0  0
  185.2380  176.4010  145.8350 O   0  0  0  0  0  1  0  0  0  0  0  0
  186.2660  177.2510  146.2860 C   0  0  2  0  0  0  0  0  0  0  0  0
  185.6670  178.3590  147.1210 C   0  0  0  0  0  0  0  0  0  0  0  0
  186.4770  179.1310  147.9580 O   0  0  0  0  0  1  0  0  0  0  0  0
  184.4340  178.6400  147.0130 O   0  0  0  0  0  0  0  0  0  0  0  0
  187.2860  176.4340  147.0920 C   0  0  0  0  0  2  0  0  0  0  0  0
  189.2190  174.8890  146.9950 C   0  0  0  0  0  1  0  0  0  0  0  0
  188.4790  175.9940  146.2610 C   0  0  0  0  0  2  0  0  0  0  0  0
  2 19  1  1  0  0  0
  2  9  1  0  0  0  0
  3  2  1  0  0  0  0
  3  7  1  0  0  0  0
  4  1  2  0  0  0  0
  5  7  1  0  0  0  0
  5  6  1  0  0  0  0
  6 38  1  6  0  0  0
  6  1  1  0  0  0  0
  8  3  2  0  0  0  0
  9  4  2  0  0  0  0
 10 16  1  6  0  0  0
 10 17  1  0  0  0  0
 11 10  1  0  0  0  0
 12 13  2  0  0  0  0
 13 14  1  0  0  0  0
 14 17  2  0  0  0  0
 17 20  1  0  0  0  0
 18 15  1  1  0  0  0
 18 19  1  0  0  0  0
 18 13  1  0  0  0  0
 19 11  2  0  0  0  0
 20 24  1  0  0  0  0
 22 23  2  0  0  0  0
 22 21  1  0  0  0  0
 24 22  1  0  0  0  0
 25 26  1  6  0  0  0
 25 28  1  0  0  0  0
 25 30  1  0  0  0  0
 27 25  1  0  0  0  0
 27 28  1  0  0  0  0
 28  8  1  1  0  0  0
 29 31  1  0  0  0  0
 30 29  2  0  0  0  0
 31 32  1  0  0  0  0
 32 33  1  0  0  0  0
 33 34  2  0  0  0  0
 33 35  1  0  0  0  0
 36 35  1  0  0  0  0
 36 37  1  0  0  0  0
 38 39  1  0  0  0  0
 39 41  1  0  0  0  0
 41 40  2  0  0  0  0
 41 43  1  0  0  0  0
 42 41  2  0  0  0  0
 43 45  1  0  0  0  0
 45 44  1  6  0  0  0
 45 49  1  0  0  0  0
 45 46  1  0  0  0  0
 46 47  1  0  0  0  0
 48 46  2  0  0  0  0
 51 50  1  0  0  0  0
 51 49  1  0  0  0  0
M  END
>  <MODEL>
4

>  <REMARK>
 VINA RESULT:      -6.4      2.624      5.015
  Name = 
  18 active torsions:
  status: ('A' for Active; 'I' for Inactive)
    1  A    between atoms: C_3  and  C_51
    2  A    between atoms: C_8  and  C_32
    3  A    between atoms: C_10  and  C_12
    4  A    between atoms: C_11  and  O_27
    5  A    between atoms: C_12  and  N_36
    6  A    between atoms: C_13  and  C_44
    7  A    between atoms: C_13  and  C_45
    8  A    between atoms: S_16  and  C_18
    9  A    between atoms: S_16  and  N_36
   10  A    between atoms: O_17  and  C_46
   11  A    between atoms: O_17  and  C_47
   12  A    between atoms: C_18  and  C_45
   13  A    between atoms: C_21  and  C_39
   14  A    between atoms: C_24  and  C_45
   15  A    between atoms: N_25  and  N_43
   16  A    between atoms: O_27  and  C_46
   17  A    between atoms: C_29  and  C_47
   18  A    between atoms: N_43  and  C_48
                            x       y       z     vdW  Elec       q    Type
                         _______ _______ _______ _____ _____    ______ ____

>  <TORSDO>
F 18

$$$$
=
 OpenBabel11042413563D

 51 53  0  0  1  0  0  0  0  0999 V2000
  190.3100  173.2680  139.8380 C   0  0  0  0  0  3  0  0  0  0  0  0
  190.8620  174.4500  143.0790 C   0  0  1  0  0  3  0  0  0  0  0  0
  191.7120  173.1880  143.2300 C   0  0  0  0  0  0  0  0  0  0  0  0
  189.9320  173.8730  140.9330 C   0  0  0  0  0  0  0  0  0  0  0  0
  192.0990  171.9690  141.0840 C   0  0  0  0  0  2  0  0  0  0  0  0
  191.0790  171.9770  139.9270 C   0  0  2  0  0  3  0  0  0  0  0  0
  191.4190  171.9250  142.4570 C   0  0  0  0  0  2  0  0  0  0  0  0
  192.8030  173.2520  144.0120 C   0  0  0  0  0  3  0  0  0  0  0  0
  189.7090  174.3640  142.1160 C   0  0  0  0  0  3  0  0  0  0  0  0
  188.9580  175.0180  146.4310 C   0  0  1  0  0  3  0  0  0  0  0  0
  189.4430  174.4700  145.1110 C   0  0  0  0  0  3  0  0  0  0  0  0
  190.4460  178.4900  144.2720 O   0  0  0  0  0  0  0  0  0  0  0  0
  190.1530  177.4490  144.9100 C   0  0  0  0  0  0  0  0  0  0  0  0
  188.8910  177.4290  145.6750 C   0  0  0  0  0  3  0  0  0  0  0  0
  192.2510  176.5840  144.1860 F   0  0  0  0  0  0  0  0  0  0  0  0
  190.0250  174.9540  147.5100 C   0  0  0  0  0  1  0  0  0  0  0  0
  188.3390  176.3900  146.3370 C   0  0  0  0  0  0  0  0  0  0  0  0
  191.1040  176.2880  144.9090 C   0  0  2  0  0  3  0  0  0  0  0  0
  190.4340  175.0400  144.3990 C   0  0  0  0  0  0  0  0  0  0  0  0
  187.1500  176.6140  147.1050 N   0  0  0  0  0  2  0  0  0  0  0  0
  184.0700  178.6580  146.1400 C   0  0  0  0  0  1  0  0  0  0  0  0
  185.3630  178.2810  146.7760 C   0  0  0  0  0  0  0  0  0  0  0  0
  185.9440  179.0970  147.5460 O   0  0  0  0  0  0  0  0  0  0  0  0
  185.9430  177.0070  146.4970 N   0  0  0  0  0  2  0  0  0  0  0  0
  194.8870  172.4100  145.1130 C   0  0  1  0  0  0  0  0  0  0  0  0
  195.5720  171.2200  145.7640 C   0  0  0  0  0  1  0  0  0  0  0  0
  194.9970  172.3880  143.7080 O   0  0  0  0  0  0  0  0  0  0  0  0
  193.7250  172.0860  144.2440 C   0  0  2  0  0  3  0  0  0  0  0  0
  196.1570  174.5410  145.5710 C   0  0  0  0  0  3  0  0  0  0  0  0
  195.0540  173.7910  145.6970 C   0  0  0  0  0  3  0  0  0  0  0  0
  197.3800  174.1080  144.8340 C   0  0  0  0  0  2  0  0  0  0  0  0
  197.7480  175.0950  143.8830 O   0  0  0  0  0  0  0  0  0  0  0  0
  196.7940  175.9150  143.2730 C   0  0  0  0  0  0  0  0  0  0  0  0
  196.8020  177.1620  143.4760 O   0  0  0  0  0  0  0  0  0  0  0  0
  195.8260  175.3410  142.4440 O   0  0  0  0  0  0  0  0  0  0  0  0
  195.0740  176.1140  141.5120 C   0  0  0  0  0  2  0  0  0  0  0  0
  193.8340  175.3490  141.0880 C   0  0  0  0  0  1  0  0  0  0  0  0
  191.8160  171.7870  138.6100 C   0  0  0  0  0  2  0  0  0  0  0  0
  192.9930  172.6450  138.5550 N   0  0  0  0  0  2  0  0  0  0  0  0
  192.5670  174.8930  137.2200 O   0  0  0  0  0  0  0  0  0  0  0  0
  192.9770  173.4540  137.0210 S   0  0  0  0  0  0  0  0  0  0  0  0
  191.9780  172.7830  136.1060 O   0  0  0  0  0  0  0  0  0  0  0  0
  194.6100  173.3840  136.2620 C   0  0  0  0  0  2  0  0  0  0  0  0
  195.1400  175.0240  137.9560 O   0  0  0  0  0  1  0  0  0  0  0  0
  195.7170  174.0850  137.0810 C   0  0  2  0  0  0  0  0  0  0  0  0
  196.6200  174.8020  136.1050 C   0  0  0  0  0  0  0  0  0  0  0  0
  197.3590  174.0810  135.1630 O   0  0  0  0  0  0  0  0  0  0  0  0
  196.6570  176.0710  136.0890 O   0  0  0  0  0  1  0  0  0  0  0  0
  196.4940  173.0400  137.8940 C   0  0  0  0  0  2  0  0  0  0  0  0
  196.1310  172.5220  140.2890 C   0  0  0  0  0  1  0  0  0  0  0  0
  196.7800  173.4910  139.3170 C   0  0  0  0  0  2  0  0  0  0  0  0
  1  6  1  0  0  0  0
  1  4  2  0  0  0  0
  2  3  1  0  0  0  0
  2 19  1  1  0  0  0
  3  8  2  0  0  0  0
  4  9  2  0  0  0  0
  5  7  1  0  0  0  0
  6 38  1  6  0  0  0
  6  5  1  0  0  0  0
  7  3  1  0  0  0  0
  9  2  1  0  0  0  0
 10 16  1  1  0  0  0
 11 10  1  0  0  0  0
 12 13  2  0  0  0  0
 13 14  1  0  0  0  0
 14 17  2  0  0  0  0
 17 10  1  0  0  0  0
 17 20  1  0  0  0  0
 18 15  1  6  0  0  0
 18 13  1  0  0  0  0
 19 18  1  0  0  0  0
 19 11  2  0  0  0  0
 21 22  1  0  0  0  0
 22 23  2  0  0  0  0
 24 22  1  0  0  0  0
 24 20  1  0  0  0  0
 25 30  1  0  0  0  0
 25 26  1  1  0  0  0
 27 28  1  0  0  0  0
 27 25  1  0  0  0  0
 28  8  1  6  0  0  0
 28 25  1  0  0  0  0
 29 30  2  0  0  0  0
 31 29  1  0  0  0  0
 32 31  1  0  0  0  0
 33 34  2  0  0  0  0
 33 32  1  0  0  0  0
 35 33  1  0  0  0  0
 36 35  1  0  0  0  0
 37 36  1  0  0  0  0
 39 38  1  0  0  0  0
 41 40  2  0  0  0  0
 41 39  1  0  0  0  0
 42 41  2  0  0  0  0
 43 41  1  0  0  0  0
 43 45  1  0  0  0  0
 45 49  1  0  0  0  0
 45 44  1  1  0  0  0
 46 45  1  0  0  0  0
 47 46  2  0  0  0  0
 48 46  1  0  0  0  0
 49 51  1  0  0  0  0
 51 50  1  0  0  0  0
M  END
>  <MODEL>
5

>  <REMARK>
 VINA RESULT:      -6.2      3.205      9.694
  Name = 
  18 active torsions:
  status: ('A' for Active; 'I' for Inactive)
    1  A    between atoms: C_3  and  C_51
    2  A    between atoms: C_8  and  C_32
    3  A    between atoms: C_10  and  C_12
    4  A    between atoms: C_11  and  O_27
    5  A    between atoms: C_12  and  N_36
    6  A    between atoms: C_13  and  C_44
    7  A    between atoms: C_13  and  C_45
    8  A    between atoms: S_16  and  C_18
    9  A    between atoms: S_16  and  N_36
   10  A    between atoms: O_17  and  C_46
   11  A    between atoms: O_17  and  C_47
   12  A    between atoms: C_18  and  C_45
   13  A    between atoms: C_21  and  C_39
   14  A    between atoms: C_24  and  C_45
   15  A    between atoms: N_25  and  N_43
   16  A    between atoms: O_27  and  C_46
   17  A    between atoms: C_29  and  C_47
   18  A    between atoms: N_43  and  C_48
                            x       y       z     vdW  Elec       q    Type
                         _______ _______ _______ _____ _____    ______ ____

>  <TORSDO>
F 18

$$$$
=
 OpenBabel11042413563D

 51 53  0  0  1  0  0  0  0  0999 V2000
  190.3760  171.0260  141.6620 C   0  0  0  0  0  3  0  0  0  0  0  0
  190.9720  173.7300  143.7920 C   0  0  1  0  0  3  0  0  0  0  0  0
  192.1300  172.8730  144.3050 C   0  0  0  0  0  0  0  0  0  0  0  0
  189.9820  172.0180  142.4150 C   0  0  0  0  0  0  0  0  0  0  0  0
  192.5700  170.8390  142.9240 C   0  0  0  0  0  2  0  0  0  0  0  0
  191.4570  170.1010  142.1530 C   0  0  2  0  0  3  0  0  0  0  0  0
  192.0860  171.3650  144.2790 C   0  0  0  0  0  2  0  0  0  0  0  0
  193.2500  173.5010  144.7040 C   0  0  0  0  0  3  0  0  0  0  0  0
  189.7770  172.9840  143.2620 C   0  0  0  0  0  3  0  0  0  0  0  0
  189.3570  175.5520  146.8350 C   0  0  1  0  0  3  0  0  0  0  0  0
  189.8130  174.5150  145.8390 C   0  0  0  0  0  3  0  0  0  0  0  0
  189.7420  177.7180  143.0800 O   0  0  0  0  0  0  0  0  0  0  0  0
  189.7740  177.0880  144.1670 C   0  0  0  0  0  0  0  0  0  0  0  0
  188.6420  177.2460  145.1000 C   0  0  0  0  0  3  0  0  0  0  0  0
  191.9270  176.3200  143.4970 F   0  0  0  0  0  0  0  0  0  0  0  0
  190.5180  176.1890  147.5790 C   0  0  0  0  0  1  0  0  0  0  0  0
  188.4250  176.5890  146.2590 C   0  0  0  0  0  0  0  0  0  0  0  0
  190.9670  176.2380  144.4950 C   0  0  2  0  0  3  0  0  0  0  0  0
  190.5600  174.8120  144.7580 C   0  0  0  0  0  0  0  0  0  0  0  0
  187.3050  176.9690  147.0700 N   0  0  0  0  0  2  0  0  0  0  0  0
  183.9820  178.6050  146.1350 C   0  0  0  0  0  1  0  0  0  0  0  0
  185.3420  178.4170  146.7130 C   0  0  0  0  0  0  0  0  0  0  0  0
  185.8810  179.3570  147.3640 O   0  0  0  0  0  0  0  0  0  0  0  0
  186.0310  177.1840  146.5120 N   0  0  0  0  0  2  0  0  0  0  0  0
  195.6980  173.6040  145.2110 C   0  0  1  0  0  0  0  0  0  0  0  0
  196.8120  173.1340  146.1320 C   0  0  0  0  0  1  0  0  0  0  0  0
  195.4190  172.6720  144.1920 O   0  0  0  0  0  0  0  0  0  0  0  0
  194.4620  172.7780  145.2270 C   0  0  2  0  0  3  0  0  0  0  0  0
  196.5800  175.5800  143.9160 C   0  0  0  0  0  3  0  0  0  0  0  0
  195.6670  175.0330  144.7300 C   0  0  0  0  0  3  0  0  0  0  0  0
  197.7610  174.8470  143.3740 C   0  0  0  0  0  2  0  0  0  0  0  0
  197.8600  175.0530  141.9740 O   0  0  0  0  0  0  0  0  0  0  0  0
  197.5710  174.0350  141.0610 C   0  0  0  0  0  0  0  0  0  0  0  0
  197.3340  172.8620  141.4680 O   0  0  0  0  0  0  0  0  0  0  0  0
  197.5580  174.3230  139.6930 O   0  0  0  0  0  0  0  0  0  0  0  0
  196.5220  173.8570  138.8330 C   0  0  0  0  0  2  0  0  0  0  0  0
  195.7920  175.0380  138.2170 C   0  0  0  0  0  1  0  0  0  0  0  0
  192.0620  169.4130  140.9390 C   0  0  0  0  0  2  0  0  0  0  0  0
  191.3300  169.7710  139.7310 N   0  0  0  0  0  2  0  0  0  0  0  0
  192.2590  168.4720  137.6170 O   0  0  0  0  0  0  0  0  0  0  0  0
  192.4550  169.7400  138.4110 S   0  0  0  0  0  0  0  0  0  0  0  0
  193.8680  169.7670  138.9500 O   0  0  0  0  0  0  0  0  0  0  0  0
  192.2050  171.1720  137.3450 C   0  0  0  0  0  2  0  0  0  0  0  0
  190.5470  172.4140  138.5890 O   0  0  0  0  0  1  0  0  0  0  0  0
  191.8680  172.4740  138.1060 C   0  0  2  0  0  0  0  0  0  0  0  0
  191.9900  173.6180  137.1270 C   0  0  0  0  0  0  0  0  0  0  0  0
  193.1450  173.7670  136.3530 O   0  0  0  0  0  0  0  0  0  0  0  0
  191.0140  174.4090  136.9510 O   0  0  0  0  0  1  0  0  0  0  0  0
  192.8350  172.6450  139.2860 C   0  0  0  0  0  2  0  0  0  0  0  0
  193.6090  174.0880  141.1440 C   0  0  0  0  0  1  0  0  0  0  0  0
  192.4560  173.7980  140.1990 C   0  0  0  0  0  2  0  0  0  0  0  0
  1  6  1  0  0  0  0
  1  4  2  0  0  0  0
  2  3  1  0  0  0  0
  2 19  1  1  0  0  0
  3  8  2  0  0  0  0
  4  9  2  0  0  0  0
  5  7  1  0  0  0  0
  6 38  1  6  0  0  0
  6  5  1  0  0  0  0
  7  3  1  0  0  0  0
  9  2  1  0  0  0  0
 10 16  1  6  0  0  0
 11 10  1  0  0  0  0
 12 13  2  0  0  0  0
 13 18  1  0  0  0  0
 13 14  1  0  0  0  0
 14 17  2  0  0  0  0
 17 10  1  0  0  0  0
 17 20  1  0  0  0  0
 18 15  1  6  0  0  0
 18 19  1  0  0  0  0
 19 11  2  0  0  0  0
 21 22  1  0  0  0  0
 22 23  2  0  0  0  0
 24 22  1  0  0  0  0
 24 20  1  0  0  0  0
 25 28  1  0  0  0  0
 25 26  1  1  0  0  0
 27 25  1  0  0  0  0
 27 28  1  0  0  0  0
 28  8  1  6  0  0  0
 29 30  2  0  0  0  0
 30 25  1  0  0  0  0
 31 29  1  0  0  0  0
 32 31  1  0  0  0  0
 33 34  2  0  0  0  0
 33 32  1  0  0  0  0
 35 33  1  0  0  0  0
 36 35  1  0  0  0  0
 37 36  1  0  0  0  0
 39 38  1  0  0  0  0
 40 41  2  0  0  0  0
 41 42  2  0  0  0  0
 41 39  1  0  0  0  0
 43 45  1  0  0  0  0
 43 41  1  0  0  0  0
 45 44  1  1  0  0  0
 45 49  1  0  0  0  0
 46 45  1  0  0  0  0
 47 46  2  0  0  0  0
 48 46  1  0  0  0  0
 49 51  1  0  0  0  0
 51 50  1  0  0  0  0
M  END
>  <MODEL>
6

>  <REMARK>
 VINA RESULT:      -6.2      3.357      9.218
  Name = 
  18 active torsions:
  status: ('A' for Active; 'I' for Inactive)
    1  A    between atoms: C_3  and  C_51
    2  A    between atoms: C_8  and  C_32
    3  A    between atoms: C_10  and  C_12
    4  A    between atoms: C_11  and  O_27
    5  A    between atoms: C_12  and  N_36
    6  A    between atoms: C_13  and  C_44
    7  A    between atoms: C_13  and  C_45
    8  A    between atoms: S_16  and  C_18
    9  A    between atoms: S_16  and  N_36
   10  A    between atoms: O_17  and  C_46
   11  A    between atoms: O_17  and  C_47
   12  A    between atoms: C_18  and  C_45
   13  A    between atoms: C_21  and  C_39
   14  A    between atoms: C_24  and  C_45
   15  A    between atoms: N_25  and  N_43
   16  A    between atoms: O_27  and  C_46
   17  A    between atoms: C_29  and  C_47
   18  A    between atoms: N_43  and  C_48
                            x       y       z     vdW  Elec       q    Type
                         _______ _______ _______ _____ _____    ______ ____

>  <TORSDO>
F 18

$$$$
=
 OpenBabel11042413563D

 51 53  0  0  1  0  0  0  0  0999 V2000
  189.8130  176.9490  147.1390 C   0  0  0  0  0  3  0  0  0  0  0  0
  192.1600  175.9880  144.7360 C   0  0  1  0  0  3  0  0  0  0  0  0
  191.1110  174.9450  144.3500 C   0  0  0  0  0  0  0  0  0  0  0  0
  191.0370  176.7520  146.7260 C   0  0  0  0  0  0  0  0  0  0  0  0
  188.8970  175.2820  145.4590 C   0  0  0  0  0  2  0  0  0  0  0  0
  188.7560  175.9150  146.8580 C   0  0  2  0  0  3  0  0  0  0  0  0
  190.1330  174.3810  145.3520 C   0  0  0  0  0  2  0  0  0  0  0  0
  191.0120  174.5990  143.0550 C   0  0  0  0  0  3  0  0  0  0  0  0
  192.1690  176.4210  146.1780 C   0  0  0  0  0  3  0  0  0  0  0  0
  195.4880  176.0190  142.7090 C   0  0  1  0  0  3  0  0  0  0  0  0
  194.1110  176.3260  143.2450 C   0  0  0  0  0  3  0  0  0  0  0  0
  194.0300  172.2210  144.2520 O   0  0  0  0  0  0  0  0  0  0  0  0
  194.4640  173.3590  143.9430 C   0  0  0  0  0  0  0  0  0  0  0  0
  195.1670  173.5120  142.6550 C   0  0  0  0  0  3  0  0  0  0  0  0
  193.6750  174.0830  146.0710 F   0  0  0  0  0  0  0  0  0  0  0  0
  196.5780  176.2730  143.7370 C   0  0  0  0  0  1  0  0  0  0  0  0
  195.6150  174.6520  142.0860 C   0  0  0  0  0  0  0  0  0  0  0  0
  194.2920  174.5010  144.9010 C   0  0  2  0  0  3  0  0  0  0  0  0
  193.5470  175.6400  144.2580 C   0  0  0  0  0  0  0  0  0  0  0  0
  196.3670  174.5670  140.8680 N   0  0  0  0  0  2  0  0  0  0  0  0
  195.1980  175.1460  137.2770 C   0  0  0  0  0  1  0  0  0  0  0  0
  195.6260  174.4440  138.5200 C   0  0  0  0  0  0  0  0  0  0  0  0
  195.6970  173.1830  138.5340 O   0  0  0  0  0  0  0  0  0  0  0  0
  195.9340  175.2020  139.6890 N   0  0  0  0  0  2  0  0  0  0  0  0
  190.2460  173.2060  141.1220 C   0  0  1  0  0  0  0  0  0  0  0  0
  189.6200  171.8910  140.6900 C   0  0  0  0  0  1  0  0  0  0  0  0
  189.2800  174.1650  141.4860 O   0  0  0  0  0  0  0  0  0  0  0  0
  190.0230  173.5890  142.5410 C   0  0  2  0  0  3  0  0  0  0  0  0
  192.4030  173.0800  139.8210 C   0  0  0  0  0  3  0  0  0  0  0  0
  191.3920  173.7930  140.3350 C   0  0  0  0  0  3  0  0  0  0  0  0
  192.5360  171.6000  139.9590 C   0  0  0  0  0  2  0  0  0  0  0  0
  192.9770  171.2730  141.2670 O   0  0  0  0  0  0  0  0  0  0  0  0
  192.8640  169.9750  141.7750 C   0  0  0  0  0  0  0  0  0  0  0  0
  193.8850  169.2370  141.8720 O   0  0  0  0  0  0  0  0  0  0  0  0
  191.6090  169.4990  142.1640 O   0  0  0  0  0  0  0  0  0  0  0  0
  191.1150  168.2330  141.7330 C   0  0  0  0  0  2  0  0  0  0  0  0
  190.8200  168.2740  140.2450 C   0  0  0  0  0  1  0  0  0  0  0  0
  187.4020  176.5990  146.9620 C   0  0  0  0  0  2  0  0  0  0  0  0
  187.2790  177.6450  145.9540 N   0  0  0  0  0  2  0  0  0  0  0  0
  185.0610  179.0210  145.5010 O   0  0  0  0  0  0  0  0  0  0  0  0
  185.6410  177.6320  145.3860 S   0  0  0  0  0  0  0  0  0  0  0  0
  184.8190  176.6880  146.2340 O   0  0  0  0  0  0  0  0  0  0  0  0
  185.5800  177.0850  143.6700 C   0  0  0  0  0  2  0  0  0  0  0  0
  185.9580  179.4440  143.3080 O   0  0  0  0  0  1  0  0  0  0  0  0
  185.7670  178.2200  142.6390 C   0  0  2  0  0  0  0  0  0  0  0  0
  184.5050  178.2950  141.8110 C   0  0  0  0  0  0  0  0  0  0  0  0
  184.5740  178.3020  140.4150 O   0  0  0  0  0  0  0  0  0  0  0  0
  183.3710  178.2820  142.3800 O   0  0  0  0  0  1  0  0  0  0  0  0
  186.9920  177.9220  141.7630 C   0  0  0  0  0  2  0  0  0  0  0  0
  189.2420  177.9020  142.7970 C   0  0  0  0  0  1  0  0  0  0  0  0
  188.0250  177.0570  142.4650 C   0  0  0  0  0  2  0  0  0  0  0  0
  2 19  1  1  0  0  0
  2  9  1  0  0  0  0
  3  2  1  0  0  0  0
  3  7  1  0  0  0  0
  4  1  2  0  0  0  0
  5  6  1  0  0  0  0
  6 38  1  6  0  0  0
  6  1  1  0  0  0  0
  7  5  1  0  0  0  0
  8  3  2  0  0  0  0
  9  4  2  0  0  0  0
 10 11  1  0  0  0  0
 10 16  1  1  0  0  0
 11 19  2  0  0  0  0
 13 12  2  0  0  0  0
 13 18  1  0  0  0  0
 14 13  1  0  0  0  0
 17 14  2  0  0  0  0
 17 10  1  0  0  0  0
 18 15  1  1  0  0  0
 19 18  1  0  0  0  0
 20 17  1  0  0  0  0
 21 22  1  0  0  0  0
 22 23  2  0  0  0  0
 22 24  1  0  0  0  0
 24 20  1  0  0  0  0
 25 26  1  6  0  0  0
 25 27  1  0  0  0  0
 25 28  1  0  0  0  0
 27 28  1  0  0  0  0
 28  8  1  6  0  0  0
 29 31  1  0  0  0  0
 29 30  2  0  0  0  0
 30 25  1  0  0  0  0
 31 32  1  0  0  0  0
 32 33  1  0  0  0  0
 33 34  2  0  0  0  0
 33 35  1  0  0  0  0
 36 35  1  0  0  0  0
 37 36  1  0  0  0  0
 39 38  1  0  0  0  0
 41 40  2  0  0  0  0
 41 39  1  0  0  0  0
 41 42  2  0  0  0  0
 43 41  1  0  0  0  0
 45 44  1  1  0  0  0
 45 43  1  0  0  0  0
 46 48  1  0  0  0  0
 46 45  1  0  0  0  0
 47 46  2  0  0  0  0
 49 51  1  0  0  0  0
 49 45  1  0  0  0  0
 51 50  1  0  0  0  0
M  END
>  <MODEL>
7

>  <REMARK>
 VINA RESULT:      -6.1      1.757      3.121
  Name = 
  18 active torsions:
  status: ('A' for Active; 'I' for Inactive)
    1  A    between atoms: C_3  and  C_51
    2  A    between atoms: C_8  and  C_32
    3  A    between atoms: C_10  and  C_12
    4  A    between atoms: C_11  and  O_27
    5  A    between atoms: C_12  and  N_36
    6  A    between atoms: C_13  and  C_44
    7  A    between atoms: C_13  and  C_45
    8  A    between atoms: S_16  and  C_18
    9  A    between atoms: S_16  and  N_36
   10  A    between atoms: O_17  and  C_46
   11  A    between atoms: O_17  and  C_47
   12  A    between atoms: C_18  and  C_45
   13  A    between atoms: C_21  and  C_39
   14  A    between atoms: C_24  and  C_45
   15  A    between atoms: N_25  and  N_43
   16  A    between atoms: O_27  and  C_46
   17  A    between atoms: C_29  and  C_47
   18  A    between atoms: N_43  and  C_48
                            x       y       z     vdW  Elec       q    Type
                         _______ _______ _______ _____ _____    ______ ____

>  <TORSDO>
F 18

$$$$
=
 OpenBabel11042413563D

 51 53  0  0  1  0  0  0  0  0999 V2000
  188.8310  173.7460  139.6070 C   0  0  0  0  0  3  0  0  0  0  0  0
  190.0270  174.6030  142.7750 C   0  0  1  0  0  3  0  0  0  0  0  0
  190.4700  173.1410  142.8350 C   0  0  0  0  0  0  0  0  0  0  0  0
  188.7600  174.4000  140.7360 C   0  0  0  0  0  0  0  0  0  0  0  0
  190.2620  171.9340  140.6580 C   0  0  0  0  0  2  0  0  0  0  0  0
  189.1830  172.2830  139.6130 C   0  0  2  0  0  3  0  0  0  0  0  0
  189.7390  172.0490  142.0940 C   0  0  0  0  0  2  0  0  0  0  0  0
  191.6020  172.8530  143.5010 C   0  0  0  0  0  3  0  0  0  0  0  0
  188.8120  174.8960  141.9370 C   0  0  0  0  0  3  0  0  0  0  0  0
  188.7600  175.5400  146.3400 C   0  0  1  0  0  3  0  0  0  0  0  0
  188.9260  174.9200  144.9740 C   0  0  0  0  0  3  0  0  0  0  0  0
  190.7540  178.5980  143.9720 O   0  0  0  0  0  0  0  0  0  0  0  0
  190.3030  177.6440  144.6530 C   0  0  0  0  0  0  0  0  0  0  0  0
  189.1820  177.9130  145.5750 C   0  0  0  0  0  3  0  0  0  0  0  0
  192.0190  176.3150  143.6720 F   0  0  0  0  0  0  0  0  0  0  0  0
  189.9090  175.1980  147.2730 C   0  0  0  0  0  1  0  0  0  0  0  0
  188.4850  177.0230  146.3130 C   0  0  0  0  0  0  0  0  0  0  0  0
  190.9370  176.2890  144.5400 C   0  0  2  0  0  3  0  0  0  0  0  0
  189.9260  175.2500  144.1340 C   0  0  0  0  0  0  0  0  0  0  0  0
  187.4930  177.5100  147.2260 N   0  0  0  0  0  2  0  0  0  0  0  0
  184.0850  178.6610  145.9400 C   0  0  0  0  0  1  0  0  0  0  0  0
  185.1780  177.7690  146.4200 C   0  0  0  0  0  0  0  0  0  0  0  0
  184.9780  176.5250  146.5070 O   0  0  0  0  0  0  0  0  0  0  0  0
  186.4340  178.3320  146.7950 N   0  0  0  0  0  2  0  0  0  0  0  0
  193.4750  171.4020  144.3070 C   0  0  1  0  0  0  0  0  0  0  0  0
  193.8590  170.0520  144.8900 C   0  0  0  0  0  1  0  0  0  0  0  0
  193.3580  171.3640  142.9030 O   0  0  0  0  0  0  0  0  0  0  0  0
  192.1510  171.4580  143.6330 C   0  0  2  0  0  3  0  0  0  0  0  0
  195.4230  172.9770  144.5980 C   0  0  0  0  0  3  0  0  0  0  0  0
  194.1400  172.6600  144.8110 C   0  0  0  0  0  3  0  0  0  0  0  0
  196.3780  172.1240  143.8310 C   0  0  0  0  0  2  0  0  0  0  0  0
  197.4930  172.8970  143.4160 O   0  0  0  0  0  0  0  0  0  0  0  0
  197.4280  173.7380  142.3010 C   0  0  0  0  0  0  0  0  0  0  0  0
  196.9180  173.3260  141.2210 O   0  0  0  0  0  0  0  0  0  0  0  0
  197.9410  175.0350  142.3900 O   0  0  0  0  0  0  0  0  0  0  0  0
  197.1140  176.1860  142.2430 C   0  0  0  0  0  2  0  0  0  0  0  0
  196.3190  176.4160  143.5150 C   0  0  0  0  0  1  0  0  0  0  0  0
  189.6970  171.9260  138.2270 C   0  0  0  0  0  2  0  0  0  0  0  0
  190.8380  172.7610  137.8740 N   0  0  0  0  0  2  0  0  0  0  0  0
  191.6180  171.0950  135.9670 O   0  0  0  0  0  0  0  0  0  0  0  0
  192.0800  171.7150  137.2630 S   0  0  0  0  0  0  0  0  0  0  0  0
  192.3500  170.6130  138.2630 O   0  0  0  0  0  0  0  0  0  0  0  0
  193.5990  172.6440  136.9880 C   0  0  0  0  0  2  0  0  0  0  0  0
  192.9960  174.8640  137.7280 O   0  0  0  0  0  1  0  0  0  0  0  0
  193.8410  173.7750  138.0130 C   0  0  2  0  0  0  0  0  0  0  0  0
  195.2810  174.2110  137.8780 C   0  0  0  0  0  0  0  0  0  0  0  0
  196.1630  173.4950  137.0640 O   0  0  0  0  0  0  0  0  0  0  0  0
  195.6790  175.2730  138.4480 O   0  0  0  0  0  1  0  0  0  0  0  0
  193.5460  173.2580  139.4280 C   0  0  0  0  0  2  0  0  0  0  0  0
  193.7940  174.7070  141.4220 C   0  0  0  0  0  1  0  0  0  0  0  0
  192.8550  174.2900  140.3030 C   0  0  0  0  0  2  0  0  0  0  0  0
  1  6  1  0  0  0  0
  1  4  2  0  0  0  0
  2  3  1  0  0  0  0
  2 19  1  1  0  0  0
  3  8  2  0  0  0  0
  4  9  2  0  0  0  0
  5  7  1  0  0  0  0
  6 38  1  6  0  0  0
  6  5  1  0  0  0  0
  7  3  1  0  0  0  0
  9  2  1  0  0  0  0
 10 16  1  1  0  0  0
 11 10  1  0  0  0  0
 12 13  2  0  0  0  0
 13 14  1  0  0  0  0
 14 17  2  0  0  0  0
 17 10  1  0  0  0  0
 17 20  1  0  0  0  0
 18 15  1  6  0  0  0
 18 13  1  0  0  0  0
 19 18  1  0  0  0  0
 19 11  2  0  0  0  0
 21 22  1  0  0  0  0
 22 23  2  0  0  0  0
 22 24  1  0  0  0  0
 24 20  1  0  0  0  0
 25 30  1  0  0  0  0
 25 26  1  1  0  0  0
 27 28  1  0  0  0  0
 27 25  1  0  0  0  0
 28  8  1  6  0  0  0
 28 25  1  0  0  0  0
 29 30  2  0  0  0  0
 31 29  1  0  0  0  0
 32 31  1  0  0  0  0
 33 35  1  0  0  0  0
 33 32  1  0  0  0  0
 34 33  2  0  0  0  0
 36 35  1  0  0  0  0
 36 37  1  0  0  0  0
 39 38  1  0  0  0  0
 40 41  2  0  0  0  0
 41 39  1  0  0  0  0
 41 42  2  0  0  0  0
 43 41  1  0  0  0  0
 43 45  1  0  0  0  0
 45 44  1  6  0  0  0
 45 49  1  0  0  0  0
 46 45  1  0  0  0  0
 46 48  1  0  0  0  0
 47 46  2  0  0  0  0
 49 51  1  0  0  0  0
 51 50  1  0  0  0  0
M  END
>  <MODEL>
8

>  <REMARK>
 VINA RESULT:      -6.1      3.298      9.222
  Name = 
  18 active torsions:
  status: ('A' for Active; 'I' for Inactive)
    1  A    between atoms: C_3  and  C_51
    2  A    between atoms: C_8  and  C_32
    3  A    between atoms: C_10  and  C_12
    4  A    between atoms: C_11  and  O_27
    5  A    between atoms: C_12  and  N_36
    6  A    between atoms: C_13  and  C_44
    7  A    between atoms: C_13  and  C_45
    8  A    between atoms: S_16  and  C_18
    9  A    between atoms: S_16  and  N_36
   10  A    between atoms: O_17  and  C_46
   11  A    between atoms: O_17  and  C_47
   12  A    between atoms: C_18  and  C_45
   13  A    between atoms: C_21  and  C_39
   14  A    between atoms: C_24  and  C_45
   15  A    between atoms: N_25  and  N_43
   16  A    between atoms: O_27  and  C_46
   17  A    between atoms: C_29  and  C_47
   18  A    between atoms: N_43  and  C_48
                            x       y       z     vdW  Elec       q    Type
                         _______ _______ _______ _____ _____    ______ ____

>  <TORSDO>
F 18

$$$$
=
 OpenBabel11042413563D

 51 53  0  0  1  0  0  0  0  0999 V2000
  193.1860  176.4840  146.5500 C   0  0  0  0  0  3  0  0  0  0  0  0
  194.2110  175.3230  143.4190 C   0  0  1  0  0  3  0  0  0  0  0  0
  193.2540  174.1650  143.7050 C   0  0  0  0  0  0  0  0  0  0  0  0
  194.0790  176.3080  145.6140 C   0  0  0  0  0  0  0  0  0  0  0  0
  191.8120  174.5210  145.7150 C   0  0  0  0  0  2  0  0  0  0  0  0
  192.2710  175.3510  146.9310 C   0  0  2  0  0  3  0  0  0  0  0  0
  192.9550  173.6990  145.1090 C   0  0  0  0  0  2  0  0  0  0  0  0
  192.5980  173.6180  142.6670 C   0  0  0  0  0  3  0  0  0  0  0  0
  194.8470  175.9730  144.6180 C   0  0  0  0  0  3  0  0  0  0  0  0
  196.2830  175.4370  140.1210 C   0  0  1  0  0  3  0  0  0  0  0  0
  195.2930  175.7190  141.2240 C   0  0  0  0  0  3  0  0  0  0  0  0
  195.6360  171.5840  142.0370 O   0  0  0  0  0  0  0  0  0  0  0  0
  195.8960  172.7340  141.6010 C   0  0  0  0  0  0  0  0  0  0  0  0
  195.9510  172.9310  140.1400 C   0  0  0  0  0  3  0  0  0  0  0  0
  196.1470  173.3880  143.8780 F   0  0  0  0  0  0  0  0  0  0  0  0
  197.7190  175.6660  140.5610 C   0  0  0  0  0  1  0  0  0  0  0  0
  196.1070  174.0900  139.4650 C   0  0  0  0  0  0  0  0  0  0  0  0
  196.1800  173.8460  142.5690 C   0  0  2  0  0  3  0  0  0  0  0  0
  195.2350  174.9990  142.3610 C   0  0  0  0  0  0  0  0  0  0  0  0
  196.2350  174.0470  138.0380 N   0  0  0  0  0  2  0  0  0  0  0  0
  195.7970  176.7320  135.3560 C   0  0  0  0  0  1  0  0  0  0  0  0
  196.4230  175.6690  136.1910 C   0  0  0  0  0  0  0  0  0  0  0  0
  197.6200  175.3270  135.9750 O   0  0  0  0  0  0  0  0  0  0  0  0
  195.6600  175.0350  137.2160 N   0  0  0  0  0  2  0  0  0  0  0  0
  191.2770  171.8290  141.5190 C   0  0  1  0  0  0  0  0  0  0  0  0
  190.7080  170.4240  141.6230 C   0  0  0  0  0  1  0  0  0  0  0  0
  190.4380  172.7920  142.1150 O   0  0  0  0  0  0  0  0  0  0  0  0
  191.6270  172.4770  142.8110 C   0  0  2  0  0  3  0  0  0  0  0  0
  191.2670  172.2980  139.0410 C   0  0  0  0  0  3  0  0  0  0  0  0
  191.8930  172.3020  140.2250 C   0  0  0  0  0  3  0  0  0  0  0  0
  189.8680  171.8200  138.8370 C   0  0  0  0  0  2  0  0  0  0  0  0
  189.3290  172.3890  137.6550 O   0  0  0  0  0  0  0  0  0  0  0  0
  189.0190  173.7490  137.5720 C   0  0  0  0  0  0  0  0  0  0  0  0
  188.2550  174.2830  138.4250 O   0  0  0  0  0  0  0  0  0  0  0  0
  189.5550  174.5120  136.5290 O   0  0  0  0  0  0  0  0  0  0  0  0
  190.7460  174.1270  135.8480 C   0  0  0  0  0  2  0  0  0  0  0  0
  191.9270  174.9110  136.3890 C   0  0  0  0  0  1  0  0  0  0  0  0
  191.0520  175.9520  147.6130 C   0  0  0  0  0  2  0  0  0  0  0  0
  190.3250  176.8170  146.6930 N   0  0  0  0  0  2  0  0  0  0  0  0
  187.7770  177.2660  147.2630 O   0  0  0  0  0  0  0  0  0  0  0  0
  188.6880  176.2470  146.6240 S   0  0  0  0  0  0  0  0  0  0  0  0
  188.5740  174.9440  147.3840 O   0  0  0  0  0  0  0  0  0  0  0  0
  188.1950  175.9740  144.9130 C   0  0  0  0  0  2  0  0  0  0  0  0
  187.1970  178.1730  144.8070 O   0  0  0  0  0  1  0  0  0  0  0  0
  188.0110  177.2720  144.0950 C   0  0  2  0  0  0  0  0  0  0  0  0
  187.3280  176.9000  142.7990 C   0  0  0  0  0  0  0  0  0  0  0  0
  187.1850  177.8440  141.7780 O   0  0  0  0  0  0  0  0  0  0  0  0
  186.9420  175.7070  142.6050 O   0  0  0  0  0  1  0  0  0  0  0  0
  189.3810  177.9160  143.8380 C   0  0  0  0  0  2  0  0  0  0  0  0
  191.7340  177.6150  143.1260 C   0  0  0  0  0  1  0  0  0  0  0  0
  190.3560  176.9770  143.1480 C   0  0  0  0  0  2  0  0  0  0  0  0
  1  6  1  0  0  0  0
  2 19  1  6  0  0  0
  2  3  1  0  0  0  0
  2  9  1  0  0  0  0
  3  7  1  0  0  0  0
  4  1  2  0  0  0  0
  5  6  1  0  0  0  0
  6 38  1  6  0  0  0
  7  5  1  0  0  0  0
  8  3  2  0  0  0  0
  9  4  2  0  0  0  0
 10 16  1  1  0  0  0
 10 11  1  0  0  0  0
 11 19  2  0  0  0  0
 13 12  2  0  0  0  0
 13 18  1  0  0  0  0
 14 13  1  0  0  0  0
 17 10  1  0  0  0  0
 17 14  2  0  0  0  0
 18 15  1  1  0  0  0
 19 18  1  0  0  0  0
 20 17  1  0  0  0  0
 21 22  1  0  0  0  0
 22 24  1  0  0  0  0
 23 22  2  0  0  0  0
 24 20  1  0  0  0  0
 25 26  1  1  0  0  0
 25 27  1  0  0  0  0
 25 28  1  0  0  0  0
 27 28  1  0  0  0  0
 28  8  1  6  0  0  0
 29 30  2  0  0  0  0
 30 25  1  0  0  0  0
 31 29  1  0  0  0  0
 32 31  1  0  0  0  0
 33 32  1  0  0  0  0
 33 34  2  0  0  0  0
 35 33  1  0  0  0  0
 36 37  1  0  0  0  0
 36 35  1  0  0  0  0
 39 38  1  0  0  0  0
 41 39  1  0  0  0  0
 41 40  2  0  0  0  0
 41 42  2  0  0  0  0
 43 41  1  0  0  0  0
 45 44  1  1  0  0  0
 45 43  1  0  0  0  0
 46 45  1  0  0  0  0
 47 46  2  0  0  0  0
 48 46  1  0  0  0  0
 49 45  1  0  0  0  0
 50 51  1  0  0  0  0
 51 49  1  0  0  0  0
M  END
>  <MODEL>
9

>  <REMARK>
 VINA RESULT:      -6.0      1.914      2.929
  Name = 
  18 active torsions:
  status: ('A' for Active; 'I' for Inactive)
    1  A    between atoms: C_3  and  C_51
    2  A    between atoms: C_8  and  C_32
    3  A    between atoms: C_10  and  C_12
    4  A    between atoms: C_11  and  O_27
    5  A    between atoms: C_12  and  N_36
    6  A    between atoms: C_13  and  C_44
    7  A    between atoms: C_13  and  C_45
    8  A    between atoms: S_16  and  C_18
    9  A    between atoms: S_16  and  N_36
   10  A    between atoms: O_17  and  C_46
   11  A    between atoms: O_17  and  C_47
   12  A    between atoms: C_18  and  C_45
   13  A    between atoms: C_21  and  C_39
   14  A    between atoms: C_24  and  C_45
   15  A    between atoms: N_25  and  N_43
   16  A    between atoms: O_27  and  C_46
   17  A    between atoms: C_29  and  C_47
   18  A    between atoms: N_43  and  C_48
                            x       y       z     vdW  Elec       q    Type
                         _______ _______ _______ _____ _____    ______ ____

>  <TORSDO>
F 18

$$$$
