=
 OpenBabel11042418143D

 53 55  0  0  1  0  0  0  0  0999 V2000
  188.9660  175.3460  146.3060 C   0  0  1  0  0  3  0  0  0  0  0  0
  190.0700  174.8620  145.3930 C   0  0  1  0  0  3  0  0  0  0  0  0
  190.2700  174.7890  146.8950 C   0  0  1  0  0  3  0  0  0  0  0  0
  191.2850  175.8410  147.3210 C   0  0  0  0  0  2  0  0  0  0  0  0
  192.6830  175.3410  147.0170 C   0  0  0  0  0  2  0  0  0  0  0  0
  193.3450  176.2010  145.9480 C   0  0  1  0  0  3  0  0  0  0  0  0
  194.2670  177.2200  146.5930 C   0  0  0  0  0  1  0  0  0  0  0  0
  193.6100  175.7840  143.4610 C   0  0  0  0  0  1  0  0  0  0  0  0
  194.0850  175.4020  144.8580 C   0  0  2  0  0  3  0  0  0  0  0  0
  193.1740  173.2290  144.6980 O   0  0  0  0  0  0  0  0  0  0  0  0
  195.3500  173.1880  145.5470 C   0  0  0  0  0  1  0  0  0  0  0  0
  194.1440  173.8960  145.0190 C   0  0  0  0  0  0  0  0  0  0  0  0
  188.8710  176.8690  146.2310 C   0  0  0  0  0  2  0  0  0  0  0  0
  187.6100  177.2820  145.5420 C   0  0  0  0  0  0  0  0  0  0  0  0
  185.2320  178.3740  144.6850 C   0  0  1  0  0  3  0  0  0  0  0  0
  185.2150  177.0870  145.2580 O   0  0  0  0  0  0  0  0  0  0  0  0
  187.6780  178.0250  144.4280 C   0  0  0  0  0  3  0  0  0  0  0  0
  186.2680  177.0440  146.1970 C   0  0  0  0  0  2  0  0  0  0  0  0
  186.4300  178.5060  143.7400 C   0  0  0  0  0  2  0  0  0  0  0  0
  182.7700  177.4890  139.9840 O   0  0  0  0  0  0  0  0  0  0  0  0
  184.5700  177.5480  141.9950 O   0  0  0  0  0  0  0  0  0  0  0  0
  180.7670  178.6300  140.2320 N   0  0  0  0  0  2  0  0  0  0  0  0
  182.4640  178.5690  142.0400 N   0  0  0  0  0  2  0  0  0  0  0  0
  183.7140  178.2150  142.6380 C   0  0  0  0  0  0  0  0  0  0  0  0
  182.0360  178.1960  140.7230 C   0  0  0  0  0  0  0  0  0  0  0  0
  183.9830  178.6350  143.9790 N   0  0  0  0  0  2  0  0  0  0  0  0
  179.8750  179.4930  141.0020 C   0  0  2  0  0  3  0  0  0  0  0  0
  179.1610  178.6890  142.0760 C   0  0  0  0  0  1  0  0  0  0  0  0
  178.8570  180.1770  140.0880 C   0  0  1  0  0  3  0  0  0  0  0  0
  178.0210  179.1340  139.3620 C   0  0  0  0  0  2  0  0  0  0  0  0
  177.8740  179.4920  138.0200 O   0  0  0  0  0  1  0  0  0  0  0  0
  178.0240  181.0330  140.8210 O   0  0  0  0  0  0  0  0  0  0  0  0
  177.8890  182.1750  140.0250 C   0  0  0  0  0  2  0  0  0  0  0  0
  179.2290  182.5360  139.4070 C   0  0  0  0  0  2  0  0  0  0  0  0
  178.3300  184.7030  138.5630 O   0  0  0  0  0  1  0  0  0  0  0  0
  179.0500  183.5420  138.3230 C   0  0  0  0  0  0  0  0  0  0  0  0
  179.5280  183.3240  137.1790 O   0  0  0  0  0  0  0  0  0  0  0  0
  189.7190  173.4850  144.8630 C   0  0  0  0  0  2  0  0  0  0  0  0
  189.1710  173.6030  143.4500 C   0  0  0  0  0  2  0  0  0  0  0  0
  190.1620  175.6180  142.2980 C   0  0  0  0  0  1  0  0  0  0  0  0
  190.2390  174.1060  142.4860 C   0  0  2  0  0  3  0  0  0  0  0  0
  192.3500  171.0730  139.1710 C   0  0  0  0  0  1  0  0  0  0  0  0
  190.5480  172.6540  138.4650 C   0  0  0  0  0  0  0  0  0  0  0  0
  188.2530  174.6230  140.4750 O   0  0  0  0  0  0  0  0  0  0  0  0
  189.2050  173.8500  140.1800 C   0  0  0  0  0  0  0  0  0  0  0  0
  188.3910  173.7540  137.8060 C   0  0  0  0  0  1  0  0  0  0  0  0
  190.1350  173.4180  141.1930 N   0  0  0  0  0  0  0  0  0  0  0  0
  189.3790  173.4080  138.8240 N   0  0  0  0  0  0  0  0  0  0  0  0
  191.6050  172.3600  139.5040 C   0  0  1  0  0  3  0  0  0  0  0  0
  190.9760  172.2470  140.9010 C   0  0  1  0  0  3  0  0  0  0  0  0
  190.7280  172.3040  137.2600 O   0  0  0  0  0  0  0  0  0  0  0  0
  191.9760  172.0940  141.8720 O   0  0  0  0  0  0  0  0  0  0  0  0
  191.8510  170.7730  142.3100 C   0  0  0  0  0  1  0  0  0  0  0  0
  1 13  1  6  0  0  0
  1  3  1  0  0  0  0
  2 38  1  1  0  0  0
  2  1  1  0  0  0  0
  2  3  1  0  0  0  0
  3  4  1  6  0  0  0
  5  4  1  0  0  0  0
  6  7  1  1  0  0  0
  6  5  1  0  0  0  0
  9  8  1  6  0  0  0
  9 12  1  0  0  0  0
  9  6  1  0  0  0  0
 10 12  2  0  0  0  0
 12 11  1  0  0  0  0
 14 18  1  0  0  0  0
 14 13  1  0  0  0  0
 15 26  1  6  0  0  0
 15 16  1  0  0  0  0
 16 18  1  0  0  0  0
 17 14  2  0  0  0  0
 19 17  1  0  0  0  0
 19 15  1  0  0  0  0
 20 25  2  0  0  0  0
 21 24  2  0  0  0  0
 22 25  1  0  0  0  0
 22 27  1  0  0  0  0
 23 24  1  0  0  0  0
 24 26  1  0  0  0  0
 25 23  1  0  0  0  0
 27 28  1  1  0  0  0
 29 30  1  1  0  0  0
 29 32  1  0  0  0  0
 29 27  1  0  0  0  0
 31 30  1  0  0  0  0
 33 32  1  0  0  0  0
 34 33  1  0  0  0  0
 36 35  1  0  0  0  0
 36 34  1  0  0  0  0
 37 36  2  0  0  0  0
 39 38  1  0  0  0  0
 41 40  1  6  0  0  0
 41 39  1  0  0  0  0
 43 48  1  0  0  0  0
 43 49  1  0  0  0  0
 45 44  2  0  0  0  0
 45 47  1  0  0  0  0
 46 48  1  0  0  0  0
 47 41  1  0  0  0  0
 48 45  1  0  0  0  0
 49 42  1  6  0  0  0
 49 50  1  0  0  0  0
 50 47  1  0  0  0  0
 50 52  1  1  0  0  0
 51 43  2  0  0  0  0
 52 53  1  0  0  0  0
M  END
>  <MODEL>
1

>  <REMARK>
 VINA RESULT:      -7.2      0.000      0.000
  Name = 
  20 active torsions:
  status: ('A' for Active; 'I' for Inactive)
    1  A    between atoms: C_1  and  C_30
    2  A    between atoms: C_2  and  N_37
    3  A    between atoms: N_5  and  C_42
    4  A    between atoms: C_6  and  C_14
    5  A    between atoms: C_6  and  C_22
    6  A    between atoms: C_7  and  C_48
    7  A    between atoms: C_7  and  O_53
    8  A    between atoms: C_8  and  C_17
    9  A    between atoms: O_13  and  C_47
   10  A    between atoms: C_14  and  C_52
   11  A    between atoms: C_17  and  C_42
   12  A    between atoms: C_17  and  O_53
   13  A    between atoms: C_21  and  C_30
   14  A    between atoms: C_22  and  C_27
   15  A    between atoms: C_25  and  C_39
   16  A    between atoms: N_35  and  C_50
   17  A    between atoms: C_36  and  C_52
   18  A    between atoms: C_38  and  C_48
   19  A    between atoms: C_39  and  C_40
   20  A    between atoms: C_40  and  C_50
                            x       y       z     vdW  Elec       q    Type
                         _______ _______ _______ _____ _____    ______ ____

>  <TORSDO>
F 20

$$$$
=
 OpenBabel11042418143D

 53 55  0  0  1  0  0  0  0  0999 V2000
  189.2310  177.2710  142.4410 C   0  0  1  0  0  3  0  0  0  0  0  0
  188.0580  176.3710  142.7630 C   0  0  1  0  0  3  0  0  0  0  0  0
  187.7940  177.8040  142.3380 C   0  0  1  0  0  3  0  0  0  0  0  0
  187.3180  178.6080  143.5390 C   0  0  0  0  0  2  0  0  0  0  0  0
  186.2410  177.8300  144.2680 C   0  0  0  0  0  2  0  0  0  0  0  0
  185.6570  178.6530  145.4100 C   0  0  1  0  0  3  0  0  0  0  0  0
  184.1500  178.7560  145.2640 C   0  0  0  0  0  1  0  0  0  0  0  0
  186.0120  179.2800  147.8400 C   0  0  0  0  0  1  0  0  0  0  0  0
  186.0400  178.1530  146.8160 C   0  0  2  0  0  3  0  0  0  0  0  0
  187.2510  176.1250  146.8010 O   0  0  0  0  0  0  0  0  0  0  0  0
  188.6430  177.9540  147.2170 C   0  0  0  0  0  1  0  0  0  0  0  0
  187.3110  177.3360  146.9400 C   0  0  0  0  0  0  0  0  0  0  0  0
  189.9750  177.6200  143.7280 C   0  0  0  0  0  2  0  0  0  0  0  0
  190.7830  176.4530  144.2000 C   0  0  0  0  0  0  0  0  0  0  0  0
  192.6470  174.6680  145.1590 C   0  0  1  0  0  3  0  0  0  0  0  0
  192.4240  174.7280  143.7690 O   0  0  0  0  0  0  0  0  0  0  0  0
  190.4840  175.8720  145.3700 C   0  0  0  0  0  3  0  0  0  0  0  0
  192.0480  176.0560  143.4730 C   0  0  0  0  0  2  0  0  0  0  0  0
  191.3090  174.7330  145.9020 C   0  0  0  0  0  2  0  0  0  0  0  0
  197.5950  172.5550  145.1470 O   0  0  0  0  0  0  0  0  0  0  0  0
  195.4850  174.2120  144.8460 O   0  0  0  0  0  0  0  0  0  0  0  0
  197.2330  170.3980  145.9140 N   0  0  0  0  0  2  0  0  0  0  0  0
  195.3730  172.0200  145.6590 N   0  0  0  0  0  2  0  0  0  0  0  0
  194.7810  173.2750  145.3150 C   0  0  0  0  0  0  0  0  0  0  0  0
  196.7670  171.7000  145.5570 C   0  0  0  0  0  0  0  0  0  0  0  0
  193.3750  173.4540  145.5070 N   0  0  0  0  0  2  0  0  0  0  0  0
  196.3360  169.3310  146.3510 C   0  0  2  0  0  3  0  0  0  0  0  0
  196.8510  168.7020  147.6350 C   0  0  0  0  0  1  0  0  0  0  0  0
  196.1860  168.2670  145.2630 C   0  0  1  0  0  3  0  0  0  0  0  0
  194.8150  168.3740  144.6120 C   0  0  0  0  0  2  0  0  0  0  0  0
  193.9130  168.9710  145.4970 O   0  0  0  0  0  1  0  0  0  0  0  0
  197.1880  168.3980  144.2930 O   0  0  0  0  0  0  0  0  0  0  0  0
  196.5050  168.6610  143.1010 C   0  0  0  0  0  2  0  0  0  0  0  0
  197.3590  169.5330  142.1970 C   0  0  0  0  0  2  0  0  0  0  0  0
  196.5390  170.7610  140.1870 O   0  0  0  0  0  0  0  0  0  0  0  0
  196.5310  170.5990  141.5660 C   0  0  0  0  0  0  0  0  0  0  0  0
  195.8460  171.3720  142.2850 O   0  0  0  0  0  1  0  0  0  0  0  0
  187.7990  175.4420  141.5930 C   0  0  0  0  0  2  0  0  0  0  0  0
  189.0350  174.5980  141.3250 C   0  0  0  0  0  2  0  0  0  0  0  0
  188.5080  172.4130  142.4710 C   0  0  0  0  0  1  0  0  0  0  0  0
  188.6690  173.1310  141.1350 C   0  0  2  0  0  3  0  0  0  0  0  0
  189.7000  170.8840  136.8300 C   0  0  0  0  0  1  0  0  0  0  0  0
  191.1060  170.4460  138.8490 C   0  0  0  0  0  0  0  0  0  0  0  0
  191.2370  172.2020  142.0250 O   0  0  0  0  0  0  0  0  0  0  0  0
  190.8620  171.8790  140.8650 C   0  0  0  0  0  0  0  0  0  0  0  0
  192.8830  170.4090  140.6190 C   0  0  0  0  0  1  0  0  0  0  0  0
  189.6670  172.4520  140.2990 N   0  0  0  0  0  0  0  0  0  0  0  0
  191.6180  170.9230  140.1040 N   0  0  0  0  0  0  0  0  0  0  0  0
  189.7610  170.9250  138.3520 C   0  0  1  0  0  3  0  0  0  0  0  0
  189.4770  172.3520  138.8440 C   0  0  1  0  0  3  0  0  0  0  0  0
  191.7460  169.5670  138.1990 O   0  0  0  0  0  0  0  0  0  0  0  0
  188.1810  172.7420  138.4790 O   0  0  0  0  0  0  0  0  0  0  0  0
  188.3510  173.9270  137.7610 C   0  0  0  0  0  1  0  0  0  0  0  0
  1  2  1  0  0  0  0
  1 13  1  1  0  0  0
  2 38  1  6  0  0  0
  3  1  1  0  0  0  0
  3  2  1  0  0  0  0
  3  4  1  1  0  0  0
  4  5  1  0  0  0  0
  5  6  1  0  0  0  0
  6  7  1  1  0  0  0
  6  9  1  0  0  0  0
  9 12  1  0  0  0  0
  9  8  1  1  0  0  0
 10 12  2  0  0  0  0
 12 11  1  0  0  0  0
 13 14  1  0  0  0  0
 14 17  2  0  0  0  0
 15 26  1  6  0  0  0
 15 19  1  0  0  0  0
 16 15  1  0  0  0  0
 17 19  1  0  0  0  0
 18 16  1  0  0  0  0
 18 14  1  0  0  0  0
 20 25  2  0  0  0  0
 21 24  2  0  0  0  0
 22 27  1  0  0  0  0
 24 26  1  0  0  0  0
 24 23  1  0  0  0  0
 25 23  1  0  0  0  0
 25 22  1  0  0  0  0
 27 28  1  1  0  0  0
 29 30  1  6  0  0  0
 29 27  1  0  0  0  0
 30 31  1  0  0  0  0
 32 29  1  0  0  0  0
 33 32  1  0  0  0  0
 34 33  1  0  0  0  0
 35 36  2  0  0  0  0
 36 34  1  0  0  0  0
 36 37  1  0  0  0  0
 39 38  1  0  0  0  0
 41 39  1  0  0  0  0
 41 40  1  1  0  0  0
 43 48  1  0  0  0  0
 45 44  2  0  0  0  0
 47 45  1  0  0  0  0
 47 41  1  0  0  0  0
 48 46  1  0  0  0  0
 48 45  1  0  0  0  0
 49 42  1  6  0  0  0
 49 50  1  0  0  0  0
 49 43  1  0  0  0  0
 50 52  1  1  0  0  0
 50 47  1  0  0  0  0
 51 43  2  0  0  0  0
 53 52  1  0  0  0  0
M  END
>  <MODEL>
2

>  <REMARK>
 VINA RESULT:      -7.0      5.615     12.215
  Name = 
  20 active torsions:
  status: ('A' for Active; 'I' for Inactive)
    1  A    between atoms: C_1  and  C_30
    2  A    between atoms: C_2  and  N_37
    3  A    between atoms: N_5  and  C_42
    4  A    between atoms: C_6  and  C_14
    5  A    between atoms: C_6  and  C_22
    6  A    between atoms: C_7  and  C_48
    7  A    between atoms: C_7  and  O_53
    8  A    between atoms: C_8  and  C_17
    9  A    between atoms: O_13  and  C_47
   10  A    between atoms: C_14  and  C_52
   11  A    between atoms: C_17  and  C_42
   12  A    between atoms: C_17  and  O_53
   13  A    between atoms: C_21  and  C_30
   14  A    between atoms: C_22  and  C_27
   15  A    between atoms: C_25  and  C_39
   16  A    between atoms: N_35  and  C_50
   17  A    between atoms: C_36  and  C_52
   18  A    between atoms: C_38  and  C_48
   19  A    between atoms: C_39  and  C_40
   20  A    between atoms: C_40  and  C_50
                            x       y       z     vdW  Elec       q    Type
                         _______ _______ _______ _____ _____    ______ ____

>  <TORSDO>
F 20

$$$$
=
 OpenBabel11042418143D

 53 55  0  0  1  0  0  0  0  0999 V2000
  193.5350  171.6920  140.9260 C   0  0  1  0  0  3  0  0  0  0  0  0
  194.7210  170.8040  141.2330 C   0  0  1  0  0  3  0  0  0  0  0  0
  194.4460  171.1970  139.7930 C   0  0  1  0  0  3  0  0  0  0  0  0
  193.9250  169.9870  139.0300 C   0  0  0  0  0  2  0  0  0  0  0  0
  193.7830  170.3420  137.5640 C   0  0  0  0  0  2  0  0  0  0  0  0
  192.7580  171.4530  137.3720 C   0  0  1  0  0  3  0  0  0  0  0  0
  193.3040  172.5130  136.4350 C   0  0  0  0  0  1  0  0  0  0  0  0
  190.7700  171.9030  135.8640 C   0  0  0  0  0  1  0  0  0  0  0  0
  191.3730  170.9660  136.9030 C   0  0  2  0  0  3  0  0  0  0  0  0
  189.6780  171.5100  138.4560 O   0  0  0  0  0  0  0  0  0  0  0  0
  190.1490  169.2210  138.4640 C   0  0  0  0  0  1  0  0  0  0  0  0
  190.3590  170.6180  137.9750 C   0  0  0  0  0  0  0  0  0  0  0  0
  192.2420  170.9050  141.1270 C   0  0  0  0  0  2  0  0  0  0  0  0
  191.1550  171.8000  141.6290 C   0  0  0  0  0  0  0  0  0  0  0  0
  189.0750  173.5570  142.0400 C   0  0  1  0  0  3  0  0  0  0  0  0
  190.3890  173.9970  142.2950 O   0  0  0  0  0  0  0  0  0  0  0  0
  190.0270  171.2630  142.1140 C   0  0  0  0  0  3  0  0  0  0  0  0
  191.2340  173.2950  141.4090 C   0  0  0  0  0  2  0  0  0  0  0  0
  188.8910  172.1340  142.5760 C   0  0  0  0  0  2  0  0  0  0  0  0
  187.6140  178.7340  142.1060 O   0  0  0  0  0  0  0  0  0  0  0  0
  188.8780  176.4060  141.5890 O   0  0  0  0  0  0  0  0  0  0  0  0
  185.9030  178.7640  143.6700 N   0  0  0  0  0  2  0  0  0  0  0  0
  187.0900  176.6690  143.0780 N   0  0  0  0  0  2  0  0  0  0  0  0
  188.0640  175.8750  142.3940 C   0  0  0  0  0  0  0  0  0  0  0  0
  186.9020  178.0800  142.9120 C   0  0  0  0  0  0  0  0  0  0  0  0
  188.1060  174.4670  142.6410 N   0  0  0  0  0  2  0  0  0  0  0  0
  185.0690  178.0940  144.6630 C   0  0  2  0  0  3  0  0  0  0  0  0
  183.8000  178.8940  144.9140 C   0  0  0  0  0  1  0  0  0  0  0  0
  185.8350  177.8920  145.9720 C   0  0  1  0  0  3  0  0  0  0  0  0
  185.1190  178.6030  147.1110 C   0  0  0  0  0  2  0  0  0  0  0  0
  185.9190  179.6350  147.6050 O   0  0  0  0  0  1  0  0  0  0  0  0
  185.9700  176.5290  146.2670 O   0  0  0  0  0  0  0  0  0  0  0  0
  187.0650  176.4540  147.1330 C   0  0  0  0  0  2  0  0  0  0  0  0
  188.3000  176.0090  146.3690 C   0  0  0  0  0  2  0  0  0  0  0  0
  189.6680  177.8240  147.3930 O   0  0  0  0  0  1  0  0  0  0  0  0
  189.2780  177.1270  146.2580 C   0  0  0  0  0  0  0  0  0  0  0  0
  189.7280  177.4590  145.1310 O   0  0  0  0  0  0  0  0  0  0  0  0
  195.8560  171.6490  141.7780 C   0  0  0  0  0  2  0  0  0  0  0  0
  195.3380  173.0340  142.1350 C   0  0  0  0  0  2  0  0  0  0  0  0
  196.0780  172.2460  144.4150 C   0  0  0  0  0  1  0  0  0  0  0  0
  195.8030  173.4530  143.5240 C   0  0  2  0  0  3  0  0  0  0  0  0
  194.9270  177.7530  145.8470 C   0  0  0  0  0  1  0  0  0  0  0  0
  193.3350  175.8420  146.0880 C   0  0  0  0  0  0  0  0  0  0  0  0
  193.1030  172.7470  144.2050 O   0  0  0  0  0  0  0  0  0  0  0  0
  193.5390  173.8610  144.6030 C   0  0  0  0  0  0  0  0  0  0  0  0
  191.4270  174.2230  145.9110 C   0  0  0  0  0  1  0  0  0  0  0  0
  194.8190  174.3450  144.1520 N   0  0  0  0  0  0  0  0  0  0  0  0
  192.7670  174.6490  145.5220 N   0  0  0  0  0  0  0  0  0  0  0  0
  194.7500  176.2430  145.7420 C   0  0  1  0  0  3  0  0  0  0  0  0
  195.1140  175.7760  144.3250 C   0  0  1  0  0  3  0  0  0  0  0  0
  192.6750  176.5130  146.9380 O   0  0  0  0  0  0  0  0  0  0  0  0
  196.4640  176.0460  144.0560 O   0  0  0  0  0  0  0  0  0  0  0  0
  196.4630  176.6750  142.8090 C   0  0  0  0  0  1  0  0  0  0  0  0
  1 13  1  6  0  0  0
  1  2  1  0  0  0  0
  2 38  1  1  0  0  0
  3  4  1  6  0  0  0
  3  1  1  0  0  0  0
  3  2  1  0  0  0  0
  5  4  1  0  0  0  0
  6  7  1  6  0  0  0
  6  5  1  0  0  0  0
  9  8  1  6  0  0  0
  9  6  1  0  0  0  0
  9 12  1  0  0  0  0
 12 10  2  0  0  0  0
 12 11  1  0  0  0  0
 13 14  1  0  0  0  0
 14 17  2  0  0  0  0
 15 16  1  0  0  0  0
 15 19  1  0  0  0  0
 15 26  1  1  0  0  0
 17 19  1  0  0  0  0
 18 14  1  0  0  0  0
 18 16  1  0  0  0  0
 20 25  2  0  0  0  0
 21 24  2  0  0  0  0
 22 27  1  0  0  0  0
 24 26  1  0  0  0  0
 24 23  1  0  0  0  0
 25 23  1  0  0  0  0
 25 22  1  0  0  0  0
 27 28  1  1  0  0  0
 27 29  1  0  0  0  0
 29 32  1  0  0  0  0
 29 30  1  1  0  0  0
 30 31  1  0  0  0  0
 32 33  1  0  0  0  0
 34 33  1  0  0  0  0
 36 34  1  0  0  0  0
 36 35  1  0  0  0  0
 37 36  2  0  0  0  0
 38 39  1  0  0  0  0
 39 41  1  0  0  0  0
 41 47  1  0  0  0  0
 41 40  1  1  0  0  0
 43 51  2  0  0  0  0
 44 45  2  0  0  0  0
 45 48  1  0  0  0  0
 47 50  1  0  0  0  0
 47 45  1  0  0  0  0
 48 46  1  0  0  0  0
 48 43  1  0  0  0  0
 49 42  1  6  0  0  0
 49 43  1  0  0  0  0
 50 52  1  1  0  0  0
 50 49  1  0  0  0  0
 53 52  1  0  0  0  0
M  END
>  <MODEL>
3

>  <REMARK>
 VINA RESULT:      -6.9      4.536      8.778
  Name = 
  20 active torsions:
  status: ('A' for Active; 'I' for Inactive)
    1  A    between atoms: C_1  and  C_30
    2  A    between atoms: C_2  and  N_37
    3  A    between atoms: N_5  and  C_42
    4  A    between atoms: C_6  and  C_14
    5  A    between atoms: C_6  and  C_22
    6  A    between atoms: C_7  and  C_48
    7  A    between atoms: C_7  and  O_53
    8  A    between atoms: C_8  and  C_17
    9  A    between atoms: O_13  and  C_47
   10  A    between atoms: C_14  and  C_52
   11  A    between atoms: C_17  and  C_42
   12  A    between atoms: C_17  and  O_53
   13  A    between atoms: C_21  and  C_30
   14  A    between atoms: C_22  and  C_27
   15  A    between atoms: C_25  and  C_39
   16  A    between atoms: N_35  and  C_50
   17  A    between atoms: C_36  and  C_52
   18  A    between atoms: C_38  and  C_48
   19  A    between atoms: C_39  and  C_40
   20  A    between atoms: C_40  and  C_50
                            x       y       z     vdW  Elec       q    Type
                         _______ _______ _______ _____ _____    ______ ____

>  <TORSDO>
F 20

$$$$
=
 OpenBabel11042418143D

 53 55  0  0  1  0  0  0  0  0999 V2000
  194.0640  170.5430  141.9000 C   0  0  1  0  0  3  0  0  0  0  0  0
  194.9330  169.3280  142.1350 C   0  0  1  0  0  3  0  0  0  0  0  0
  195.3030  170.2960  141.0270 C   0  0  1  0  0  3  0  0  0  0  0  0
  195.0220  169.6510  139.6780 C   0  0  0  0  0  2  0  0  0  0  0  0
  195.8520  170.3360  138.6110 C   0  0  0  0  0  2  0  0  0  0  0  0
  195.3450  171.7490  138.3540 C   0  0  1  0  0  3  0  0  0  0  0  0
  196.0210  172.3320  137.1270 C   0  0  0  0  0  1  0  0  0  0  0  0
  193.3380  171.7000  136.8060 C   0  0  0  0  0  1  0  0  0  0  0  0
  193.8120  171.8650  138.2450 C   0  0  2  0  0  3  0  0  0  0  0  0
  193.6310  173.5050  139.9340 O   0  0  0  0  0  0  0  0  0  0  0  0
  191.9550  173.7410  138.3230 C   0  0  0  0  0  1  0  0  0  0  0  0
  193.1570  173.0640  138.8990 C   0  0  0  0  0  0  0  0  0  0  0  0
  192.7310  170.1080  141.2950 C   0  0  0  0  0  2  0  0  0  0  0  0
  191.6590  171.0970  141.6210 C   0  0  0  0  0  0  0  0  0  0  0  0
  189.3730  172.4910  142.2670 C   0  0  1  0  0  3  0  0  0  0  0  0
  189.7970  172.4770  140.9230 O   0  0  0  0  0  0  0  0  0  0  0  0
  191.6730  171.7220  142.8060 C   0  0  0  0  0  3  0  0  0  0  0  0
  190.4560  171.2460  140.7150 C   0  0  0  0  0  2  0  0  0  0  0  0
  190.5810  172.6820  143.1900 C   0  0  0  0  0  2  0  0  0  0  0  0
  188.6370  177.7850  141.6570 O   0  0  0  0  0  0  0  0  0  0  0  0
  189.6960  175.3020  141.6730 O   0  0  0  0  0  0  0  0  0  0  0  0
  186.5310  178.1180  142.5660 N   0  0  0  0  0  2  0  0  0  0  0  0
  187.5710  175.8680  142.4760 N   0  0  0  0  0  2  0  0  0  0  0  0
  188.6050  174.9240  142.1820 C   0  0  0  0  0  0  0  0  0  0  0  0
  187.6260  177.2750  142.2060 C   0  0  0  0  0  0  0  0  0  0  0  0
  188.3860  173.5430  142.4800 N   0  0  0  0  0  2  0  0  0  0  0  0
  185.3420  177.6190  143.2510 C   0  0  2  0  0  3  0  0  0  0  0  0
  184.0850  178.1580  142.5870 C   0  0  0  0  0  1  0  0  0  0  0  0
  185.3650  178.0020  144.7320 C   0  0  1  0  0  3  0  0  0  0  0  0
  184.2250  178.9610  145.0420 C   0  0  0  0  0  2  0  0  0  0  0  0
  183.8560  178.8430  146.3830 O   0  0  0  0  0  1  0  0  0  0  0  0
  185.2690  176.8640  145.5440 O   0  0  0  0  0  0  0  0  0  0  0  0
  186.5880  176.4400  145.7280 C   0  0  0  0  0  2  0  0  0  0  0  0
  187.4320  177.5870  146.2560 C   0  0  0  0  0  2  0  0  0  0  0  0
  189.5630  176.5190  146.9880 O   0  0  0  0  0  1  0  0  0  0  0  0
  188.8810  177.3010  146.0660 C   0  0  0  0  0  0  0  0  0  0  0  0
  189.4960  177.7920  145.0830 O   0  0  0  0  0  0  0  0  0  0  0  0
  195.8260  169.5720  143.3370 C   0  0  0  0  0  2  0  0  0  0  0  0
  195.2360  170.6780  144.1980 C   0  0  0  0  0  2  0  0  0  0  0  0
  196.9710  171.5550  145.8060 C   0  0  0  0  0  1  0  0  0  0  0  0
  196.2630  171.7700  144.4720 C   0  0  2  0  0  3  0  0  0  0  0  0
  196.6420  176.5490  143.1830 C   0  0  0  0  0  1  0  0  0  0  0  0
  195.0130  175.8430  144.9410 C   0  0  0  0  0  0  0  0  0  0  0  0
  193.8600  172.5230  145.8540 O   0  0  0  0  0  0  0  0  0  0  0  0
  194.5180  173.4310  145.2780 C   0  0  0  0  0  0  0  0  0  0  0  0
  192.9840  175.1640  146.2520 C   0  0  0  0  0  1  0  0  0  0  0  0
  195.6320  173.0960  144.4280 N   0  0  0  0  0  0  0  0  0  0  0  0
  194.1690  174.8100  145.4770 N   0  0  0  0  0  0  0  0  0  0  0  0
  196.2790  175.4750  144.2020 C   0  0  1  0  0  3  0  0  0  0  0  0
  196.1200  174.1220  143.4930 C   0  0  1  0  0  3  0  0  0  0  0  0
  194.7350  177.0600  145.1570 O   0  0  0  0  0  0  0  0  0  0  0  0
  197.3340  173.7330  142.9110 O   0  0  0  0  0  0  0  0  0  0  0  0
  197.0260  173.4820  141.5720 C   0  0  0  0  0  1  0  0  0  0  0  0
  1 13  1  6  0  0  0
  1  2  1  0  0  0  0
  2 38  1  1  0  0  0
  3  4  1  6  0  0  0
  3  1  1  0  0  0  0
  3  2  1  0  0  0  0
  5  4  1  0  0  0  0
  6  7  1  6  0  0  0
  6  5  1  0  0  0  0
  9  8  1  6  0  0  0
  9  6  1  0  0  0  0
  9 12  1  0  0  0  0
 11 12  1  0  0  0  0
 12 10  2  0  0  0  0
 13 14  1  0  0  0  0
 14 17  2  0  0  0  0
 15 26  1  6  0  0  0
 15 19  1  0  0  0  0
 16 15  1  0  0  0  0
 17 19  1  0  0  0  0
 18 16  1  0  0  0  0
 18 14  1  0  0  0  0
 20 25  2  0  0  0  0
 21 24  2  0  0  0  0
 22 27  1  0  0  0  0
 24 23  1  0  0  0  0
 24 26  1  0  0  0  0
 25 23  1  0  0  0  0
 25 22  1  0  0  0  0
 27 28  1  6  0  0  0
 27 29  1  0  0  0  0
 29 30  1  6  0  0  0
 29 32  1  0  0  0  0
 30 31  1  0  0  0  0
 32 33  1  0  0  0  0
 33 34  1  0  0  0  0
 36 34  1  0  0  0  0
 36 35  1  0  0  0  0
 37 36  2  0  0  0  0
 38 39  1  0  0  0  0
 39 41  1  0  0  0  0
 41 40  1  1  0  0  0
 43 51  2  0  0  0  0
 43 48  1  0  0  0  0
 45 48  1  0  0  0  0
 45 44  2  0  0  0  0
 47 41  1  0  0  0  0
 47 45  1  0  0  0  0
 48 46  1  0  0  0  0
 49 42  1  6  0  0  0
 49 43  1  0  0  0  0
 50 52  1  1  0  0  0
 50 49  1  0  0  0  0
 50 47  1  0  0  0  0
 53 52  1  0  0  0  0
M  END
>  <MODEL>
4

>  <REMARK>
 VINA RESULT:      -6.6      4.347      8.542
  Name = 
  20 active torsions:
  status: ('A' for Active; 'I' for Inactive)
    1  A    between atoms: C_1  and  C_30
    2  A    between atoms: C_2  and  N_37
    3  A    between atoms: N_5  and  C_42
    4  A    between atoms: C_6  and  C_14
    5  A    between atoms: C_6  and  C_22
    6  A    between atoms: C_7  and  C_48
    7  A    between atoms: C_7  and  O_53
    8  A    between atoms: C_8  and  C_17
    9  A    between atoms: O_13  and  C_47
   10  A    between atoms: C_14  and  C_52
   11  A    between atoms: C_17  and  C_42
   12  A    between atoms: C_17  and  O_53
   13  A    between atoms: C_21  and  C_30
   14  A    between atoms: C_22  and  C_27
   15  A    between atoms: C_25  and  C_39
   16  A    between atoms: N_35  and  C_50
   17  A    between atoms: C_36  and  C_52
   18  A    between atoms: C_38  and  C_48
   19  A    between atoms: C_39  and  C_40
   20  A    between atoms: C_40  and  C_50
                            x       y       z     vdW  Elec       q    Type
                         _______ _______ _______ _____ _____    ______ ____

>  <TORSDO>
F 20

$$$$
=
 OpenBabel11042418143D

 53 55  0  0  1  0  0  0  0  0999 V2000
  194.3930  170.5760  143.5200 C   0  0  1  0  0  3  0  0  0  0  0  0
  194.7980  171.7360  142.6380 C   0  0  1  0  0  3  0  0  0  0  0  0
  195.8770  170.8700  143.2600 C   0  0  1  0  0  3  0  0  0  0  0  0
  196.5810  171.6520  144.3600 C   0  0  0  0  0  2  0  0  0  0  0  0
  196.8670  173.0580  143.8730 C   0  0  0  0  0  2  0  0  0  0  0  0
  196.0260  174.0760  144.6310 C   0  0  1  0  0  3  0  0  0  0  0  0
  196.4910  174.1690  146.0730 C   0  0  0  0  0  1  0  0  0  0  0  0
  195.1890  176.4610  144.8320 C   0  0  0  0  0  1  0  0  0  0  0  0
  195.9760  175.4720  143.9800 C   0  0  2  0  0  3  0  0  0  0  0  0
  194.3680  175.4170  142.2510 O   0  0  0  0  0  0  0  0  0  0  0  0
  196.5180  175.7810  141.4140 C   0  0  0  0  0  1  0  0  0  0  0  0
  195.5490  175.5460  142.5280 C   0  0  0  0  0  0  0  0  0  0  0  0
  193.8340  171.1080  144.8390 C   0  0  0  0  0  2  0  0  0  0  0  0
  192.5920  171.9050  144.5990 C   0  0  0  0  0  0  0  0  0  0  0  0
  190.6000  173.6280  143.7980 C   0  0  1  0  0  3  0  0  0  0  0  0
  191.2490  173.8730  145.0230 O   0  0  0  0  0  0  0  0  0  0  0  0
  191.5580  171.3420  143.9580 C   0  0  0  0  0  3  0  0  0  0  0  0
  192.5680  173.3890  144.8910 C   0  0  0  0  0  2  0  0  0  0  0  0
  190.3150  172.1300  143.6500 C   0  0  0  0  0  2  0  0  0  0  0  0
  187.6140  176.4480  140.3220 O   0  0  0  0  0  0  0  0  0  0  0  0
  189.5610  174.9550  141.4480 O   0  0  0  0  0  0  0  0  0  0  0  0
  185.8940  177.2460  141.6540 N   0  0  0  0  0  2  0  0  0  0  0  0
  187.6990  175.8170  142.5760 N   0  0  0  0  0  2  0  0  0  0  0  0
  188.9060  175.0520  142.5230 C   0  0  0  0  0  0  0  0  0  0  0  0
  187.0940  176.4970  141.4680 C   0  0  0  0  0  0  0  0  0  0  0  0
  189.3660  174.4010  143.7100 N   0  0  0  0  0  2  0  0  0  0  0  0
  185.2520  177.3980  142.9580 C   0  0  2  0  0  3  0  0  0  0  0  0
  183.8550  177.9760  142.7940 C   0  0  0  0  0  1  0  0  0  0  0  0
  186.0900  178.2890  143.8770 C   0  0  1  0  0  3  0  0  0  0  0  0
  185.9790  179.7420  143.4390 C   0  0  0  0  0  2  0  0  0  0  0  0
  185.4210  180.5080  144.4650 O   0  0  0  0  0  1  0  0  0  0  0  0
  185.6790  178.1580  145.2100 O   0  0  0  0  0  0  0  0  0  0  0  0
  185.8820  176.8100  145.5190 C   0  0  0  0  0  2  0  0  0  0  0  0
  186.6520  176.6880  146.8230 C   0  0  0  0  0  2  0  0  0  0  0  0
  188.8240  177.1640  145.6960 O   0  0  0  0  0  0  0  0  0  0  0  0
  188.0820  176.3690  146.5590 C   0  0  0  0  0  0  0  0  0  0  0  0
  188.6120  175.3610  147.0960 O   0  0  0  0  0  1  0  0  0  0  0  0
  194.6180  171.3500  141.1830 C   0  0  0  0  0  2  0  0  0  0  0  0
  193.8860  172.4600  140.4450 C   0  0  0  0  0  2  0  0  0  0  0  0
  194.5510  171.5030  138.2070 C   0  0  0  0  0  1  0  0  0  0  0  0
  193.3980  171.9860  139.0810 C   0  0  2  0  0  3  0  0  0  0  0  0
  189.2020  173.3470  136.8040 C   0  0  0  0  0  1  0  0  0  0  0  0
  191.3230  174.6040  136.3960 C   0  0  0  0  0  0  0  0  0  0  0  0
  194.4830  174.4890  138.1800 O   0  0  0  0  0  0  0  0  0  0  0  0
  193.3020  174.2020  137.8440 C   0  0  0  0  0  0  0  0  0  0  0  0
  193.2200  176.2460  136.3870 C   0  0  0  0  0  1  0  0  0  0  0  0
  192.6450  173.0480  138.4030 N   0  0  0  0  0  0  0  0  0  0  0  0
  192.6080  175.0190  136.8880 N   0  0  0  0  0  0  0  0  0  0  0  0
  190.7240  173.2960  136.8590 C   0  0  1  0  0  3  0  0  0  0  0  0
  191.1800  172.9670  138.2880 C   0  0  1  0  0  3  0  0  0  0  0  0
  190.7300  175.2960  135.5150 O   0  0  0  0  0  0  0  0  0  0  0  0
  190.7180  171.6970  138.6650 O   0  0  0  0  0  0  0  0  0  0  0  0
  190.0580  171.9020  139.8790 C   0  0  0  0  0  1  0  0  0  0  0  0
  1 13  1  1  0  0  0
  2 38  1  6  0  0  0
  2  3  1  0  0  0  0
  2  1  1  0  0  0  0
  3  1  1  0  0  0  0
  3  4  1  1  0  0  0
  5  4  1  0  0  0  0
  5  6  1  0  0  0  0
  6  7  1  1  0  0  0
  9  6  1  0  0  0  0
  9  8  1  1  0  0  0
 10 12  2  0  0  0  0
 11 12  1  0  0  0  0
 12  9  1  0  0  0  0
 14 13  1  0  0  0  0
 14 18  1  0  0  0  0
 15 26  1  1  0  0  0
 15 16  1  0  0  0  0
 17 14  2  0  0  0  0
 18 16  1  0  0  0  0
 19 15  1  0  0  0  0
 19 17  1  0  0  0  0
 20 25  2  0  0  0  0
 21 24  2  0  0  0  0
 22 27  1  0  0  0  0
 24 23  1  0  0  0  0
 24 26  1  0  0  0  0
 25 22  1  0  0  0  0
 25 23  1  0  0  0  0
 27 28  1  6  0  0  0
 27 29  1  0  0  0  0
 29 30  1  6  0  0  0
 29 32  1  0  0  0  0
 30 31  1  0  0  0  0
 32 33  1  0  0  0  0
 33 34  1  0  0  0  0
 35 36  2  0  0  0  0
 36 34  1  0  0  0  0
 36 37  1  0  0  0  0
 39 38  1  0  0  0  0
 41 40  1  6  0  0  0
 41 39  1  0  0  0  0
 43 49  1  0  0  0  0
 43 48  1  0  0  0  0
 45 44  2  0  0  0  0
 45 47  1  0  0  0  0
 46 48  1  0  0  0  0
 47 41  1  0  0  0  0
 48 45  1  0  0  0  0
 49 42  1  1  0  0  0
 49 50  1  0  0  0  0
 50 47  1  0  0  0  0
 50 52  1  6  0  0  0
 51 43  2  0  0  0  0
 52 53  1  0  0  0  0
M  END
>  <MODEL>
5

>  <REMARK>
 VINA RESULT:      -6.5      4.146      7.057
  Name = 
  20 active torsions:
  status: ('A' for Active; 'I' for Inactive)
    1  A    between atoms: C_1  and  C_30
    2  A    between atoms: C_2  and  N_37
    3  A    between atoms: N_5  and  C_42
    4  A    between atoms: C_6  and  C_14
    5  A    between atoms: C_6  and  C_22
    6  A    between atoms: C_7  and  C_48
    7  A    between atoms: C_7  and  O_53
    8  A    between atoms: C_8  and  C_17
    9  A    between atoms: O_13  and  C_47
   10  A    between atoms: C_14  and  C_52
   11  A    between atoms: C_17  and  C_42
   12  A    between atoms: C_17  and  O_53
   13  A    between atoms: C_21  and  C_30
   14  A    between atoms: C_22  and  C_27
   15  A    between atoms: C_25  and  C_39
   16  A    between atoms: N_35  and  C_50
   17  A    between atoms: C_36  and  C_52
   18  A    between atoms: C_38  and  C_48
   19  A    between atoms: C_39  and  C_40
   20  A    between atoms: C_40  and  C_50
                            x       y       z     vdW  Elec       q    Type
                         _______ _______ _______ _____ _____    ______ ____

>  <TORSDO>
F 20

$$$$
=
 OpenBabel11042418143D

 53 55  0  0  1  0  0  0  0  0999 V2000
  196.3870  174.9230  140.9830 C   0  0  1  0  0  3  0  0  0  0  0  0
  197.6810  174.6670  140.2430 C   0  0  1  0  0  3  0  0  0  0  0  0
  197.0280  173.5280  141.0030 C   0  0  1  0  0  3  0  0  0  0  0  0
  197.8480  173.2130  142.2450 C   0  0  0  0  0  2  0  0  0  0  0  0
  197.9250  171.7100  142.4290 C   0  0  0  0  0  2  0  0  0  0  0  0
  197.3450  171.2980  143.7760 C   0  0  1  0  0  3  0  0  0  0  0  0
  196.7560  172.5050  144.4830 C   0  0  0  0  0  1  0  0  0  0  0  0
  195.0750  170.5570  142.9220 C   0  0  0  0  0  1  0  0  0  0  0  0
  196.3190  170.1500  143.7030 C   0  0  2  0  0  3  0  0  0  0  0  0
  196.8250  169.2220  145.8150 O   0  0  0  0  0  0  0  0  0  0  0  0
  194.5410  169.0900  145.3420 C   0  0  0  0  0  1  0  0  0  0  0  0
  195.9470  169.4680  145.0030 C   0  0  0  0  0  0  0  0  0  0  0  0
  196.6620  175.7940  142.2070 C   0  0  0  0  0  2  0  0  0  0  0  0
  195.3860  176.1370  142.9060 C   0  0  0  0  0  0  0  0  0  0  0  0
  192.9210  176.2530  144.1280 C   0  0  1  0  0  3  0  0  0  0  0  0
  193.0470  176.7530  142.8170 O   0  0  0  0  0  0  0  0  0  0  0  0
  195.4000  176.3920  144.2210 C   0  0  0  0  0  3  0  0  0  0  0  0
  194.0610  175.9990  142.1880 C   0  0  0  0  0  2  0  0  0  0  0  0
  194.1270  176.6860  144.9670 C   0  0  0  0  0  2  0  0  0  0  0  0
  188.8600  174.5850  147.2380 O   0  0  0  0  0  0  0  0  0  0  0  0
  191.1290  174.6980  145.7790 O   0  0  0  0  0  0  0  0  0  0  0  0
  187.4630  176.4350  147.2920 N   0  0  0  0  0  2  0  0  0  0  0  0
  189.6000  176.4520  146.0330 N   0  0  0  0  0  2  0  0  0  0  0  0
  190.8170  175.8940  145.5300 C   0  0  0  0  0  0  0  0  0  0  0  0
  188.6560  175.7720  146.8700 C   0  0  0  0  0  0  0  0  0  0  0  0
  191.6760  176.7140  144.7320 N   0  0  0  0  0  2  0  0  0  0  0  0
  187.1230  177.7910  146.8710 C   0  0  2  0  0  3  0  0  0  0  0  0
  186.4920  178.5580  148.0230 C   0  0  0  0  0  1  0  0  0  0  0  0
  186.1770  177.7670  145.6700 C   0  0  1  0  0  3  0  0  0  0  0  0
  185.2340  178.9610  145.7230 C   0  0  0  0  0  2  0  0  0  0  0  0
  183.9160  178.5200  145.8630 O   0  0  0  0  0  1  0  0  0  0  0  0
  186.8960  177.7780  144.4670 O   0  0  0  0  0  0  0  0  0  0  0  0
  186.2230  176.8770  143.6360 C   0  0  0  0  0  2  0  0  0  0  0  0
  187.1920  176.2690  142.6380 C   0  0  0  0  0  2  0  0  0  0  0  0
  187.0400  176.7430  140.1950 O   0  0  0  0  0  0  0  0  0  0  0  0
  187.3770  177.1750  141.4700 C   0  0  0  0  0  0  0  0  0  0  0  0
  187.8660  178.3230  141.6350 O   0  0  0  0  0  1  0  0  0  0  0  0
  197.3930  174.5160  138.7620 C   0  0  0  0  0  2  0  0  0  0  0  0
  196.0170  175.0830  138.4470 C   0  0  0  0  0  2  0  0  0  0  0  0
  196.0160  173.7350  136.3140 C   0  0  0  0  0  1  0  0  0  0  0  0
  195.2240  174.1360  137.5550 C   0  0  2  0  0  3  0  0  0  0  0  0
  190.2920  173.6440  137.2680 C   0  0  0  0  0  1  0  0  0  0  0  0
  191.4810  175.2990  135.8210 C   0  0  0  0  0  0  0  0  0  0  0  0
  194.8920  176.5290  136.0020 O   0  0  0  0  0  0  0  0  0  0  0  0
  193.8630  175.8480  136.2630 C   0  0  0  0  0  0  0  0  0  0  0  0
  192.4930  177.3490  134.7880 C   0  0  0  0  0  1  0  0  0  0  0  0
  193.9380  174.7360  137.1770 N   0  0  0  0  0  0  0  0  0  0  0  0
  192.6110  176.1680  135.6370 N   0  0  0  0  0  0  0  0  0  0  0  0
  191.6240  174.0370  136.6400 C   0  0  1  0  0  3  0  0  0  0  0  0
  192.6800  174.2220  137.7390 C   0  0  1  0  0  3  0  0  0  0  0  0
  190.3880  175.5520  135.2300 O   0  0  0  0  0  0  0  0  0  0  0  0
  192.8920  173.0120  138.4170 O   0  0  0  0  0  0  0  0  0  0  0  0
  192.6880  173.3150  139.7650 C   0  0  0  0  0  1  0  0  0  0  0  0
  1  3  1  0  0  0  0
  1 13  1  1  0  0  0
  2 38  1  6  0  0  0
  2  1  1  0  0  0  0
  2  3  1  0  0  0  0
  3  4  1  1  0  0  0
  4  5  1  0  0  0  0
  5  6  1  0  0  0  0
  6  7  1  6  0  0  0
  9  8  1  1  0  0  0
  9  6  1  0  0  0  0
  9 12  1  0  0  0  0
 12 11  1  0  0  0  0
 12 10  2  0  0  0  0
 13 14  1  0  0  0  0
 14 17  2  0  0  0  0
 15 26  1  1  0  0  0
 15 19  1  0  0  0  0
 16 15  1  0  0  0  0
 17 19  1  0  0  0  0
 18 16  1  0  0  0  0
 18 14  1  0  0  0  0
 23 25  1  0  0  0  0
 24 21  2  0  0  0  0
 24 23  1  0  0  0  0
 25 20  2  0  0  0  0
 25 22  1  0  0  0  0
 26 24  1  0  0  0  0
 27 22  1  0  0  0  0
 27 28  1  1  0  0  0
 29 30  1  6  0  0  0
 29 27  1  0  0  0  0
 30 31  1  0  0  0  0
 32 29  1  0  0  0  0
 33 32  1  0  0  0  0
 34 33  1  0  0  0  0
 35 36  2  0  0  0  0
 36 37  1  0  0  0  0
 36 34  1  0  0  0  0
 39 38  1  0  0  0  0
 41 40  1  6  0  0  0
 41 39  1  0  0  0  0
 43 49  1  0  0  0  0
 44 45  2  0  0  0  0
 45 47  1  0  0  0  0
 46 48  1  0  0  0  0
 47 41  1  0  0  0  0
 47 50  1  0  0  0  0
 48 43  1  0  0  0  0
 48 45  1  0  0  0  0
 49 42  1  1  0  0  0
 49 50  1  0  0  0  0
 50 52  1  6  0  0  0
 51 43  2  0  0  0  0
 52 53  1  0  0  0  0
M  END
>  <MODEL>
6

>  <REMARK>
 VINA RESULT:      -6.2      5.188      8.005
  Name = 
  20 active torsions:
  status: ('A' for Active; 'I' for Inactive)
    1  A    between atoms: C_1  and  C_30
    2  A    between atoms: C_2  and  N_37
    3  A    between atoms: N_5  and  C_42
    4  A    between atoms: C_6  and  C_14
    5  A    between atoms: C_6  and  C_22
    6  A    between atoms: C_7  and  C_48
    7  A    between atoms: C_7  and  O_53
    8  A    between atoms: C_8  and  C_17
    9  A    between atoms: O_13  and  C_47
   10  A    between atoms: C_14  and  C_52
   11  A    between atoms: C_17  and  C_42
   12  A    between atoms: C_17  and  O_53
   13  A    between atoms: C_21  and  C_30
   14  A    between atoms: C_22  and  C_27
   15  A    between atoms: C_25  and  C_39
   16  A    between atoms: N_35  and  C_50
   17  A    between atoms: C_36  and  C_52
   18  A    between atoms: C_38  and  C_48
   19  A    between atoms: C_39  and  C_40
   20  A    between atoms: C_40  and  C_50
                            x       y       z     vdW  Elec       q    Type
                         _______ _______ _______ _____ _____    ______ ____

>  <TORSDO>
F 20

$$$$
=
 OpenBabel11042418143D

 53 55  0  0  1  0  0  0  0  0999 V2000
  196.5330  175.5200  141.2690 C   0  0  1  0  0  3  0  0  0  0  0  0
  197.8960  175.2400  140.6760 C   0  0  1  0  0  3  0  0  0  0  0  0
  196.9500  174.0810  140.9320 C   0  0  1  0  0  3  0  0  0  0  0  0
  197.4590  173.2650  142.1110 C   0  0  0  0  0  2  0  0  0  0  0  0
  196.4430  172.1950  142.4560 C   0  0  0  0  0  2  0  0  0  0  0  0
  195.3710  172.7460  143.3880 C   0  0  1  0  0  3  0  0  0  0  0  0
  193.9960  172.3020  142.9240 C   0  0  0  0  0  1  0  0  0  0  0  0
  196.7310  173.2140  145.4750 C   0  0  0  0  0  1  0  0  0  0  0  0
  195.5850  172.4080  144.8760 C   0  0  2  0  0  3  0  0  0  0  0  0
  194.8370  170.1680  144.8630 O   0  0  0  0  0  0  0  0  0  0  0  0
  196.8340  170.4000  146.0530 C   0  0  0  0  0  1  0  0  0  0  0  0
  195.6990  170.9420  145.2450 C   0  0  0  0  0  0  0  0  0  0  0  0
  196.6870  175.9270  142.7330 C   0  0  0  0  0  2  0  0  0  0  0  0
  195.3550  176.2520  143.3300 C   0  0  0  0  0  0  0  0  0  0  0  0
  192.8000  176.3350  144.3540 C   0  0  1  0  0  3  0  0  0  0  0  0
  193.0240  176.8430  143.0590 O   0  0  0  0  0  0  0  0  0  0  0  0
  195.2620  176.5010  144.6440 C   0  0  0  0  0  3  0  0  0  0  0  0
  194.0930  176.1040  142.5090 C   0  0  0  0  0  2  0  0  0  0  0  0
  193.9310  176.7770  145.2880 C   0  0  0  0  0  2  0  0  0  0  0  0
  188.6220  174.6790  147.3120 O   0  0  0  0  0  0  0  0  0  0  0  0
  190.9680  174.8010  145.9820 O   0  0  0  0  0  0  0  0  0  0  0  0
  187.1620  176.4750  147.1860 N   0  0  0  0  0  2  0  0  0  0  0  0
  189.3670  176.5080  146.0520 N   0  0  0  0  0  2  0  0  0  0  0  0
  190.6310  175.9710  145.6500 C   0  0  0  0  0  0  0  0  0  0  0  0
  188.3990  175.8370  146.8690 C   0  0  0  0  0  0  0  0  0  0  0  0
  191.5070  176.7790  144.8600 N   0  0  0  0  0  2  0  0  0  0  0  0
  186.8000  177.7940  146.6730 C   0  0  2  0  0  3  0  0  0  0  0  0
  186.7340  178.8010  147.8100 C   0  0  0  0  0  1  0  0  0  0  0  0
  185.4620  177.7420  145.9330 C   0  0  1  0  0  3  0  0  0  0  0  0
  184.3490  178.2680  146.8270 C   0  0  0  0  0  2  0  0  0  0  0  0
  183.4560  179.0340  146.0750 O   0  0  0  0  0  1  0  0  0  0  0  0
  185.5180  178.4890  144.7480 O   0  0  0  0  0  0  0  0  0  0  0  0
  185.5300  177.5380  143.7230 C   0  0  0  0  0  2  0  0  0  0  0  0
  186.7910  177.6900  142.8900 C   0  0  0  0  0  2  0  0  0  0  0  0
  187.4370  177.3990  140.5000 O   0  0  0  0  0  0  0  0  0  0  0  0
  186.4610  177.7020  141.4380 C   0  0  0  0  0  0  0  0  0  0  0  0
  185.3020  178.0170  141.0590 O   0  0  0  0  0  1  0  0  0  0  0  0
  197.8840  175.5840  139.1990 C   0  0  0  0  0  2  0  0  0  0  0  0
  196.6300  175.0180  138.5510 C   0  0  0  0  0  2  0  0  0  0  0  0
  197.0670  175.6740  136.1540 C   0  0  0  0  0  1  0  0  0  0  0  0
  196.9170  174.5200  137.1400 C   0  0  2  0  0  3  0  0  0  0  0  0
  192.0860  173.3780  137.0730 C   0  0  0  0  0  1  0  0  0  0  0  0
  193.8050  171.6080  136.6780 C   0  0  0  0  0  0  0  0  0  0  0  0
  197.3600  171.9180  136.0040 O   0  0  0  0  0  0  0  0  0  0  0  0
  196.1750  172.2450  136.2850 C   0  0  0  0  0  0  0  0  0  0  0  0
  195.3960  169.9300  135.7040 C   0  0  0  0  0  1  0  0  0  0  0  0
  195.8680  173.5930  136.6950 N   0  0  0  0  0  0  0  0  0  0  0  0
  195.1220  171.2710  136.2130 N   0  0  0  0  0  0  0  0  0  0  0  0
  193.5420  172.9720  137.2720 C   0  0  1  0  0  3  0  0  0  0  0  0
  194.4640  174.0260  136.6420 C   0  0  1  0  0  3  0  0  0  0  0  0
  192.8870  170.7350  136.6610 O   0  0  0  0  0  0  0  0  0  0  0  0
  194.2960  175.2630  137.2810 O   0  0  0  0  0  0  0  0  0  0  0  0
  193.5700  176.0400  136.3760 C   0  0  0  0  0  1  0  0  0  0  0  0
  1 13  1  1  0  0  0
  2 38  1  6  0  0  0
  2  3  1  0  0  0  0
  2  1  1  0  0  0  0
  3  1  1  0  0  0  0
  3  4  1  1  0  0  0
  4  5  1  0  0  0  0
  5  6  1  0  0  0  0
  6  7  1  6  0  0  0
  6  9  1  0  0  0  0
  9 12  1  0  0  0  0
  9  8  1  6  0  0  0
 10 12  2  0  0  0  0
 12 11  1  0  0  0  0
 13 14  1  0  0  0  0
 14 17  2  0  0  0  0
 15 26  1  1  0  0  0
 15 19  1  0  0  0  0
 16 15  1  0  0  0  0
 17 19  1  0  0  0  0
 18 16  1  0  0  0  0
 18 14  1  0  0  0  0
 23 25  1  0  0  0  0
 24 21  2  0  0  0  0
 24 23  1  0  0  0  0
 25 22  1  0  0  0  0
 25 20  2  0  0  0  0
 26 24  1  0  0  0  0
 27 22  1  0  0  0  0
 27 28  1  1  0  0  0
 29 27  1  0  0  0  0
 29 30  1  1  0  0  0
 31 30  1  0  0  0  0
 32 29  1  0  0  0  0
 33 32  1  0  0  0  0
 34 33  1  0  0  0  0
 35 36  2  0  0  0  0
 36 34  1  0  0  0  0
 37 36  1  0  0  0  0
 39 38  1  0  0  0  0
 41 40  1  6  0  0  0
 41 39  1  0  0  0  0
 43 49  1  0  0  0  0
 44 45  2  0  0  0  0
 45 47  1  0  0  0  0
 46 48  1  0  0  0  0
 47 41  1  0  0  0  0
 48 45  1  0  0  0  0
 48 43  1  0  0  0  0
 49 42  1  6  0  0  0
 50 47  1  0  0  0  0
 50 49  1  0  0  0  0
 50 52  1  1  0  0  0
 51 43  2  0  0  0  0
 53 52  1  0  0  0  0
M  END
>  <MODEL>
7

>  <REMARK>
 VINA RESULT:      -6.1      4.932      7.980
  Name = 
  20 active torsions:
  status: ('A' for Active; 'I' for Inactive)
    1  A    between atoms: C_1  and  C_30
    2  A    between atoms: C_2  and  N_37
    3  A    between atoms: N_5  and  C_42
    4  A    between atoms: C_6  and  C_14
    5  A    between atoms: C_6  and  C_22
    6  A    between atoms: C_7  and  C_48
    7  A    between atoms: C_7  and  O_53
    8  A    between atoms: C_8  and  C_17
    9  A    between atoms: O_13  and  C_47
   10  A    between atoms: C_14  and  C_52
   11  A    between atoms: C_17  and  C_42
   12  A    between atoms: C_17  and  O_53
   13  A    between atoms: C_21  and  C_30
   14  A    between atoms: C_22  and  C_27
   15  A    between atoms: C_25  and  C_39
   16  A    between atoms: N_35  and  C_50
   17  A    between atoms: C_36  and  C_52
   18  A    between atoms: C_38  and  C_48
   19  A    between atoms: C_39  and  C_40
   20  A    between atoms: C_40  and  C_50
                            x       y       z     vdW  Elec       q    Type
                         _______ _______ _______ _____ _____    ______ ____

>  <TORSDO>
F 20

$$$$
=
 OpenBabel11042418143D

 53 55  0  0  1  0  0  0  0  0999 V2000
  195.3820  171.8410  142.9280 C   0  0  1  0  0  3  0  0  0  0  0  0
  194.9510  171.6500  141.4910 C   0  0  1  0  0  3  0  0  0  0  0  0
  196.3000  171.1150  141.9340 C   0  0  1  0  0  3  0  0  0  0  0  0
  197.4050  171.9730  141.3340 C   0  0  0  0  0  2  0  0  0  0  0  0
  197.7780  171.4290  139.9700 C   0  0  0  0  0  2  0  0  0  0  0  0
  197.7910  172.5410  138.9290 C   0  0  1  0  0  3  0  0  0  0  0  0
  197.7700  171.9490  137.5310 C   0  0  0  0  0  1  0  0  0  0  0  0
  195.6350  173.4850  137.9870 C   0  0  0  0  0  1  0  0  0  0  0  0
  196.6720  173.5860  139.1000 C   0  0  2  0  0  3  0  0  0  0  0  0
  197.7470  175.5890  138.4610 O   0  0  0  0  0  0  0  0  0  0  0  0
  196.7300  175.7890  140.5550 C   0  0  0  0  0  1  0  0  0  0  0  0
  197.0930  175.0240  139.3230 C   0  0  0  0  0  0  0  0  0  0  0  0
  195.7050  173.3130  143.1740 C   0  0  0  0  0  2  0  0  0  0  0  0
  194.4790  174.0550  143.6010 C   0  0  0  0  0  0  0  0  0  0  0  0
  192.5580  175.8250  144.4710 C   0  0  1  0  0  3  0  0  0  0  0  0
  192.9970  174.8210  145.3540 O   0  0  0  0  0  0  0  0  0  0  0  0
  193.5850  174.4420  142.6810 C   0  0  0  0  0  3  0  0  0  0  0  0
  194.3420  174.5460  145.0260 C   0  0  0  0  0  2  0  0  0  0  0  0
  192.3690  175.2380  143.0690 C   0  0  0  0  0  2  0  0  0  0  0  0
  188.3200  174.8070  147.6250 O   0  0  0  0  0  0  0  0  0  0  0  0
  190.6380  174.6060  146.2560 O   0  0  0  0  0  0  0  0  0  0  0  0
  187.0150  176.7040  147.3590 N   0  0  0  0  0  2  0  0  0  0  0  0
  189.1900  176.4450  146.1950 N   0  0  0  0  0  2  0  0  0  0  0  0
  190.3940  175.7670  145.8250 C   0  0  0  0  0  0  0  0  0  0  0  0
  188.1870  175.9360  147.0830 C   0  0  0  0  0  0  0  0  0  0  0  0
  191.3180  176.4230  144.9530 N   0  0  0  0  0  2  0  0  0  0  0  0
  186.7560  178.0000  146.7350 C   0  0  2  0  0  3  0  0  0  0  0  0
  186.1190  178.9490  147.7370 C   0  0  0  0  0  1  0  0  0  0  0  0
  185.8560  177.8430  145.5080 C   0  0  1  0  0  3  0  0  0  0  0  0
  185.2320  179.1820  145.1440 C   0  0  0  0  0  2  0  0  0  0  0  0
  183.8390  179.0900  145.2040 O   0  0  0  0  0  1  0  0  0  0  0  0
  186.5800  177.3400  144.4190 O   0  0  0  0  0  0  0  0  0  0  0  0
  186.0020  177.9380  143.2940 C   0  0  0  0  0  2  0  0  0  0  0  0
  185.9140  176.9310  142.1600 C   0  0  0  0  0  2  0  0  0  0  0  0
  185.7020  177.5540  139.7550 O   0  0  0  0  0  0  0  0  0  0  0  0
  186.4760  177.5060  140.9060 C   0  0  0  0  0  0  0  0  0  0  0  0
  187.6640  177.9220  140.8820 O   0  0  0  0  0  1  0  0  0  0  0  0
  193.9570  170.5080  141.4100 C   0  0  0  0  0  2  0  0  0  0  0  0
  192.7070  170.8580  142.2020 C   0  0  0  0  0  2  0  0  0  0  0  0
  191.7430  169.4910  140.3140 C   0  0  0  0  0  1  0  0  0  0  0  0
  191.4460  170.4820  141.4350 C   0  0  2  0  0  3  0  0  0  0  0  0
  187.5450  173.5480  141.6140 C   0  0  0  0  0  1  0  0  0  0  0  0
  188.9550  173.4210  139.5550 C   0  0  0  0  0  0  0  0  0  0  0  0
  192.2050  171.8840  139.0450 O   0  0  0  0  0  0  0  0  0  0  0  0
  191.1330  172.2260  139.6140 C   0  0  0  0  0  0  0  0  0  0  0  0
  190.6220  173.7890  137.7160 C   0  0  0  0  0  1  0  0  0  0  0  0
  190.7870  171.6820  140.9030 N   0  0  0  0  0  0  0  0  0  0  0  0
  190.2410  173.1520  138.9730 N   0  0  0  0  0  0  0  0  0  0  0  0
  188.5330  172.7040  140.8170 C   0  0  1  0  0  3  0  0  0  0  0  0
  189.7540  172.3750  141.6880 C   0  0  1  0  0  3  0  0  0  0  0  0
  188.1470  174.1990  138.9660 O   0  0  0  0  0  0  0  0  0  0  0  0
  189.3670  171.6080  142.7960 O   0  0  0  0  0  0  0  0  0  0  0  0
  189.7840  172.3450  143.9070 C   0  0  0  0  0  1  0  0  0  0  0  0
  1 13  1  6  0  0  0
  2 38  1  1  0  0  0
  2  3  1  0  0  0  0
  2  1  1  0  0  0  0
  3  4  1  6  0  0  0
  3  1  1  0  0  0  0
  5  4  1  0  0  0  0
  6  7  1  6  0  0  0
  6  9  1  0  0  0  0
  6  5  1  0  0  0  0
  9  8  1  6  0  0  0
  9 12  1  0  0  0  0
 10 12  2  0  0  0  0
 12 11  1  0  0  0  0
 13 14  1  0  0  0  0
 14 18  1  0  0  0  0
 15 26  1  1  0  0  0
 15 16  1  0  0  0  0
 17 19  1  0  0  0  0
 17 14  2  0  0  0  0
 18 16  1  0  0  0  0
 19 15  1  0  0  0  0
 23 25  1  0  0  0  0
 24 23  1  0  0  0  0
 24 21  2  0  0  0  0
 25 22  1  0  0  0  0
 25 20  2  0  0  0  0
 26 24  1  0  0  0  0
 27 22  1  0  0  0  0
 27 28  1  1  0  0  0
 29 30  1  6  0  0  0
 29 27  1  0  0  0  0
 30 31  1  0  0  0  0
 32 29  1  0  0  0  0
 33 32  1  0  0  0  0
 34 33  1  0  0  0  0
 35 36  2  0  0  0  0
 36 34  1  0  0  0  0
 37 36  1  0  0  0  0
 38 39  1  0  0  0  0
 41 40  1  6  0  0  0
 41 39  1  0  0  0  0
 43 49  1  0  0  0  0
 44 45  2  0  0  0  0
 45 47  1  0  0  0  0
 46 48  1  0  0  0  0
 47 41  1  0  0  0  0
 47 50  1  0  0  0  0
 48 43  1  0  0  0  0
 48 45  1  0  0  0  0
 49 42  1  1  0  0  0
 49 50  1  0  0  0  0
 50 52  1  1  0  0  0
 51 43  2  0  0  0  0
 52 53  1  0  0  0  0
M  END
>  <MODEL>
8

>  <REMARK>
 VINA RESULT:      -6.1      4.582      7.527
  Name = 
  20 active torsions:
  status: ('A' for Active; 'I' for Inactive)
    1  A    between atoms: C_1  and  C_30
    2  A    between atoms: C_2  and  N_37
    3  A    between atoms: N_5  and  C_42
    4  A    between atoms: C_6  and  C_14
    5  A    between atoms: C_6  and  C_22
    6  A    between atoms: C_7  and  C_48
    7  A    between atoms: C_7  and  O_53
    8  A    between atoms: C_8  and  C_17
    9  A    between atoms: O_13  and  C_47
   10  A    between atoms: C_14  and  C_52
   11  A    between atoms: C_17  and  C_42
   12  A    between atoms: C_17  and  O_53
   13  A    between atoms: C_21  and  C_30
   14  A    between atoms: C_22  and  C_27
   15  A    between atoms: C_25  and  C_39
   16  A    between atoms: N_35  and  C_50
   17  A    between atoms: C_36  and  C_52
   18  A    between atoms: C_38  and  C_48
   19  A    between atoms: C_39  and  C_40
   20  A    between atoms: C_40  and  C_50
                            x       y       z     vdW  Elec       q    Type
                         _______ _______ _______ _____ _____    ______ ____

>  <TORSDO>
F 20

$$$$
=
 OpenBabel11042418143D

 53 55  0  0  1  0  0  0  0  0999 V2000
  195.5460  174.3810  144.4330 C   0  0  1  0  0  3  0  0  0  0  0  0
  196.9700  174.8050  144.1510 C   0  0  1  0  0  3  0  0  0  0  0  0
  196.6770  173.3430  144.4290 C   0  0  1  0  0  3  0  0  0  0  0  0
  197.2160  172.9720  145.8030 C   0  0  0  0  0  2  0  0  0  0  0  0
  196.7360  171.5830  146.1730 C   0  0  0  0  0  2  0  0  0  0  0  0
  196.0830  170.9000  144.9780 C   0  0  1  0  0  3  0  0  0  0  0  0
  196.8210  169.6170  144.6410 C   0  0  0  0  0  1  0  0  0  0  0  0
  194.2920  169.1890  145.5190 C   0  0  0  0  0  1  0  0  0  0  0  0
  194.5730  170.6390  145.1410 C   0  0  2  0  0  3  0  0  0  0  0  0
  192.5740  171.5690  144.2950 O   0  0  0  0  0  0  0  0  0  0  0  0
  194.0500  170.9960  142.5770 C   0  0  0  0  0  1  0  0  0  0  0  0
  193.6640  171.0940  144.0180 C   0  0  0  0  0  0  0  0  0  0  0  0
  195.1230  174.8940  145.8080 C   0  0  0  0  0  2  0  0  0  0  0  0
  193.6960  175.3400  145.7860 C   0  0  0  0  0  0  0  0  0  0  0  0
  191.1280  176.2050  146.2710 C   0  0  1  0  0  3  0  0  0  0  0  0
  191.3390  174.8380  146.0090 O   0  0  0  0  0  0  0  0  0  0  0  0
  193.3890  176.5510  145.3020 C   0  0  0  0  0  3  0  0  0  0  0  0
  192.6300  174.5250  146.4850 C   0  0  0  0  0  2  0  0  0  0  0  0
  191.9720  177.0540  145.3160 C   0  0  0  0  0  2  0  0  0  0  0  0
  187.3330  179.3980  148.3570 O   0  0  0  0  0  0  0  0  0  0  0  0
  189.6680  178.1460  147.8400 O   0  0  0  0  0  0  0  0  0  0  0  0
  185.4270  178.7440  147.2110 N   0  0  0  0  0  2  0  0  0  0  0  0
  187.6340  177.7020  146.7700 N   0  0  0  0  0  2  0  0  0  0  0  0
  189.0360  177.4960  146.9620 C   0  0  0  0  0  0  0  0  0  0  0  0
  186.8250  178.6480  147.4830 C   0  0  0  0  0  0  0  0  0  0  0  0
  189.7130  176.5360  146.1470 N   0  0  0  0  0  2  0  0  0  0  0  0
  184.7470  177.8790  146.2510 C   0  0  2  0  0  3  0  0  0  0  0  0
  185.2050  176.4390  146.4220 C   0  0  0  0  0  1  0  0  0  0  0  0
  185.0020  178.3490  144.8180 C   0  0  1  0  0  3  0  0  0  0  0  0
  185.8330  179.6240  144.8260 C   0  0  0  0  0  2  0  0  0  0  0  0
  185.0110  180.7290  144.5940 O   0  0  0  0  0  1  0  0  0  0  0  0
  185.6540  177.3570  144.0740 O   0  0  0  0  0  0  0  0  0  0  0  0
  186.6850  178.0250  143.4070 C   0  0  0  0  0  2  0  0  0  0  0  0
  187.8740  177.0960  143.2310 C   0  0  0  0  0  2  0  0  0  0  0  0
  187.6220  176.5480  140.8110 O   0  0  0  0  0  0  0  0  0  0  0  0
  187.6190  176.1230  142.1330 C   0  0  0  0  0  0  0  0  0  0  0  0
  187.3720  174.9190  142.4040 O   0  0  0  0  0  1  0  0  0  0  0  0
  197.1490  175.0080  142.6590 C   0  0  0  0  0  2  0  0  0  0  0  0
  196.0580  174.2640  141.9050 C   0  0  0  0  0  2  0  0  0  0  0  0
  195.0630  176.5040  141.3070 C   0  0  0  0  0  1  0  0  0  0  0  0
  195.4700  175.1260  140.7940 C   0  0  2  0  0  3  0  0  0  0  0  0
  193.1530  173.8590  136.5910 C   0  0  0  0  0  1  0  0  0  0  0  0
  191.8920  173.9550  138.7460 C   0  0  0  0  0  0  0  0  0  0  0  0
  193.1160  174.2010  142.1560 O   0  0  0  0  0  0  0  0  0  0  0  0
  193.1210  174.1640  140.8950 C   0  0  0  0  0  0  0  0  0  0  0  0
  190.7120  173.4580  140.9040 C   0  0  0  0  0  1  0  0  0  0  0  0
  194.3290  174.4510  140.1630 N   0  0  0  0  0  0  0  0  0  0  0  0
  191.9170  173.8480  140.1790 N   0  0  0  0  0  0  0  0  0  0  0  0
  193.1190  174.4310  138.0030 C   0  0  1  0  0  3  0  0  0  0  0  0
  194.3970  174.0320  138.7550 C   0  0  1  0  0  3  0  0  0  0  0  0
  190.8170  173.7250  138.1150 O   0  0  0  0  0  0  0  0  0  0  0  0
  195.5220  174.5790  138.1220 O   0  0  0  0  0  0  0  0  0  0  0  0
  196.5200  173.6120  138.2660 C   0  0  0  0  0  1  0  0  0  0  0  0
  1 13  1  1  0  0  0
  2 38  1  6  0  0  0
  2  3  1  0  0  0  0
  2  1  1  0  0  0  0
  3  1  1  0  0  0  0
  3  4  1  1  0  0  0
  4  5  1  0  0  0  0
  6  7  1  1  0  0  0
  6  9  1  0  0  0  0
  6  5  1  0  0  0  0
  9  8  1  6  0  0  0
 11 12  1  0  0  0  0
 12 10  2  0  0  0  0
 12  9  1  0  0  0  0
 14 13  1  0  0  0  0
 14 18  1  0  0  0  0
 15 26  1  6  0  0  0
 16 15  1  0  0  0  0
 16 18  1  0  0  0  0
 17 19  1  0  0  0  0
 17 14  2  0  0  0  0
 19 15  1  0  0  0  0
 22 25  1  0  0  0  0
 23 24  1  0  0  0  0
 23 25  1  0  0  0  0
 24 21  2  0  0  0  0
 25 20  2  0  0  0  0
 26 24  1  0  0  0  0
 27 28  1  6  0  0  0
 27 22  1  0  0  0  0
 29 30  1  1  0  0  0
 29 27  1  0  0  0  0
 31 30  1  0  0  0  0
 32 29  1  0  0  0  0
 33 32  1  0  0  0  0
 34 33  1  0  0  0  0
 35 36  2  0  0  0  0
 36 37  1  0  0  0  0
 36 34  1  0  0  0  0
 39 38  1  0  0  0  0
 41 40  1  1  0  0  0
 41 39  1  0  0  0  0
 43 48  1  0  0  0  0
 45 44  2  0  0  0  0
 47 41  1  0  0  0  0
 47 45  1  0  0  0  0
 48 45  1  0  0  0  0
 48 46  1  0  0  0  0
 49 42  1  6  0  0  0
 49 43  1  0  0  0  0
 49 50  1  0  0  0  0
 50 52  1  6  0  0  0
 50 47  1  0  0  0  0
 51 43  2  0  0  0  0
 52 53  1  0  0  0  0
M  END
>  <MODEL>
9

>  <REMARK>
 VINA RESULT:      -6.1      4.684      7.089
  Name = 
  20 active torsions:
  status: ('A' for Active; 'I' for Inactive)
    1  A    between atoms: C_1  and  C_30
    2  A    between atoms: C_2  and  N_37
    3  A    between atoms: N_5  and  C_42
    4  A    between atoms: C_6  and  C_14
    5  A    between atoms: C_6  and  C_22
    6  A    between atoms: C_7  and  C_48
    7  A    between atoms: C_7  and  O_53
    8  A    between atoms: C_8  and  C_17
    9  A    between atoms: O_13  and  C_47
   10  A    between atoms: C_14  and  C_52
   11  A    between atoms: C_17  and  C_42
   12  A    between atoms: C_17  and  O_53
   13  A    between atoms: C_21  and  C_30
   14  A    between atoms: C_22  and  C_27
   15  A    between atoms: C_25  and  C_39
   16  A    between atoms: N_35  and  C_50
   17  A    between atoms: C_36  and  C_52
   18  A    between atoms: C_38  and  C_48
   19  A    between atoms: C_39  and  C_40
   20  A    between atoms: C_40  and  C_50
                            x       y       z     vdW  Elec       q    Type
                         _______ _______ _______ _____ _____    ______ ____

>  <TORSDO>
F 20

$$$$
