=
 OpenBabel11042416063D

 34 37  0  0  1  0  0  0  0  0999 V2000
  188.1590  176.3120  142.4250 N   0  0  0  0  0  0  0  0  0  0  0  0
  189.6500  175.6430  144.3680 C   0  0  1  0  0  3  0  0  0  0  0  0
  189.7170  174.2250  143.7490 C   0  0  1  0  0  3  0  0  0  0  0  0
  189.4950  177.8760  143.5320 O   0  0  0  0  0  0  0  0  0  0  0  0
  188.9590  174.0160  142.4270 C   0  0  2  0  0  3  0  0  0  0  0  0
  189.1080  176.6830  143.4300 C   0  0  0  0  0  0  0  0  0  0  0  0
  187.7360  174.9210  142.3430 C   0  0  0  0  0  2  0  0  0  0  0  0
  191.7130  172.9560  144.5750 N   0  0  0  0  0  0  0  0  0  0  0  0
  191.0990  173.7850  143.6270 N   0  0  0  0  0  0  0  0  0  0  0  0
  193.3250  173.6380  142.9930 C   0  0  1  0  0  3  0  0  0  0  0  0
  193.0550  172.7550  144.1380 N   0  0  0  0  0  0  0  0  0  0  0  0
  191.7550  174.9280  141.6660 O   0  0  0  0  0  0  0  0  0  0  0  0
  192.0260  174.2070  142.6690 C   0  0  0  0  0  0  0  0  0  0  0  0
  194.2510  175.5750  144.4680 C   0  0  0  0  0  0  0  0  0  0  0  0
  196.0750  176.0400  143.4430 N   0  0  0  0  0  0  0  0  0  0  0  0
  194.2970  174.7090  143.3890 C   0  0  0  0  0  0  0  0  0  0  0  0
  196.0240  174.4070  141.5210 C   0  0  0  0  0  1  0  0  0  0  0  0
  195.4820  175.0380  142.7590 C   0  0  0  0  0  0  0  0  0  0  0  0
  193.3420  175.6220  145.3350 O   0  0  0  0  0  0  0  0  0  0  0  0
  195.3350  176.3780  144.4850 N   0  0  0  0  0  2  0  0  0  0  0  0
  197.3410  176.6780  143.1110 C   0  0  0  0  0  1  0  0  0  0  0  0
  187.1880  172.4850  141.9480 O   0  0  0  0  0  1  0  0  0  0  0  0
  188.5300  172.5630  142.3220 C   0  0  0  0  0  2  0  0  0  0  0  0
  189.0750  174.7660  146.5000 O   0  0  0  0  0  0  0  0  0  0  0  0
  188.8800  175.6420  145.6670 C   0  0  0  0  0  0  0  0  0  0  0  0
  187.7660  176.6240  145.8800 C   0  0  1  0  0  3  0  0  0  0  0  0
  187.2220  176.5040  147.2350 C   0  0  1  0  0  3  0  0  0  0  0  0
  188.1430  177.6040  146.9160 N   0  0  0  0  0  2  0  0  0  0  0  0
  185.2280  177.0760  145.8690 C   0  0  0  0  0  1  0  0  0  0  0  0
  185.8050  177.0520  147.2690 C   0  0  0  0  0  2  0  0  0  0  0  0
  187.7140  177.2690  141.4160 C   0  0  0  0  0  2  0  0  0  0  0  0
  186.1750  178.7990  142.6160 C   0  0  0  0  0  1  0  0  0  0  0  0
  185.6050  178.0580  140.3320 C   0  0  0  0  0  1  0  0  0  0  0  0
  186.2560  177.6490  141.6350 C   0  0  0  0  0  3  0  0  0  0  0  0
  1  6  1  0  0  0  0
  2 25  1  1  0  0  0
  3  9  1  6  0  0  0
  3  2  1  0  0  0  0
  5 23  1  1  0  0  0
  5  3  1  0  0  0  0
  6  4  2  0  0  0  0
  6  2  1  0  0  0  0
  7  1  1  0  0  0  0
  7  5  1  0  0  0  0
  9  8  1  0  0  0  0
 10 16  1  1  0  0  0
 10 11  1  0  0  0  0
 11  8  2  0  0  0  0
 12 13  2  0  0  0  0
 13 10  1  0  0  0  0
 13  9  1  0  0  0  0
 14 20  1  0  0  0  0
 14 19  2  0  0  0  0
 15 20  1  0  0  0  0
 16 14  1  0  0  0  0
 17 18  1  0  0  0  0
 18 16  2  0  0  0  0
 18 15  1  0  0  0  0
 21 15  1  0  0  0  0
 22 23  1  0  0  0  0
 25 24  2  0  0  0  0
 26 25  1  1  0  0  0
 26 28  1  0  0  0  0
 26 27  1  0  0  0  0
 27 30  1  6  0  0  0
 28 27  1  0  0  0  0
 29 30  1  0  0  0  0
 31 34  1  0  0  0  0
 31  1  1  0  0  0  0
 33 34  1  0  0  0  0
 34 32  1  0  0  0  0
M  END
>  <MODEL>
1

>  <REMARK>
 VINA RESULT:      -6.9      0.000      0.000
  Name = 
  8 active torsions:
  status: ('A' for Active; 'I' for Inactive)
    1  A    between atoms: C_1  and  C_18
    2  A    between atoms: C_2  and  N_3
    3  A    between atoms: C_2  and  C_28
    4  A    between atoms: C_8  and  C_13
    5  A    between atoms: N_10  and  C_20
    6  A    between atoms: C_14  and  C_18
    7  A    between atoms: C_19  and  C_31
    8  A    between atoms: C_27  and  C_34
                            x       y       z     vdW  Elec       q    Type
                         _______ _______ _______ _____ _____    ______ ____

>  <TORSDO>
F 8

$$$$
=
 OpenBabel11042416063D

 34 37  0  0  1  0  0  0  0  0999 V2000
  192.2240  174.5260  145.0590 N   0  0  0  0  0  0  0  0  0  0  0  0
  190.4640  174.0860  143.2830 C   0  0  1  0  0  3  0  0  0  0  0  0
  189.4910  174.9510  144.1200 C   0  0  1  0  0  3  0  0  0  0  0  0
  192.8130  174.0840  142.8420 O   0  0  0  0  0  0  0  0  0  0  0  0
  190.0560  175.5670  145.4120 C   0  0  2  0  0  3  0  0  0  0  0  0
  191.9010  174.2270  143.6970 C   0  0  0  0  0  0  0  0  0  0  0  0
  191.1380  174.6820  146.0170 C   0  0  0  0  0  2  0  0  0  0  0  0
  189.2470  177.3210  143.3450 N   0  0  0  0  0  0  0  0  0  0  0  0
  188.8700  175.9740  143.2900 N   0  0  0  0  0  0  0  0  0  0  0  0
  187.3800  177.1050  141.9200 C   0  0  1  0  0  3  0  0  0  0  0  0
  188.4190  178.0180  142.4180 N   0  0  0  0  0  0  0  0  0  0  0  0
  187.2290  174.6950  142.1710 O   0  0  0  0  0  0  0  0  0  0  0  0
  187.7650  175.8060  142.4500 C   0  0  0  0  0  0  0  0  0  0  0  0
  185.6170  177.6650  143.7560 C   0  0  0  0  0  0  0  0  0  0  0  0
  183.9290  178.2140  142.5530 N   0  0  0  0  0  0  0  0  0  0  0  0
  186.0360  177.5210  142.4440 C   0  0  0  0  0  0  0  0  0  0  0  0
  184.8280  177.9040  140.2180 C   0  0  0  0  0  1  0  0  0  0  0  0
  184.9270  177.8850  141.7060 C   0  0  0  0  0  0  0  0  0  0  0  0
  186.3160  177.4520  144.7780 O   0  0  0  0  0  0  0  0  0  0  0  0
  184.3350  178.0830  143.8060 N   0  0  0  0  0  2  0  0  0  0  0  0
  182.5910  178.6520  142.1820 C   0  0  0  0  0  1  0  0  0  0  0  0
  188.8800  174.6670  147.2870 O   0  0  0  0  0  1  0  0  0  0  0  0
  188.9270  175.7520  146.4110 C   0  0  0  0  0  2  0  0  0  0  0  0
  190.2980  171.9180  144.2400 O   0  0  0  0  0  0  0  0  0  0  0  0
  190.0490  172.6350  143.2780 C   0  0  0  0  0  0  0  0  0  0  0  0
  189.4650  172.0250  142.0380 C   0  0  1  0  0  3  0  0  0  0  0  0
  189.8140  172.8200  140.8570 C   0  0  1  0  0  3  0  0  0  0  0  0
  190.5420  171.5750  141.1380 N   0  0  0  0  0  2  0  0  0  0  0  0
  188.5530  173.8290  138.9700 C   0  0  0  0  0  1  0  0  0  0  0  0
  188.8090  172.5550  139.7470 C   0  0  0  0  0  2  0  0  0  0  0  0
  193.6000  174.7990  145.4670 C   0  0  0  0  0  2  0  0  0  0  0  0
  194.0910  176.8970  146.6920 C   0  0  0  0  0  1  0  0  0  0  0  0
  195.2000  176.4740  144.5280 C   0  0  0  0  0  1  0  0  0  0  0  0
  193.9250  176.2780  145.3200 C   0  0  0  0  0  3  0  0  0  0  0  0
  1 31  1  0  0  0  0
  1  7  1  0  0  0  0
  2 25  1  1  0  0  0
  2  6  1  0  0  0  0
  2  3  1  0  0  0  0
  3  9  1  6  0  0  0
  3  5  1  0  0  0  0
  4  6  2  0  0  0  0
  5  7  1  0  0  0  0
  5 23  1  1  0  0  0
  6  1  1  0  0  0  0
  9  8  1  0  0  0  0
 10 11  1  0  0  0  0
 10 16  1  1  0  0  0
 10 13  1  0  0  0  0
 11  8  2  0  0  0  0
 12 13  2  0  0  0  0
 13  9  1  0  0  0  0
 14 20  1  0  0  0  0
 14 19  2  0  0  0  0
 15 20  1  0  0  0  0
 16 14  1  0  0  0  0
 17 18  1  0  0  0  0
 18 16  2  0  0  0  0
 18 15  1  0  0  0  0
 21 15  1  0  0  0  0
 23 22  1  0  0  0  0
 25 24  2  0  0  0  0
 26 25  1  1  0  0  0
 27 30  1  6  0  0  0
 27 28  1  0  0  0  0
 27 26  1  0  0  0  0
 28 26  1  0  0  0  0
 29 30  1  0  0  0  0
 33 34  1  0  0  0  0
 34 31  1  0  0  0  0
 34 32  1  0  0  0  0
M  END
>  <MODEL>
2

>  <REMARK>
 VINA RESULT:      -6.9      2.217      7.684
  Name = 
  8 active torsions:
  status: ('A' for Active; 'I' for Inactive)
    1  A    between atoms: C_1  and  C_18
    2  A    between atoms: C_2  and  N_3
    3  A    between atoms: C_2  and  C_28
    4  A    between atoms: C_8  and  C_13
    5  A    between atoms: N_10  and  C_20
    6  A    between atoms: C_14  and  C_18
    7  A    between atoms: C_19  and  C_31
    8  A    between atoms: C_27  and  C_34
                            x       y       z     vdW  Elec       q    Type
                         _______ _______ _______ _____ _____    ______ ____

>  <TORSDO>
F 8

$$$$
=
 OpenBabel11042416063D

 34 37  0  0  1  0  0  0  0  0999 V2000
  188.9510  177.4060  146.1360 N   0  0  0  0  0  0  0  0  0  0  0  0
  187.2870  176.5820  144.4040 C   0  0  1  0  0  3  0  0  0  0  0  0
  188.4520  176.5560  143.3860 C   0  0  1  0  0  3  0  0  0  0  0  0
  187.0490  176.1970  146.7510 O   0  0  0  0  0  0  0  0  0  0  0  0
  189.8370  176.9650  143.9150 C   0  0  2  0  0  3  0  0  0  0  0  0
  187.7390  176.7090  145.8310 C   0  0  0  0  0  0  0  0  0  0  0  0
  189.7180  177.9850  145.0410 C   0  0  0  0  0  2  0  0  0  0  0  0
  188.9740  174.1060  143.3520 N   0  0  0  0  0  0  0  0  0  0  0  0
  188.5170  175.2650  142.7140 N   0  0  0  0  0  0  0  0  0  0  0  0
  188.5910  173.6280  141.0750 C   0  0  1  0  0  3  0  0  0  0  0  0
  188.9140  173.0560  142.3910 N   0  0  0  0  0  0  0  0  0  0  0  0
  187.8150  175.8640  140.5400 O   0  0  0  0  0  0  0  0  0  0  0  0
  188.2760  175.0190  141.3600 C   0  0  0  0  0  0  0  0  0  0  0  0
  191.1200  173.6990  140.4530 C   0  0  0  0  0  0  0  0  0  0  0  0
  191.0500  173.1800  138.3740 N   0  0  0  0  0  0  0  0  0  0  0  0
  189.7780  173.5220  140.1630 C   0  0  0  0  0  0  0  0  0  0  0  0
  188.5730  172.8950  137.9910 C   0  0  0  0  0  1  0  0  0  0  0  0
  189.7770  173.1890  138.8230 C   0  0  0  0  0  0  0  0  0  0  0  0
  191.5960  174.0010  141.5770 O   0  0  0  0  0  0  0  0  0  0  0  0
  191.8790  173.4910  139.3570 N   0  0  0  0  0  2  0  0  0  0  0  0
  191.4850  172.8790  137.0180 C   0  0  0  0  0  1  0  0  0  0  0  0
  191.9920  177.1830  142.9060 O   0  0  0  0  0  1  0  0  0  0  0  0
  190.6530  177.5520  142.7760 C   0  0  0  0  0  2  0  0  0  0  0  0
  186.1720  178.6470  144.7760 O   0  0  0  0  0  0  0  0  0  0  0  0
  186.2810  177.6550  144.0650 C   0  0  0  0  0  0  0  0  0  0  0  0
  185.3060  177.4430  142.9450 C   0  0  1  0  0  3  0  0  0  0  0  0
  184.5170  178.6550  142.7090 C   0  0  1  0  0  3  0  0  0  0  0  0
  185.6330  178.3270  141.8120 N   0  0  0  0  0  2  0  0  0  0  0  0
  183.4120  178.2910  140.5140 C   0  0  0  0  0  1  0  0  0  0  0  0
  183.2140  178.2920  142.0150 C   0  0  0  0  0  2  0  0  0  0  0  0
  189.4860  177.4340  147.4940 C   0  0  0  0  0  2  0  0  0  0  0  0
  191.6130  177.3090  148.7610 C   0  0  0  0  0  1  0  0  0  0  0  0
  190.7640  175.2910  147.6220 C   0  0  0  0  0  1  0  0  0  0  0  0
  190.8670  176.7990  147.5460 C   0  0  0  0  0  3  0  0  0  0  0  0
  1 31  1  0  0  0  0
  2 25  1  6  0  0  0
  2  6  1  0  0  0  0
  3  9  1  1  0  0  0
  3  5  1  0  0  0  0
  3  2  1  0  0  0  0
  5 23  1  6  0  0  0
  5  7  1  0  0  0  0
  6  1  1  0  0  0  0
  6  4  2  0  0  0  0
  7  1  1  0  0  0  0
  9  8  1  0  0  0  0
 10 16  1  6  0  0  0
 10 13  1  0  0  0  0
 10 11  1  0  0  0  0
 11  8  2  0  0  0  0
 12 13  2  0  0  0  0
 13  9  1  0  0  0  0
 14 19  2  0  0  0  0
 15 18  1  0  0  0  0
 15 20  1  0  0  0  0
 16 14  1  0  0  0  0
 17 18  1  0  0  0  0
 18 16  2  0  0  0  0
 20 14  1  0  0  0  0
 21 15  1  0  0  0  0
 23 22  1  0  0  0  0
 25 24  2  0  0  0  0
 26 25  1  1  0  0  0
 27 30  1  6  0  0  0
 27 26  1  0  0  0  0
 28 27  1  0  0  0  0
 28 26  1  0  0  0  0
 29 30  1  0  0  0  0
 31 34  1  0  0  0  0
 34 33  1  0  0  0  0
 34 32  1  0  0  0  0
M  END
>  <MODEL>
3

>  <REMARK>
 VINA RESULT:      -6.9      3.257      5.696
  Name = 
  8 active torsions:
  status: ('A' for Active; 'I' for Inactive)
    1  A    between atoms: C_1  and  C_18
    2  A    between atoms: C_2  and  N_3
    3  A    between atoms: C_2  and  C_28
    4  A    between atoms: C_8  and  C_13
    5  A    between atoms: N_10  and  C_20
    6  A    between atoms: C_14  and  C_18
    7  A    between atoms: C_19  and  C_31
    8  A    between atoms: C_27  and  C_34
                            x       y       z     vdW  Elec       q    Type
                         _______ _______ _______ _____ _____    ______ ____

>  <TORSDO>
F 8

$$$$
=
 OpenBabel11042416063D

 34 37  0  0  1  0  0  0  0  0999 V2000
  192.2890  174.4650  144.8360 N   0  0  0  0  0  0  0  0  0  0  0  0
  190.5190  174.1310  143.0460 C   0  0  1  0  0  3  0  0  0  0  0  0
  189.5450  174.9290  143.9470 C   0  0  1  0  0  3  0  0  0  0  0  0
  192.8650  174.1790  142.5900 O   0  0  0  0  0  0  0  0  0  0  0  0
  190.1150  175.4610  145.2740 C   0  0  2  0  0  3  0  0  0  0  0  0
  191.9590  174.2560  143.4590 C   0  0  0  0  0  0  0  0  0  0  0  0
  191.2090  174.5460  145.8100 C   0  0  0  0  0  2  0  0  0  0  0  0
  189.3800  177.3190  143.2140 N   0  0  0  0  0  0  0  0  0  0  0  0
  188.9100  176.0000  143.1920 N   0  0  0  0  0  0  0  0  0  0  0  0
  187.3630  177.2430  141.9940 C   0  0  1  0  0  3  0  0  0  0  0  0
  188.5080  178.0800  142.3830 N   0  0  0  0  0  0  0  0  0  0  0  0
  187.0790  174.8460  142.2460 O   0  0  0  0  0  0  0  0  0  0  0  0
  187.7140  175.9150  142.4730 C   0  0  0  0  0  0  0  0  0  0  0  0
  184.8670  177.9820  142.1050 C   0  0  0  0  0  0  0  0  0  0  0  0
  184.6600  178.4270  144.1920 N   0  0  0  0  0  0  0  0  0  0  0  0
  186.1130  177.7400  142.6580 C   0  0  0  0  0  0  0  0  0  0  0  0
  186.9800  177.9520  145.0600 C   0  0  0  0  0  1  0  0  0  0  0  0
  185.9370  178.0360  143.9960 C   0  0  0  0  0  0  0  0  0  0  0  0
  184.5570  177.8290  140.8960 O   0  0  0  0  0  0  0  0  0  0  0  0
  183.9970  178.4010  143.0470 N   0  0  0  0  0  2  0  0  0  0  0  0
  184.0660  178.8280  145.4590 C   0  0  0  0  0  1  0  0  0  0  0  0
  189.1460  174.5940  147.2790 O   0  0  0  0  0  1  0  0  0  0  0  0
  188.9920  175.5680  146.2910 C   0  0  0  0  0  2  0  0  0  0  0  0
  190.4610  171.8820  143.8090 O   0  0  0  0  0  0  0  0  0  0  0  0
  190.1160  172.6800  142.9460 C   0  0  0  0  0  0  0  0  0  0  0  0
  189.4220  172.1770  141.7150 C   0  0  1  0  0  3  0  0  0  0  0  0
  189.6640  173.0740  140.5810 C   0  0  1  0  0  3  0  0  0  0  0  0
  190.4120  171.8140  140.6850 N   0  0  0  0  0  2  0  0  0  0  0  0
  188.2960  174.2210  138.8540 C   0  0  0  0  0  1  0  0  0  0  0  0
  188.5630  172.9010  139.5470 C   0  0  0  0  0  2  0  0  0  0  0  0
  193.6650  174.7210  145.2520 C   0  0  0  0  0  2  0  0  0  0  0  0
  194.1050  176.7320  146.6340 C   0  0  0  0  0  1  0  0  0  0  0  0
  195.2600  176.4780  144.4670 C   0  0  0  0  0  1  0  0  0  0  0  0
  193.9730  176.2110  145.2180 C   0  0  0  0  0  3  0  0  0  0  0  0
  1 31  1  0  0  0  0
  1  7  1  0  0  0  0
  2 25  1  1  0  0  0
  2  6  1  0  0  0  0
  2  3  1  0  0  0  0
  3  9  1  6  0  0  0
  3  5  1  0  0  0  0
  4  6  2  0  0  0  0
  5  7  1  0  0  0  0
  5 23  1  1  0  0  0
  6  1  1  0  0  0  0
  9  8  1  0  0  0  0
 10 11  1  0  0  0  0
 10 13  1  0  0  0  0
 10 16  1  1  0  0  0
 11  8  2  0  0  0  0
 12 13  2  0  0  0  0
 13  9  1  0  0  0  0
 14 16  1  0  0  0  0
 14 20  1  0  0  0  0
 15 21  1  0  0  0  0
 16 18  2  0  0  0  0
 18 15  1  0  0  0  0
 18 17  1  0  0  0  0
 19 14  2  0  0  0  0
 20 15  1  0  0  0  0
 23 22  1  0  0  0  0
 25 24  2  0  0  0  0
 26 25  1  1  0  0  0
 27 30  1  6  0  0  0
 27 28  1  0  0  0  0
 27 26  1  0  0  0  0
 28 26  1  0  0  0  0
 29 30  1  0  0  0  0
 33 34  1  0  0  0  0
 34 31  1  0  0  0  0
 34 32  1  0  0  0  0
M  END
>  <MODEL>
4

>  <REMARK>
 VINA RESULT:      -6.8      2.331      7.646
  Name = 
  8 active torsions:
  status: ('A' for Active; 'I' for Inactive)
    1  A    between atoms: C_1  and  C_18
    2  A    between atoms: C_2  and  N_3
    3  A    between atoms: C_2  and  C_28
    4  A    between atoms: C_8  and  C_13
    5  A    between atoms: N_10  and  C_20
    6  A    between atoms: C_14  and  C_18
    7  A    between atoms: C_19  and  C_31
    8  A    between atoms: C_27  and  C_34
                            x       y       z     vdW  Elec       q    Type
                         _______ _______ _______ _____ _____    ______ ____

>  <TORSDO>
F 8

$$$$
=
 OpenBabel11042416063D

 34 37  0  0  1  0  0  0  0  0999 V2000
  188.4880  176.1220  142.4640 N   0  0  0  0  0  0  0  0  0  0  0  0
  190.1360  176.6310  144.3280 C   0  0  1  0  0  3  0  0  0  0  0  0
  190.4860  175.1230  144.3460 C   0  0  1  0  0  3  0  0  0  0  0  0
  189.4900  178.2230  142.6660 O   0  0  0  0  0  0  0  0  0  0  0  0
  189.7570  174.2350  143.3230 C   0  0  2  0  0  3  0  0  0  0  0  0
  189.3620  177.0530  143.1110 C   0  0  0  0  0  0  0  0  0  0  0  0
  188.3680  174.7780  143.0120 C   0  0  0  0  0  2  0  0  0  0  0  0
  192.5990  174.7950  143.0400 N   0  0  0  0  0  0  0  0  0  0  0  0
  191.9280  174.9320  144.2610 N   0  0  0  0  0  0  0  0  0  0  0  0
  194.1270  174.4350  144.8000 C   0  0  1  0  0  3  0  0  0  0  0  0
  193.9780  174.6070  143.3470 N   0  0  0  0  0  0  0  0  0  0  0  0
  192.4940  174.8300  146.5520 O   0  0  0  0  0  0  0  0  0  0  0  0
  192.8040  174.7270  145.3300 C   0  0  0  0  0  0  0  0  0  0  0  0
  193.8260  171.8490  144.9080 C   0  0  0  0  0  0  0  0  0  0  0  0
  195.7040  171.2490  145.7500 N   0  0  0  0  0  0  0  0  0  0  0  0
  194.5300  173.0240  145.1120 C   0  0  0  0  0  0  0  0  0  0  0  0
  196.8660  173.4650  146.0680 C   0  0  0  0  0  1  0  0  0  0  0  0
  195.7270  172.5950  145.6500 C   0  0  0  0  0  0  0  0  0  0  0  0
  192.6730  171.7600  144.4150 O   0  0  0  0  0  0  0  0  0  0  0  0
  194.5500  170.7820  145.3030 N   0  0  0  0  0  2  0  0  0  0  0  0
  196.7700  170.4040  146.2680 C   0  0  0  0  0  1  0  0  0  0  0  0
  189.6310  172.8590  145.2730 O   0  0  0  0  0  1  0  0  0  0  0  0
  189.6440  172.8260  143.8780 C   0  0  0  0  0  2  0  0  0  0  0  0
  190.0480  177.4770  146.5460 O   0  0  0  0  0  0  0  0  0  0  0  0
  189.4170  177.0460  145.5880 C   0  0  0  0  0  0  0  0  0  0  0  0
  187.9450  176.7920  145.7310 C   0  0  1  0  0  3  0  0  0  0  0  0
  187.4020  177.5290  146.8770 C   0  0  1  0  0  3  0  0  0  0  0  0
  187.1910  178.0400  145.5160 N   0  0  0  0  0  2  0  0  0  0  0  0
  184.9900  177.1850  146.3930 C   0  0  0  0  0  1  0  0  0  0  0  0
  186.1190  176.8650  147.3500 C   0  0  0  0  0  2  0  0  0  0  0  0
  187.8240  176.4580  141.2070 C   0  0  0  0  0  2  0  0  0  0  0  0
  185.9950  177.7390  140.1290 C   0  0  0  0  0  1  0  0  0  0  0  0
  185.7240  176.9750  142.4600 C   0  0  0  0  0  1  0  0  0  0  0  0
  186.7170  177.4770  141.4350 C   0  0  0  0  0  3  0  0  0  0  0  0
  1  7  1  0  0  0  0
  1  6  1  0  0  0  0
  2  3  1  0  0  0  0
  2 25  1  1  0  0  0
  3  9  1  6  0  0  0
  4  6  2  0  0  0  0
  5 23  1  1  0  0  0
  5  3  1  0  0  0  0
  6  2  1  0  0  0  0
  7  5  1  0  0  0  0
  8 11  2  0  0  0  0
  8  9  1  0  0  0  0
  9 13  1  0  0  0  0
 10 16  1  6  0  0  0
 10 13  1  0  0  0  0
 11 10  1  0  0  0  0
 13 12  2  0  0  0  0
 14 16  1  0  0  0  0
 14 20  1  0  0  0  0
 15 21  1  0  0  0  0
 16 18  2  0  0  0  0
 18 15  1  0  0  0  0
 18 17  1  0  0  0  0
 19 14  2  0  0  0  0
 20 15  1  0  0  0  0
 23 22  1  0  0  0  0
 25 24  2  0  0  0  0
 26 25  1  1  0  0  0
 26 27  1  0  0  0  0
 27 30  1  6  0  0  0
 28 26  1  0  0  0  0
 28 27  1  0  0  0  0
 29 30  1  0  0  0  0
 31 34  1  0  0  0  0
 31  1  1  0  0  0  0
 32 34  1  0  0  0  0
 34 33  1  0  0  0  0
M  END
>  <MODEL>
5

>  <REMARK>
 VINA RESULT:      -6.8      2.141      2.928
  Name = 
  8 active torsions:
  status: ('A' for Active; 'I' for Inactive)
    1  A    between atoms: C_1  and  C_18
    2  A    between atoms: C_2  and  N_3
    3  A    between atoms: C_2  and  C_28
    4  A    between atoms: C_8  and  C_13
    5  A    between atoms: N_10  and  C_20
    6  A    between atoms: C_14  and  C_18
    7  A    between atoms: C_19  and  C_31
    8  A    between atoms: C_27  and  C_34
                            x       y       z     vdW  Elec       q    Type
                         _______ _______ _______ _____ _____    ______ ____

>  <TORSDO>
F 8

$$$$
=
 OpenBabel11042416063D

 34 37  0  0  1  0  0  0  0  0999 V2000
  193.5070  173.7010  143.7170 N   0  0  0  0  0  0  0  0  0  0  0  0
  191.8070  174.9460  142.2990 C   0  0  1  0  0  3  0  0  0  0  0  0
  190.7940  174.7550  143.4550 C   0  0  1  0  0  3  0  0  0  0  0  0
  194.1670  175.2760  142.1220 O   0  0  0  0  0  0  0  0  0  0  0  0
  191.3100  174.0270  144.7080 C   0  0  2  0  0  3  0  0  0  0  0  0
  193.2280  174.6630  142.6930 C   0  0  0  0  0  0  0  0  0  0  0  0
  192.3910  173.0130  144.3510 C   0  0  0  0  0  2  0  0  0  0  0  0
  190.8030  176.9530  144.6570 N   0  0  0  0  0  0  0  0  0  0  0  0
  190.1800  176.0260  143.8130 N   0  0  0  0  0  0  0  0  0  0  0  0
  188.6220  177.7050  144.1690 C   0  0  1  0  0  3  0  0  0  0  0  0
  189.9070  178.0530  144.7930 N   0  0  0  0  0  0  0  0  0  0  0  0
  188.0940  175.8290  142.7230 O   0  0  0  0  0  0  0  0  0  0  0  0
  188.8820  176.4400  143.4990 C   0  0  0  0  0  0  0  0  0  0  0  0
  187.5570  176.7200  146.3340 C   0  0  0  0  0  0  0  0  0  0  0  0
  185.7160  177.8150  146.4240 N   0  0  0  0  0  0  0  0  0  0  0  0
  187.5650  177.5460  145.2230 C   0  0  0  0  0  0  0  0  0  0  0  0
  185.8650  179.2580  144.3610 C   0  0  0  0  0  1  0  0  0  0  0  0
  186.3700  178.2320  145.3190 C   0  0  0  0  0  0  0  0  0  0  0  0
  188.4690  175.9180  146.6600 O   0  0  0  0  0  0  0  0  0  0  0  0
  186.4270  176.8920  147.0510 N   0  0  0  0  0  2  0  0  0  0  0  0
  184.4190  178.2860  146.8880 C   0  0  0  0  0  1  0  0  0  0  0  0
  189.7320  172.2350  144.6190 O   0  0  0  0  0  1  0  0  0  0  0  0
  190.1500  173.3210  145.3880 C   0  0  0  0  0  2  0  0  0  0  0  0
  192.2030  174.0050  140.1540 O   0  0  0  0  0  0  0  0  0  0  0  0
  191.4170  174.1380  141.0850 C   0  0  0  0  0  0  0  0  0  0  0  0
  190.0160  173.6210  140.9450 C   0  0  1  0  0  3  0  0  0  0  0  0
  189.9050  172.7340  139.7840 C   0  0  1  0  0  3  0  0  0  0  0  0
  189.9920  172.1590  141.1340 N   0  0  0  0  0  2  0  0  0  0  0  0
  188.1960  173.7610  138.3030 C   0  0  0  0  0  1  0  0  0  0  0  0
  188.4580  172.6720  139.3220 C   0  0  0  0  0  2  0  0  0  0  0  0
  194.8640  173.4990  144.2130 C   0  0  0  0  0  2  0  0  0  0  0  0
  196.4080  173.7560  146.1370 C   0  0  0  0  0  1  0  0  0  0  0  0
  194.7470  175.5220  145.6760 C   0  0  0  0  0  1  0  0  0  0  0  0
  195.0080  174.0320  145.6320 C   0  0  0  0  0  3  0  0  0  0  0  0
  1 31  1  0  0  0  0
  1  7  1  0  0  0  0
  2 25  1  6  0  0  0
  2  6  1  0  0  0  0
  2  3  1  0  0  0  0
  3  9  1  1  0  0  0
  3  5  1  0  0  0  0
  4  6  2  0  0  0  0
  5 23  1  6  0  0  0
  6  1  1  0  0  0  0
  7  5  1  0  0  0  0
  8 11  2  0  0  0  0
  9  8  1  0  0  0  0
 10 11  1  0  0  0  0
 10 16  1  1  0  0  0
 12 13  2  0  0  0  0
 13  9  1  0  0  0  0
 13 10  1  0  0  0  0
 14 19  2  0  0  0  0
 14 20  1  0  0  0  0
 15 21  1  0  0  0  0
 15 20  1  0  0  0  0
 16 18  2  0  0  0  0
 16 14  1  0  0  0  0
 17 18  1  0  0  0  0
 18 15  1  0  0  0  0
 22 23  1  0  0  0  0
 24 25  2  0  0  0  0
 26 25  1  6  0  0  0
 26 28  1  0  0  0  0
 27 30  1  1  0  0  0
 27 26  1  0  0  0  0
 27 28  1  0  0  0  0
 29 30  1  0  0  0  0
 31 34  1  0  0  0  0
 34 33  1  0  0  0  0
 34 32  1  0  0  0  0
M  END
>  <MODEL>
6

>  <REMARK>
 VINA RESULT:      -6.8      2.301      7.521
  Name = 
  8 active torsions:
  status: ('A' for Active; 'I' for Inactive)
    1  A    between atoms: C_1  and  C_18
    2  A    between atoms: C_2  and  N_3
    3  A    between atoms: C_2  and  C_28
    4  A    between atoms: C_8  and  C_13
    5  A    between atoms: N_10  and  C_20
    6  A    between atoms: C_14  and  C_18
    7  A    between atoms: C_19  and  C_31
    8  A    between atoms: C_27  and  C_34
                            x       y       z     vdW  Elec       q    Type
                         _______ _______ _______ _____ _____    ______ ____

>  <TORSDO>
F 8

$$$$
=
 OpenBabel11042416063D

 34 37  0  0  1  0  0  0  0  0999 V2000
  194.2530  174.9230  144.9100 N   0  0  0  0  0  0  0  0  0  0  0  0
  192.0940  174.6200  143.6090 C   0  0  1  0  0  3  0  0  0  0  0  0
  191.3390  175.1200  144.8640 C   0  0  1  0  0  3  0  0  0  0  0  0
  194.2020  175.0750  142.5790 O   0  0  0  0  0  0  0  0  0  0  0  0
  192.2020  175.5150  146.0740 C   0  0  2  0  0  3  0  0  0  0  0  0
  193.5720  174.8850  143.6520 C   0  0  0  0  0  0  0  0  0  0  0  0
  193.4860  174.6960  146.1270 C   0  0  0  0  0  2  0  0  0  0  0  0
  190.6960  177.5400  144.7740 N   0  0  0  0  0  0  0  0  0  0  0  0
  190.4170  176.1920  144.5150 N   0  0  0  0  0  0  0  0  0  0  0  0
  188.4960  177.3580  143.9440 C   0  0  1  0  0  3  0  0  0  0  0  0
  189.5720  178.2880  144.3190 N   0  0  0  0  0  0  0  0  0  0  0  0
  188.6030  174.9510  143.6520 O   0  0  0  0  0  0  0  0  0  0  0  0
  189.1200  176.0450  144.0170 C   0  0  0  0  0  0  0  0  0  0  0  0
  187.2240  176.8920  146.1690 C   0  0  0  0  0  0  0  0  0  0  0  0
  185.4480  178.0580  145.8820 N   0  0  0  0  0  0  0  0  0  0  0  0
  187.3600  177.4670  144.9170 C   0  0  0  0  0  0  0  0  0  0  0  0
  185.8290  179.0320  143.5870 C   0  0  0  0  0  1  0  0  0  0  0  0
  186.2030  178.2070  144.7720 C   0  0  0  0  0  0  0  0  0  0  0  0
  188.0610  176.1380  146.7260 O   0  0  0  0  0  0  0  0  0  0  0  0
  186.0570  177.2570  146.7400 N   0  0  0  0  0  2  0  0  0  0  0  0
  184.1510  178.6700  146.1310 C   0  0  0  0  0  1  0  0  0  0  0  0
  191.2480  176.5100  148.0260 O   0  0  0  0  0  1  0  0  0  0  0  0
  191.4040  175.3000  147.3480 C   0  0  0  0  0  2  0  0  0  0  0  0
  192.3550  172.2970  144.0300 O   0  0  0  0  0  0  0  0  0  0  0  0
  191.8200  173.1600  143.3440 C   0  0  0  0  0  0  0  0  0  0  0  0
  191.0130  172.7520  142.1470 C   0  0  1  0  0  3  0  0  0  0  0  0
  190.9390  173.8470  141.1760 C   0  0  1  0  0  3  0  0  0  0  0  0
  191.8650  172.7300  140.9440 N   0  0  0  0  0  2  0  0  0  0  0  0
  188.7270  172.7360  140.9590 C   0  0  0  0  0  1  0  0  0  0  0  0
  189.7200  173.6600  140.2860 C   0  0  0  0  0  2  0  0  0  0  0  0
  195.6590  175.3060  144.9970 C   0  0  0  0  0  2  0  0  0  0  0  0
  197.7930  174.5060  144.0200 C   0  0  0  0  0  1  0  0  0  0  0  0
  196.9910  173.5260  146.1380 C   0  0  0  0  0  1  0  0  0  0  0  0
  196.5630  174.0980  144.8040 C   0  0  0  0  0  3  0  0  0  0  0  0
  1 31  1  0  0  0  0
  1  7  1  0  0  0  0
  2 25  1  1  0  0  0
  2  6  1  0  0  0  0
  2  3  1  0  0  0  0
  3  9  1  6  0  0  0
  3  5  1  0  0  0  0
  4  6  2  0  0  0  0
  5  7  1  0  0  0  0
  5 23  1  1  0  0  0
  6  1  1  0  0  0  0
  9  8  1  0  0  0  0
 10 13  1  0  0  0  0
 10 11  1  0  0  0  0
 10 16  1  1  0  0  0
 11  8  2  0  0  0  0
 12 13  2  0  0  0  0
 13  9  1  0  0  0  0
 14 19  2  0  0  0  0
 14 20  1  0  0  0  0
 15 21  1  0  0  0  0
 15 20  1  0  0  0  0
 16 14  1  0  0  0  0
 17 18  1  0  0  0  0
 18 16  2  0  0  0  0
 18 15  1  0  0  0  0
 23 22  1  0  0  0  0
 25 24  2  0  0  0  0
 26 25  1  1  0  0  0
 27 30  1  6  0  0  0
 27 26  1  0  0  0  0
 28 27  1  0  0  0  0
 28 26  1  0  0  0  0
 30 29  1  0  0  0  0
 32 34  1  0  0  0  0
 34 31  1  0  0  0  0
 34 33  1  0  0  0  0
M  END
>  <MODEL>
7

>  <REMARK>
 VINA RESULT:      -6.7      2.275      7.858
  Name = 
  8 active torsions:
  status: ('A' for Active; 'I' for Inactive)
    1  A    between atoms: C_1  and  C_18
    2  A    between atoms: C_2  and  N_3
    3  A    between atoms: C_2  and  C_28
    4  A    between atoms: C_8  and  C_13
    5  A    between atoms: N_10  and  C_20
    6  A    between atoms: C_14  and  C_18
    7  A    between atoms: C_19  and  C_31
    8  A    between atoms: C_27  and  C_34
                            x       y       z     vdW  Elec       q    Type
                         _______ _______ _______ _____ _____    ______ ____

>  <TORSDO>
F 8

$$$$
=
 OpenBabel11042416063D

 34 37  0  0  1  0  0  0  0  0999 V2000
  192.8950  175.7680  144.5540 N   0  0  0  0  0  0  0  0  0  0  0  0
  190.5540  174.7850  144.5600 C   0  0  1  0  0  3  0  0  0  0  0  0
  190.3930  175.3340  145.9990 C   0  0  1  0  0  3  0  0  0  0  0  0
  191.6890  175.4780  142.5750 O   0  0  0  0  0  0  0  0  0  0  0  0
  191.5860  176.1170  146.5730 C   0  0  2  0  0  3  0  0  0  0  0  0
  191.7320  175.3580  143.8260 C   0  0  0  0  0  0  0  0  0  0  0  0
  192.9050  175.6100  146.0020 C   0  0  0  0  0  2  0  0  0  0  0  0
  188.0750  175.6770  146.8860 N   0  0  0  0  0  0  0  0  0  0  0  0
  189.1640  176.1060  146.1170 N   0  0  0  0  0  0  0  0  0  0  0  0
  187.4660  177.6340  145.7190 C   0  0  1  0  0  3  0  0  0  0  0  0
  187.0590  176.6670  146.7490 N   0  0  0  0  0  0  0  0  0  0  0  0
  189.6370  177.9120  144.6700 O   0  0  0  0  0  0  0  0  0  0  0  0
  188.8410  177.2690  145.4120 C   0  0  0  0  0  0  0  0  0  0  0  0
  186.6740  176.5820  143.4710 C   0  0  0  0  0  0  0  0  0  0  0  0
  184.9570  177.7870  143.0320 N   0  0  0  0  0  0  0  0  0  0  0  0
  186.5900  177.4940  144.5090 C   0  0  0  0  0  0  0  0  0  0  0  0
  184.9310  179.3880  144.9810 C   0  0  0  0  0  1  0  0  0  0  0  0
  185.4770  178.2460  144.1910 C   0  0  0  0  0  0  0  0  0  0  0  0
  187.5420  175.6800  143.3540 O   0  0  0  0  0  0  0  0  0  0  0  0
  185.6790  176.7740  142.5810 N   0  0  0  0  0  2  0  0  0  0  0  0
  183.7800  178.3060  142.3500 C   0  0  0  0  0  1  0  0  0  0  0  0
  191.5580  177.2340  148.6860 O   0  0  0  0  0  1  0  0  0  0  0  0
  191.5940  175.9740  148.0850 C   0  0  0  0  0  2  0  0  0  0  0  0
  189.6530  172.6260  144.9750 O   0  0  0  0  0  0  0  0  0  0  0  0
  190.5990  173.2760  144.5470 C   0  0  0  0  0  0  0  0  0  0  0  0
  191.8610  172.5660  144.1520 C   0  0  1  0  0  3  0  0  0  0  0  0
  191.5960  171.1490  143.8900 C   0  0  1  0  0  3  0  0  0  0  0  0
  191.7560  172.0790  142.7650 N   0  0  0  0  0  2  0  0  0  0  0  0
  193.8510  171.1050  144.9330 C   0  0  0  0  0  1  0  0  0  0  0  0
  192.8810  170.3510  144.0470 C   0  0  0  0  0  2  0  0  0  0  0  0
  194.0020  176.4480  143.8880 C   0  0  0  0  0  2  0  0  0  0  0  0
  195.2200  174.3400  143.4220 C   0  0  0  0  0  1  0  0  0  0  0  0
  196.4740  176.4630  143.5190 C   0  0  0  0  0  1  0  0  0  0  0  0
  195.3070  175.6930  144.0970 C   0  0  0  0  0  3  0  0  0  0  0  0
  1  7  1  0  0  0  0
  2 25  1  1  0  0  0
  2  3  1  0  0  0  0
  3  9  1  6  0  0  0
  3  5  1  0  0  0  0
  4  6  2  0  0  0  0
  5 23  1  1  0  0  0
  6  1  1  0  0  0  0
  6  2  1  0  0  0  0
  7  5  1  0  0  0  0
  9  8  1  0  0  0  0
 10 16  1  6  0  0  0
 10 11  1  0  0  0  0
 11  8  2  0  0  0  0
 12 13  2  0  0  0  0
 13 10  1  0  0  0  0
 13  9  1  0  0  0  0
 14 16  1  0  0  0  0
 15 18  1  0  0  0  0
 18 16  2  0  0  0  0
 18 17  1  0  0  0  0
 19 14  2  0  0  0  0
 20 15  1  0  0  0  0
 20 14  1  0  0  0  0
 21 15  1  0  0  0  0
 23 22  1  0  0  0  0
 25 24  2  0  0  0  0
 26 25  1  1  0  0  0
 27 30  1  6  0  0  0
 27 26  1  0  0  0  0
 28 27  1  0  0  0  0
 28 26  1  0  0  0  0
 30 29  1  0  0  0  0
 31 34  1  0  0  0  0
 31  1  1  0  0  0  0
 32 34  1  0  0  0  0
 33 34  1  0  0  0  0
M  END
>  <MODEL>
8

>  <REMARK>
 VINA RESULT:      -6.7      2.290      7.825
  Name = 
  8 active torsions:
  status: ('A' for Active; 'I' for Inactive)
    1  A    between atoms: C_1  and  C_18
    2  A    between atoms: C_2  and  N_3
    3  A    between atoms: C_2  and  C_28
    4  A    between atoms: C_8  and  C_13
    5  A    between atoms: N_10  and  C_20
    6  A    between atoms: C_14  and  C_18
    7  A    between atoms: C_19  and  C_31
    8  A    between atoms: C_27  and  C_34
                            x       y       z     vdW  Elec       q    Type
                         _______ _______ _______ _____ _____    ______ ____

>  <TORSDO>
F 8

$$$$
=
 OpenBabel11042416063D

 34 37  0  0  1  0  0  0  0  0999 V2000
  190.4630  176.6510  146.1310 N   0  0  0  0  0  0  0  0  0  0  0  0
  188.2870  175.6550  145.2800 C   0  0  1  0  0  3  0  0  0  0  0  0
  188.7480  176.0250  143.8490 C   0  0  1  0  0  3  0  0  0  0  0  0
  189.3550  174.9590  147.3020 O   0  0  0  0  0  0  0  0  0  0  0  0
  190.1290  176.6910  143.7220 C   0  0  2  0  0  3  0  0  0  0  0  0
  189.3870  175.7220  146.3020 C   0  0  0  0  0  0  0  0  0  0  0  0
  190.4590  177.5170  144.9600 C   0  0  0  0  0  2  0  0  0  0  0  0
  189.0300  173.5850  143.3580 N   0  0  0  0  0  0  0  0  0  0  0  0
  188.6470  174.8730  142.9640 N   0  0  0  0  0  0  0  0  0  0  0  0
  188.4630  173.5510  141.0690 C   0  0  1  0  0  3  0  0  0  0  0  0
  188.8110  172.7310  142.2390 N   0  0  0  0  0  0  0  0  0  0  0  0
  187.8740  175.9040  140.9850 O   0  0  0  0  0  0  0  0  0  0  0  0
  188.3010  174.8920  141.6100 C   0  0  0  0  0  0  0  0  0  0  0  0
  190.9430  173.4410  140.2760 C   0  0  0  0  0  0  0  0  0  0  0  0
  190.6960  173.4340  138.1470 N   0  0  0  0  0  0  0  0  0  0  0  0
  189.5770  173.5100  140.0630 C   0  0  0  0  0  0  0  0  0  0  0  0
  188.1890  173.5670  137.9110 C   0  0  0  0  0  1  0  0  0  0  0  0
  189.4610  173.5010  138.6870 C   0  0  0  0  0  0  0  0  0  0  0  0
  191.5120  173.4090  141.3970 O   0  0  0  0  0  0  0  0  0  0  0  0
  191.6090  173.3990  139.1040 N   0  0  0  0  0  2  0  0  0  0  0  0
  191.0160  173.4040  136.7270 C   0  0  0  0  0  1  0  0  0  0  0  0
  188.9580  178.3170  142.4210 O   0  0  0  0  0  1  0  0  0  0  0  0
  190.1420  177.5820  142.4930 C   0  0  0  0  0  2  0  0  0  0  0  0
  186.6770  176.4060  146.8570 O   0  0  0  0  0  0  0  0  0  0  0  0
  187.1050  176.4870  145.7120 C   0  0  0  0  0  0  0  0  0  0  0  0
  186.3520  177.3040  144.7030 C   0  0  1  0  0  3  0  0  0  0  0  0
  185.4110  178.2090  145.3670 C   0  0  1  0  0  3  0  0  0  0  0  0
  186.6850  178.7320  144.8550 N   0  0  0  0  0  2  0  0  0  0  0  0
  184.6890  178.2020  142.9910 C   0  0  0  0  0  1  0  0  0  0  0  0
  184.3030  178.5960  144.4010 C   0  0  0  0  0  2  0  0  0  0  0  0
  191.6110  176.6500  147.0330 C   0  0  0  0  0  2  0  0  0  0  0  0
  194.0600  177.0100  146.8970 C   0  0  0  0  0  1  0  0  0  0  0  0
  193.1350  174.7840  146.3680 C   0  0  0  0  0  1  0  0  0  0  0  0
  192.8840  176.2750  146.2890 C   0  0  0  0  0  3  0  0  0  0  0  0
  1  6  1  0  0  0  0
  1 31  1  0  0  0  0
  2 25  1  1  0  0  0
  2  6  1  0  0  0  0
  3  9  1  6  0  0  0
  3  2  1  0  0  0  0
  5 23  1  6  0  0  0
  5  3  1  0  0  0  0
  5  7  1  0  0  0  0
  6  4  2  0  0  0  0
  7  1  1  0  0  0  0
  9  8  1  0  0  0  0
 10 16  1  6  0  0  0
 10 13  1  0  0  0  0
 10 11  1  0  0  0  0
 11  8  2  0  0  0  0
 12 13  2  0  0  0  0
 13  9  1  0  0  0  0
 14 19  2  0  0  0  0
 15 18  1  0  0  0  0
 15 20  1  0  0  0  0
 16 14  1  0  0  0  0
 17 18  1  0  0  0  0
 18 16  2  0  0  0  0
 20 14  1  0  0  0  0
 21 15  1  0  0  0  0
 22 23  1  0  0  0  0
 25 24  2  0  0  0  0
 26 28  1  0  0  0  0
 26 27  1  0  0  0  0
 26 25  1  1  0  0  0
 27 30  1  6  0  0  0
 28 27  1  0  0  0  0
 29 30  1  0  0  0  0
 34 33  1  0  0  0  0
 34 32  1  0  0  0  0
 34 31  1  0  0  0  0
M  END
>  <MODEL>
9

>  <REMARK>
 VINA RESULT:      -6.6      2.942      5.529
  Name = 
  8 active torsions:
  status: ('A' for Active; 'I' for Inactive)
    1  A    between atoms: C_1  and  C_18
    2  A    between atoms: C_2  and  N_3
    3  A    between atoms: C_2  and  C_28
    4  A    between atoms: C_8  and  C_13
    5  A    between atoms: N_10  and  C_20
    6  A    between atoms: C_14  and  C_18
    7  A    between atoms: C_19  and  C_31
    8  A    between atoms: C_27  and  C_34
                            x       y       z     vdW  Elec       q    Type
                         _______ _______ _______ _____ _____    ______ ____

>  <TORSDO>
F 8

$$$$
