=
 OpenBabel11042416523D

 29 31  0  0  1  0  0  0  0  0999 V2000
  185.5730  177.6720  144.3830 C   0  0  0  0  0  0  0  0  0  0  0  0
  190.6760  175.8690  143.1780 O   0  0  0  0  0  1  0  0  0  0  0  0
  188.0290  176.6440  145.0400 C   0  0  0  0  0  0  0  0  0  0  0  0
  187.3880  177.3730  146.0010 N   0  0  0  0  0  2  0  0  0  0  0  0
  186.2320  176.9260  143.4080 C   0  0  0  0  0  3  0  0  0  0  0  0
  185.3050  178.6440  146.4180 C   0  0  0  0  0  0  0  0  0  0  0  0
  184.1900  178.9050  145.6220 C   0  0  0  0  0  3  0  0  0  0  0  0
  188.3570  175.6370  142.9950 N   0  0  0  0  0  0  0  0  0  0  0  0
  189.5490  175.3130  143.7840 C   0  0  2  0  0  3  0  0  0  0  0  0
  187.4890  176.4240  143.7860 C   0  0  0  0  0  0  0  0  0  0  0  0
  184.3500  178.3060  144.3640 C   0  0  0  0  0  3  0  0  0  0  0  0
  186.1740  177.8860  145.6740 C   0  0  0  0  0  0  0  0  0  0  0  0
  189.3440  175.9590  145.1790 C   0  0  2  0  0  3  0  0  0  0  0  0
  188.0020  175.8210  140.6950 O   0  0  0  0  0  1  0  0  0  0  0  0
  187.9530  174.9400  141.7780 C   0  0  1  0  0  3  0  0  0  0  0  0
  188.8540  173.7320  141.5160 C   0  0  1  0  0  3  0  0  0  0  0  0
  189.2600  171.9180  142.7260 C   0  0  0  0  0  1  0  0  0  0  0  0
  188.2520  172.5710  142.0130 O   0  0  0  0  0  0  0  0  0  0  0  0
  188.1010  172.6790  139.4530 N   0  0  0  0  0  1  0  0  0  0  0  0
  189.0900  173.5770  140.0210 C   0  0  0  0  0  2  0  0  0  0  0  0
  189.2400  174.8890  146.2260 C   0  0  0  0  0  3  0  0  0  0  0  0
  190.0330  174.8210  147.3030 C   0  0  0  0  0  3  0  0  0  0  0  0
  191.1260  175.8040  147.5890 C   0  0  0  0  0  2  0  0  0  0  0  0
  192.4180  175.3560  146.9340 C   0  0  0  0  0  2  0  0  0  0  0  0
  192.9190  176.4450  146.0120 C   0  0  0  0  0  2  0  0  0  0  0  0
  194.4040  176.6470  146.2310 C   0  0  0  0  0  2  0  0  0  0  0  0
  195.0270  175.4070  146.3640 O   0  0  0  0  0  1  0  0  0  0  0  0
  186.3110  180.0590  148.0840 N   0  0  0  0  0  2  0  0  0  0  0  0
  185.4780  179.1150  147.7960 C   0  0  0  0  0  3  0  0  0  0  0  0
  1 12  1  0  0  0  0
  3 13  1  0  0  0  0
  3  4  1  0  0  0  0
  5 10  1  0  0  0  0
  5  1  2  0  0  0  0
  6 29  1  0  0  0  0
  7  6  1  0  0  0  0
  8  9  1  0  0  0  0
  8 10  1  0  0  0  0
  9  2  1  6  0  0  0
  9 13  1  0  0  0  0
 10  3  2  0  0  0  0
 11  1  1  0  0  0  0
 11  7  2  0  0  0  0
 12  4  1  0  0  0  0
 12  6  2  0  0  0  0
 13 21  1  1  0  0  0
 15 14  1  6  0  0  0
 15  8  1  0  0  0  0
 16 20  1  6  0  0  0
 16 15  1  0  0  0  0
 16 18  1  0  0  0  0
 18 17  1  0  0  0  0
 19 20  1  0  0  0  0
 21 22  2  0  0  0  0
 22 23  1  0  0  0  0
 24 23  1  0  0  0  0
 25 26  1  0  0  0  0
 25 24  1  0  0  0  0
 26 27  1  0  0  0  0
 29 28  2  0  0  0  0
M  END
>  <MODEL>
1

>  <REMARK>
 VINA RESULT:      -6.5      0.000      0.000
  Name = 
  10 active torsions:
  status: ('A' for Active; 'I' for Inactive)
    1  A    between atoms: C_1  and  C_26
    2  A    between atoms: C_8  and  C_27
    3  A    between atoms: C_9  and  C_10
    4  A    between atoms: C_9  and  N_14
    5  A    between atoms: C_10  and  O_25
    6  A    between atoms: C_10  and  C_28
    7  A    between atoms: C_11  and  C_16
    8  A    between atoms: C_21  and  C_24
    9  A    between atoms: C_21  and  C_29
   10  A    between atoms: C_26  and  C_29
                            x       y       z     vdW  Elec       q    Type
                         _______ _______ _______ _____ _____    ______ ____

>  <TORSDO>
F 10

$$$$
=
 OpenBabel11042416523D

 29 31  0  0  1  0  0  0  0  0999 V2000
  186.0890  177.1310  142.6890 C   0  0  0  0  0  0  0  0  0  0  0  0
  191.4170  175.9830  143.7020 O   0  0  0  0  0  1  0  0  0  0  0  0
  188.2020  176.5550  144.3390 C   0  0  0  0  0  0  0  0  0  0  0  0
  187.1780  177.2820  144.8780 N   0  0  0  0  0  2  0  0  0  0  0  0
  187.1360  176.3900  142.1460 C   0  0  0  0  0  3  0  0  0  0  0  0
  184.9800  178.2680  144.3120 C   0  0  0  0  0  0  0  0  0  0  0  0
  184.2270  178.2720  143.1380 C   0  0  0  0  0  3  0  0  0  0  0  0
  189.3740  175.3910  142.7340 N   0  0  0  0  0  0  0  0  0  0  0  0
  190.2050  175.3350  143.9400 C   0  0  2  0  0  3  0  0  0  0  0  0
  188.1990  176.1220  143.0250 C   0  0  0  0  0  0  0  0  0  0  0  0
  184.9080  177.5710  142.1310 C   0  0  0  0  0  3  0  0  0  0  0  0
  186.1340  177.5700  144.0590 C   0  0  0  0  0  0  0  0  0  0  0  0
  189.4270  176.0910  145.0480 C   0  0  2  0  0  3  0  0  0  0  0  0
  190.8830  174.4090  141.2480 O   0  0  0  0  0  1  0  0  0  0  0  0
  189.5290  174.5140  141.5780 C   0  0  1  0  0  3  0  0  0  0  0  0
  188.9450  173.1290  141.8610 C   0  0  1  0  0  3  0  0  0  0  0  0
  188.2640  172.7510  139.7850 C   0  0  0  0  0  1  0  0  0  0  0  0
  187.7960  172.9280  141.0880 O   0  0  0  0  0  0  0  0  0  0  0  0
  190.1820  171.1970  142.6770 N   0  0  0  0  0  1  0  0  0  0  0  0
  189.9720  172.0570  141.5260 C   0  0  0  0  0  2  0  0  0  0  0  0
  189.0390  175.1380  146.1400 C   0  0  0  0  0  3  0  0  0  0  0  0
  189.6890  175.0380  147.3070 C   0  0  0  0  0  3  0  0  0  0  0  0
  190.8860  175.8650  147.6600 C   0  0  0  0  0  2  0  0  0  0  0  0
  192.1540  175.1760  147.1940 C   0  0  0  0  0  2  0  0  0  0  0  0
  193.1540  176.2170  146.7410 C   0  0  0  0  0  2  0  0  0  0  0  0
  194.3980  175.5270  146.2190 C   0  0  0  0  0  2  0  0  0  0  0  0
  194.0340  174.5630  145.2810 O   0  0  0  0  0  1  0  0  0  0  0  0
  184.2200  178.2040  146.5950 N   0  0  0  0  0  2  0  0  0  0  0  0
  184.5730  178.9060  145.5690 C   0  0  0  0  0  3  0  0  0  0  0  0
  1 12  1  0  0  0  0
  3  4  1  0  0  0  0
  3 13  1  0  0  0  0
  5  1  2  0  0  0  0
  5 10  1  0  0  0  0
  6 29  1  0  0  0  0
  7  6  1  0  0  0  0
  8 10  1  0  0  0  0
  8  9  1  0  0  0  0
  9  2  1  6  0  0  0
  9 13  1  0  0  0  0
 10  3  2  0  0  0  0
 11  1  1  0  0  0  0
 11  7  2  0  0  0  0
 12  6  2  0  0  0  0
 12  4  1  0  0  0  0
 13 21  1  1  0  0  0
 15 14  1  1  0  0  0
 15 16  1  0  0  0  0
 15  8  1  0  0  0  0
 16 20  1  6  0  0  0
 17 18  1  0  0  0  0
 18 16  1  0  0  0  0
 20 19  1  0  0  0  0
 21 22  2  0  0  0  0
 22 23  1  0  0  0  0
 24 23  1  0  0  0  0
 25 24  1  0  0  0  0
 26 25  1  0  0  0  0
 27 26  1  0  0  0  0
 29 28  2  0  0  0  0
M  END
>  <MODEL>
2

>  <REMARK>
 VINA RESULT:      -6.4      1.499      1.859
  Name = 
  10 active torsions:
  status: ('A' for Active; 'I' for Inactive)
    1  A    between atoms: C_1  and  C_26
    2  A    between atoms: C_8  and  C_27
    3  A    between atoms: C_9  and  C_10
    4  A    between atoms: C_9  and  N_14
    5  A    between atoms: C_10  and  O_25
    6  A    between atoms: C_10  and  C_28
    7  A    between atoms: C_11  and  C_16
    8  A    between atoms: C_21  and  C_24
    9  A    between atoms: C_21  and  C_29
   10  A    between atoms: C_26  and  C_29
                            x       y       z     vdW  Elec       q    Type
                         _______ _______ _______ _____ _____    ______ ____

>  <TORSDO>
F 10

$$$$
=
 OpenBabel11042416523D

 29 31  0  0  1  0  0  0  0  0999 V2000
  187.2370  177.7280  146.9780 C   0  0  0  0  0  0  0  0  0  0  0  0
  190.0660  174.4290  143.5360 O   0  0  0  0  0  1  0  0  0  0  0  0
  188.0320  176.8820  144.4940 C   0  0  0  0  0  0  0  0  0  0  0  0
  186.8110  177.4870  144.5770 N   0  0  0  0  0  0  0  0  0  0  0  0
  188.4820  177.1110  146.8840 C   0  0  0  0  0  3  0  0  0  0  0  0
  185.2620  178.5360  146.2000 C   0  0  0  0  0  0  0  0  0  0  0  0
  185.3500  178.7530  147.5740 C   0  0  0  0  0  3  0  0  0  0  0  0
  190.0490  176.0460  145.2240 N   0  0  0  0  0  0  0  0  0  0  0  0
  190.0280  175.8020  143.7790 C   0  0  2  0  0  3  0  0  0  0  0  0
  188.8470  176.6890  145.5950 C   0  0  0  0  0  0  0  0  0  0  0  0
  186.5690  178.2570  148.0600 C   0  0  0  0  0  2  0  0  0  0  0  0
  186.4150  177.9030  145.8090 C   0  0  0  0  0  0  0  0  0  0  0  0
  188.6880  176.3800  143.2540 C   0  0  2  0  0  3  0  0  0  0  0  0
  191.1940  174.9060  146.9100 O   0  0  0  0  0  1  0  0  0  0  0  0
  191.2500  176.0090  146.0530 C   0  0  1  0  0  3  0  0  0  0  0  0
  192.5090  175.9420  145.1880 C   0  0  1  0  0  3  0  0  0  0  0  0
  194.1930  176.7150  146.4070 C   0  0  0  0  0  1  0  0  0  0  0  0
  193.2960  177.0790  145.4000 O   0  0  0  0  0  0  0  0  0  0  0  0
  193.3400  173.7880  144.4110 N   0  0  0  0  0  1  0  0  0  0  0  0
  193.3140  174.6990  145.5410 C   0  0  0  0  0  2  0  0  0  0  0  0
  188.9560  177.5310  142.3300 C   0  0  0  0  0  3  0  0  0  0  0  0
  188.1470  177.8810  141.3210 C   0  0  0  0  0  3  0  0  0  0  0  0
  186.8790  177.1580  140.9890 C   0  0  0  0  0  2  0  0  0  0  0  0
  185.6810  178.0350  141.2950 C   0  0  0  0  0  2  0  0  0  0  0  0
  184.7670  178.0770  140.0900 C   0  0  0  0  0  2  0  0  0  0  0  0
  183.3430  178.3200  140.5450 C   0  0  0  0  0  2  0  0  0  0  0  0
  183.2140  177.9490  141.8820 O   0  0  0  0  0  1  0  0  0  0  0  0
  184.2750  179.7240  144.3540 N   0  0  0  0  0  2  0  0  0  0  0  0
  184.1240  178.9280  145.3610 C   0  0  0  0  0  3  0  0  0  0  0  0
  1 11  1  0  0  0  0
  3  4  2  0  0  0  0
  3 10  1  0  0  0  0
  4 12  1  0  0  0  0
  5  1  1  0  0  0  0
  6  7  2  0  0  0  0
  7 11  1  0  0  0  0
  8 10  1  0  0  0  0
  8 15  1  0  0  0  0
  9  2  1  1  0  0  0
  9  8  1  0  0  0  0
 10  5  2  0  0  0  0
 12  6  1  0  0  0  0
 12  1  2  0  0  0  0
 13 21  1  6  0  0  0
 13  9  1  0  0  0  0
 13  3  1  0  0  0  0
 15 14  1  1  0  0  0
 16 18  1  0  0  0  0
 16 20  1  1  0  0  0
 16 15  1  0  0  0  0
 18 17  1  0  0  0  0
 19 20  1  0  0  0  0
 22 21  2  0  0  0  0
 23 24  1  0  0  0  0
 23 22  1  0  0  0  0
 25 26  1  0  0  0  0
 25 24  1  0  0  0  0
 26 27  1  0  0  0  0
 28 29  2  0  0  0  0
 29  6  1  0  0  0  0
M  END
>  <MODEL>
3

>  <REMARK>
 VINA RESULT:      -6.4      2.544      6.100
  Name = 
  10 active torsions:
  status: ('A' for Active; 'I' for Inactive)
    1  A    between atoms: C_1  and  C_26
    2  A    between atoms: C_8  and  C_27
    3  A    between atoms: C_9  and  C_10
    4  A    between atoms: C_9  and  N_14
    5  A    between atoms: C_10  and  O_25
    6  A    between atoms: C_10  and  C_28
    7  A    between atoms: C_11  and  C_16
    8  A    between atoms: C_21  and  C_24
    9  A    between atoms: C_21  and  C_29
   10  A    between atoms: C_26  and  C_29
                            x       y       z     vdW  Elec       q    Type
                         _______ _______ _______ _____ _____    ______ ____

>  <TORSDO>
F 10

$$$$
=
 OpenBabel11042416523D

 29 31  0  0  1  0  0  0  0  0999 V2000
  190.1310  176.7330  146.0620 C   0  0  0  0  0  0  0  0  0  0  0  0
  187.6180  177.9350  141.2690 O   0  0  0  0  0  1  0  0  0  0  0  0
  189.2010  176.1120  143.5580 C   0  0  0  0  0  0  0  0  0  0  0  0
  190.2670  175.3920  144.0160 N   0  0  0  0  0  0  0  0  0  0  0  0
  189.0420  177.4620  145.5880 C   0  0  0  0  0  3  0  0  0  0  0  0
  191.7670  175.1600  145.9720 C   0  0  0  0  0  0  0  0  0  0  0  0
  191.8240  175.8280  147.1950 C   0  0  0  0  0  3  0  0  0  0  0  0
  187.5230  177.6900  143.5910 N   0  0  0  0  0  0  0  0  0  0  0  0
  187.3990  177.0160  142.2950 C   0  0  2  0  0  3  0  0  0  0  0  0
  188.6030  177.1150  144.3000 C   0  0  0  0  0  0  0  0  0  0  0  0
  190.8140  176.8000  147.2560 C   0  0  0  0  0  2  0  0  0  0  0  0
  190.7300  175.7020  145.2550 C   0  0  0  0  0  0  0  0  0  0  0  0
  188.5030  175.9290  142.2550 C   0  0  2  0  0  3  0  0  0  0  0  0
  186.3360  179.6970  143.4850 O   0  0  0  0  0  1  0  0  0  0  0  0
  186.4820  178.5080  144.2050 C   0  0  1  0  0  3  0  0  0  0  0  0
  185.1530  177.7530  144.2530 C   0  0  1  0  0  3  0  0  0  0  0  0
  184.0510  178.6120  145.9760 C   0  0  0  0  0  1  0  0  0  0  0  0
  184.7960  177.4980  145.5810 O   0  0  0  0  0  0  0  0  0  0  0  0
  183.7950  178.0730  142.2560 N   0  0  0  0  0  1  0  0  0  0  0  0
  184.0630  178.5830  143.5890 C   0  0  0  0  0  2  0  0  0  0  0  0
  187.8760  174.5660  142.2130 C   0  0  0  0  0  3  0  0  0  0  0  0
  188.3360  173.5570  141.4630 C   0  0  0  0  0  3  0  0  0  0  0  0
  189.5310  173.6690  140.5690 C   0  0  0  0  0  2  0  0  0  0  0  0
  190.4810  172.5140  140.8180 C   0  0  0  0  0  2  0  0  0  0  0  0
  191.3050  172.7970  142.0550 C   0  0  0  0  0  2  0  0  0  0  0  0
  191.1720  171.6420  143.0250 C   0  0  0  0  0  2  0  0  0  0  0  0
  190.2400  171.9680  144.0090 O   0  0  0  0  0  1  0  0  0  0  0  0
  193.6300  174.2850  144.7240 N   0  0  0  0  0  2  0  0  0  0  0  0
  192.6710  174.0790  145.5660 C   0  0  0  0  0  3  0  0  0  0  0  0
  1 11  1  0  0  0  0
  3  4  2  0  0  0  0
  3 10  1  0  0  0  0
  4 12  1  0  0  0  0
  5  1  1  0  0  0  0
  6  7  2  0  0  0  0
  7 11  1  0  0  0  0
  8 15  1  0  0  0  0
  8 10  1  0  0  0  0
  9  2  1  6  0  0  0
  9  8  1  0  0  0  0
 10  5  2  0  0  0  0
 12  6  1  0  0  0  0
 12  1  2  0  0  0  0
 13 21  1  1  0  0  0
 13  9  1  0  0  0  0
 13  3  1  0  0  0  0
 15 14  1  6  0  0  0
 15 16  1  0  0  0  0
 16 20  1  1  0  0  0
 16 18  1  0  0  0  0
 18 17  1  0  0  0  0
 19 20  1  0  0  0  0
 22 21  2  0  0  0  0
 23 24  1  0  0  0  0
 23 22  1  0  0  0  0
 24 25  1  0  0  0  0
 25 26  1  0  0  0  0
 26 27  1  0  0  0  0
 28 29  2  0  0  0  0
 29  6  1  0  0  0  0
M  END
>  <MODEL>
4

>  <REMARK>
 VINA RESULT:      -6.0      2.530      6.151
  Name = 
  10 active torsions:
  status: ('A' for Active; 'I' for Inactive)
    1  A    between atoms: C_1  and  C_26
    2  A    between atoms: C_8  and  C_27
    3  A    between atoms: C_9  and  C_10
    4  A    between atoms: C_9  and  N_14
    5  A    between atoms: C_10  and  O_25
    6  A    between atoms: C_10  and  C_28
    7  A    between atoms: C_11  and  C_16
    8  A    between atoms: C_21  and  C_24
    9  A    between atoms: C_21  and  C_29
   10  A    between atoms: C_26  and  C_29
                            x       y       z     vdW  Elec       q    Type
                         _______ _______ _______ _____ _____    ______ ____

>  <TORSDO>
F 10

$$$$
=
 OpenBabel11042416523D

 29 31  0  0  1  0  0  0  0  0999 V2000
  186.6430  178.2180  144.6860 C   0  0  0  0  0  0  0  0  0  0  0  0
  189.5540  173.5010  144.7470 O   0  0  0  0  0  1  0  0  0  0  0  0
  187.7310  175.9940  143.5090 C   0  0  0  0  0  0  0  0  0  0  0  0
  186.6050  176.5080  142.9330 N   0  0  0  0  0  0  0  0  0  0  0  0
  187.7930  177.6890  145.2680 C   0  0  0  0  0  3  0  0  0  0  0  0
  184.9550  178.3380  143.1710 C   0  0  0  0  0  0  0  0  0  0  0  0
  184.8350  179.3780  144.0920 C   0  0  0  0  0  3  0  0  0  0  0  0
  189.4650  175.8210  145.0150 N   0  0  0  0  0  0  0  0  0  0  0  0
  189.6580  174.7170  144.0710 C   0  0  2  0  0  3  0  0  0  0  0  0
  188.3130  176.5470  144.6360 C   0  0  0  0  0  0  0  0  0  0  0  0
  185.8760  179.3100  145.0300 C   0  0  0  0  0  2  0  0  0  0  0  0
  186.0640  177.6080  143.5180 C   0  0  0  0  0  0  0  0  0  0  0  0
  188.5160  174.8230  143.0280 C   0  0  2  0  0  3  0  0  0  0  0  0
  190.3100  175.7650  147.1910 O   0  0  0  0  0  1  0  0  0  0  0  0
  190.4900  176.3250  145.9240 C   0  0  1  0  0  3  0  0  0  0  0  0
  191.8900  176.0040  145.3990 C   0  0  1  0  0  3  0  0  0  0  0  0
  192.5920  176.6510  143.3970 C   0  0  0  0  0  1  0  0  0  0  0  0
  192.4050  177.1040  144.7050 O   0  0  0  0  0  0  0  0  0  0  0  0
  193.7520  176.7480  146.7810 N   0  0  0  0  0  1  0  0  0  0  0  0
  192.8130  175.6640  146.5610 C   0  0  0  0  0  2  0  0  0  0  0  0
  189.0890  175.1300  141.6750 C   0  0  0  0  0  3  0  0  0  0  0  0
  189.1910  174.2300  140.6880 C   0  0  0  0  0  3  0  0  0  0  0  0
  188.7500  172.8060  140.8180 C   0  0  0  0  0  2  0  0  0  0  0  0
  189.9320  171.8730  140.6370 C   0  0  0  0  0  2  0  0  0  0  0  0
  190.3530  171.3270  141.9830 C   0  0  0  0  0  2  0  0  0  0  0  0
  191.6680  171.9570  142.3930 C   0  0  0  0  0  2  0  0  0  0  0  0
  192.3690  172.3500  141.2550 O   0  0  0  0  0  1  0  0  0  0  0  0
  184.3750  178.3990  140.8360 N   0  0  0  0  0  2  0  0  0  0  0  0
  184.0400  178.1040  142.0490 C   0  0  0  0  0  3  0  0  0  0  0  0
  1 11  1  0  0  0  0
  1  5  1  0  0  0  0
  3 10  1  0  0  0  0
  4  3  2  0  0  0  0
  4 12  1  0  0  0  0
  6 12  1  0  0  0  0
  6  7  2  0  0  0  0
  7 11  1  0  0  0  0
  8 15  1  0  0  0  0
  9  2  1  1  0  0  0
  9  8  1  0  0  0  0
 10  8  1  0  0  0  0
 10  5  2  0  0  0  0
 12  1  2  0  0  0  0
 13 21  1  6  0  0  0
 13  3  1  0  0  0  0
 13  9  1  0  0  0  0
 15 14  1  1  0  0  0
 16 15  1  0  0  0  0
 16 20  1  1  0  0  0
 17 18  1  0  0  0  0
 18 16  1  0  0  0  0
 20 19  1  0  0  0  0
 22 23  1  0  0  0  0
 22 21  2  0  0  0  0
 24 23  1  0  0  0  0
 24 25  1  0  0  0  0
 25 26  1  0  0  0  0
 27 26  1  0  0  0  0
 28 29  2  0  0  0  0
 29  6  1  0  0  0  0
M  END
>  <MODEL>
5

>  <REMARK>
 VINA RESULT:      -6.0      2.448      5.339
  Name = 
  10 active torsions:
  status: ('A' for Active; 'I' for Inactive)
    1  A    between atoms: C_1  and  C_26
    2  A    between atoms: C_8  and  C_27
    3  A    between atoms: C_9  and  C_10
    4  A    between atoms: C_9  and  N_14
    5  A    between atoms: C_10  and  O_25
    6  A    between atoms: C_10  and  C_28
    7  A    between atoms: C_11  and  C_16
    8  A    between atoms: C_21  and  C_24
    9  A    between atoms: C_21  and  C_29
   10  A    between atoms: C_26  and  C_29
                            x       y       z     vdW  Elec       q    Type
                         _______ _______ _______ _____ _____    ______ ____

>  <TORSDO>
F 10

$$$$
=
 OpenBabel11042416523D

 29 31  0  0  1  0  0  0  0  0999 V2000
  187.2660  177.2730  141.1990 C   0  0  0  0  0  0  0  0  0  0  0  0
  190.5090  177.9860  145.6390 O   0  0  0  0  0  1  0  0  0  0  0  0
  187.7360  177.3940  143.8980 C   0  0  0  0  0  0  0  0  0  0  0  0
  186.4740  177.7030  143.4770 N   0  0  0  0  0  2  0  0  0  0  0  0
  188.5510  176.9580  141.6360 C   0  0  0  0  0  3  0  0  0  0  0  0
  185.0940  177.8950  141.4310 C   0  0  0  0  0  0  0  0  0  0  0  0
  185.3820  177.6870  140.0820 C   0  0  0  0  0  3  0  0  0  0  0  0
  189.9450  176.7670  143.7250 N   0  0  0  0  0  0  0  0  0  0  0  0
  189.7040  176.9520  145.1590 C   0  0  2  0  0  3  0  0  0  0  0  0
  188.7480  177.0380  143.0240 C   0  0  0  0  0  0  0  0  0  0  0  0
  186.7220  177.3020  139.9330 C   0  0  0  0  0  3  0  0  0  0  0  0
  186.2420  177.6470  142.1400 C   0  0  0  0  0  0  0  0  0  0  0  0
  188.2130  177.3510  145.3080 C   0  0  2  0  0  3  0  0  0  0  0  0
  192.0970  176.9440  142.8380 O   0  0  0  0  0  1  0  0  0  0  0  0
  191.0800  176.0430  143.1620 C   0  0  1  0  0  3  0  0  0  0  0  0
  191.5990  174.9920  144.1440 C   0  0  1  0  0  3  0  0  0  0  0  0
  191.2640  173.9100  142.2370 C   0  0  0  0  0  1  0  0  0  0  0  0
  191.4240  173.7110  143.6100 O   0  0  0  0  0  0  0  0  0  0  0  0
  193.2520  175.7940  145.7430 N   0  0  0  0  0  1  0  0  0  0  0  0
  193.0780  175.2260  144.4180 C   0  0  0  0  0  2  0  0  0  0  0  0
  187.4710  176.2800  146.0530 C   0  0  0  0  0  3  0  0  0  0  0  0
  186.4440  176.5220  146.8780 C   0  0  0  0  0  3  0  0  0  0  0  0
  185.9160  177.8940  147.1620 C   0  0  0  0  0  2  0  0  0  0  0  0
  184.4270  177.9500  146.8850 C   0  0  0  0  0  2  0  0  0  0  0  0
  184.1700  178.8380  145.6880 C   0  0  0  0  0  2  0  0  0  0  0  0
  185.3340  179.7900  145.5070 C   0  0  0  0  0  2  0  0  0  0  0  0
  185.2110  180.4470  144.2840 O   0  0  0  0  0  1  0  0  0  0  0  0
  182.7290  178.2830  141.2120 N   0  0  0  0  0  2  0  0  0  0  0  0
  183.7860  178.3040  141.9540 C   0  0  0  0  0  3  0  0  0  0  0  0
  1  5  2  0  0  0  0
  1 12  1  0  0  0  0
  3 13  1  0  0  0  0
  4  3  1  0  0  0  0
  5 10  1  0  0  0  0
  6 29  1  0  0  0  0
  6 12  2  0  0  0  0
  7  6  1  0  0  0  0
  8  9  1  0  0  0  0
  9 13  1  0  0  0  0
  9  2  1  6  0  0  0
 10  8  1  0  0  0  0
 10  3  2  0  0  0  0
 11  7  2  0  0  0  0
 11  1  1  0  0  0  0
 12  4  1  0  0  0  0
 13 21  1  1  0  0  0
 15 14  1  1  0  0  0
 15  8  1  0  0  0  0
 15 16  1  0  0  0  0
 16 20  1  6  0  0  0
 17 18  1  0  0  0  0
 18 16  1  0  0  0  0
 20 19  1  0  0  0  0
 21 22  2  0  0  0  0
 22 23  1  0  0  0  0
 24 23  1  0  0  0  0
 25 24  1  0  0  0  0
 26 25  1  0  0  0  0
 27 26  1  0  0  0  0
 28 29  2  0  0  0  0
M  END
>  <MODEL>
6

>  <REMARK>
 VINA RESULT:      -5.9      2.824      5.467
  Name = 
  10 active torsions:
  status: ('A' for Active; 'I' for Inactive)
    1  A    between atoms: C_1  and  C_26
    2  A    between atoms: C_8  and  C_27
    3  A    between atoms: C_9  and  C_10
    4  A    between atoms: C_9  and  N_14
    5  A    between atoms: C_10  and  O_25
    6  A    between atoms: C_10  and  C_28
    7  A    between atoms: C_11  and  C_16
    8  A    between atoms: C_21  and  C_24
    9  A    between atoms: C_21  and  C_29
   10  A    between atoms: C_26  and  C_29
                            x       y       z     vdW  Elec       q    Type
                         _______ _______ _______ _____ _____    ______ ____

>  <TORSDO>
F 10

$$$$
=
 OpenBabel11042416523D

 29 31  0  0  1  0  0  0  0  0999 V2000
  186.3060  178.2080  144.6720 C   0  0  0  0  0  0  0  0  0  0  0  0
  189.2540  173.5400  144.1720 O   0  0  0  0  0  1  0  0  0  0  0  0
  187.3120  176.0830  143.2610 C   0  0  0  0  0  0  0  0  0  0  0  0
  186.1380  176.6190  142.8150 N   0  0  0  0  0  0  0  0  0  0  0  0
  187.5050  177.6570  145.1200 C   0  0  0  0  0  3  0  0  0  0  0  0
  184.4980  178.4050  143.3130 C   0  0  0  0  0  0  0  0  0  0  0  0
  184.4440  179.3790  144.3090 C   0  0  0  0  0  3  0  0  0  0  0  0
  189.1670  175.8350  144.6040 N   0  0  0  0  0  0  0  0  0  0  0  0
  189.2910  174.8000  143.5740 C   0  0  2  0  0  3  0  0  0  0  0  0
  187.9810  176.5680  144.3710 C   0  0  0  0  0  0  0  0  0  0  0  0
  185.5600  179.2620  145.1520 C   0  0  0  0  0  2  0  0  0  0  0  0
  185.6380  177.6690  143.5170 C   0  0  0  0  0  0  0  0  0  0  0  0
  188.0650  174.9590  142.6370 C   0  0  2  0  0  3  0  0  0  0  0  0
  190.1970  175.6360  146.6890 O   0  0  0  0  0  1  0  0  0  0  0  0
  190.2590  176.2920  145.4570 C   0  0  1  0  0  3  0  0  0  0  0  0
  191.6130  176.0390  144.7920 C   0  0  1  0  0  3  0  0  0  0  0  0
  191.5660  177.9400  143.6520 C   0  0  0  0  0  1  0  0  0  0  0  0
  192.2950  177.2480  144.6210 O   0  0  0  0  0  0  0  0  0  0  0  0
  192.6410  173.8380  144.9800 N   0  0  0  0  0  1  0  0  0  0  0  0
  192.4490  175.1070  145.6590 C   0  0  0  0  0  2  0  0  0  0  0  0
  188.5210  175.3640  141.2660 C   0  0  0  0  0  3  0  0  0  0  0  0
  188.6220  174.5170  140.2340 C   0  0  0  0  0  3  0  0  0  0  0  0
  188.2970  173.0590  140.3270 C   0  0  0  0  0  2  0  0  0  0  0  0
  188.5380  172.3830  138.9910 C   0  0  0  0  0  2  0  0  0  0  0  0
  188.5650  173.4270  137.8960 C   0  0  0  0  0  2  0  0  0  0  0  0
  189.6760  173.1040  136.9190 C   0  0  0  0  0  2  0  0  0  0  0  0
  190.3910  174.2650  136.6290 O   0  0  0  0  0  1  0  0  0  0  0  0
  183.8160  178.3040  141.0070 N   0  0  0  0  0  2  0  0  0  0  0  0
  183.4950  178.2330  142.2560 C   0  0  0  0  0  3  0  0  0  0  0  0
  1  5  1  0  0  0  0
  1 11  1  0  0  0  0
  3 10  1  0  0  0  0
  4  3  2  0  0  0  0
  4 12  1  0  0  0  0
  6 12  1  0  0  0  0
  6  7  2  0  0  0  0
  7 11  1  0  0  0  0
  8 15  1  0  0  0  0
  9  2  1  1  0  0  0
  9  8  1  0  0  0  0
 10  8  1  0  0  0  0
 10  5  2  0  0  0  0
 12  1  2  0  0  0  0
 13 21  1  6  0  0  0
 13  3  1  0  0  0  0
 13  9  1  0  0  0  0
 15 14  1  1  0  0  0
 16 15  1  0  0  0  0
 16 20  1  1  0  0  0
 17 18  1  0  0  0  0
 18 16  1  0  0  0  0
 19 20  1  0  0  0  0
 22 23  1  0  0  0  0
 22 21  2  0  0  0  0
 24 23  1  0  0  0  0
 25 24  1  0  0  0  0
 26 25  1  0  0  0  0
 27 26  1  0  0  0  0
 28 29  2  0  0  0  0
 29  6  1  0  0  0  0
M  END
>  <MODEL>
7

>  <REMARK>
 VINA RESULT:      -5.9      2.490      5.859
  Name = 
  10 active torsions:
  status: ('A' for Active; 'I' for Inactive)
    1  A    between atoms: C_1  and  C_26
    2  A    between atoms: C_8  and  C_27
    3  A    between atoms: C_9  and  C_10
    4  A    between atoms: C_9  and  N_14
    5  A    between atoms: C_10  and  O_25
    6  A    between atoms: C_10  and  C_28
    7  A    between atoms: C_11  and  C_16
    8  A    between atoms: C_21  and  C_24
    9  A    between atoms: C_21  and  C_29
   10  A    between atoms: C_26  and  C_29
                            x       y       z     vdW  Elec       q    Type
                         _______ _______ _______ _____ _____    ______ ____

>  <TORSDO>
F 10

$$$$
=
 OpenBabel11042416523D

 29 31  0  0  1  0  0  0  0  0999 V2000
  189.6180  176.6440  145.8350 C   0  0  0  0  0  0  0  0  0  0  0  0
  187.9520  175.6980  140.6320 O   0  0  0  0  0  1  0  0  0  0  0  0
  189.3960  175.1110  143.5730 C   0  0  0  0  0  0  0  0  0  0  0  0
  190.4780  174.8780  144.3720 N   0  0  0  0  0  2  0  0  0  0  0  0
  188.5160  176.8760  145.0150 C   0  0  0  0  0  3  0  0  0  0  0  0
  191.5500  175.6340  146.4710 C   0  0  0  0  0  0  0  0  0  0  0  0
  191.1980  176.6060  147.4070 C   0  0  0  0  0  3  0  0  0  0  0  0
  187.4350  176.0980  142.8770 N   0  0  0  0  0  0  0  0  0  0  0  0
  187.7390  175.0820  141.8650 C   0  0  2  0  0  3  0  0  0  0  0  0
  188.4450  176.0720  143.8650 C   0  0  0  0  0  0  0  0  0  0  0  0
  190.0040  177.2330  147.0190 C   0  0  0  0  0  3  0  0  0  0  0  0
  190.5900  175.6400  145.4900 C   0  0  0  0  0  0  0  0  0  0  0  0
  189.0450  174.3810  142.3220 C   0  0  2  0  0  3  0  0  0  0  0  0
  185.6810  176.5210  144.3590 O   0  0  0  0  0  1  0  0  0  0  0  0
  186.1300  176.7300  143.0520 C   0  0  1  0  0  3  0  0  0  0  0  0
  186.2050  178.2270  142.7520 C   0  0  1  0  0  3  0  0  0  0  0  0
  184.8970  178.1770  140.9620 C   0  0  0  0  0  1  0  0  0  0  0  0
  186.2070  178.4390  141.3690 O   0  0  0  0  0  0  0  0  0  0  0  0
  185.4600  180.0320  144.2100 N   0  0  0  0  0  1  0  0  0  0  0  0
  185.0080  178.9380  143.3690 C   0  0  0  0  0  2  0  0  0  0  0  0
  188.7650  172.9430  142.6470 C   0  0  0  0  0  3  0  0  0  0  0  0
  189.5220  171.9230  142.2230 C   0  0  0  0  0  3  0  0  0  0  0  0
  190.7390  172.0960  141.3670 C   0  0  0  0  0  2  0  0  0  0  0  0
  190.4070  171.7940  139.9190 C   0  0  0  0  0  2  0  0  0  0  0  0
  190.2940  173.0910  139.1470 C   0  0  0  0  0  2  0  0  0  0  0  0
  189.0250  173.0780  138.3210 C   0  0  0  0  0  2  0  0  0  0  0  0
  187.9610  172.6470  139.1130 O   0  0  0  0  0  1  0  0  0  0  0  0
  193.6890  174.8600  145.6840 N   0  0  0  0  0  2  0  0  0  0  0  0
  192.7410  174.7810  146.5570 C   0  0  0  0  0  3  0  0  0  0  0  0
  1 11  1  0  0  0  0
  3 10  2  0  0  0  0
  3  4  1  0  0  0  0
  4 12  1  0  0  0  0
  5  1  2  0  0  0  0
  6 29  1  0  0  0  0
  6  7  1  0  0  0  0
  8 15  1  0  0  0  0
  8 10  1  0  0  0  0
  9  2  1  6  0  0  0
  9 13  1  0  0  0  0
  9  8  1  0  0  0  0
 10  5  1  0  0  0  0
 11  7  2  0  0  0  0
 12  1  1  0  0  0  0
 12  6  2  0  0  0  0
 13 21  1  1  0  0  0
 13  3  1  0  0  0  0
 15 14  1  1  0  0  0
 16 15  1  0  0  0  0
 16 20  1  1  0  0  0
 17 18  1  0  0  0  0
 18 16  1  0  0  0  0
 20 19  1  0  0  0  0
 22 21  2  0  0  0  0
 23 22  1  0  0  0  0
 24 23  1  0  0  0  0
 25 24  1  0  0  0  0
 26 27  1  0  0  0  0
 26 25  1  0  0  0  0
 28 29  2  0  0  0  0
M  END
>  <MODEL>
8

>  <REMARK>
 VINA RESULT:      -5.8      2.802      6.332
  Name = 
  10 active torsions:
  status: ('A' for Active; 'I' for Inactive)
    1  A    between atoms: C_1  and  C_26
    2  A    between atoms: C_8  and  C_27
    3  A    between atoms: C_9  and  C_10
    4  A    between atoms: C_9  and  N_14
    5  A    between atoms: C_10  and  O_25
    6  A    between atoms: C_10  and  C_28
    7  A    between atoms: C_11  and  C_16
    8  A    between atoms: C_21  and  C_24
    9  A    between atoms: C_21  and  C_29
   10  A    between atoms: C_26  and  C_29
                            x       y       z     vdW  Elec       q    Type
                         _______ _______ _______ _____ _____    ______ ____

>  <TORSDO>
F 10

$$$$
=
 OpenBabel11042416523D

 29 31  0  0  1  0  0  0  0  0999 V2000
  188.3870  175.8360  142.2430 C   0  0  0  0  0  0  0  0  0  0  0  0
  190.5750  176.8060  147.2430 O   0  0  0  0  0  1  0  0  0  0  0  0
  188.2460  176.5810  144.8780 C   0  0  0  0  0  0  0  0  0  0  0  0
  187.3120  177.1130  144.0360 N   0  0  0  0  0  0  0  0  0  0  0  0
  189.3360  175.2970  143.1080 C   0  0  0  0  0  3  0  0  0  0  0  0
  186.5950  177.1070  141.6660 C   0  0  0  0  0  0  0  0  0  0  0  0
  187.0850  176.4470  140.5400 C   0  0  0  0  0  3  0  0  0  0  0  0
  190.0560  175.3120  145.5220 N   0  0  0  0  0  0  0  0  0  0  0  0
  189.5810  175.9620  146.7470 C   0  0  2  0  0  3  0  0  0  0  0  0
  189.2300  175.7100  144.4470 C   0  0  0  0  0  0  0  0  0  0  0  0
  188.1910  175.6590  140.8900 C   0  0  0  0  0  3  0  0  0  0  0  0
  187.3840  176.7470  142.7300 C   0  0  2  0  0  3  0  0  0  0  0  0
  188.3440  176.8060  146.3470 C   0  0  2  0  0  3  0  0  0  0  0  0
  190.2690  173.0560  144.9560 O   0  0  0  0  0  1  0  0  0  0  0  0
  190.9470  174.1560  145.4880 C   0  0  1  0  0  3  0  0  0  0  0  0
  192.1980  174.4560  144.6610 C   0  0  1  0  0  3  0  0  0  0  0  0
  192.9730  176.4130  143.9630 C   0  0  0  0  0  1  0  0  0  0  0  0
  192.7970  175.6370  145.1110 O   0  0  0  0  0  0  0  0  0  0  0  0
  193.5160  172.7870  143.4720 N   0  0  0  0  0  1  0  0  0  0  0  0
  193.1900  173.3080  144.7880 C   0  0  0  0  0  2  0  0  0  0  0  0
  187.1170  176.2610  147.0170 C   0  0  0  0  0  3  0  0  0  0  0  0
  186.1360  177.0270  147.5120 C   0  0  0  0  0  3  0  0  0  0  0  0
  186.1490  178.5230  147.4600 C   0  0  0  0  0  2  0  0  0  0  0  0
  184.8060  179.0430  146.9840 C   0  0  0  0  0  2  0  0  0  0  0  0
  184.4410  178.3710  145.6780 C   0  0  0  0  0  2  0  0  0  0  0  0
  184.3260  179.4170  144.5880 C   0  0  0  0  0  2  0  0  0  0  0  0
  185.5500  180.0670  144.4380 O   0  0  0  0  0  1  0  0  0  0  0  0
  184.5790  178.0070  140.7080 N   0  0  0  0  0  2  0  0  0  0  0  0
  185.4420  178.0150  141.6700 C   0  0  0  0  0  3  0  0  0  0  0  0
  1 12  1  0  0  0  0
  1  5  1  0  0  0  0
  3 13  1  0  0  0  0
  4  3  2  0  0  0  0
  5 10  2  0  0  0  0
  6 29  1  0  0  0  0
  7 11  1  0  0  0  0
  7  6  2  0  0  0  0
  8  9  1  0  0  0  0
  9  2  1  6  0  0  0
 10  3  1  0  0  0  0
 10  8  1  0  0  0  0
 11  1  2  0  0  0  0
 12  6  1  1  0  0  0
 12  4  1  0  0  0  0
 13  9  1  0  0  0  0
 13 21  1  1  0  0  0
 15 14  1  6  0  0  0
 15  8  1  0  0  0  0
 16 20  1  1  0  0  0
 16 18  1  0  0  0  0
 16 15  1  0  0  0  0
 17 18  1  0  0  0  0
 19 20  1  0  0  0  0
 21 22  2  0  0  0  0
 23 22  1  0  0  0  0
 24 23  1  0  0  0  0
 25 24  1  0  0  0  0
 26 25  1  0  0  0  0
 27 26  1  0  0  0  0
 28 29  2  0  0  0  0
M  END
>  <MODEL>
9

>  <REMARK>
 VINA RESULT:      -5.8      2.649      5.747
  Name = 
  10 active torsions:
  status: ('A' for Active; 'I' for Inactive)
    1  A    between atoms: C_1  and  C_26
    2  A    between atoms: C_8  and  C_27
    3  A    between atoms: C_9  and  C_10
    4  A    between atoms: C_9  and  N_14
    5  A    between atoms: C_10  and  O_25
    6  A    between atoms: C_10  and  C_28
    7  A    between atoms: C_11  and  C_16
    8  A    between atoms: C_21  and  C_24
    9  A    between atoms: C_21  and  C_29
   10  A    between atoms: C_26  and  C_29
                            x       y       z     vdW  Elec       q    Type
                         _______ _______ _______ _____ _____    ______ ____

>  <TORSDO>
F 10

$$$$
