=
 OpenBabel11042418523D

 26 29  0  0  1  0  0  0  0  0999 V2000
  185.9670  177.2310  145.0190 C   0  0  0  0  0  0  0  0  0  0  0  0
  189.6010  174.7950  142.0920 C   0  0  1  0  0  3  0  0  0  0  0  0
  191.7300  174.1970  143.2870 N   0  0  0  0  0  2  0  0  0  0  0  0
  189.1070  175.1280  143.4360 N   0  0  0  0  0  0  0  0  0  0  0  0
  187.9940  175.7880  143.8380 C   0  0  0  0  0  0  0  0  0  0  0  0
  191.1890  174.6470  144.5330 C   0  0  0  0  0  0  0  0  0  0  0  0
  189.9940  175.8590  146.8110 C   0  0  0  0  0  3  0  0  0  0  0  0
  185.9120  176.8970  143.6900 N   0  0  0  0  0  0  0  0  0  0  0  0
  186.9040  176.1910  143.0710 C   0  0  0  0  0  3  0  0  0  0  0  0
  191.9350  174.7820  145.7300 C   0  0  0  0  0  0  0  0  0  0  0  0
  189.2960  175.6780  145.6200 C   0  0  0  0  0  0  0  0  0  0  0  0
  191.3280  175.3950  146.8560 C   0  0  0  0  0  3  0  0  0  0  0  0
  188.0670  176.1210  145.1780 C   0  0  0  0  0  0  0  0  0  0  0  0
  187.0710  176.8580  145.8070 C   0  0  0  0  0  3  0  0  0  0  0  0
  190.8360  173.8610  142.1670 C   0  0  0  0  0  2  0  0  0  0  0  0
  189.8830  175.0870  144.5310 C   0  0  0  0  0  0  0  0  0  0  0  0
  195.7370  174.7580  145.9590 N   0  0  0  0  0  1  0  0  0  0  0  0
  194.4410  175.2060  145.5780 C   0  0  0  0  0  0  0  0  0  0  0  0
  193.3050  174.3730  145.8310 N   0  0  0  0  0  2  0  0  0  0  0  0
  194.3170  176.3040  144.9740 O   0  0  0  0  0  0  0  0  0  0  0  0
  183.9960  178.6150  146.1050 C   0  0  0  0  0  3  0  0  0  0  0  0
  184.8960  177.9830  145.6090 C   0  0  0  0  0  0  0  0  0  0  0  0
  188.5130  174.1470  141.2430 C   0  0  0  0  0  2  0  0  0  0  0  0
  188.2980  174.8830  140.0750 O   0  0  0  0  0  0  0  0  0  0  0  0
  188.5910  173.9940  139.0420 C   0  0  0  0  0  2  0  0  0  0  0  0
  188.0850  172.6760  139.3780 N   0  0  0  0  0  1  0  0  0  0  0  0
  1 22  1  0  0  0  0
  1 14  1  0  0  0  0
  2 23  1  6  0  0  0
  2 15  1  0  0  0  0
  2  4  1  0  0  0  0
  3  6  1  0  0  0  0
  4  5  1  0  0  0  0
  4 16  1  0  0  0  0
  5 13  1  0  0  0  0
  6 10  1  0  0  0  0
  7 12  1  0  0  0  0
  8  1  2  0  0  0  0
  9  8  1  0  0  0  0
  9  5  2  0  0  0  0
 10 19  1  0  0  0  0
 10 12  2  0  0  0  0
 11  7  2  0  0  0  0
 13 11  1  0  0  0  0
 13 14  2  0  0  0  0
 15  3  1  0  0  0  0
 16  6  2  0  0  0  0
 16 11  1  0  0  0  0
 18 19  1  0  0  0  0
 18 17  1  0  0  0  0
 20 18  2  0  0  0  0
 22 21  3  0  0  0  0
 24 23  1  0  0  0  0
 25 26  1  0  0  0  0
 25 24  1  0  0  0  0
M  END
>  <MODEL>
1

>  <REMARK>
 VINA RESULT:      -6.5      0.000      0.000
  Name = 
  5 active torsions:
  status: ('A' for Active; 'I' for Inactive)
    1  A    between atoms: C_1  and  C_19
    2  A    between atoms: C_2  and  C_25
    3  A    between atoms: C_11  and  N_21
    4  A    between atoms: C_14  and  O_18
    5  A    between atoms: O_18  and  C_25
                            x       y       z     vdW  Elec       q    Type
                         _______ _______ _______ _____ _____    ______ ____

>  <TORSDO>
F 5

$$$$
=
 OpenBabel11042418523D

 26 29  0  0  1  0  0  0  0  0999 V2000
  186.4350  177.2440  145.6280 C   0  0  0  0  0  0  0  0  0  0  0  0
  190.2380  175.5510  142.4070 C   0  0  1  0  0  3  0  0  0  0  0  0
  192.5060  175.2840  143.4560 N   0  0  0  0  0  2  0  0  0  0  0  0
  189.7790  175.7520  143.7890 N   0  0  0  0  0  0  0  0  0  0  0  0
  188.5980  176.2020  144.2780 C   0  0  0  0  0  0  0  0  0  0  0  0
  191.9750  175.5970  144.7480 C   0  0  0  0  0  0  0  0  0  0  0  0
  190.7360  176.5170  147.1370 C   0  0  0  0  0  3  0  0  0  0  0  0
  186.3550  176.9480  144.2910 N   0  0  0  0  0  0  0  0  0  0  0  0
  187.4110  176.4390  143.5900 C   0  0  0  0  0  3  0  0  0  0  0  0
  192.7600  175.8170  145.9070 C   0  0  0  0  0  0  0  0  0  0  0  0
  190.0060  176.2580  145.9790 C   0  0  0  0  0  0  0  0  0  0  0  0
  192.1290  176.2840  147.0890 C   0  0  0  0  0  3  0  0  0  0  0  0
  188.6960  176.5000  145.6240 C   0  0  0  0  0  0  0  0  0  0  0  0
  187.6310  177.0380  146.3370 C   0  0  0  0  0  3  0  0  0  0  0  0
  191.6130  174.8370  142.3750 C   0  0  0  0  0  2  0  0  0  0  0  0
  190.6160  175.8090  144.8360 C   0  0  0  0  0  0  0  0  0  0  0  0
  196.2750  174.4120  145.4870 N   0  0  0  0  0  1  0  0  0  0  0  0
  194.8700  174.4060  145.7100 C   0  0  0  0  0  0  0  0  0  0  0  0
  194.1830  175.6440  145.9150 N   0  0  0  0  0  2  0  0  0  0  0  0
  194.2580  173.3070  145.7780 O   0  0  0  0  0  0  0  0  0  0  0  0
  184.3310  178.2400  146.8770 C   0  0  0  0  0  3  0  0  0  0  0  0
  185.2920  177.7850  146.3070 C   0  0  0  0  0  0  0  0  0  0  0  0
  189.2230  174.7550  141.5930 C   0  0  0  0  0  2  0  0  0  0  0  0
  189.6300  173.4250  141.4660 O   0  0  0  0  0  0  0  0  0  0  0  0
  188.6010  172.6860  142.0470 C   0  0  0  0  0  2  0  0  0  0  0  0
  189.0880  172.0420  143.2530 N   0  0  0  0  0  1  0  0  0  0  0  0
  1 22  1  0  0  0  0
  1 14  1  0  0  0  0
  2 23  1  6  0  0  0
  2  4  1  0  0  0  0
  3  6  1  0  0  0  0
  4  5  1  0  0  0  0
  4 16  1  0  0  0  0
  5 13  1  0  0  0  0
  6 16  2  0  0  0  0
  6 10  1  0  0  0  0
  8  1  2  0  0  0  0
  9  5  2  0  0  0  0
  9  8  1  0  0  0  0
 10 19  1  0  0  0  0
 10 12  2  0  0  0  0
 11  7  2  0  0  0  0
 12  7  1  0  0  0  0
 13 11  1  0  0  0  0
 13 14  2  0  0  0  0
 15  2  1  0  0  0  0
 15  3  1  0  0  0  0
 16 11  1  0  0  0  0
 17 18  1  0  0  0  0
 18 20  2  0  0  0  0
 18 19  1  0  0  0  0
 22 21  3  0  0  0  0
 24 23  1  0  0  0  0
 24 25  1  0  0  0  0
 25 26  1  0  0  0  0
M  END
>  <MODEL>
2

>  <REMARK>
 VINA RESULT:      -6.3      1.544      1.597
  Name = 
  5 active torsions:
  status: ('A' for Active; 'I' for Inactive)
    1  A    between atoms: C_1  and  C_19
    2  A    between atoms: C_2  and  C_25
    3  A    between atoms: C_11  and  N_21
    4  A    between atoms: C_14  and  O_18
    5  A    between atoms: O_18  and  C_25
                            x       y       z     vdW  Elec       q    Type
                         _______ _______ _______ _____ _____    ______ ____

>  <TORSDO>
F 5

$$$$
=
 OpenBabel11042418523D

 26 29  0  0  1  0  0  0  0  0999 V2000
  190.5560  177.1580  147.5900 C   0  0  0  0  0  0  0  0  0  0  0  0
  188.8320  174.7430  143.2430 C   0  0  1  0  0  3  0  0  0  0  0  0
  186.7240  175.6820  142.2460 N   0  0  0  0  0  2  0  0  0  0  0  0
  188.7880  175.9360  144.1010 N   0  0  0  0  0  0  0  0  0  0  0  0
  189.4870  176.2540  145.2180 C   0  0  0  0  0  0  0  0  0  0  0  0
  186.7180  176.7510  143.2000 C   0  0  0  0  0  0  0  0  0  0  0  0
  186.7770  178.5960  145.3620 C   0  0  0  0  0  3  0  0  0  0  0  0
  191.0940  176.0760  146.9430 N   0  0  0  0  0  0  0  0  0  0  0  0
  190.5830  175.5970  145.7700 C   0  0  0  0  0  3  0  0  0  0  0  0
  185.6490  177.6650  143.3730 C   0  0  0  0  0  0  0  0  0  0  0  0
  187.8140  177.6960  145.1310 C   0  0  0  0  0  0  0  0  0  0  0  0
  185.6890  178.5740  144.4620 C   0  0  0  0  0  3  0  0  0  0  0  0
  188.9290  177.3440  145.8620 C   0  0  0  0  0  0  0  0  0  0  0  0
  189.4320  177.8220  147.0660 C   0  0  0  0  0  3  0  0  0  0  0  0
  187.9650  174.9390  141.9730 C   0  0  0  0  0  2  0  0  0  0  0  0
  187.7750  176.8150  144.0810 C   0  0  0  0  0  0  0  0  0  0  0  0
  183.3320  177.7880  140.3530 N   0  0  0  0  0  1  0  0  0  0  0  0
  184.4740  178.0740  141.1520 C   0  0  0  0  0  0  0  0  0  0  0  0
  184.4950  177.6670  142.5230 N   0  0  0  0  0  2  0  0  0  0  0  0
  185.4290  178.7290  140.6560 O   0  0  0  0  0  0  0  0  0  0  0  0
  191.6180  177.9870  149.8620 C   0  0  0  0  0  3  0  0  0  0  0  0
  191.1330  177.6080  148.8250 C   0  0  0  0  0  0  0  0  0  0  0  0
  190.2620  174.3960  142.8440 C   0  0  0  0  0  2  0  0  0  0  0  0
  190.8730  175.4800  142.2090 O   0  0  0  0  0  0  0  0  0  0  0  0
  192.2390  175.2200  142.3060 C   0  0  0  0  0  2  0  0  0  0  0  0
  192.9010  176.3400  142.9490 N   0  0  0  0  0  1  0  0  0  0  0  0
  1 22  1  0  0  0  0
  2 23  1  6  0  0  0
  2  4  1  0  0  0  0
  3  6  1  0  0  0  0
  4  5  1  0  0  0  0
  5  9  2  0  0  0  0
  5 13  1  0  0  0  0
  6 10  2  0  0  0  0
  6 16  1  0  0  0  0
  8  1  2  0  0  0  0
  9  8  1  0  0  0  0
 10 12  1  0  0  0  0
 11  7  1  0  0  0  0
 11 13  1  0  0  0  0
 12  7  2  0  0  0  0
 13 14  2  0  0  0  0
 14  1  1  0  0  0  0
 15  3  1  0  0  0  0
 15  2  1  0  0  0  0
 16  4  1  0  0  0  0
 16 11  2  0  0  0  0
 17 18  1  0  0  0  0
 18 19  1  0  0  0  0
 19 10  1  0  0  0  0
 20 18  2  0  0  0  0
 22 21  3  0  0  0  0
 24 25  1  0  0  0  0
 24 23  1  0  0  0  0
 25 26  1  0  0  0  0
M  END
>  <MODEL>
3

>  <REMARK>
 VINA RESULT:      -6.2      2.372      6.334
  Name = 
  5 active torsions:
  status: ('A' for Active; 'I' for Inactive)
    1  A    between atoms: C_1  and  C_19
    2  A    between atoms: C_2  and  C_25
    3  A    between atoms: C_11  and  N_21
    4  A    between atoms: C_14  and  O_18
    5  A    between atoms: O_18  and  C_25
                            x       y       z     vdW  Elec       q    Type
                         _______ _______ _______ _____ _____    ______ ____

>  <TORSDO>
F 5

$$$$
=
 OpenBabel11042418523D

 26 29  0  0  1  0  0  0  0  0999 V2000
  193.1650  174.9970  144.9580 C   0  0  0  0  0  0  0  0  0  0  0  0
  188.4850  174.9090  142.5530 C   0  0  1  0  0  3  0  0  0  0  0  0
  186.6430  176.1570  143.7230 N   0  0  0  0  0  2  0  0  0  0  0  0
  189.3560  175.5450  143.5510 N   0  0  0  0  0  0  0  0  0  0  0  0
  190.6490  175.3090  143.8830 C   0  0  0  0  0  0  0  0  0  0  0  0
  187.5610  176.6400  144.7100 C   0  0  0  0  0  0  0  0  0  0  0  0
  189.5150  177.2290  146.6900 C   0  0  0  0  0  3  0  0  0  0  0  0
  192.8160  174.3690  143.7900 N   0  0  0  0  0  0  0  0  0  0  0  0
  191.5740  174.4960  143.2350 C   0  0  0  0  0  3  0  0  0  0  0  0
  187.1830  177.3330  145.8870 C   0  0  0  0  0  0  0  0  0  0  0  0
  189.8390  176.5750  145.5040 C   0  0  0  0  0  0  0  0  0  0  0  0
  188.1680  177.6130  146.8690 C   0  0  0  0  0  3  0  0  0  0  0  0
  190.9840  175.9440  145.0650 C   0  0  0  0  0  0  0  0  0  0  0  0
  192.2390  175.8020  145.6440 C   0  0  0  0  0  3  0  0  0  0  0  0
  187.1370  175.6660  142.4270 C   0  0  0  0  0  2  0  0  0  0  0  0
  188.8880  176.3020  144.5560 C   0  0  0  0  0  0  0  0  0  0  0  0
  183.7230  178.9160  145.6960 N   0  0  0  0  0  1  0  0  0  0  0  0
  185.1330  178.8040  145.5400 C   0  0  0  0  0  0  0  0  0  0  0  0
  185.8260  177.7120  146.1520 N   0  0  0  0  0  2  0  0  0  0  0  0
  185.7600  179.6960  144.9100 O   0  0  0  0  0  0  0  0  0  0  0  0
  195.5930  174.6660  145.9460 C   0  0  0  0  0  3  0  0  0  0  0  0
  194.4850  174.8170  145.4950 C   0  0  0  0  0  0  0  0  0  0  0  0
  189.1630  174.8300  141.1890 C   0  0  0  0  0  2  0  0  0  0  0  0
  188.2230  174.9640  140.1650 O   0  0  0  0  0  0  0  0  0  0  0  0
  188.5000  173.9110  139.2940 C   0  0  0  0  0  2  0  0  0  0  0  0
  188.1460  174.2960  137.9400 N   0  0  0  0  0  1  0  0  0  0  0  0
  1 22  1  0  0  0  0
  1 14  1  0  0  0  0
  2 23  1  6  0  0  0
  2  4  1  0  0  0  0
  3  6  1  0  0  0  0
  4  5  1  0  0  0  0
  4 16  1  0  0  0  0
  5 13  1  0  0  0  0
  6 10  1  0  0  0  0
  7 12  1  0  0  0  0
  8  1  2  0  0  0  0
  9  8  1  0  0  0  0
  9  5  2  0  0  0  0
 10 19  1  0  0  0  0
 10 12  2  0  0  0  0
 11  7  2  0  0  0  0
 13 11  1  0  0  0  0
 13 14  2  0  0  0  0
 15  2  1  0  0  0  0
 15  3  1  0  0  0  0
 16  6  2  0  0  0  0
 16 11  1  0  0  0  0
 18 17  1  0  0  0  0
 18 19  1  0  0  0  0
 20 18  2  0  0  0  0
 22 21  3  0  0  0  0
 24 23  1  0  0  0  0
 25 24  1  0  0  0  0
 26 25  1  0  0  0  0
M  END
>  <MODEL>
4

>  <REMARK>
 VINA RESULT:      -6.2      2.044      6.095
  Name = 
  5 active torsions:
  status: ('A' for Active; 'I' for Inactive)
    1  A    between atoms: C_1  and  C_19
    2  A    between atoms: C_2  and  C_25
    3  A    between atoms: C_11  and  N_21
    4  A    between atoms: C_14  and  O_18
    5  A    between atoms: O_18  and  C_25
                            x       y       z     vdW  Elec       q    Type
                         _______ _______ _______ _____ _____    ______ ____

>  <TORSDO>
F 5

$$$$
=
 OpenBabel11042418523D

 26 29  0  0  1  0  0  0  0  0999 V2000
  187.0020  177.4280  146.1030 C   0  0  0  0  0  0  0  0  0  0  0  0
  191.7160  175.4960  144.7800 C   0  0  1  0  0  3  0  0  0  0  0  0
  191.7900  174.2020  142.6270 N   0  0  0  0  0  2  0  0  0  0  0  0
  190.3560  175.8560  144.3520 N   0  0  0  0  0  0  0  0  0  0  0  0
  189.3380  176.4440  145.0250 C   0  0  0  0  0  0  0  0  0  0  0  0
  190.4220  174.5250  142.3550 C   0  0  0  0  0  0  0  0  0  0  0  0
  187.6350  175.0660  142.1880 C   0  0  0  0  0  3  0  0  0  0  0  0
  188.1870  177.5220  146.7860 N   0  0  0  0  0  0  0  0  0  0  0  0
  189.3620  177.0370  146.2840 C   0  0  0  0  0  3  0  0  0  0  0  0
  189.6570  173.9600  141.3040 C   0  0  0  0  0  0  0  0  0  0  0  0
  188.4370  175.6190  143.1840 C   0  0  0  0  0  0  0  0  0  0  0  0
  188.2670  174.2330  141.2380 C   0  0  0  0  0  3  0  0  0  0  0  0
  188.1500  176.3360  144.3260 C   0  0  0  0  0  0  0  0  0  0  0  0
  186.9490  176.8090  144.8420 C   0  0  0  0  0  3  0  0  0  0  0  0
  192.5680  175.0100  143.5790 C   0  0  0  0  0  2  0  0  0  0  0  0
  189.7800  175.3530  143.2490 C   0  0  0  0  0  0  0  0  0  0  0  0
  190.6830  170.8610  139.3400 N   0  0  0  0  0  1  0  0  0  0  0  0
  190.3390  171.6510  140.4720 C   0  0  0  0  0  0  0  0  0  0  0  0
  190.2260  173.0700  140.3330 N   0  0  0  0  0  2  0  0  0  0  0  0
  190.1910  171.0970  141.5930 O   0  0  0  0  0  0  0  0  0  0  0  0
  184.7900  178.3890  147.1800 C   0  0  0  0  0  3  0  0  0  0  0  0
  185.8000  177.9500  146.6890 C   0  0  0  0  0  0  0  0  0  0  0  0
  192.4120  176.6660  145.4680 C   0  0  0  0  0  2  0  0  0  0  0  0
  192.9070  176.2790  146.7150 O   0  0  0  0  0  0  0  0  0  0  0  0
  194.2910  176.2660  146.5540 C   0  0  0  0  0  2  0  0  0  0  0  0
  194.6990  177.4160  145.7690 N   0  0  0  0  0  1  0  0  0  0  0  0
  1 22  1  0  0  0  0
  1  8  1  0  0  0  0
  2 23  1  6  0  0  0
  3 15  1  0  0  0  0
  4  2  1  0  0  0  0
  4  5  1  0  0  0  0
  5  9  1  0  0  0  0
  6  3  1  0  0  0  0
  6 16  1  0  0  0  0
  7 11  1  0  0  0  0
  9  8  2  0  0  0  0
 10  6  2  0  0  0  0
 11 16  2  0  0  0  0
 11 13  1  0  0  0  0
 12 10  1  0  0  0  0
 12  7  2  0  0  0  0
 13 14  1  0  0  0  0
 13  5  2  0  0  0  0
 14  1  2  0  0  0  0
 15  2  1  0  0  0  0
 16  4  1  0  0  0  0
 17 18  1  0  0  0  0
 18 20  2  0  0  0  0
 19 18  1  0  0  0  0
 19 10  1  0  0  0  0
 22 21  3  0  0  0  0
 23 24  1  0  0  0  0
 25 24  1  0  0  0  0
 26 25  1  0  0  0  0
M  END
>  <MODEL>
5

>  <REMARK>
 VINA RESULT:      -6.1      1.973      5.261
  Name = 
  5 active torsions:
  status: ('A' for Active; 'I' for Inactive)
    1  A    between atoms: C_1  and  C_19
    2  A    between atoms: C_2  and  C_25
    3  A    between atoms: C_11  and  N_21
    4  A    between atoms: C_14  and  O_18
    5  A    between atoms: O_18  and  C_25
                            x       y       z     vdW  Elec       q    Type
                         _______ _______ _______ _____ _____    ______ ____

>  <TORSDO>
F 5

$$$$
=
 OpenBabel11042418523D

 26 29  0  0  1  0  0  0  0  0999 V2000
  183.0580  178.4140  141.6810 C   0  0  0  0  0  0  0  0  0  0  0  0
  188.0810  176.8440  141.6290 C   0  0  1  0  0  3  0  0  0  0  0  0
  189.2030  176.7280  143.8760 N   0  0  0  0  0  2  0  0  0  0  0  0
  186.8550  177.0570  142.4110 N   0  0  0  0  0  0  0  0  0  0  0  0
  185.6160  177.4550  142.0320 C   0  0  0  0  0  0  0  0  0  0  0  0
  187.9730  177.0460  144.5360 C   0  0  0  0  0  0  0  0  0  0  0  0
  185.4900  177.9600  145.5780 C   0  0  0  0  0  3  0  0  0  0  0  0
  183.8380  178.0780  140.6040 N   0  0  0  0  0  0  0  0  0  0  0  0
  185.1130  177.6090  140.7430 C   0  0  0  0  0  3  0  0  0  0  0  0
  187.8550  177.3390  145.9170 C   0  0  0  0  0  0  0  0  0  0  0  0
  185.6500  177.6320  144.2340 C   0  0  0  0  0  0  0  0  0  0  0  0
  186.6120  177.8020  146.4210 C   0  0  0  0  0  3  0  0  0  0  0  0
  184.8440  177.7940  143.1280 C   0  0  0  0  0  0  0  0  0  0  0  0
  183.5540  178.2920  142.9910 C   0  0  0  0  0  3  0  0  0  0  0  0
  189.1930  176.2050  142.5000 C   0  0  0  0  0  2  0  0  0  0  0  0
  186.8520  177.1870  143.7470 C   0  0  0  0  0  0  0  0  0  0  0  0
  190.8190  176.0740  147.9480 N   0  0  0  0  0  1  0  0  0  0  0  0
  189.5730  176.0260  147.2620 C   0  0  0  0  0  0  0  0  0  0  0  0
  188.9650  177.2430  146.8190 N   0  0  0  0  0  2  0  0  0  0  0  0
  188.9950  174.9190  147.1020 O   0  0  0  0  0  0  0  0  0  0  0  0
  180.6100  179.3260  141.2910 C   0  0  0  0  0  3  0  0  0  0  0  0
  181.7280  178.9100  141.4690 C   0  0  0  0  0  0  0  0  0  0  0  0
  187.8190  175.9740  140.4050 C   0  0  0  0  0  2  0  0  0  0  0  0
  188.2020  174.6530  140.6510 O   0  0  0  0  0  0  0  0  0  0  0  0
  188.5030  174.1350  139.3920 C   0  0  0  0  0  2  0  0  0  0  0  0
  188.1960  172.7170  139.3660 N   0  0  0  0  0  1  0  0  0  0  0  0
  1 14  1  0  0  0  0
  2 23  1  6  0  0  0
  2  4  1  0  0  0  0
  2 15  1  0  0  0  0
  3  6  1  0  0  0  0
  4 16  1  0  0  0  0
  5  4  1  0  0  0  0
  5 13  1  0  0  0  0
  6 10  1  0  0  0  0
  7 12  1  0  0  0  0
  8  9  1  0  0  0  0
  8  1  2  0  0  0  0
  9  5  2  0  0  0  0
 10 12  2  0  0  0  0
 10 19  1  0  0  0  0
 11  7  2  0  0  0  0
 13 11  1  0  0  0  0
 14 13  2  0  0  0  0
 15  3  1  0  0  0  0
 16 11  1  0  0  0  0
 16  6  2  0  0  0  0
 18 17  1  0  0  0  0
 19 18  1  0  0  0  0
 20 18  2  0  0  0  0
 21 22  3  0  0  0  0
 22  1  1  0  0  0  0
 23 24  1  0  0  0  0
 25 24  1  0  0  0  0
 26 25  1  0  0  0  0
M  END
>  <MODEL>
6

>  <REMARK>
 VINA RESULT:      -6.1      2.859      4.167
  Name = 
  5 active torsions:
  status: ('A' for Active; 'I' for Inactive)
    1  A    between atoms: C_1  and  C_19
    2  A    between atoms: C_2  and  C_25
    3  A    between atoms: C_11  and  N_21
    4  A    between atoms: C_14  and  O_18
    5  A    between atoms: O_18  and  C_25
                            x       y       z     vdW  Elec       q    Type
                         _______ _______ _______ _____ _____    ______ ____

>  <TORSDO>
F 5

$$$$
=
 OpenBabel11042418523D

 26 29  0  0  1  0  0  0  0  0999 V2000
  190.9600  173.6500  140.7730 C   0  0  0  0  0  0  0  0  0  0  0  0
  190.9450  176.6010  145.1310 C   0  0  1  0  0  3  0  0  0  0  0  0
  188.7170  177.5710  145.7740 N   0  0  0  0  0  2  0  0  0  0  0  0
  190.1670  175.8320  144.1490 N   0  0  0  0  0  0  0  0  0  0  0  0
  190.5610  175.0820  143.0920 C   0  0  0  0  0  0  0  0  0  0  0  0
  188.0700  176.8550  144.7160 C   0  0  0  0  0  0  0  0  0  0  0  0
  187.0790  175.5580  142.3880 C   0  0  0  0  0  3  0  0  0  0  0  0
  192.0130  173.9730  141.5910 N   0  0  0  0  0  0  0  0  0  0  0  0
  191.8510  174.6890  142.7430 C   0  0  0  0  0  3  0  0  0  0  0  0
  186.7220  177.0470  144.3240 C   0  0  0  0  0  0  0  0  0  0  0  0
  188.3870  175.3810  142.8320 C   0  0  0  0  0  0  0  0  0  0  0  0
  186.2440  176.3990  143.1560 C   0  0  0  0  0  3  0  0  0  0  0  0
  189.4910  174.7690  142.2750 C   0  0  0  0  0  0  0  0  0  0  0  0
  189.6530  174.0590  141.0910 C   0  0  0  0  0  3  0  0  0  0  0  0
  190.0350  177.1380  146.2650 C   0  0  0  0  0  2  0  0  0  0  0  0
  188.8500  176.0080  143.9590 C   0  0  0  0  0  0  0  0  0  0  0  0
  184.4360  178.5970  146.9480 N   0  0  0  0  0  1  0  0  0  0  0  0
  185.0760  177.5730  146.1950 C   0  0  0  0  0  0  0  0  0  0  0  0
  185.8340  177.9220  145.0320 N   0  0  0  0  0  2  0  0  0  0  0  0
  184.9220  176.3690  146.5290 O   0  0  0  0  0  0  0  0  0  0  0  0
  191.3950  172.2740  138.5600 C   0  0  0  0  0  3  0  0  0  0  0  0
  191.1970  172.9020  139.5700 C   0  0  0  0  0  0  0  0  0  0  0  0
  192.0740  175.7660  145.7260 C   0  0  0  0  0  2  0  0  0  0  0  0
  192.7430  176.4820  146.7210 O   0  0  0  0  0  0  0  0  0  0  0  0
  194.0950  176.2810  146.4500 C   0  0  0  0  0  2  0  0  0  0  0  0
  194.6290  177.4420  145.7610 N   0  0  0  0  0  1  0  0  0  0  0  0
  1 14  2  0  0  0  0
  1  8  1  0  0  0  0
  2 23  1  1  0  0  0
  2 15  1  0  0  0  0
  3 15  1  0  0  0  0
  4  2  1  0  0  0  0
  5  4  1  0  0  0  0
  6  3  1  0  0  0  0
  7 11  2  0  0  0  0
  7 12  1  0  0  0  0
  8  9  2  0  0  0  0
  9  5  1  0  0  0  0
 10  6  1  0  0  0  0
 10 19  1  0  0  0  0
 11 16  1  0  0  0  0
 12 10  2  0  0  0  0
 13 11  1  0  0  0  0
 13  5  2  0  0  0  0
 14 13  1  0  0  0  0
 16  4  1  0  0  0  0
 16  6  2  0  0  0  0
 18 20  2  0  0  0  0
 18 17  1  0  0  0  0
 19 18  1  0  0  0  0
 21 22  3  0  0  0  0
 22  1  1  0  0  0  0
 23 24  1  0  0  0  0
 25 24  1  0  0  0  0
 26 25  1  0  0  0  0
M  END
>  <MODEL>
7

>  <REMARK>
 VINA RESULT:      -6.0      2.365      7.175
  Name = 
  5 active torsions:
  status: ('A' for Active; 'I' for Inactive)
    1  A    between atoms: C_1  and  C_19
    2  A    between atoms: C_2  and  C_25
    3  A    between atoms: C_11  and  N_21
    4  A    between atoms: C_14  and  O_18
    5  A    between atoms: O_18  and  C_25
                            x       y       z     vdW  Elec       q    Type
                         _______ _______ _______ _____ _____    ______ ____

>  <TORSDO>
F 5

$$$$
=
 OpenBabel11042418523D

 26 29  0  0  1  0  0  0  0  0999 V2000
  191.5240  174.0980  141.1020 C   0  0  0  0  0  0  0  0  0  0  0  0
  190.7390  176.4700  145.7340 C   0  0  1  0  0  3  0  0  0  0  0  0
  188.3650  177.1370  146.2210 N   0  0  0  0  0  2  0  0  0  0  0  0
  190.1550  175.7580  144.5890 N   0  0  0  0  0  0  0  0  0  0  0  0
  190.7350  175.1870  143.5060 C   0  0  0  0  0  0  0  0  0  0  0  0
  187.9120  176.5000  145.0210 C   0  0  0  0  0  0  0  0  0  0  0  0
  187.3140  175.4150  142.4620 C   0  0  0  0  0  3  0  0  0  0  0  0
  192.4450  174.4150  142.0670 N   0  0  0  0  0  0  0  0  0  0  0  0
  192.0880  174.9640  143.2660 C   0  0  0  0  0  3  0  0  0  0  0  0
  186.5990  176.6110  144.5000 C   0  0  0  0  0  0  0  0  0  0  0  0
  188.5800  175.3080  143.0310 C   0  0  0  0  0  0  0  0  0  0  0  0
  186.3180  176.0720  143.2180 C   0  0  0  0  0  3  0  0  0  0  0  0
  189.7940  174.8780  142.5400 C   0  0  0  0  0  0  0  0  0  0  0  0
  190.1540  174.3390  141.3110 C   0  0  0  0  0  3  0  0  0  0  0  0
  189.6640  176.7730  146.8100 C   0  0  0  0  0  2  0  0  0  0  0  0
  188.8530  175.8320  144.2680 C   0  0  0  0  0  0  0  0  0  0  0  0
  183.9340  179.1320  145.5250 N   0  0  0  0  0  1  0  0  0  0  0  0
  185.1430  178.6520  144.9500 C   0  0  0  0  0  0  0  0  0  0  0  0
  185.5530  177.3030  145.1950 N   0  0  0  0  0  2  0  0  0  0  0  0
  185.8640  179.4350  144.2780 O   0  0  0  0  0  0  0  0  0  0  0  0
  192.3310  173.0550  138.8130 C   0  0  0  0  0  3  0  0  0  0  0  0
  191.9630  173.5310  139.8580 C   0  0  0  0  0  0  0  0  0  0  0  0
  191.8840  175.6780  146.3570 C   0  0  0  0  0  2  0  0  0  0  0  0
  192.8310  176.5400  146.9150 O   0  0  0  0  0  0  0  0  0  0  0  0
  194.0500  176.1030  146.3970 C   0  0  0  0  0  2  0  0  0  0  0  0
  194.5530  177.0820  145.4510 N   0  0  0  0  0  1  0  0  0  0  0  0
  1 14  2  0  0  0  0
  1  8  1  0  0  0  0
  2 23  1  1  0  0  0
  2 15  1  0  0  0  0
  3 15  1  0  0  0  0
  4  2  1  0  0  0  0
  5  4  1  0  0  0  0
  6  3  1  0  0  0  0
  7 11  2  0  0  0  0
  7 12  1  0  0  0  0
  8  9  2  0  0  0  0
  9  5  1  0  0  0  0
 10  6  1  0  0  0  0
 10 19  1  0  0  0  0
 11 16  1  0  0  0  0
 12 10  2  0  0  0  0
 13 11  1  0  0  0  0
 13  5  2  0  0  0  0
 14 13  1  0  0  0  0
 16  4  1  0  0  0  0
 16  6  2  0  0  0  0
 18 19  1  0  0  0  0
 18 17  1  0  0  0  0
 20 18  2  0  0  0  0
 21 22  3  0  0  0  0
 22  1  1  0  0  0  0
 23 24  1  0  0  0  0
 25 24  1  0  0  0  0
 26 25  1  0  0  0  0
M  END
>  <MODEL>
8

>  <REMARK>
 VINA RESULT:      -5.8      2.258      7.218
  Name = 
  5 active torsions:
  status: ('A' for Active; 'I' for Inactive)
    1  A    between atoms: C_1  and  C_19
    2  A    between atoms: C_2  and  C_25
    3  A    between atoms: C_11  and  N_21
    4  A    between atoms: C_14  and  O_18
    5  A    between atoms: O_18  and  C_25
                            x       y       z     vdW  Elec       q    Type
                         _______ _______ _______ _____ _____    ______ ____

>  <TORSDO>
F 5

$$$$
=
 OpenBabel11042418523D

 26 29  0  0  1  0  0  0  0  0999 V2000
  186.8670  178.0540  144.3270 C   0  0  0  0  0  0  0  0  0  0  0  0
  190.0250  173.9580  145.3050 C   0  0  1  0  0  3  0  0  0  0  0  0
  190.5610  172.5080  143.3230 N   0  0  0  0  0  2  0  0  0  0  0  0
  189.4320  174.8590  144.3060 N   0  0  0  0  0  0  0  0  0  0  0  0
  188.6340  175.9450  144.4480 C   0  0  0  0  0  0  0  0  0  0  0  0
  189.8660  173.4010  142.4470 C   0  0  0  0  0  0  0  0  0  0  0  0
  188.1980  175.1720  140.9750 C   0  0  0  0  0  3  0  0  0  0  0  0
  187.4190  177.6650  145.5210 N   0  0  0  0  0  0  0  0  0  0  0  0
  188.2910  176.6180  145.6170 C   0  0  0  0  0  3  0  0  0  0  0  0
  189.5820  173.1310  141.0850 C   0  0  0  0  0  0  0  0  0  0  0  0
  188.5300  175.4070  142.3070 C   0  0  0  0  0  0  0  0  0  0  0  0
  188.7420  174.0200  140.3660 C   0  0  0  0  0  3  0  0  0  0  0  0
  188.0820  176.3210  143.2380 C   0  0  0  0  0  0  0  0  0  0  0  0
  187.1780  177.3710  143.1380 C   0  0  0  0  0  3  0  0  0  0  0  0
  191.0200  172.9700  144.6440 C   0  0  0  0  0  2  0  0  0  0  0  0
  189.3400  174.5470  143.0030 C   0  0  0  0  0  0  0  0  0  0  0  0
  191.7950  170.5470  139.3720 N   0  0  0  0  0  1  0  0  0  0  0  0
  191.3330  171.8330  139.7680 C   0  0  0  0  0  0  0  0  0  0  0  0
  190.0650  171.9570  140.4190 N   0  0  0  0  0  2  0  0  0  0  0  0
  192.0210  172.8510  139.4940 O   0  0  0  0  0  0  0  0  0  0  0  0
  185.1780  180.0840  144.2650 C   0  0  0  0  0  3  0  0  0  0  0  0
  185.9490  179.1570  144.2930 C   0  0  0  0  0  0  0  0  0  0  0  0
  190.7290  174.7380  146.4100 C   0  0  0  0  0  2  0  0  0  0  0  0
  192.0210  175.0930  146.0140 O   0  0  0  0  0  0  0  0  0  0  0  0
  192.3340  176.2050  146.7930 C   0  0  0  0  0  2  0  0  0  0  0  0
  191.2490  176.4680  147.7200 N   0  0  0  0  0  1  0  0  0  0  0  0
  1  8  1  0  0  0  0
  2 23  1  1  0  0  0
  3 15  1  0  0  0  0
  4  5  1  0  0  0  0
  4  2  1  0  0  0  0
  5  9  1  0  0  0  0
  6 16  1  0  0  0  0
  6  3  1  0  0  0  0
  7 11  1  0  0  0  0
  8  9  2  0  0  0  0
 10  6  2  0  0  0  0
 11 16  2  0  0  0  0
 11 13  1  0  0  0  0
 12  7  2  0  0  0  0
 12 10  1  0  0  0  0
 13  5  2  0  0  0  0
 14 13  1  0  0  0  0
 14  1  2  0  0  0  0
 15  2  1  0  0  0  0
 16  4  1  0  0  0  0
 17 18  1  0  0  0  0
 18 19  1  0  0  0  0
 19 10  1  0  0  0  0
 20 18  2  0  0  0  0
 21 22  3  0  0  0  0
 22  1  1  0  0  0  0
 24 23  1  0  0  0  0
 24 25  1  0  0  0  0
 25 26  1  0  0  0  0
M  END
>  <MODEL>
9

>  <REMARK>
 VINA RESULT:      -5.7      2.161      5.122
  Name = 
  5 active torsions:
  status: ('A' for Active; 'I' for Inactive)
    1  A    between atoms: C_1  and  C_19
    2  A    between atoms: C_2  and  C_25
    3  A    between atoms: C_11  and  N_21
    4  A    between atoms: C_14  and  O_18
    5  A    between atoms: O_18  and  C_25
                            x       y       z     vdW  Elec       q    Type
                         _______ _______ _______ _____ _____    ______ ____

>  <TORSDO>
F 5

$$$$
