=
 OpenBabel11042417483D

 25 27  0  0  1  0  0  0  0  0999 V2000
  185.4210  179.2320  143.7530 S   0  0  0  0  0  0  0  0  0  0  0  0
  187.5950  177.8280  144.2500 N   0  0  0  0  0  0  0  0  0  0  0  0
  186.8180  177.7980  145.4130 C   0  0  0  0  0  0  0  0  0  0  0  0
  188.4040  176.1740  145.6410 C   0  0  0  0  0  0  0  0  0  0  0  0
  185.6540  178.4180  145.3410 C   0  0  2  0  0  3  0  0  0  0  0  0
  186.9070  178.3720  143.0970 C   0  0  0  0  0  2  0  0  0  0  0  0
  188.5600  176.7510  144.2600 C   0  0  0  0  0  3  0  0  0  0  0  0
  189.0780  175.1680  146.1160 N   0  0  0  0  0  2  0  0  0  0  0  0
  187.2820  176.8010  146.4080 C   0  0  0  0  0  3  0  0  0  0  0  0
  184.2700  176.9780  146.5950 F   0  0  0  0  0  0  0  0  0  0  0  0
  184.5750  178.3100  146.3800 C   0  0  0  0  0  0  0  0  0  0  0  0
  185.0000  178.8700  147.5700 F   0  0  0  0  0  0  0  0  0  0  0  0
  183.4420  178.9760  145.9510 F   0  0  0  0  0  0  0  0  0  0  0  0
  190.1470  174.5220  145.4630 N   0  0  0  0  0  0  0  0  0  0  0  0
  191.5030  174.7710  145.9220 C   0  0  0  0  0  2  0  0  0  0  0  0
  191.9090  176.1930  145.5840 C   0  0  0  0  0  2  0  0  0  0  0  0
  195.2620  176.4760  144.3110 N   0  0  0  0  0  0  0  0  0  0  0  0
  193.3250  175.5860  143.6070 N   0  0  0  0  0  0  0  0  0  0  0  0
  193.1800  176.1820  144.8060 C   0  0  0  0  0  0  0  0  0  0  0  0
  194.6360  175.7920  143.3260 C   0  0  0  0  0  3  0  0  0  0  0  0
  194.5670  177.3790  146.4260 N   0  0  0  0  0  1  0  0  0  0  0  0
  194.3380  176.7050  145.2220 N   0  0  0  0  0  0  0  0  0  0  0  0
  189.9790  173.7670  144.2260 C   0  0  0  0  0  2  0  0  0  0  0  0
  190.0990  172.2790  144.5020 C   0  0  0  0  0  2  0  0  0  0  0  0
  189.3050  171.9470  145.5820 F   0  0  0  0  0  0  0  0  0  0  0  0
  1  5  1  0  0  0  0
  2  7  1  0  0  0  0
  2  3  1  0  0  0  0
  3  9  2  0  0  0  0
  4  8  1  0  0  0  0
  4  9  1  0  0  0  0
  5  3  1  0  0  0  0
  5 11  1  6  0  0  0
  6  1  1  0  0  0  0
  6  2  1  0  0  0  0
  7  4  2  0  0  0  0
 11 10  1  0  0  0  0
 11 12  1  0  0  0  0
 13 11  1  0  0  0  0
 14 15  1  0  0  0  0
 14  8  1  0  0  0  0
 16 15  1  0  0  0  0
 17 22  1  0  0  0  0
 18 19  2  0  0  0  0
 19 22  1  0  0  0  0
 19 16  1  0  0  0  0
 20 18  1  0  0  0  0
 20 17  2  0  0  0  0
 22 21  1  0  0  0  0
 23 24  1  0  0  0  0
 23 14  1  0  0  0  0
 24 25  1  0  0  0  0
M  END
>  <MODEL>
1

>  <REMARK>
 VINA RESULT:      -6.6      0.000      0.000
  Name = 
  7 active torsions:
  status: ('A' for Active; 'I' for Inactive)
    1  A    between atoms: C_6  and  C_10
    2  A    between atoms: C_6  and  C_14
    3  A    between atoms: C_8  and  C_11
    4  A    between atoms: C_14  and  N_23
    5  A    between atoms: C_16  and  C_18
    6  A    between atoms: C_18  and  N_23
    7  A    between atoms: N_21  and  N_23
                            x       y       z     vdW  Elec       q    Type
                         _______ _______ _______ _____ _____    ______ ____

>  <TORSDO>
F 7

$$$$
=
 OpenBabel11042417483D

 25 27  0  0  1  0  0  0  0  0999 V2000
  185.4510  178.9760  143.6320 S   0  0  0  0  0  0  0  0  0  0  0  0
  187.5990  177.6080  144.3090 N   0  0  0  0  0  0  0  0  0  0  0  0
  186.8070  177.7120  145.4580 C   0  0  0  0  0  0  0  0  0  0  0  0
  188.3680  176.1040  145.8810 C   0  0  0  0  0  0  0  0  0  0  0  0
  185.6520  178.3350  145.3020 C   0  0  2  0  0  3  0  0  0  0  0  0
  186.9340  178.0320  143.0950 C   0  0  0  0  0  2  0  0  0  0  0  0
  188.5500  176.5260  144.4490 C   0  0  0  0  0  3  0  0  0  0  0  0
  189.0220  175.1470  146.4720 N   0  0  0  0  0  2  0  0  0  0  0  0
  187.2440  176.8230  146.5610 C   0  0  0  0  0  3  0  0  0  0  0  0
  185.0140  178.9720  147.4810 F   0  0  0  0  0  0  0  0  0  0  0  0
  184.5590  178.3530  146.3310 C   0  0  0  0  0  0  0  0  0  0  0  0
  183.4630  179.0470  145.8530 F   0  0  0  0  0  0  0  0  0  0  0  0
  184.1740  177.0590  146.6300 F   0  0  0  0  0  0  0  0  0  0  0  0
  190.0910  174.4210  145.9070 N   0  0  0  0  0  0  0  0  0  0  0  0
  189.8340  173.0920  145.3800 C   0  0  0  0  0  2  0  0  0  0  0  0
  190.6500  172.8700  144.1200 C   0  0  0  0  0  2  0  0  0  0  0  0
  189.3060  174.4120  141.1610 N   0  0  0  0  0  0  0  0  0  0  0  0
  188.7750  172.6670  142.4700 N   0  0  0  0  0  0  0  0  0  0  0  0
  189.8660  173.3060  142.9300 C   0  0  0  0  0  0  0  0  0  0  0  0
  188.4480  173.3870  141.3670 C   0  0  0  0  0  3  0  0  0  0  0  0
  191.2620  175.2140  142.3020 N   0  0  0  0  0  1  0  0  0  0  0  0
  190.1810  174.3410  142.1430 N   0  0  0  0  0  0  0  0  0  0  0  0
  191.4800  174.8580  145.9980 C   0  0  0  0  0  2  0  0  0  0  0  0
  191.6870  175.6820  147.2550 C   0  0  0  0  0  2  0  0  0  0  0  0
  191.5490  174.8710  148.3640 F   0  0  0  0  0  0  0  0  0  0  0  0
  1  5  1  0  0  0  0
  2  7  1  0  0  0  0
  2  3  1  0  0  0  0
  3  9  2  0  0  0  0
  4  8  1  0  0  0  0
  4  9  1  0  0  0  0
  5  3  1  0  0  0  0
  5 11  1  6  0  0  0
  6  1  1  0  0  0  0
  6  2  1  0  0  0  0
  7  4  2  0  0  0  0
 11 13  1  0  0  0  0
 11 10  1  0  0  0  0
 12 11  1  0  0  0  0
 14 23  1  0  0  0  0
 14  8  1  0  0  0  0
 15 14  1  0  0  0  0
 16 15  1  0  0  0  0
 17 20  2  0  0  0  0
 17 22  1  0  0  0  0
 18 19  2  0  0  0  0
 19 16  1  0  0  0  0
 20 18  1  0  0  0  0
 22 21  1  0  0  0  0
 22 19  1  0  0  0  0
 23 24  1  0  0  0  0
 24 25  1  0  0  0  0
M  END
>  <MODEL>
2

>  <REMARK>
 VINA RESULT:      -6.6      2.257      3.477
  Name = 
  7 active torsions:
  status: ('A' for Active; 'I' for Inactive)
    1  A    between atoms: C_6  and  C_10
    2  A    between atoms: C_6  and  C_14
    3  A    between atoms: C_8  and  C_11
    4  A    between atoms: C_14  and  N_23
    5  A    between atoms: C_16  and  C_18
    6  A    between atoms: C_18  and  N_23
    7  A    between atoms: N_21  and  N_23
                            x       y       z     vdW  Elec       q    Type
                         _______ _______ _______ _____ _____    ______ ____

>  <TORSDO>
F 7

$$$$
=
 OpenBabel11042417483D

 25 27  0  0  1  0  0  0  0  0999 V2000
  184.2020  178.3670  142.9960 S   0  0  0  0  0  0  0  0  0  0  0  0
  186.7360  177.6440  142.9740 N   0  0  0  0  0  0  0  0  0  0  0  0
  186.4260  177.9940  144.2930 C   0  0  0  0  0  0  0  0  0  0  0  0
  188.4120  176.8730  144.3610 C   0  0  0  0  0  0  0  0  0  0  0  0
  185.1720  178.3450  144.5120 C   0  0  2  0  0  3  0  0  0  0  0  0
  185.5820  177.5410  142.1060 C   0  0  0  0  0  2  0  0  0  0  0  0
  187.9300  176.8280  142.9360 C   0  0  0  0  0  3  0  0  0  0  0  0
  189.4740  176.2740  144.8140 N   0  0  0  0  0  2  0  0  0  0  0  0
  187.4650  177.5910  145.2710 C   0  0  0  0  0  3  0  0  0  0  0  0
  184.5260  177.3090  146.5300 F   0  0  0  0  0  0  0  0  0  0  0  0
  184.5740  178.5280  145.8780 C   0  0  0  0  0  0  0  0  0  0  0  0
  185.3420  179.4040  146.6220 F   0  0  0  0  0  0  0  0  0  0  0  0
  183.2940  179.0380  145.7660 F   0  0  0  0  0  0  0  0  0  0  0  0
  190.4160  175.5790  144.0280 N   0  0  0  0  0  0  0  0  0  0  0  0
  191.4320  176.3360  143.3190 C   0  0  0  0  0  2  0  0  0  0  0  0
  192.0760  177.3400  144.2580 C   0  0  0  0  0  2  0  0  0  0  0  0
  194.3790  175.7430  146.5130 N   0  0  0  0  0  0  0  0  0  0  0  0
  194.4020  176.4150  144.3710 N   0  0  0  0  0  0  0  0  0  0  0  0
  193.2280  176.7070  144.9600 C   0  0  0  0  0  0  0  0  0  0  0  0
  195.0990  175.8180  145.3710 C   0  0  0  0  0  3  0  0  0  0  0  0
  192.1590  176.4160  147.1410 N   0  0  0  0  0  1  0  0  0  0  0  0
  193.2170  176.2980  146.2340 N   0  0  0  0  0  0  0  0  0  0  0  0
  190.3040  174.1540  143.7360 C   0  0  0  0  0  2  0  0  0  0  0  0
  190.4410  173.3460  145.0130 C   0  0  0  0  0  2  0  0  0  0  0  0
  189.6420  172.2220  144.9330 F   0  0  0  0  0  0  0  0  0  0  0  0
  1  5  1  0  0  0  0
  2  3  1  0  0  0  0
  3  5  1  0  0  0  0
  3  9  2  0  0  0  0
  4  8  1  0  0  0  0
  4  9  1  0  0  0  0
  5 11  1  1  0  0  0
  6  2  1  0  0  0  0
  6  1  1  0  0  0  0
  7  2  1  0  0  0  0
  7  4  2  0  0  0  0
 11 10  1  0  0  0  0
 11 12  1  0  0  0  0
 13 11  1  0  0  0  0
 14  8  1  0  0  0  0
 15 14  1  0  0  0  0
 15 16  1  0  0  0  0
 16 19  1  0  0  0  0
 18 19  2  0  0  0  0
 18 20  1  0  0  0  0
 19 22  1  0  0  0  0
 20 17  2  0  0  0  0
 22 17  1  0  0  0  0
 22 21  1  0  0  0  0
 23 14  1  0  0  0  0
 23 24  1  0  0  0  0
 25 24  1  0  0  0  0
M  END
>  <MODEL>
3

>  <REMARK>
 VINA RESULT:      -6.5      1.408      1.592
  Name = 
  7 active torsions:
  status: ('A' for Active; 'I' for Inactive)
    1  A    between atoms: C_6  and  C_10
    2  A    between atoms: C_6  and  C_14
    3  A    between atoms: C_8  and  C_11
    4  A    between atoms: C_14  and  N_23
    5  A    between atoms: C_16  and  C_18
    6  A    between atoms: C_18  and  N_23
    7  A    between atoms: N_21  and  N_23
                            x       y       z     vdW  Elec       q    Type
                         _______ _______ _______ _____ _____    ______ ____

>  <TORSDO>
F 7

$$$$
=
 OpenBabel11042417483D

 25 27  0  0  1  0  0  0  0  0999 V2000
  193.1400  173.7090  145.0400 S   0  0  0  0  0  0  0  0  0  0  0  0
  190.6980  174.6080  145.4620 N   0  0  0  0  0  0  0  0  0  0  0  0
  191.5730  175.5060  146.0810 C   0  0  0  0  0  0  0  0  0  0  0  0
  189.5420  176.5380  145.9720 C   0  0  0  0  0  0  0  0  0  0  0  0
  192.8600  175.2430  145.9390 C   0  0  2  0  0  3  0  0  0  0  0  0
  191.3550  173.6440  144.6030 C   0  0  0  0  0  2  0  0  0  0  0  0
  189.4080  175.2260  145.2480 C   0  0  0  0  0  3  0  0  0  0  0  0
  188.6150  177.4470  146.0570 N   0  0  0  0  0  2  0  0  0  0  0  0
  190.9220  176.7700  146.5030 C   0  0  0  0  0  3  0  0  0  0  0  0
  195.1430  175.4920  146.4710 F   0  0  0  0  0  0  0  0  0  0  0  0
  193.9610  176.1920  146.3160 C   0  0  0  0  0  0  0  0  0  0  0  0
  194.1310  177.1440  145.3280 F   0  0  0  0  0  0  0  0  0  0  0  0
  193.6460  176.8290  147.5020 F   0  0  0  0  0  0  0  0  0  0  0  0
  187.2940  177.3110  145.5870 N   0  0  0  0  0  0  0  0  0  0  0  0
  186.9560  177.8490  144.2800 C   0  0  0  0  0  2  0  0  0  0  0  0
  186.1990  176.8100  143.4740 C   0  0  0  0  0  2  0  0  0  0  0  0
  184.8980  178.2560  140.4480 N   0  0  0  0  0  0  0  0  0  0  0  0
  184.1490  177.9020  142.5340 N   0  0  0  0  0  0  0  0  0  0  0  0
  185.4190  177.4790  142.3950 C   0  0  0  0  0  0  0  0  0  0  0  0
  183.8570  178.3860  141.3000 C   0  0  0  0  0  3  0  0  0  0  0  0
  187.1170  177.3550  140.6390 N   0  0  0  0  0  1  0  0  0  0  0  0
  185.8580  177.6870  141.1490 N   0  0  0  0  0  0  0  0  0  0  0  0
  186.2010  176.8280  146.4240 C   0  0  0  0  0  2  0  0  0  0  0  0
  185.2870  177.9790  146.8050 C   0  0  0  0  0  2  0  0  0  0  0  0
  184.0210  177.7430  146.3060 F   0  0  0  0  0  0  0  0  0  0  0  0
  1  5  1  0  0  0  0
  2  3  1  0  0  0  0
  3  9  2  0  0  0  0
  4  8  1  0  0  0  0
  4  9  1  0  0  0  0
  5  3  1  0  0  0  0
  5 11  1  6  0  0  0
  6  1  1  0  0  0  0
  6  2  1  0  0  0  0
  7  2  1  0  0  0  0
  7  4  2  0  0  0  0
 11 10  1  0  0  0  0
 11 13  1  0  0  0  0
 12 11  1  0  0  0  0
 14  8  1  0  0  0  0
 14 23  1  0  0  0  0
 15 14  1  0  0  0  0
 16 15  1  0  0  0  0
 17 22  1  0  0  0  0
 17 20  2  0  0  0  0
 19 18  2  0  0  0  0
 19 16  1  0  0  0  0
 20 18  1  0  0  0  0
 21 22  1  0  0  0  0
 22 19  1  0  0  0  0
 23 24  1  0  0  0  0
 25 24  1  0  0  0  0
M  END
>  <MODEL>
4

>  <REMARK>
 VINA RESULT:      -6.4      3.699      7.785
  Name = 
  7 active torsions:
  status: ('A' for Active; 'I' for Inactive)
    1  A    between atoms: C_6  and  C_10
    2  A    between atoms: C_6  and  C_14
    3  A    between atoms: C_8  and  C_11
    4  A    between atoms: C_14  and  N_23
    5  A    between atoms: C_16  and  C_18
    6  A    between atoms: C_18  and  N_23
    7  A    between atoms: N_21  and  N_23
                            x       y       z     vdW  Elec       q    Type
                         _______ _______ _______ _____ _____    ______ ____

>  <TORSDO>
F 7

$$$$
=
 OpenBabel11042417483D

 25 27  0  0  1  0  0  0  0  0999 V2000
  184.5140  178.2800  146.6840 S   0  0  0  0  0  0  0  0  0  0  0  0
  186.5730  176.6600  146.4020 N   0  0  0  0  0  0  0  0  0  0  0  0
  186.1700  177.0300  145.1150 C   0  0  0  0  0  0  0  0  0  0  0  0
  188.2380  176.0890  144.9090 C   0  0  0  0  0  0  0  0  0  0  0  0
  185.1650  177.8860  145.0540 C   0  0  2  0  0  3  0  0  0  0  0  0
  185.9460  177.4260  147.4590 C   0  0  0  0  0  2  0  0  0  0  0  0
  187.9290  176.1540  146.3800 C   0  0  0  0  0  3  0  0  0  0  0  0
  189.3620  175.6860  144.3950 N   0  0  0  0  0  2  0  0  0  0  0  0
  187.1450  176.6620  144.0600 C   0  0  0  0  0  3  0  0  0  0  0  0
  184.4200  177.6540  142.8280 F   0  0  0  0  0  0  0  0  0  0  0  0
  184.7320  178.5880  143.7990 C   0  0  0  0  0  0  0  0  0  0  0  0
  183.6160  179.3650  144.0480 F   0  0  0  0  0  0  0  0  0  0  0  0
  185.7510  179.4030  143.3410 F   0  0  0  0  0  0  0  0  0  0  0  0
  190.4390  175.1340  145.1190 N   0  0  0  0  0  0  0  0  0  0  0  0
  191.3160  176.0250  145.8580 C   0  0  0  0  0  2  0  0  0  0  0  0
  191.8610  177.0970  144.9320 C   0  0  0  0  0  2  0  0  0  0  0  0
  195.3120  176.3250  144.2730 N   0  0  0  0  0  0  0  0  0  0  0  0
  193.3450  175.9820  143.2480 N   0  0  0  0  0  0  0  0  0  0  0  0
  193.1840  176.6720  144.3930 C   0  0  0  0  0  0  0  0  0  0  0  0
  194.6870  175.7860  143.2020 C   0  0  0  0  0  3  0  0  0  0  0  0
  194.5700  177.5250  146.2180 N   0  0  0  0  0  1  0  0  0  0  0  0
  194.3580  176.8680  145.0020 N   0  0  0  0  0  0  0  0  0  0  0  0
  190.8320  173.7330  145.0080 C   0  0  0  0  0  2  0  0  0  0  0  0
  189.6820  172.9100  144.4580 C   0  0  0  0  0  2  0  0  0  0  0  0
  189.3180  171.9520  145.3850 F   0  0  0  0  0  0  0  0  0  0  0  0
  1  6  1  0  0  0  0
  2  6  1  0  0  0  0
  3  2  1  0  0  0  0
  4  7  2  0  0  0  0
  5 11  1  1  0  0  0
  5  3  1  0  0  0  0
  5  1  1  0  0  0  0
  7  2  1  0  0  0  0
  8  4  1  0  0  0  0
  8 14  1  0  0  0  0
  9  4  1  0  0  0  0
  9  3  2  0  0  0  0
 10 11  1  0  0  0  0
 11 12  1  0  0  0  0
 13 11  1  0  0  0  0
 14 15  1  0  0  0  0
 16 15  1  0  0  0  0
 17 22  1  0  0  0  0
 18 19  2  0  0  0  0
 19 16  1  0  0  0  0
 19 22  1  0  0  0  0
 20 18  1  0  0  0  0
 20 17  2  0  0  0  0
 22 21  1  0  0  0  0
 23 14  1  0  0  0  0
 24 23  1  0  0  0  0
 24 25  1  0  0  0  0
M  END
>  <MODEL>
5

>  <REMARK>
 VINA RESULT:      -6.3      1.631      2.090
  Name = 
  7 active torsions:
  status: ('A' for Active; 'I' for Inactive)
    1  A    between atoms: C_6  and  C_10
    2  A    between atoms: C_6  and  C_14
    3  A    between atoms: C_8  and  C_11
    4  A    between atoms: C_14  and  N_23
    5  A    between atoms: C_16  and  C_18
    6  A    between atoms: C_18  and  N_23
    7  A    between atoms: N_21  and  N_23
                            x       y       z     vdW  Elec       q    Type
                         _______ _______ _______ _____ _____    ______ ____

>  <TORSDO>
F 7

$$$$
=
 OpenBabel11042417483D

 25 27  0  0  1  0  0  0  0  0999 V2000
  185.2920  178.4360  146.9870 S   0  0  0  0  0  0  0  0  0  0  0  0
  187.1090  176.7580  146.0780 N   0  0  0  0  0  0  0  0  0  0  0  0
  186.2890  177.0930  144.9950 C   0  0  0  0  0  0  0  0  0  0  0  0
  188.1480  176.0950  144.1270 C   0  0  0  0  0  0  0  0  0  0  0  0
  185.3350  177.9700  145.2490 C   0  0  2  0  0  3  0  0  0  0  0  0
  186.8950  177.5760  147.2540 C   0  0  0  0  0  2  0  0  0  0  0  0
  188.3680  176.2190  145.6110 C   0  0  0  0  0  3  0  0  0  0  0  0
  189.0210  175.6460  143.2730 N   0  0  0  0  0  2  0  0  0  0  0  0
  186.8360  176.6640  143.6850 C   0  0  0  0  0  3  0  0  0  0  0  0
  185.2480  179.6230  143.5690 F   0  0  0  0  0  0  0  0  0  0  0  0
  184.5030  178.6390  144.1940 C   0  0  0  0  0  0  0  0  0  0  0  0
  184.0980  177.7160  143.2470 F   0  0  0  0  0  0  0  0  0  0  0  0
  183.3830  179.2090  144.7700 F   0  0  0  0  0  0  0  0  0  0  0  0
  190.2750  175.0940  143.6040 N   0  0  0  0  0  0  0  0  0  0  0  0
  191.4790  175.7650  143.1450 C   0  0  0  0  0  2  0  0  0  0  0  0
  191.8090  176.9220  144.0700 C   0  0  0  0  0  2  0  0  0  0  0  0
  194.1440  175.9540  146.6300 N   0  0  0  0  0  0  0  0  0  0  0  0
  194.2460  176.4760  144.4490 N   0  0  0  0  0  0  0  0  0  0  0  0
  192.9860  176.5720  144.9140 C   0  0  0  0  0  0  0  0  0  0  0  0
  194.9430  176.0930  145.5470 C   0  0  0  0  0  3  0  0  0  0  0  0
  191.7890  176.2230  147.0180 N   0  0  0  0  0  1  0  0  0  0  0  0
  192.9310  176.2540  146.2120 N   0  0  0  0  0  0  0  0  0  0  0  0
  190.4240  173.7780  144.2170 C   0  0  0  0  0  2  0  0  0  0  0  0
  189.8610  172.7080  143.3010 C   0  0  0  0  0  2  0  0  0  0  0  0
  189.0340  171.8720  144.0260 F   0  0  0  0  0  0  0  0  0  0  0  0
  1  6  1  0  0  0  0
  2  6  1  0  0  0  0
  3  5  1  0  0  0  0
  3  2  1  0  0  0  0
  4  7  2  0  0  0  0
  5 11  1  6  0  0  0
  5  1  1  0  0  0  0
  7  2  1  0  0  0  0
  8 14  1  0  0  0  0
  8  4  1  0  0  0  0
  9  4  1  0  0  0  0
  9  3  2  0  0  0  0
 10 11  1  0  0  0  0
 11 13  1  0  0  0  0
 12 11  1  0  0  0  0
 14 23  1  0  0  0  0
 15 14  1  0  0  0  0
 15 16  1  0  0  0  0
 16 19  1  0  0  0  0
 18 19  2  0  0  0  0
 18 20  1  0  0  0  0
 19 22  1  0  0  0  0
 20 17  2  0  0  0  0
 22 17  1  0  0  0  0
 22 21  1  0  0  0  0
 24 25  1  0  0  0  0
 24 23  1  0  0  0  0
M  END
>  <MODEL>
6

>  <REMARK>
 VINA RESULT:      -6.1      1.870      2.422
  Name = 
  7 active torsions:
  status: ('A' for Active; 'I' for Inactive)
    1  A    between atoms: C_6  and  C_10
    2  A    between atoms: C_6  and  C_14
    3  A    between atoms: C_8  and  C_11
    4  A    between atoms: C_14  and  N_23
    5  A    between atoms: C_16  and  C_18
    6  A    between atoms: C_18  and  N_23
    7  A    between atoms: N_21  and  N_23
                            x       y       z     vdW  Elec       q    Type
                         _______ _______ _______ _____ _____    ______ ____

>  <TORSDO>
F 7

$$$$
=
 OpenBabel11042417483D

 25 27  0  0  1  0  0  0  0  0999 V2000
  184.4350  178.0560  146.5300 S   0  0  0  0  0  0  0  0  0  0  0  0
  186.6880  176.7100  146.2930 N   0  0  0  0  0  0  0  0  0  0  0  0
  186.2850  177.0560  144.9990 C   0  0  0  0  0  0  0  0  0  0  0  0
  188.4600  176.3840  144.8510 C   0  0  0  0  0  0  0  0  0  0  0  0
  185.1850  177.7820  144.9170 C   0  0  2  0  0  3  0  0  0  0  0  0
  185.9360  177.3700  147.3400 C   0  0  0  0  0  2  0  0  0  0  0  0
  188.0960  176.3770  146.3110 C   0  0  0  0  0  3  0  0  0  0  0  0
  189.6430  176.1340  144.3700 N   0  0  0  0  0  2  0  0  0  0  0  0
  187.3340  176.8350  143.9740 C   0  0  0  0  0  3  0  0  0  0  0  0
  183.4920  179.0660  143.8940 F   0  0  0  0  0  0  0  0  0  0  0  0
  184.7090  178.4530  143.6600 C   0  0  0  0  0  0  0  0  0  0  0  0
  185.6210  179.4100  143.2550 F   0  0  0  0  0  0  0  0  0  0  0  0
  184.5650  177.5170  142.6530 F   0  0  0  0  0  0  0  0  0  0  0  0
  190.7550  175.7040  145.1220 N   0  0  0  0  0  0  0  0  0  0  0  0
  191.0900  174.2910  145.1320 C   0  0  0  0  0  2  0  0  0  0  0  0
  191.9290  173.9510  143.9140 C   0  0  0  0  0  2  0  0  0  0  0  0
  195.0320  175.7680  143.8390 N   0  0  0  0  0  0  0  0  0  0  0  0
  194.1890  174.0360  144.9920 N   0  0  0  0  0  0  0  0  0  0  0  0
  193.3060  174.4920  144.0840 C   0  0  0  0  0  0  0  0  0  0  0  0
  195.2570  174.8520  144.8090 C   0  0  0  0  0  3  0  0  0  0  0  0
  193.1720  176.2620  142.4020 N   0  0  0  0  0  1  0  0  0  0  0  0
  193.8120  175.5280  143.4040 N   0  0  0  0  0  0  0  0  0  0  0  0
  191.4710  176.5770  146.0470 C   0  0  0  0  0  2  0  0  0  0  0  0
  191.9110  175.7940  147.2690 C   0  0  0  0  0  2  0  0  0  0  0  0
  190.8780  175.7520  148.1840 F   0  0  0  0  0  0  0  0  0  0  0  0
  1  6  1  0  0  0  0
  2  7  1  0  0  0  0
  2  6  1  0  0  0  0
  3  2  1  0  0  0  0
  4  7  2  0  0  0  0
  5 11  1  1  0  0  0
  5  3  1  0  0  0  0
  5  1  1  0  0  0  0
  8  4  1  0  0  0  0
  8 14  1  0  0  0  0
  9  4  1  0  0  0  0
  9  3  2  0  0  0  0
 11 10  1  0  0  0  0
 12 11  1  0  0  0  0
 13 11  1  0  0  0  0
 14 15  1  0  0  0  0
 14 23  1  0  0  0  0
 16 19  1  0  0  0  0
 16 15  1  0  0  0  0
 17 20  2  0  0  0  0
 19 18  2  0  0  0  0
 20 18  1  0  0  0  0
 21 22  1  0  0  0  0
 22 17  1  0  0  0  0
 22 19  1  0  0  0  0
 23 24  1  0  0  0  0
 24 25  1  0  0  0  0
M  END
>  <MODEL>
7

>  <REMARK>
 VINA RESULT:      -6.0      2.174      2.933
  Name = 
  7 active torsions:
  status: ('A' for Active; 'I' for Inactive)
    1  A    between atoms: C_6  and  C_10
    2  A    between atoms: C_6  and  C_14
    3  A    between atoms: C_8  and  C_11
    4  A    between atoms: C_14  and  N_23
    5  A    between atoms: C_16  and  C_18
    6  A    between atoms: C_18  and  N_23
    7  A    between atoms: N_21  and  N_23
                            x       y       z     vdW  Elec       q    Type
                         _______ _______ _______ _____ _____    ______ ____

>  <TORSDO>
F 7

$$$$
=
 OpenBabel11042417483D

 25 27  0  0  1  0  0  0  0  0999 V2000
  184.4740  177.9740  146.6310 S   0  0  0  0  0  0  0  0  0  0  0  0
  186.7910  176.7480  146.3520 N   0  0  0  0  0  0  0  0  0  0  0  0
  186.5340  177.4090  145.1460 C   0  0  0  0  0  0  0  0  0  0  0  0
  188.7360  176.8120  145.1120 C   0  0  0  0  0  0  0  0  0  0  0  0
  185.4240  178.1240  145.1090 C   0  0  2  0  0  3  0  0  0  0  0  0
  185.8910  177.1150  147.4260 C   0  0  0  0  0  2  0  0  0  0  0  0
  188.1980  176.4320  146.4650 C   0  0  0  0  0  3  0  0  0  0  0  0
  189.9770  176.7010  144.7380 N   0  0  0  0  0  2  0  0  0  0  0  0
  187.7080  177.4640  144.2400 C   0  0  0  0  0  3  0  0  0  0  0  0
  185.2750  178.4850  142.7840 F   0  0  0  0  0  0  0  0  0  0  0  0
  185.0790  179.0890  144.0120 C   0  0  0  0  0  0  0  0  0  0  0  0
  183.7560  179.4760  144.1140 F   0  0  0  0  0  0  0  0  0  0  0  0
  185.8820  180.2110  144.1040 F   0  0  0  0  0  0  0  0  0  0  0  0
  191.0050  176.1010  145.4940 N   0  0  0  0  0  0  0  0  0  0  0  0
  191.2620  174.6820  145.3250 C   0  0  0  0  0  2  0  0  0  0  0  0
  191.5890  174.3850  143.8730 C   0  0  0  0  0  2  0  0  0  0  0  0
  189.6840  171.5450  142.7570 N   0  0  0  0  0  0  0  0  0  0  0  0
  189.3740  173.7650  142.8770 N   0  0  0  0  0  0  0  0  0  0  0  0
  190.5980  173.4200  143.3200 C   0  0  0  0  0  0  0  0  0  0  0  0
  188.8330  172.5710  142.5290 C   0  0  0  0  0  3  0  0  0  0  0  0
  191.9110  171.3820  143.6460 N   0  0  0  0  0  1  0  0  0  0  0  0
  190.7740  172.0960  143.2530 N   0  0  0  0  0  0  0  0  0  0  0  0
  191.6970  176.7920  146.5770 C   0  0  0  0  0  2  0  0  0  0  0  0
  193.0770  176.1940  146.7800 C   0  0  0  0  0  2  0  0  0  0  0  0
  193.9310  177.1660  147.2630 F   0  0  0  0  0  0  0  0  0  0  0  0
  1  6  1  0  0  0  0
  2  7  1  0  0  0  0
  2  6  1  0  0  0  0
  3  2  1  0  0  0  0
  4  7  2  0  0  0  0
  5 11  1  1  0  0  0
  5  3  1  0  0  0  0
  5  1  1  0  0  0  0
  8  4  1  0  0  0  0
  8 14  1  0  0  0  0
  9  4  1  0  0  0  0
  9  3  2  0  0  0  0
 10 11  1  0  0  0  0
 11 13  1  0  0  0  0
 11 12  1  0  0  0  0
 14 23  1  0  0  0  0
 15 14  1  0  0  0  0
 16 15  1  0  0  0  0
 17 22  1  0  0  0  0
 18 19  2  0  0  0  0
 19 16  1  0  0  0  0
 20 17  2  0  0  0  0
 20 18  1  0  0  0  0
 22 19  1  0  0  0  0
 22 21  1  0  0  0  0
 23 24  1  0  0  0  0
 24 25  1  0  0  0  0
M  END
>  <MODEL>
8

>  <REMARK>
 VINA RESULT:      -5.9      2.773      4.194
  Name = 
  7 active torsions:
  status: ('A' for Active; 'I' for Inactive)
    1  A    between atoms: C_6  and  C_10
    2  A    between atoms: C_6  and  C_14
    3  A    between atoms: C_8  and  C_11
    4  A    between atoms: C_14  and  N_23
    5  A    between atoms: C_16  and  C_18
    6  A    between atoms: C_18  and  N_23
    7  A    between atoms: N_21  and  N_23
                            x       y       z     vdW  Elec       q    Type
                         _______ _______ _______ _____ _____    ______ ____

>  <TORSDO>
F 7

$$$$
=
 OpenBabel11042417483D

 25 27  0  0  1  0  0  0  0  0999 V2000
  184.5050  179.0220  143.7240 S   0  0  0  0  0  0  0  0  0  0  0  0
  187.0330  178.2760  143.7410 N   0  0  0  0  0  0  0  0  0  0  0  0
  186.5730  178.1810  145.0590 C   0  0  0  0  0  0  0  0  0  0  0  0
  188.5500  177.0450  144.9690 C   0  0  0  0  0  0  0  0  0  0  0  0
  185.2990  178.4750  145.2440 C   0  0  2  0  0  3  0  0  0  0  0  0
  185.9840  178.4960  142.7670 C   0  0  0  0  0  2  0  0  0  0  0  0
  188.2310  177.4840  143.5660 C   0  0  0  0  0  3  0  0  0  0  0  0
  189.5600  176.3010  145.3130 N   0  0  0  0  0  2  0  0  0  0  0  0
  187.5000  177.4510  145.9570 C   0  0  0  0  0  3  0  0  0  0  0  0
  184.5060  176.8550  146.7630 F   0  0  0  0  0  0  0  0  0  0  0  0
  184.5510  178.2160  146.5200 C   0  0  0  0  0  0  0  0  0  0  0  0
  185.1820  178.8400  147.5800 F   0  0  0  0  0  0  0  0  0  0  0  0
  183.2620  178.7060  146.4160 F   0  0  0  0  0  0  0  0  0  0  0  0
  190.5900  175.8760  144.4490 N   0  0  0  0  0  0  0  0  0  0  0  0
  190.5360  174.5320  143.9020 C   0  0  0  0  0  2  0  0  0  0  0  0
  189.6620  174.5150  142.6610 C   0  0  0  0  0  2  0  0  0  0  0  0
  190.9630  173.4540  139.4790 N   0  0  0  0  0  0  0  0  0  0  0  0
  191.8170  174.1620  141.4310 N   0  0  0  0  0  0  0  0  0  0  0  0
  190.4730  174.1040  141.4800 C   0  0  0  0  0  0  0  0  0  0  0  0
  192.0890  173.7450  140.1690 C   0  0  0  0  0  3  0  0  0  0  0  0
  188.6170  173.5280  139.9950 N   0  0  0  0  0  1  0  0  0  0  0  0
  189.9690  173.6880  140.3130 N   0  0  0  0  0  0  0  0  0  0  0  0
  191.8080  176.6490  144.2300 C   0  0  0  0  0  2  0  0  0  0  0  0
  191.5840  177.6800  143.1390 C   0  0  0  0  0  2  0  0  0  0  0  0
  191.2060  178.8790  143.7110 F   0  0  0  0  0  0  0  0  0  0  0  0
  1  5  1  0  0  0  0
  2  3  1  0  0  0  0
  3  5  1  0  0  0  0
  3  9  2  0  0  0  0
  4  8  1  0  0  0  0
  4  9  1  0  0  0  0
  5 11  1  6  0  0  0
  6  1  1  0  0  0  0
  6  2  1  0  0  0  0
  7  2  1  0  0  0  0
  7  4  2  0  0  0  0
 11 10  1  0  0  0  0
 11 12  1  0  0  0  0
 13 11  1  0  0  0  0
 14  8  1  0  0  0  0
 15 14  1  0  0  0  0
 16 15  1  0  0  0  0
 17 20  2  0  0  0  0
 17 22  1  0  0  0  0
 18 19  2  0  0  0  0
 19 16  1  0  0  0  0
 20 18  1  0  0  0  0
 21 22  1  0  0  0  0
 22 19  1  0  0  0  0
 23 14  1  0  0  0  0
 24 25  1  0  0  0  0
 24 23  1  0  0  0  0
M  END
>  <MODEL>
9

>  <REMARK>
 VINA RESULT:      -5.9      2.843      3.902
  Name = 
  7 active torsions:
  status: ('A' for Active; 'I' for Inactive)
    1  A    between atoms: C_6  and  C_10
    2  A    between atoms: C_6  and  C_14
    3  A    between atoms: C_8  and  C_11
    4  A    between atoms: C_14  and  N_23
    5  A    between atoms: C_16  and  C_18
    6  A    between atoms: C_18  and  N_23
    7  A    between atoms: N_21  and  N_23
                            x       y       z     vdW  Elec       q    Type
                         _______ _______ _______ _____ _____    ______ ____

>  <TORSDO>
F 7

$$$$
