=
 OpenBabel11042419083D

 59 64  0  0  1  0  0  0  0  0999 V2000
  188.4200  176.5890  144.7670 C   0  0  0  0  0  3  0  0  0  0  0  0
  189.7030  176.6350  145.1390 C   0  0  0  0  0  0  0  0  0  0  0  0
  191.3270  174.0710  142.7820 C   0  0  0  0  0  1  0  0  0  0  0  0
  187.9000  175.5710  143.7880 C   0  0  2  0  0  3  0  0  0  0  0  0
  188.9920  175.0700  142.9270 N   0  0  0  0  0  0  0  0  0  0  0  0
  190.3380  174.9770  143.4550 C   0  0  0  0  0  0  0  0  0  0  0  0
  190.6910  175.7220  144.5280 C   0  0  0  0  0  0  0  0  0  0  0  0
  185.7890  176.9500  143.8780 C   0  0  0  0  0  2  0  0  0  0  0  0
  186.7000  176.1120  142.9760 C   0  0  1  0  0  3  0  0  0  0  0  0
  185.8910  177.4090  140.9850 C   0  0  0  0  0  2  0  0  0  0  0  0
  187.1200  176.9740  141.7750 C   0  0  0  0  0  2  0  0  0  0  0  0
  184.9490  178.2110  141.8820 C   0  0  2  0  0  3  0  0  0  0  0  0
  184.5470  177.3950  143.1120 C   0  0  0  0  0  2  0  0  0  0  0  0
  182.4460  178.3280  141.6160 N   0  0  0  0  0  2  0  0  0  0  0  0
  183.8770  179.3250  140.0180 N   0  0  0  0  0  2  0  0  0  0  0  0
  183.7450  178.6550  141.1170 C   0  0  0  0  0  0  0  0  0  0  0  0
  179.0520  179.6970  141.4520 C   0  0  2  0  0  3  0  0  0  0  0  0
  180.5350  179.8160  141.7810 C   0  0  0  0  0  2  0  0  0  0  0  0
  180.2220  177.6010  140.9190 C   0  0  0  0  0  2  0  0  0  0  0  0
  181.2120  178.7430  140.9650 C   0  0  2  0  0  3  0  0  0  0  0  0
  178.8360  178.2120  141.1070 C   0  0  1  0  0  3  0  0  0  0  0  0
  178.7090  180.5510  140.3060 N   0  0  2  0  0  0  0  0  0  0  0  0
  178.3410  179.6890  139.1770 C   0  0  0  0  0  2  0  0  0  0  0  0
  179.5400  182.3030  138.8050 C   0  0  0  0  0  2  0  0  0  0  0  0
  178.6330  181.6970  137.7620 C   0  0  0  0  0  3  0  0  0  0  0  0
  179.9080  181.2850  139.8890 C   0  0  0  0  0  2  0  0  0  0  0  0
  178.0420  180.5090  137.9480 C   0  0  0  0  0  3  0  0  0  0  0  0
  178.1220  177.5230  142.1860 N   0  0  0  0  0  0  0  0  0  0  0  0
  179.0130  176.7330  142.8370 O   0  0  0  0  0  1  0  0  0  0  0  0
  177.6920  178.5260  143.1550 C   0  0  0  0  0  2  0  0  0  0  0  0
  178.7140  179.5150  145.2020 C   0  0  0  0  0  1  0  0  0  0  0  0
  178.2870  178.2310  144.5210 C   0  0  0  0  0  2  0  0  0  0  0  0
  192.0640  175.6940  145.1600 C   0  0  2  0  0  3  0  0  0  0  0  0
  192.1190  175.1770  146.5910 C   0  0  0  0  0  1  0  0  0  0  0  0
  192.9130  176.9380  144.8850 C   0  0  0  0  0  2  0  0  0  0  0  0
  194.3110  176.6230  144.3760 C   0  0  0  0  0  2  0  0  0  0  0  0
  194.2530  175.5640  143.4650 O   0  0  0  0  0  0  0  0  0  0  0  0
  193.8850  170.4250  142.4710 C   0  0  0  0  0  1  0  0  0  0  0  0
  195.9100  173.0960  144.3400 C   0  0  0  0  0  0  0  0  0  0  0  0
  196.1440  174.4100  144.2870 C   0  0  0  0  0  3  0  0  0  0  0  0
  195.0760  170.9170  143.2700 C   0  0  0  0  0  0  0  0  0  0  0  0
  195.0850  172.4610  143.2410 C   0  0  2  0  0  3  0  0  0  0  0  0
  196.0170  170.8640  145.6610 C   0  0  1  0  0  3  0  0  0  0  0  0
  196.3400  172.3220  145.5240 C   0  0  0  0  0  0  0  0  0  0  0  0
  196.9910  172.8840  146.4440 O   0  0  0  0  0  0  0  0  0  0  0  0
  195.6600  174.5470  141.8160 C   0  0  2  0  0  3  0  0  0  0  0  0
  195.5830  175.2550  143.1790 C   0  0  1  0  0  3  0  0  0  0  0  0
  194.9060  170.4080  144.7050 C   0  0  0  0  0  2  0  0  0  0  0  0
  196.3350  170.3250  142.6460 C   0  0  0  0  0  1  0  0  0  0  0  0
  195.4780  173.0150  141.8580 C   0  0  0  0  0  2  0  0  0  0  0  0
  197.9380  173.8720  140.9290 C   0  0  0  0  0  1  0  0  0  0  0  0
  196.5240  175.4680  139.6470 C   0  0  0  0  0  1  0  0  0  0  0  0
  196.9010  174.9780  141.0320 C   0  0  0  0  0  3  0  0  0  0  0  0
  197.4330  169.3210  146.7130 C   0  0  0  0  0  1  0  0  0  0  0  0
  197.2200  170.0650  145.4830 N   0  0  0  0  0  2  0  0  0  0  0  0
  190.1360  177.5600  146.0960 O   0  0  0  0  0  0  0  0  0  0  0  0
  189.6200  177.6090  147.4170 C   0  0  0  0  0  1  0  0  0  0  0  0
  187.9760  173.0700  141.9660 C   0  0  0  0  0  1  0  0  0  0  0  0
  188.6750  174.3830  141.6760 C   0  0  0  0  0  2  0  0  0  0  0  0
  1  2  2  0  0  0  0
  2 56  1  0  0  0  0
  3  6  1  0  0  0  0
  4  1  1  6  0  0  0
  5  6  1  0  0  0  0
  5  4  1  0  0  0  0
  6  7  2  0  0  0  0
  7  2  1  0  0  0  0
  7 33  1  0  0  0  0
  9 11  1  6  0  0  0
  9  4  1  0  0  0  0
  9  8  1  0  0  0  0
 10 11  1  0  0  0  0
 10 12  1  0  0  0  0
 12 16  1  6  0  0  0
 12 13  1  0  0  0  0
 13  8  1  0  0  0  0
 15 16  2  0  0  0  0
 16 14  1  0  0  0  0
 17 18  1  6  0  0  0
 19 20  1  0  0  0  0
 19 21  1  0  0  0  0
 20 14  1  1  0  0  0
 20 18  1  0  0  0  0
 21 17  1  0  0  0  0
 21 28  1  1  0  0  0
 22 23  1  6  0  0  0
 22 17  1  0  0  0  0
 24 26  1  0  0  0  0
 25 27  2  0  0  0  0
 25 24  1  0  0  0  0
 26 22  1  0  0  0  0
 27 23  1  0  0  0  0
 28 29  1  0  0  0  0
 28 30  1  0  0  0  0
 30 32  1  0  0  0  0
 32 31  1  0  0  0  0
 33 34  1  1  0  0  0
 35 33  1  0  0  0  0
 36 35  1  0  0  0  0
 37 36  1  0  0  0  0
 38 41  1  0  0  0  0
 39 44  1  0  0  0  0
 40 39  2  0  0  0  0
 41 48  1  0  0  0  0
 42 50  1  6  0  0  0
 42 41  1  0  0  0  0
 42 39  1  0  0  0  0
 43 55  1  6  0  0  0
 44 43  1  0  0  0  0
 44 45  2  0  0  0  0
 46 53  1  1  0  0  0
 46 50  1  0  0  0  0
 46 47  1  0  0  0  0
 47 37  1  1  0  0  0
 47 40  1  0  0  0  0
 48 43  1  0  0  0  0
 49 41  1  0  0  0  0
 51 53  1  0  0  0  0
 52 53  1  0  0  0  0
 55 54  1  0  0  0  0
 56 57  1  0  0  0  0
 59 58  1  0  0  0  0
 59  5  1  0  0  0  0
M  END
>  <MODEL>
1

>  <REMARK>
 VINA RESULT:      -6.6      0.000      0.000
  Name = 
  16 active torsions:
  status: ('A' for Active; 'I' for Inactive)
    1  A    between atoms: N_2  and  C_4
    2  A    between atoms: C_3  and  O_22
    3  A    between atoms: C_5  and  C_6
    4  A    between atoms: C_5  and  C_12
    5  A    between atoms: C_6  and  C_50
    6  A    between atoms: N_10  and  C_40
    7  A    between atoms: N_10  and  C_41
    8  A    between atoms: C_12  and  O_54
    9  A    between atoms: C_18  and  N_45
   10  A    between atoms: C_23  and  C_51
   11  A    between atoms: C_24  and  C_42
   12  A    between atoms: N_25  and  C_26
   13  A    between atoms: C_34  and  O_54
   14  A    between atoms: C_36  and  C_40
   15  A    between atoms: N_47  and  C_49
   16  A    between atoms: C_56  and  C_57
                            x       y       z     vdW  Elec       q    Type
                         _______ _______ _______ _____ _____    ______ ____

>  <TORSDO>
F 16

$$$$
=
 OpenBabel11042419083D

 59 64  0  0  1  0  0  0  0  0999 V2000
  190.7820  170.7640  137.7340 C   0  0  0  0  0  3  0  0  0  0  0  0
  191.7740  170.1360  137.0940 C   0  0  0  0  0  0  0  0  0  0  0  0
  193.0130  172.8390  134.6600 C   0  0  0  0  0  1  0  0  0  0  0  0
  190.2890  172.1230  137.3190 C   0  0  2  0  0  3  0  0  0  0  0  0
  191.3350  172.8530  136.5710 N   0  0  0  0  0  0  0  0  0  0  0  0
  192.2740  172.1180  135.7490 C   0  0  0  0  0  0  0  0  0  0  0  0
  192.4880  170.8030  135.9860 C   0  0  0  0  0  0  0  0  0  0  0  0
  188.5800  172.1760  139.1750 C   0  0  0  0  0  2  0  0  0  0  0  0
  189.7420  172.9300  138.5210 C   0  0  1  0  0  3  0  0  0  0  0  0
  190.2110  174.0700  140.7070 C   0  0  0  0  0  2  0  0  0  0  0  0
  190.8040  173.2130  139.5940 C   0  0  0  0  0  2  0  0  0  0  0  0
  189.0230  173.3510  141.3440 C   0  0  2  0  0  3  0  0  0  0  0  0
  187.9650  173.0150  140.2910 C   0  0  0  0  0  2  0  0  0  0  0  0
  189.2080  174.3970  143.6300 N   0  0  0  0  0  2  0  0  0  0  0  0
  187.2540  174.6810  142.3280 N   0  0  0  0  0  2  0  0  0  0  0  0
  188.4390  174.1750  142.4450 C   0  0  0  0  0  0  0  0  0  0  0  0
  189.0540  177.3830  145.7460 C   0  0  2  0  0  3  0  0  0  0  0  0
  188.8940  176.6740  144.4060 C   0  0  0  0  0  2  0  0  0  0  0  0
  189.6150  174.9980  145.9600 C   0  0  0  0  0  2  0  0  0  0  0  0
  188.7450  175.2120  144.7420 C   0  0  2  0  0  3  0  0  0  0  0  0
  189.7190  176.3460  146.6700 C   0  0  1  0  0  3  0  0  0  0  0  0
  187.7420  177.7840  146.2750 N   0  0  2  0  0  0  0  0  0  0  0  0
  187.0630  176.5890  146.7910 C   0  0  0  0  0  2  0  0  0  0  0  0
  185.6090  178.8560  145.7160 C   0  0  0  0  0  2  0  0  0  0  0  0
  184.9980  177.9500  146.7570 C   0  0  0  0  0  3  0  0  0  0  0  0
  186.9180  178.2790  145.1680 C   0  0  0  0  0  2  0  0  0  0  0  0
  185.6810  176.9270  147.2890 C   0  0  0  0  0  3  0  0  0  0  0  0
  191.1240  176.6850  146.9110 N   0  0  0  0  0  0  0  0  0  0  0  0
  191.4240  176.3370  148.1880 O   0  0  0  0  0  1  0  0  0  0  0  0
  191.9460  175.8310  146.0600 C   0  0  0  0  0  2  0  0  0  0  0  0
  192.3460  176.8020  143.7990 C   0  0  0  0  0  1  0  0  0  0  0  0
  192.8810  176.6740  145.2090 C   0  0  0  0  0  2  0  0  0  0  0  0
  193.4390  169.9450  135.1840 C   0  0  2  0  0  3  0  0  0  0  0  0
  192.9700  168.5220  134.9100 C   0  0  0  0  0  1  0  0  0  0  0  0
  194.9090  170.0770  135.5920 C   0  0  0  0  0  2  0  0  0  0  0  0
  195.1500  169.8800  137.0810 C   0  0  0  0  0  2  0  0  0  0  0  0
  195.2180  171.1220  137.7170 O   0  0  0  0  0  0  0  0  0  0  0  0
  192.8380  172.3480  142.2310 C   0  0  0  0  0  1  0  0  0  0  0  0
  195.9580  172.9770  140.0850 C   0  0  0  0  0  0  0  0  0  0  0  0
  196.6490  172.3880  139.1060 C   0  0  0  0  0  3  0  0  0  0  0  0
  194.2310  172.8940  141.9820 C   0  0  0  0  0  0  0  0  0  0  0  0
  194.8040  172.2260  140.7140 C   0  0  2  0  0  3  0  0  0  0  0  0
  195.4290  175.1090  141.4690 C   0  0  1  0  0  3  0  0  0  0  0  0
  196.2420  174.3850  140.4390 C   0  0  0  0  0  0  0  0  0  0  0  0
  197.1830  175.0010  139.8710 O   0  0  0  0  0  0  0  0  0  0  0  0
  195.8900  170.0740  139.7620 C   0  0  2  0  0  3  0  0  0  0  0  0
  196.2820  171.0170  138.6120 C   0  0  1  0  0  3  0  0  0  0  0  0
  194.1000  174.4060  141.7800 C   0  0  0  0  0  2  0  0  0  0  0  0
  195.0760  172.5990  143.2170 C   0  0  0  0  0  1  0  0  0  0  0  0
  195.1640  170.7460  140.9480 C   0  0  0  0  0  2  0  0  0  0  0  0
  196.8320  168.5320  141.5420 C   0  0  0  0  0  1  0  0  0  0  0  0
  197.4020  168.1680  139.1480 C   0  0  0  0  0  1  0  0  0  0  0  0
  197.0710  169.2070  140.2010 C   0  0  0  0  0  3  0  0  0  0  0  0
  196.5560  176.7140  142.7530 C   0  0  0  0  0  1  0  0  0  0  0  0
  196.2120  175.3040  142.6800 N   0  0  0  0  0  2  0  0  0  0  0  0
  192.1650  168.8470  137.4740 O   0  0  0  0  0  0  0  0  0  0  0  0
  191.7740  168.2470  138.7000 C   0  0  0  0  0  1  0  0  0  0  0  0
  190.0320  174.6460  135.5510 C   0  0  0  0  0  1  0  0  0  0  0  0
  191.2340  174.3010  136.4060 C   0  0  0  0  0  2  0  0  0  0  0  0
  2 56  1  0  0  0  0
  2  1  2  0  0  0  0
  3  6  1  0  0  0  0
  4  1  1  1  0  0  0
  4  9  1  0  0  0  0
  5  4  1  0  0  0  0
  6  7  2  0  0  0  0
  6  5  1  0  0  0  0
  7  2  1  0  0  0  0
  8 13  1  0  0  0  0
  9  8  1  1  0  0  0
  9 11  1  0  0  0  0
 10 12  1  0  0  0  0
 11 10  1  0  0  0  0
 12 16  1  1  0  0  0
 13 12  1  0  0  0  0
 15 16  2  0  0  0  0
 16 14  1  0  0  0  0
 17 18  1  6  0  0  0
 17 22  1  0  0  0  0
 17 21  1  0  0  0  0
 18 20  1  0  0  0  0
 19 21  1  0  0  0  0
 20 14  1  6  0  0  0
 20 19  1  0  0  0  0
 21 28  1  6  0  0  0
 22 26  1  6  0  0  0
 22 23  1  0  0  0  0
 23 27  1  0  0  0  0
 24 25  1  0  0  0  0
 25 27  2  0  0  0  0
 26 24  1  0  0  0  0
 28 29  1  0  0  0  0
 30 28  1  0  0  0  0
 31 32  1  0  0  0  0
 32 30  1  0  0  0  0
 33 34  1  1  0  0  0
 33 35  1  0  0  0  0
 33  7  1  0  0  0  0
 35 36  1  0  0  0  0
 36 37  1  0  0  0  0
 39 44  1  0  0  0  0
 39 42  1  0  0  0  0
 40 39  2  0  0  0  0
 41 38  1  0  0  0  0
 41 49  1  0  0  0  0
 42 50  1  1  0  0  0
 42 41  1  0  0  0  0
 43 48  1  0  0  0  0
 43 55  1  1  0  0  0
 44 43  1  0  0  0  0
 45 44  2  0  0  0  0
 46 53  1  1  0  0  0
 46 50  1  0  0  0  0
 47 37  1  6  0  0  0
 47 40  1  0  0  0  0
 47 46  1  0  0  0  0
 48 41  1  0  0  0  0
 52 53  1  0  0  0  0
 53 51  1  0  0  0  0
 55 54  1  0  0  0  0
 56 57  1  0  0  0  0
 58 59  1  0  0  0  0
 59  5  1  0  0  0  0
M  END
>  <MODEL>
2

>  <REMARK>
 VINA RESULT:      -5.7      5.377      8.992
  Name = 
  16 active torsions:
  status: ('A' for Active; 'I' for Inactive)
    1  A    between atoms: N_2  and  C_4
    2  A    between atoms: C_3  and  O_22
    3  A    between atoms: C_5  and  C_6
    4  A    between atoms: C_5  and  C_12
    5  A    between atoms: C_6  and  C_50
    6  A    between atoms: N_10  and  C_40
    7  A    between atoms: N_10  and  C_41
    8  A    between atoms: C_12  and  O_54
    9  A    between atoms: C_18  and  N_45
   10  A    between atoms: C_23  and  C_51
   11  A    between atoms: C_24  and  C_42
   12  A    between atoms: N_25  and  C_26
   13  A    between atoms: C_34  and  O_54
   14  A    between atoms: C_36  and  C_40
   15  A    between atoms: N_47  and  C_49
   16  A    between atoms: C_56  and  C_57
                            x       y       z     vdW  Elec       q    Type
                         _______ _______ _______ _____ _____    ______ ____

>  <TORSDO>
F 16

$$$$
=
 OpenBabel11042419083D

 59 64  0  0  1  0  0  0  0  0999 V2000
  188.7370  177.3770  143.4430 C   0  0  0  0  0  3  0  0  0  0  0  0
  189.6250  176.5670  144.0280 C   0  0  0  0  0  0  0  0  0  0  0  0
  188.3500  176.4390  147.6500 C   0  0  0  0  0  1  0  0  0  0  0  0
  187.6870  178.1210  144.2240 C   0  0  2  0  0  3  0  0  0  0  0  0
  187.4130  177.4410  145.5090 N   0  0  0  0  0  0  0  0  0  0  0  0
  188.4760  176.7250  146.1830 C   0  0  0  0  0  0  0  0  0  0  0  0
  189.5540  176.3040  145.4800 C   0  0  0  0  0  0  0  0  0  0  0  0
  186.7200  178.2230  141.8960 C   0  0  0  0  0  2  0  0  0  0  0  0
  186.4070  178.3580  143.3900 C   0  0  1  0  0  3  0  0  0  0  0  0
  184.0220  177.7270  142.9290 C   0  0  0  0  0  2  0  0  0  0  0  0
  185.2690  177.3870  143.7370 C   0  0  0  0  0  2  0  0  0  0  0  0
  184.3270  177.6390  141.4340 C   0  0  2  0  0  3  0  0  0  0  0  0
  185.4890  178.5640  141.0630 C   0  0  0  0  0  2  0  0  0  0  0  0
  182.0570  178.7150  141.2320 N   0  0  0  0  0  2  0  0  0  0  0  0
  183.0110  177.5570  139.4030 N   0  0  0  0  0  2  0  0  0  0  0  0
  183.1100  177.9590  140.6290 C   0  0  0  0  0  0  0  0  0  0  0  0
  178.7260  180.1960  140.8780 C   0  0  2  0  0  3  0  0  0  0  0  0
  180.2100  180.2880  141.2120 C   0  0  0  0  0  2  0  0  0  0  0  0
  179.8120  178.0090  140.5860 C   0  0  0  0  0  2  0  0  0  0  0  0
  180.8480  179.1080  140.5240 C   0  0  2  0  0  3  0  0  0  0  0  0
  178.4500  178.6920  140.6900 C   0  0  1  0  0  3  0  0  0  0  0  0
  178.4300  180.9360  139.6430 N   0  0  2  0  0  0  0  0  0  0  0  0
  178.0910  179.9700  138.5910 C   0  0  0  0  0  2  0  0  0  0  0  0
  179.3260  182.5270  138.0080 C   0  0  0  0  0  2  0  0  0  0  0  0
  178.4490  181.8280  136.9980 C   0  0  0  0  0  3  0  0  0  0  0  0
  179.6480  181.6180  139.1970 C   0  0  0  0  0  2  0  0  0  0  0  0
  177.8400  180.6670  137.2790 C   0  0  0  0  0  3  0  0  0  0  0  0
  177.6980  178.1520  141.8260 N   0  0  0  0  0  0  0  0  0  0  0  0
  178.3000  176.9990  142.2140 O   0  0  0  0  0  1  0  0  0  0  0  0
  177.8450  179.0780  142.9450 C   0  0  0  0  0  2  0  0  0  0  0  0
  178.2610  179.2060  145.3990 C   0  0  0  0  0  1  0  0  0  0  0  0
  178.4230  178.3600  144.1530 C   0  0  0  0  0  2  0  0  0  0  0  0
  190.7180  175.5570  146.0870 C   0  0  2  0  0  3  0  0  0  0  0  0
  191.9270  176.4070  146.4530 C   0  0  0  0  0  1  0  0  0  0  0  0
  191.0430  174.2260  145.4030 C   0  0  0  0  0  2  0  0  0  0  0  0
  192.5150  173.8470  145.4720 C   0  0  0  0  0  2  0  0  0  0  0  0
  193.0900  173.9590  144.2030 O   0  0  0  0  0  0  0  0  0  0  0  0
  194.4350  174.5940  139.1710 C   0  0  0  0  0  1  0  0  0  0  0  0
  192.5530  172.3240  141.6270 C   0  0  0  0  0  0  0  0  0  0  0  0
  192.5260  172.0480  142.9330 C   0  0  0  0  0  3  0  0  0  0  0  0
  193.7080  173.3240  139.5640 C   0  0  0  0  0  0  0  0  0  0  0  0
  193.6210  173.2610  141.1040 C   0  0  2  0  0  3  0  0  0  0  0  0
  191.4190  172.1860  139.2960 C   0  0  1  0  0  3  0  0  0  0  0  0
  191.4730  171.8230  140.7500 C   0  0  0  0  0  0  0  0  0  0  0  0
  190.5730  171.0770  141.2180 O   0  0  0  0  0  0  0  0  0  0  0  0
  194.9290  172.7340  143.2780 C   0  0  2  0  0  3  0  0  0  0  0  0
  193.5140  172.6700  143.8790 C   0  0  1  0  0  3  0  0  0  0  0  0
  192.3070  173.3890  138.9490 C   0  0  0  0  0  2  0  0  0  0  0  0
  194.4820  172.1430  138.9860 C   0  0  0  0  0  1  0  0  0  0  0  0
  194.9860  172.9670  141.7530 C   0  0  0  0  0  2  0  0  0  0  0  0
  195.3790  171.0330  145.1050 C   0  0  0  0  0  1  0  0  0  0  0  0
  195.7330  170.4240  142.7180 C   0  0  0  0  0  1  0  0  0  0  0  0
  195.7830  171.5500  143.7330 C   0  0  0  0  0  3  0  0  0  0  0  0
  190.5320  170.5490  137.8710 C   0  0  0  0  0  1  0  0  0  0  0  0
  191.7610  171.0310  138.4780 N   0  0  0  0  0  2  0  0  0  0  0  0
  190.6220  175.9380  143.2730 O   0  0  0  0  0  0  0  0  0  0  0  0
  190.3500  175.1860  142.1010 C   0  0  0  0  0  1  0  0  0  0  0  0
  186.1260  179.2280  146.5610 C   0  0  0  0  0  1  0  0  0  0  0  0
  186.1890  177.7470  146.2460 C   0  0  0  0  0  2  0  0  0  0  0  0
  1  2  2  0  0  0  0
  2  7  1  0  0  0  0
  4  1  1  6  0  0  0
  4  5  1  0  0  0  0
  5  6  1  0  0  0  0
  5 59  1  0  0  0  0
  6  3  1  0  0  0  0
  7 33  1  0  0  0  0
  7  6  2  0  0  0  0
  9  8  1  6  0  0  0
  9 11  1  0  0  0  0
  9  4  1  0  0  0  0
 10 11  1  0  0  0  0
 12 16  1  6  0  0  0
 12 10  1  0  0  0  0
 13 12  1  0  0  0  0
 13  8  1  0  0  0  0
 15 16  2  0  0  0  0
 16 14  1  0  0  0  0
 17 18  1  6  0  0  0
 19 21  1  0  0  0  0
 20 19  1  0  0  0  0
 20 18  1  0  0  0  0
 20 14  1  1  0  0  0
 21 17  1  0  0  0  0
 21 28  1  1  0  0  0
 22 23  1  6  0  0  0
 22 17  1  0  0  0  0
 24 26  1  0  0  0  0
 25 27  2  0  0  0  0
 25 24  1  0  0  0  0
 26 22  1  0  0  0  0
 27 23  1  0  0  0  0
 28 29  1  0  0  0  0
 28 30  1  0  0  0  0
 30 32  1  0  0  0  0
 32 31  1  0  0  0  0
 33 34  1  6  0  0  0
 35 36  1  0  0  0  0
 35 33  1  0  0  0  0
 37 36  1  0  0  0  0
 38 41  1  0  0  0  0
 39 40  2  0  0  0  0
 40 47  1  0  0  0  0
 41 42  1  0  0  0  0
 42 39  1  0  0  0  0
 42 50  1  1  0  0  0
 43 55  1  6  0  0  0
 43 44  1  0  0  0  0
 44 45  2  0  0  0  0
 44 39  1  0  0  0  0
 46 53  1  6  0  0  0
 46 47  1  0  0  0  0
 47 37  1  6  0  0  0
 48 43  1  0  0  0  0
 48 41  1  0  0  0  0
 49 41  1  0  0  0  0
 50 46  1  0  0  0  0
 52 53  1  0  0  0  0
 53 51  1  0  0  0  0
 54 55  1  0  0  0  0
 56  2  1  0  0  0  0
 57 56  1  0  0  0  0
 59 58  1  0  0  0  0
M  END
>  <MODEL>
3

>  <REMARK>
 VINA RESULT:      -5.7      2.227      4.049
  Name = 
  16 active torsions:
  status: ('A' for Active; 'I' for Inactive)
    1  A    between atoms: N_2  and  C_4
    2  A    between atoms: C_3  and  O_22
    3  A    between atoms: C_5  and  C_6
    4  A    between atoms: C_5  and  C_12
    5  A    between atoms: C_6  and  C_50
    6  A    between atoms: N_10  and  C_40
    7  A    between atoms: N_10  and  C_41
    8  A    between atoms: C_12  and  O_54
    9  A    between atoms: C_18  and  N_45
   10  A    between atoms: C_23  and  C_51
   11  A    between atoms: C_24  and  C_42
   12  A    between atoms: N_25  and  C_26
   13  A    between atoms: C_34  and  O_54
   14  A    between atoms: C_36  and  C_40
   15  A    between atoms: N_47  and  C_49
   16  A    between atoms: C_56  and  C_57
                            x       y       z     vdW  Elec       q    Type
                         _______ _______ _______ _____ _____    ______ ____

>  <TORSDO>
F 16

$$$$
=
 OpenBabel11042419083D

 59 64  0  0  1  0  0  0  0  0999 V2000
  188.7480  177.7110  144.0460 C   0  0  0  0  0  3  0  0  0  0  0  0
  189.7080  176.9410  144.5670 C   0  0  0  0  0  0  0  0  0  0  0  0
  188.2730  176.0770  148.0250 C   0  0  0  0  0  1  0  0  0  0  0  0
  187.5650  178.1790  144.8490 C   0  0  2  0  0  3  0  0  0  0  0  0
  187.3210  177.2750  145.9940 N   0  0  0  0  0  0  0  0  0  0  0  0
  188.4360  176.6050  146.6300 C   0  0  0  0  0  0  0  0  0  0  0  0
  189.5980  176.4450  145.9540 C   0  0  0  0  0  0  0  0  0  0  0  0
  186.7240  178.6670  142.5210 C   0  0  0  0  0  2  0  0  0  0  0  0
  186.3100  178.3760  143.9670 C   0  0  1  0  0  3  0  0  0  0  0  0
  184.1270  177.4580  143.1380 C   0  0  0  0  0  2  0  0  0  0  0  0
  185.3710  177.1610  143.9680 C   0  0  0  0  0  2  0  0  0  0  0  0
  184.5240  177.7910  141.7010 C   0  0  2  0  0  3  0  0  0  0  0  0
  185.4970  178.9730  141.6680 C   0  0  0  0  0  2  0  0  0  0  0  0
  182.1870  178.7090  141.4810 N   0  0  0  0  0  2  0  0  0  0  0  0
  183.2850  177.7440  139.6210 N   0  0  0  0  0  2  0  0  0  0  0  0
  183.3130  178.0720  140.8720 C   0  0  0  0  0  0  0  0  0  0  0  0
  178.7820  179.9990  141.0890 C   0  0  2  0  0  3  0  0  0  0  0  0
  180.2470  180.1670  141.4690 C   0  0  0  0  0  2  0  0  0  0  0  0
  180.0080  177.8960  140.7420 C   0  0  0  0  0  2  0  0  0  0  0  0
  180.9760  179.0570  140.7540 C   0  0  2  0  0  3  0  0  0  0  0  0
  178.6050  178.4900  140.8330 C   0  0  1  0  0  3  0  0  0  0  0  0
  178.4740  180.7700  139.8760 N   0  0  2  0  0  0  0  0  0  0  0  0
  178.2120  179.8290  138.7800 C   0  0  0  0  0  2  0  0  0  0  0  0
  179.3190  182.4710  138.3250 C   0  0  0  0  0  2  0  0  0  0  0  0
  178.5050  181.7660  137.2680 C   0  0  0  0  0  3  0  0  0  0  0  0
  179.6630  181.5340  139.4870 C   0  0  0  0  0  2  0  0  0  0  0  0
  177.9540  180.5640  137.4890 C   0  0  0  0  0  3  0  0  0  0  0  0
  177.8570  177.8590  141.9240 N   0  0  0  0  0  0  0  0  0  0  0  0
  178.6330  176.8750  142.4460 O   0  0  0  0  0  1  0  0  0  0  0  0
  177.6920  178.8450  142.9870 C   0  0  0  0  0  2  0  0  0  0  0  0
  179.1370  179.3240  144.9610 C   0  0  0  0  0  1  0  0  0  0  0  0
  178.2330  178.3050  144.3000 C   0  0  0  0  0  2  0  0  0  0  0  0
  190.8210  175.7680  146.5270 C   0  0  2  0  0  3  0  0  0  0  0  0
  191.6140  176.5870  147.5370 C   0  0  0  0  0  1  0  0  0  0  0  0
  191.6660  175.0090  145.5000 C   0  0  0  0  0  2  0  0  0  0  0  0
  192.7130  174.0980  146.1230 C   0  0  0  0  0  2  0  0  0  0  0  0
  193.9920  174.5690  145.8130 O   0  0  0  0  0  0  0  0  0  0  0  0
  197.6220  177.2240  143.1090 C   0  0  0  0  0  1  0  0  0  0  0  0
  194.9120  174.5190  142.8550 C   0  0  0  0  0  0  0  0  0  0  0  0
  194.2550  173.6660  143.6460 C   0  0  0  0  0  3  0  0  0  0  0  0
  196.8760  176.1080  142.4050 C   0  0  0  0  0  0  0  0  0  0  0  0
  196.0370  175.3380  143.4480 C   0  0  2  0  0  3  0  0  0  0  0  0
  195.1010  175.7550  140.5800 C   0  0  1  0  0  3  0  0  0  0  0  0
  194.4460  174.7410  141.4690 C   0  0  0  0  0  0  0  0  0  0  0  0
  193.4800  174.0740  141.0130 O   0  0  0  0  0  0  0  0  0  0  0  0
  196.1180  173.5730  145.3430 C   0  0  2  0  0  3  0  0  0  0  0  0
  194.6000  173.5340  145.1020 C   0  0  1  0  0  3  0  0  0  0  0  0
  195.9660  176.7570  141.3570 C   0  0  0  0  0  2  0  0  0  0  0  0
  197.9070  175.2120  141.7250 C   0  0  0  0  0  1  0  0  0  0  0  0
  196.9140  174.4860  144.3850 C   0  0  0  0  0  2  0  0  0  0  0  0
  195.6400  171.1080  145.7020 C   0  0  0  0  0  1  0  0  0  0  0  0
  197.4940  171.8130  144.1990 C   0  0  0  0  0  1  0  0  0  0  0  0
  196.7040  172.1640  145.4450 C   0  0  0  0  0  3  0  0  0  0  0  0
  194.9340  174.5380  138.5840 C   0  0  0  0  0  1  0  0  0  0  0  0
  195.8750  175.0880  139.5440 N   0  0  0  0  0  2  0  0  0  0  0  0
  190.8220  176.5740  143.8030 O   0  0  0  0  0  0  0  0  0  0  0  0
  191.3050  177.3460  142.7140 C   0  0  0  0  0  1  0  0  0  0  0  0
  185.8600  178.6030  147.4290 C   0  0  0  0  0  1  0  0  0  0  0  0
  186.0280  177.2990  146.6750 C   0  0  0  0  0  2  0  0  0  0  0  0
  1  2  2  0  0  0  0
  2  7  1  0  0  0  0
  4  1  1  6  0  0  0
  4  5  1  0  0  0  0
  5  6  1  0  0  0  0
  5 59  1  0  0  0  0
  6  3  1  0  0  0  0
  7 33  1  0  0  0  0
  7  6  2  0  0  0  0
  9  8  1  6  0  0  0
  9 11  1  0  0  0  0
  9  4  1  0  0  0  0
 10 11  1  0  0  0  0
 12 16  1  6  0  0  0
 12 10  1  0  0  0  0
 13 12  1  0  0  0  0
 13  8  1  0  0  0  0
 15 16  2  0  0  0  0
 16 14  1  0  0  0  0
 17 18  1  6  0  0  0
 19 20  1  0  0  0  0
 19 21  1  0  0  0  0
 20 18  1  0  0  0  0
 20 14  1  1  0  0  0
 21 17  1  0  0  0  0
 21 28  1  1  0  0  0
 22 23  1  6  0  0  0
 22 17  1  0  0  0  0
 24 26  1  0  0  0  0
 25 27  2  0  0  0  0
 25 24  1  0  0  0  0
 26 22  1  0  0  0  0
 27 23  1  0  0  0  0
 28 29  1  0  0  0  0
 28 30  1  0  0  0  0
 30 32  1  0  0  0  0
 32 31  1  0  0  0  0
 33 34  1  6  0  0  0
 35 36  1  0  0  0  0
 35 33  1  0  0  0  0
 37 36  1  0  0  0  0
 39 42  1  0  0  0  0
 39 40  2  0  0  0  0
 40 47  1  0  0  0  0
 41 38  1  0  0  0  0
 41 42  1  0  0  0  0
 42 50  1  6  0  0  0
 43 55  1  6  0  0  0
 43 48  1  0  0  0  0
 43 44  1  0  0  0  0
 44 39  1  0  0  0  0
 45 44  2  0  0  0  0
 46 53  1  6  0  0  0
 47 46  1  0  0  0  0
 47 37  1  1  0  0  0
 48 41  1  0  0  0  0
 49 41  1  0  0  0  0
 50 46  1  0  0  0  0
 52 53  1  0  0  0  0
 53 51  1  0  0  0  0
 54 55  1  0  0  0  0
 56  2  1  0  0  0  0
 57 56  1  0  0  0  0
 59 58  1  0  0  0  0
M  END
>  <MODEL>
4

>  <REMARK>
 VINA RESULT:      -5.7      2.078      3.904
  Name = 
  16 active torsions:
  status: ('A' for Active; 'I' for Inactive)
    1  A    between atoms: N_2  and  C_4
    2  A    between atoms: C_3  and  O_22
    3  A    between atoms: C_5  and  C_6
    4  A    between atoms: C_5  and  C_12
    5  A    between atoms: C_6  and  C_50
    6  A    between atoms: N_10  and  C_40
    7  A    between atoms: N_10  and  C_41
    8  A    between atoms: C_12  and  O_54
    9  A    between atoms: C_18  and  N_45
   10  A    between atoms: C_23  and  C_51
   11  A    between atoms: C_24  and  C_42
   12  A    between atoms: N_25  and  C_26
   13  A    between atoms: C_34  and  O_54
   14  A    between atoms: C_36  and  C_40
   15  A    between atoms: N_47  and  C_49
   16  A    between atoms: C_56  and  C_57
                            x       y       z     vdW  Elec       q    Type
                         _______ _______ _______ _____ _____    ______ ____

>  <TORSDO>
F 16

$$$$
=
 OpenBabel11042419083D

 59 64  0  0  1  0  0  0  0  0999 V2000
  188.6550  177.7530  143.6780 C   0  0  0  0  0  3  0  0  0  0  0  0
  189.5940  176.8230  143.8800 C   0  0  0  0  0  0  0  0  0  0  0  0
  188.4640  175.2310  147.1890 C   0  0  0  0  0  1  0  0  0  0  0  0
  187.6100  178.0810  144.7090 C   0  0  2  0  0  3  0  0  0  0  0  0
  187.4100  176.9420  145.6300 N   0  0  0  0  0  0  0  0  0  0  0  0
  188.5240  176.0720  145.9480 C   0  0  0  0  0  0  0  0  0  0  0  0
  189.5880  176.0120  145.1150 C   0  0  0  0  0  0  0  0  0  0  0  0
  185.8480  177.5760  142.9750 C   0  0  0  0  0  2  0  0  0  0  0  0
  186.2900  178.5620  144.0600 C   0  0  1  0  0  3  0  0  0  0  0  0
  183.9010  179.2650  144.3700 C   0  0  0  0  0  2  0  0  0  0  0  0
  185.1430  178.7220  145.0680 C   0  0  0  0  0  2  0  0  0  0  0  0
  183.4700  178.3140  143.2550 C   0  0  2  0  0  3  0  0  0  0  0  0
  184.6090  178.0980  142.2550 C   0  0  0  0  0  2  0  0  0  0  0  0
  182.1090  178.6400  141.1580 N   0  0  0  0  0  2  0  0  0  0  0  0
  181.3240  179.4360  143.2420 N   0  0  0  0  0  2  0  0  0  0  0  0
  182.2460  178.8290  142.5690 C   0  0  0  0  0  0  0  0  0  0  0  0
  178.6810  179.8510  140.7120 C   0  0  2  0  0  3  0  0  0  0  0  0
  180.1010  180.0000  141.2440 C   0  0  0  0  0  2  0  0  0  0  0  0
  180.0420  177.8980  140.0940 C   0  0  0  0  0  2  0  0  0  0  0  0
  180.9420  179.0720  140.4040 C   0  0  2  0  0  3  0  0  0  0  0  0
  178.6060  178.4120  140.1690 C   0  0  1  0  0  3  0  0  0  0  0  0
  178.4300  180.8240  139.6390 N   0  0  2  0  0  0  0  0  0  0  0  0
  178.3980  180.1080  138.3590 C   0  0  0  0  0  2  0  0  0  0  0  0
  179.2540  182.8700  138.5690 C   0  0  0  0  0  2  0  0  0  0  0  0
  178.6460  182.3290  137.2980 C   0  0  0  0  0  3  0  0  0  0  0  0
  179.5650  181.7500  139.5650 C   0  0  0  0  0  2  0  0  0  0  0  0
  178.2090  181.0650  137.2100 C   0  0  0  0  0  3  0  0  0  0  0  0
  177.8080  177.5600  141.0560 N   0  0  0  0  0  0  0  0  0  0  0  0
  177.7110  176.3350  140.4790 O   0  0  0  0  0  1  0  0  0  0  0  0
  178.5620  177.3640  142.2900 C   0  0  0  0  0  2  0  0  0  0  0  0
  178.5230  177.7460  144.7530 C   0  0  0  0  0  1  0  0  0  0  0  0
  177.9500  178.1760  143.4190 C   0  0  0  0  0  2  0  0  0  0  0  0
  190.8020  175.1450  145.3570 C   0  0  2  0  0  3  0  0  0  0  0  0
  192.1220  175.8880  145.5080 C   0  0  0  0  0  1  0  0  0  0  0  0
  190.8610  173.8830  144.4920 C   0  0  0  0  0  2  0  0  0  0  0  0
  192.2440  173.5960  143.9240 C   0  0  0  0  0  2  0  0  0  0  0  0
  192.1230  172.9070  142.7150 O   0  0  0  0  0  0  0  0  0  0  0  0
  192.2200  170.1540  138.2480 C   0  0  0  0  0  1  0  0  0  0  0  0
  192.9480  173.5850  139.8060 C   0  0  0  0  0  0  0  0  0  0  0  0
  192.5960  174.3080  140.8720 C   0  0  0  0  0  3  0  0  0  0  0  0
  192.5610  171.6300  138.1890 C   0  0  0  0  0  0  0  0  0  0  0  0
  192.2500  172.2650  139.5610 C   0  0  2  0  0  3  0  0  0  0  0  0
  194.5740  173.1860  137.8220 C   0  0  1  0  0  3  0  0  0  0  0  0
  194.0910  174.0170  138.9730 C   0  0  0  0  0  0  0  0  0  0  0  0
  194.6820  175.1010  139.2230 O   0  0  0  0  0  0  0  0  0  0  0  0
  190.3670  173.1510  141.1050 C   0  0  2  0  0  3  0  0  0  0  0  0
  191.5470  173.8200  141.8300 C   0  0  1  0  0  3  0  0  0  0  0  0
  194.0560  171.7420  137.8720 C   0  0  0  0  0  2  0  0  0  0  0  0
  191.7370  172.2560  137.0680 C   0  0  0  0  0  1  0  0  0  0  0  0
  190.7360  172.3790  139.8200 C   0  0  0  0  0  2  0  0  0  0  0  0
  188.6180  174.0480  139.5020 C   0  0  0  0  0  1  0  0  0  0  0  0
  188.1260  173.9150  141.9380 C   0  0  0  0  0  1  0  0  0  0  0  0
  189.2110  174.1310  140.9000 C   0  0  0  0  0  3  0  0  0  0  0  0
  195.4400  173.9220  135.7720 C   0  0  0  0  0  1  0  0  0  0  0  0
  194.2250  173.8230  136.5610 N   0  0  0  0  0  2  0  0  0  0  0  0
  190.5840  176.5880  142.9190 O   0  0  0  0  0  0  0  0  0  0  0  0
  191.5450  177.5620  142.5400 C   0  0  0  0  0  1  0  0  0  0  0  0
  186.3580  177.7600  147.6750 C   0  0  0  0  0  1  0  0  0  0  0  0
  186.2040  176.8760  146.4540 C   0  0  0  0  0  2  0  0  0  0  0  0
  1  2  2  0  0  0  0
  2  7  1  0  0  0  0
  4  1  1  6  0  0  0
  4  5  1  0  0  0  0
  5  6  1  0  0  0  0
  5 59  1  0  0  0  0
  6  3  1  0  0  0  0
  7 33  1  0  0  0  0
  7  6  2  0  0  0  0
  9  8  1  6  0  0  0
  9  4  1  0  0  0  0
  9 11  1  0  0  0  0
 10 11  1  0  0  0  0
 12 16  1  6  0  0  0
 12 10  1  0  0  0  0
 13  8  1  0  0  0  0
 13 12  1  0  0  0  0
 14 16  1  0  0  0  0
 16 15  2  0  0  0  0
 17 18  1  6  0  0  0
 19 21  1  0  0  0  0
 19 20  1  0  0  0  0
 20 14  1  1  0  0  0
 20 18  1  0  0  0  0
 21 17  1  0  0  0  0
 21 28  1  1  0  0  0
 22 23  1  6  0  0  0
 22 17  1  0  0  0  0
 24 26  1  0  0  0  0
 25 24  1  0  0  0  0
 26 22  1  0  0  0  0
 27 25  2  0  0  0  0
 27 23  1  0  0  0  0
 28 30  1  0  0  0  0
 29 28  1  0  0  0  0
 30 32  1  0  0  0  0
 32 31  1  0  0  0  0
 33 34  1  6  0  0  0
 35 33  1  0  0  0  0
 36 35  1  0  0  0  0
 37 36  1  0  0  0  0
 39 40  2  0  0  0  0
 40 47  1  0  0  0  0
 41 38  1  0  0  0  0
 41 42  1  0  0  0  0
 42 39  1  0  0  0  0
 42 50  1  6  0  0  0
 43 55  1  6  0  0  0
 43 48  1  0  0  0  0
 43 44  1  0  0  0  0
 44 45  2  0  0  0  0
 44 39  1  0  0  0  0
 46 53  1  6  0  0  0
 46 47  1  0  0  0  0
 47 37  1  1  0  0  0
 48 41  1  0  0  0  0
 49 41  1  0  0  0  0
 50 46  1  0  0  0  0
 51 53  1  0  0  0  0
 53 52  1  0  0  0  0
 54 55  1  0  0  0  0
 56  2  1  0  0  0  0
 57 56  1  0  0  0  0
 59 58  1  0  0  0  0
M  END
>  <MODEL>
5

>  <REMARK>
 VINA RESULT:      -5.4      3.017      4.702
  Name = 
  16 active torsions:
  status: ('A' for Active; 'I' for Inactive)
    1  A    between atoms: N_2  and  C_4
    2  A    between atoms: C_3  and  O_22
    3  A    between atoms: C_5  and  C_6
    4  A    between atoms: C_5  and  C_12
    5  A    between atoms: C_6  and  C_50
    6  A    between atoms: N_10  and  C_40
    7  A    between atoms: N_10  and  C_41
    8  A    between atoms: C_12  and  O_54
    9  A    between atoms: C_18  and  N_45
   10  A    between atoms: C_23  and  C_51
   11  A    between atoms: C_24  and  C_42
   12  A    between atoms: N_25  and  C_26
   13  A    between atoms: C_34  and  O_54
   14  A    between atoms: C_36  and  C_40
   15  A    between atoms: N_47  and  C_49
   16  A    between atoms: C_56  and  C_57
                            x       y       z     vdW  Elec       q    Type
                         _______ _______ _______ _____ _____    ______ ____

>  <TORSDO>
F 16

$$$$
=
 OpenBabel11042419083D

 59 64  0  0  1  0  0  0  0  0999 V2000
  194.1620  171.5950  142.4940 C   0  0  0  0  0  3  0  0  0  0  0  0
  194.7720  170.4220  142.6920 C   0  0  0  0  0  0  0  0  0  0  0  0
  197.9220  171.4590  144.6330 C   0  0  0  0  0  1  0  0  0  0  0  0
  194.8090  172.9090  142.8400 C   0  0  2  0  0  3  0  0  0  0  0  0
  195.8490  172.7220  143.8750 N   0  0  0  0  0  0  0  0  0  0  0  0
  196.6010  171.4860  143.9220 C   0  0  0  0  0  0  0  0  0  0  0  0
  196.0950  170.3690  143.3470 C   0  0  0  0  0  0  0  0  0  0  0  0
  193.8480  175.1710  142.2690 C   0  0  0  0  0  2  0  0  0  0  0  0
  193.7650  173.9810  143.2310 C   0  0  1  0  0  3  0  0  0  0  0  0
  191.3620  174.5430  143.6890 C   0  0  0  0  0  2  0  0  0  0  0  0
  192.3230  173.4530  143.2260 C   0  0  0  0  0  2  0  0  0  0  0  0
  191.4620  175.7550  142.7640 C   0  0  2  0  0  3  0  0  0  0  0  0
  192.8990  176.2800  142.7120 C   0  0  0  0  0  2  0  0  0  0  0  0
  189.1430  176.4960  143.4150 N   0  0  0  0  0  2  0  0  0  0  0  0
  190.9360  178.0380  143.3770 N   0  0  0  0  0  2  0  0  0  0  0  0
  190.5170  176.8270  143.1990 C   0  0  0  0  0  0  0  0  0  0  0  0
  185.7670  177.7970  143.9840 C   0  0  2  0  0  3  0  0  0  0  0  0
  186.8560  176.7520  144.1870 C   0  0  0  0  0  2  0  0  0  0  0  0
  187.8090  178.4350  142.7710 C   0  0  0  0  0  2  0  0  0  0  0  0
  188.1520  177.4580  143.8720 C   0  0  2  0  0  3  0  0  0  0  0  0
  186.3210  178.7500  142.9080 C   0  0  1  0  0  3  0  0  0  0  0  0
  185.5110  178.5220  145.2370 N   0  0  2  0  0  0  0  0  0  0  0  0
  186.5390  178.1410  146.2140 C   0  0  0  0  0  2  0  0  0  0  0  0
  183.8630  178.9280  147.0060 C   0  0  0  0  0  2  0  0  0  0  0  0
  185.0450  179.1260  147.9230 C   0  0  0  0  0  3  0  0  0  0  0  0
  184.2300  178.0720  145.7910 C   0  0  0  0  0  2  0  0  0  0  0  0
  186.2900  178.8040  147.5440 C   0  0  0  0  0  3  0  0  0  0  0  0
  185.6400  178.5450  141.6270 N   0  0  0  0  0  0  0  0  0  0  0  0
  186.2380  177.5010  141.0000 O   0  0  0  0  0  1  0  0  0  0  0  0
  184.2730  178.1150  141.9060 C   0  0  0  0  0  2  0  0  0  0  0  0
  181.9870  178.1680  140.9140 C   0  0  0  0  0  1  0  0  0  0  0  0
  183.4680  178.0420  140.6200 C   0  0  0  0  0  2  0  0  0  0  0  0
  196.8010  169.0330  143.3330 C   0  0  2  0  0  3  0  0  0  0  0  0
  197.2530  168.5140  144.6920 C   0  0  0  0  0  1  0  0  0  0  0  0
  197.8190  168.8650  142.2020 C   0  0  0  0  0  2  0  0  0  0  0  0
  197.7790  169.9860  141.1740 C   0  0  0  0  0  2  0  0  0  0  0  0
  196.8490  169.6790  140.1770 O   0  0  0  0  0  0  0  0  0  0  0  0
  192.2880  172.1420  139.3590 C   0  0  0  0  0  1  0  0  0  0  0  0
  195.1970  170.3260  137.6370 C   0  0  0  0  0  0  0  0  0  0  0  0
  196.4740  170.0130  137.8680 C   0  0  0  0  0  3  0  0  0  0  0  0
  193.0900  171.6970  138.1520 C   0  0  0  0  0  0  0  0  0  0  0  0
  194.4740  171.2090  138.6310 C   0  0  2  0  0  3  0  0  0  0  0  0
  193.0260  169.9570  136.2620 C   0  0  1  0  0  3  0  0  0  0  0  0
  194.4840  169.7020  136.5010 C   0  0  0  0  0  0  0  0  0  0  0  0
  195.1000  168.9380  135.7110 O   0  0  0  0  0  0  0  0  0  0  0  0
  196.8190  171.9570  139.4380 C   0  0  2  0  0  3  0  0  0  0  0  0
  197.1830  170.5010  139.1000 C   0  0  1  0  0  3  0  0  0  0  0  0
  192.3180  170.5550  137.4850 C   0  0  0  0  0  2  0  0  0  0  0  0
  193.1990  172.8850  137.2000 C   0  0  0  0  0  1  0  0  0  0  0  0
  195.3710  172.3700  139.1010 C   0  0  0  0  0  2  0  0  0  0  0  0
  197.7150  173.1600  137.3930 C   0  0  0  0  0  1  0  0  0  0  0  0
  197.7990  174.2600  139.6230 C   0  0  0  0  0  1  0  0  0  0  0  0
  197.8600  172.9340  138.8900 C   0  0  0  0  0  3  0  0  0  0  0  0
  191.4230  170.9890  134.8980 C   0  0  0  0  0  1  0  0  0  0  0  0
  192.8510  170.8040  135.0910 N   0  0  0  0  0  2  0  0  0  0  0  0
  194.1600  169.2250  142.3040 O   0  0  0  0  0  0  0  0  0  0  0  0
  192.9910  169.1760  141.5000 C   0  0  0  0  0  1  0  0  0  0  0  0
  197.1040  174.8090  143.7280 C   0  0  0  0  0  1  0  0  0  0  0  0
  196.3330  173.8730  144.6350 C   0  0  0  0  0  2  0  0  0  0  0  0
  1  2  2  0  0  0  0
  2  7  1  0  0  0  0
  4  1  1  1  0  0  0
  4  9  1  0  0  0  0
  4  5  1  0  0  0  0
  5  6  1  0  0  0  0
  5 59  1  0  0  0  0
  6  3  1  0  0  0  0
  7  6  2  0  0  0  0
  8 13  1  0  0  0  0
  9  8  1  6  0  0  0
 11  9  1  0  0  0  0
 11 10  1  0  0  0  0
 12 16  1  1  0  0  0
 12 10  1  0  0  0  0
 13 12  1  0  0  0  0
 16 15  2  0  0  0  0
 16 14  1  0  0  0  0
 17 18  1  1  0  0  0
 17 22  1  0  0  0  0
 19 21  1  0  0  0  0
 19 20  1  0  0  0  0
 20 14  1  6  0  0  0
 20 18  1  0  0  0  0
 21 28  1  6  0  0  0
 21 17  1  0  0  0  0
 22 26  1  1  0  0  0
 22 23  1  0  0  0  0
 23 27  1  0  0  0  0
 24 25  1  0  0  0  0
 26 24  1  0  0  0  0
 27 25  2  0  0  0  0
 28 30  1  0  0  0  0
 29 28  1  0  0  0  0
 32 31  1  0  0  0  0
 32 30  1  0  0  0  0
 33  7  1  0  0  0  0
 33 34  1  1  0  0  0
 35 33  1  0  0  0  0
 36 35  1  0  0  0  0
 37 36  1  0  0  0  0
 39 40  2  0  0  0  0
 39 42  1  0  0  0  0
 40 47  1  0  0  0  0
 41 42  1  0  0  0  0
 41 38  1  0  0  0  0
 42 50  1  6  0  0  0
 43 55  1  6  0  0  0
 43 44  1  0  0  0  0
 43 48  1  0  0  0  0
 44 39  1  0  0  0  0
 45 44  2  0  0  0  0
 46 53  1  6  0  0  0
 47 46  1  0  0  0  0
 47 37  1  1  0  0  0
 48 41  1  0  0  0  0
 49 41  1  0  0  0  0
 50 46  1  0  0  0  0
 51 53  1  0  0  0  0
 53 52  1  0  0  0  0
 54 55  1  0  0  0  0
 56  2  1  0  0  0  0
 57 56  1  0  0  0  0
 58 59  1  0  0  0  0
M  END
>  <MODEL>
6

>  <REMARK>
 VINA RESULT:      -5.3      3.800      8.067
  Name = 
  16 active torsions:
  status: ('A' for Active; 'I' for Inactive)
    1  A    between atoms: N_2  and  C_4
    2  A    between atoms: C_3  and  O_22
    3  A    between atoms: C_5  and  C_6
    4  A    between atoms: C_5  and  C_12
    5  A    between atoms: C_6  and  C_50
    6  A    between atoms: N_10  and  C_40
    7  A    between atoms: N_10  and  C_41
    8  A    between atoms: C_12  and  O_54
    9  A    between atoms: C_18  and  N_45
   10  A    between atoms: C_23  and  C_51
   11  A    between atoms: C_24  and  C_42
   12  A    between atoms: N_25  and  C_26
   13  A    between atoms: C_34  and  O_54
   14  A    between atoms: C_36  and  C_40
   15  A    between atoms: N_47  and  C_49
   16  A    between atoms: C_56  and  C_57
                            x       y       z     vdW  Elec       q    Type
                         _______ _______ _______ _____ _____    ______ ____

>  <TORSDO>
F 16

$$$$
=
 OpenBabel11042419083D

 59 64  0  0  1  0  0  0  0  0999 V2000
  188.2360  176.3790  142.2360 C   0  0  0  0  0  3  0  0  0  0  0  0
  189.0710  175.4290  142.6690 C   0  0  0  0  0  0  0  0  0  0  0  0
  189.8020  176.5640  146.2660 C   0  0  0  0  0  1  0  0  0  0  0  0
  187.9380  177.6160  143.0380 C   0  0  2  0  0  3  0  0  0  0  0  0
  188.1910  177.3810  144.4750 N   0  0  0  0  0  0  0  0  0  0  0  0
  189.2390  176.4660  144.8790 C   0  0  0  0  0  0  0  0  0  0  0  0
  189.6780  175.5230  144.0120 C   0  0  0  0  0  0  0  0  0  0  0  0
  186.0260  177.6740  141.3920 C   0  0  0  0  0  2  0  0  0  0  0  0
  186.5130  178.1520  142.7630 C   0  0  1  0  0  3  0  0  0  0  0  0
  184.1290  178.3410  143.5240 C   0  0  0  0  0  2  0  0  0  0  0  0
  185.4880  177.7180  143.8210 C   0  0  0  0  0  2  0  0  0  0  0  0
  183.6460  177.9080  142.1400 C   0  0  2  0  0  3  0  0  0  0  0  0
  184.6690  178.2880  141.0660 C   0  0  0  0  0  2  0  0  0  0  0  0
  181.7780  178.3860  140.5180 N   0  0  0  0  0  2  0  0  0  0  0  0
  181.6410  179.1130  142.7640 N   0  0  0  0  0  2  0  0  0  0  0  0
  182.3090  178.5030  141.8400 C   0  0  0  0  0  0  0  0  0  0  0  0
  178.6370  180.2130  140.9850 C   0  0  2  0  0  3  0  0  0  0  0  0
  180.1590  180.1490  140.9190 C   0  0  0  0  0  2  0  0  0  0  0  0
  179.3820  177.9190  140.5040 C   0  0  0  0  0  2  0  0  0  0  0  0
  180.4720  178.9000  140.1330 C   0  0  2  0  0  3  0  0  0  0  0  0
  178.1720  178.7460  140.9310 C   0  0  1  0  0  3  0  0  0  0  0  0
  178.1050  180.9680  139.8420 N   0  0  2  0  0  0  0  0  0  0  0  0
  178.8200  180.5470  138.6310 C   0  0  0  0  0  2  0  0  0  0  0  0
  177.7280  183.2160  138.9370 C   0  0  0  0  0  2  0  0  0  0  0  0
  177.8980  182.5860  137.5760 C   0  0  0  0  0  3  0  0  0  0  0  0
  178.4150  182.3890  140.0290 C   0  0  0  0  0  2  0  0  0  0  0  0
  178.3610  181.3370  137.4320 C   0  0  0  0  0  3  0  0  0  0  0  0
  177.6930  178.3010  142.2430 N   0  0  0  0  0  0  0  0  0  0  0  0
  178.5560  177.3600  142.7040 O   0  0  0  0  0  1  0  0  0  0  0  0
  177.7950  179.4270  143.1660 C   0  0  0  0  0  2  0  0  0  0  0  0
  177.9110  179.7990  145.6280 C   0  0  0  0  0  1  0  0  0  0  0  0
  178.4460  178.9870  144.4670 C   0  0  0  0  0  2  0  0  0  0  0  0
  190.7690  174.5270  144.3300 C   0  0  2  0  0  3  0  0  0  0  0  0
  190.4170  173.4790  145.3780 C   0  0  0  0  0  1  0  0  0  0  0  0
  192.1660  175.1380  144.4650 C   0  0  0  0  0  2  0  0  0  0  0  0
  192.4470  176.2470  143.4620 C   0  0  0  0  0  2  0  0  0  0  0  0
  193.7150  176.0680  142.9040 O   0  0  0  0  0  0  0  0  0  0  0  0
  197.9400  175.4650  139.8500 C   0  0  0  0  0  1  0  0  0  0  0  0
  194.6380  173.8480  140.9510 C   0  0  0  0  0  0  0  0  0  0  0  0
  193.7750  173.9000  141.9690 C   0  0  0  0  0  3  0  0  0  0  0  0
  196.9470  174.3220  139.9350 C   0  0  0  0  0  0  0  0  0  0  0  0
  195.9250  174.6380  141.0490 C   0  0  2  0  0  3  0  0  0  0  0  0
  195.1680  173.1320  138.5120 C   0  0  1  0  0  3  0  0  0  0  0  0
  194.2650  173.1370  139.7090 C   0  0  0  0  0  0  0  0  0  0  0  0
  193.1690  172.5200  139.6390 O   0  0  0  0  0  0  0  0  0  0  0  0
  195.5290  174.6720  143.6090 C   0  0  2  0  0  3  0  0  0  0  0  0
  194.0530  174.7430  143.1800 C   0  0  1  0  0  3  0  0  0  0  0  0
  196.2470  174.2220  138.5770 C   0  0  0  0  0  2  0  0  0  0  0  0
  197.7280  173.0440  140.2200 C   0  0  0  0  0  1  0  0  0  0  0  0
  196.5430  174.5240  142.4550 C   0  0  0  0  0  2  0  0  0  0  0  0
  196.8320  172.6400  144.3890 C   0  0  0  0  0  1  0  0  0  0  0  0
  196.0410  174.3250  146.0410 C   0  0  0  0  0  1  0  0  0  0  0  0
  195.7380  173.6430  144.7210 C   0  0  0  0  0  3  0  0  0  0  0  0
  195.3030  171.2920  137.0660 C   0  0  0  0  0  1  0  0  0  0  0  0
  195.7650  171.8160  138.3400 N   0  0  0  0  0  2  0  0  0  0  0  0
  189.3670  174.3190  141.8670 O   0  0  0  0  0  0  0  0  0  0  0  0
  190.2780  174.3690  140.7810 C   0  0  0  0  0  1  0  0  0  0  0  0
  187.4200  177.5530  146.7840 C   0  0  0  0  0  1  0  0  0  0  0  0
  187.6200  178.2840  145.4720 C   0  0  0  0  0  2  0  0  0  0  0  0
  1  2  2  0  0  0  0
  2  7  1  0  0  0  0
  4  1  1  6  0  0  0
  4  5  1  0  0  0  0
  5  6  1  0  0  0  0
  5 59  1  0  0  0  0
  6  3  1  0  0  0  0
  7 33  1  0  0  0  0
  7  6  2  0  0  0  0
  9  8  1  6  0  0  0
  9  4  1  0  0  0  0
  9 11  1  0  0  0  0
 10 11  1  0  0  0  0
 12 16  1  6  0  0  0
 12 10  1  0  0  0  0
 13  8  1  0  0  0  0
 13 12  1  0  0  0  0
 14 16  1  0  0  0  0
 16 15  2  0  0  0  0
 17 18  1  6  0  0  0
 19 21  1  0  0  0  0
 20 19  1  0  0  0  0
 20 14  1  1  0  0  0
 20 18  1  0  0  0  0
 21 17  1  0  0  0  0
 21 28  1  1  0  0  0
 22 23  1  6  0  0  0
 22 26  1  0  0  0  0
 22 17  1  0  0  0  0
 24 26  1  0  0  0  0
 25 24  1  0  0  0  0
 27 25  2  0  0  0  0
 27 23  1  0  0  0  0
 28 29  1  0  0  0  0
 28 30  1  0  0  0  0
 30 32  1  0  0  0  0
 32 31  1  0  0  0  0
 33 35  1  0  0  0  0
 33 34  1  1  0  0  0
 36 35  1  0  0  0  0
 37 36  1  0  0  0  0
 38 41  1  0  0  0  0
 39 42  1  0  0  0  0
 39 40  2  0  0  0  0
 40 47  1  0  0  0  0
 41 49  1  0  0  0  0
 41 42  1  0  0  0  0
 42 50  1  1  0  0  0
 43 55  1  1  0  0  0
 43 48  1  0  0  0  0
 43 44  1  0  0  0  0
 44 39  1  0  0  0  0
 45 44  2  0  0  0  0
 46 53  1  1  0  0  0
 47 37  1  6  0  0  0
 47 46  1  0  0  0  0
 48 41  1  0  0  0  0
 50 46  1  0  0  0  0
 51 53  1  0  0  0  0
 53 52  1  0  0  0  0
 54 55  1  0  0  0  0
 56  2  1  0  0  0  0
 57 56  1  0  0  0  0
 59 58  1  0  0  0  0
M  END
>  <MODEL>
7

>  <REMARK>
 VINA RESULT:      -5.3      2.115      3.870
  Name = 
  16 active torsions:
  status: ('A' for Active; 'I' for Inactive)
    1  A    between atoms: N_2  and  C_4
    2  A    between atoms: C_3  and  O_22
    3  A    between atoms: C_5  and  C_6
    4  A    between atoms: C_5  and  C_12
    5  A    between atoms: C_6  and  C_50
    6  A    between atoms: N_10  and  C_40
    7  A    between atoms: N_10  and  C_41
    8  A    between atoms: C_12  and  O_54
    9  A    between atoms: C_18  and  N_45
   10  A    between atoms: C_23  and  C_51
   11  A    between atoms: C_24  and  C_42
   12  A    between atoms: N_25  and  C_26
   13  A    between atoms: C_34  and  O_54
   14  A    between atoms: C_36  and  C_40
   15  A    between atoms: N_47  and  C_49
   16  A    between atoms: C_56  and  C_57
                            x       y       z     vdW  Elec       q    Type
                         _______ _______ _______ _____ _____    ______ ____

>  <TORSDO>
F 16

$$$$
=
 OpenBabel11042419083D

 59 64  0  0  1  0  0  0  0  0999 V2000
  188.9530  176.6750  143.7450 C   0  0  0  0  0  3  0  0  0  0  0  0
  190.2580  176.4330  143.9100 C   0  0  0  0  0  0  0  0  0  0  0  0
  190.5860  172.8260  142.6260 C   0  0  0  0  0  1  0  0  0  0  0  0
  187.9800  175.6030  143.3350 C   0  0  2  0  0  3  0  0  0  0  0  0
  188.6770  174.5070  142.6290 N   0  0  0  0  0  0  0  0  0  0  0  0
  190.0420  174.1780  142.9840 C   0  0  0  0  0  0  0  0  0  0  0  0
  190.8130  175.0970  143.6110 C   0  0  0  0  0  0  0  0  0  0  0  0
  185.7880  176.8450  143.4630 C   0  0  0  0  0  2  0  0  0  0  0  0
  186.7970  176.1790  142.5230 C   0  0  1  0  0  3  0  0  0  0  0  0
  186.0220  177.6730  140.6610 C   0  0  0  0  0  2  0  0  0  0  0  0
  187.2290  177.2060  141.4670 C   0  0  0  0  0  2  0  0  0  0  0  0
  184.9850  178.3040  141.5900 C   0  0  2  0  0  3  0  0  0  0  0  0
  184.5650  177.3170  142.6820 C   0  0  0  0  0  2  0  0  0  0  0  0
  182.4880  178.4730  141.2910 N   0  0  0  0  0  2  0  0  0  0  0  0
  183.9610  179.4510  139.7200 N   0  0  0  0  0  2  0  0  0  0  0  0
  183.8010  178.7760  140.8120 C   0  0  0  0  0  0  0  0  0  0  0  0
  178.8750  178.9180  140.8870 C   0  0  2  0  0  3  0  0  0  0  0  0
  180.1800  179.1330  141.6440 C   0  0  0  0  0  2  0  0  0  0  0  0
  180.7440  177.8410  139.7060 C   0  0  0  0  0  2  0  0  0  0  0  0
  181.2730  178.9170  140.6270 C   0  0  2  0  0  3  0  0  0  0  0  0
  179.2200  177.9130  139.7720 C   0  0  1  0  0  3  0  0  0  0  0  0
  178.3980  180.1850  140.3140 N   0  0  2  0  0  0  0  0  0  0  0  0
  178.1320  179.9780  138.8850 C   0  0  0  0  0  2  0  0  0  0  0  0
  178.9520  182.5460  139.9550 C   0  0  0  0  0  2  0  0  0  0  0  0
  178.1190  182.4450  138.7000 C   0  0  0  0  0  3  0  0  0  0  0  0
  179.4760  181.1750  140.3930 C   0  0  0  0  0  2  0  0  0  0  0  0
  177.7010  181.2640  138.2260 C   0  0  0  0  0  3  0  0  0  0  0  0
  178.6630  176.5900  140.0700 N   0  0  0  0  0  0  0  0  0  0  0  0
  177.9560  176.6860  141.2240 O   0  0  0  0  0  1  0  0  0  0  0  0
  177.6920  176.2660  139.0300 C   0  0  0  0  0  2  0  0  0  0  0  0
  179.1690  174.6940  137.7800 C   0  0  0  0  0  1  0  0  0  0  0  0
  178.3980  175.9960  137.7120 C   0  0  0  0  0  2  0  0  0  0  0  0
  192.2450  174.8530  144.0300 C   0  0  2  0  0  3  0  0  0  0  0  0
  192.4410  174.4110  145.4740 C   0  0  0  0  0  1  0  0  0  0  0  0
  193.2390  175.9050  143.5320 C   0  0  0  0  0  2  0  0  0  0  0  0
  193.9660  175.5020  142.2570 C   0  0  0  0  0  2  0  0  0  0  0  0
  193.0470  175.0210  141.3220 O   0  0  0  0  0  0  0  0  0  0  0  0
  193.4220  176.2740  136.2400 C   0  0  0  0  0  1  0  0  0  0  0  0
  192.3800  173.5160  138.6970 C   0  0  0  0  0  0  0  0  0  0  0  0
  192.6150  173.1410  139.9570 C   0  0  0  0  0  3  0  0  0  0  0  0
  192.9950  174.8650  136.6020 C   0  0  0  0  0  0  0  0  0  0  0  0
  193.1730  174.6700  138.1230 C   0  0  2  0  0  3  0  0  0  0  0  0
  190.9200  173.3490  136.5570 C   0  0  1  0  0  3  0  0  0  0  0  0
  191.2720  172.8930  137.9420 C   0  0  0  0  0  0  0  0  0  0  0  0
  190.6000  171.9610  138.4580 O   0  0  0  0  0  0  0  0  0  0  0  0
  194.8900  174.2290  140.0140 C   0  0  2  0  0  3  0  0  0  0  0  0
  193.6240  173.8600  140.8070 C   0  0  1  0  0  3  0  0  0  0  0  0
  191.5220  174.7180  136.2110 C   0  0  0  0  0  2  0  0  0  0  0  0
  193.8530  173.8950  135.7960 C   0  0  0  0  0  1  0  0  0  0  0  0
  194.6570  174.5830  138.5290 C   0  0  0  0  0  2  0  0  0  0  0  0
  195.7870  172.3490  141.4610 C   0  0  0  0  0  1  0  0  0  0  0  0
  196.1200  172.2930  138.9960 C   0  0  0  0  0  1  0  0  0  0  0  0
  195.9950  173.1900  140.2120 C   0  0  0  0  0  3  0  0  0  0  0  0
  190.1290  171.9900  134.8190 C   0  0  0  0  0  1  0  0  0  0  0  0
  191.3140  172.3430  135.5820 N   0  0  0  0  0  2  0  0  0  0  0  0
  191.1210  177.4440  144.3490 O   0  0  0  0  0  0  0  0  0  0  0  0
  191.0610  178.7780  143.8680 C   0  0  0  0  0  1  0  0  0  0  0  0
  188.3270  173.6770  140.3610 C   0  0  0  0  0  1  0  0  0  0  0  0
  187.9120  173.5650  141.8140 C   0  0  0  0  0  2  0  0  0  0  0  0
  1  2  2  0  0  0  0
  2 56  1  0  0  0  0
  3  6  1  0  0  0  0
  4  1  1  6  0  0  0
  5  6  1  0  0  0  0
  5  4  1  0  0  0  0
  6  7  2  0  0  0  0
  7  2  1  0  0  0  0
  7 33  1  0  0  0  0
  9 11  1  6  0  0  0
  9  4  1  0  0  0  0
  9  8  1  0  0  0  0
 10 11  1  0  0  0  0
 10 12  1  0  0  0  0
 12 16  1  6  0  0  0
 12 13  1  0  0  0  0
 13  8  1  0  0  0  0
 15 16  2  0  0  0  0
 16 14  1  0  0  0  0
 17 18  1  6  0  0  0
 19 21  1  0  0  0  0
 19 20  1  0  0  0  0
 20 14  1  1  0  0  0
 20 18  1  0  0  0  0
 21 28  1  1  0  0  0
 21 17  1  0  0  0  0
 22 23  1  6  0  0  0
 22 26  1  0  0  0  0
 22 17  1  0  0  0  0
 24 26  1  0  0  0  0
 25 24  1  0  0  0  0
 27 25  2  0  0  0  0
 27 23  1  0  0  0  0
 28 29  1  0  0  0  0
 30 28  1  0  0  0  0
 32 31  1  0  0  0  0
 32 30  1  0  0  0  0
 33 34  1  1  0  0  0
 35 33  1  0  0  0  0
 36 35  1  0  0  0  0
 37 36  1  0  0  0  0
 38 41  1  0  0  0  0
 39 40  2  0  0  0  0
 40 47  1  0  0  0  0
 41 42  1  0  0  0  0
 42 50  1  6  0  0  0
 42 39  1  0  0  0  0
 43 55  1  6  0  0  0
 43 44  1  0  0  0  0
 44 45  2  0  0  0  0
 44 39  1  0  0  0  0
 46 53  1  6  0  0  0
 46 47  1  0  0  0  0
 47 37  1  6  0  0  0
 48 43  1  0  0  0  0
 48 41  1  0  0  0  0
 49 41  1  0  0  0  0
 50 46  1  0  0  0  0
 52 53  1  0  0  0  0
 53 51  1  0  0  0  0
 54 55  1  0  0  0  0
 57 56  1  0  0  0  0
 58 59  1  0  0  0  0
 59  5  1  0  0  0  0
M  END
>  <MODEL>
8

>  <REMARK>
 VINA RESULT:      -5.1      2.932      4.764
  Name = 
  16 active torsions:
  status: ('A' for Active; 'I' for Inactive)
    1  A    between atoms: N_2  and  C_4
    2  A    between atoms: C_3  and  O_22
    3  A    between atoms: C_5  and  C_6
    4  A    between atoms: C_5  and  C_12
    5  A    between atoms: C_6  and  C_50
    6  A    between atoms: N_10  and  C_40
    7  A    between atoms: N_10  and  C_41
    8  A    between atoms: C_12  and  O_54
    9  A    between atoms: C_18  and  N_45
   10  A    between atoms: C_23  and  C_51
   11  A    between atoms: C_24  and  C_42
   12  A    between atoms: N_25  and  C_26
   13  A    between atoms: C_34  and  O_54
   14  A    between atoms: C_36  and  C_40
   15  A    between atoms: N_47  and  C_49
   16  A    between atoms: C_56  and  C_57
                            x       y       z     vdW  Elec       q    Type
                         _______ _______ _______ _____ _____    ______ ____

>  <TORSDO>
F 16

$$$$
=
 OpenBabel11042419083D

 59 64  0  0  1  0  0  0  0  0999 V2000
  190.1640  177.5000  143.6670 C   0  0  0  0  0  3  0  0  0  0  0  0
  191.3210  177.0050  144.1170 C   0  0  0  0  0  0  0  0  0  0  0  0
  190.2680  175.3420  147.4170 C   0  0  0  0  0  1  0  0  0  0  0  0
  188.9060  177.4850  144.4920 C   0  0  2  0  0  3  0  0  0  0  0  0
  188.9660  176.4220  145.5170 N   0  0  0  0  0  0  0  0  0  0  0  0
  190.2420  176.0560  146.0970 C   0  0  0  0  0  0  0  0  0  0  0  0
  191.3870  176.3390  145.4340 C   0  0  0  0  0  0  0  0  0  0  0  0
  186.5120  178.2350  144.2160 C   0  0  0  0  0  2  0  0  0  0  0  0
  187.6390  177.3920  143.6100 C   0  0  1  0  0  3  0  0  0  0  0  0
  186.6010  177.6690  141.3420 C   0  0  0  0  0  2  0  0  0  0  0  0
  187.8700  177.8580  142.1650 C   0  0  0  0  0  2  0  0  0  0  0  0
  185.4550  178.4710  141.9570 C   0  0  2  0  0  3  0  0  0  0  0  0
  185.2270  178.0600  143.4130 C   0  0  0  0  0  2  0  0  0  0  0  0
  182.9410  178.5170  141.7830 N   0  0  0  0  0  2  0  0  0  0  0  0
  184.2700  177.9740  139.9040 N   0  0  0  0  0  2  0  0  0  0  0  0
  184.2060  178.3050  141.1530 C   0  0  0  0  0  0  0  0  0  0  0  0
  179.6470  179.6540  140.6550 C   0  0  2  0  0  3  0  0  0  0  0  0
  181.1620  179.7920  140.7340 C   0  0  0  0  0  2  0  0  0  0  0  0
  180.6100  177.8180  141.9770 C   0  0  0  0  0  2  0  0  0  0  0  0
  181.6710  178.4140  141.0800 C   0  0  2  0  0  3  0  0  0  0  0  0
  179.2960  178.5150  141.6300 C   0  0  1  0  0  3  0  0  0  0  0  0
  179.2320  179.3110  139.2870 N   0  0  2  0  0  0  0  0  0  0  0  0
  178.3860  180.3950  138.7710 C   0  0  0  0  0  2  0  0  0  0  0  0
  178.0760  177.6430  137.9120 C   0  0  0  0  0  2  0  0  0  0  0  0
  177.6920  178.7960  137.0160 C   0  0  0  0  0  3  0  0  0  0  0  0
  178.3840  178.1160  139.3350 C   0  0  0  0  0  2  0  0  0  0  0  0
  177.8740  180.0700  137.3920 C   0  0  0  0  0  3  0  0  0  0  0  0
  178.6660  179.0410  142.8450 N   0  0  0  0  0  0  0  0  0  0  0  0
  177.7350  178.1430  143.2530 O   0  0  0  0  0  1  0  0  0  0  0  0
  179.6770  179.0790  143.8970 C   0  0  0  0  0  2  0  0  0  0  0  0
  178.2130  179.9020  145.7390 C   0  0  0  0  0  1  0  0  0  0  0  0
  179.0530  178.7440  145.2410 C   0  0  0  0  0  2  0  0  0  0  0  0
  192.7670  176.0070  145.9530 C   0  0  2  0  0  3  0  0  0  0  0  0
  193.8210  177.0890  145.7600 C   0  0  0  0  0  1  0  0  0  0  0  0
  193.2340  174.5820  145.6430 C   0  0  0  0  0  2  0  0  0  0  0  0
  193.4730  174.3260  144.1620 C   0  0  0  0  0  2  0  0  0  0  0  0
  192.8730  173.1210  143.7890 O   0  0  0  0  0  0  0  0  0  0  0  0
  194.0150  168.6000  141.3810 C   0  0  0  0  0  1  0  0  0  0  0  0
  194.0620  172.4200  141.0160 C   0  0  0  0  0  0  0  0  0  0  0  0
  193.4590  173.4940  141.5310 C   0  0  0  0  0  3  0  0  0  0  0  0
  194.1790  169.8900  140.6010 C   0  0  0  0  0  0  0  0  0  0  0  0
  193.5780  171.0470  141.4280 C   0  0  2  0  0  3  0  0  0  0  0  0
  196.0200  171.4070  139.6440 C   0  0  1  0  0  3  0  0  0  0  0  0
  195.2620  172.5900  140.1680 C   0  0  0  0  0  0  0  0  0  0  0  0
  195.6690  173.7440  139.8720 O   0  0  0  0  0  0  0  0  0  0  0  0
  191.3800  172.2100  142.1540 C   0  0  2  0  0  3  0  0  0  0  0  0
  192.3390  173.3550  142.5220 C   0  0  1  0  0  3  0  0  0  0  0  0
  195.6800  170.1060  140.3860 C   0  0  0  0  0  2  0  0  0  0  0  0
  193.4740  169.7180  139.2590 C   0  0  0  0  0  1  0  0  0  0  0  0
  192.0400  170.9900  141.4760 C   0  0  0  0  0  2  0  0  0  0  0  0
  188.9270  171.8660  141.6070 C   0  0  0  0  0  1  0  0  0  0  0  0
  189.8590  174.1680  141.7600 C   0  0  0  0  0  1  0  0  0  0  0  0
  190.1600  172.7280  141.3900 C   0  0  0  0  0  3  0  0  0  0  0  0
  196.6860  170.2130  137.7400 C   0  0  0  0  0  1  0  0  0  0  0  0
  195.8010  171.2640  138.2130 N   0  0  0  0  0  2  0  0  0  0  0  0
  192.4840  177.0890  143.3410 O   0  0  0  0  0  0  0  0  0  0  0  0
  192.5260  176.7390  141.9670 C   0  0  0  0  0  1  0  0  0  0  0  0
  187.3710  176.9050  147.3000 C   0  0  0  0  0  1  0  0  0  0  0  0
  187.7380  175.9680  146.1670 C   0  0  0  0  0  2  0  0  0  0  0  0
  1  2  2  0  0  0  0
  2  7  1  0  0  0  0
  4  1  1  6  0  0  0
  4  5  1  0  0  0  0
  5  6  1  0  0  0  0
  5 59  1  0  0  0  0
  6  3  1  0  0  0  0
  7 33  1  0  0  0  0
  7  6  2  0  0  0  0
  9 11  1  6  0  0  0
  9  8  1  0  0  0  0
  9  4  1  0  0  0  0
 10 12  1  0  0  0  0
 10 11  1  0  0  0  0
 12 16  1  6  0  0  0
 12 13  1  0  0  0  0
 13  8  1  0  0  0  0
 15 16  2  0  0  0  0
 16 14  1  0  0  0  0
 17 18  1  6  0  0  0
 17 21  1  0  0  0  0
 18 20  1  0  0  0  0
 20 14  1  1  0  0  0
 20 19  1  0  0  0  0
 21 19  1  0  0  0  0
 21 28  1  1  0  0  0
 22 23  1  1  0  0  0
 22 26  1  0  0  0  0
 22 17  1  0  0  0  0
 24 26  1  0  0  0  0
 25 27  2  0  0  0  0
 25 24  1  0  0  0  0
 27 23  1  0  0  0  0
 28 29  1  0  0  0  0
 28 30  1  0  0  0  0
 30 32  1  0  0  0  0
 32 31  1  0  0  0  0
 33 34  1  6  0  0  0
 35 33  1  0  0  0  0
 36 35  1  0  0  0  0
 37 36  1  0  0  0  0
 39 42  1  0  0  0  0
 39 40  2  0  0  0  0
 40 47  1  0  0  0  0
 41 38  1  0  0  0  0
 41 42  1  0  0  0  0
 42 50  1  6  0  0  0
 43 55  1  6  0  0  0
 43 44  1  0  0  0  0
 43 48  1  0  0  0  0
 44 39  1  0  0  0  0
 45 44  2  0  0  0  0
 46 53  1  6  0  0  0
 46 47  1  0  0  0  0
 47 37  1  1  0  0  0
 48 41  1  0  0  0  0
 49 41  1  0  0  0  0
 50 46  1  0  0  0  0
 53 51  1  0  0  0  0
 53 52  1  0  0  0  0
 54 55  1  0  0  0  0
 56  2  1  0  0  0  0
 57 56  1  0  0  0  0
 59 58  1  0  0  0  0
M  END
>  <MODEL>
9

>  <REMARK>
 VINA RESULT:      -4.9      2.420      3.836
  Name = 
  16 active torsions:
  status: ('A' for Active; 'I' for Inactive)
    1  A    between atoms: N_2  and  C_4
    2  A    between atoms: C_3  and  O_22
    3  A    between atoms: C_5  and  C_6
    4  A    between atoms: C_5  and  C_12
    5  A    between atoms: C_6  and  C_50
    6  A    between atoms: N_10  and  C_40
    7  A    between atoms: N_10  and  C_41
    8  A    between atoms: C_12  and  O_54
    9  A    between atoms: C_18  and  N_45
   10  A    between atoms: C_23  and  C_51
   11  A    between atoms: C_24  and  C_42
   12  A    between atoms: N_25  and  C_26
   13  A    between atoms: C_34  and  O_54
   14  A    between atoms: C_36  and  C_40
   15  A    between atoms: N_47  and  C_49
   16  A    between atoms: C_56  and  C_57
                            x       y       z     vdW  Elec       q    Type
                         _______ _______ _______ _____ _____    ______ ____

>  <TORSDO>
F 16

$$$$
