=
 OpenBabel11042414403D

 28 30  0  0  1  0  0  0  0  0999 V2000
  186.9810  177.2890  143.9770 N   0  0  0  0  0  2  0  0  0  0  0  0
  184.6110  177.2140  142.5970 F   0  0  0  0  0  0  0  0  0  0  0  0
  185.7320  177.6580  141.9760 C   0  0  0  0  0  3  0  0  0  0  0  0
  186.8940  177.7090  142.6120 C   0  0  0  0  0  0  0  0  0  0  0  0
  188.3420  178.3040  141.7340 S   0  0  0  0  0  0  0  0  0  0  0  0
  187.6600  173.6780  142.1340 N   0  0  0  0  0  1  0  0  0  0  0  0
  190.0760  173.8410  142.6660 N   0  0  0  0  0  2  0  0  0  0  0  0
  188.8850  175.6850  142.0220 C   0  0  0  0  0  0  0  0  0  0  0  0
  190.8380  178.2520  143.7580 C   0  0  0  0  0  1  0  0  0  0  0  0
  188.8840  174.4010  142.1050 C   0  0  0  0  0  0  0  0  0  0  0  0
  189.3290  176.8820  142.1990 C   0  0  0  0  0  0  0  0  0  0  0  0
  191.3790  175.9290  143.2780 C   0  0  0  0  0  3  0  0  0  0  0  0
  191.3670  174.5550  142.6070 C   0  0  0  0  0  2  0  0  0  0  0  0
  190.5470  176.9770  143.0460 C   0  0  0  0  0  0  0  0  0  0  0  0
  187.4030  178.1580  144.9960 N   0  0  0  0  0  2  0  0  0  0  0  0
  186.6840  177.7570  147.3900 C   0  0  2  0  0  3  0  0  0  0  0  0
  187.5440  177.3880  146.2330 C   0  0  1  0  0  0  0  0  0  0  0  0
  186.3910  176.6500  146.5590 O   0  0  0  0  0  0  0  0  0  0  0  0
  189.9080  177.3480  147.0670 C   0  0  0  0  0  3  0  0  0  0  0  0
  192.4550  174.6810  147.1610 O   0  0  0  0  0  1  0  0  0  0  0  0
  191.2530  175.3370  146.9400 C   0  0  0  0  0  0  0  0  0  0  0  0
  188.9680  175.3170  146.1400 C   0  0  0  0  0  3  0  0  0  0  0  0
  191.1180  176.6850  147.2910 C   0  0  0  0  0  3  0  0  0  0  0  0
  188.8260  176.6650  146.4980 C   0  0  0  0  0  0  0  0  0  0  0  0
  190.1790  174.6540  146.3630 C   0  0  0  0  0  3  0  0  0  0  0  0
  185.7090  178.8840  147.0810 C   0  0  0  0  0  2  0  0  0  0  0  0
  183.8630  178.8470  145.4420 C   0  0  0  0  0  1  0  0  0  0  0  0
  184.3450  178.3070  146.7720 C   0  0  0  0  0  2  0  0  0  0  0  0
  1 15  1  0  0  0  0
  3  2  1  0  0  0  0
  3  4  2  0  0  0  0
  4  1  1  0  0  0  0
  5 11  1  0  0  0  0
  5  4  1  0  0  0  0
  8 10  2  0  0  0  0
  8 11  2  0  0  0  0
 10  6  1  0  0  0  0
 10  7  1  0  0  0  0
 11 14  1  0  0  0  0
 13  7  1  0  0  0  0
 13 12  1  0  0  0  0
 14 12  2  0  0  0  0
 14  9  1  0  0  0  0
 16 26  1  6  0  0  0
 17 15  1  6  0  0  0
 17 24  1  0  0  0  0
 17 18  1  0  0  0  0
 17 16  1  0  0  0  0
 18 16  1  0  0  0  0
 19 23  1  0  0  0  0
 21 20  1  0  0  0  0
 21 23  2  0  0  0  0
 22 25  2  0  0  0  0
 22 24  1  0  0  0  0
 24 19  2  0  0  0  0
 25 21  1  0  0  0  0
 27 28  1  0  0  0  0
 28 26  1  0  0  0  0
M  END
>  <MODEL>
1

>  <REMARK>
 VINA RESULT:      -6.7      0.000      0.000
  Name = 
  8 active torsions:
  status: ('A' for Active; 'I' for Inactive)
    1  A    between atoms: C_3  and  C_5
    2  A    between atoms: C_3  and  C_23
    3  A    between atoms: C_9  and  N_16
    4  A    between atoms: C_9  and  C_20
    5  A    between atoms: N_15  and  N_16
    6  A    between atoms: N_15  and  C_28
    7  A    between atoms: S_19  and  C_22
    8  A    between atoms: S_19  and  C_28
                            x       y       z     vdW  Elec       q    Type
                         _______ _______ _______ _____ _____    ______ ____

>  <TORSDO>
F 8

$$$$
=
 OpenBabel11042414403D

 28 30  0  0  1  0  0  0  0  0999 V2000
  189.0700  174.6290  145.1180 N   0  0  0  0  0  2  0  0  0  0  0  0
  189.3400  171.9200  145.4650 F   0  0  0  0  0  0  0  0  0  0  0  0
  190.2010  172.5790  144.6490 C   0  0  0  0  0  3  0  0  0  0  0  0
  190.1000  173.8880  144.4570 C   0  0  0  0  0  0  0  0  0  0  0  0
  191.2730  174.7010  143.3690 S   0  0  0  0  0  0  0  0  0  0  0  0
  188.2930  174.0280  139.8060 N   0  0  0  0  0  1  0  0  0  0  0  0
  187.6110  176.2880  140.5650 N   0  0  0  0  0  2  0  0  0  0  0  0
  189.2060  175.0990  141.6940 C   0  0  0  0  0  0  0  0  0  0  0  0
  191.1260  177.8980  143.0700 C   0  0  0  0  0  1  0  0  0  0  0  0
  188.2820  175.0450  140.8000 C   0  0  0  0  0  0  0  0  0  0  0  0
  189.9970  175.6540  142.5460 C   0  0  0  0  0  0  0  0  0  0  0  0
  188.9070  177.8590  142.0760 C   0  0  0  0  0  3  0  0  0  0  0  0
  187.5500  177.3400  141.5980 C   0  0  0  0  0  2  0  0  0  0  0  0
  189.9470  177.1390  142.5690 C   0  0  0  0  0  0  0  0  0  0  0  0
  189.1610  174.9790  146.4740 N   0  0  0  0  0  2  0  0  0  0  0  0
  190.0500  177.1640  147.3920 C   0  0  2  0  0  3  0  0  0  0  0  0
  189.0350  176.4330  146.5870 C   0  0  1  0  0  0  0  0  0  0  0  0
  190.0960  177.1290  145.9790 O   0  0  0  0  0  0  0  0  0  0  0  0
  186.6400  176.7590  147.2520 C   0  0  0  0  0  3  0  0  0  0  0  0
  183.9090  178.7530  145.7740 O   0  0  0  0  0  1  0  0  0  0  0  0
  185.1640  178.1930  145.9740 C   0  0  0  0  0  0  0  0  0  0  0  0
  187.4750  177.9290  145.3020 C   0  0  0  0  0  3  0  0  0  0  0  0
  185.3770  177.3250  147.0500 C   0  0  0  0  0  3  0  0  0  0  0  0
  187.6950  177.0650  146.3830 C   0  0  0  0  0  0  0  0  0  0  0  0
  186.2110  178.4930  145.0990 C   0  0  0  0  0  3  0  0  0  0  0  0
  191.1420  176.2620  147.9490 C   0  0  0  0  0  2  0  0  0  0  0  0
  192.9060  175.1330  146.6410 C   0  0  0  0  0  1  0  0  0  0  0  0
  192.4210  176.4670  147.1670 C   0  0  0  0  0  2  0  0  0  0  0  0
  1 15  1  0  0  0  0
  3  2  1  0  0  0  0
  4  3  2  0  0  0  0
  4  1  1  0  0  0  0
  5  4  1  0  0  0  0
  6 10  1  0  0  0  0
  7 10  1  0  0  0  0
  7 13  1  0  0  0  0
  8 11  2  0  0  0  0
 10  8  2  0  0  0  0
 11 14  1  0  0  0  0
 11  5  1  0  0  0  0
 12 14  2  0  0  0  0
 13 12  1  0  0  0  0
 14  9  1  0  0  0  0
 16 26  1  1  0  0  0
 17 15  1  6  0  0  0
 17 16  1  0  0  0  0
 18 17  1  0  0  0  0
 18 16  1  0  0  0  0
 20 21  1  0  0  0  0
 21 23  2  0  0  0  0
 22 24  1  0  0  0  0
 23 19  1  0  0  0  0
 24 17  1  0  0  0  0
 24 19  2  0  0  0  0
 25 22  2  0  0  0  0
 25 21  1  0  0  0  0
 27 28  1  0  0  0  0
 28 26  1  0  0  0  0
M  END
>  <MODEL>
2

>  <REMARK>
 VINA RESULT:      -6.6      2.539      5.047
  Name = 
  8 active torsions:
  status: ('A' for Active; 'I' for Inactive)
    1  A    between atoms: C_3  and  C_5
    2  A    between atoms: C_3  and  C_23
    3  A    between atoms: C_9  and  N_16
    4  A    between atoms: C_9  and  C_20
    5  A    between atoms: N_15  and  N_16
    6  A    between atoms: N_15  and  C_28
    7  A    between atoms: S_19  and  C_22
    8  A    between atoms: S_19  and  C_28
                            x       y       z     vdW  Elec       q    Type
                         _______ _______ _______ _____ _____    ______ ____

>  <TORSDO>
F 8

$$$$
=
 OpenBabel11042414403D

 28 30  0  0  1  0  0  0  0  0999 V2000
  186.9080  177.2260  144.1000 N   0  0  0  0  0  2  0  0  0  0  0  0
  184.5980  177.3040  142.6210 F   0  0  0  0  0  0  0  0  0  0  0  0
  185.7810  177.6030  142.0280 C   0  0  0  0  0  3  0  0  0  0  0  0
  186.9170  177.5760  142.7130 C   0  0  0  0  0  0  0  0  0  0  0  0
  188.4490  177.9780  141.8700 S   0  0  0  0  0  0  0  0  0  0  0  0
  192.4430  176.9700  144.1180 N   0  0  0  0  0  1  0  0  0  0  0  0
  191.4290  174.7150  143.9330 N   0  0  0  0  0  2  0  0  0  0  0  0
  190.3020  176.5740  143.2230 C   0  0  0  0  0  0  0  0  0  0  0  0
  188.2450  175.0240  140.6180 C   0  0  0  0  0  1  0  0  0  0  0  0
  191.3090  176.1400  143.8960 C   0  0  0  0  0  0  0  0  0  0  0  0
  189.2720  176.4960  142.4520 C   0  0  0  0  0  0  0  0  0  0  0  0
  189.5240  174.0040  142.4190 C   0  0  0  0  0  3  0  0  0  0  0  0
  190.2580  173.8350  143.7490 C   0  0  0  0  0  2  0  0  0  0  0  0
  189.0170  175.1460  141.8860 C   0  0  0  0  0  0  0  0  0  0  0  0
  187.1450  178.1760  145.1070 N   0  0  0  0  0  2  0  0  0  0  0  0
  186.3270  177.8970  147.4860 C   0  0  2  0  0  3  0  0  0  0  0  0
  187.2400  177.4780  146.3900 C   0  0  1  0  0  0  0  0  0  0  0  0
  186.0840  176.7420  146.7060 O   0  0  0  0  0  0  0  0  0  0  0  0
  188.5590  175.3910  146.8310 C   0  0  0  0  0  3  0  0  0  0  0  0
  192.0640  174.8460  147.8450 O   0  0  0  0  0  1  0  0  0  0  0  0
  190.8900  175.4900  147.4830 C   0  0  0  0  0  0  0  0  0  0  0  0
  189.6670  177.5340  147.0480 C   0  0  0  0  0  3  0  0  0  0  0  0
  189.7430  174.7430  147.1940 C   0  0  0  0  0  3  0  0  0  0  0  0
  188.5190  176.7880  146.7490 C   0  0  0  0  0  0  0  0  0  0  0  0
  190.8510  176.8860  147.4120 C   0  0  0  0  0  3  0  0  0  0  0  0
  185.3530  178.9910  147.0730 C   0  0  0  0  0  2  0  0  0  0  0  0
  183.7040  178.9930  145.2350 C   0  0  0  0  0  1  0  0  0  0  0  0
  184.0710  178.3670  146.5640 C   0  0  0  0  0  2  0  0  0  0  0  0
  1 15  1  0  0  0  0
  3  2  1  0  0  0  0
  3  4  2  0  0  0  0
  4  1  1  0  0  0  0
  5 11  1  0  0  0  0
  5  4  1  0  0  0  0
  8 10  2  0  0  0  0
  9 14  1  0  0  0  0
 10  7  1  0  0  0  0
 10  6  1  0  0  0  0
 11  8  2  0  0  0  0
 12 13  1  0  0  0  0
 13  7  1  0  0  0  0
 14 12  2  0  0  0  0
 14 11  1  0  0  0  0
 16 26  1  6  0  0  0
 17 15  1  6  0  0  0
 17 18  1  0  0  0  0
 17 24  1  0  0  0  0
 17 16  1  0  0  0  0
 18 16  1  0  0  0  0
 19 23  1  0  0  0  0
 21 20  1  0  0  0  0
 22 25  2  0  0  0  0
 23 21  2  0  0  0  0
 24 19  2  0  0  0  0
 24 22  1  0  0  0  0
 25 21  1  0  0  0  0
 27 28  1  0  0  0  0
 28 26  1  0  0  0  0
M  END
>  <MODEL>
3

>  <REMARK>
 VINA RESULT:      -6.6      1.095      2.154
  Name = 
  8 active torsions:
  status: ('A' for Active; 'I' for Inactive)
    1  A    between atoms: C_3  and  C_5
    2  A    between atoms: C_3  and  C_23
    3  A    between atoms: C_9  and  N_16
    4  A    between atoms: C_9  and  C_20
    5  A    between atoms: N_15  and  N_16
    6  A    between atoms: N_15  and  C_28
    7  A    between atoms: S_19  and  C_22
    8  A    between atoms: S_19  and  C_28
                            x       y       z     vdW  Elec       q    Type
                         _______ _______ _______ _____ _____    ______ ____

>  <TORSDO>
F 8

$$$$
=
 OpenBabel11042414403D

 28 30  0  0  1  0  0  0  0  0999 V2000
  187.5740  175.4590  142.8600 N   0  0  0  0  0  2  0  0  0  0  0  0
  187.4840  176.6010  140.3670 F   0  0  0  0  0  0  0  0  0  0  0  0
  187.9650  175.3400  140.5080 C   0  0  0  0  0  3  0  0  0  0  0  0
  188.0240  174.7570  141.6980 C   0  0  0  0  0  0  0  0  0  0  0  0
  188.6670  173.0860  141.8170 S   0  0  0  0  0  0  0  0  0  0  0  0
  192.9170  174.3380  140.2710 N   0  0  0  0  0  1  0  0  0  0  0  0
  193.1740  174.7220  142.7070 N   0  0  0  0  0  2  0  0  0  0  0  0
  191.1630  174.0870  141.8220 C   0  0  0  0  0  0  0  0  0  0  0  0
  189.7950  172.3320  144.7310 C   0  0  0  0  0  1  0  0  0  0  0  0
  192.3430  174.5280  141.5580 C   0  0  0  0  0  0  0  0  0  0  0  0
  190.2080  173.6260  142.5540 C   0  0  0  0  0  0  0  0  0  0  0  0
  191.6810  173.8590  144.5670 C   0  0  0  0  0  3  0  0  0  0  0  0
  192.6000  174.9650  144.0450 C   0  0  0  0  0  2  0  0  0  0  0  0
  190.5880  173.3290  143.9610 C   0  0  0  0  0  0  0  0  0  0  0  0
  188.1320  176.6870  143.2490 N   0  0  0  0  0  2  0  0  0  0  0  0
  186.8690  178.0050  145.0020 C   0  0  2  0  0  3  0  0  0  0  0  0
  187.8190  176.9130  144.6610 C   0  0  1  0  0  0  0  0  0  0  0  0
  186.4750  176.6460  144.9780 O   0  0  0  0  0  0  0  0  0  0  0  0
  190.0070  177.1420  145.8650 C   0  0  0  0  0  3  0  0  0  0  0  0
  191.5740  175.1580  148.5510 O   0  0  0  0  0  1  0  0  0  0  0  0
  190.6530  175.5880  147.6070 C   0  0  0  0  0  0  0  0  0  0  0  0
  188.5190  175.3350  146.4900 C   0  0  0  0  0  3  0  0  0  0  0  0
  190.9340  176.7090  146.8170 C   0  0  0  0  0  3  0  0  0  0  0  0
  188.7940  176.4620  145.7030 C   0  0  0  0  0  0  0  0  0  0  0  0
  189.4470  174.9010  147.4420 C   0  0  0  0  0  3  0  0  0  0  0  0
  186.2980  178.7100  143.7810 C   0  0  0  0  0  2  0  0  0  0  0  0
  184.2160  179.1520  145.0330 C   0  0  0  0  0  1  0  0  0  0  0  0
  185.3260  179.7840  144.2200 C   0  0  0  0  0  2  0  0  0  0  0  0
  1 15  1  0  0  0  0
  2  3  1  0  0  0  0
  3  4  2  0  0  0  0
  4  5  1  0  0  0  0
  4  1  1  0  0  0  0
  5 11  1  0  0  0  0
  6 10  1  0  0  0  0
  7 13  1  0  0  0  0
  8 11  2  0  0  0  0
 10  8  2  0  0  0  0
 10  7  1  0  0  0  0
 11 14  1  0  0  0  0
 13 12  1  0  0  0  0
 14 12  2  0  0  0  0
 14  9  1  0  0  0  0
 16 26  1  6  0  0  0
 17 15  1  6  0  0  0
 17 18  1  0  0  0  0
 17 16  1  0  0  0  0
 17 24  1  0  0  0  0
 18 16  1  0  0  0  0
 19 23  1  0  0  0  0
 21 20  1  0  0  0  0
 22 25  2  0  0  0  0
 23 21  2  0  0  0  0
 24 19  2  0  0  0  0
 24 22  1  0  0  0  0
 25 21  1  0  0  0  0
 26 28  1  0  0  0  0
 28 27  1  0  0  0  0
M  END
>  <MODEL>
4

>  <REMARK>
 VINA RESULT:      -6.0      2.123      2.989
  Name = 
  8 active torsions:
  status: ('A' for Active; 'I' for Inactive)
    1  A    between atoms: C_3  and  C_5
    2  A    between atoms: C_3  and  C_23
    3  A    between atoms: C_9  and  N_16
    4  A    between atoms: C_9  and  C_20
    5  A    between atoms: N_15  and  N_16
    6  A    between atoms: N_15  and  C_28
    7  A    between atoms: S_19  and  C_22
    8  A    between atoms: S_19  and  C_28
                            x       y       z     vdW  Elec       q    Type
                         _______ _______ _______ _____ _____    ______ ____

>  <TORSDO>
F 8

$$$$
=
 OpenBabel11042414403D

 28 30  0  0  1  0  0  0  0  0999 V2000
  189.1510  174.9010  143.8340 N   0  0  0  0  0  2  0  0  0  0  0  0
  189.2460  173.6690  146.2840 F   0  0  0  0  0  0  0  0  0  0  0  0
  189.8470  173.0840  145.2180 C   0  0  0  0  0  3  0  0  0  0  0  0
  189.8210  173.6500  144.0190 C   0  0  0  0  0  0  0  0  0  0  0  0
  190.6390  172.8280  142.6500 S   0  0  0  0  0  0  0  0  0  0  0  0
  194.0380  175.8710  141.5530 N   0  0  0  0  0  1  0  0  0  0  0  0
  195.0190  174.7770  143.5500 N   0  0  0  0  0  2  0  0  0  0  0  0
  192.9000  174.2710  142.8520 C   0  0  0  0  0  0  0  0  0  0  0  0
  192.7010  170.8330  144.0990 C   0  0  0  0  0  1  0  0  0  0  0  0
  193.8870  175.0870  142.7300 C   0  0  0  0  0  0  0  0  0  0  0  0
  192.2760  173.2210  143.2640 C   0  0  0  0  0  0  0  0  0  0  0  0
  194.2830  172.6030  144.6290 C   0  0  0  0  0  3  0  0  0  0  0  0
  194.8790  174.0010  144.7990 C   0  0  0  0  0  2  0  0  0  0  0  0
  193.1090  172.2630  144.0370 C   0  0  0  0  0  0  0  0  0  0  0  0
  189.8510  176.1170  143.7760 N   0  0  0  0  0  2  0  0  0  0  0  0
  190.5510  176.9620  146.0560 C   0  0  2  0  0  3  0  0  0  0  0  0
  189.5320  176.8940  144.9740 C   0  0  1  0  0  0  0  0  0  0  0  0
  190.3580  178.0210  145.1380 O   0  0  0  0  0  0  0  0  0  0  0  0
  187.3200  177.9920  144.5410 C   0  0  0  0  0  3  0  0  0  0  0  0
  184.1070  177.8860  146.3500 O   0  0  0  0  0  1  0  0  0  0  0  0
  185.4300  177.6360  146.0120 C   0  0  0  0  0  0  0  0  0  0  0  0
  187.5380  176.5350  146.4640 C   0  0  0  0  0  3  0  0  0  0  0  0
  185.9880  178.2410  144.8810 C   0  0  0  0  0  3  0  0  0  0  0  0
  188.0980  177.1320  145.3270 C   0  0  0  0  0  0  0  0  0  0  0  0
  186.2050  176.7850  146.8050 C   0  0  0  0  0  3  0  0  0  0  0  0
  191.8430  176.2350  145.7150 C   0  0  0  0  0  2  0  0  0  0  0  0
  191.2530  175.5050  147.9990 C   0  0  0  0  0  1  0  0  0  0  0  0
  192.2820  175.3950  146.8940 C   0  0  0  0  0  2  0  0  0  0  0  0
  1  4  1  0  0  0  0
  3  2  1  0  0  0  0
  4  3  2  0  0  0  0
  5 11  1  0  0  0  0
  5  4  1  0  0  0  0
  6 10  1  0  0  0  0
  7 13  1  0  0  0  0
  8 11  2  0  0  0  0
 10  8  2  0  0  0  0
 10  7  1  0  0  0  0
 11 14  1  0  0  0  0
 12 13  1  0  0  0  0
 14  9  1  0  0  0  0
 14 12  2  0  0  0  0
 15  1  1  0  0  0  0
 16 26  1  6  0  0  0
 17 15  1  6  0  0  0
 17 18  1  0  0  0  0
 17 24  1  0  0  0  0
 17 16  1  0  0  0  0
 18 16  1  0  0  0  0
 19 23  2  0  0  0  0
 19 24  1  0  0  0  0
 21 20  1  0  0  0  0
 21 25  2  0  0  0  0
 22 25  1  0  0  0  0
 23 21  1  0  0  0  0
 24 22  2  0  0  0  0
 26 28  1  0  0  0  0
 28 27  1  0  0  0  0
M  END
>  <MODEL>
5

>  <REMARK>
 VINA RESULT:      -5.9      3.126      5.594
  Name = 
  8 active torsions:
  status: ('A' for Active; 'I' for Inactive)
    1  A    between atoms: C_3  and  C_5
    2  A    between atoms: C_3  and  C_23
    3  A    between atoms: C_9  and  N_16
    4  A    between atoms: C_9  and  C_20
    5  A    between atoms: N_15  and  N_16
    6  A    between atoms: N_15  and  C_28
    7  A    between atoms: S_19  and  C_22
    8  A    between atoms: S_19  and  C_28
                            x       y       z     vdW  Elec       q    Type
                         _______ _______ _______ _____ _____    ______ ____

>  <TORSDO>
F 8

$$$$
=
 OpenBabel11042414403D

 28 30  0  0  1  0  0  0  0  0999 V2000
  189.0460  174.4760  145.0590 N   0  0  0  0  0  2  0  0  0  0  0  0
  189.2940  171.7790  145.5000 F   0  0  0  0  0  0  0  0  0  0  0  0
  190.1550  172.4000  144.6550 C   0  0  0  0  0  3  0  0  0  0  0  0
  190.0640  173.7020  144.4180 C   0  0  0  0  0  0  0  0  0  0  0  0
  191.2350  174.4650  143.2920 S   0  0  0  0  0  0  0  0  0  0  0  0
  192.0780  171.9900  139.3960 N   0  0  0  0  0  1  0  0  0  0  0  0
  189.6710  172.5100  139.1070 N   0  0  0  0  0  2  0  0  0  0  0  0
  190.7850  173.1120  141.0120 C   0  0  0  0  0  0  0  0  0  0  0  0
  188.7910  176.0440  141.9270 C   0  0  0  0  0  1  0  0  0  0  0  0
  190.8300  172.4020  139.9390 C   0  0  0  0  0  0  0  0  0  0  0  0
  190.3060  173.9760  141.8390 C   0  0  0  0  0  0  0  0  0  0  0  0
  188.3160  174.2580  140.3460 C   0  0  0  0  0  3  0  0  0  0  0  0
  188.3560  172.8930  139.6580 C   0  0  0  0  0  2  0  0  0  0  0  0
  189.1060  174.7070  141.3550 C   0  0  0  0  0  0  0  0  0  0  0  0
  189.1720  174.9140  146.3870 N   0  0  0  0  0  2  0  0  0  0  0  0
  190.0860  177.1420  147.1650 C   0  0  2  0  0  3  0  0  0  0  0  0
  189.0630  176.3730  146.4070 C   0  0  1  0  0  0  0  0  0  0  0  0
  190.1330  177.0160  145.7570 O   0  0  0  0  0  0  0  0  0  0  0  0
  186.6690  176.7640  147.0400 C   0  0  0  0  0  3  0  0  0  0  0  0
  183.9660  178.6950  145.4340 O   0  0  0  0  0  1  0  0  0  0  0  0
  185.2140  178.1350  145.6730 C   0  0  0  0  0  0  0  0  0  0  0  0
  187.5240  177.8070  145.0280 C   0  0  0  0  0  3  0  0  0  0  0  0
  185.4140  177.3300  146.8000 C   0  0  0  0  0  3  0  0  0  0  0  0
  187.7310  177.0070  146.1600 C   0  0  0  0  0  0  0  0  0  0  0  0
  186.2680  178.3720  144.7870 C   0  0  0  0  0  3  0  0  0  0  0  0
  191.1660  176.2650  147.7810 C   0  0  0  0  0  2  0  0  0  0  0  0
  192.9260  175.0310  146.5660 C   0  0  0  0  0  1  0  0  0  0  0  0
  192.4480  176.4030  146.9890 C   0  0  0  0  0  2  0  0  0  0  0  0
  1 15  1  0  0  0  0
  3  2  1  0  0  0  0
  4  3  2  0  0  0  0
  4  1  1  0  0  0  0
  5  4  1  0  0  0  0
  6 10  1  0  0  0  0
  7 13  1  0  0  0  0
  7 10  1  0  0  0  0
  8 11  2  0  0  0  0
 10  8  2  0  0  0  0
 11  5  1  0  0  0  0
 12 14  2  0  0  0  0
 13 12  1  0  0  0  0
 14 11  1  0  0  0  0
 14  9  1  0  0  0  0
 16 26  1  1  0  0  0
 17 15  1  1  0  0  0
 17 16  1  0  0  0  0
 18 17  1  0  0  0  0
 18 16  1  0  0  0  0
 20 21  1  0  0  0  0
 21 23  2  0  0  0  0
 22 24  1  0  0  0  0
 23 19  1  0  0  0  0
 24 17  1  0  0  0  0
 24 19  2  0  0  0  0
 25 22  2  0  0  0  0
 25 21  1  0  0  0  0
 27 28  1  0  0  0  0
 28 26  1  0  0  0  0
M  END
>  <MODEL>
6

>  <REMARK>
 VINA RESULT:      -5.9      2.847      5.338
  Name = 
  8 active torsions:
  status: ('A' for Active; 'I' for Inactive)
    1  A    between atoms: C_3  and  C_5
    2  A    between atoms: C_3  and  C_23
    3  A    between atoms: C_9  and  N_16
    4  A    between atoms: C_9  and  C_20
    5  A    between atoms: N_15  and  N_16
    6  A    between atoms: N_15  and  C_28
    7  A    between atoms: S_19  and  C_22
    8  A    between atoms: S_19  and  C_28
                            x       y       z     vdW  Elec       q    Type
                         _______ _______ _______ _____ _____    ______ ____

>  <TORSDO>
F 8

$$$$
=
 OpenBabel11042414403D

 28 30  0  0  1  0  0  0  0  0999 V2000
  189.5690  176.2890  142.7390 N   0  0  0  0  0  2  0  0  0  0  0  0
  189.2870  178.6610  141.3880 F   0  0  0  0  0  0  0  0  0  0  0  0
  188.1840  177.9410  141.7110 C   0  0  0  0  0  3  0  0  0  0  0  0
  188.2820  176.7890  142.3630 C   0  0  0  0  0  0  0  0  0  0  0  0
  186.7850  175.8860  142.7650 S   0  0  0  0  0  0  0  0  0  0  0  0
  186.4930  176.6670  147.3830 N   0  0  0  0  0  1  0  0  0  0  0  0
  185.5790  178.7920  146.4920 N   0  0  0  0  0  2  0  0  0  0  0  0
  186.4090  177.1880  145.0890 C   0  0  0  0  0  0  0  0  0  0  0  0
  184.3850  177.9270  142.1280 C   0  0  0  0  0  1  0  0  0  0  0  0
  186.3260  177.5850  146.3100 C   0  0  0  0  0  0  0  0  0  0  0  0
  186.1640  177.1930  143.8230 C   0  0  0  0  0  0  0  0  0  0  0  0
  184.7680  179.2490  144.1330 C   0  0  0  0  0  3  0  0  0  0  0  0
  185.4300  179.7800  145.4050 C   0  0  0  0  0  2  0  0  0  0  0  0
  185.1330  178.1720  143.3910 C   0  0  0  0  0  0  0  0  0  0  0  0
  190.1330  176.5610  143.9960 N   0  0  0  0  0  2  0  0  0  0  0  0
  190.7730  174.4490  145.2340 C   0  0  2  0  0  3  0  0  0  0  0  0
  191.1360  175.5350  144.2860 C   0  0  1  0  0  0  0  0  0  0  0  0
  190.7660  174.2560  143.8330 O   0  0  0  0  0  0  0  0  0  0  0  0
  193.2220  175.4950  142.8950 C   0  0  0  0  0  3  0  0  0  0  0  0
  196.6590  176.6660  143.5510 O   0  0  0  0  0  1  0  0  0  0  0  0
  195.3090  176.3970  143.7300 C   0  0  0  0  0  0  0  0  0  0  0  0
  193.3180  176.4800  145.1060 C   0  0  0  0  0  3  0  0  0  0  0  0
  194.5810  175.7680  142.7140 C   0  0  0  0  0  3  0  0  0  0  0  0
  192.5840  175.8570  144.0880 C   0  0  0  0  0  0  0  0  0  0  0  0
  194.6780  176.7510  144.9260 C   0  0  0  0  0  3  0  0  0  0  0  0
  189.3380  174.5380  145.7330 C   0  0  0  0  0  2  0  0  0  0  0  0
  190.5650  175.3020  147.7340 C   0  0  0  0  0  1  0  0  0  0  0  0
  189.3260  174.5840  147.2450 C   0  0  0  0  0  2  0  0  0  0  0  0
  1 15  1  0  0  0  0
  2  3  1  0  0  0  0
  3  4  2  0  0  0  0
  4  1  1  0  0  0  0
  4  5  1  0  0  0  0
  5 11  1  0  0  0  0
  8 10  2  0  0  0  0
  9 14  1  0  0  0  0
 10  7  1  0  0  0  0
 10  6  1  0  0  0  0
 11  8  2  0  0  0  0
 12 13  1  0  0  0  0
 13  7  1  0  0  0  0
 14 11  1  0  0  0  0
 14 12  2  0  0  0  0
 16 26  1  6  0  0  0
 17 15  1  6  0  0  0
 17 16  1  0  0  0  0
 18 17  1  0  0  0  0
 18 16  1  0  0  0  0
 19 24  1  0  0  0  0
 20 21  1  0  0  0  0
 21 25  2  0  0  0  0
 23 19  2  0  0  0  0
 23 21  1  0  0  0  0
 24 17  1  0  0  0  0
 24 22  2  0  0  0  0
 25 22  1  0  0  0  0
 26 28  1  0  0  0  0
 28 27  1  0  0  0  0
M  END
>  <MODEL>
7

>  <REMARK>
 VINA RESULT:      -5.9      2.636      5.491
  Name = 
  8 active torsions:
  status: ('A' for Active; 'I' for Inactive)
    1  A    between atoms: C_3  and  C_5
    2  A    between atoms: C_3  and  C_23
    3  A    between atoms: C_9  and  N_16
    4  A    between atoms: C_9  and  C_20
    5  A    between atoms: N_15  and  N_16
    6  A    between atoms: N_15  and  C_28
    7  A    between atoms: S_19  and  C_22
    8  A    between atoms: S_19  and  C_28
                            x       y       z     vdW  Elec       q    Type
                         _______ _______ _______ _____ _____    ______ ____

>  <TORSDO>
F 8

$$$$
=
 OpenBabel11042414403D

 28 30  0  0  1  0  0  0  0  0999 V2000
  189.0660  175.5750  144.7390 N   0  0  0  0  0  2  0  0  0  0  0  0
  190.3760  177.9830  144.8610 F   0  0  0  0  0  0  0  0  0  0  0  0
  189.2830  177.7770  145.6380 C   0  0  0  0  0  3  0  0  0  0  0  0
  188.6250  176.6250  145.6040 C   0  0  0  0  0  0  0  0  0  0  0  0
  187.1890  176.4130  146.6600 S   0  0  0  0  0  0  0  0  0  0  0  0
  186.5100  176.6690  142.0240 N   0  0  0  0  0  1  0  0  0  0  0  0
  184.7500  178.2140  142.8390 N   0  0  0  0  0  2  0  0  0  0  0  0
  186.0460  177.0270  144.3040 C   0  0  0  0  0  0  0  0  0  0  0  0
  185.9470  179.3380  147.1440 C   0  0  0  0  0  1  0  0  0  0  0  0
  185.6860  177.1570  143.0750 C   0  0  0  0  0  0  0  0  0  0  0  0
  186.1180  177.3310  145.5540 C   0  0  0  0  0  0  0  0  0  0  0  0
  184.5630  179.2510  145.1460 C   0  0  0  0  0  3  0  0  0  0  0  0
  183.8550  178.7060  143.9050 C   0  0  0  0  0  2  0  0  0  0  0  0
  185.4880  178.6270  145.9190 C   0  0  0  0  0  0  0  0  0  0  0  0
  189.6520  174.4000  145.2360 N   0  0  0  0  0  2  0  0  0  0  0  0
  191.3610  172.9230  144.0940 C   0  0  2  0  0  3  0  0  0  0  0  0
  190.9790  174.2540  144.6380 C   0  0  1  0  0  0  0  0  0  0  0  0
  190.9370  173.9820  143.2580 O   0  0  0  0  0  0  0  0  0  0  0  0
  192.3130  175.4420  146.3970 C   0  0  0  0  0  3  0  0  0  0  0  0
  195.0430  177.9150  146.1860 O   0  0  0  0  0  1  0  0  0  0  0  0
  194.0560  177.0160  145.8050 C   0  0  0  0  0  0  0  0  0  0  0  0
  192.8130  175.8780  144.0670 C   0  0  0  0  0  3  0  0  0  0  0  0
  193.3080  176.3460  146.7800 C   0  0  0  0  0  3  0  0  0  0  0  0
  192.0670  175.2000  145.0400 C   0  0  0  0  0  0  0  0  0  0  0  0
  193.8070  176.7840  144.4500 C   0  0  0  0  0  3  0  0  0  0  0  0
  190.2480  171.8900  144.1930 C   0  0  0  0  0  2  0  0  0  0  0  0
  190.7980  170.6870  142.1080 C   0  0  0  0  0  1  0  0  0  0  0  0
  189.7570  171.5350  142.8060 C   0  0  0  0  0  2  0  0  0  0  0  0
  1 15  1  0  0  0  0
  1  4  1  0  0  0  0
  2  3  1  0  0  0  0
  4  3  2  0  0  0  0
  4  5  1  0  0  0  0
  6 10  1  0  0  0  0
  7 10  1  0  0  0  0
  7 13  1  0  0  0  0
  8 11  2  0  0  0  0
 10  8  2  0  0  0  0
 11 14  1  0  0  0  0
 11  5  1  0  0  0  0
 12 14  2  0  0  0  0
 13 12  1  0  0  0  0
 14  9  1  0  0  0  0
 16 26  1  1  0  0  0
 16 17  1  0  0  0  0
 17 24  1  0  0  0  0
 17 15  1  1  0  0  0
 18 16  1  0  0  0  0
 18 17  1  0  0  0  0
 19 23  1  0  0  0  0
 21 20  1  0  0  0  0
 21 23  2  0  0  0  0
 22 25  2  0  0  0  0
 22 24  1  0  0  0  0
 24 19  2  0  0  0  0
 25 21  1  0  0  0  0
 27 28  1  0  0  0  0
 28 26  1  0  0  0  0
M  END
>  <MODEL>
8

>  <REMARK>
 VINA RESULT:      -5.8      2.916      5.890
  Name = 
  8 active torsions:
  status: ('A' for Active; 'I' for Inactive)
    1  A    between atoms: C_3  and  C_5
    2  A    between atoms: C_3  and  C_23
    3  A    between atoms: C_9  and  N_16
    4  A    between atoms: C_9  and  C_20
    5  A    between atoms: N_15  and  N_16
    6  A    between atoms: N_15  and  C_28
    7  A    between atoms: S_19  and  C_22
    8  A    between atoms: S_19  and  C_28
                            x       y       z     vdW  Elec       q    Type
                         _______ _______ _______ _____ _____    ______ ____

>  <TORSDO>
F 8

$$$$
=
 OpenBabel11042414403D

 28 30  0  0  1  0  0  0  0  0999 V2000
  189.4020  174.5700  144.7640 N   0  0  0  0  0  2  0  0  0  0  0  0
  189.3140  171.9230  145.4820 F   0  0  0  0  0  0  0  0  0  0  0  0
  190.2820  172.3540  144.6350 C   0  0  0  0  0  3  0  0  0  0  0  0
  190.3550  173.6260  144.2650 C   0  0  0  0  0  0  0  0  0  0  0  0
  191.6620  174.1340  143.1450 S   0  0  0  0  0  0  0  0  0  0  0  0
  187.4650  175.6770  141.7210 N   0  0  0  0  0  1  0  0  0  0  0  0
  188.1920  174.3950  139.7270 N   0  0  0  0  0  2  0  0  0  0  0  0
  189.5810  174.6630  141.5250 C   0  0  0  0  0  0  0  0  0  0  0  0
  191.5510  171.5950  141.1770 C   0  0  0  0  0  1  0  0  0  0  0  0
  188.4940  175.0570  140.9600 C   0  0  0  0  0  0  0  0  0  0  0  0
  190.6290  173.9330  141.6940 C   0  0  0  0  0  0  0  0  0  0  0  0
  190.0650  172.6910  139.5930 C   0  0  0  0  0  3  0  0  0  0  0  0
  189.2500  173.7830  138.8990 C   0  0  0  0  0  2  0  0  0  0  0  0
  190.7390  172.7740  140.7690 C   0  0  0  0  0  0  0  0  0  0  0  0
  189.3200  174.8920  146.1280 N   0  0  0  0  0  2  0  0  0  0  0  0
  190.1010  177.0890  147.1110 C   0  0  2  0  0  3  0  0  0  0  0  0
  189.1440  176.3390  146.2540 C   0  0  1  0  0  0  0  0  0  0  0  0
  190.2070  177.0750  145.7010 O   0  0  0  0  0  0  0  0  0  0  0  0
  187.5880  177.7430  144.8770 C   0  0  0  0  0  3  0  0  0  0  0  0
  184.0470  178.6790  145.3230 O   0  0  0  0  0  1  0  0  0  0  0  0
  185.2890  178.1010  145.5490 C   0  0  0  0  0  0  0  0  0  0  0  0
  186.7440  176.7200  146.9040 C   0  0  0  0  0  3  0  0  0  0  0  0
  186.3370  178.3230  144.6490 C   0  0  0  0  0  3  0  0  0  0  0  0
  187.7940  176.9330  146.0010 C   0  0  0  0  0  0  0  0  0  0  0  0
  185.4930  177.3010  146.6770 C   0  0  0  0  0  3  0  0  0  0  0  0
  191.1950  176.2130  147.7030 C   0  0  0  0  0  2  0  0  0  0  0  0
  193.0280  175.0650  146.5120 C   0  0  0  0  0  1  0  0  0  0  0  0
  192.4810  176.4130  146.9310 C   0  0  0  0  0  2  0  0  0  0  0  0
  1 15  1  0  0  0  0
  3  2  1  0  0  0  0
  4  3  2  0  0  0  0
  4  1  1  0  0  0  0
  5  4  1  0  0  0  0
  7 10  1  0  0  0  0
  8 11  2  0  0  0  0
 10  8  2  0  0  0  0
 10  6  1  0  0  0  0
 11  5  1  0  0  0  0
 12 14  2  0  0  0  0
 13 12  1  0  0  0  0
 13  7  1  0  0  0  0
 14  9  1  0  0  0  0
 14 11  1  0  0  0  0
 16 26  1  1  0  0  0
 17 15  1  6  0  0  0
 17 16  1  0  0  0  0
 18 17  1  0  0  0  0
 18 16  1  0  0  0  0
 19 24  1  0  0  0  0
 20 21  1  0  0  0  0
 21 25  2  0  0  0  0
 23 19  2  0  0  0  0
 23 21  1  0  0  0  0
 24 17  1  0  0  0  0
 24 22  2  0  0  0  0
 25 22  1  0  0  0  0
 27 28  1  0  0  0  0
 28 26  1  0  0  0  0
M  END
>  <MODEL>
9

>  <REMARK>
 VINA RESULT:      -5.7      2.793      5.378
  Name = 
  8 active torsions:
  status: ('A' for Active; 'I' for Inactive)
    1  A    between atoms: C_3  and  C_5
    2  A    between atoms: C_3  and  C_23
    3  A    between atoms: C_9  and  N_16
    4  A    between atoms: C_9  and  C_20
    5  A    between atoms: N_15  and  N_16
    6  A    between atoms: N_15  and  C_28
    7  A    between atoms: S_19  and  C_22
    8  A    between atoms: S_19  and  C_28
                            x       y       z     vdW  Elec       q    Type
                         _______ _______ _______ _____ _____    ______ ____

>  <TORSDO>
F 8

$$$$
