=
 OpenBabel11042413583D

 30 33  0  0  1  0  0  0  0  0999 V2000
  195.5640  175.0500  144.8210 C   0  0  0  0  0  3  0  0  0  0  0  0
  191.5630  176.8530  144.7900 C   0  0  0  0  0  0  0  0  0  0  0  0
  194.6720  175.0370  145.7680 N   0  0  0  0  0  0  0  0  0  0  0  0
  194.3980  176.0480  142.8820 N   0  0  0  0  0  0  0  0  0  0  0  0
  191.5560  176.5280  147.1820 C   0  0  0  0  0  0  0  0  0  0  0  0
  193.5030  175.8640  145.8700 C   0  0  0  0  0  0  0  0  0  0  0  0
  190.9980  176.9410  143.3900 C   0  0  1  0  0  3  0  0  0  0  0  0
  190.9450  176.6070  148.3910 F   0  0  0  0  0  0  0  0  0  0  0  0
  193.2130  176.2690  143.3550 C   0  0  0  0  0  0  0  0  0  0  0  0
  192.8270  175.9380  147.0950 C   0  0  0  0  0  3  0  0  0  0  0  0
  190.9010  176.9920  146.0250 C   0  0  0  0  0  0  0  0  0  0  0  0
  192.1080  176.5470  142.5700 O   0  0  0  0  0  0  0  0  0  0  0  0
  192.8600  176.3900  144.7440 C   0  0  0  0  0  0  0  0  0  0  0  0
  195.6010  176.0520  143.7070 C   0  0  0  0  0  2  0  0  0  0  0  0
  188.3930  175.5010  146.2790 O   0  0  0  0  0  0  0  0  0  0  0  0
  189.5740  177.5210  146.1460 N   0  0  0  0  0  2  0  0  0  0  0  0
  188.3720  176.7610  146.3140 C   0  0  0  0  0  0  0  0  0  0  0  0
  187.0770  177.4930  146.4980 C   0  0  1  0  0  3  0  0  0  0  0  0
  185.3170  177.1090  143.1410 C   0  0  0  0  0  3  0  0  0  0  0  0
  185.9330  176.7900  144.3560 C   0  0  0  0  0  3  0  0  0  0  0  0
  185.6580  179.4650  143.5830 C   0  0  0  0  0  3  0  0  0  0  0  0
  185.1780  178.4460  142.7540 C   0  0  0  0  0  3  0  0  0  0  0  0
  186.2750  179.1470  144.7980 C   0  0  0  0  0  3  0  0  0  0  0  0
  186.4130  177.8110  145.1910 C   0  0  0  0  0  0  0  0  0  0  0  0
  185.6620  177.7430  148.1710 C   0  0  0  0  0  1  0  0  0  0  0  0
  186.2210  176.7770  147.3380 O   0  0  0  0  0  0  0  0  0  0  0  0
  189.9600  176.0110  143.2430 O   0  0  0  0  0  0  0  0  0  0  0  0
  189.3190  176.3440  142.0450 C   0  0  0  0  0  3  0  0  0  0  0  0
  188.1660  175.3880  141.7990 C   0  0  0  0  0  1  0  0  0  0  0  0
  188.7680  177.7490  142.1470 C   0  0  0  0  0  1  0  0  0  0  0  0
  1  3  2  0  0  0  0
  2 11  1  0  0  0  0
  3  6  1  0  0  0  0
  4  9  2  0  0  0  0
  4 14  1  0  0  0  0
  5  8  1  0  0  0  0
  6 10  2  0  0  0  0
  7 27  1  1  0  0  0
  7  2  1  0  0  0  0
  9 13  1  0  0  0  0
 10  5  1  0  0  0  0
 11 16  1  0  0  0  0
 11  5  2  0  0  0  0
 12  9  1  0  0  0  0
 12  7  1  0  0  0  0
 13  2  2  0  0  0  0
 13  6  1  0  0  0  0
 14  1  1  0  0  0  0
 15 17  2  0  0  0  0
 16 17  1  0  0  0  0
 18 17  1  6  0  0  0
 18 26  1  0  0  0  0
 19 20  1  0  0  0  0
 20 24  2  0  0  0  0
 21 23  2  0  0  0  0
 22 19  2  0  0  0  0
 22 21  1  0  0  0  0
 23 24  1  0  0  0  0
 24 18  1  0  0  0  0
 26 25  1  0  0  0  0
 28 30  1  0  0  0  0
 28 27  1  0  0  0  0
 29 28  1  0  0  0  0
M  END
>  <MODEL>
1

>  <REMARK>
 VINA RESULT:      -7.3      0.000      0.000
  Name = 
  6 active torsions:
  status: ('A' for Active; 'I' for Inactive)
    1  A    between atoms: O_2  and  C_3
    2  A    between atoms: O_2  and  C_14
    3  A    between atoms: N_11  and  C_20
    4  A    between atoms: C_12  and  C_22
    5  A    between atoms: O_19  and  C_22
    6  A    between atoms: C_22  and  C_29
                            x       y       z     vdW  Elec       q    Type
                         _______ _______ _______ _____ _____    ______ ____

>  <TORSDO>
F 6

$$$$
=
 OpenBabel11042413583D

 30 33  0  0  1  0  0  0  0  0999 V2000
  183.7310  178.6620  144.4860 C   0  0  0  0  0  3  0  0  0  0  0  0
  188.0120  177.7050  144.6280 C   0  0  0  0  0  0  0  0  0  0  0  0
  184.5440  178.4710  143.4880 N   0  0  0  0  0  0  0  0  0  0  0  0
  185.0560  178.0630  146.4880 N   0  0  0  0  0  0  0  0  0  0  0  0
  188.0730  178.2910  142.2870 C   0  0  0  0  0  0  0  0  0  0  0  0
  185.9780  178.4530  143.5280 C   0  0  0  0  0  0  0  0  0  0  0  0
  188.3790  176.9610  145.8920 C   0  0  1  0  0  3  0  0  0  0  0  0
  188.7370  178.4200  141.1110 F   0  0  0  0  0  0  0  0  0  0  0  0
  186.1920  177.7140  145.9740 C   0  0  0  0  0  0  0  0  0  0  0  0
  186.6930  178.5480  142.3260 C   0  0  0  0  0  3  0  0  0  0  0  0
  188.7550  177.8590  143.4410 C   0  0  0  0  0  0  0  0  0  0  0  0
  187.1690  177.0170  146.6620 O   0  0  0  0  0  0  0  0  0  0  0  0
  186.6890  178.0860  144.6760 C   0  0  0  0  0  0  0  0  0  0  0  0
  184.1660  179.0410  145.8700 C   0  0  0  0  0  2  0  0  0  0  0  0
  189.9530  175.3830  142.4390 O   0  0  0  0  0  0  0  0  0  0  0  0
  190.1480  177.5360  143.3420 N   0  0  0  0  0  2  0  0  0  0  0  0
  190.7010  176.3300  142.8040 C   0  0  0  0  0  0  0  0  0  0  0  0
  192.1910  176.1990  142.7150 C   0  0  1  0  0  3  0  0  0  0  0  0
  193.3040  174.2680  145.8050 C   0  0  0  0  0  3  0  0  0  0  0  0
  192.7170  174.5630  144.5690 C   0  0  0  0  0  3  0  0  0  0  0  0
  194.0810  176.5540  145.9860 C   0  0  0  0  0  3  0  0  0  0  0  0
  193.9870  175.2620  146.5120 C   0  0  0  0  0  3  0  0  0  0  0  0
  193.4930  176.8510  144.7510 C   0  0  0  0  0  3  0  0  0  0  0  0
  192.8130  175.8580  144.0360 C   0  0  0  0  0  0  0  0  0  0  0  0
  193.8110  175.6670  141.3150 C   0  0  0  0  0  1  0  0  0  0  0  0
  192.5450  175.2670  141.7360 O   0  0  0  0  0  0  0  0  0  0  0  0
  188.6700  175.6250  145.5840 O   0  0  0  0  0  0  0  0  0  0  0  0
  189.7240  175.2610  146.4290 C   0  0  0  0  0  3  0  0  0  0  0  0
  190.4540  176.5060  146.9010 C   0  0  0  0  0  1  0  0  0  0  0  0
  189.1710  174.5400  147.6380 C   0  0  0  0  0  1  0  0  0  0  0  0
  1 14  1  0  0  0  0
  2 13  1  0  0  0  0
  2  7  1  0  0  0  0
  3  6  1  0  0  0  0
  3  1  2  0  0  0  0
  5 10  2  0  0  0  0
  5 11  1  0  0  0  0
  6 13  2  0  0  0  0
  7 27  1  6  0  0  0
  7 12  1  0  0  0  0
  8  5  1  0  0  0  0
  9  4  2  0  0  0  0
  9 12  1  0  0  0  0
 10  6  1  0  0  0  0
 11  2  2  0  0  0  0
 13  9  1  0  0  0  0
 14  4  1  0  0  0  0
 15 17  2  0  0  0  0
 16 11  1  0  0  0  0
 17 16  1  0  0  0  0
 18 26  1  6  0  0  0
 18 17  1  0  0  0  0
 18 24  1  0  0  0  0
 19 22  1  0  0  0  0
 20 19  2  0  0  0  0
 21 22  2  0  0  0  0
 23 21  1  0  0  0  0
 24 20  1  0  0  0  0
 24 23  2  0  0  0  0
 25 26  1  0  0  0  0
 27 28  1  0  0  0  0
 28 29  1  0  0  0  0
 28 30  1  0  0  0  0
M  END
>  <MODEL>
2

>  <REMARK>
 VINA RESULT:      -7.3      2.443      7.605
  Name = 
  6 active torsions:
  status: ('A' for Active; 'I' for Inactive)
    1  A    between atoms: O_2  and  C_3
    2  A    between atoms: O_2  and  C_14
    3  A    between atoms: N_11  and  C_20
    4  A    between atoms: C_12  and  C_22
    5  A    between atoms: O_19  and  C_22
    6  A    between atoms: C_22  and  C_29
                            x       y       z     vdW  Elec       q    Type
                         _______ _______ _______ _____ _____    ______ ____

>  <TORSDO>
F 6

$$$$
=
 OpenBabel11042413583D

 30 33  0  0  1  0  0  0  0  0999 V2000
  193.6080  172.6080  142.7980 C   0  0  0  0  0  3  0  0  0  0  0  0
  189.8210  174.5830  143.8050 C   0  0  0  0  0  0  0  0  0  0  0  0
  192.7880  173.2250  141.9990 N   0  0  0  0  0  0  0  0  0  0  0  0
  192.7220  173.0580  145.0640 N   0  0  0  0  0  0  0  0  0  0  0  0
  189.3570  174.5820  141.4360 C   0  0  0  0  0  0  0  0  0  0  0  0
  191.4310  173.6040  142.2710 C   0  0  0  0  0  0  0  0  0  0  0  0
  189.8130  175.0890  145.2300 C   0  0  1  0  0  3  0  0  0  0  0  0
  188.5680  174.8990  140.3790 F   0  0  0  0  0  0  0  0  0  0  0  0
  191.6880  173.7970  144.8140 C   0  0  0  0  0  0  0  0  0  0  0  0
  190.6020  173.9740  141.2040 C   0  0  0  0  0  3  0  0  0  0  0  0
  188.9490  174.9010  142.7460 C   0  0  0  0  0  0  0  0  0  0  0  0
  191.0280  174.5480  145.7710 O   0  0  0  0  0  0  0  0  0  0  0  0
  190.9770  173.8720  143.5660 C   0  0  0  0  0  0  0  0  0  0  0  0
  193.2260  172.0500  144.1360 C   0  0  0  0  0  2  0  0  0  0  0  0
  188.4450  177.7800  142.5640 O   0  0  0  0  0  0  0  0  0  0  0  0
  187.7050  175.5880  142.9350 N   0  0  0  0  0  2  0  0  0  0  0  0
  187.4850  176.9950  142.7940 C   0  0  0  0  0  0  0  0  0  0  0  0
  186.0940  177.5270  142.9600 C   0  0  1  0  0  3  0  0  0  0  0  0
  185.6460  179.3380  146.2820 C   0  0  0  0  0  3  0  0  0  0  0  0
  185.9620  179.0920  144.9400 C   0  0  0  0  0  3  0  0  0  0  0  0
  184.9350  177.0380  146.5400 C   0  0  0  0  0  3  0  0  0  0  0  0
  185.1320  178.3120  147.0810 C   0  0  0  0  0  3  0  0  0  0  0  0
  185.2510  176.7900  145.1990 C   0  0  0  0  0  3  0  0  0  0  0  0
  185.7620  177.8150  144.3940 C   0  0  0  0  0  0  0  0  0  0  0  0
  185.4130  178.1520  140.9570 C   0  0  0  0  0  1  0  0  0  0  0  0
  185.9000  178.6560  142.1610 O   0  0  0  0  0  0  0  0  0  0  0  0
  189.8890  176.4880  145.2330 O   0  0  0  0  0  0  0  0  0  0  0  0
  188.9750  176.9160  146.2010 C   0  0  0  0  0  3  0  0  0  0  0  0
  188.3000  175.7130  146.8350 C   0  0  0  0  0  1  0  0  0  0  0  0
  189.7100  177.6790  147.2810 C   0  0  0  0  0  1  0  0  0  0  0  0
  1 14  1  0  0  0  0
  2  7  1  0  0  0  0
  3  6  1  0  0  0  0
  3  1  2  0  0  0  0
  5 11  1  0  0  0  0
  6 13  2  0  0  0  0
  7 27  1  6  0  0  0
  7 12  1  0  0  0  0
  8  5  1  0  0  0  0
  9  4  2  0  0  0  0
  9 12  1  0  0  0  0
 10  5  2  0  0  0  0
 10  6  1  0  0  0  0
 11 16  1  0  0  0  0
 11  2  2  0  0  0  0
 13  2  1  0  0  0  0
 13  9  1  0  0  0  0
 14  4  1  0  0  0  0
 15 17  2  0  0  0  0
 17 16  1  0  0  0  0
 17 18  1  0  0  0  0
 18 26  1  6  0  0  0
 18 24  1  0  0  0  0
 19 22  1  0  0  0  0
 20 19  2  0  0  0  0
 21 22  2  0  0  0  0
 23 21  1  0  0  0  0
 24 20  1  0  0  0  0
 24 23  2  0  0  0  0
 25 26  1  0  0  0  0
 27 28  1  0  0  0  0
 28 29  1  0  0  0  0
 28 30  1  0  0  0  0
M  END
>  <MODEL>
3

>  <REMARK>
 VINA RESULT:      -6.9      2.939      4.509
  Name = 
  6 active torsions:
  status: ('A' for Active; 'I' for Inactive)
    1  A    between atoms: O_2  and  C_3
    2  A    between atoms: O_2  and  C_14
    3  A    between atoms: N_11  and  C_20
    4  A    between atoms: C_12  and  C_22
    5  A    between atoms: O_19  and  C_22
    6  A    between atoms: C_22  and  C_29
                            x       y       z     vdW  Elec       q    Type
                         _______ _______ _______ _____ _____    ______ ____

>  <TORSDO>
F 6

$$$$
=
 OpenBabel11042413583D

 30 33  0  0  1  0  0  0  0  0999 V2000
  189.4640  172.7620  138.0260 C   0  0  0  0  0  3  0  0  0  0  0  0
  188.9610  174.2030  142.1410 C   0  0  0  0  0  0  0  0  0  0  0  0
  188.9820  173.9040  138.4230 N   0  0  0  0  0  0  0  0  0  0  0  0
  190.3240  171.7020  140.0890 N   0  0  0  0  0  0  0  0  0  0  0  0
  187.5330  175.9140  141.2140 C   0  0  0  0  0  0  0  0  0  0  0  0
  188.5480  174.2500  139.7460 C   0  0  0  0  0  0  0  0  0  0  0  0
  189.9720  173.5840  143.0800 C   0  0  1  0  0  3  0  0  0  0  0  0
  186.7530  177.0150  141.3530 F   0  0  0  0  0  0  0  0  0  0  0  0
  190.0600  172.5940  140.9900 C   0  0  0  0  0  0  0  0  0  0  0  0
  187.7720  175.4020  139.9280 C   0  0  0  0  0  3  0  0  0  0  0  0
  188.1300  175.3220  142.3430 C   0  0  0  0  0  0  0  0  0  0  0  0
  190.6120  172.5960  142.2580 O   0  0  0  0  0  0  0  0  0  0  0  0
  189.0780  173.6400  140.8880 C   0  0  0  0  0  0  0  0  0  0  0  0
  189.5300  171.5300  138.8770 C   0  0  0  0  0  2  0  0  0  0  0  0
  189.4550  177.6810  143.4630 O   0  0  0  0  0  0  0  0  0  0  0  0
  187.9200  175.9180  143.6300 N   0  0  0  0  0  2  0  0  0  0  0  0
  188.5550  177.1010  144.1280 C   0  0  0  0  0  0  0  0  0  0  0  0
  188.1540  177.6200  145.4760 C   0  0  1  0  0  3  0  0  0  0  0  0
  184.8280  179.3040  144.6950 C   0  0  0  0  0  3  0  0  0  0  0  0
  186.1800  178.9510  144.6270 C   0  0  0  0  0  3  0  0  0  0  0  0
  184.5210  177.7910  146.5600 C   0  0  0  0  0  3  0  0  0  0  0  0
  183.9980  178.7240  145.6590 C   0  0  0  0  0  3  0  0  0  0  0  0
  185.8740  177.4380  146.4940 C   0  0  0  0  0  3  0  0  0  0  0  0
  186.7080  178.0130  145.5280 C   0  0  0  0  0  0  0  0  0  0  0  0
  189.6650  177.1360  147.0080 C   0  0  0  0  0  1  0  0  0  0  0  0
  188.4600  176.6900  146.4730 O   0  0  0  0  0  0  0  0  0  0  0  0
  190.9130  174.5500  143.4600 O   0  0  0  0  0  0  0  0  0  0  0  0
  191.0950  174.3830  144.8370 C   0  0  0  0  0  3  0  0  0  0  0  0
  189.9400  173.5810  145.4110 C   0  0  0  0  0  1  0  0  0  0  0  0
  192.3790  173.6220  145.0830 C   0  0  0  0  0  1  0  0  0  0  0  0
  1  3  2  0  0  0  0
  1 14  1  0  0  0  0
  2 11  1  0  0  0  0
  2  7  1  0  0  0  0
  3  6  1  0  0  0  0
  4  9  2  0  0  0  0
  5  8  1  0  0  0  0
  5 11  2  0  0  0  0
  6 10  2  0  0  0  0
  6 13  1  0  0  0  0
  7 27  1  6  0  0  0
  9 12  1  0  0  0  0
 10  5  1  0  0  0  0
 11 16  1  0  0  0  0
 12  7  1  0  0  0  0
 13  9  1  0  0  0  0
 13  2  2  0  0  0  0
 14  4  1  0  0  0  0
 15 17  2  0  0  0  0
 16 17  1  0  0  0  0
 18 17  1  6  0  0  0
 18 24  1  0  0  0  0
 18 26  1  0  0  0  0
 19 22  1  0  0  0  0
 20 19  2  0  0  0  0
 20 24  1  0  0  0  0
 22 21  2  0  0  0  0
 23 21  1  0  0  0  0
 24 23  2  0  0  0  0
 26 25  1  0  0  0  0
 27 28  1  0  0  0  0
 28 30  1  0  0  0  0
 28 29  1  0  0  0  0
M  END
>  <MODEL>
4

>  <REMARK>
 VINA RESULT:      -6.7      3.319      5.403
  Name = 
  6 active torsions:
  status: ('A' for Active; 'I' for Inactive)
    1  A    between atoms: O_2  and  C_3
    2  A    between atoms: O_2  and  C_14
    3  A    between atoms: N_11  and  C_20
    4  A    between atoms: C_12  and  C_22
    5  A    between atoms: O_19  and  C_22
    6  A    between atoms: C_22  and  C_29
                            x       y       z     vdW  Elec       q    Type
                         _______ _______ _______ _____ _____    ______ ____

>  <TORSDO>
F 6

$$$$
=
 OpenBabel11042413583D

 30 33  0  0  1  0  0  0  0  0999 V2000
  196.2060  174.8030  145.0760 C   0  0  0  0  0  3  0  0  0  0  0  0
  192.0030  175.3640  143.9450 C   0  0  0  0  0  0  0  0  0  0  0  0
  195.1560  174.7500  145.8420 N   0  0  0  0  0  0  0  0  0  0  0  0
  195.2940  174.9810  142.7840 N   0  0  0  0  0  0  0  0  0  0  0  0
  191.5480  175.5870  146.3050 C   0  0  0  0  0  0  0  0  0  0  0  0
  193.8340  175.2190  145.5360 C   0  0  0  0  0  0  0  0  0  0  0  0
  191.7540  174.9790  142.5040 C   0  0  1  0  0  3  0  0  0  0  0  0
  190.6850  175.7570  147.3380 F   0  0  0  0  0  0  0  0  0  0  0  0
  194.0160  174.9610  142.9920 C   0  0  0  0  0  0  0  0  0  0  0  0
  192.9080  175.3710  146.5770 C   0  0  0  0  0  3  0  0  0  0  0  0
  191.0730  175.5820  144.9790 C   0  0  0  0  0  0  0  0  0  0  0  0
  193.0770  174.7390  142.0010 O   0  0  0  0  0  0  0  0  0  0  0  0
  193.3500  175.2830  144.2250 C   0  0  0  0  0  0  0  0  0  0  0  0
  196.2530  175.5020  143.7520 C   0  0  0  0  0  2  0  0  0  0  0  0
  189.6050  178.0480  144.3960 O   0  0  0  0  0  0  0  0  0  0  0  0
  189.6660  175.7320  144.7470 N   0  0  0  0  0  2  0  0  0  0  0  0
  188.9870  176.9490  144.4200 C   0  0  0  0  0  0  0  0  0  0  0  0
  187.5160  176.9000  144.1390 C   0  0  1  0  0  3  0  0  0  0  0  0
  185.9680  177.3220  147.5940 C   0  0  0  0  0  3  0  0  0  0  0  0
  186.7390  176.8130  146.5420 C   0  0  0  0  0  3  0  0  0  0  0  0
  185.1160  179.0570  146.1360 C   0  0  0  0  0  3  0  0  0  0  0  0
  185.1590  178.4440  147.3930 C   0  0  0  0  0  3  0  0  0  0  0  0
  185.8850  178.5480  145.0830 C   0  0  0  0  0  3  0  0  0  0  0  0
  186.7010  177.4280  145.2820 C   0  0  0  0  0  0  0  0  0  0  0  0
  186.9680  176.5640  142.0290 C   0  0  0  0  0  1  0  0  0  0  0  0
  187.2180  177.5760  142.9530 O   0  0  0  0  0  0  0  0  0  0  0  0
  191.0170  173.7870  142.4560 O   0  0  0  0  0  0  0  0  0  0  0  0
  189.9410  174.0400  141.5990 C   0  0  0  0  0  3  0  0  0  0  0  0
  190.2480  173.4930  140.2170 C   0  0  0  0  0  1  0  0  0  0  0  0
  188.7060  173.3450  142.1280 C   0  0  0  0  0  1  0  0  0  0  0  0
  1  3  2  0  0  0  0
  2 13  2  0  0  0  0
  2 11  1  0  0  0  0
  4  9  2  0  0  0  0
  4 14  1  0  0  0  0
  5 10  1  0  0  0  0
  5  8  1  0  0  0  0
  6  3  1  0  0  0  0
  6 10  2  0  0  0  0
  7 27  1  1  0  0  0
  7  2  1  0  0  0  0
  9 13  1  0  0  0  0
 11  5  2  0  0  0  0
 12  7  1  0  0  0  0
 12  9  1  0  0  0  0
 13  6  1  0  0  0  0
 14  1  1  0  0  0  0
 15 17  2  0  0  0  0
 16 11  1  0  0  0  0
 17 16  1  0  0  0  0
 18 26  1  6  0  0  0
 18 17  1  0  0  0  0
 18 24  1  0  0  0  0
 20 19  2  0  0  0  0
 21 22  2  0  0  0  0
 22 19  1  0  0  0  0
 23 24  2  0  0  0  0
 23 21  1  0  0  0  0
 24 20  1  0  0  0  0
 25 26  1  0  0  0  0
 28 30  1  0  0  0  0
 28 27  1  0  0  0  0
 29 28  1  0  0  0  0
M  END
>  <MODEL>
5

>  <REMARK>
 VINA RESULT:      -6.6      1.832      2.674
  Name = 
  6 active torsions:
  status: ('A' for Active; 'I' for Inactive)
    1  A    between atoms: O_2  and  C_3
    2  A    between atoms: O_2  and  C_14
    3  A    between atoms: N_11  and  C_20
    4  A    between atoms: C_12  and  C_22
    5  A    between atoms: O_19  and  C_22
    6  A    between atoms: C_22  and  C_29
                            x       y       z     vdW  Elec       q    Type
                         _______ _______ _______ _____ _____    ______ ____

>  <TORSDO>
F 6

$$$$
=
 OpenBabel11042413583D

 30 33  0  0  1  0  0  0  0  0999 V2000
  184.5940  178.1500  146.7650 C   0  0  0  0  0  3  0  0  0  0  0  0
  188.3930  176.9870  144.8990 C   0  0  0  0  0  0  0  0  0  0  0  0
  184.7750  177.4760  145.6670 N   0  0  0  0  0  0  0  0  0  0  0  0
  186.8580  178.3670  147.7390 N   0  0  0  0  0  0  0  0  0  0  0  0
  187.1020  176.4910  142.9200 C   0  0  0  0  0  0  0  0  0  0  0  0
  185.9900  177.3550  144.9130 C   0  0  0  0  0  0  0  0  0  0  0  0
  189.4970  176.8360  145.9220 C   0  0  1  0  0  3  0  0  0  0  0  0
  187.0090  176.0410  141.6440 F   0  0  0  0  0  0  0  0  0  0  0  0
  187.5910  177.7340  146.8790 C   0  0  0  0  0  0  0  0  0  0  0  0
  185.9320  176.8580  143.6050 C   0  0  0  0  0  3  0  0  0  0  0  0
  188.3550  176.5470  143.5620 C   0  0  0  0  0  0  0  0  0  0  0  0
  188.8890  177.3240  147.1270 O   0  0  0  0  0  0  0  0  0  0  0  0
  187.2510  177.4620  145.5090 C   0  0  0  0  0  0  0  0  0  0  0  0
  185.6200  179.0520  147.3820 C   0  0  0  0  0  2  0  0  0  0  0  0
  189.3150  173.7970  143.2640 O   0  0  0  0  0  0  0  0  0  0  0  0
  189.5160  176.0950  142.8540 N   0  0  0  0  0  2  0  0  0  0  0  0
  189.9320  174.7350  142.6900 C   0  0  0  0  0  0  0  0  0  0  0  0
  191.1400  174.4470  141.8510 C   0  0  1  0  0  3  0  0  0  0  0  0
  194.3680  176.0400  143.0980 C   0  0  0  0  0  3  0  0  0  0  0  0
  193.1750  175.8440  142.3920 C   0  0  0  0  0  3  0  0  0  0  0  0
  194.0610  173.9130  144.2140 C   0  0  0  0  0  3  0  0  0  0  0  0
  194.8100  175.0770  144.0100 C   0  0  0  0  0  3  0  0  0  0  0  0
  192.8690  173.7160  143.5070 C   0  0  0  0  0  3  0  0  0  0  0  0
  192.4200  174.6800  142.5970 C   0  0  0  0  0  0  0  0  0  0  0  0
  191.1260  173.3190  139.9560 C   0  0  0  0  0  1  0  0  0  0  0  0
  191.0840  173.1490  141.3370 O   0  0  0  0  0  0  0  0  0  0  0  0
  189.8110  175.4790  146.0780 O   0  0  0  0  0  0  0  0  0  0  0  0
  191.2010  175.4260  146.2230 C   0  0  0  0  0  3  0  0  0  0  0  0
  191.8210  176.7060  145.6920 C   0  0  0  0  0  1  0  0  0  0  0  0
  191.5470  175.2960  147.6900 C   0  0  0  0  0  1  0  0  0  0  0  0
  1 14  1  0  0  0  0
  2 13  1  0  0  0  0
  2  7  1  0  0  0  0
  3  1  2  0  0  0  0
  5 11  1  0  0  0  0
  5 10  2  0  0  0  0
  6 13  2  0  0  0  0
  6  3  1  0  0  0  0
  7 27  1  1  0  0  0
  7 12  1  0  0  0  0
  8  5  1  0  0  0  0
  9 12  1  0  0  0  0
  9  4  2  0  0  0  0
 10  6  1  0  0  0  0
 11  2  2  0  0  0  0
 13  9  1  0  0  0  0
 14  4  1  0  0  0  0
 16 11  1  0  0  0  0
 17 16  1  0  0  0  0
 17 15  2  0  0  0  0
 18 26  1  1  0  0  0
 18 24  1  0  0  0  0
 18 17  1  0  0  0  0
 19 22  1  0  0  0  0
 20 24  1  0  0  0  0
 20 19  2  0  0  0  0
 22 21  2  0  0  0  0
 23 21  1  0  0  0  0
 24 23  2  0  0  0  0
 25 26  1  0  0  0  0
 27 28  1  0  0  0  0
 28 30  1  0  0  0  0
 29 28  1  0  0  0  0
M  END
>  <MODEL>
6

>  <REMARK>
 VINA RESULT:      -6.6      2.662      7.461
  Name = 
  6 active torsions:
  status: ('A' for Active; 'I' for Inactive)
    1  A    between atoms: O_2  and  C_3
    2  A    between atoms: O_2  and  C_14
    3  A    between atoms: N_11  and  C_20
    4  A    between atoms: C_12  and  C_22
    5  A    between atoms: O_19  and  C_22
    6  A    between atoms: C_22  and  C_29
                            x       y       z     vdW  Elec       q    Type
                         _______ _______ _______ _____ _____    ______ ____

>  <TORSDO>
F 6

$$$$
=
 OpenBabel11042413583D

 30 33  0  0  1  0  0  0  0  0999 V2000
  183.4170  179.0350  143.1220 C   0  0  0  0  0  3  0  0  0  0  0  0
  187.3800  177.4990  144.2160 C   0  0  0  0  0  0  0  0  0  0  0  0
  184.0590  179.1970  144.2420 N   0  0  0  0  0  0  0  0  0  0  0  0
  185.0490  177.9300  141.6260 N   0  0  0  0  0  0  0  0  0  0  0  0
  186.8070  178.0550  146.4940 C   0  0  0  0  0  0  0  0  0  0  0  0
  185.2020  178.4610  144.7010 C   0  0  0  0  0  0  0  0  0  0  0  0
  188.2640  177.3120  143.0030 C   0  0  1  0  0  3  0  0  0  0  0  0
  187.1170  178.1320  147.8120 F   0  0  0  0  0  0  0  0  0  0  0  0
  186.0960  177.8330  142.3830 C   0  0  0  0  0  0  0  0  0  0  0  0
  185.5700  178.5510  146.0510 C   0  0  0  0  0  3  0  0  0  0  0  0
  187.7360  177.5230  145.5780 C   0  0  0  0  0  0  0  0  0  0  0  0
  187.3660  177.5520  141.9100 O   0  0  0  0  0  0  0  0  0  0  0  0
  186.1140  177.8710  143.8200 C   0  0  0  0  0  0  0  0  0  0  0  0
  183.6860  177.9290  142.1460 C   0  0  0  0  0  2  0  0  0  0  0  0
  188.3310  175.2170  147.2820 O   0  0  0  0  0  0  0  0  0  0  0  0
  189.0160  177.0950  146.0610 N   0  0  0  0  0  2  0  0  0  0  0  0
  189.2760  175.9340  146.8560 C   0  0  0  0  0  0  0  0  0  0  0  0
  190.6960  175.6040  147.2070 C   0  0  1  0  0  3  0  0  0  0  0  0
  193.2680  173.6950  145.1460 C   0  0  0  0  0  3  0  0  0  0  0  0
  192.7100  174.5890  146.0660 C   0  0  0  0  0  3  0  0  0  0  0  0
  191.0530  172.9270  144.5410 C   0  0  0  0  0  3  0  0  0  0  0  0
  192.4410  172.8630  144.3840 C   0  0  0  0  0  3  0  0  0  0  0  0
  190.4930  173.8220  145.4600 C   0  0  0  0  0  3  0  0  0  0  0  0
  191.3170  174.6530  146.2280 C   0  0  0  0  0  0  0  0  0  0  0  0
  191.4770  177.0290  148.6990 C   0  0  0  0  0  1  0  0  0  0  0  0
  191.4560  176.7700  147.3300 O   0  0  0  0  0  0  0  0  0  0  0  0
  189.2700  178.2880  142.9990 O   0  0  0  0  0  0  0  0  0  0  0  0
  190.4620  177.6040  142.7420 C   0  0  0  0  0  3  0  0  0  0  0  0
  191.4710  177.9050  143.8360 C   0  0  0  0  0  1  0  0  0  0  0  0
  190.1930  176.1150  142.7340 C   0  0  0  0  0  1  0  0  0  0  0  0
  1  3  2  0  0  0  0
  2 11  1  0  0  0  0
  3  6  1  0  0  0  0
  4 14  1  0  0  0  0
  4  9  2  0  0  0  0
  5  8  1  0  0  0  0
  6 10  2  0  0  0  0
  7 27  1  1  0  0  0
  7  2  1  0  0  0  0
  9 13  1  0  0  0  0
 10  5  1  0  0  0  0
 11 16  1  0  0  0  0
 11  5  2  0  0  0  0
 12  9  1  0  0  0  0
 12  7  1  0  0  0  0
 13  2  2  0  0  0  0
 13  6  1  0  0  0  0
 14  1  1  0  0  0  0
 16 17  1  0  0  0  0
 17 15  2  0  0  0  0
 18 17  1  6  0  0  0
 18 26  1  0  0  0  0
 19 20  1  0  0  0  0
 20 24  2  0  0  0  0
 21 23  2  0  0  0  0
 22 21  1  0  0  0  0
 22 19  2  0  0  0  0
 23 24  1  0  0  0  0
 24 18  1  0  0  0  0
 26 25  1  0  0  0  0
 28 27  1  0  0  0  0
 28 29  1  0  0  0  0
 30 28  1  0  0  0  0
M  END
>  <MODEL>
7

>  <REMARK>
 VINA RESULT:      -6.6      2.603      6.768
  Name = 
  6 active torsions:
  status: ('A' for Active; 'I' for Inactive)
    1  A    between atoms: O_2  and  C_3
    2  A    between atoms: O_2  and  C_14
    3  A    between atoms: N_11  and  C_20
    4  A    between atoms: C_12  and  C_22
    5  A    between atoms: O_19  and  C_22
    6  A    between atoms: C_22  and  C_29
                            x       y       z     vdW  Elec       q    Type
                         _______ _______ _______ _____ _____    ______ ____

>  <TORSDO>
F 6

$$$$
=
 OpenBabel11042413583D

 30 33  0  0  1  0  0  0  0  0999 V2000
  185.3470  178.7250  147.5620 C   0  0  0  0  0  3  0  0  0  0  0  0
  187.8810  176.7150  144.5950 C   0  0  0  0  0  0  0  0  0  0  0  0
  186.6440  178.6200  147.5540 N   0  0  0  0  0  0  0  0  0  0  0  0
  184.6390  177.8120  145.3750 N   0  0  0  0  0  0  0  0  0  0  0  0
  189.6560  176.8620  146.2250 C   0  0  0  0  0  0  0  0  0  0  0  0
  187.4380  177.7260  146.7610 C   0  0  0  0  0  0  0  0  0  0  0  0
  187.2390  176.7010  143.2260 C   0  0  1  0  0  3  0  0  0  0  0  0
  190.9440  176.6600  146.6010 F   0  0  0  0  0  0  0  0  0  0  0  0
  185.7690  177.4930  144.8290 C   0  0  0  0  0  0  0  0  0  0  0  0
  188.7820  177.5250  147.1020 C   0  0  0  0  0  3  0  0  0  0  0  0
  189.2180  176.4490  144.9520 C   0  0  0  0  0  0  0  0  0  0  0  0
  185.9230  177.2140  143.4820 O   0  0  0  0  0  0  0  0  0  0  0  0
  187.0080  177.2500  145.5170 C   0  0  0  0  0  0  0  0  0  0  0  0
  184.4200  177.8120  146.8180 C   0  0  0  0  0  2  0  0  0  0  0  0
  191.1180  177.7870  143.1710 O   0  0  0  0  0  0  0  0  0  0  0  0
  190.1600  175.8420  144.0580 N   0  0  0  0  0  2  0  0  0  0  0  0
  191.1080  176.5280  143.2330 C   0  0  0  0  0  0  0  0  0  0  0  0
  192.0670  175.7200  142.4140 C   0  0  1  0  0  3  0  0  0  0  0  0
  195.2190  176.2680  144.4820 C   0  0  0  0  0  3  0  0  0  0  0  0
  193.8810  176.0320  144.1460 C   0  0  0  0  0  3  0  0  0  0  0  0
  195.7930  176.3830  142.1330 C   0  0  0  0  0  3  0  0  0  0  0  0
  196.1750  176.4410  143.4770 C   0  0  0  0  0  3  0  0  0  0  0  0
  194.4550  176.1490  141.7960 C   0  0  0  0  0  3  0  0  0  0  0  0
  193.4950  175.9700  142.7990 C   0  0  0  0  0  0  0  0  0  0  0  0
  191.4580  173.9980  141.1780 C   0  0  0  0  0  1  0  0  0  0  0  0
  191.7550  174.3600  142.4890 O   0  0  0  0  0  0  0  0  0  0  0  0
  187.9220  177.5820  142.3770 O   0  0  0  0  0  0  0  0  0  0  0  0
  187.9850  176.9400  141.1360 C   0  0  0  0  0  3  0  0  0  0  0  0
  187.9830  175.4350  141.3370 C   0  0  0  0  0  1  0  0  0  0  0  0
  186.7720  177.3180  140.3150 C   0  0  0  0  0  1  0  0  0  0  0  0
  2 11  2  0  0  0  0
  2 13  1  0  0  0  0
  3  1  2  0  0  0  0
  4 14  1  0  0  0  0
  5  8  1  0  0  0  0
  5 10  2  0  0  0  0
  6 10  1  0  0  0  0
  6  3  1  0  0  0  0
  7 27  1  6  0  0  0
  7 12  1  0  0  0  0
  7  2  1  0  0  0  0
  9  4  2  0  0  0  0
  9 13  1  0  0  0  0
 11  5  1  0  0  0  0
 12  9  1  0  0  0  0
 13  6  2  0  0  0  0
 14  1  1  0  0  0  0
 15 17  2  0  0  0  0
 16 11  1  0  0  0  0
 17 16  1  0  0  0  0
 18 26  1  1  0  0  0
 18 24  1  0  0  0  0
 18 17  1  0  0  0  0
 20 19  1  0  0  0  0
 21 22  1  0  0  0  0
 22 19  2  0  0  0  0
 23 21  2  0  0  0  0
 23 24  1  0  0  0  0
 24 20  2  0  0  0  0
 25 26  1  0  0  0  0
 28 29  1  0  0  0  0
 28 27  1  0  0  0  0
 30 28  1  0  0  0  0
M  END
>  <MODEL>
8

>  <REMARK>
 VINA RESULT:      -6.4      2.213      7.064
  Name = 
  6 active torsions:
  status: ('A' for Active; 'I' for Inactive)
    1  A    between atoms: O_2  and  C_3
    2  A    between atoms: O_2  and  C_14
    3  A    between atoms: N_11  and  C_20
    4  A    between atoms: C_12  and  C_22
    5  A    between atoms: O_19  and  C_22
    6  A    between atoms: C_22  and  C_29
                            x       y       z     vdW  Elec       q    Type
                         _______ _______ _______ _____ _____    ______ ____

>  <TORSDO>
F 6

$$$$
=
 OpenBabel11042413583D

 30 33  0  0  1  0  0  0  0  0999 V2000
  190.5650  171.2630  139.1890 C   0  0  0  0  0  3  0  0  0  0  0  0
  190.2950  173.6730  142.8470 C   0  0  0  0  0  0  0  0  0  0  0  0
  189.6640  172.1480  139.5010 N   0  0  0  0  0  0  0  0  0  0  0  0
  192.2690  171.4580  140.9710 N   0  0  0  0  0  0  0  0  0  0  0  0
  188.0290  174.1720  142.1780 C   0  0  0  0  0  0  0  0  0  0  0  0
  189.4120  172.7090  140.7980 C   0  0  0  0  0  0  0  0  0  0  0  0
  191.6550  173.9130  143.4630 C   0  0  1  0  0  3  0  0  0  0  0  0
  186.8460  174.8060  142.3700 F   0  0  0  0  0  0  0  0  0  0  0  0
  191.7860  172.4010  141.7150 C   0  0  0  0  0  0  0  0  0  0  0  0
  188.2140  173.4020  141.0180 C   0  0  0  0  0  3  0  0  0  0  0  0
  189.0730  174.3220  143.1110 C   0  0  0  0  0  0  0  0  0  0  0  0
  192.5170  173.0770  142.6760 O   0  0  0  0  0  0  0  0  0  0  0  0
  190.4110  172.8200  141.7700 C   0  0  0  0  0  0  0  0  0  0  0  0
  191.4370  170.5560  140.1820 C   0  0  0  0  0  2  0  0  0  0  0  0
  189.3270  177.2370  143.2300 O   0  0  0  0  0  0  0  0  0  0  0  0
  188.8710  175.1750  144.2450 N   0  0  0  0  0  2  0  0  0  0  0  0
  188.9590  176.6040  144.2570 C   0  0  0  0  0  0  0  0  0  0  0  0
  188.6410  177.3360  145.5250 C   0  0  1  0  0  3  0  0  0  0  0  0
  185.0000  177.1660  146.6340 C   0  0  0  0  0  3  0  0  0  0  0  0
  186.3650  176.8760  146.5240 C   0  0  0  0  0  3  0  0  0  0  0  0
  185.2460  178.9560  145.0220 C   0  0  0  0  0  3  0  0  0  0  0  0
  184.4410  178.2060  145.8850 C   0  0  0  0  0  3  0  0  0  0  0  0
  186.6110  178.6660  144.9100 C   0  0  0  0  0  3  0  0  0  0  0  0
  187.1760  177.6280  145.6610 C   0  0  0  0  0  0  0  0  0  0  0  0
  189.9870  177.5210  147.2630 C   0  0  0  0  0  1  0  0  0  0  0  0
  189.1200  176.6320  146.6330 O   0  0  0  0  0  0  0  0  0  0  0  0
  192.0220  175.2530  143.2850 O   0  0  0  0  0  0  0  0  0  0  0  0
  192.7610  175.5990  144.4210 C   0  0  0  0  0  3  0  0  0  0  0  0
  192.6890  177.0990  144.6420 C   0  0  0  0  0  1  0  0  0  0  0  0
  192.1730  174.9050  145.6300 C   0  0  0  0  0  1  0  0  0  0  0  0
  1  3  2  0  0  0  0
  1 14  1  0  0  0  0
  2 11  1  0  0  0  0
  2  7  1  0  0  0  0
  3  6  1  0  0  0  0
  4  9  2  0  0  0  0
  5  8  1  0  0  0  0
  5 11  2  0  0  0  0
  6 10  2  0  0  0  0
  6 13  1  0  0  0  0
  7 27  1  6  0  0  0
  9 13  1  0  0  0  0
  9 12  1  0  0  0  0
 10  5  1  0  0  0  0
 11 16  1  0  0  0  0
 12  7  1  0  0  0  0
 13  2  2  0  0  0  0
 14  4  1  0  0  0  0
 15 17  2  0  0  0  0
 16 17  1  0  0  0  0
 18 17  1  6  0  0  0
 18 24  1  0  0  0  0
 18 26  1  0  0  0  0
 20 19  1  0  0  0  0
 21 22  1  0  0  0  0
 22 19  2  0  0  0  0
 23 21  2  0  0  0  0
 23 24  1  0  0  0  0
 24 20  2  0  0  0  0
 26 25  1  0  0  0  0
 27 28  1  0  0  0  0
 28 29  1  0  0  0  0
 28 30  1  0  0  0  0
M  END
>  <MODEL>
9

>  <REMARK>
 VINA RESULT:      -6.4      3.262      4.932
  Name = 
  6 active torsions:
  status: ('A' for Active; 'I' for Inactive)
    1  A    between atoms: O_2  and  C_3
    2  A    between atoms: O_2  and  C_14
    3  A    between atoms: N_11  and  C_20
    4  A    between atoms: C_12  and  C_22
    5  A    between atoms: O_19  and  C_22
    6  A    between atoms: C_22  and  C_29
                            x       y       z     vdW  Elec       q    Type
                         _______ _______ _______ _____ _____    ______ ____

>  <TORSDO>
F 6

$$$$
