=
 OpenBabel11042416263D

 38 42  0  0  1  0  0  0  0  0999 V2000
  188.2540  176.1910  144.3100 C   0  0  2  0  0  3  0  0  0  0  0  0
  192.4150  176.5200  144.6950 C   0  0  2  0  0  3  0  0  0  0  0  0
  192.7450  174.4160  142.2980 N   0  0  0  0  0  2  0  0  0  0  0  0
  188.2110  176.5660  142.8450 C   0  0  2  0  0  3  0  0  0  0  0  0
  190.8730  173.1750  141.2150 C   0  0  0  0  0  0  0  0  0  0  0  0
  192.7890  172.0900  142.1010 O   0  0  0  0  0  0  0  0  0  0  0  0
  192.1880  173.1740  141.8680 C   0  0  0  0  0  0  0  0  0  0  0  0
  191.7080  175.4970  145.3870 O   0  0  0  0  0  0  0  0  0  0  0  0
  191.5500  177.4760  143.8590 C   0  0  2  0  0  3  0  0  0  0  0  0
  194.8030  176.1520  144.6430 O   0  0  0  0  0  0  0  0  0  0  0  0
  193.6210  175.9950  143.9070 C   0  0  1  0  0  3  0  0  0  0  0  0
  190.3400  172.0190  140.6310 C   0  0  0  0  0  3  0  0  0  0  0  0
  188.8170  174.3350  140.7210 C   0  0  0  0  0  0  0  0  0  0  0  0
  187.1710  177.0760  144.9000 C   0  0  2  0  0  3  0  0  0  0  0  0
  187.4740  177.9000  142.8390 C   0  0  0  0  0  2  0  0  0  0  0  0
  189.8610  173.9960  145.3960 C   0  0  0  0  0  1  0  0  0  0  0  0
  190.4610  175.2470  144.7720 C   0  0  1  0  0  3  0  0  0  0  0  0
  195.7060  175.2130  144.1050 C   0  0  2  0  0  3  0  0  0  0  0  0
  187.1260  178.2630  144.1530 O   0  0  0  0  0  0  0  0  0  0  0  0
  193.5160  174.5420  143.5200 C   0  0  2  0  0  3  0  0  0  0  0  0
  194.9470  174.1640  143.3080 C   0  0  0  0  0  2  0  0  0  0  0  0
  190.1010  174.3350  141.2590 C   0  0  0  0  0  3  0  0  0  0  0  0
  189.0490  172.0570  140.0950 C   0  0  0  0  0  3  0  0  0  0  0  0
  187.9740  175.5550  140.8610 C   0  0  0  0  0  2  0  0  0  0  0  0
  189.5690  176.4070  144.9600 N   0  0  1  0  0  0  0  0  0  0  0  0
  192.1950  178.7030  143.7160 O   0  0  0  0  0  1  0  0  0  0  0  0
  188.3160  173.2030  140.1580 N   0  0  0  0  0  0  0  0  0  0  0  0
  187.4440  175.6170  142.1560 O   0  0  0  0  0  0  0  0  0  0  0  0
  190.2070  177.6790  144.5590 C   0  0  0  0  0  2  0  0  0  0  0  0
  187.4030  177.3660  146.3100 N   0  0  0  0  0  2  0  0  0  0  0  0
  186.3610  176.6960  147.0700 C   0  0  0  0  0  2  0  0  0  0  0  0
  185.0330  176.8320  146.3490 C   0  0  0  0  0  2  0  0  0  0  0  0
  183.7280  178.8290  145.6330 O   0  0  0  0  0  0  0  0  0  0  0  0
  184.5700  178.6920  147.7610 O   0  0  0  0  0  1  0  0  0  0  0  0
  184.4460  178.1700  146.6230 C   0  0  0  0  0  0  0  0  0  0  0  0
  196.5410  174.5750  145.2100 C   0  0  0  0  0  2  0  0  0  0  0  0
  197.5270  173.1690  144.5980 S   0  0  0  0  0  0  0  0  0  0  0  0
  196.8800  172.0680  145.8850 C   0  0  0  0  0  1  0  0  0  0  0  0
  1 14  1  0  0  0  0
  1 25  1  0  0  0  0
  2  8  1  0  0  0  0
  3 20  1  0  0  0  0
  4  1  1  0  0  0  0
  5 22  1  0  0  0  0
  5  7  1  0  0  0  0
  7  6  2  0  0  0  0
  7  3  1  0  0  0  0
  9 29  1  0  0  0  0
  9  2  1  0  0  0  0
 11 10  1  0  0  0  0
 11  2  1  0  0  0  0
 12  5  2  0  0  0  0
 13 24  1  0  0  0  0
 13 22  2  0  0  0  0
 14 30  1  0  0  0  0
 15  4  1  0  0  0  0
 15 19  1  0  0  0  0
 17 25  1  0  0  0  0
 17  8  1  0  0  0  0
 17 16  1  0  0  0  0
 18 10  1  0  0  0  0
 18 36  1  0  0  0  0
 19 14  1  0  0  0  0
 20 11  1  0  0  0  0
 21 20  1  0  0  0  0
 21 18  1  0  0  0  0
 23 27  2  0  0  0  0
 23 12  1  0  0  0  0
 24 28  1  0  0  0  0
 26  9  1  0  0  0  0
 27 13  1  0  0  0  0
 28  4  1  0  0  0  0
 29 25  1  0  0  0  0
 30 31  1  0  0  0  0
 32 35  1  0  0  0  0
 32 31  1  0  0  0  0
 33 35  2  0  0  0  0
 35 34  1  0  0  0  0
 37 36  1  0  0  0  0
 37 38  1  0  0  0  0
M  END
>  <MODEL>
1

>  <REMARK>
 VINA RESULT:      -7.6      0.000      0.000
  Name = 
  6 active torsions:
  status: ('A' for Active; 'I' for Inactive)
    1  A    between atoms: C_11  and  C_19
    2  A    between atoms: C_11  and  N_25
    3  A    between atoms: S_14  and  C_33
    4  A    between atoms: C_17  and  N_25
    5  A    between atoms: C_19  and  C_27
    6  A    between atoms: C_23  and  C_33
                            x       y       z     vdW  Elec       q    Type
                         _______ _______ _______ _____ _____    ______ ____

>  <TORSDO>
F 6

$$$$
=
 OpenBabel11042416263D

 38 42  0  0  1  0  0  0  0  0999 V2000
  192.7050  174.8860  144.2490 C   0  0  2  0  0  3  0  0  0  0  0  0
  189.2150  176.3890  146.0180 C   0  0  2  0  0  3  0  0  0  0  0  0
  187.5710  175.4570  143.4290 N   0  0  0  0  0  2  0  0  0  0  0  0
  192.1760  173.4850  144.0440 C   0  0  2  0  0  3  0  0  0  0  0  0
  188.5820  174.5200  141.3510 C   0  0  0  0  0  0  0  0  0  0  0  0
  187.0860  176.3630  141.3330 O   0  0  0  0  0  0  0  0  0  0  0  0
  187.6910  175.4840  142.0070 C   0  0  0  0  0  0  0  0  0  0  0  0
  189.9830  177.2030  145.1380 O   0  0  0  0  0  0  0  0  0  0  0  0
  189.7770  174.9830  146.2810 C   0  0  2  0  0  3  0  0  0  0  0  0
  187.0090  177.2770  146.4480 O   0  0  0  0  0  0  0  0  0  0  0  0
  187.7230  176.3580  145.6680 C   0  0  1  0  0  3  0  0  0  0  0  0
  188.6280  174.3880  139.9580 C   0  0  0  0  0  3  0  0  0  0  0  0
  190.3820  172.9250  141.5300 C   0  0  0  0  0  0  0  0  0  0  0  0
  194.0600  174.6280  144.8850 C   0  0  2  0  0  3  0  0  0  0  0  0
  193.0360  172.6380  144.9750 C   0  0  0  0  0  2  0  0  0  0  0  0
  191.3980  177.3000  143.2270 C   0  0  0  0  0  1  0  0  0  0  0  0
  190.7910  176.4050  144.2970 C   0  0  1  0  0  3  0  0  0  0  0  0
  185.8300  177.5450  145.7250 C   0  0  2  0  0  3  0  0  0  0  0  0
  193.9640  173.4550  145.6470 O   0  0  0  0  0  0  0  0  0  0  0  0
  187.4260  176.6620  144.2220 C   0  0  2  0  0  3  0  0  0  0  0  0
  186.0020  177.1160  144.2770 C   0  0  0  0  0  2  0  0  0  0  0  0
  189.4690  173.7830  142.1350 C   0  0  0  0  0  3  0  0  0  0  0  0
  189.5550  173.5130  139.3830 C   0  0  0  0  0  3  0  0  0  0  0  0
  191.3820  172.2180  142.3770 C   0  0  0  0  0  2  0  0  0  0  0  0
  191.8460  175.7500  145.0940 N   0  0  1  0  0  0  0  0  0  0  0  0
  189.3310  174.5140  147.5160 O   0  0  0  0  0  1  0  0  0  0  0  0
  190.4120  172.8100  140.1750 N   0  0  0  0  0  0  0  0  0  0  0  0
  192.4180  173.0960  142.7190 O   0  0  0  0  0  0  0  0  0  0  0  0
  191.3030  175.0430  146.2740 C   0  0  0  0  0  2  0  0  0  0  0  0
  194.5010  175.7440  145.7140 N   0  0  0  0  0  2  0  0  0  0  0  0
  195.2980  176.6220  144.8750 C   0  0  0  0  0  2  0  0  0  0  0  0
  196.1300  175.7950  143.9120 C   0  0  0  0  0  2  0  0  0  0  0  0
  196.1230  176.9080  141.6830 O   0  0  0  0  0  0  0  0  0  0  0  0
  197.8470  177.2580  143.1520 O   0  0  0  0  0  1  0  0  0  0  0  0
  196.7570  176.6830  142.8980 C   0  0  0  0  0  0  0  0  0  0  0  0
  185.4590  179.0210  145.8270 C   0  0  0  0  0  2  0  0  0  0  0  0
  185.3170  179.8070  144.1880 S   0  0  0  0  0  0  0  0  0  0  0  0
  183.6080  179.2350  143.9870 C   0  0  0  0  0  1  0  0  0  0  0  0
  1 14  1  0  0  0  0
  1 25  1  0  0  0  0
  2  9  1  0  0  0  0
  3 20  1  0  0  0  0
  4  1  1  0  0  0  0
  4 15  1  0  0  0  0
  5  7  1  0  0  0  0
  5 22  1  0  0  0  0
  6  7  2  0  0  0  0
  7  3  1  0  0  0  0
  8  2  1  0  0  0  0
  9 26  1  0  0  0  0
 11  2  1  0  0  0  0
 11 10  1  0  0  0  0
 12  5  2  0  0  0  0
 13 22  2  0  0  0  0
 13 24  1  0  0  0  0
 14 19  1  0  0  0  0
 14 30  1  0  0  0  0
 15 19  1  0  0  0  0
 16 17  1  0  0  0  0
 17 25  1  0  0  0  0
 17  8  1  0  0  0  0
 18 36  1  0  0  0  0
 18 10  1  0  0  0  0
 20 21  1  0  0  0  0
 20 11  1  0  0  0  0
 21 18  1  0  0  0  0
 23 12  1  0  0  0  0
 23 27  2  0  0  0  0
 24 28  1  0  0  0  0
 25 29  1  0  0  0  0
 27 13  1  0  0  0  0
 28  4  1  0  0  0  0
 29  9  1  0  0  0  0
 31 30  1  0  0  0  0
 32 31  1  0  0  0  0
 33 35  2  0  0  0  0
 35 34  1  0  0  0  0
 35 32  1  0  0  0  0
 37 36  1  0  0  0  0
 38 37  1  0  0  0  0
M  END
>  <MODEL>
2

>  <REMARK>
 VINA RESULT:      -7.6      3.006      7.705
  Name = 
  6 active torsions:
  status: ('A' for Active; 'I' for Inactive)
    1  A    between atoms: C_11  and  C_19
    2  A    between atoms: C_11  and  N_25
    3  A    between atoms: S_14  and  C_33
    4  A    between atoms: C_17  and  N_25
    5  A    between atoms: C_19  and  C_27
    6  A    between atoms: C_23  and  C_33
                            x       y       z     vdW  Elec       q    Type
                         _______ _______ _______ _____ _____    ______ ____

>  <TORSDO>
F 6

$$$$
=
 OpenBabel11042416263D

 38 42  0  0  1  0  0  0  0  0999 V2000
  189.0600  176.8130  145.2470 C   0  0  2  0  0  3  0  0  0  0  0  0
  189.8670  174.3760  141.9340 C   0  0  2  0  0  3  0  0  0  0  0  0
  192.9950  174.6110  142.5960 N   0  0  0  0  0  2  0  0  0  0  0  0
  189.7790  175.9400  146.2510 C   0  0  2  0  0  3  0  0  0  0  0  0
  193.9790  176.0730  144.3590 C   0  0  0  0  0  0  0  0  0  0  0  0
  194.7060  176.1190  142.1000 O   0  0  0  0  0  0  0  0  0  0  0  0
  193.9470  175.6060  142.9680 C   0  0  0  0  0  0  0  0  0  0  0  0
  189.8710  175.7930  141.8020 O   0  0  0  0  0  0  0  0  0  0  0  0
  189.5180  173.8410  143.3320 C   0  0  2  0  0  3  0  0  0  0  0  0
  190.8880  173.2450  140.0580 O   0  0  0  0  0  0  0  0  0  0  0  0
  191.1220  173.7090  141.3580 C   0  0  1  0  0  3  0  0  0  0  0  0
  194.9850  176.9270  144.8270 C   0  0  0  0  0  3  0  0  0  0  0  0
  192.8940  176.2240  146.5080 C   0  0  0  0  0  0  0  0  0  0  0  0
  187.7330  177.0720  145.9370 C   0  0  2  0  0  3  0  0  0  0  0  0
  188.6570  175.4290  147.1480 C   0  0  0  0  0  2  0  0  0  0  0  0
  190.3050  177.8970  142.8260 C   0  0  0  0  0  1  0  0  0  0  0  0
  190.0680  176.4110  143.0560 C   0  0  1  0  0  3  0  0  0  0  0  0
  192.1600  173.1500  139.4600 C   0  0  2  0  0  3  0  0  0  0  0  0
  187.4220  175.9470  146.7150 O   0  0  0  0  0  0  0  0  0  0  0  0
  192.3280  174.6130  141.3080 C   0  0  2  0  0  3  0  0  0  0  0  0
  193.1680  173.9670  140.2530 C   0  0  0  0  0  2  0  0  0  0  0  0
  192.9300  175.7250  145.2100 C   0  0  0  0  0  3  0  0  0  0  0  0
  194.9200  177.4060  146.1390 C   0  0  0  0  0  3  0  0  0  0  0  0
  191.7190  175.9170  147.3690 C   0  0  0  0  0  2  0  0  0  0  0  0
  188.8850  176.1950  143.9110 N   0  0  1  0  0  0  0  0  0  0  0  0
  188.9870  172.5560  143.2320 O   0  0  0  0  0  1  0  0  0  0  0  0
  193.8800  177.0540  146.9450 N   0  0  0  0  0  0  0  0  0  0  0  0
  190.6430  176.7400  147.0120 O   0  0  0  0  0  0  0  0  0  0  0  0
  188.4950  174.7700  143.9830 C   0  0  0  0  0  2  0  0  0  0  0  0
  186.6630  177.3510  144.9870 N   0  0  0  0  0  2  0  0  0  0  0  0
  185.4020  177.1830  145.6890 C   0  0  0  0  0  2  0  0  0  0  0  0
  184.6650  178.5090  145.7460 C   0  0  0  0  0  2  0  0  0  0  0  0
  183.8580  178.5420  143.3890 O   0  0  0  0  0  0  0  0  0  0  0  0
  185.2620  180.1810  144.1600 O   0  0  0  0  0  1  0  0  0  0  0  0
  184.6260  179.1210  144.3910 C   0  0  0  0  0  0  0  0  0  0  0  0
  192.1060  173.5970  138.0030 C   0  0  0  0  0  2  0  0  0  0  0  0
  190.3930  173.7520  137.3970 S   0  0  0  0  0  0  0  0  0  0  0  0
  190.9140  174.7560  135.9800 C   0  0  0  0  0  1  0  0  0  0  0  0
  1 14  1  0  0  0  0
  1  4  1  0  0  0  0
  2  9  1  0  0  0  0
  3  7  1  0  0  0  0
  4 28  1  0  0  0  0
  4 15  1  0  0  0  0
  5 12  2  0  0  0  0
  5 22  1  0  0  0  0
  6  7  2  0  0  0  0
  7  5  1  0  0  0  0
  8  2  1  0  0  0  0
  8 17  1  0  0  0  0
  9 29  1  0  0  0  0
 10 11  1  0  0  0  0
 11  2  1  0  0  0  0
 12 23  1  0  0  0  0
 13 27  1  0  0  0  0
 13 24  1  0  0  0  0
 14 19  1  0  0  0  0
 16 17  1  0  0  0  0
 17 25  1  0  0  0  0
 18 10  1  0  0  0  0
 18 21  1  0  0  0  0
 19 15  1  0  0  0  0
 20 11  1  0  0  0  0
 20  3  1  0  0  0  0
 21 20  1  0  0  0  0
 22 13  2  0  0  0  0
 23 27  2  0  0  0  0
 25 29  1  0  0  0  0
 25  1  1  0  0  0  0
 26  9  1  0  0  0  0
 28 24  1  0  0  0  0
 30 31  1  0  0  0  0
 30 14  1  0  0  0  0
 31 32  1  0  0  0  0
 33 35  2  0  0  0  0
 34 35  1  0  0  0  0
 35 32  1  0  0  0  0
 36 18  1  0  0  0  0
 37 36  1  0  0  0  0
 38 37  1  0  0  0  0
M  END
>  <MODEL>
3

>  <REMARK>
 VINA RESULT:      -7.4      2.832      5.507
  Name = 
  6 active torsions:
  status: ('A' for Active; 'I' for Inactive)
    1  A    between atoms: C_11  and  C_19
    2  A    between atoms: C_11  and  N_25
    3  A    between atoms: S_14  and  C_33
    4  A    between atoms: C_17  and  N_25
    5  A    between atoms: C_19  and  C_27
    6  A    between atoms: C_23  and  C_33
                            x       y       z     vdW  Elec       q    Type
                         _______ _______ _______ _____ _____    ______ ____

>  <TORSDO>
F 6

$$$$
=
 OpenBabel11042416263D

 38 42  0  0  1  0  0  0  0  0999 V2000
  190.2040  176.5900  145.3440 C   0  0  2  0  0  3  0  0  0  0  0  0
  189.5100  173.8810  142.2220 C   0  0  2  0  0  3  0  0  0  0  0  0
  192.6590  173.8600  141.6180 N   0  0  0  0  0  2  0  0  0  0  0  0
  191.1990  175.7190  146.0780 C   0  0  2  0  0  3  0  0  0  0  0  0
  194.3390  175.3320  142.7270 C   0  0  0  0  0  0  0  0  0  0  0  0
  194.1360  175.1650  140.3680 O   0  0  0  0  0  0  0  0  0  0  0  0
  193.7410  174.7830  141.5030 C   0  0  0  0  0  0  0  0  0  0  0  0
  189.5520  175.2800  141.9630 O   0  0  0  0  0  0  0  0  0  0  0  0
  189.6960  173.4720  143.6910 C   0  0  2  0  0  3  0  0  0  0  0  0
  189.6520  172.5420  140.2150 O   0  0  0  0  0  0  0  0  0  0  0  0
  190.4000  173.0640  141.2780 C   0  0  1  0  0  3  0  0  0  0  0  0
  195.4990  176.1160  142.6930 C   0  0  0  0  0  3  0  0  0  0  0  0
  194.1820  175.7220  145.1010 C   0  0  0  0  0  0  0  0  0  0  0  0
  189.2660  177.0170  146.4600 C   0  0  2  0  0  3  0  0  0  0  0  0
  190.4820  175.3750  147.3780 C   0  0  0  0  0  2  0  0  0  0  0  0
  190.4800  177.3940  142.5410 C   0  0  0  0  0  1  0  0  0  0  0  0
  190.2570  175.9560  142.9840 C   0  0  1  0  0  3  0  0  0  0  0  0
  190.5850  172.2890  139.1900 C   0  0  2  0  0  3  0  0  0  0  0  0
  189.2100  175.9780  147.4000 O   0  0  0  0  0  0  0  0  0  0  0  0
  191.5470  173.8440  140.6870 C   0  0  2  0  0  3  0  0  0  0  0  0
  191.8700  173.0560  139.4580 C   0  0  0  0  0  2  0  0  0  0  0  0
  193.6810  175.1400  143.9410 C   0  0  0  0  0  3  0  0  0  0  0  0
  195.9770  176.6810  143.8790 C   0  0  0  0  0  3  0  0  0  0  0  0
  193.4150  175.5840  146.3700 C   0  0  0  0  0  2  0  0  0  0  0  0
  189.4860  175.9070  144.2410 N   0  0  1  0  0  0  0  0  0  0  0  0
  189.0890  172.2390  143.9240 O   0  0  0  0  0  1  0  0  0  0  0  0
  195.3090  176.4810  145.0490 N   0  0  0  0  0  0  0  0  0  0  0  0
  192.3380  176.4800  146.3720 O   0  0  0  0  0  0  0  0  0  0  0  0
  189.0670  174.5340  144.5910 C   0  0  0  0  0  2  0  0  0  0  0  0
  187.9310  177.3350  145.9660 N   0  0  0  0  0  2  0  0  0  0  0  0
  186.9740  176.7570  146.8950 C   0  0  0  0  0  2  0  0  0  0  0  0
  185.5810  176.8120  146.2960 C   0  0  0  0  0  2  0  0  0  0  0  0
  184.0560  178.6820  145.6790 O   0  0  0  0  0  0  0  0  0  0  0  0
  185.2420  178.7480  147.6390 O   0  0  0  0  0  1  0  0  0  0  0  0
  184.9650  178.1360  146.5750 C   0  0  0  0  0  0  0  0  0  0  0  0
  189.9990  172.6450  137.8280 C   0  0  0  0  0  2  0  0  0  0  0  0
  188.5850  173.7870  137.9680 S   0  0  0  0  0  0  0  0  0  0  0  0
  188.9660  174.5610  136.3730 C   0  0  0  0  0  1  0  0  0  0  0  0
  1  4  1  0  0  0  0
  1 14  1  0  0  0  0
  2  9  1  0  0  0  0
  4 28  1  0  0  0  0
  4 15  1  0  0  0  0
  5 22  1  0  0  0  0
  6  7  2  0  0  0  0
  7  3  1  0  0  0  0
  7  5  1  0  0  0  0
  8  2  1  0  0  0  0
  8 17  1  0  0  0  0
  9 26  1  0  0  0  0
  9 29  1  0  0  0  0
 10 11  1  0  0  0  0
 11  2  1  0  0  0  0
 12  5  2  0  0  0  0
 12 23  1  0  0  0  0
 13 24  1  0  0  0  0
 14 19  1  0  0  0  0
 15 19  1  0  0  0  0
 16 17  1  0  0  0  0
 17 25  1  0  0  0  0
 18 21  1  0  0  0  0
 18 10  1  0  0  0  0
 20 11  1  0  0  0  0
 20  3  1  0  0  0  0
 21 20  1  0  0  0  0
 22 13  2  0  0  0  0
 23 27  2  0  0  0  0
 24 28  1  0  0  0  0
 25 29  1  0  0  0  0
 25  1  1  0  0  0  0
 27 13  1  0  0  0  0
 30 14  1  0  0  0  0
 30 31  1  0  0  0  0
 32 35  1  0  0  0  0
 32 31  1  0  0  0  0
 33 35  2  0  0  0  0
 35 34  1  0  0  0  0
 36 37  1  0  0  0  0
 36 18  1  0  0  0  0
 38 37  1  0  0  0  0
M  END
>  <MODEL>
4

>  <REMARK>
 VINA RESULT:      -7.4      2.758      5.686
  Name = 
  6 active torsions:
  status: ('A' for Active; 'I' for Inactive)
    1  A    between atoms: C_11  and  C_19
    2  A    between atoms: C_11  and  N_25
    3  A    between atoms: S_14  and  C_33
    4  A    between atoms: C_17  and  N_25
    5  A    between atoms: C_19  and  C_27
    6  A    between atoms: C_23  and  C_33
                            x       y       z     vdW  Elec       q    Type
                         _______ _______ _______ _____ _____    ______ ____

>  <TORSDO>
F 6

$$$$
=
 OpenBabel11042416263D

 38 42  0  0  1  0  0  0  0  0999 V2000
  194.6460  174.6150  143.9130 C   0  0  2  0  0  3  0  0  0  0  0  0
  191.2600  176.7160  145.2120 C   0  0  2  0  0  3  0  0  0  0  0  0
  189.4490  174.2130  144.3550 N   0  0  0  0  0  2  0  0  0  0  0  0
  194.4120  173.4030  144.7870 C   0  0  2  0  0  3  0  0  0  0  0  0
  190.2770  172.1930  143.1510 C   0  0  0  0  0  0  0  0  0  0  0  0
  188.4300  173.4740  142.3890 O   0  0  0  0  0  0  0  0  0  0  0  0
  189.3180  173.2980  143.2670 C   0  0  0  0  0  0  0  0  0  0  0  0
  191.6690  176.7830  143.8510 O   0  0  0  0  0  0  0  0  0  0  0  0
  192.1540  175.8700  146.1330 C   0  0  2  0  0  3  0  0  0  0  0  0
  189.0170  177.5420  145.5710 O   0  0  0  0  0  0  0  0  0  0  0  0
  189.7740  176.3790  145.3830 C   0  0  1  0  0  3  0  0  0  0  0  0
  190.1150  171.1740  142.2040 C   0  0  0  0  0  3  0  0  0  0  0  0
  192.3890  171.2190  143.7910 C   0  0  0  0  0  0  0  0  0  0  0  0
  196.1110  174.9180  144.1700 C   0  0  2  0  0  3  0  0  0  0  0  0
  195.5820  173.4340  145.7630 C   0  0  0  0  0  2  0  0  0  0  0  0
  192.6850  175.6690  142.0100 C   0  0  0  0  0  1  0  0  0  0  0  0
  192.4790  175.6750  143.5170 C   0  0  1  0  0  3  0  0  0  0  0  0
  187.7030  177.1980  145.1960 C   0  0  2  0  0  3  0  0  0  0  0  0
  196.4070  174.5410  145.4890 O   0  0  0  0  0  0  0  0  0  0  0  0
  189.1770  175.6300  144.2180 C   0  0  2  0  0  3  0  0  0  0  0  0
  187.7180  175.9270  144.3610 C   0  0  0  0  0  2  0  0  0  0  0  0
  191.4240  172.2100  143.9440 C   0  0  0  0  0  3  0  0  0  0  0  0
  191.1020  170.1910  142.0810 C   0  0  0  0  0  3  0  0  0  0  0  0
  193.6480  171.3080  144.5810 C   0  0  0  0  0  2  0  0  0  0  0  0
  193.7720  175.7710  144.2230 N   0  0  1  0  0  0  0  0  0  0  0  0
  192.0380  176.3140  147.4500 O   0  0  0  0  0  1  0  0  0  0  0  0
  192.2140  170.2370  142.8660 N   0  0  0  0  0  0  0  0  0  0  0  0
  194.5060  172.2480  143.9980 O   0  0  0  0  0  0  0  0  0  0  0  0
  193.6060  175.9950  145.6740 C   0  0  0  0  0  2  0  0  0  0  0  0
  196.4280  176.3250  143.9560 N   0  0  0  0  0  2  0  0  0  0  0  0
  197.2720  176.4070  142.7760 C   0  0  0  0  0  2  0  0  0  0  0  0
  196.4240  176.7300  141.5600 C   0  0  0  0  0  2  0  0  0  0  0  0
  197.7770  175.6650  139.7600 O   0  0  0  0  0  0  0  0  0  0  0  0
  195.7400  174.7970  140.3510 O   0  0  0  0  0  1  0  0  0  0  0  0
  196.6150  175.6850  140.5210 C   0  0  0  0  0  0  0  0  0  0  0  0
  187.0380  178.3470  144.4460 C   0  0  0  0  0  2  0  0  0  0  0  0
  185.3830  178.7310  145.1080 S   0  0  0  0  0  0  0  0  0  0  0  0
  185.8620  178.2280  146.7820 C   0  0  0  0  0  1  0  0  0  0  0  0
  1 14  1  0  0  0  0
  1 25  1  0  0  0  0
  1  4  1  0  0  0  0
  2 11  1  0  0  0  0
  2  9  1  0  0  0  0
  4 15  1  0  0  0  0
  5  7  1  0  0  0  0
  5 22  1  0  0  0  0
  6  7  2  0  0  0  0
  7  3  1  0  0  0  0
  8  2  1  0  0  0  0
  9 26  1  0  0  0  0
 11 10  1  0  0  0  0
 12  5  2  0  0  0  0
 13 22  2  0  0  0  0
 13 24  1  0  0  0  0
 14 19  1  0  0  0  0
 16 17  1  0  0  0  0
 17  8  1  0  0  0  0
 17 25  1  0  0  0  0
 18 10  1  0  0  0  0
 19 15  1  0  0  0  0
 20  3  1  0  0  0  0
 20 21  1  0  0  0  0
 20 11  1  0  0  0  0
 21 18  1  0  0  0  0
 23 12  1  0  0  0  0
 23 27  2  0  0  0  0
 25 29  1  0  0  0  0
 27 13  1  0  0  0  0
 28 24  1  0  0  0  0
 28  4  1  0  0  0  0
 29  9  1  0  0  0  0
 30 14  1  0  0  0  0
 31 30  1  0  0  0  0
 32 31  1  0  0  0  0
 33 35  2  0  0  0  0
 34 35  1  0  0  0  0
 35 32  1  0  0  0  0
 36 37  1  0  0  0  0
 36 18  1  0  0  0  0
 37 38  1  0  0  0  0
M  END
>  <MODEL>
5

>  <REMARK>
 VINA RESULT:      -7.1      3.297      7.938
  Name = 
  6 active torsions:
  status: ('A' for Active; 'I' for Inactive)
    1  A    between atoms: C_11  and  C_19
    2  A    between atoms: C_11  and  N_25
    3  A    between atoms: S_14  and  C_33
    4  A    between atoms: C_17  and  N_25
    5  A    between atoms: C_19  and  C_27
    6  A    between atoms: C_23  and  C_33
                            x       y       z     vdW  Elec       q    Type
                         _______ _______ _______ _____ _____    ______ ____

>  <TORSDO>
F 6

$$$$
=
 OpenBabel11042416263D

 38 42  0  0  1  0  0  0  0  0999 V2000
  192.8590  173.9050  143.6200 C   0  0  2  0  0  3  0  0  0  0  0  0
  189.4810  175.7820  145.2430 C   0  0  2  0  0  3  0  0  0  0  0  0
  187.8840  175.1120  142.5450 N   0  0  0  0  0  2  0  0  0  0  0  0
  192.1770  172.5820  143.3490 C   0  0  2  0  0  3  0  0  0  0  0  0
  188.8910  174.1040  140.4990 C   0  0  0  0  0  0  0  0  0  0  0  0
  187.6300  176.1140  140.4530 O   0  0  0  0  0  0  0  0  0  0  0  0
  188.0860  175.1550  141.1330 C   0  0  0  0  0  0  0  0  0  0  0  0
  190.3890  176.5150  144.4280 O   0  0  0  0  0  0  0  0  0  0  0  0
  189.8540  174.3120  145.4960 C   0  0  2  0  0  3  0  0  0  0  0  0
  187.3770  176.9210  145.5810 O   0  0  0  0  0  0  0  0  0  0  0  0
  188.0180  175.9400  144.8140 C   0  0  1  0  0  3  0  0  0  0  0  0
  188.9980  173.9970  139.1070 C   0  0  0  0  0  3  0  0  0  0  0  0
  190.4730  172.2980  140.7280 C   0  0  0  0  0  0  0  0  0  0  0  0
  194.1350  173.4710  144.3200 C   0  0  2  0  0  3  0  0  0  0  0  0
  192.8760  171.6180  144.2990 C   0  0  0  0  0  2  0  0  0  0  0  0
  191.9100  176.4810  142.5990 C   0  0  0  0  0  1  0  0  0  0  0  0
  191.1410  175.6430  143.6100 C   0  0  1  0  0  3  0  0  0  0  0  0
  186.2800  177.3460  144.8040 C   0  0  2  0  0  3  0  0  0  0  0  0
  193.8570  172.3010  145.0430 O   0  0  0  0  0  0  0  0  0  0  0  0
  187.8410  176.3080  143.3630 C   0  0  2  0  0  3  0  0  0  0  0  0
  186.4800  176.9300  143.3550 C   0  0  0  0  0  2  0  0  0  0  0  0
  189.6370  173.2470  141.3080 C   0  0  0  0  0  3  0  0  0  0  0  0
  189.8440  173.0280  138.5580 C   0  0  0  0  0  3  0  0  0  0  0  0
  191.3320  171.4570  141.6070 C   0  0  0  0  0  2  0  0  0  0  0  0
  192.0640  174.8470  144.4420 N   0  0  1  0  0  0  0  0  0  0  0  0
  189.2870  173.8750  146.6920 O   0  0  0  0  0  1  0  0  0  0  0  0
  190.5650  172.2100  139.3740 N   0  0  0  0  0  0  0  0  0  0  0  0
  192.4440  172.1960  142.0280 O   0  0  0  0  0  0  0  0  0  0  0  0
  191.3750  174.1870  145.5720 C   0  0  0  0  0  2  0  0  0  0  0  0
  194.6590  174.5070  145.2020 N   0  0  0  0  0  2  0  0  0  0  0  0
  196.0980  174.5580  145.0060 C   0  0  0  0  0  2  0  0  0  0  0  0
  196.7920  173.7490  146.0870 C   0  0  0  0  0  2  0  0  0  0  0  0
  196.9090  171.2610  146.1460 O   0  0  0  0  0  1  0  0  0  0  0  0
  197.9400  172.4340  144.4680 O   0  0  0  0  0  0  0  0  0  0  0  0
  197.2570  172.4540  145.5250 C   0  0  0  0  0  0  0  0  0  0  0  0
  186.0840  178.8530  144.9270 C   0  0  0  0  0  2  0  0  0  0  0  0
  185.5660  179.3420  146.6060 S   0  0  0  0  0  0  0  0  0  0  0  0
  184.2180  178.1290  146.6150 C   0  0  0  0  0  1  0  0  0  0  0  0
  1 14  1  0  0  0  0
  1 25  1  0  0  0  0
  2  9  1  0  0  0  0
  3 20  1  0  0  0  0
  4  1  1  0  0  0  0
  4 15  1  0  0  0  0
  5  7  1  0  0  0  0
  5 22  1  0  0  0  0
  6  7  2  0  0  0  0
  7  3  1  0  0  0  0
  8  2  1  0  0  0  0
  9 29  1  0  0  0  0
  9 26  1  0  0  0  0
 11  2  1  0  0  0  0
 11 10  1  0  0  0  0
 12  5  2  0  0  0  0
 13 22  2  0  0  0  0
 13 24  1  0  0  0  0
 14 19  1  0  0  0  0
 14 30  1  0  0  0  0
 15 19  1  0  0  0  0
 16 17  1  0  0  0  0
 17  8  1  0  0  0  0
 17 25  1  0  0  0  0
 18 36  1  0  0  0  0
 18 10  1  0  0  0  0
 20 11  1  0  0  0  0
 21 20  1  0  0  0  0
 21 18  1  0  0  0  0
 23 12  1  0  0  0  0
 23 27  2  0  0  0  0
 24 28  1  0  0  0  0
 25 29  1  0  0  0  0
 27 13  1  0  0  0  0
 28  4  1  0  0  0  0
 31 30  1  0  0  0  0
 31 32  1  0  0  0  0
 34 35  2  0  0  0  0
 35 32  1  0  0  0  0
 35 33  1  0  0  0  0
 36 37  1  0  0  0  0
 37 38  1  0  0  0  0
M  END
>  <MODEL>
6

>  <REMARK>
 VINA RESULT:      -7.0      3.027      7.871
  Name = 
  6 active torsions:
  status: ('A' for Active; 'I' for Inactive)
    1  A    between atoms: C_11  and  C_19
    2  A    between atoms: C_11  and  N_25
    3  A    between atoms: S_14  and  C_33
    4  A    between atoms: C_17  and  N_25
    5  A    between atoms: C_19  and  C_27
    6  A    between atoms: C_23  and  C_33
                            x       y       z     vdW  Elec       q    Type
                         _______ _______ _______ _____ _____    ______ ____

>  <TORSDO>
F 6

$$$$
=
 OpenBabel11042416263D

 38 42  0  0  1  0  0  0  0  0999 V2000
  193.8030  173.5420  143.8120 C   0  0  2  0  0  3  0  0  0  0  0  0
  190.3060  175.7260  144.5680 C   0  0  2  0  0  3  0  0  0  0  0  0
  188.7720  173.9000  142.4250 N   0  0  0  0  0  2  0  0  0  0  0  0
  193.2050  172.1900  144.1290 C   0  0  2  0  0  3  0  0  0  0  0  0
  189.8520  172.1900  140.9670 C   0  0  0  0  0  0  0  0  0  0  0  0
  188.4730  173.9210  140.1100 O   0  0  0  0  0  0  0  0  0  0  0  0
  188.9810  173.3610  141.1200 C   0  0  0  0  0  0  0  0  0  0  0  0
  191.1730  176.1030  143.5040 O   0  0  0  0  0  0  0  0  0  0  0  0
  190.7660  174.5200  145.4030 C   0  0  2  0  0  3  0  0  0  0  0  0
  188.1340  176.7780  144.4390 O   0  0  0  0  0  0  0  0  0  0  0  0
  188.8390  175.6050  144.1390 C   0  0  1  0  0  3  0  0  0  0  0  0
  189.9760  171.5190  139.7440 C   0  0  0  0  0  3  0  0  0  0  0  0
  191.5400  170.7400  141.8980 C   0  0  0  0  0  0  0  0  0  0  0  0
  195.0980  173.5150  144.6040 C   0  0  2  0  0  3  0  0  0  0  0  0
  193.9540  171.7530  145.3820 C   0  0  0  0  0  2  0  0  0  0  0  0
  192.7080  175.3980  141.8270 C   0  0  0  0  0  1  0  0  0  0  0  0
  191.9830  175.0150  143.1090 C   0  0  1  0  0  3  0  0  0  0  0  0
  187.0200  176.7750  143.5760 C   0  0  2  0  0  3  0  0  0  0  0  0
  194.8860  172.7400  145.7540 O   0  0  0  0  0  0  0  0  0  0  0  0
  188.6500  175.3240  142.6700 C   0  0  2  0  0  3  0  0  0  0  0  0
  187.2550  175.8050  142.4300 C   0  0  0  0  0  2  0  0  0  0  0  0
  190.6430  171.7940  142.0450 C   0  0  0  0  0  3  0  0  0  0  0  0
  190.8830  170.4600  139.6340 C   0  0  0  0  0  3  0  0  0  0  0  0
  192.4420  170.3940  143.0310 C   0  0  0  0  0  2  0  0  0  0  0  0
  192.9460  174.6940  144.1810 N   0  0  1  0  0  0  0  0  0  0  0  0
  190.2180  174.5900  146.6830 O   0  0  0  0  0  1  0  0  0  0  0  0
  191.6470  170.1000  140.7020 N   0  0  0  0  0  0  0  0  0  0  0  0
  193.5040  171.3040  143.0850 O   0  0  0  0  0  0  0  0  0  0  0  0
  192.2910  174.5270  145.4950 C   0  0  0  0  0  2  0  0  0  0  0  0
  195.5520  174.8530  144.9640 N   0  0  0  0  0  2  0  0  0  0  0  0
  196.7600  175.1230  144.2020 C   0  0  0  0  0  2  0  0  0  0  0  0
  196.6020  176.4230  143.4360 C   0  0  0  0  0  2  0  0  0  0  0  0
  196.4420  174.8380  141.5210 O   0  0  0  0  0  1  0  0  0  0  0  0
  195.9310  177.0550  141.2410 O   0  0  0  0  0  0  0  0  0  0  0  0
  196.3170  176.1330  142.0060 C   0  0  0  0  0  0  0  0  0  0  0  0
  186.7320  178.1820  143.0640 C   0  0  0  0  0  2  0  0  0  0  0  0
  185.1280  178.8140  143.6600 S   0  0  0  0  0  0  0  0  0  0  0  0
  184.2600  178.1810  142.1990 C   0  0  0  0  0  1  0  0  0  0  0  0
  1  4  1  0  0  0  0
  1 25  1  0  0  0  0
  1 14  1  0  0  0  0
  2  9  1  0  0  0  0
  3 20  1  0  0  0  0
  4 15  1  0  0  0  0
  5  7  1  0  0  0  0
  5 22  1  0  0  0  0
  6  7  2  0  0  0  0
  7  3  1  0  0  0  0
  8  2  1  0  0  0  0
  9 29  1  0  0  0  0
  9 26  1  0  0  0  0
 11 10  1  0  0  0  0
 11  2  1  0  0  0  0
 12  5  2  0  0  0  0
 13 22  2  0  0  0  0
 13 24  1  0  0  0  0
 14 30  1  0  0  0  0
 14 19  1  0  0  0  0
 15 19  1  0  0  0  0
 16 17  1  0  0  0  0
 17  8  1  0  0  0  0
 17 25  1  0  0  0  0
 18 10  1  0  0  0  0
 20 11  1  0  0  0  0
 21 20  1  0  0  0  0
 21 18  1  0  0  0  0
 23 12  1  0  0  0  0
 23 27  2  0  0  0  0
 24 28  1  0  0  0  0
 25 29  1  0  0  0  0
 27 13  1  0  0  0  0
 28  4  1  0  0  0  0
 31 30  1  0  0  0  0
 32 31  1  0  0  0  0
 33 35  1  0  0  0  0
 34 35  2  0  0  0  0
 35 32  1  0  0  0  0
 36 18  1  0  0  0  0
 36 37  1  0  0  0  0
 38 37  1  0  0  0  0
M  END
>  <MODEL>
7

>  <REMARK>
 VINA RESULT:      -6.9      3.330      7.751
  Name = 
  6 active torsions:
  status: ('A' for Active; 'I' for Inactive)
    1  A    between atoms: C_11  and  C_19
    2  A    between atoms: C_11  and  N_25
    3  A    between atoms: S_14  and  C_33
    4  A    between atoms: C_17  and  N_25
    5  A    between atoms: C_19  and  C_27
    6  A    between atoms: C_23  and  C_33
                            x       y       z     vdW  Elec       q    Type
                         _______ _______ _______ _____ _____    ______ ____

>  <TORSDO>
F 6

$$$$
=
 OpenBabel11042416263D

 38 42  0  0  1  0  0  0  0  0999 V2000
  187.9810  175.3000  142.8890 C   0  0  2  0  0  3  0  0  0  0  0  0
  191.9160  176.2030  144.0190 C   0  0  2  0  0  3  0  0  0  0  0  0
  192.9630  174.0950  141.8410 N   0  0  0  0  0  2  0  0  0  0  0  0
  188.1710  175.6230  141.4240 C   0  0  2  0  0  3  0  0  0  0  0  0
  191.5060  172.5810  140.4990 C   0  0  0  0  0  0  0  0  0  0  0  0
  193.3410  171.7920  141.7810 O   0  0  0  0  0  0  0  0  0  0  0  0
  192.6610  172.7770  141.3830 C   0  0  0  0  0  0  0  0  0  0  0  0
  191.2270  175.1130  144.6230 O   0  0  0  0  0  0  0  0  0  0  0  0
  191.1110  177.0080  142.9870 C   0  0  2  0  0  3  0  0  0  0  0  0
  194.2970  176.1620  144.4290 O   0  0  0  0  0  0  0  0  0  0  0  0
  193.3070  175.8250  143.4970 C   0  0  1  0  0  3  0  0  0  0  0  0
  191.2470  171.3470  139.8890 C   0  0  0  0  0  3  0  0  0  0  0  0
  189.4500  173.4360  139.5720 C   0  0  0  0  0  0  0  0  0  0  0  0
  186.7010  176.0470  143.2210 C   0  0  2  0  0  3  0  0  0  0  0  0
  187.2840  176.8440  141.2100 C   0  0  0  0  0  2  0  0  0  0  0  0
  189.6200  173.3760  144.3710 C   0  0  0  0  0  1  0  0  0  0  0  0
  190.1630  174.6790  143.8010 C   0  0  1  0  0  3  0  0  0  0  0  0
  195.3980  175.3390  144.1180 C   0  0  2  0  0  3  0  0  0  0  0  0
  186.6480  177.1940  142.4160 O   0  0  0  0  0  0  0  0  0  0  0  0
  193.4640  174.3600  143.1760 C   0  0  2  0  0  3  0  0  0  0  0  0
  194.9460  174.1740  143.2530 C   0  0  0  0  0  2  0  0  0  0  0  0
  190.5970  173.6260  140.3370 C   0  0  0  0  0  3  0  0  0  0  0  0
  190.0870  171.1930  139.1240 C   0  0  0  0  0  3  0  0  0  0  0  0
  188.4470  174.5330  139.4880 C   0  0  0  0  0  2  0  0  0  0  0  0
  189.1100  175.7120  143.7590 N   0  0  1  0  0  0  0  0  0  0  0  0
  191.6090  178.3070  142.9000 O   0  0  0  0  0  1  0  0  0  0  0  0
  189.2150  172.2300  138.9880 N   0  0  0  0  0  0  0  0  0  0  0  0
  187.6760  174.5600  140.6570 O   0  0  0  0  0  0  0  0  0  0  0  0
  189.6450  177.0460  143.4150 C   0  0  0  0  0  2  0  0  0  0  0  0
  186.6220  176.4050  144.6320 N   0  0  0  0  0  2  0  0  0  0  0  0
  186.1530  177.7790  144.7070 C   0  0  0  0  0  2  0  0  0  0  0  0
  185.0680  177.8930  145.7620 C   0  0  0  0  0  2  0  0  0  0  0  0
  185.9410  179.4180  147.5280 O   0  0  0  0  0  0  0  0  0  0  0  0
  185.9450  177.1480  147.8460 O   0  0  0  0  0  1  0  0  0  0  0  0
  185.6850  178.1240  147.0950 C   0  0  0  0  0  0  0  0  0  0  0  0
  196.0830  174.8520  145.3910 C   0  0  0  0  0  2  0  0  0  0  0  0
  197.5190  173.7880  145.0330 S   0  0  0  0  0  0  0  0  0  0  0  0
  196.8170  172.4080  145.9760 C   0  0  0  0  0  1  0  0  0  0  0  0
  1 14  1  0  0  0  0
  1 25  1  0  0  0  0
  2  8  1  0  0  0  0
  3 20  1  0  0  0  0
  4  1  1  0  0  0  0
  5  7  1  0  0  0  0
  7  6  2  0  0  0  0
  7  3  1  0  0  0  0
  9 29  1  0  0  0  0
  9  2  1  0  0  0  0
 11  2  1  0  0  0  0
 11 10  1  0  0  0  0
 12  5  2  0  0  0  0
 13 22  2  0  0  0  0
 14 30  1  0  0  0  0
 15  4  1  0  0  0  0
 15 19  1  0  0  0  0
 17 16  1  0  0  0  0
 17  8  1  0  0  0  0
 18 10  1  0  0  0  0
 18 36  1  0  0  0  0
 19 14  1  0  0  0  0
 20 21  1  0  0  0  0
 20 11  1  0  0  0  0
 21 18  1  0  0  0  0
 22  5  1  0  0  0  0
 23 12  1  0  0  0  0
 24 13  1  0  0  0  0
 24 28  1  0  0  0  0
 25 17  1  0  0  0  0
 26  9  1  0  0  0  0
 27 23  2  0  0  0  0
 27 13  1  0  0  0  0
 28  4  1  0  0  0  0
 29 25  1  0  0  0  0
 30 31  1  0  0  0  0
 31 32  1  0  0  0  0
 32 35  1  0  0  0  0
 35 33  2  0  0  0  0
 35 34  1  0  0  0  0
 37 36  1  0  0  0  0
 37 38  1  0  0  0  0
M  END
>  <MODEL>
8

>  <REMARK>
 VINA RESULT:      -6.9      1.304      1.449
  Name = 
  6 active torsions:
  status: ('A' for Active; 'I' for Inactive)
    1  A    between atoms: C_11  and  C_19
    2  A    between atoms: C_11  and  N_25
    3  A    between atoms: S_14  and  C_33
    4  A    between atoms: C_17  and  N_25
    5  A    between atoms: C_19  and  C_27
    6  A    between atoms: C_23  and  C_33
                            x       y       z     vdW  Elec       q    Type
                         _______ _______ _______ _____ _____    ______ ____

>  <TORSDO>
F 6

$$$$
=
 OpenBabel11042416263D

 38 42  0  0  1  0  0  0  0  0999 V2000
  187.6410  177.4430  144.0100 C   0  0  2  0  0  3  0  0  0  0  0  0
  189.0770  174.4200  141.4860 C   0  0  2  0  0  3  0  0  0  0  0  0
  191.2590  173.6780  143.7140 N   0  0  0  0  0  2  0  0  0  0  0  0
  187.3690  176.5350  145.1890 C   0  0  2  0  0  3  0  0  0  0  0  0
  191.6550  174.9620  145.8150 C   0  0  0  0  0  0  0  0  0  0  0  0
  193.3940  174.4290  144.2890 O   0  0  0  0  0  0  0  0  0  0  0  0
  192.1730  174.3360  144.5920 C   0  0  0  0  0  0  0  0  0  0  0  0
  189.6630  175.7170  141.4610 O   0  0  0  0  0  0  0  0  0  0  0  0
  187.8960  174.2450  142.4540 C   0  0  2  0  0  3  0  0  0  0  0  0
  190.4210  172.7500  140.3700 O   0  0  0  0  0  0  0  0  0  0  0  0
  190.1070  173.2930  141.6230 C   0  0  1  0  0  3  0  0  0  0  0  0
  192.5100  175.4850  146.7930 C   0  0  0  0  0  3  0  0  0  0  0  0
  189.7670  175.7840  147.0700 C   0  0  0  0  0  0  0  0  0  0  0  0
  186.3480  178.2340  143.9080 C   0  0  2  0  0  3  0  0  0  0  0  0
  185.8520  176.5700  145.3250 C   0  0  0  0  0  2  0  0  0  0  0  0
  190.2410  177.6760  142.6820 C   0  0  0  0  0  1  0  0  0  0  0  0
  189.3990  176.4090  142.6640 C   0  0  1  0  0  3  0  0  0  0  0  0
  191.6830  172.1440  140.5310 C   0  0  2  0  0  3  0  0  0  0  0  0
  185.2990  177.4060  144.3360 O   0  0  0  0  0  0  0  0  0  0  0  0
  191.3990  173.7180  142.2720 C   0  0  2  0  0  3  0  0  0  0  0  0
  192.3580  172.6790  141.7830 C   0  0  0  0  0  2  0  0  0  0  0  0
  190.2770  175.1180  145.9600 C   0  0  0  0  0  3  0  0  0  0  0  0
  191.9620  176.1440  147.8980 C   0  0  0  0  0  3  0  0  0  0  0  0
  188.3000  176.0220  147.1600 C   0  0  0  0  0  2  0  0  0  0  0  0
  187.9620  176.7330  142.7490 N   0  0  1  0  0  0  0  0  0  0  0  0
  187.0660  173.2150  142.0130 O   0  0  0  0  0  1  0  0  0  0  0  0
  190.6120  176.2860  148.0090 N   0  0  0  0  0  0  0  0  0  0  0  0
  187.9440  177.0980  146.3370 O   0  0  0  0  0  0  0  0  0  0  0  0
  187.1040  175.5500  142.5200 C   0  0  0  0  0  2  0  0  0  0  0  0
  186.1020  178.7160  142.5540 N   0  0  0  0  0  2  0  0  0  0  0  0
  184.6960  178.4940  142.2620 C   0  0  0  0  0  2  0  0  0  0  0  0
  184.5090  178.2910  140.7690 C   0  0  0  0  0  2  0  0  0  0  0  0
  182.0760  178.3970  141.2920 O   0  0  0  0  0  1  0  0  0  0  0  0
  182.8260  177.1920  139.4930 O   0  0  0  0  0  0  0  0  0  0  0  0
  183.0990  177.9170  140.4850 C   0  0  0  0  0  0  0  0  0  0  0  0
  192.5480  172.3660  139.2950 C   0  0  0  0  0  2  0  0  0  0  0  0
  191.9820  173.7910  138.3090 S   0  0  0  0  0  0  0  0  0  0  0  0
  193.5070  173.8030  137.3280 C   0  0  0  0  0  1  0  0  0  0  0  0
  1  4  1  0  0  0  0
  2 11  1  0  0  0  0
  2  9  1  0  0  0  0
  3  7  1  0  0  0  0
  4 15  1  0  0  0  0
  4 28  1  0  0  0  0
  5 22  2  0  0  0  0
  5 12  1  0  0  0  0
  6  7  2  0  0  0  0
  7  5  1  0  0  0  0
  8  2  1  0  0  0  0
  8 17  1  0  0  0  0
  9 29  1  0  0  0  0
 10 18  1  0  0  0  0
 10 11  1  0  0  0  0
 11 20  1  0  0  0  0
 12 23  2  0  0  0  0
 13 24  1  0  0  0  0
 13 27  2  0  0  0  0
 14  1  1  0  0  0  0
 14 19  1  0  0  0  0
 17 16  1  0  0  0  0
 17 25  1  0  0  0  0
 18 21  1  0  0  0  0
 19 15  1  0  0  0  0
 20  3  1  0  0  0  0
 21 20  1  0  0  0  0
 22 13  1  0  0  0  0
 23 27  1  0  0  0  0
 25  1  1  0  0  0  0
 26  9  1  0  0  0  0
 28 24  1  0  0  0  0
 29 25  1  0  0  0  0
 30 14  1  0  0  0  0
 31 30  1  0  0  0  0
 32 31  1  0  0  0  0
 34 35  2  0  0  0  0
 35 32  1  0  0  0  0
 35 33  1  0  0  0  0
 36 18  1  0  0  0  0
 37 36  1  0  0  0  0
 38 37  1  0  0  0  0
M  END
>  <MODEL>
9

>  <REMARK>
 VINA RESULT:      -6.8      2.948      5.530
  Name = 
  6 active torsions:
  status: ('A' for Active; 'I' for Inactive)
    1  A    between atoms: C_11  and  C_19
    2  A    between atoms: C_11  and  N_25
    3  A    between atoms: S_14  and  C_33
    4  A    between atoms: C_17  and  N_25
    5  A    between atoms: C_19  and  C_27
    6  A    between atoms: C_23  and  C_33
                            x       y       z     vdW  Elec       q    Type
                         _______ _______ _______ _____ _____    ______ ____

>  <TORSDO>
F 6

$$$$
