=
 OpenBabel11042419023D

 43 49  0  0  1  0  0  0  0  0999 V2000
  184.6670  178.5860  147.1600 C   0  0  0  0  0  2  0  0  0  0  0  0
  190.0890  175.9410  144.5620 C   0  0  1  0  0  3  0  0  0  0  0  0
  188.1940  177.2420  143.8190 C   0  0  0  0  0  0  0  0  0  0  0  0
  188.7570  176.4930  144.9370 C   0  0  0  0  0  0  0  0  0  0  0  0
  187.1300  178.2110  147.3380 C   0  0  0  0  0  3  0  0  0  0  0  0
  186.0620  178.9720  147.6020 C   0  0  0  0  0  0  0  0  0  0  0  0
  190.2950  176.3360  143.0950 C   0  0  2  0  0  3  0  0  0  0  0  0
  184.5560  177.1690  146.5640 C   0  0  0  0  0  2  0  0  0  0  0  0
  186.9750  176.8670  146.6920 C   0  0  1  0  0  3  0  0  0  0  0  0
  185.9260  177.7450  144.6400 N   0  0  0  0  0  2  0  0  0  0  0  0
  185.7900  176.7990  145.7420 C   0  0  2  0  0  3  0  0  0  0  0  0
  186.9930  177.8110  143.6910 C   0  0  0  0  0  3  0  0  0  0  0  0
  188.2490  176.3060  146.1570 C   0  0  0  0  0  3  0  0  0  0  0  0
  186.2460  180.1860  148.2490 O   0  0  0  0  0  1  0  0  0  0  0  0
  189.1720  177.3030  142.7100 C   0  0  0  0  0  2  0  0  0  0  0  0
  190.2680  175.0960  142.2000 C   0  0  2  0  0  3  0  0  0  0  0  0
  189.0940  175.0610  141.4420 O   0  0  0  0  0  1  0  0  0  0  0  0
  190.3850  173.8700  142.9880 N   0  0  0  0  0  2  0  0  0  0  0  0
  191.6590  172.0680  144.1090 C   0  0  0  0  0  3  0  0  0  0  0  0
  194.0230  171.8710  143.6950 C   0  0  0  0  0  0  0  0  0  0  0  0
  192.7860  173.5960  142.6280 C   0  0  0  0  0  3  0  0  0  0  0  0
  193.9580  172.9470  142.8640 N   0  0  0  0  0  0  0  0  0  0  0  0
  192.8710  171.4150  144.3390 C   0  0  0  0  0  3  0  0  0  0  0  0
  191.6080  173.1700  143.2460 C   0  0  0  0  0  0  0  0  0  0  0  0
  195.3300  171.2100  143.9530 C   0  0  0  0  0  2  0  0  0  0  0  0
  197.8980  170.3910  145.1520 C   0  0  0  0  0  2  0  0  0  0  0  0
  196.9130  171.3920  145.7070 C   0  0  1  0  0  3  0  0  0  0  0  0
  195.5210  171.0450  145.3880 N   0  0  0  0  0  0  0  0  0  0  0  0
  196.5110  169.9730  145.5930 C   0  0  1  0  0  0  0  0  0  0  0  0
  197.4110  168.4020  147.1690 O   0  0  0  0  0  1  0  0  0  0  0  0
  195.0870  168.8520  147.3160 C   0  0  0  0  0  1  0  0  0  0  0  0
  196.4630  169.4160  147.0150 C   0  0  2  0  0  3  0  0  0  0  0  0
  191.1390  176.5540  145.3660 N   0  0  0  0  0  2  0  0  0  0  0  0
  194.8320  176.1640  144.8390 C   0  0  0  0  0  0  0  0  0  0  0  0
  192.7290  174.9100  146.2140 C   0  0  0  0  0  3  0  0  0  0  0  0
  194.0250  174.3970  146.3020 C   0  0  0  0  0  3  0  0  0  0  0  0
  195.0710  175.0200  145.6170 C   0  0  0  0  0  3  0  0  0  0  0  0
  193.5300  176.6690  144.7590 C   0  0  0  0  0  3  0  0  0  0  0  0
  192.4740  176.0460  145.4420 C   0  0  0  0  0  0  0  0  0  0  0  0
  195.8450  176.8310  144.1260 O   0  0  0  0  0  0  0  0  0  0  0  0
  196.4330  176.4480  142.9090 C   0  0  0  0  0  3  0  0  0  0  0  0
  196.5070  176.0890  140.5560 N   0  0  0  0  0  1  0  0  0  0  0  0
  195.8210  176.5000  141.7310 C   0  0  0  0  0  3  0  0  0  0  0  0
  1  6  1  0  0  0  0
  2  4  1  0  0  0  0
  2 33  1  1  0  0  0
  3  4  1  0  0  0  0
  4 13  2  0  0  0  0
  5  6  2  0  0  0  0
  6 14  1  0  0  0  0
  7 16  1  6  0  0  0
  7  2  1  0  0  0  0
  8  1  1  0  0  0  0
  9 13  1  6  0  0  0
  9  5  1  0  0  0  0
 10 11  1  0  0  0  0
 11  8  1  1  0  0  0
 11  9  1  0  0  0  0
 12  3  2  0  0  0  0
 12 10  1  0  0  0  0
 15  7  1  0  0  0  0
 15  3  1  0  0  0  0
 16 17  1  1  0  0  0
 16 18  1  0  0  0  0
 18 24  1  0  0  0  0
 19 23  1  0  0  0  0
 20 25  1  0  0  0  0
 20 23  2  0  0  0  0
 21 22  2  0  0  0  0
 21 24  1  0  0  0  0
 22 20  1  0  0  0  0
 24 19  2  0  0  0  0
 25 28  1  0  0  0  0
 26 29  1  0  0  0  0
 27 26  1  6  0  0  0
 28 29  1  0  0  0  0
 28 27  1  0  0  0  0
 29 27  1  0  0  0  0
 29 32  1  1  0  0  0
 32 30  1  0  0  0  0
 32 31  1  6  0  0  0
 33 39  1  0  0  0  0
 34 37  1  0  0  0  0
 35 36  1  0  0  0  0
 37 36  2  0  0  0  0
 38 34  2  0  0  0  0
 38 39  1  0  0  0  0
 39 35  2  0  0  0  0
 40 34  1  0  0  0  0
 41 40  1  0  0  0  0
 42 43  1  0  0  0  0
 43 41  2  0  0  0  0
M  END
>  <MODEL>
1

>  <REMARK>
 VINA RESULT:      -8.2      0.000      0.000
  Name = 
  10 active torsions:
  status: ('A' for Active; 'I' for Inactive)
    1  A    between atoms: C_3  and  N_15
    2  A    between atoms: C_3  and  C_21
    3  A    between atoms: C_7  and  O_14
    4  A    between atoms: C_8  and  C_40
    5  A    between atoms: N_9  and  C_12
    6  A    between atoms: N_9  and  C_41
    7  A    between atoms: C_11  and  O_14
    8  A    between atoms: N_15  and  C_36
    9  A    between atoms: C_22  and  C_43
   10  A    between atoms: N_28  and  C_43
                            x       y       z     vdW  Elec       q    Type
                         _______ _______ _______ _____ _____    ______ ____

>  <TORSDO>
F 10

$$$$
=
 OpenBabel11042419023D

 43 49  0  0  1  0  0  0  0  0999 V2000
  197.8230  169.7140  144.8010 C   0  0  0  0  0  2  0  0  0  0  0  0
  193.3010  174.4750  144.6130 C   0  0  1  0  0  3  0  0  0  0  0  0
  195.6750  174.2700  145.0100 C   0  0  0  0  0  0  0  0  0  0  0  0
  194.4320  173.5290  144.8270 C   0  0  0  0  0  0  0  0  0  0  0  0
  195.8840  170.7420  143.6080 C   0  0  0  0  0  3  0  0  0  0  0  0
  197.0180  170.0340  143.5600 C   0  0  0  0  0  0  0  0  0  0  0  0
  193.9100  175.8750  144.7450 C   0  0  2  0  0  3  0  0  0  0  0  0
  197.1320  170.0980  146.1250 C   0  0  0  0  0  2  0  0  0  0  0  0
  195.2890  171.1510  144.9210 C   0  0  1  0  0  3  0  0  0  0  0  0
  197.2450  172.4750  145.6310 N   0  0  0  0  0  2  0  0  0  0  0  0
  196.3360  171.3960  145.9970 C   0  0  2  0  0  3  0  0  0  0  0  0
  196.8940  173.8260  145.3240 C   0  0  0  0  0  3  0  0  0  0  0  0
  194.2430  172.2080  144.8050 C   0  0  0  0  0  3  0  0  0  0  0  0
  197.5060  169.6300  142.3250 O   0  0  0  0  0  1  0  0  0  0  0  0
  195.4330  175.7170  144.8170 C   0  0  0  0  0  2  0  0  0  0  0  0
  193.3830  176.5700  146.0020 C   0  0  2  0  0  3  0  0  0  0  0  0
  194.4180  176.7930  146.9140 O   0  0  0  0  0  1  0  0  0  0  0  0
  192.3250  175.7860  146.6360 N   0  0  0  0  0  2  0  0  0  0  0  0
  190.4360  177.1880  145.8630 C   0  0  0  0  0  3  0  0  0  0  0  0
  188.1840  176.5100  146.3800 C   0  0  0  0  0  0  0  0  0  0  0  0
  190.0070  175.1760  147.1160 C   0  0  0  0  0  3  0  0  0  0  0  0
  188.6710  175.4190  147.0320 N   0  0  0  0  0  0  0  0  0  0  0  0
  189.0620  177.4200  145.7870 C   0  0  0  0  0  3  0  0  0  0  0  0
  190.9210  176.0570  146.5310 C   0  0  0  0  0  0  0  0  0  0  0  0
  186.7180  176.7570  146.3390 C   0  0  0  0  0  2  0  0  0  0  0  0
  184.1190  178.1350  146.5610 C   0  0  0  0  0  2  0  0  0  0  0  0
  185.4900  178.7670  146.6010 C   0  0  1  0  0  3  0  0  0  0  0  0
  186.4580  178.0630  145.7480 N   0  0  0  0  0  0  0  0  0  0  0  0
  185.0380  178.1080  145.3570 C   0  0  1  0  0  0  0  0  0  0  0  0
  183.4840  179.0670  143.8000 O   0  0  0  0  0  1  0  0  0  0  0  0
  185.7820  179.1920  143.2300 C   0  0  0  0  0  1  0  0  0  0  0  0
  184.7580  179.2210  144.3490 C   0  0  2  0  0  3  0  0  0  0  0  0
  192.7590  174.3240  143.2670 N   0  0  0  0  0  2  0  0  0  0  0  0
  189.0220  174.3090  142.9450 C   0  0  0  0  0  0  0  0  0  0  0  0
  191.2090  172.5990  142.5140 C   0  0  0  0  0  3  0  0  0  0  0  0
  189.9120  172.1560  142.2440 C   0  0  0  0  0  3  0  0  0  0  0  0
  188.8240  173.0060  142.4590 C   0  0  0  0  0  3  0  0  0  0  0  0
  190.3270  174.7410  143.2100 C   0  0  0  0  0  3  0  0  0  0  0  0
  191.4230  173.8910  142.9990 C   0  0  0  0  0  0  0  0  0  0  0  0
  187.9670  175.2060  143.1830 O   0  0  0  0  0  0  0  0  0  0  0  0
  187.1850  175.8840  142.2320 C   0  0  0  0  0  3  0  0  0  0  0  0
  186.7970  177.1920  140.2800 N   0  0  0  0  0  1  0  0  0  0  0  0
  187.6770  176.5380  141.1860 C   0  0  0  0  0  3  0  0  0  0  0  0
  1  8  1  0  0  0  0
  2 33  1  6  0  0  0
  2  7  1  0  0  0  0
  2  4  1  0  0  0  0
  3 12  2  0  0  0  0
  4  3  1  0  0  0  0
  6  5  2  0  0  0  0
  6  1  1  0  0  0  0
  7 15  1  0  0  0  0
  7 16  1  1  0  0  0
  9  5  1  6  0  0  0
  9 11  1  0  0  0  0
 10 11  1  0  0  0  0
 11  8  1  6  0  0  0
 12 10  1  0  0  0  0
 13  4  2  0  0  0  0
 13  9  1  0  0  0  0
 14  6  1  0  0  0  0
 15  3  1  0  0  0  0
 16 18  1  0  0  0  0
 16 17  1  1  0  0  0
 19 24  1  0  0  0  0
 20 22  2  0  0  0  0
 22 21  1  0  0  0  0
 23 19  2  0  0  0  0
 23 20  1  0  0  0  0
 24 18  1  0  0  0  0
 24 21  2  0  0  0  0
 25 20  1  0  0  0  0
 27 26  1  1  0  0  0
 28 25  1  0  0  0  0
 28 27  1  0  0  0  0
 29 32  1  6  0  0  0
 29 28  1  0  0  0  0
 29 26  1  0  0  0  0
 29 27  1  0  0  0  0
 30 32  1  0  0  0  0
 32 31  1  6  0  0  0
 34 40  1  0  0  0  0
 34 38  1  0  0  0  0
 35 39  1  0  0  0  0
 36 37  1  0  0  0  0
 36 35  2  0  0  0  0
 37 34  2  0  0  0  0
 39 38  2  0  0  0  0
 39 33  1  0  0  0  0
 41 40  1  0  0  0  0
 42 43  1  0  0  0  0
 43 41  2  0  0  0  0
M  END
>  <MODEL>
2

>  <REMARK>
 VINA RESULT:      -8.0      2.113     10.078
  Name = 
  10 active torsions:
  status: ('A' for Active; 'I' for Inactive)
    1  A    between atoms: C_3  and  N_15
    2  A    between atoms: C_3  and  C_21
    3  A    between atoms: C_7  and  O_14
    4  A    between atoms: C_8  and  C_40
    5  A    between atoms: N_9  and  C_12
    6  A    between atoms: N_9  and  C_41
    7  A    between atoms: C_11  and  O_14
    8  A    between atoms: N_15  and  C_36
    9  A    between atoms: C_22  and  C_43
   10  A    between atoms: N_28  and  C_43
                            x       y       z     vdW  Elec       q    Type
                         _______ _______ _______ _____ _____    ______ ____

>  <TORSDO>
F 10

$$$$
=
 OpenBabel11042419023D

 43 49  0  0  1  0  0  0  0  0999 V2000
  185.7160  176.8480  145.9620 C   0  0  0  0  0  2  0  0  0  0  0  0
  192.2000  176.7830  144.9110 C   0  0  1  0  0  3  0  0  0  0  0  0
  190.5330  175.3620  145.9290 C   0  0  0  0  0  0  0  0  0  0  0  0
  190.7810  176.6790  145.3530 C   0  0  0  0  0  0  0  0  0  0  0  0
  187.6030  177.2110  144.3660 C   0  0  0  0  0  3  0  0  0  0  0  0
  186.3240  176.8800  144.5770 C   0  0  0  0  0  0  0  0  0  0  0  0
  192.8520  175.4560  145.3160 C   0  0  2  0  0  3  0  0  0  0  0  0
  186.6270  177.4140  147.0710 C   0  0  0  0  0  2  0  0  0  0  0  0
  188.4680  177.6910  145.4920 C   0  0  1  0  0  3  0  0  0  0  0  0
  188.2480  175.6200  146.8150 N   0  0  0  0  0  2  0  0  0  0  0  0
  188.0960  177.0710  146.8300 C   0  0  2  0  0  3  0  0  0  0  0  0
  189.4410  174.8860  146.5310 C   0  0  0  0  0  3  0  0  0  0  0  0
  189.9250  177.6870  145.1760 C   0  0  0  0  0  3  0  0  0  0  0  0
  185.5440  176.4910  143.4960 O   0  0  0  0  0  1  0  0  0  0  0  0
  191.7390  174.5150  145.7920 C   0  0  0  0  0  2  0  0  0  0  0  0
  193.8760  175.6830  146.4300 C   0  0  2  0  0  3  0  0  0  0  0  0
  193.9600  177.0390  146.7540 O   0  0  0  0  0  1  0  0  0  0  0  0
  195.1950  175.1820  146.0460 N   0  0  0  0  0  2  0  0  0  0  0  0
  195.9850  176.5710  144.1540 C   0  0  0  0  0  3  0  0  0  0  0  0
  196.9240  175.4900  142.2190 C   0  0  0  0  0  0  0  0  0  0  0  0
  196.1600  174.1710  144.0420 C   0  0  0  0  0  3  0  0  0  0  0  0
  196.7140  174.2790  142.8040 N   0  0  0  0  0  0  0  0  0  0  0  0
  196.5550  176.6610  142.8840 C   0  0  0  0  0  3  0  0  0  0  0  0
  195.7820  175.3170  144.7460 C   0  0  0  0  0  0  0  0  0  0  0  0
  197.5020  175.5630  140.8510 C   0  0  0  0  0  2  0  0  0  0  0  0
  196.8650  175.1700  137.9970 C   0  0  0  0  0  2  0  0  0  0  0  0
  197.8630  174.3930  138.8220 C   0  0  1  0  0  3  0  0  0  0  0  0
  197.4430  174.2500  140.2230 N   0  0  0  0  0  0  0  0  0  0  0  0
  196.4260  174.3010  139.1580 C   0  0  1  0  0  0  0  0  0  0  0  0
  194.6950  172.9690  138.1640 O   0  0  0  0  0  1  0  0  0  0  0  0
  195.9160  171.9820  139.9410 C   0  0  0  0  0  1  0  0  0  0  0  0
  195.9660  172.9070  138.7390 C   0  0  2  0  0  3  0  0  0  0  0  0
  192.2720  176.9180  143.4610 N   0  0  0  0  0  2  0  0  0  0  0  0
  190.7360  174.2220  141.3530 C   0  0  0  0  0  0  0  0  0  0  0  0
  193.2710  175.2560  141.9820 C   0  0  0  0  0  3  0  0  0  0  0  0
  193.1550  174.1820  141.0960 C   0  0  0  0  0  3  0  0  0  0  0  0
  191.8950  173.6670  140.7850 C   0  0  0  0  0  3  0  0  0  0  0  0
  190.8660  175.2980  142.2380 C   0  0  0  0  0  3  0  0  0  0  0  0
  192.1300  175.8180  142.5580 C   0  0  0  0  0  0  0  0  0  0  0  0
  189.4430  173.7430  141.0780 O   0  0  0  0  0  0  0  0  0  0  0  0
  188.5760  174.1530  140.0510 C   0  0  0  0  0  3  0  0  0  0  0  0
  187.8860  174.4690  137.7940 N   0  0  0  0  0  1  0  0  0  0  0  0
  188.8340  174.0210  138.7550 C   0  0  0  0  0  3  0  0  0  0  0  0
  1  8  1  0  0  0  0
  2 33  1  6  0  0  0
  2  7  1  0  0  0  0
  2  4  1  0  0  0  0
  3 12  2  0  0  0  0
  4  3  1  0  0  0  0
  5  6  2  0  0  0  0
  6  1  1  0  0  0  0
  7 15  1  0  0  0  0
  7 16  1  1  0  0  0
  9  5  1  6  0  0  0
  9 11  1  0  0  0  0
 10 11  1  0  0  0  0
 11  8  1  6  0  0  0
 12 10  1  0  0  0  0
 13  4  2  0  0  0  0
 13  9  1  0  0  0  0
 14  6  1  0  0  0  0
 15  3  1  0  0  0  0
 16 17  1  6  0  0  0
 18 16  1  0  0  0  0
 19 24  1  0  0  0  0
 20 22  2  0  0  0  0
 20 23  1  0  0  0  0
 21 24  2  0  0  0  0
 22 21  1  0  0  0  0
 23 19  2  0  0  0  0
 24 18  1  0  0  0  0
 25 20  1  0  0  0  0
 26 29  1  0  0  0  0
 27 26  1  1  0  0  0
 27 29  1  0  0  0  0
 27 28  1  0  0  0  0
 28 25  1  0  0  0  0
 29 32  1  6  0  0  0
 29 28  1  0  0  0  0
 30 32  1  0  0  0  0
 32 31  1  1  0  0  0
 34 38  1  0  0  0  0
 35 39  1  0  0  0  0
 36 35  2  0  0  0  0
 37 36  1  0  0  0  0
 37 34  2  0  0  0  0
 38 39  2  0  0  0  0
 39 33  1  0  0  0  0
 40 34  1  0  0  0  0
 41 40  1  0  0  0  0
 42 43  1  0  0  0  0
 43 41  2  0  0  0  0
M  END
>  <MODEL>
3

>  <REMARK>
 VINA RESULT:      -7.6      3.076      5.718
  Name = 
  10 active torsions:
  status: ('A' for Active; 'I' for Inactive)
    1  A    between atoms: C_3  and  N_15
    2  A    between atoms: C_3  and  C_21
    3  A    between atoms: C_7  and  O_14
    4  A    between atoms: C_8  and  C_40
    5  A    between atoms: N_9  and  C_12
    6  A    between atoms: N_9  and  C_41
    7  A    between atoms: C_11  and  O_14
    8  A    between atoms: N_15  and  C_36
    9  A    between atoms: C_22  and  C_43
   10  A    between atoms: N_28  and  C_43
                            x       y       z     vdW  Elec       q    Type
                         _______ _______ _______ _____ _____    ______ ____

>  <TORSDO>
F 10

$$$$
=
 OpenBabel11042419023D

 43 49  0  0  1  0  0  0  0  0999 V2000
  184.0540  179.0340  143.6060 C   0  0  0  0  0  2  0  0  0  0  0  0
  189.8970  176.5720  145.3250 C   0  0  1  0  0  3  0  0  0  0  0  0
  187.6000  176.4200  146.0570 C   0  0  0  0  0  0  0  0  0  0  0  0
  188.5210  177.1230  145.1710 C   0  0  0  0  0  0  0  0  0  0  0  0
  186.1950  177.9710  142.8820 C   0  0  0  0  0  3  0  0  0  0  0  0
  184.8890  178.1790  142.6790 C   0  0  0  0  0  0  0  0  0  0  0  0
  189.7910  175.5150  146.4280 C   0  0  2  0  0  3  0  0  0  0  0  0
  184.8640  179.7940  144.6760 C   0  0  0  0  0  2  0  0  0  0  0  0
  186.9240  178.6830  143.9820 C   0  0  1  0  0  3  0  0  0  0  0  0
  185.5360  177.7410  145.7910 N   0  0  0  0  0  2  0  0  0  0  0  0
  186.0430  178.9690  145.1890 C   0  0  2  0  0  3  0  0  0  0  0  0
  186.3100  176.6560  146.3080 C   0  0  0  0  0  3  0  0  0  0  0  0
  188.2590  178.0980  144.2980 C   0  0  0  0  0  3  0  0  0  0  0  0
  184.2660  177.5400  141.6160 O   0  0  0  0  0  1  0  0  0  0  0  0
  188.3050  175.3150  146.7440 C   0  0  0  0  0  2  0  0  0  0  0  0
  190.5490  175.9690  147.6770 C   0  0  2  0  0  3  0  0  0  0  0  0
  190.7170  177.3560  147.6740 O   0  0  0  0  0  1  0  0  0  0  0  0
  191.8510  175.3120  147.7750 N   0  0  0  0  0  2  0  0  0  0  0  0
  193.4430  174.3820  146.1210 C   0  0  0  0  0  3  0  0  0  0  0  0
  195.0160  175.8580  145.0520 C   0  0  0  0  0  0  0  0  0  0  0  0
  193.4830  176.7340  146.6410 C   0  0  0  0  0  3  0  0  0  0  0  0
  194.5080  176.9020  145.7630 N   0  0  0  0  0  0  0  0  0  0  0  0
  194.4940  174.5750  145.2240 C   0  0  0  0  0  3  0  0  0  0  0  0
  192.9260  175.4680  146.8400 C   0  0  0  0  0  0  0  0  0  0  0  0
  196.1590  176.0780  144.1260 C   0  0  0  0  0  2  0  0  0  0  0  0
  196.0550  176.7910  141.2650 C   0  0  0  0  0  2  0  0  0  0  0  0
  196.8150  175.6450  141.8900 C   0  0  1  0  0  3  0  0  0  0  0  0
  196.1230  175.0860  143.0600 N   0  0  0  0  0  0  0  0  0  0  0  0
  195.3370  175.6450  141.9460 C   0  0  1  0  0  0  0  0  0  0  0  0
  193.6220  174.9040  140.4390 O   0  0  0  0  0  1  0  0  0  0  0  0
  194.7330  173.2310  141.7000 C   0  0  0  0  0  1  0  0  0  0  0  0
  194.8630  174.5600  140.9800 C   0  0  2  0  0  3  0  0  0  0  0  0
  190.3250  175.9230  144.0910 N   0  0  0  0  0  2  0  0  0  0  0  0
  188.6920  173.0870  142.2580 C   0  0  0  0  0  0  0  0  0  0  0  0
  190.3950  173.5120  144.4510 C   0  0  0  0  0  3  0  0  0  0  0  0
  190.0190  172.2130  144.1000 C   0  0  0  0  0  3  0  0  0  0  0  0
  189.1710  172.0020  143.0100 C   0  0  0  0  0  3  0  0  0  0  0  0
  189.0770  174.3830  142.6190 C   0  0  0  0  0  3  0  0  0  0  0  0
  189.9260  174.6020  143.7150 C   0  0  0  0  0  0  0  0  0  0  0  0
  187.8350  172.9350  141.1540 O   0  0  0  0  0  0  0  0  0  0  0  0
  188.1900  172.8570  139.7960 C   0  0  0  0  0  3  0  0  0  0  0  0
  188.6260  173.7120  137.6170 N   0  0  0  0  0  1  0  0  0  0  0  0
  188.2550  173.8990  138.9770 C   0  0  0  0  0  3  0  0  0  0  0  0
  1  8  1  0  0  0  0
  2 33  1  6  0  0  0
  2  7  1  0  0  0  0
  3 12  2  0  0  0  0
  3 15  1  0  0  0  0
  4  2  1  0  0  0  0
  4  3  1  0  0  0  0
  6  5  2  0  0  0  0
  6  1  1  0  0  0  0
  7 15  1  0  0  0  0
  7 16  1  1  0  0  0
  9  5  1  6  0  0  0
  9 13  1  0  0  0  0
  9 11  1  0  0  0  0
 10 12  1  0  0  0  0
 11  8  1  6  0  0  0
 11 10  1  0  0  0  0
 13  4  2  0  0  0  0
 14  6  1  0  0  0  0
 16 17  1  6  0  0  0
 16 18  1  0  0  0  0
 19 24  1  0  0  0  0
 20 23  1  0  0  0  0
 20 22  2  0  0  0  0
 21 24  2  0  0  0  0
 22 21  1  0  0  0  0
 23 19  2  0  0  0  0
 24 18  1  0  0  0  0
 25 20  1  0  0  0  0
 26 29  1  0  0  0  0
 27 26  1  1  0  0  0
 27 29  1  0  0  0  0
 27 28  1  0  0  0  0
 28 25  1  0  0  0  0
 29 32  1  6  0  0  0
 29 28  1  0  0  0  0
 30 32  1  0  0  0  0
 32 31  1  1  0  0  0
 34 38  2  0  0  0  0
 34 37  1  0  0  0  0
 36 35  1  0  0  0  0
 37 36  2  0  0  0  0
 38 39  1  0  0  0  0
 39 33  1  0  0  0  0
 39 35  2  0  0  0  0
 40 34  1  0  0  0  0
 41 40  1  0  0  0  0
 42 43  1  0  0  0  0
 43 41  2  0  0  0  0
M  END
>  <MODEL>
4

>  <REMARK>
 VINA RESULT:      -7.5      3.143      5.570
  Name = 
  10 active torsions:
  status: ('A' for Active; 'I' for Inactive)
    1  A    between atoms: C_3  and  N_15
    2  A    between atoms: C_3  and  C_21
    3  A    between atoms: C_7  and  O_14
    4  A    between atoms: C_8  and  C_40
    5  A    between atoms: N_9  and  C_12
    6  A    between atoms: N_9  and  C_41
    7  A    between atoms: C_11  and  O_14
    8  A    between atoms: N_15  and  C_36
    9  A    between atoms: C_22  and  C_43
   10  A    between atoms: N_28  and  C_43
                            x       y       z     vdW  Elec       q    Type
                         _______ _______ _______ _____ _____    ______ ____

>  <TORSDO>
F 10

$$$$
=
 OpenBabel11042419023D

 43 49  0  0  1  0  0  0  0  0999 V2000
  196.0700  172.7720  139.4560 C   0  0  0  0  0  2  0  0  0  0  0  0
  192.5550  175.6310  144.2130 C   0  0  1  0  0  3  0  0  0  0  0  0
  194.8720  175.1270  143.7490 C   0  0  0  0  0  0  0  0  0  0  0  0
  193.4970  174.9090  143.3120 C   0  0  0  0  0  0  0  0  0  0  0  0
  194.2610  174.3810  140.0720 C   0  0  0  0  0  3  0  0  0  0  0  0
  195.2270  174.0070  139.2250 C   0  0  0  0  0  0  0  0  0  0  0  0
  193.4340  176.2660  145.2970 C   0  0  2  0  0  3  0  0  0  0  0  0
  195.5970  171.8870  140.6260 C   0  0  0  0  0  2  0  0  0  0  0  0
  193.8850  173.5160  141.2370 C   0  0  1  0  0  3  0  0  0  0  0  0
  196.1190  173.5920  142.2790 N   0  0  0  0  0  2  0  0  0  0  0  0
  195.0570  172.7210  141.7880 C   0  0  2  0  0  3  0  0  0  0  0  0
  196.0070  174.5920  143.2940 C   0  0  0  0  0  3  0  0  0  0  0  0
  193.0560  174.2140  142.2620 C   0  0  0  0  0  3  0  0  0  0  0  0
  195.5070  174.8120  138.1290 O   0  0  0  0  0  1  0  0  0  0  0  0
  194.8970  176.0820  144.8800 C   0  0  0  0  0  2  0  0  0  0  0  0
  193.1730  175.6020  146.6500 C   0  0  2  0  0  3  0  0  0  0  0  0
  192.7710  174.2750  146.4800 O   0  0  0  0  0  1  0  0  0  0  0  0
  192.1620  176.3330  147.4120 N   0  0  0  0  0  2  0  0  0  0  0  0
  189.9630  175.2270  147.1410 C   0  0  0  0  0  3  0  0  0  0  0  0
  188.0630  176.5460  146.4700 C   0  0  0  0  0  0  0  0  0  0  0  0
  190.1810  177.5910  146.7340 C   0  0  0  0  0  3  0  0  0  0  0  0
  188.8560  177.6510  146.4270 N   0  0  0  0  0  0  0  0  0  0  0  0
  188.6060  175.3100  146.8240 C   0  0  0  0  0  3  0  0  0  0  0  0
  190.7640  176.3760  147.0990 C   0  0  0  0  0  0  0  0  0  0  0  0
  186.6280  176.6480  146.0960 C   0  0  0  0  0  2  0  0  0  0  0  0
  184.1120  178.0320  146.7740 C   0  0  0  0  0  2  0  0  0  0  0  0
  185.4930  178.6390  146.6990 C   0  0  1  0  0  3  0  0  0  0  0  0
  186.3280  178.0080  145.6680 N   0  0  0  0  0  0  0  0  0  0  0  0
  184.8720  178.1090  145.4650 C   0  0  1  0  0  0  0  0  0  0  0  0
  183.4360  178.9980  143.7600 O   0  0  0  0  0  1  0  0  0  0  0  0
  185.6810  179.7610  143.7730 C   0  0  0  0  0  1  0  0  0  0  0  0
  184.4970  179.3180  144.6110 C   0  0  2  0  0  3  0  0  0  0  0  0
  191.8680  176.6910  143.4840 N   0  0  0  0  0  2  0  0  0  0  0  0
  188.4900  175.3670  142.5360 C   0  0  0  0  0  0  0  0  0  0  0  0
  189.7550  177.8240  143.0390 C   0  0  0  0  0  3  0  0  0  0  0  0
  188.4010  177.7920  142.6970 C   0  0  0  0  0  3  0  0  0  0  0  0
  187.7720  176.5710  142.4450 C   0  0  0  0  0  3  0  0  0  0  0  0
  189.8450  175.4110  142.8810 C   0  0  0  0  0  3  0  0  0  0  0  0
  190.4830  176.6360  143.1310 C   0  0  0  0  0  0  0  0  0  0  0  0
  187.9100  174.1100  142.2910 O   0  0  0  0  0  0  0  0  0  0  0  0
  188.3300  173.1350  141.3700 C   0  0  0  0  0  3  0  0  0  0  0  0
  188.8340  172.2670  139.2110 N   0  0  0  0  0  1  0  0  0  0  0  0
  188.3930  173.3210  140.0570 C   0  0  0  0  0  3  0  0  0  0  0  0
  1  8  1  0  0  0  0
  2 33  1  6  0  0  0
  2  7  1  0  0  0  0
  3 15  1  0  0  0  0
  4  3  1  0  0  0  0
  4  2  1  0  0  0  0
  6  1  1  0  0  0  0
  6  5  2  0  0  0  0
  7 16  1  1  0  0  0
  9  5  1  6  0  0  0
  9 11  1  0  0  0  0
  9 13  1  0  0  0  0
 10 12  1  0  0  0  0
 11  8  1  6  0  0  0
 11 10  1  0  0  0  0
 12  3  2  0  0  0  0
 13  4  2  0  0  0  0
 14  6  1  0  0  0  0
 15  7  1  0  0  0  0
 16 17  1  6  0  0  0
 16 18  1  0  0  0  0
 20 23  1  0  0  0  0
 21 24  2  0  0  0  0
 22 20  2  0  0  0  0
 22 21  1  0  0  0  0
 23 19  2  0  0  0  0
 24 19  1  0  0  0  0
 24 18  1  0  0  0  0
 25 20  1  0  0  0  0
 27 26  1  1  0  0  0
 28 25  1  0  0  0  0
 28 27  1  0  0  0  0
 29 32  1  6  0  0  0
 29 28  1  0  0  0  0
 29 27  1  0  0  0  0
 29 26  1  0  0  0  0
 30 32  1  0  0  0  0
 32 31  1  6  0  0  0
 34 38  1  0  0  0  0
 35 39  1  0  0  0  0
 36 35  2  0  0  0  0
 37 34  2  0  0  0  0
 37 36  1  0  0  0  0
 38 39  2  0  0  0  0
 39 33  1  0  0  0  0
 40 34  1  0  0  0  0
 41 40  1  0  0  0  0
 42 43  1  0  0  0  0
 43 41  2  0  0  0  0
M  END
>  <MODEL>
5

>  <REMARK>
 VINA RESULT:      -7.4      2.989      9.725
  Name = 
  10 active torsions:
  status: ('A' for Active; 'I' for Inactive)
    1  A    between atoms: C_3  and  N_15
    2  A    between atoms: C_3  and  C_21
    3  A    between atoms: C_7  and  O_14
    4  A    between atoms: C_8  and  C_40
    5  A    between atoms: N_9  and  C_12
    6  A    between atoms: N_9  and  C_41
    7  A    between atoms: C_11  and  O_14
    8  A    between atoms: N_15  and  C_36
    9  A    between atoms: C_22  and  C_43
   10  A    between atoms: N_28  and  C_43
                            x       y       z     vdW  Elec       q    Type
                         _______ _______ _______ _____ _____    ______ ____

>  <TORSDO>
F 10

$$$$
=
 OpenBabel11042419023D

 43 49  0  0  1  0  0  0  0  0999 V2000
  184.0090  178.8700  144.0060 C   0  0  0  0  0  2  0  0  0  0  0  0
  190.0370  176.6320  145.3540 C   0  0  1  0  0  3  0  0  0  0  0  0
  187.7760  176.2800  146.1300 C   0  0  0  0  0  0  0  0  0  0  0  0
  188.6270  177.1090  145.2840 C   0  0  0  0  0  0  0  0  0  0  0  0
  186.1850  178.0030  143.1380 C   0  0  0  0  0  3  0  0  0  0  0  0
  184.8640  178.1480  142.9870 C   0  0  0  0  0  0  0  0  0  0  0  0
  190.0270  175.4810  146.3650 C   0  0  2  0  0  3  0  0  0  0  0  0
  184.8070  179.5850  145.1150 C   0  0  0  0  0  2  0  0  0  0  0  0
  186.9050  178.6640  144.2750 C   0  0  1  0  0  3  0  0  0  0  0  0
  185.6320  177.4910  146.0330 N   0  0  0  0  0  2  0  0  0  0  0  0
  186.0480  178.7930  145.5240 C   0  0  2  0  0  3  0  0  0  0  0  0
  186.4840  176.4150  146.4350 C   0  0  0  0  0  3  0  0  0  0  0  0
  188.2810  178.1360  144.5040 C   0  0  0  0  0  3  0  0  0  0  0  0
  184.2460  177.5630  141.8910 O   0  0  0  0  0  1  0  0  0  0  0  0
  188.5660  175.1660  146.7020 C   0  0  0  0  0  2  0  0  0  0  0  0
  190.7960  175.8740  147.6280 C   0  0  2  0  0  3  0  0  0  0  0  0
  190.8640  177.2650  147.7510 O   0  0  0  0  0  1  0  0  0  0  0  0
  192.1450  175.3100  147.6240 N   0  0  0  0  0  2  0  0  0  0  0  0
  193.5320  174.5190  145.7320 C   0  0  0  0  0  3  0  0  0  0  0  0
  195.0510  176.0550  144.6680 C   0  0  0  0  0  0  0  0  0  0  0  0
  193.7140  176.7990  146.4860 C   0  0  0  0  0  3  0  0  0  0  0  0
  194.6550  177.0310  145.5310 N   0  0  0  0  0  0  0  0  0  0  0  0
  194.4980  174.7760  144.7580 C   0  0  0  0  0  3  0  0  0  0  0  0
  193.1300  175.5350  146.6080 C   0  0  0  0  0  0  0  0  0  0  0  0
  196.1060  176.3400  143.6600 C   0  0  0  0  0  2  0  0  0  0  0  0
  196.8050  176.0300  140.8110 C   0  0  0  0  0  2  0  0  0  0  0  0
  197.5130  175.4120  141.9940 C   0  0  1  0  0  3  0  0  0  0  0  0
  196.5920  175.0900  143.0920 N   0  0  0  0  0  0  0  0  0  0  0  0
  196.1200  175.0110  141.6980 C   0  0  1  0  0  0  0  0  0  0  0  0
  195.0320  173.3010  140.4130 O   0  0  0  0  0  1  0  0  0  0  0  0
  196.2900  172.5880  142.2920 C   0  0  0  0  0  1  0  0  0  0  0  0
  196.1820  173.5860  141.1540 C   0  0  2  0  0  3  0  0  0  0  0  0
  190.4630  176.1160  144.0580 N   0  0  0  0  0  2  0  0  0  0  0  0
  190.3170  172.4900  143.1090 C   0  0  0  0  0  0  0  0  0  0  0  0
  188.7810  174.8270  142.8500 C   0  0  0  0  0  3  0  0  0  0  0  0
  188.3170  173.6240  142.3140 C   0  0  0  0  0  3  0  0  0  0  0  0
  189.0820  172.4620  142.4410 C   0  0  0  0  0  3  0  0  0  0  0  0
  190.7700  173.7010  143.6440 C   0  0  0  0  0  3  0  0  0  0  0  0
  190.0080  174.8730  143.5160 C   0  0  0  0  0  0  0  0  0  0  0  0
  191.1290  171.3530  143.2650 O   0  0  0  0  0  0  0  0  0  0  0  0
  192.0960  171.1180  144.2570 C   0  0  0  0  0  3  0  0  0  0  0  0
  194.2920  170.7440  145.0990 N   0  0  0  0  0  1  0  0  0  0  0  0
  193.3950  170.9780  144.0210 C   0  0  0  0  0  3  0  0  0  0  0  0
  1  8  1  0  0  0  0
  2 33  1  6  0  0  0
  2  7  1  0  0  0  0
  3 12  2  0  0  0  0
  3 15  1  0  0  0  0
  4  2  1  0  0  0  0
  4  3  1  0  0  0  0
  6  5  2  0  0  0  0
  6  1  1  0  0  0  0
  7 15  1  0  0  0  0
  7 16  1  1  0  0  0
  9  5  1  6  0  0  0
  9 13  1  0  0  0  0
  9 11  1  0  0  0  0
 10 12  1  0  0  0  0
 11  8  1  6  0  0  0
 11 10  1  0  0  0  0
 13  4  2  0  0  0  0
 14  6  1  0  0  0  0
 16 17  1  6  0  0  0
 18 16  1  0  0  0  0
 19 24  1  0  0  0  0
 20 23  1  0  0  0  0
 20 22  2  0  0  0  0
 21 24  2  0  0  0  0
 22 21  1  0  0  0  0
 23 19  2  0  0  0  0
 24 18  1  0  0  0  0
 25 20  1  0  0  0  0
 26 29  1  0  0  0  0
 27 26  1  1  0  0  0
 27 28  1  0  0  0  0
 28 25  1  0  0  0  0
 29 32  1  6  0  0  0
 29 27  1  0  0  0  0
 29 28  1  0  0  0  0
 30 32  1  0  0  0  0
 32 31  1  1  0  0  0
 34 40  1  0  0  0  0
 34 38  1  0  0  0  0
 35 39  1  0  0  0  0
 36 37  1  0  0  0  0
 36 35  2  0  0  0  0
 37 34  2  0  0  0  0
 39 38  2  0  0  0  0
 39 33  1  0  0  0  0
 40 41  1  0  0  0  0
 43 41  2  0  0  0  0
 43 42  1  0  0  0  0
M  END
>  <MODEL>
6

>  <REMARK>
 VINA RESULT:      -7.3      2.677      5.145
  Name = 
  10 active torsions:
  status: ('A' for Active; 'I' for Inactive)
    1  A    between atoms: C_3  and  N_15
    2  A    between atoms: C_3  and  C_21
    3  A    between atoms: C_7  and  O_14
    4  A    between atoms: C_8  and  C_40
    5  A    between atoms: N_9  and  C_12
    6  A    between atoms: N_9  and  C_41
    7  A    between atoms: C_11  and  O_14
    8  A    between atoms: N_15  and  C_36
    9  A    between atoms: C_22  and  C_43
   10  A    between atoms: N_28  and  C_43
                            x       y       z     vdW  Elec       q    Type
                         _______ _______ _______ _____ _____    ______ ____

>  <TORSDO>
F 10

$$$$
=
 OpenBabel11042419023D

 43 49  0  0  1  0  0  0  0  0999 V2000
  191.8270  172.7440  140.3800 C   0  0  0  0  0  2  0  0  0  0  0  0
  192.9970  176.7760  145.4330 C   0  0  1  0  0  3  0  0  0  0  0  0
  191.9980  174.6080  145.0600 C   0  0  0  0  0  0  0  0  0  0  0  0
  192.5330  175.7980  144.4080 C   0  0  0  0  0  0  0  0  0  0  0  0
  193.4440  174.2350  141.5640 C   0  0  0  0  0  3  0  0  0  0  0  0
  193.2210  173.1720  140.7830 C   0  0  0  0  0  0  0  0  0  0  0  0
  192.6490  176.1440  146.7850 C   0  0  2  0  0  3  0  0  0  0  0  0
  190.7160  173.7380  140.7740 C   0  0  0  0  0  2  0  0  0  0  0  0
  192.3170  175.1330  141.9780 C   0  0  1  0  0  3  0  0  0  0  0  0
  191.0630  173.3630  143.1510 N   0  0  0  0  0  2  0  0  0  0  0  0
  190.9950  174.3970  142.1240 C   0  0  2  0  0  3  0  0  0  0  0  0
  191.3930  173.5430  144.5300 C   0  0  0  0  0  3  0  0  0  0  0  0
  192.6590  176.0490  143.1040 C   0  0  0  0  0  3  0  0  0  0  0  0
  194.3000  172.3970  140.3800 O   0  0  0  0  0  1  0  0  0  0  0  0
  192.1860  174.7070  146.5250 C   0  0  0  0  0  2  0  0  0  0  0  0
  191.5470  176.9460  147.4810 C   0  0  2  0  0  3  0  0  0  0  0  0
  191.9400  177.3060  148.7730 O   0  0  0  0  0  1  0  0  0  0  0  0
  190.2970  176.1900  147.5350 N   0  0  0  0  0  2  0  0  0  0  0  0
  189.2090  177.0820  145.4970 C   0  0  0  0  0  3  0  0  0  0  0  0
  186.8100  176.9940  145.3150 C   0  0  0  0  0  0  0  0  0  0  0  0
  187.8690  176.1440  147.2650 C   0  0  0  0  0  3  0  0  0  0  0  0
  186.7470  176.4110  146.5430 N   0  0  0  0  0  0  0  0  0  0  0  0
  188.0470  177.3460  144.7710 C   0  0  0  0  0  3  0  0  0  0  0  0
  189.1280  176.4740  146.7560 C   0  0  0  0  0  0  0  0  0  0  0  0
  185.5580  177.2990  144.5730 C   0  0  0  0  0  2  0  0  0  0  0  0
  183.5130  178.6690  142.9480 C   0  0  0  0  0  2  0  0  0  0  0  0
  184.9100  179.1550  143.2490 C   0  0  1  0  0  3  0  0  0  0  0  0
  185.8740  178.0510  143.3660 N   0  0  0  0  0  0  0  0  0  0  0  0
  184.7330  177.9280  142.4420 C   0  0  1  0  0  0  0  0  0  0  0  0
  184.0790  177.9600  140.1330 O   0  0  0  0  0  1  0  0  0  0  0  0
  186.3670  177.5350  140.5910 C   0  0  0  0  0  1  0  0  0  0  0  0
  185.1170  178.2880  141.0090 C   0  0  2  0  0  3  0  0  0  0  0  0
  194.4420  176.9490  145.3520 N   0  0  0  0  0  2  0  0  0  0  0  0
  196.9470  174.6980  143.7000 C   0  0  0  0  0  0  0  0  0  0  0  0
  195.5500  174.9190  146.1270 C   0  0  0  0  0  3  0  0  0  0  0  0
  196.4380  173.8590  145.9250 C   0  0  0  0  0  3  0  0  0  0  0  0
  197.1310  173.7480  144.7180 C   0  0  0  0  0  3  0  0  0  0  0  0
  196.0570  175.7560  143.9140 C   0  0  0  0  0  3  0  0  0  0  0  0
  195.3540  175.8710  145.1230 C   0  0  0  0  0  0  0  0  0  0  0  0
  197.6150  174.6350  142.4640 O   0  0  0  0  0  0  0  0  0  0  0  0
  197.0450  174.5470  141.1830 C   0  0  0  0  0  3  0  0  0  0  0  0
  196.5490  175.2880  138.9750 N   0  0  0  0  0  1  0  0  0  0  0  0
  197.1660  175.4760  140.2420 C   0  0  0  0  0  3  0  0  0  0  0  0
  1  8  1  0  0  0  0
  1  6  1  0  0  0  0
  2 33  1  1  0  0  0
  2  7  1  0  0  0  0
  3 15  1  0  0  0  0
  4  3  1  0  0  0  0
  4  2  1  0  0  0  0
  6  5  2  0  0  0  0
  7 16  1  6  0  0  0
  9  5  1  1  0  0  0
  9 11  1  0  0  0  0
  9 13  1  0  0  0  0
 10 12  1  0  0  0  0
 11  8  1  6  0  0  0
 11 10  1  0  0  0  0
 12  3  2  0  0  0  0
 13  4  2  0  0  0  0
 14  6  1  0  0  0  0
 15  7  1  0  0  0  0
 16 18  1  0  0  0  0
 16 17  1  1  0  0  0
 19 24  1  0  0  0  0
 20 22  2  0  0  0  0
 22 21  1  0  0  0  0
 23 20  1  0  0  0  0
 23 19  2  0  0  0  0
 24 21  2  0  0  0  0
 24 18  1  0  0  0  0
 25 20  1  0  0  0  0
 27 26  1  1  0  0  0
 27 28  1  0  0  0  0
 28 25  1  0  0  0  0
 29 32  1  6  0  0  0
 29 26  1  0  0  0  0
 29 27  1  0  0  0  0
 29 28  1  0  0  0  0
 30 32  1  0  0  0  0
 32 31  1  6  0  0  0
 34 38  2  0  0  0  0
 34 37  1  0  0  0  0
 36 35  1  0  0  0  0
 37 36  2  0  0  0  0
 38 39  1  0  0  0  0
 39 33  1  0  0  0  0
 39 35  2  0  0  0  0
 40 34  1  0  0  0  0
 41 40  1  0  0  0  0
 42 43  1  0  0  0  0
 43 41  2  0  0  0  0
M  END
>  <MODEL>
7

>  <REMARK>
 VINA RESULT:      -7.1      2.969      8.647
  Name = 
  10 active torsions:
  status: ('A' for Active; 'I' for Inactive)
    1  A    between atoms: C_3  and  N_15
    2  A    between atoms: C_3  and  C_21
    3  A    between atoms: C_7  and  O_14
    4  A    between atoms: C_8  and  C_40
    5  A    between atoms: N_9  and  C_12
    6  A    between atoms: N_9  and  C_41
    7  A    between atoms: C_11  and  O_14
    8  A    between atoms: N_15  and  C_36
    9  A    between atoms: C_22  and  C_43
   10  A    between atoms: N_28  and  C_43
                            x       y       z     vdW  Elec       q    Type
                         _______ _______ _______ _____ _____    ______ ____

>  <TORSDO>
F 10

$$$$
=
 OpenBabel11042419023D

 43 49  0  0  1  0  0  0  0  0999 V2000
  188.7690  172.2070  140.9160 C   0  0  0  0  0  2  0  0  0  0  0  0
  193.0330  176.1590  143.9760 C   0  0  1  0  0  3  0  0  0  0  0  0
  191.8810  174.0810  144.4120 C   0  0  0  0  0  0  0  0  0  0  0  0
  191.9790  175.2170  143.5030 C   0  0  0  0  0  0  0  0  0  0  0  0
  190.8630  173.5630  140.7860 C   0  0  0  0  0  3  0  0  0  0  0  0
  190.1430  172.5170  140.3640 C   0  0  0  0  0  0  0  0  0  0  0  0
  193.5450  175.5690  145.2940 C   0  0  2  0  0  3  0  0  0  0  0  0
  188.1960  173.2950  141.8470 C   0  0  0  0  0  2  0  0  0  0  0  0
  190.2830  174.5570  141.7470 C   0  0  1  0  0  3  0  0  0  0  0  0
  189.8970  172.9070  143.5400 N   0  0  0  0  0  2  0  0  0  0  0  0
  189.2820  173.9360  142.7100 C   0  0  2  0  0  3  0  0  0  0  0  0
  191.0120  173.0670  144.4210 C   0  0  0  0  0  3  0  0  0  0  0  0
  191.2980  175.4480  142.3780 C   0  0  0  0  0  3  0  0  0  0  0  0
  190.7000  171.6510  139.4330 O   0  0  0  0  0  1  0  0  0  0  0  0
  192.9300  174.1740  145.4520 C   0  0  0  0  0  2  0  0  0  0  0  0
  193.1500  176.4650  146.4700 C   0  0  2  0  0  3  0  0  0  0  0  0
  194.2630  176.7560  147.2640 O   0  0  0  0  0  1  0  0  0  0  0  0
  192.1080  175.8430  147.2840 N   0  0  0  0  0  2  0  0  0  0  0  0
  189.7700  175.0260  147.3200 C   0  0  0  0  0  3  0  0  0  0  0  0
  187.9860  176.5550  146.7930 C   0  0  0  0  0  0  0  0  0  0  0  0
  190.2350  177.3230  146.7620 C   0  0  0  0  0  3  0  0  0  0  0  0
  188.9020  177.5440  146.6020 N   0  0  0  0  0  0  0  0  0  0  0  0
  188.4070  175.2730  147.1510 C   0  0  0  0  0  3  0  0  0  0  0  0
  190.7000  176.0570  147.1260 C   0  0  0  0  0  0  0  0  0  0  0  0
  186.5410  176.8300  146.5760 C   0  0  0  0  0  2  0  0  0  0  0  0
  184.0460  178.3890  146.3680 C   0  0  0  0  0  2  0  0  0  0  0  0
  185.4580  178.9200  146.3070 C   0  0  1  0  0  3  0  0  0  0  0  0
  186.3880  177.9690  145.6820 N   0  0  0  0  0  0  0  0  0  0  0  0
  184.9830  178.0130  145.2390 C   0  0  1  0  0  0  0  0  0  0  0  0
  183.8590  178.2900  143.1370 O   0  0  0  0  0  1  0  0  0  0  0  0
  186.1210  178.9960  143.2410 C   0  0  0  0  0  1  0  0  0  0  0  0
  184.8050  178.8680  143.9870 C   0  0  2  0  0  3  0  0  0  0  0  0
  194.1350  176.2080  143.0230 N   0  0  0  0  0  2  0  0  0  0  0  0
  196.6210  173.3990  143.0150 C   0  0  0  0  0  0  0  0  0  0  0  0
  194.5770  174.4450  141.3970 C   0  0  0  0  0  3  0  0  0  0  0  0
  195.2900  173.3180  140.9810 C   0  0  0  0  0  3  0  0  0  0  0  0
  196.3070  172.7980  141.7850 C   0  0  0  0  0  3  0  0  0  0  0  0
  195.8990  174.5260  143.4220 C   0  0  0  0  0  3  0  0  0  0  0  0
  194.8780  175.0550  142.6160 C   0  0  0  0  0  0  0  0  0  0  0  0
  197.6350  172.9210  143.8630 O   0  0  0  0  0  0  0  0  0  0  0  0
  197.6070  171.7730  144.6730 C   0  0  0  0  0  3  0  0  0  0  0  0
  196.7990  170.3720  146.4220 N   0  0  0  0  0  1  0  0  0  0  0  0
  196.7430  171.5720  145.6610 C   0  0  0  0  0  3  0  0  0  0  0  0
  1  8  1  0  0  0  0
  2 33  1  6  0  0  0
  2  7  1  0  0  0  0
  3 12  2  0  0  0  0
  3 15  1  0  0  0  0
  4  2  1  0  0  0  0
  4  3  1  0  0  0  0
  6  5  2  0  0  0  0
  6  1  1  0  0  0  0
  7 15  1  0  0  0  0
  7 16  1  1  0  0  0
  9  5  1  1  0  0  0
  9 13  1  0  0  0  0
  9 11  1  0  0  0  0
 10 12  1  0  0  0  0
 11  8  1  6  0  0  0
 11 10  1  0  0  0  0
 13  4  2  0  0  0  0
 14  6  1  0  0  0  0
 16 17  1  1  0  0  0
 16 18  1  0  0  0  0
 20 23  2  0  0  0  0
 21 24  1  0  0  0  0
 22 21  2  0  0  0  0
 22 20  1  0  0  0  0
 23 19  1  0  0  0  0
 24 18  1  0  0  0  0
 24 19  2  0  0  0  0
 25 20  1  0  0  0  0
 27 26  1  1  0  0  0
 28 27  1  0  0  0  0
 28 25  1  0  0  0  0
 29 32  1  6  0  0  0
 29 28  1  0  0  0  0
 29 27  1  0  0  0  0
 29 26  1  0  0  0  0
 30 32  1  0  0  0  0
 32 31  1  6  0  0  0
 34 38  1  0  0  0  0
 34 40  1  0  0  0  0
 35 39  1  0  0  0  0
 36 35  2  0  0  0  0
 36 37  1  0  0  0  0
 37 34  2  0  0  0  0
 39 33  1  0  0  0  0
 39 38  2  0  0  0  0
 40 41  1  0  0  0  0
 41 43  2  0  0  0  0
 43 42  1  0  0  0  0
M  END
>  <MODEL>
8

>  <REMARK>
 VINA RESULT:      -7.1      2.372      8.433
  Name = 
  10 active torsions:
  status: ('A' for Active; 'I' for Inactive)
    1  A    between atoms: C_3  and  N_15
    2  A    between atoms: C_3  and  C_21
    3  A    between atoms: C_7  and  O_14
    4  A    between atoms: C_8  and  C_40
    5  A    between atoms: N_9  and  C_12
    6  A    between atoms: N_9  and  C_41
    7  A    between atoms: C_11  and  O_14
    8  A    between atoms: N_15  and  C_36
    9  A    between atoms: C_22  and  C_43
   10  A    between atoms: N_28  and  C_43
                            x       y       z     vdW  Elec       q    Type
                         _______ _______ _______ _____ _____    ______ ____

>  <TORSDO>
F 10

$$$$
=
 OpenBabel11042419023D

 43 49  0  0  1  0  0  0  0  0999 V2000
  190.1360  171.7050  139.4040 C   0  0  0  0  0  2  0  0  0  0  0  0
  193.6450  175.3150  143.6240 C   0  0  1  0  0  3  0  0  0  0  0  0
  191.7740  173.7880  143.6920 C   0  0  0  0  0  0  0  0  0  0  0  0
  192.6620  174.5410  142.8130 C   0  0  0  0  0  0  0  0  0  0  0  0
  192.3890  172.4420  140.1900 C   0  0  0  0  0  3  0  0  0  0  0  0
  191.6220  171.5110  139.6130 C   0  0  0  0  0  0  0  0  0  0  0  0
  193.2650  175.0520  145.0850 C   0  0  2  0  0  3  0  0  0  0  0  0
  189.6270  173.1240  139.7260 C   0  0  0  0  0  2  0  0  0  0  0  0
  191.8280  173.7850  140.5490 C   0  0  1  0  0  3  0  0  0  0  0  0
  190.1260  172.8900  142.0940 N   0  0  0  0  0  2  0  0  0  0  0  0
  190.3560  173.7310  140.9250 C   0  0  2  0  0  3  0  0  0  0  0  0
  190.7010  173.0510  143.3930 C   0  0  0  0  0  3  0  0  0  0  0  0
  192.6900  174.5690  141.4790 C   0  0  0  0  0  3  0  0  0  0  0  0
  192.1950  170.3000  139.2490 O   0  0  0  0  0  1  0  0  0  0  0  0
  192.2000  173.9500  145.1000 C   0  0  0  0  0  2  0  0  0  0  0  0
  192.7260  176.3280  145.7340 C   0  0  2  0  0  3  0  0  0  0  0  0
  193.5150  176.6970  146.8270 O   0  0  0  0  0  1  0  0  0  0  0  0
  191.3380  176.1600  146.1600 N   0  0  0  0  0  2  0  0  0  0  0  0
  190.2180  177.5780  144.4670 C   0  0  0  0  0  3  0  0  0  0  0  0
  187.9110  177.1540  143.9230 C   0  0  0  0  0  0  0  0  0  0  0  0
  188.9990  175.8030  145.5460 C   0  0  0  0  0  3  0  0  0  0  0  0
  187.8950  176.1330  144.8230 N   0  0  0  0  0  0  0  0  0  0  0  0
  189.0750  177.9010  143.7340 C   0  0  0  0  0  3  0  0  0  0  0  0
  190.1880  176.5200  145.3840 C   0  0  0  0  0  0  0  0  0  0  0  0
  186.6730  177.5040  143.1760 C   0  0  0  0  0  2  0  0  0  0  0  0
  185.5360  180.0550  144.1270 C   0  0  0  0  0  2  0  0  0  0  0  0
  184.7800  178.7920  143.7880 C   0  0  1  0  0  3  0  0  0  0  0  0
  185.5490  177.5780  144.0990 N   0  0  0  0  0  0  0  0  0  0  0  0
  185.7220  178.7830  144.9290 C   0  0  1  0  0  0  0  0  0  0  0  0
  185.5200  179.3930  147.2420 O   0  0  0  0  0  1  0  0  0  0  0  0
  184.6230  177.2910  146.6080 C   0  0  0  0  0  1  0  0  0  0  0  0
  184.8710  178.7300  146.1970 C   0  0  2  0  0  3  0  0  0  0  0  0
  194.9960  174.8200  143.3930 N   0  0  0  0  0  2  0  0  0  0  0  0
  196.1580  171.5560  144.8320 C   0  0  0  0  0  0  0  0  0  0  0  0
  196.4060  174.3120  145.3170 C   0  0  0  0  0  3  0  0  0  0  0  0
  197.0450  173.3950  146.1550 C   0  0  0  0  0  3  0  0  0  0  0  0
  196.9210  172.0250  145.9140 C   0  0  0  0  0  3  0  0  0  0  0  0
  195.5230  172.4850  144.0000 C   0  0  0  0  0  3  0  0  0  0  0  0
  195.6410  173.8630  144.2380 C   0  0  0  0  0  0  0  0  0  0  0  0
  195.9950  170.1900  144.5440 O   0  0  0  0  0  0  0  0  0  0  0  0
  194.7910  169.4840  144.3790 C   0  0  0  0  0  3  0  0  0  0  0  0
  192.9340  168.1720  145.0840 N   0  0  0  0  0  1  0  0  0  0  0  0
  194.1490  168.8580  145.3570 C   0  0  0  0  0  3  0  0  0  0  0  0
  1  6  1  0  0  0  0
  1  8  1  0  0  0  0
  2 33  1  1  0  0  0
  2  7  1  0  0  0  0
  3 15  1  0  0  0  0
  4  2  1  0  0  0  0
  4  3  1  0  0  0  0
  6  5  2  0  0  0  0
  7 15  1  0  0  0  0
  7 16  1  6  0  0  0
  9  5  1  1  0  0  0
  9 11  1  0  0  0  0
  9 13  1  0  0  0  0
 10 12  1  0  0  0  0
 11  8  1  6  0  0  0
 11 10  1  0  0  0  0
 12  3  2  0  0  0  0
 13  4  2  0  0  0  0
 14  6  1  0  0  0  0
 16 18  1  0  0  0  0
 16 17  1  1  0  0  0
 19 24  1  0  0  0  0
 20 22  2  0  0  0  0
 22 21  1  0  0  0  0
 23 20  1  0  0  0  0
 23 19  2  0  0  0  0
 24 21  2  0  0  0  0
 24 18  1  0  0  0  0
 25 20  1  0  0  0  0
 25 28  1  0  0  0  0
 26 29  1  0  0  0  0
 27 28  1  0  0  0  0
 27 26  1  6  0  0  0
 27 29  1  0  0  0  0
 28 29  1  0  0  0  0
 29 32  1  1  0  0  0
 32 31  1  1  0  0  0
 32 30  1  0  0  0  0
 33 39  1  0  0  0  0
 34 37  1  0  0  0  0
 35 36  1  0  0  0  0
 37 36  2  0  0  0  0
 38 39  1  0  0  0  0
 38 34  2  0  0  0  0
 39 35  2  0  0  0  0
 40 34  1  0  0  0  0
 41 40  1  0  0  0  0
 41 43  2  0  0  0  0
 42 43  1  0  0  0  0
M  END
>  <MODEL>
9

>  <REMARK>
 VINA RESULT:      -7.1      2.224      8.836
  Name = 
  10 active torsions:
  status: ('A' for Active; 'I' for Inactive)
    1  A    between atoms: C_3  and  N_15
    2  A    between atoms: C_3  and  C_21
    3  A    between atoms: C_7  and  O_14
    4  A    between atoms: C_8  and  C_40
    5  A    between atoms: N_9  and  C_12
    6  A    between atoms: N_9  and  C_41
    7  A    between atoms: C_11  and  O_14
    8  A    between atoms: N_15  and  C_36
    9  A    between atoms: C_22  and  C_43
   10  A    between atoms: N_28  and  C_43
                            x       y       z     vdW  Elec       q    Type
                         _______ _______ _______ _____ _____    ______ ____

>  <TORSDO>
F 10

$$$$
