=
 OpenBabel11042418483D

 60 65  0  0  1  0  0  0  0  0999 V2000
  190.2190  177.5490  144.1340 C   0  0  0  0  0  0  0  0  0  0  0  0
  188.3680  178.0650  142.8460 N   0  0  0  0  0  0  0  0  0  0  0  0
  188.0090  177.7950  144.0580 C   0  0  0  0  0  0  0  0  0  0  0  0
  189.1410  177.4790  144.9000 C   0  0  0  0  0  0  0  0  0  0  0  0
  186.6620  177.9200  144.5290 N   0  0  0  0  0  2  0  0  0  0  0  0
  189.8180  177.9140  142.7430 C   0  0  0  0  0  2  0  0  0  0  0  0
  184.4220  178.6220  144.0750 C   0  0  0  0  0  0  0  0  0  0  0  0
  185.5520  178.1080  143.6870 N   0  0  0  0  0  0  0  0  0  0  0  0
  181.0010  179.2660  142.5780 C   0  0  0  0  0  3  0  0  0  0  0  0
  183.3170  178.7140  143.0880 C   0  0  0  0  0  0  0  0  0  0  0  0
  182.4230  178.3380  140.8570 C   0  0  0  0  0  3  0  0  0  0  0  0
  183.4810  178.2760  141.7670 C   0  0  0  0  0  3  0  0  0  0  0  0
  182.0620  179.2010  143.4850 C   0  0  0  0  0  3  0  0  0  0  0  0
  181.1800  178.8330  141.2560 C   0  0  0  0  0  0  0  0  0  0  0  0
  178.1180  177.6610  139.2180 C   0  0  0  0  0  2  0  0  0  0  0  0
  177.7970  180.0600  139.9410 C   0  0  0  0  0  2  0  0  0  0  0  0
  177.6910  179.0700  138.7860 C   0  0  0  0  0  2  0  0  0  0  0  0
  179.1890  177.6500  140.3170 C   0  0  0  0  0  2  0  0  0  0  0  0
  179.8730  181.2360  139.7540 O   0  0  0  0  0  1  0  0  0  0  0  0
  180.0660  178.9010  140.2600 C   0  0  1  0  0  3  0  0  0  0  0  0
  179.2440  180.1920  140.4300 C   0  0  2  0  0  3  0  0  0  0  0  0
  184.0400  178.2840  146.5170 C   0  0  0  0  0  1  0  0  0  0  0  0
  184.3030  179.1050  145.3870 O   0  0  0  0  0  0  0  0  0  0  0  0
  191.5720  177.3420  144.5720 C   0  0  0  0  0  0  0  0  0  0  0  0
  192.7070  177.1740  144.9420 C   0  0  0  0  0  0  0  0  0  0  0  0
  194.0860  176.9740  145.3950 C   0  0  0  0  0  2  0  0  0  0  0  0
  194.5550  175.6510  145.0130 N   0  0  0  0  0  2  0  0  0  0  0  0
  196.4490  176.4190  143.8760 O   0  0  0  0  0  0  0  0  0  0  0  0
  195.7500  175.4400  144.2570 C   0  0  0  0  0  0  0  0  0  0  0  0
  196.1670  174.0430  143.9320 C   0  0  2  0  0  3  0  0  0  0  0  0
  196.6490  173.9450  142.5190 C   0  0  0  0  0  0  0  0  0  0  0  0
  197.2650  172.9170  142.1410 O   0  0  0  0  0  1  0  0  0  0  0  0
  196.4290  174.9860  141.6250 O   0  0  0  0  0  0  0  0  0  0  0  0
  195.0350  173.0600  144.2080 C   0  0  0  0  0  2  0  0  0  0  0  0
  194.7960  170.0210  143.5760 O   0  0  0  0  0  1  0  0  0  0  0  0
  194.8400  170.5260  144.8770 C   0  0  2  0  0  3  0  0  0  0  0  0
  195.5530  171.8280  144.8800 C   0  0  0  0  0  0  0  0  0  0  0  0
  196.6790  171.8100  145.5710 C   0  0  0  0  0  3  0  0  0  0  0  0
  195.7120  169.6240  145.7440 C   0  0  1  0  0  3  0  0  0  0  0  0
  196.9250  170.4610  146.1480 C   0  0  0  0  0  2  0  0  0  0  0  0
  194.9320  169.2040  146.9790 C   0  0  0  0  0  2  0  0  0  0  0  0
  195.7770  168.4100  147.8550 N   0  0  0  0  0  1  0  0  0  0  0  0
  189.1050  177.1780  146.3610 C   0  0  0  0  0  2  0  0  0  0  0  0
  188.3840  175.9360  146.5900 N   0  0  0  0  0  2  0  0  0  0  0  0
  190.5900  175.7170  147.5900 C   0  0  0  0  0  1  0  0  0  0  0  0
  189.3070  174.9940  147.2020 C   0  0  2  0  0  3  0  0  0  0  0  0
  189.6240  173.8940  146.2040 C   0  0  0  0  0  2  0  0  0  0  0  0
  190.9730  174.1320  145.5450 C   0  0  0  0  0  2  0  0  0  0  0  0
  191.1440  173.0510  144.0950 S   0  0  0  0  0  0  0  0  0  0  0  0
  188.1200  173.3200  140.5340 F   0  0  0  0  0  0  0  0  0  0  0  0
  190.4080  174.2790  142.9530 C   0  0  1  0  0  3  0  0  0  0  0  0
  191.1800  174.4240  141.6490 C   0  0  2  0  0  3  0  0  0  0  0  0
  189.2030  171.7100  141.6820 F   0  0  0  0  0  0  0  0  0  0  0  0
  189.1950  173.0590  141.3600 C   0  0  0  0  0  0  0  0  0  0  0  0
  190.4840  173.4890  140.6630 C   0  0  2  0  0  3  0  0  0  0  0  0
  189.0650  173.8430  142.5880 N   0  0  0  0  0  2  0  0  0  0  0  0
  192.7090  174.2730  141.7730 C   0  0  0  0  0  2  0  0  0  0  0  0
  191.3440  172.3330  140.2000 C   0  0  0  0  0  3  0  0  0  0  0  0
  192.6710  172.4670  140.1000 C   0  0  0  0  0  3  0  0  0  0  0  0
  193.3190  173.7670  140.4690 C   0  0  0  0  0  2  0  0  0  0  0  0
  1 24  1  0  0  0  0
  1  4  2  0  0  0  0
  2  3  2  0  0  0  0
  3  5  1  0  0  0  0
  3  4  1  0  0  0  0
  4 43  1  0  0  0  0
  6  2  1  0  0  0  0
  6  1  1  0  0  0  0
  7 23  1  0  0  0  0
  8  7  2  0  0  0  0
  8  5  1  0  0  0  0
  9 13  1  0  0  0  0
 10 13  2  0  0  0  0
 10  7  1  0  0  0  0
 11 14  1  0  0  0  0
 11 12  2  0  0  0  0
 12 10  1  0  0  0  0
 14  9  2  0  0  0  0
 15 18  1  0  0  0  0
 16 21  1  0  0  0  0
 17 15  1  0  0  0  0
 17 16  1  0  0  0  0
 20 18  1  0  0  0  0
 20 21  1  0  0  0  0
 20 14  1  1  0  0  0
 21 19  1  6  0  0  0
 23 22  1  0  0  0  0
 24 25  3  0  0  0  0
 25 26  1  0  0  0  0
 27 26  1  0  0  0  0
 28 29  2  0  0  0  0
 29 27  1  0  0  0  0
 30 34  1  6  0  0  0
 30 29  1  0  0  0  0
 31 30  1  0  0  0  0
 32 31  1  0  0  0  0
 33 31  2  0  0  0  0
 34 37  1  0  0  0  0
 36 35  1  6  0  0  0
 36 37  1  0  0  0  0
 36 39  1  0  0  0  0
 37 38  2  0  0  0  0
 38 40  1  0  0  0  0
 39 40  1  0  0  0  0
 39 41  1  1  0  0  0
 41 42  1  0  0  0  0
 43 44  1  0  0  0  0
 44 46  1  0  0  0  0
 46 45  1  6  0  0  0
 47 46  1  0  0  0  0
 48 47  1  0  0  0  0
 49 48  1  0  0  0  0
 50 54  1  0  0  0  0
 51 49  1  1  0  0  0
 52 57  1  1  0  0  0
 52 51  1  0  0  0  0
 54 53  1  0  0  0  0
 54 56  1  0  0  0  0
 55 58  1  1  0  0  0
 55 54  1  0  0  0  0
 55 52  1  0  0  0  0
 56 51  1  0  0  0  0
 59 58  2  0  0  0  0
 59 60  1  0  0  0  0
 60 57  1  0  0  0  0
M  END
>  <MODEL>
1

>  <REMARK>
 VINA RESULT:      -7.5      0.000      0.000
  Name = 
  19 active torsions:
  status: ('A' for Active; 'I' for Inactive)
    1  A    between atoms: C_1  and  C_24
    2  A    between atoms: C_1  and  N_42
    3  A    between atoms: C_4  and  C_19
    4  A    between atoms: C_6  and  S_50
    5  A    between atoms: C_7  and  C_9
    6  A    between atoms: C_9  and  O_56
    7  A    between atoms: C_14  and  C_37
    8  A    between atoms: C_19  and  C_44
    9  A    between atoms: C_19  and  C_51
   10  A    between atoms: N_26  and  C_53
   11  A    between atoms: N_27  and  N_57
   12  A    between atoms: C_29  and  C_44
   13  A    between atoms: C_30  and  C_34
   14  A    between atoms: C_30  and  S_50
   15  A    between atoms: C_34  and  C_43
   16  A    between atoms: C_38  and  C_54
   17  A    between atoms: N_42  and  C_43
   18  A    between atoms: C_47  and  C_53
   19  A    between atoms: C_52  and  C_58
                            x       y       z     vdW  Elec       q    Type
                         _______ _______ _______ _____ _____    ______ ____

>  <TORSDO>
F 19

$$$$
=
 OpenBabel11042418483D

 60 65  0  0  1  0  0  0  0  0999 V2000
  190.3120  177.5510  143.8840 C   0  0  0  0  0  0  0  0  0  0  0  0
  188.4600  178.1560  142.6360 N   0  0  0  0  0  0  0  0  0  0  0  0
  188.1100  177.8730  143.8480 C   0  0  0  0  0  0  0  0  0  0  0  0
  189.2440  177.5010  144.6660 C   0  0  0  0  0  0  0  0  0  0  0  0
  186.7760  178.0340  144.3430 N   0  0  0  0  0  2  0  0  0  0  0  0
  189.9020  177.9570  142.5070 C   0  0  0  0  0  2  0  0  0  0  0  0
  184.4300  178.2680  143.9450 C   0  0  0  0  0  0  0  0  0  0  0  0
  185.6600  178.2760  143.5230 N   0  0  0  0  0  0  0  0  0  0  0  0
  181.0800  179.2290  142.4580 C   0  0  0  0  0  3  0  0  0  0  0  0
  183.3460  178.4920  142.9560 C   0  0  0  0  0  0  0  0  0  0  0  0
  182.4570  178.3060  140.6990 C   0  0  0  0  0  3  0  0  0  0  0  0
  183.4980  178.1210  141.6130 C   0  0  0  0  0  3  0  0  0  0  0  0
  182.1220  179.0410  143.3690 C   0  0  0  0  0  3  0  0  0  0  0  0
  181.2450  178.8610  141.1150 C   0  0  0  0  0  0  0  0  0  0  0  0
  178.2190  177.9760  138.8880 C   0  0  0  0  0  2  0  0  0  0  0  0
  177.8940  180.2660  139.9040 C   0  0  0  0  0  2  0  0  0  0  0  0
  177.8070  179.4300  138.6300 C   0  0  0  0  0  2  0  0  0  0  0  0
  179.2690  177.8190  139.9960 C   0  0  0  0  0  2  0  0  0  0  0  0
  179.9770  181.4430  139.9060 O   0  0  0  0  0  1  0  0  0  0  0  0
  180.1520  179.0620  140.1150 C   0  0  1  0  0  3  0  0  0  0  0  0
  179.3310  180.3250  140.4320 C   0  0  2  0  0  3  0  0  0  0  0  0
  184.5990  179.0000  146.3240 C   0  0  0  0  0  1  0  0  0  0  0  0
  184.1770  178.0940  145.3140 O   0  0  0  0  0  0  0  0  0  0  0  0
  191.6640  177.2880  144.2960 C   0  0  0  0  0  0  0  0  0  0  0  0
  192.8000  177.0740  144.6380 C   0  0  0  0  0  0  0  0  0  0  0  0
  194.1810  176.8190  145.0540 C   0  0  0  0  0  2  0  0  0  0  0  0
  194.8770  176.0420  144.0390 N   0  0  0  0  0  2  0  0  0  0  0  0
  194.5440  173.9790  145.0890 O   0  0  0  0  0  0  0  0  0  0  0  0
  195.0190  174.6210  144.1130 C   0  0  0  0  0  0  0  0  0  0  0  0
  195.7280  173.9040  143.0110 C   0  0  2  0  0  3  0  0  0  0  0  0
  196.7360  172.9460  143.5610 C   0  0  0  0  0  0  0  0  0  0  0  0
  196.7470  171.7550  143.1590 O   0  0  0  0  0  0  0  0  0  0  0  0
  197.6530  173.3590  144.5200 O   0  0  0  0  0  1  0  0  0  0  0  0
  196.3650  174.8920  142.0410 C   0  0  0  0  0  2  0  0  0  0  0  0
  196.2410  172.6280  139.9080 O   0  0  0  0  0  1  0  0  0  0  0  0
  196.2970  173.9820  139.5760 C   0  0  2  0  0  3  0  0  0  0  0  0
  195.7350  174.7900  140.6880 C   0  0  0  0  0  0  0  0  0  0  0  0
  194.6380  175.4470  140.3580 C   0  0  0  0  0  3  0  0  0  0  0  0
  195.3590  174.2600  138.4060 C   0  0  1  0  0  3  0  0  0  0  0  0
  194.2610  175.1760  138.9450 C   0  0  0  0  0  2  0  0  0  0  0  0
  196.1270  174.9590  137.2970 C   0  0  0  0  0  2  0  0  0  0  0  0
  195.2010  175.5560  136.3500 N   0  0  0  0  0  1  0  0  0  0  0  0
  189.2210  177.1710  146.1210 C   0  0  0  0  0  2  0  0  0  0  0  0
  188.4370  175.9650  146.3380 N   0  0  0  0  0  2  0  0  0  0  0  0
  190.6130  175.6530  147.3810 C   0  0  0  0  0  1  0  0  0  0  0  0
  189.2970  174.9910  146.9910 C   0  0  2  0  0  3  0  0  0  0  0  0
  189.5670  173.8480  146.0290 C   0  0  0  0  0  2  0  0  0  0  0  0
  190.9440  173.9840  145.3990 C   0  0  0  0  0  2  0  0  0  0  0  0
  191.1310  172.7610  144.0680 S   0  0  0  0  0  0  0  0  0  0  0  0
  188.2190  174.0790  140.6510 F   0  0  0  0  0  0  0  0  0  0  0  0
  190.9810  174.0150  142.7420 C   0  0  1  0  0  3  0  0  0  0  0  0
  191.5320  173.5420  141.4030 C   0  0  2  0  0  3  0  0  0  0  0  0
  188.4690  172.3220  142.0420 F   0  0  0  0  0  0  0  0  0  0  0  0
  189.1100  173.4090  141.4670 C   0  0  0  0  0  0  0  0  0  0  0  0
  190.3270  172.9870  140.6460 C   0  0  2  0  0  3  0  0  0  0  0  0
  189.5690  174.3090  142.5240 N   0  0  0  0  0  2  0  0  0  0  0  0
  192.7660  172.6240  141.4920 C   0  0  0  0  0  2  0  0  0  0  0  0
  190.3990  171.4990  140.3800 C   0  0  0  0  0  3  0  0  0  0  0  0
  191.5790  170.8940  140.2020 C   0  0  0  0  0  3  0  0  0  0  0  0
  192.8460  171.6920  140.2850 C   0  0  0  0  0  2  0  0  0  0  0  0
  1 24  1  0  0  0  0
  1  4  2  0  0  0  0
  2  3  2  0  0  0  0
  3  5  1  0  0  0  0
  3  4  1  0  0  0  0
  4 43  1  0  0  0  0
  6  2  1  0  0  0  0
  6  1  1  0  0  0  0
  7 23  1  0  0  0  0
  8  7  2  0  0  0  0
  8  5  1  0  0  0  0
  9 13  1  0  0  0  0
 10 13  2  0  0  0  0
 10  7  1  0  0  0  0
 11 14  1  0  0  0  0
 11 12  2  0  0  0  0
 12 10  1  0  0  0  0
 14  9  2  0  0  0  0
 15 18  1  0  0  0  0
 16 21  1  0  0  0  0
 17 15  1  0  0  0  0
 17 16  1  0  0  0  0
 18 20  1  0  0  0  0
 20 21  1  0  0  0  0
 20 14  1  1  0  0  0
 21 19  1  6  0  0  0
 23 22  1  0  0  0  0
 24 25  3  0  0  0  0
 25 26  1  0  0  0  0
 27 29  1  0  0  0  0
 27 26  1  0  0  0  0
 29 28  2  0  0  0  0
 30 34  1  6  0  0  0
 30 31  1  0  0  0  0
 30 29  1  0  0  0  0
 31 33  1  0  0  0  0
 32 31  2  0  0  0  0
 36 35  1  1  0  0  0
 36 37  1  0  0  0  0
 37 34  1  0  0  0  0
 38 37  2  0  0  0  0
 39 41  1  6  0  0  0
 39 40  1  0  0  0  0
 39 36  1  0  0  0  0
 40 38  1  0  0  0  0
 42 41  1  0  0  0  0
 43 44  1  0  0  0  0
 44 46  1  0  0  0  0
 46 45  1  6  0  0  0
 47 46  1  0  0  0  0
 48 47  1  0  0  0  0
 49 48  1  0  0  0  0
 50 54  1  0  0  0  0
 51 49  1  1  0  0  0
 52 57  1  1  0  0  0
 52 51  1  0  0  0  0
 54 53  1  0  0  0  0
 54 56  1  0  0  0  0
 55 58  1  1  0  0  0
 55 52  1  0  0  0  0
 55 54  1  0  0  0  0
 56 51  1  0  0  0  0
 59 60  1  0  0  0  0
 59 58  2  0  0  0  0
 60 57  1  0  0  0  0
M  END
>  <MODEL>
2

>  <REMARK>
 VINA RESULT:      -7.4      1.847      3.333
  Name = 
  19 active torsions:
  status: ('A' for Active; 'I' for Inactive)
    1  A    between atoms: C_1  and  C_24
    2  A    between atoms: C_1  and  N_42
    3  A    between atoms: C_4  and  C_19
    4  A    between atoms: C_6  and  S_50
    5  A    between atoms: C_7  and  C_9
    6  A    between atoms: C_9  and  O_56
    7  A    between atoms: C_14  and  C_37
    8  A    between atoms: C_19  and  C_44
    9  A    between atoms: C_19  and  C_51
   10  A    between atoms: N_26  and  C_53
   11  A    between atoms: N_27  and  N_57
   12  A    between atoms: C_29  and  C_44
   13  A    between atoms: C_30  and  C_34
   14  A    between atoms: C_30  and  S_50
   15  A    between atoms: C_34  and  C_43
   16  A    between atoms: C_38  and  C_54
   17  A    between atoms: N_42  and  C_43
   18  A    between atoms: C_47  and  C_53
   19  A    between atoms: C_52  and  C_58
                            x       y       z     vdW  Elec       q    Type
                         _______ _______ _______ _____ _____    ______ ____

>  <TORSDO>
F 19

$$$$
=
 OpenBabel11042418483D

 60 65  0  0  1  0  0  0  0  0999 V2000
  185.4100  177.4300  141.4950 C   0  0  0  0  0  0  0  0  0  0  0  0
  187.4260  176.7880  140.5590 N   0  0  0  0  0  0  0  0  0  0  0  0
  187.3330  176.3440  141.7700 C   0  0  0  0  0  0  0  0  0  0  0  0
  186.0780  176.7150  142.3870 C   0  0  0  0  0  0  0  0  0  0  0  0
  188.3060  175.4850  142.3740 N   0  0  0  0  0  2  0  0  0  0  0  0
  186.2220  177.5570  140.2490 C   0  0  0  0  0  2  0  0  0  0  0  0
  190.0960  174.0400  141.7190 C   0  0  0  0  0  0  0  0  0  0  0  0
  189.5730  175.2270  141.8210 N   0  0  0  0  0  0  0  0  0  0  0  0
  193.8510  173.5870  141.5070 C   0  0  0  0  0  3  0  0  0  0  0  0
  191.4650  173.9220  141.1590 C   0  0  0  0  0  0  0  0  0  0  0  0
  193.0110  174.0260  139.2830 C   0  0  0  0  0  3  0  0  0  0  0  0
  191.7120  174.1070  139.7910 C   0  0  0  0  0  3  0  0  0  0  0  0
  192.5510  173.6700  142.0110 C   0  0  0  0  0  3  0  0  0  0  0  0
  194.0860  173.7650  140.1360 C   0  0  0  0  0  0  0  0  0  0  0  0
  196.8460  173.0440  137.5350 C   0  0  0  0  0  2  0  0  0  0  0  0
  197.3470  175.2080  138.7370 C   0  0  0  0  0  2  0  0  0  0  0  0
  197.9200  173.8860  138.2350 C   0  0  0  0  0  2  0  0  0  0  0  0
  195.4320  173.2580  138.0930 C   0  0  0  0  0  2  0  0  0  0  0  0
  196.8090  174.9780  141.0570 O   0  0  0  0  0  1  0  0  0  0  0  0
  195.4650  173.6700  139.5650 C   0  0  1  0  0  3  0  0  0  0  0  0
  196.2490  174.9780  139.7810 C   0  0  2  0  0  3  0  0  0  0  0  0
  189.7790  171.9340  143.0170 C   0  0  0  0  0  1  0  0  0  0  0  0
  189.3370  172.9230  142.0970 O   0  0  0  0  0  0  0  0  0  0  0  0
  184.0920  177.9760  141.6760 C   0  0  0  0  0  0  0  0  0  0  0  0
  182.9880  178.4370  141.8230 C   0  0  0  0  0  0  0  0  0  0  0  0
  181.6460  179.0000  141.9960 C   0  0  0  0  0  2  0  0  0  0  0  0
  181.0280  179.2340  140.7000 N   0  0  0  0  0  2  0  0  0  0  0  0
  178.8370  179.2750  141.5190 O   0  0  0  0  0  0  0  0  0  0  0  0
  179.6140  179.3680  140.5300 C   0  0  0  0  0  0  0  0  0  0  0  0
  179.0700  179.6330  139.1640 C   0  0  2  0  0  3  0  0  0  0  0  0
  178.8130  181.0930  138.9670 C   0  0  0  0  0  0  0  0  0  0  0  0
  178.4800  181.5190  137.8320 O   0  0  0  0  0  0  0  0  0  0  0  0
  178.9520  181.9830  140.0250 O   0  0  0  0  0  1  0  0  0  0  0  0
  177.8150  178.8050  138.9100 C   0  0  0  0  0  2  0  0  0  0  0  0
  178.0460  175.7010  138.9810 O   0  0  0  0  0  1  0  0  0  0  0  0
  178.7910  176.4980  138.1110 C   0  0  2  0  0  3  0  0  0  0  0  0
  178.0660  177.7700  137.8590 C   0  0  0  0  0  0  0  0  0  0  0  0
  177.6940  177.9220  136.6010 C   0  0  0  0  0  3  0  0  0  0  0  0
  178.8580  175.8330  136.7410 C   0  0  1  0  0  3  0  0  0  0  0  0
  178.1000  176.7500  135.7810 C   0  0  0  0  0  2  0  0  0  0  0  0
  180.3110  175.7100  136.3090 C   0  0  0  0  0  2  0  0  0  0  0  0
  181.1730  175.6530  137.4770 N   0  0  0  0  0  1  0  0  0  0  0  0
  185.6080  176.3260  143.7490 C   0  0  0  0  0  2  0  0  0  0  0  0
  185.3320  177.5200  144.5330 N   0  0  0  0  0  2  0  0  0  0  0  0
  186.2240  178.6980  146.4650 C   0  0  0  0  0  1  0  0  0  0  0  0
  185.9370  177.3380  145.8430 C   0  0  2  0  0  3  0  0  0  0  0  0
  187.2350  176.5650  145.6850 C   0  0  0  0  0  2  0  0  0  0  0  0
  188.3800  177.2830  146.3800 C   0  0  0  0  0  2  0  0  0  0  0  0
  189.8200  177.3520  145.2730 S   0  0  0  0  0  0  0  0  0  0  0  0
  191.4740  174.7010  148.7570 F   0  0  0  0  0  0  0  0  0  0  0  0
  190.3130  175.6230  145.6250 C   0  0  1  0  0  3  0  0  0  0  0  0
  191.7960  175.3640  145.3970 C   0  0  2  0  0  3  0  0  0  0  0  0
  191.1880  176.8950  148.3240 F   0  0  0  0  0  0  0  0  0  0  0  0
  191.2920  175.6340  147.7550 C   0  0  0  0  0  0  0  0  0  0  0  0
  192.4510  175.5460  146.7640 C   0  0  2  0  0  3  0  0  0  0  0  0
  190.0570  175.3330  147.0310 N   0  0  0  0  0  2  0  0  0  0  0  0
  192.4250  176.1460  144.2280 C   0  0  0  0  0  2  0  0  0  0  0  0
  193.4080  176.7150  146.8380 C   0  0  0  0  0  3  0  0  0  0  0  0
  194.1020  177.0980  145.7600 C   0  0  0  0  0  3  0  0  0  0  0  0
  193.9160  176.3760  144.4590 C   0  0  0  0  0  2  0  0  0  0  0  0
  1 24  1  0  0  0  0
  1  4  2  0  0  0  0
  2  3  2  0  0  0  0
  3  5  1  0  0  0  0
  3  4  1  0  0  0  0
  4 43  1  0  0  0  0
  6  2  1  0  0  0  0
  6  1  1  0  0  0  0
  7  8  2  0  0  0  0
  7 23  1  0  0  0  0
  8  5  1  0  0  0  0
  9 13  1  0  0  0  0
 10  7  1  0  0  0  0
 10 13  2  0  0  0  0
 11 12  2  0  0  0  0
 11 14  1  0  0  0  0
 12 10  1  0  0  0  0
 14  9  2  0  0  0  0
 15 18  1  0  0  0  0
 15 17  1  0  0  0  0
 16 21  1  0  0  0  0
 17 16  1  0  0  0  0
 18 20  1  0  0  0  0
 20 21  1  0  0  0  0
 20 14  1  6  0  0  0
 21 19  1  1  0  0  0
 23 22  1  0  0  0  0
 24 25  3  0  0  0  0
 25 26  1  0  0  0  0
 27 26  1  0  0  0  0
 29 27  1  0  0  0  0
 29 28  2  0  0  0  0
 30 34  1  1  0  0  0
 30 29  1  0  0  0  0
 31 30  1  0  0  0  0
 31 33  1  0  0  0  0
 32 31  2  0  0  0  0
 36 35  1  1  0  0  0
 37 36  1  0  0  0  0
 37 34  1  0  0  0  0
 38 37  2  0  0  0  0
 39 41  1  6  0  0  0
 39 36  1  0  0  0  0
 40 38  1  0  0  0  0
 40 39  1  0  0  0  0
 41 42  1  0  0  0  0
 43 44  1  0  0  0  0
 44 46  1  0  0  0  0
 46 45  1  6  0  0  0
 47 46  1  0  0  0  0
 47 48  1  0  0  0  0
 49 48  1  0  0  0  0
 51 49  1  1  0  0  0
 51 56  1  0  0  0  0
 52 57  1  6  0  0  0
 52 51  1  0  0  0  0
 52 55  1  0  0  0  0
 54 53  1  0  0  0  0
 54 50  1  0  0  0  0
 55 58  1  6  0  0  0
 55 54  1  0  0  0  0
 56 54  1  0  0  0  0
 57 60  1  0  0  0  0
 59 58  2  0  0  0  0
 60 59  1  0  0  0  0
M  END
>  <MODEL>
3

>  <REMARK>
 VINA RESULT:      -6.8      3.387     13.195
  Name = 
  19 active torsions:
  status: ('A' for Active; 'I' for Inactive)
    1  A    between atoms: C_1  and  C_24
    2  A    between atoms: C_1  and  N_42
    3  A    between atoms: C_4  and  C_19
    4  A    between atoms: C_6  and  S_50
    5  A    between atoms: C_7  and  C_9
    6  A    between atoms: C_9  and  O_56
    7  A    between atoms: C_14  and  C_37
    8  A    between atoms: C_19  and  C_44
    9  A    between atoms: C_19  and  C_51
   10  A    between atoms: N_26  and  C_53
   11  A    between atoms: N_27  and  N_57
   12  A    between atoms: C_29  and  C_44
   13  A    between atoms: C_30  and  C_34
   14  A    between atoms: C_30  and  S_50
   15  A    between atoms: C_34  and  C_43
   16  A    between atoms: C_38  and  C_54
   17  A    between atoms: N_42  and  C_43
   18  A    between atoms: C_47  and  C_53
   19  A    between atoms: C_52  and  C_58
                            x       y       z     vdW  Elec       q    Type
                         _______ _______ _______ _____ _____    ______ ____

>  <TORSDO>
F 19

$$$$
=
 OpenBabel11042418483D

 60 65  0  0  1  0  0  0  0  0999 V2000
  185.6210  177.4140  141.9840 C   0  0  0  0  0  0  0  0  0  0  0  0
  187.4050  176.6780  140.7100 N   0  0  0  0  0  0  0  0  0  0  0  0
  187.5220  176.2600  141.9270 C   0  0  0  0  0  0  0  0  0  0  0  0
  186.4170  176.6900  142.7560 C   0  0  0  0  0  0  0  0  0  0  0  0
  188.5610  175.3750  142.3620 N   0  0  0  0  0  2  0  0  0  0  0  0
  186.1920  177.4870  140.6070 C   0  0  0  0  0  2  0  0  0  0  0  0
  189.9550  173.8700  141.1340 C   0  0  0  0  0  0  0  0  0  0  0  0
  189.6940  175.0590  141.5920 N   0  0  0  0  0  0  0  0  0  0  0  0
  193.6200  174.0010  140.1810 C   0  0  0  0  0  3  0  0  0  0  0  0
  191.2160  173.6710  140.3760 C   0  0  0  0  0  0  0  0  0  0  0  0
  192.4100  172.9010  138.4010 C   0  0  0  0  0  3  0  0  0  0  0  0
  191.2200  173.0520  139.1180 C   0  0  0  0  0  3  0  0  0  0  0  0
  192.4280  174.1510  140.8940 C   0  0  0  0  0  3  0  0  0  0  0  0
  193.6140  173.3730  138.9270 C   0  0  0  0  0  0  0  0  0  0  0  0
  196.3120  174.0780  136.2570 C   0  0  0  0  0  2  0  0  0  0  0  0
  197.4130  173.4460  138.4410 C   0  0  0  0  0  2  0  0  0  0  0  0
  197.3980  173.2300  136.9310 C   0  0  0  0  0  2  0  0  0  0  0  0
  195.0830  174.3240  137.1430 C   0  0  0  0  0  2  0  0  0  0  0  0
  196.1760  171.6800  139.4790 O   0  0  0  0  0  1  0  0  0  0  0  0
  194.8750  173.1880  138.1460 C   0  0  1  0  0  3  0  0  0  0  0  0
  196.0880  173.0120  139.0780 C   0  0  2  0  0  3  0  0  0  0  0  0
  188.8000  172.2000  142.5820 C   0  0  0  0  0  1  0  0  0  0  0  0
  189.0240  172.8400  141.3330 O   0  0  0  0  0  0  0  0  0  0  0  0
  184.3790  178.0130  142.3920 C   0  0  0  0  0  0  0  0  0  0  0  0
  183.3370  178.5170  142.7280 C   0  0  0  0  0  0  0  0  0  0  0  0
  182.0670  179.1280  143.1310 C   0  0  0  0  0  2  0  0  0  0  0  0
  181.1260  179.1120  142.0210 N   0  0  0  0  0  2  0  0  0  0  0  0
  179.2150  179.0760  143.3690 O   0  0  0  0  0  0  0  0  0  0  0  0
  179.7090  179.0920  142.2080 C   0  0  0  0  0  0  0  0  0  0  0  0
  178.8180  179.1020  141.0090 C   0  0  2  0  0  3  0  0  0  0  0  0
  178.3430  177.7200  140.6870 C   0  0  0  0  0  0  0  0  0  0  0  0
  178.1550  177.3900  139.4890 O   0  0  0  0  0  0  0  0  0  0  0  0
  178.0970  176.8040  141.7030 O   0  0  0  0  0  1  0  0  0  0  0  0
  179.5180  179.7440  139.8170 C   0  0  0  0  0  2  0  0  0  0  0  0
  177.6910  180.7200  137.4930 O   0  0  0  0  0  1  0  0  0  0  0  0
  178.6510  181.5330  138.0970 C   0  0  2  0  0  3  0  0  0  0  0  0
  178.8970  181.0640  139.4850 C   0  0  0  0  0  0  0  0  0  0  0  0
  178.5480  181.9430  140.4060 C   0  0  0  0  0  3  0  0  0  0  0  0
  178.0890  182.9390  138.2760 C   0  0  1  0  0  3  0  0  0  0  0  0
  177.9850  183.1710  139.7830 C   0  0  0  0  0  2  0  0  0  0  0  0
  179.0420  183.9470  137.6550 C   0  0  0  0  0  2  0  0  0  0  0  0
  179.3770  184.9770  138.6240 N   0  0  0  0  0  1  0  0  0  0  0  0
  186.1950  176.3440  144.1900 C   0  0  0  0  0  2  0  0  0  0  0  0
  187.1750  177.0280  145.0180 N   0  0  0  0  0  2  0  0  0  0  0  0
  186.7600  177.8130  147.2830 C   0  0  0  0  0  1  0  0  0  0  0  0
  186.9720  176.5960  146.3920 C   0  0  2  0  0  3  0  0  0  0  0  0
  188.1990  175.8310  146.8560 C   0  0  0  0  0  2  0  0  0  0  0  0
  189.4350  176.2730  146.0900 C   0  0  0  0  0  2  0  0  0  0  0  0
  190.8100  175.1380  146.4390 S   0  0  0  0  0  0  0  0  0  0  0  0
  193.2380  172.3670  143.5540 F   0  0  0  0  0  0  0  0  0  0  0  0
  191.2980  175.0080  144.6780 C   0  0  1  0  0  3  0  0  0  0  0  0
  192.6450  175.6530  144.3800 C   0  0  2  0  0  3  0  0  0  0  0  0
  192.9490  172.6140  145.7770 F   0  0  0  0  0  0  0  0  0  0  0  0
  192.8290  173.2380  144.5440 C   0  0  0  0  0  0  0  0  0  0  0  0
  193.6620  174.5170  144.4670 C   0  0  2  0  0  3  0  0  0  0  0  0
  191.4290  173.6000  144.3250 N   0  0  0  0  0  2  0  0  0  0  0  0
  192.9610  176.9180  145.2000 C   0  0  0  0  0  2  0  0  0  0  0  0
  194.6570  174.6670  145.5970 C   0  0  0  0  0  3  0  0  0  0  0  0
  195.0410  175.8800  146.0120 C   0  0  0  0  0  3  0  0  0  0  0  0
  194.4670  177.1050  145.3650 C   0  0  0  0  0  2  0  0  0  0  0  0
  1 24  1  0  0  0  0
  1  4  2  0  0  0  0
  2  3  2  0  0  0  0
  3  5  1  0  0  0  0
  3  4  1  0  0  0  0
  4 43  1  0  0  0  0
  6  2  1  0  0  0  0
  6  1  1  0  0  0  0
  7 23  1  0  0  0  0
  7  8  2  0  0  0  0
  8  5  1  0  0  0  0
  9 13  1  0  0  0  0
 10 13  2  0  0  0  0
 10  7  1  0  0  0  0
 11 14  1  0  0  0  0
 11 12  2  0  0  0  0
 12 10  1  0  0  0  0
 14  9  2  0  0  0  0
 15 17  1  0  0  0  0
 15 18  1  0  0  0  0
 16 21  1  0  0  0  0
 17 16  1  0  0  0  0
 18 20  1  0  0  0  0
 20 14  1  1  0  0  0
 20 21  1  0  0  0  0
 21 19  1  6  0  0  0
 23 22  1  0  0  0  0
 24 25  3  0  0  0  0
 25 26  1  0  0  0  0
 27 29  1  0  0  0  0
 27 26  1  0  0  0  0
 29 28  2  0  0  0  0
 30 34  1  6  0  0  0
 30 29  1  0  0  0  0
 31 30  1  0  0  0  0
 31 33  1  0  0  0  0
 32 31  2  0  0  0  0
 36 35  1  1  0  0  0
 36 39  1  0  0  0  0
 36 37  1  0  0  0  0
 37 34  1  0  0  0  0
 37 38  2  0  0  0  0
 39 41  1  1  0  0  0
 39 40  1  0  0  0  0
 40 38  1  0  0  0  0
 41 42  1  0  0  0  0
 43 44  1  0  0  0  0
 44 46  1  0  0  0  0
 46 47  1  0  0  0  0
 46 45  1  1  0  0  0
 48 49  1  0  0  0  0
 48 47  1  0  0  0  0
 50 54  1  0  0  0  0
 51 49  1  1  0  0  0
 52 55  1  0  0  0  0
 52 51  1  0  0  0  0
 52 57  1  1  0  0  0
 54 53  1  0  0  0  0
 55 54  1  0  0  0  0
 55 58  1  1  0  0  0
 56 54  1  0  0  0  0
 56 51  1  0  0  0  0
 57 60  1  0  0  0  0
 58 59  2  0  0  0  0
 60 59  1  0  0  0  0
M  END
>  <MODEL>
4

>  <REMARK>
 VINA RESULT:      -6.8      3.148     13.416
  Name = 
  19 active torsions:
  status: ('A' for Active; 'I' for Inactive)
    1  A    between atoms: C_1  and  C_24
    2  A    between atoms: C_1  and  N_42
    3  A    between atoms: C_4  and  C_19
    4  A    between atoms: C_6  and  S_50
    5  A    between atoms: C_7  and  C_9
    6  A    between atoms: C_9  and  O_56
    7  A    between atoms: C_14  and  C_37
    8  A    between atoms: C_19  and  C_44
    9  A    between atoms: C_19  and  C_51
   10  A    between atoms: N_26  and  C_53
   11  A    between atoms: N_27  and  N_57
   12  A    between atoms: C_29  and  C_44
   13  A    between atoms: C_30  and  C_34
   14  A    between atoms: C_30  and  S_50
   15  A    between atoms: C_34  and  C_43
   16  A    between atoms: C_38  and  C_54
   17  A    between atoms: N_42  and  C_43
   18  A    between atoms: C_47  and  C_53
   19  A    between atoms: C_52  and  C_58
                            x       y       z     vdW  Elec       q    Type
                         _______ _______ _______ _____ _____    ______ ____

>  <TORSDO>
F 19

$$$$
=
 OpenBabel11042418483D

 60 65  0  0  1  0  0  0  0  0999 V2000
  189.9240  174.1040  141.3560 C   0  0  0  0  0  0  0  0  0  0  0  0
  187.8110  174.9170  140.8830 N   0  0  0  0  0  0  0  0  0  0  0  0
  188.4190  175.7030  141.7090 C   0  0  0  0  0  0  0  0  0  0  0  0
  189.7510  175.2350  142.0220 C   0  0  0  0  0  0  0  0  0  0  0  0
  187.8760  176.9500  142.1570 N   0  0  0  0  0  2  0  0  0  0  0  0
  188.6890  173.7880  140.5800 C   0  0  0  0  0  2  0  0  0  0  0  0
  185.7700  177.8210  142.8840 C   0  0  0  0  0  0  0  0  0  0  0  0
  186.5400  177.3420  141.9520 N   0  0  0  0  0  0  0  0  0  0  0  0
  182.5870  178.2500  140.8750 C   0  0  0  0  0  3  0  0  0  0  0  0
  184.3650  178.1470  142.5340 C   0  0  0  0  0  0  0  0  0  0  0  0
  182.1860  179.0610  143.1170 C   0  0  0  0  0  3  0  0  0  0  0  0
  183.4970  178.7280  143.4690 C   0  0  0  0  0  3  0  0  0  0  0  0
  183.8960  177.9200  141.2310 C   0  0  0  0  0  3  0  0  0  0  0  0
  181.7240  178.8230  141.8210 C   0  0  0  0  0  0  0  0  0  0  0  0
  178.8180  180.7090  140.1180 C   0  0  0  0  0  2  0  0  0  0  0  0
  178.3360  178.2290  140.1370 C   0  0  0  0  0  2  0  0  0  0  0  0
  177.7700  179.6230  140.3910 C   0  0  0  0  0  2  0  0  0  0  0  0
  180.2590  180.2590  140.3940 C   0  0  0  0  0  2  0  0  0  0  0  0
  179.0350  177.2940  142.2250 O   0  0  0  0  0  1  0  0  0  0  0  0
  180.3140  179.1760  141.4720 C   0  0  1  0  0  3  0  0  0  0  0  0
  179.5080  177.9250  141.0760 C   0  0  2  0  0  3  0  0  0  0  0  0
  186.4460  177.0460  145.1570 C   0  0  0  0  0  1  0  0  0  0  0  0
  186.3020  178.0500  144.1620 O   0  0  0  0  0  0  0  0  0  0  0  0
  191.1250  173.3120  141.3480 C   0  0  0  0  0  0  0  0  0  0  0  0
  192.1350  172.6540  141.3400 C   0  0  0  0  0  0  0  0  0  0  0  0
  193.3650  171.8590  141.3300 C   0  0  0  0  0  2  0  0  0  0  0  0
  193.8930  171.7660  139.9770 N   0  0  0  0  0  2  0  0  0  0  0  0
  195.8260  173.0050  140.4210 O   0  0  0  0  0  0  0  0  0  0  0  0
  195.1350  172.3580  139.5880 C   0  0  0  0  0  0  0  0  0  0  0  0
  195.6100  172.1890  138.1820 C   0  0  2  0  0  3  0  0  0  0  0  0
  195.3200  170.8080  137.6840 C   0  0  0  0  0  0  0  0  0  0  0  0
  195.9710  169.8330  138.1370 O   0  0  0  0  0  1  0  0  0  0  0  0
  194.3450  170.5980  136.7160 O   0  0  0  0  0  0  0  0  0  0  0  0
  197.0930  172.5250  138.0660 C   0  0  0  0  0  2  0  0  0  0  0  0
  197.5080  175.5700  138.5640 O   0  0  0  0  0  1  0  0  0  0  0  0
  196.8230  175.0680  137.4570 C   0  0  2  0  0  3  0  0  0  0  0  0
  197.3020  173.6940  137.1560 C   0  0  0  0  0  0  0  0  0  0  0  0
  197.9010  173.5910  135.9840 C   0  0  0  0  0  3  0  0  0  0  0  0
  197.2000  175.8700  136.2160 C   0  0  1  0  0  3  0  0  0  0  0  0
  197.9410  174.9060  135.2900 C   0  0  0  0  0  2  0  0  0  0  0  0
  195.9370  176.3790  135.5400 C   0  0  0  0  0  2  0  0  0  0  0  0
  194.7640  175.8180  136.1900 N   0  0  0  0  0  1  0  0  0  0  0  0
  190.7540  175.9210  142.8880 C   0  0  0  0  0  2  0  0  0  0  0  0
  190.4780  175.6260  144.2860 N   0  0  0  0  0  2  0  0  0  0  0  0
  191.5170  177.8210  144.1540 C   0  0  0  0  0  1  0  0  0  0  0  0
  190.9030  176.7730  145.0720 C   0  0  2  0  0  3  0  0  0  0  0  0
  191.9340  176.3200  146.0900 C   0  0  0  0  0  2  0  0  0  0  0  0
  193.3070  176.8800  145.7560 C   0  0  0  0  0  2  0  0  0  0  0  0
  194.5810  175.6400  146.1330 S   0  0  0  0  0  0  0  0  0  0  0  0
  195.1790  171.2550  144.6130 F   0  0  0  0  0  0  0  0  0  0  0  0
  194.0660  174.5320  144.7680 C   0  0  1  0  0  3  0  0  0  0  0  0
  195.0360  174.5370  143.5930 C   0  0  2  0  0  3  0  0  0  0  0  0
  196.1040  172.6290  146.1420 F   0  0  0  0  0  0  0  0  0  0  0  0
  195.3360  172.5740  144.9890 C   0  0  0  0  0  0  0  0  0  0  0  0
  195.9710  173.3550  143.8400 C   0  0  2  0  0  3  0  0  0  0  0  0
  194.0230  173.1610  145.2600 N   0  0  0  0  0  2  0  0  0  0  0  0
  195.7080  175.8930  143.3050 C   0  0  0  0  0  2  0  0  0  0  0  0
  197.4090  173.7520  144.0920 C   0  0  0  0  0  3  0  0  0  0  0  0
  197.9260  174.8460  143.5220 C   0  0  0  0  0  3  0  0  0  0  0  0
  197.0680  175.7020  142.6390 C   0  0  0  0  0  2  0  0  0  0  0  0
  1  4  2  0  0  0  0
  2  3  2  0  0  0  0
  3  4  1  0  0  0  0
  3  5  1  0  0  0  0
  4 43  1  0  0  0  0
  6  2  1  0  0  0  0
  6  1  1  0  0  0  0
  7 23  1  0  0  0  0
  8  5  1  0  0  0  0
  8  7  2  0  0  0  0
  9 13  2  0  0  0  0
  9 14  1  0  0  0  0
 10  7  1  0  0  0  0
 10 12  2  0  0  0  0
 11 12  1  0  0  0  0
 13 10  1  0  0  0  0
 14 11  2  0  0  0  0
 15 17  1  0  0  0  0
 15 18  1  0  0  0  0
 16 17  1  0  0  0  0
 16 21  1  0  0  0  0
 18 20  1  0  0  0  0
 20 14  1  6  0  0  0
 21 20  1  0  0  0  0
 21 19  1  1  0  0  0
 23 22  1  0  0  0  0
 24  1  1  0  0  0  0
 25 24  3  0  0  0  0
 26 25  1  0  0  0  0
 27 26  1  0  0  0  0
 29 27  1  0  0  0  0
 29 28  2  0  0  0  0
 30 34  1  1  0  0  0
 30 29  1  0  0  0  0
 31 32  1  0  0  0  0
 31 30  1  0  0  0  0
 33 31  2  0  0  0  0
 36 35  1  1  0  0  0
 37 36  1  0  0  0  0
 37 34  1  0  0  0  0
 38 37  2  0  0  0  0
 39 41  1  6  0  0  0
 39 36  1  0  0  0  0
 40 38  1  0  0  0  0
 40 39  1  0  0  0  0
 41 42  1  0  0  0  0
 43 44  1  0  0  0  0
 44 46  1  0  0  0  0
 46 45  1  6  0  0  0
 46 47  1  0  0  0  0
 48 47  1  0  0  0  0
 48 49  1  0  0  0  0
 50 54  1  0  0  0  0
 51 56  1  0  0  0  0
 51 49  1  1  0  0  0
 52 57  1  1  0  0  0
 52 55  1  0  0  0  0
 52 51  1  0  0  0  0
 54 56  1  0  0  0  0
 54 53  1  0  0  0  0
 55 58  1  1  0  0  0
 55 54  1  0  0  0  0
 59 58  2  0  0  0  0
 60 57  1  0  0  0  0
 60 59  1  0  0  0  0
M  END
>  <MODEL>
5

>  <REMARK>
 VINA RESULT:      -6.3      3.459      5.874
  Name = 
  19 active torsions:
  status: ('A' for Active; 'I' for Inactive)
    1  A    between atoms: C_1  and  C_24
    2  A    between atoms: C_1  and  N_42
    3  A    between atoms: C_4  and  C_19
    4  A    between atoms: C_6  and  S_50
    5  A    between atoms: C_7  and  C_9
    6  A    between atoms: C_9  and  O_56
    7  A    between atoms: C_14  and  C_37
    8  A    between atoms: C_19  and  C_44
    9  A    between atoms: C_19  and  C_51
   10  A    between atoms: N_26  and  C_53
   11  A    between atoms: N_27  and  N_57
   12  A    between atoms: C_29  and  C_44
   13  A    between atoms: C_30  and  C_34
   14  A    between atoms: C_30  and  S_50
   15  A    between atoms: C_34  and  C_43
   16  A    between atoms: C_38  and  C_54
   17  A    between atoms: N_42  and  C_43
   18  A    between atoms: C_47  and  C_53
   19  A    between atoms: C_52  and  C_58
                            x       y       z     vdW  Elec       q    Type
                         _______ _______ _______ _____ _____    ______ ____

>  <TORSDO>
F 19

$$$$
=
 OpenBabel11042418483D

 60 65  0  0  1  0  0  0  0  0999 V2000
  186.0810  177.3180  142.2840 C   0  0  0  0  0  0  0  0  0  0  0  0
  187.7450  176.3260  141.0210 N   0  0  0  0  0  0  0  0  0  0  0  0
  188.0580  176.2970  142.2750 C   0  0  0  0  0  0  0  0  0  0  0  0
  187.0340  176.8980  143.1020 C   0  0  0  0  0  0  0  0  0  0  0  0
  189.2210  175.6350  142.7840 N   0  0  0  0  0  2  0  0  0  0  0  0
  186.4590  177.0060  140.8750 C   0  0  0  0  0  2  0  0  0  0  0  0
  190.7070  173.9370  141.9940 C   0  0  0  0  0  0  0  0  0  0  0  0
  190.2700  175.1610  141.9750 N   0  0  0  0  0  0  0  0  0  0  0  0
  193.5270  171.9730  140.3980 C   0  0  0  0  0  3  0  0  0  0  0  0
  191.8550  173.5880  141.1200 C   0  0  0  0  0  0  0  0  0  0  0  0
  193.5250  174.2000  139.4580 C   0  0  0  0  0  3  0  0  0  0  0  0
  192.4230  174.5310  140.2510 C   0  0  0  0  0  3  0  0  0  0  0  0
  192.4270  172.3080  141.1900 C   0  0  0  0  0  3  0  0  0  0  0  0
  194.0810  172.9210  139.5270 C   0  0  0  0  0  0  0  0  0  0  0  0
  197.5890  171.6090  138.5890 C   0  0  0  0  0  2  0  0  0  0  0  0
  195.9150  170.9080  136.8320 C   0  0  0  0  0  2  0  0  0  0  0  0
  197.2990  171.4980  137.0870 C   0  0  0  0  0  2  0  0  0  0  0  0
  196.3370  171.8490  139.4440 C   0  0  0  0  0  2  0  0  0  0  0  0
  194.3810  172.7000  136.4290 O   0  0  0  0  0  1  0  0  0  0  0  0
  195.2520  172.5870  138.6590 C   0  0  1  0  0  3  0  0  0  0  0  0
  194.8130  171.8060  137.4070 C   0  0  2  0  0  3  0  0  0  0  0  0
  189.1820  171.9870  142.2990 C   0  0  0  0  0  1  0  0  0  0  0  0
  190.0570  172.9890  142.7980 O   0  0  0  0  0  0  0  0  0  0  0  0
  184.8520  177.9480  142.6850 C   0  0  0  0  0  0  0  0  0  0  0  0
  183.8210  178.4780  143.0150 C   0  0  0  0  0  0  0  0  0  0  0  0
  182.5660  179.1230  143.4110 C   0  0  0  0  0  2  0  0  0  0  0  0
  181.5950  179.0410  142.3310 N   0  0  0  0  0  2  0  0  0  0  0  0
  179.7310  179.3980  143.6970 O   0  0  0  0  0  0  0  0  0  0  0  0
  180.1890  179.1920  142.5390 C   0  0  0  0  0  0  0  0  0  0  0  0
  179.2680  179.1180  141.3660 C   0  0  2  0  0  3  0  0  0  0  0  0
  178.8500  177.7050  141.1060 C   0  0  0  0  0  0  0  0  0  0  0  0
  178.6240  176.9350  142.0730 O   0  0  0  0  0  1  0  0  0  0  0  0
  178.7220  177.2350  139.8040 O   0  0  0  0  0  0  0  0  0  0  0  0
  179.9060  179.7490  140.1340 C   0  0  0  0  0  2  0  0  0  0  0  0
  177.6930  180.1200  137.9760 O   0  0  0  0  0  1  0  0  0  0  0  0
  178.6350  181.1050  138.2750 C   0  0  2  0  0  3  0  0  0  0  0  0
  179.1120  180.9290  139.6700 C   0  0  0  0  0  0  0  0  0  0  0  0
  178.8010  181.9380  140.4630 C   0  0  0  0  0  3  0  0  0  0  0  0
  177.9590  182.4710  138.2840 C   0  0  1  0  0  3  0  0  0  0  0  0
  178.0350  182.9770  139.7250 C   0  0  0  0  0  2  0  0  0  0  0  0
  178.7100  183.4130  137.3580 C   0  0  0  0  0  2  0  0  0  0  0  0
  179.4420  184.3980  138.1360 N   0  0  0  0  0  1  0  0  0  0  0  0
  187.0330  176.9850  144.5910 C   0  0  0  0  0  2  0  0  0  0  0  0
  187.8090  175.8880  145.1480 N   0  0  0  0  0  2  0  0  0  0  0  0
  187.8450  177.5710  146.9040 C   0  0  0  0  0  1  0  0  0  0  0  0
  187.8780  176.0810  146.5870 C   0  0  2  0  0  3  0  0  0  0  0  0
  189.1720  175.4780  147.1050 C   0  0  0  0  0  2  0  0  0  0  0  0
  190.3760  176.1380  146.4530 C   0  0  0  0  0  2  0  0  0  0  0  0
  191.2970  174.9080  145.4840 S   0  0  0  0  0  0  0  0  0  0  0  0
  194.8900  177.7680  146.3850 F   0  0  0  0  0  0  0  0  0  0  0  0
  192.7850  175.0200  146.5470 C   0  0  1  0  0  3  0  0  0  0  0  0
  194.0410  174.4730  145.8810 C   0  0  2  0  0  3  0  0  0  0  0  0
  193.2680  177.5680  144.8320 F   0  0  0  0  0  0  0  0  0  0  0  0
  193.9820  176.8980  145.8140 C   0  0  0  0  0  0  0  0  0  0  0  0
  194.7250  175.6860  145.2560 C   0  0  2  0  0  3  0  0  0  0  0  0
  193.0540  176.4240  146.8400 N   0  0  0  0  0  2  0  0  0  0  0  0
  193.8160  173.2610  144.9560 C   0  0  0  0  0  2  0  0  0  0  0  0
  194.7830  175.6480  143.7440 C   0  0  0  0  0  3  0  0  0  0  0  0
  194.8660  174.4820  143.0930 C   0  0  0  0  0  3  0  0  0  0  0  0
  194.8820  173.1970  143.8650 C   0  0  0  0  0  2  0  0  0  0  0  0
  1 24  1  0  0  0  0
  1  4  2  0  0  0  0
  2  3  2  0  0  0  0
  3  5  1  0  0  0  0
  3  4  1  0  0  0  0
  4 43  1  0  0  0  0
  6  2  1  0  0  0  0
  6  1  1  0  0  0  0
  7 23  1  0  0  0  0
  8  7  2  0  0  0  0
  8  5  1  0  0  0  0
  9 13  1  0  0  0  0
 10 13  2  0  0  0  0
 10  7  1  0  0  0  0
 11 14  1  0  0  0  0
 11 12  2  0  0  0  0
 12 10  1  0  0  0  0
 14  9  2  0  0  0  0
 15 18  1  0  0  0  0
 16 17  1  0  0  0  0
 16 21  1  0  0  0  0
 17 15  1  0  0  0  0
 20 18  1  0  0  0  0
 20 14  1  1  0  0  0
 21 19  1  6  0  0  0
 21 20  1  0  0  0  0
 22 23  1  0  0  0  0
 24 25  3  0  0  0  0
 25 26  1  0  0  0  0
 27 29  1  0  0  0  0
 27 26  1  0  0  0  0
 29 28  2  0  0  0  0
 30 34  1  6  0  0  0
 30 29  1  0  0  0  0
 31 30  1  0  0  0  0
 31 32  1  0  0  0  0
 33 31  2  0  0  0  0
 36 35  1  1  0  0  0
 36 39  1  0  0  0  0
 36 37  1  0  0  0  0
 37 34  1  0  0  0  0
 37 38  2  0  0  0  0
 39 41  1  6  0  0  0
 39 40  1  0  0  0  0
 40 38  1  0  0  0  0
 41 42  1  0  0  0  0
 43 44  1  0  0  0  0
 44 46  1  0  0  0  0
 46 45  1  6  0  0  0
 46 47  1  0  0  0  0
 48 47  1  0  0  0  0
 49 48  1  0  0  0  0
 51 49  1  6  0  0  0
 51 56  1  0  0  0  0
 52 57  1  6  0  0  0
 52 51  1  0  0  0  0
 53 54  1  0  0  0  0
 54 50  1  0  0  0  0
 54 56  1  0  0  0  0
 55 58  1  6  0  0  0
 55 54  1  0  0  0  0
 55 52  1  0  0  0  0
 59 58  2  0  0  0  0
 59 60  1  0  0  0  0
 60 57  1  0  0  0  0
M  END
>  <MODEL>
6

>  <REMARK>
 VINA RESULT:      -6.2      3.351     13.412
  Name = 
  19 active torsions:
  status: ('A' for Active; 'I' for Inactive)
    1  A    between atoms: C_1  and  C_24
    2  A    between atoms: C_1  and  N_42
    3  A    between atoms: C_4  and  C_19
    4  A    between atoms: C_6  and  S_50
    5  A    between atoms: C_7  and  C_9
    6  A    between atoms: C_9  and  O_56
    7  A    between atoms: C_14  and  C_37
    8  A    between atoms: C_19  and  C_44
    9  A    between atoms: C_19  and  C_51
   10  A    between atoms: N_26  and  C_53
   11  A    between atoms: N_27  and  N_57
   12  A    between atoms: C_29  and  C_44
   13  A    between atoms: C_30  and  C_34
   14  A    between atoms: C_30  and  S_50
   15  A    between atoms: C_34  and  C_43
   16  A    between atoms: C_38  and  C_54
   17  A    between atoms: N_42  and  C_43
   18  A    between atoms: C_47  and  C_53
   19  A    between atoms: C_52  and  C_58
                            x       y       z     vdW  Elec       q    Type
                         _______ _______ _______ _____ _____    ______ ____

>  <TORSDO>
F 19

$$$$
=
 OpenBabel11042418483D

 60 65  0  0  1  0  0  0  0  0999 V2000
  190.1270  176.7160  145.1330 C   0  0  0  0  0  0  0  0  0  0  0  0
  188.0190  177.5970  144.7770 N   0  0  0  0  0  0  0  0  0  0  0  0
  188.1270  176.4470  144.1970 C   0  0  0  0  0  0  0  0  0  0  0  0
  189.4300  175.8560  144.4060 C   0  0  0  0  0  0  0  0  0  0  0  0
  187.0400  175.7920  143.5340 N   0  0  0  0  0  2  0  0  0  0  0  0
  189.2910  177.9180  145.4210 C   0  0  0  0  0  2  0  0  0  0  0  0
  185.6710  177.3110  142.2940 C   0  0  0  0  0  0  0  0  0  0  0  0
  185.8170  176.4170  143.2280 N   0  0  0  0  0  0  0  0  0  0  0  0
  182.3890  179.0380  143.0700 C   0  0  0  0  0  3  0  0  0  0  0  0
  184.3310  177.9240  142.1140 C   0  0  0  0  0  0  0  0  0  0  0  0
  182.4090  178.4640  140.7220 C   0  0  0  0  0  3  0  0  0  0  0  0
  183.6850  177.9130  140.8700 C   0  0  0  0  0  3  0  0  0  0  0  0
  183.6640  178.4850  143.2140 C   0  0  0  0  0  3  0  0  0  0  0  0
  181.7560  179.0290  141.8190 C   0  0  0  0  0  0  0  0  0  0  0  0
  178.9430  181.0900  140.1620 C   0  0  0  0  0  2  0  0  0  0  0  0
  178.0150  178.8970  141.0060 C   0  0  0  0  0  2  0  0  0  0  0  0
  177.8020  180.4060  140.9260 C   0  0  0  0  0  2  0  0  0  0  0  0
  180.2960  180.3780  140.3050 C   0  0  0  0  0  2  0  0  0  0  0  0
  178.9980  178.3740  143.1240 O   0  0  0  0  0  1  0  0  0  0  0  0
  180.3970  179.6240  141.6320 C   0  0  1  0  0  3  0  0  0  0  0  0
  179.2960  178.5570  141.7750 C   0  0  2  0  0  3  0  0  0  0  0  0
  187.0810  176.9380  140.2710 C   0  0  0  0  0  1  0  0  0  0  0  0
  186.7620  177.6280  141.4710 O   0  0  0  0  0  0  0  0  0  0  0  0
  191.4700  176.5160  145.6050 C   0  0  0  0  0  0  0  0  0  0  0  0
  192.5990  176.3530  145.9960 C   0  0  0  0  0  0  0  0  0  0  0  0
  193.9720  176.1600  146.4700 C   0  0  0  0  0  2  0  0  0  0  0  0
  194.6540  175.1730  145.6470 N   0  0  0  0  0  2  0  0  0  0  0  0
  195.5040  176.7260  144.1180 O   0  0  0  0  0  0  0  0  0  0  0  0
  195.4100  175.5220  144.4840 C   0  0  0  0  0  0  0  0  0  0  0  0
  196.0980  174.4430  143.7140 C   0  0  2  0  0  3  0  0  0  0  0  0
  197.1140  175.0210  142.7800 C   0  0  0  0  0  0  0  0  0  0  0  0
  197.9400  175.8680  143.2050 O   0  0  0  0  0  1  0  0  0  0  0  0
  197.1440  174.6370  141.4450 O   0  0  0  0  0  0  0  0  0  0  0  0
  195.0870  173.5740  142.9750 C   0  0  0  0  0  2  0  0  0  0  0  0
  193.4220  171.8180  144.9330 O   0  0  0  0  0  1  0  0  0  0  0  0
  194.8000  171.6730  144.7670 C   0  0  2  0  0  3  0  0  0  0  0  0
  195.1910  172.1480  143.4150 C   0  0  0  0  0  0  0  0  0  0  0  0
  195.6780  171.1940  142.6420 C   0  0  0  0  0  3  0  0  0  0  0  0
  195.1600  170.1910  144.7550 C   0  0  1  0  0  3  0  0  0  0  0  0
  195.6850  169.8880  143.3520 C   0  0  0  0  0  2  0  0  0  0  0  0
  196.2420  169.9260  145.7880 C   0  0  0  0  0  2  0  0  0  0  0  0
  196.3680  168.4970  146.0210 N   0  0  0  0  0  1  0  0  0  0  0  0
  189.8830  174.5150  143.9340 C   0  0  0  0  0  2  0  0  0  0  0  0
  189.6990  174.4130  142.4950 N   0  0  0  0  0  2  0  0  0  0  0  0
  189.2090  172.0770  142.9640 C   0  0  0  0  0  1  0  0  0  0  0  0
  188.7510  173.3390  142.2450 C   0  0  2  0  0  3  0  0  0  0  0  0
  188.6820  173.0780  140.7510 C   0  0  0  0  0  2  0  0  0  0  0  0
  189.6300  173.9970  139.9960 C   0  0  0  0  0  2  0  0  0  0  0  0
  190.6550  173.0170  138.8600 S   0  0  0  0  0  0  0  0  0  0  0  0
  195.2190  173.4330  137.9140 F   0  0  0  0  0  0  0  0  0  0  0  0
  192.2240  173.5340  139.6530 C   0  0  1  0  0  3  0  0  0  0  0  0
  192.9770  172.3790  140.3000 C   0  0  2  0  0  3  0  0  0  0  0  0
  193.4000  172.4910  136.9700 F   0  0  0  0  0  0  0  0  0  0  0  0
  193.9370  172.9770  138.1530 C   0  0  0  0  0  0  0  0  0  0  0  0
  193.9760  171.9100  139.2460 C   0  0  2  0  0  3  0  0  0  0  0  0
  193.1110  174.0840  138.6340 N   0  0  0  0  0  2  0  0  0  0  0  0
  192.0880  171.2910  140.9330 C   0  0  0  0  0  2  0  0  0  0  0  0
  193.7230  170.5070  138.7380 C   0  0  0  0  0  3  0  0  0  0  0  0
  193.1790  169.5810  139.5360 C   0  0  0  0  0  3  0  0  0  0  0  0
  192.7970  169.9390  140.9410 C   0  0  0  0  0  2  0  0  0  0  0  0
  1  6  1  0  0  0  0
  1 24  1  0  0  0  0
  2  6  1  0  0  0  0
  3  4  1  0  0  0  0
  3  2  2  0  0  0  0
  4  1  2  0  0  0  0
  5  3  1  0  0  0  0
  7  8  2  0  0  0  0
  8  5  1  0  0  0  0
  9 13  1  0  0  0  0
 10  7  1  0  0  0  0
 10 13  2  0  0  0  0
 11 12  2  0  0  0  0
 11 14  1  0  0  0  0
 12 10  1  0  0  0  0
 14  9  2  0  0  0  0
 15 18  1  0  0  0  0
 15 17  1  0  0  0  0
 16 21  1  0  0  0  0
 17 16  1  0  0  0  0
 18 20  1  0  0  0  0
 20 21  1  0  0  0  0
 20 14  1  6  0  0  0
 21 19  1  1  0  0  0
 22 23  1  0  0  0  0
 23  7  1  0  0  0  0
 24 25  3  0  0  0  0
 25 26  1  0  0  0  0
 27 26  1  0  0  0  0
 28 29  2  0  0  0  0
 29 27  1  0  0  0  0
 30 34  1  6  0  0  0
 30 29  1  0  0  0  0
 31 32  1  0  0  0  0
 31 30  1  0  0  0  0
 33 31  2  0  0  0  0
 34 37  1  0  0  0  0
 36 35  1  6  0  0  0
 37 36  1  0  0  0  0
 38 40  1  0  0  0  0
 38 37  2  0  0  0  0
 39 36  1  0  0  0  0
 39 41  1  1  0  0  0
 40 39  1  0  0  0  0
 41 42  1  0  0  0  0
 43  4  1  0  0  0  0
 44 43  1  0  0  0  0
 46 44  1  0  0  0  0
 46 45  1  1  0  0  0
 47 46  1  0  0  0  0
 48 47  1  0  0  0  0
 49 48  1  0  0  0  0
 50 54  1  0  0  0  0
 51 49  1  6  0  0  0
 51 52  1  0  0  0  0
 52 57  1  6  0  0  0
 53 54  1  0  0  0  0
 54 56  1  0  0  0  0
 54 55  1  0  0  0  0
 55 58  1  6  0  0  0
 55 52  1  0  0  0  0
 56 51  1  0  0  0  0
 57 60  1  0  0  0  0
 58 59  2  0  0  0  0
 59 60  1  0  0  0  0
M  END
>  <MODEL>
7

>  <REMARK>
 VINA RESULT:      -6.2      2.342      3.352
  Name = 
  19 active torsions:
  status: ('A' for Active; 'I' for Inactive)
    1  A    between atoms: C_1  and  C_24
    2  A    between atoms: C_1  and  N_42
    3  A    between atoms: C_4  and  C_19
    4  A    between atoms: C_6  and  S_50
    5  A    between atoms: C_7  and  C_9
    6  A    between atoms: C_9  and  O_56
    7  A    between atoms: C_14  and  C_37
    8  A    between atoms: C_19  and  C_44
    9  A    between atoms: C_19  and  C_51
   10  A    between atoms: N_26  and  C_53
   11  A    between atoms: N_27  and  N_57
   12  A    between atoms: C_29  and  C_44
   13  A    between atoms: C_30  and  C_34
   14  A    between atoms: C_30  and  S_50
   15  A    between atoms: C_34  and  C_43
   16  A    between atoms: C_38  and  C_54
   17  A    between atoms: N_42  and  C_43
   18  A    between atoms: C_47  and  C_53
   19  A    between atoms: C_52  and  C_58
                            x       y       z     vdW  Elec       q    Type
                         _______ _______ _______ _____ _____    ______ ____

>  <TORSDO>
F 19

$$$$
=
 OpenBabel11042418483D

 60 65  0  0  1  0  0  0  0  0999 V2000
  190.3430  176.6680  145.2140 C   0  0  0  0  0  0  0  0  0  0  0  0
  188.1370  177.2970  144.9170 N   0  0  0  0  0  0  0  0  0  0  0  0
  188.4730  176.4140  144.0350 C   0  0  0  0  0  0  0  0  0  0  0  0
  189.8450  175.9840  144.1950 C   0  0  0  0  0  0  0  0  0  0  0  0
  187.5530  175.8450  143.0960 N   0  0  0  0  0  2  0  0  0  0  0  0
  189.2970  177.5850  145.7570 C   0  0  0  0  0  2  0  0  0  0  0  0
  185.9800  177.2420  141.9610 C   0  0  0  0  0  0  0  0  0  0  0  0
  186.2610  176.3480  142.8630 N   0  0  0  0  0  0  0  0  0  0  0  0
  182.6000  178.1390  140.5030 C   0  0  0  0  0  3  0  0  0  0  0  0
  184.5770  177.7180  141.8580 C   0  0  0  0  0  0  0  0  0  0  0  0
  182.6040  178.7460  142.8430 C   0  0  0  0  0  3  0  0  0  0  0  0
  183.9130  178.2710  142.9620 C   0  0  0  0  0  3  0  0  0  0  0  0
  183.9080  177.6660  140.6260 C   0  0  0  0  0  3  0  0  0  0  0  0
  181.9410  178.6820  141.6150 C   0  0  0  0  0  0  0  0  0  0  0  0
  179.0090  180.9250  140.4870 C   0  0  0  0  0  2  0  0  0  0  0  0
  178.2850  178.5050  140.4870 C   0  0  0  0  0  2  0  0  0  0  0  0
  177.9120  179.9300  140.8850 C   0  0  0  0  0  2  0  0  0  0  0  0
  180.4220  180.3270  140.5060 C   0  0  0  0  0  2  0  0  0  0  0  0
  179.2080  177.3930  142.3940 O   0  0  0  0  0  1  0  0  0  0  0  0
  180.5360  179.1850  141.5170 C   0  0  1  0  0  3  0  0  0  0  0  0
  179.5540  178.0400  141.2090 C   0  0  2  0  0  3  0  0  0  0  0  0
  188.0200  178.5930  141.4780 C   0  0  0  0  0  1  0  0  0  0  0  0
  186.9930  177.6880  141.0990 O   0  0  0  0  0  0  0  0  0  0  0  0
  191.6720  176.5310  145.7440 C   0  0  0  0  0  0  0  0  0  0  0  0
  192.7890  176.4200  146.1850 C   0  0  0  0  0  0  0  0  0  0  0  0
  194.1480  176.2910  146.7170 C   0  0  0  0  0  2  0  0  0  0  0  0
  194.7800  175.0880  146.1960 N   0  0  0  0  0  2  0  0  0  0  0  0
  195.9930  176.1940  144.5300 O   0  0  0  0  0  0  0  0  0  0  0  0
  195.7000  175.1080  145.1010 C   0  0  0  0  0  0  0  0  0  0  0  0
  196.3190  173.8260  144.6500 C   0  0  2  0  0  3  0  0  0  0  0  0
  197.1710  174.0440  143.4400 C   0  0  0  0  0  0  0  0  0  0  0  0
  197.9310  175.0430  143.3850 O   0  0  0  0  0  1  0  0  0  0  0  0
  197.1200  173.1560  142.3720 O   0  0  0  0  0  0  0  0  0  0  0  0
  195.2540  172.7650  144.4020 C   0  0  0  0  0  2  0  0  0  0  0  0
  195.3800  169.8170  143.4090 O   0  0  0  0  0  1  0  0  0  0  0  0
  195.0170  170.1660  144.7110 C   0  0  2  0  0  3  0  0  0  0  0  0
  195.6240  171.4750  145.0620 C   0  0  0  0  0  0  0  0  0  0  0  0
  196.5010  171.4010  146.0460 C   0  0  0  0  0  3  0  0  0  0  0  0
  195.6510  169.1890  145.6950 C   0  0  1  0  0  3  0  0  0  0  0  0
  196.6470  170.0000  146.5240 C   0  0  0  0  0  2  0  0  0  0  0  0
  194.5730  168.6070  146.5950 C   0  0  0  0  0  2  0  0  0  0  0  0
  195.1060  168.3800  147.9280 N   0  0  0  0  0  1  0  0  0  0  0  0
  190.5480  174.9380  143.3960 C   0  0  0  0  0  2  0  0  0  0  0  0
  189.7630  174.6120  142.2160 N   0  0  0  0  0  2  0  0  0  0  0  0
  190.3960  172.5320  143.3080 C   0  0  0  0  0  1  0  0  0  0  0  0
  189.5700  173.1700  142.1980 C   0  0  2  0  0  3  0  0  0  0  0  0
  190.0190  172.6290  140.8520 C   0  0  0  0  0  2  0  0  0  0  0  0
  191.1480  171.6250  141.0220 C   0  0  0  0  0  2  0  0  0  0  0  0
  192.2640  171.7120  139.5910 S   0  0  0  0  0  0  0  0  0  0  0  0
  194.2100  175.0960  142.1720 F   0  0  0  0  0  0  0  0  0  0  0  0
  193.7440  172.0320  140.6230 C   0  0  1  0  0  3  0  0  0  0  0  0
  194.8940  172.6570  139.8450 C   0  0  2  0  0  3  0  0  0  0  0  0
  192.5330  174.8950  140.6780 F   0  0  0  0  0  0  0  0  0  0  0  0
  193.6990  174.3150  141.1540 C   0  0  0  0  0  0  0  0  0  0  0  0
  194.7520  174.1620  140.0570 C   0  0  2  0  0  3  0  0  0  0  0  0
  193.3930  172.9820  141.6720 N   0  0  0  0  0  2  0  0  0  0  0  0
  195.0320  172.1810  138.3860 C   0  0  0  0  0  2  0  0  0  0  0  0
  194.4350  174.9340  138.7950 C   0  0  0  0  0  3  0  0  0  0  0  0
  194.8830  174.5130  137.6070 C   0  0  0  0  0  3  0  0  0  0  0  0
  195.6890  173.2520  137.5190 C   0  0  0  0  0  2  0  0  0  0  0  0
  1 24  1  0  0  0  0
  1  6  1  0  0  0  0
  2  6  1  0  0  0  0
  3  4  1  0  0  0  0
  3  2  2  0  0  0  0
  4  1  2  0  0  0  0
  5  3  1  0  0  0  0
  7  8  2  0  0  0  0
  8  5  1  0  0  0  0
  9 13  2  0  0  0  0
  9 14  1  0  0  0  0
 10  7  1  0  0  0  0
 10 12  2  0  0  0  0
 11 12  1  0  0  0  0
 13 10  1  0  0  0  0
 14 11  2  0  0  0  0
 15 18  1  0  0  0  0
 15 17  1  0  0  0  0
 16 17  1  0  0  0  0
 16 21  1  0  0  0  0
 18 20  1  0  0  0  0
 20 14  1  6  0  0  0
 21 20  1  0  0  0  0
 21 19  1  1  0  0  0
 23 22  1  0  0  0  0
 23  7  1  0  0  0  0
 24 25  3  0  0  0  0
 25 26  1  0  0  0  0
 27 26  1  0  0  0  0
 28 29  2  0  0  0  0
 29 27  1  0  0  0  0
 30 34  1  6  0  0  0
 30 29  1  0  0  0  0
 31 30  1  0  0  0  0
 32 31  1  0  0  0  0
 33 31  2  0  0  0  0
 34 37  1  0  0  0  0
 36 35  1  6  0  0  0
 36 37  1  0  0  0  0
 36 39  1  0  0  0  0
 37 38  2  0  0  0  0
 38 40  1  0  0  0  0
 39 40  1  0  0  0  0
 39 41  1  1  0  0  0
 41 42  1  0  0  0  0
 43  4  1  0  0  0  0
 44 43  1  0  0  0  0
 46 44  1  0  0  0  0
 46 45  1  1  0  0  0
 47 48  1  0  0  0  0
 47 46  1  0  0  0  0
 49 48  1  0  0  0  0
 51 49  1  6  0  0  0
 51 56  1  0  0  0  0
 52 57  1  6  0  0  0
 52 55  1  0  0  0  0
 52 51  1  0  0  0  0
 53 54  1  0  0  0  0
 54 56  1  0  0  0  0
 54 50  1  0  0  0  0
 55 58  1  6  0  0  0
 55 54  1  0  0  0  0
 59 58  2  0  0  0  0
 60 59  1  0  0  0  0
 60 57  1  0  0  0  0
M  END
>  <MODEL>
8

>  <REMARK>
 VINA RESULT:      -6.0      2.127      3.271
  Name = 
  19 active torsions:
  status: ('A' for Active; 'I' for Inactive)
    1  A    between atoms: C_1  and  C_24
    2  A    between atoms: C_1  and  N_42
    3  A    between atoms: C_4  and  C_19
    4  A    between atoms: C_6  and  S_50
    5  A    between atoms: C_7  and  C_9
    6  A    between atoms: C_9  and  O_56
    7  A    between atoms: C_14  and  C_37
    8  A    between atoms: C_19  and  C_44
    9  A    between atoms: C_19  and  C_51
   10  A    between atoms: N_26  and  C_53
   11  A    between atoms: N_27  and  N_57
   12  A    between atoms: C_29  and  C_44
   13  A    between atoms: C_30  and  C_34
   14  A    between atoms: C_30  and  S_50
   15  A    between atoms: C_34  and  C_43
   16  A    between atoms: C_38  and  C_54
   17  A    between atoms: N_42  and  C_43
   18  A    between atoms: C_47  and  C_53
   19  A    between atoms: C_52  and  C_58
                            x       y       z     vdW  Elec       q    Type
                         _______ _______ _______ _____ _____    ______ ____

>  <TORSDO>
F 19

$$$$
=
 OpenBabel11042418483D

 60 65  0  0  1  0  0  0  0  0999 V2000
  189.7210  173.7530  139.5880 C   0  0  0  0  0  0  0  0  0  0  0  0
  187.7140  174.8880  139.4110 N   0  0  0  0  0  0  0  0  0  0  0  0
  188.1960  175.0150  140.6040 C   0  0  0  0  0  0  0  0  0  0  0  0
  189.4600  174.3270  140.7520 C   0  0  0  0  0  0  0  0  0  0  0  0
  187.6030  175.8410  141.6120 N   0  0  0  0  0  2  0  0  0  0  0  0
  188.6160  174.0450  138.6290 C   0  0  0  0  0  2  0  0  0  0  0  0
  185.9470  177.4880  142.1250 C   0  0  0  0  0  0  0  0  0  0  0  0
  186.3200  176.4060  141.5060 N   0  0  0  0  0  0  0  0  0  0  0  0
  182.5000  178.8350  142.9360 C   0  0  0  0  0  3  0  0  0  0  0  0
  184.5440  177.9430  141.9600 C   0  0  0  0  0  0  0  0  0  0  0  0
  182.5560  178.2520  140.5910 C   0  0  0  0  0  3  0  0  0  0  0  0
  183.8880  177.8500  140.7250 C   0  0  0  0  0  3  0  0  0  0  0  0
  183.8310  178.4320  143.0660 C   0  0  0  0  0  3  0  0  0  0  0  0
  181.8560  178.7460  141.6930 C   0  0  0  0  0  0  0  0  0  0  0  0
  178.8820  180.8440  140.4070 C   0  0  0  0  0  2  0  0  0  0  0  0
  178.2750  178.3920  140.3800 C   0  0  0  0  0  2  0  0  0  0  0  0
  177.8140  179.7980  140.7530 C   0  0  0  0  0  2  0  0  0  0  0  0
  180.3190  180.3140  140.5010 C   0  0  0  0  0  2  0  0  0  0  0  0
  179.1510  177.3290  142.3370 O   0  0  0  0  0  1  0  0  0  0  0  0
  180.4360  179.1810  141.5210 C   0  0  1  0  0  3  0  0  0  0  0  0
  179.5270  177.9890  141.1680 C   0  0  2  0  0  3  0  0  0  0  0  0
  188.0990  177.6470  143.3750 C   0  0  0  0  0  1  0  0  0  0  0  0
  186.8870  178.2010  142.8840 O   0  0  0  0  0  0  0  0  0  0  0  0
  190.9000  172.9910  139.2770 C   0  0  0  0  0  0  0  0  0  0  0  0
  191.8920  172.3540  139.0220 C   0  0  0  0  0  0  0  0  0  0  0  0
  193.0980  171.5800  138.7180 C   0  0  0  0  0  2  0  0  0  0  0  0
  194.0160  171.6140  139.8460 N   0  0  0  0  0  2  0  0  0  0  0  0
  194.8990  173.7190  139.3340 O   0  0  0  0  0  0  0  0  0  0  0  0
  194.8880  172.7180  140.1020 C   0  0  0  0  0  0  0  0  0  0  0  0
  195.7790  172.6760  141.3000 C   0  0  2  0  0  3  0  0  0  0  0  0
  197.1150  173.2760  140.9910 C   0  0  0  0  0  0  0  0  0  0  0  0
  197.9410  172.6320  140.2970 O   0  0  0  0  0  0  0  0  0  0  0  0
  197.4510  174.5350  141.4750 O   0  0  0  0  0  1  0  0  0  0  0  0
  195.9140  171.2520  141.8280 C   0  0  0  0  0  2  0  0  0  0  0  0
  194.3690  171.6290  144.5040 O   0  0  0  0  0  1  0  0  0  0  0  0
  195.6770  172.0760  144.3120 C   0  0  2  0  0  3  0  0  0  0  0  0
  196.3340  171.2560  143.2630 C   0  0  0  0  0  0  0  0  0  0  0  0
  197.3580  170.5520  143.7110 C   0  0  0  0  0  3  0  0  0  0  0  0
  196.4990  171.8010  145.5670 C   0  0  1  0  0  3  0  0  0  0  0  0
  197.5580  170.7730  145.1680 C   0  0  0  0  0  2  0  0  0  0  0  0
  197.1650  173.0880  146.0270 C   0  0  0  0  0  2  0  0  0  0  0  0
  196.1770  174.1470  146.1380 N   0  0  0  0  0  1  0  0  0  0  0  0
  190.3250  174.3100  141.9680 C   0  0  0  0  0  2  0  0  0  0  0  0
  191.1670  175.4960  141.9890 N   0  0  0  0  0  2  0  0  0  0  0  0
  192.6120  173.6470  142.6300 C   0  0  0  0  0  1  0  0  0  0  0  0
  192.5510  175.0540  142.0490 C   0  0  2  0  0  3  0  0  0  0  0  0
  193.3350  176.0060  142.9350 C   0  0  0  0  0  2  0  0  0  0  0  0
  193.5940  175.3880  144.2990 C   0  0  0  0  0  2  0  0  0  0  0  0
  193.1510  176.5740  145.6020 S   0  0  0  0  0  0  0  0  0  0  0  0
  189.4310  173.7610  145.9870 F   0  0  0  0  0  0  0  0  0  0  0  0
  192.4620  175.2800  146.7010 C   0  0  1  0  0  3  0  0  0  0  0  0
  191.5230  175.8340  147.7640 C   0  0  2  0  0  3  0  0  0  0  0  0
  190.0480  175.5500  144.7600 F   0  0  0  0  0  0  0  0  0  0  0  0
  190.2950  174.8370  145.9240 C   0  0  0  0  0  0  0  0  0  0  0  0
  190.1220  175.6990  147.1720 C   0  0  2  0  0  3  0  0  0  0  0  0
  191.6740  174.3490  145.9020 N   0  0  0  0  0  2  0  0  0  0  0  0
  191.9020  177.2230  148.3140 C   0  0  0  0  0  2  0  0  0  0  0  0
  189.4340  177.0210  146.9110 C   0  0  0  0  0  3  0  0  0  0  0  0
  189.6840  178.0850  147.6830 C   0  0  0  0  0  3  0  0  0  0  0  0
  190.6690  177.9750  148.8070 C   0  0  0  0  0  2  0  0  0  0  0  0
  1  4  2  0  0  0  0
  2  3  2  0  0  0  0
  3  4  1  0  0  0  0
  3  5  1  0  0  0  0
  4 43  1  0  0  0  0
  6  2  1  0  0  0  0
  6  1  1  0  0  0  0
  7 23  1  0  0  0  0
  8  5  1  0  0  0  0
  8  7  2  0  0  0  0
  9 13  1  0  0  0  0
 10  7  1  0  0  0  0
 10 13  2  0  0  0  0
 11 12  2  0  0  0  0
 11 14  1  0  0  0  0
 12 10  1  0  0  0  0
 14  9  2  0  0  0  0
 15 18  1  0  0  0  0
 15 17  1  0  0  0  0
 16 17  1  0  0  0  0
 16 21  1  0  0  0  0
 18 20  1  0  0  0  0
 20 14  1  6  0  0  0
 21 20  1  0  0  0  0
 21 19  1  1  0  0  0
 23 22  1  0  0  0  0
 24  1  1  0  0  0  0
 25 24  3  0  0  0  0
 26 25  1  0  0  0  0
 26 27  1  0  0  0  0
 27 29  1  0  0  0  0
 28 29  2  0  0  0  0
 29 30  1  0  0  0  0
 30 34  1  6  0  0  0
 31 30  1  0  0  0  0
 31 33  1  0  0  0  0
 32 31  2  0  0  0  0
 34 37  1  0  0  0  0
 36 35  1  1  0  0  0
 36 39  1  0  0  0  0
 37 38  2  0  0  0  0
 37 36  1  0  0  0  0
 38 40  1  0  0  0  0
 39 41  1  6  0  0  0
 40 39  1  0  0  0  0
 41 42  1  0  0  0  0
 43 44  1  0  0  0  0
 44 46  1  0  0  0  0
 46 45  1  1  0  0  0
 46 47  1  0  0  0  0
 47 48  1  0  0  0  0
 48 49  1  0  0  0  0
 51 49  1  6  0  0  0
 51 52  1  0  0  0  0
 52 57  1  6  0  0  0
 53 54  1  0  0  0  0
 54 50  1  0  0  0  0
 54 55  1  0  0  0  0
 55 58  1  6  0  0  0
 55 52  1  0  0  0  0
 56 54  1  0  0  0  0
 56 51  1  0  0  0  0
 57 60  1  0  0  0  0
 58 59  2  0  0  0  0
 59 60  1  0  0  0  0
M  END
>  <MODEL>
9

>  <REMARK>
 VINA RESULT:      -6.0      2.312      4.781
  Name = 
  19 active torsions:
  status: ('A' for Active; 'I' for Inactive)
    1  A    between atoms: C_1  and  C_24
    2  A    between atoms: C_1  and  N_42
    3  A    between atoms: C_4  and  C_19
    4  A    between atoms: C_6  and  S_50
    5  A    between atoms: C_7  and  C_9
    6  A    between atoms: C_9  and  O_56
    7  A    between atoms: C_14  and  C_37
    8  A    between atoms: C_19  and  C_44
    9  A    between atoms: C_19  and  C_51
   10  A    between atoms: N_26  and  C_53
   11  A    between atoms: N_27  and  N_57
   12  A    between atoms: C_29  and  C_44
   13  A    between atoms: C_30  and  C_34
   14  A    between atoms: C_30  and  S_50
   15  A    between atoms: C_34  and  C_43
   16  A    between atoms: C_38  and  C_54
   17  A    between atoms: N_42  and  C_43
   18  A    between atoms: C_47  and  C_53
   19  A    between atoms: C_52  and  C_58
                            x       y       z     vdW  Elec       q    Type
                         _______ _______ _______ _____ _____    ______ ____

>  <TORSDO>
F 19

$$$$
