=
 OpenBabel11042415503D

 34 39  0  0  0  0  0  0  0  0999 V2000
  189.6590  174.3500  141.5970 C   0  0  0  0  0  0  0  0  0  0  0  0
  192.0060  174.8260  141.7560 C   0  0  0  0  0  0  0  0  0  0  0  0
  190.4070  175.5720  143.5820 C   0  0  0  0  0  0  0  0  0  0  0  0
  191.0080  176.4950  145.7050 C   0  0  0  0  0  0  0  0  0  0  0  0
  191.1650  173.4400  140.0610 N   0  0  0  0  0  0  0  0  0  0  0  0
  192.1830  174.0630  140.6480 N   0  0  0  0  0  0  0  0  0  0  0  0
  192.5710  175.3530  144.7470 C   0  0  0  0  0  3  0  0  0  0  0  0
  190.7200  174.9090  142.3480 C   0  0  0  0  0  0  0  0  0  0  0  0
  192.0600  176.5500  146.5940 C   0  0  0  0  0  3  0  0  0  0  0  0
  189.9210  173.5990  140.5010 N   0  0  0  0  0  0  0  0  0  0  0  0
  189.0450  175.9160  143.8510 C   0  0  0  0  0  0  0  0  0  0  0  0
  188.3350  174.6010  141.9390 C   0  0  0  0  0  3  0  0  0  0  0  0
  193.0710  175.6890  142.1390 N   0  0  0  0  0  1  0  0  0  0  0  0
  189.7280  176.9700  145.9370 C   0  0  0  0  0  3  0  0  0  0  0  0
  188.7210  176.6900  145.0030 C   0  0  0  0  0  0  0  0  0  0  0  0
  193.0440  175.8110  145.9620 C   0  0  0  0  0  0  0  0  0  0  0  0
  191.3170  175.8170  144.5830 N   0  0  0  0  0  0  0  0  0  0  0  0
  188.0340  175.4030  143.0310 C   0  0  0  0  0  3  0  0  0  0  0  0
  185.5560  178.7960  144.9220 C   0  0  0  0  0  0  0  0  0  0  0  0
  184.7780  178.1590  145.8900 C   0  0  0  0  0  3  0  0  0  0  0  0
  187.3490  177.1900  145.2870 C   0  0  0  0  0  0  0  0  0  0  0  0
  185.2800  177.0430  146.5640 C   0  0  0  0  0  3  0  0  0  0  0  0
  186.8360  178.3180  144.6270 C   0  0  0  0  0  3  0  0  0  0  0  0
  186.5590  176.5640  146.2670 C   0  0  0  0  0  3  0  0  0  0  0  0
  185.0260  179.9860  144.2080 C   0  0  0  0  0  1  0  0  0  0  0  0
  194.4130  175.5730  146.4930 C   0  0  0  0  0  2  0  0  0  0  0  0
  195.3780  175.6470  145.4070 N   0  0  0  0  0  2  0  0  0  0  0  0
  197.4030  175.7950  143.4040 O   0  0  0  0  0  0  0  0  0  0  0  0
  196.2650  174.5710  145.0970 C   0  0  0  0  0  0  0  0  0  0  0  0
  197.2060  174.6890  143.9730 C   0  0  0  0  0  0  0  0  0  0  0  0
  197.5060  172.2630  144.0390 C   0  0  0  0  0  2  0  0  0  0  0  0
  197.1550  172.3530  145.5260 C   0  0  0  0  0  2  0  0  0  0  0  0
  196.2210  173.4570  145.7710 N   0  0  0  0  0  0  0  0  0  0  0  0
  197.8890  173.5480  143.5510 O   0  0  0  0  0  0  0  0  0  0  0  0
  1 12  2  0  0  0  0
  1  8  1  0  0  0  0
  2 13  1  0  0  0  0
  2  8  1  0  0  0  0
  3 11  1  0  0  0  0
  3 17  1  0  0  0  0
  4 14  1  0  0  0  0
  4  9  2  0  0  0  0
  5 10  2  0  0  0  0
  5  6  1  0  0  0  0
  6  2  2  0  0  0  0
  7 16  2  0  0  0  0
  8  3  2  0  0  0  0
 10  1  1  0  0  0  0
 11 15  1  0  0  0  0
 12 18  1  0  0  0  0
 15 21  1  0  0  0  0
 15 14  2  0  0  0  0
 16 26  1  0  0  0  0
 16  9  1  0  0  0  0
 17  7  1  0  0  0  0
 17  4  1  0  0  0  0
 18 11  2  0  0  0  0
 19 20  1  0  0  0  0
 20 22  2  0  0  0  0
 21 24  2  0  0  0  0
 23 19  2  0  0  0  0
 23 21  1  0  0  0  0
 24 22  1  0  0  0  0
 25 19  1  0  0  0  0
 27 26  1  0  0  0  0
 28 30  2  0  0  0  0
 29 27  1  0  0  0  0
 29 33  2  0  0  0  0
 30 29  1  0  0  0  0
 31 32  1  0  0  0  0
 32 33  1  0  0  0  0
 34 30  1  0  0  0  0
 34 31  1  0  0  0  0
M  END
>  <MODEL>
1

>  <REMARK>
 VINA RESULT:      -9.3      0.000      0.000
  Name = 
  3 active torsions:
  status: ('A' for Active; 'I' for Inactive)
    1  A    between atoms: N_3  and  C_17
    2  A    between atoms: C_12  and  C_28
    3  A    between atoms: C_17  and  C_29
                            x       y       z     vdW  Elec       q    Type
                         _______ _______ _______ _____ _____    ______ ____

>  <TORSDO>
F 3

$$$$
=
 OpenBabel11042415503D

 34 39  0  0  0  0  0  0  0  0999 V2000
  186.6720  177.3600  146.4250 C   0  0  0  0  0  0  0  0  0  0  0  0
  185.0210  178.8180  145.4750 C   0  0  0  0  0  0  0  0  0  0  0  0
  186.6950  177.6170  143.9910 C   0  0  0  0  0  0  0  0  0  0  0  0
  186.6600  177.5200  141.6020 C   0  0  0  0  0  0  0  0  0  0  0  0
  184.9710  178.2550  147.7510 N   0  0  0  0  0  0  0  0  0  0  0  0
  184.4750  178.9230  146.7130 N   0  0  0  0  0  0  0  0  0  0  0  0
  184.7590  177.9950  142.5080 C   0  0  0  0  0  3  0  0  0  0  0  0
  186.1000  177.9240  145.2610 C   0  0  0  0  0  0  0  0  0  0  0  0
  185.8000  177.6580  140.5320 C   0  0  0  0  0  3  0  0  0  0  0  0
  186.0650  177.5100  147.6260 N   0  0  0  0  0  0  0  0  0  0  0  0
  187.9970  177.0270  143.9670 C   0  0  0  0  0  0  0  0  0  0  0  0
  187.8880  176.6880  146.3670 C   0  0  0  0  0  3  0  0  0  0  0  0
  184.6310  179.7800  144.5000 N   0  0  0  0  0  1  0  0  0  0  0  0
  187.9720  177.0820  141.5330 C   0  0  0  0  0  3  0  0  0  0  0  0
  188.6670  176.8330  142.7240 C   0  0  0  0  0  0  0  0  0  0  0  0
  184.5930  177.9570  141.1370 C   0  0  0  0  0  0  0  0  0  0  0  0
  186.0560  177.7590  142.7820 N   0  0  0  0  0  0  0  0  0  0  0  0
  188.5580  176.5550  145.1590 C   0  0  0  0  0  3  0  0  0  0  0  0
  191.6610  174.5470  142.2010 C   0  0  0  0  0  0  0  0  0  0  0  0
  192.7180  175.4070  142.5040 C   0  0  0  0  0  3  0  0  0  0  0  0
  190.0660  176.3390  142.6230 C   0  0  0  0  0  0  0  0  0  0  0  0
  192.4580  176.7290  142.8720 C   0  0  0  0  0  3  0  0  0  0  0  0
  190.3430  175.0090  142.2660 C   0  0  0  0  0  3  0  0  0  0  0  0
  191.1400  177.1900  142.9360 C   0  0  0  0  0  3  0  0  0  0  0  0
  191.9350  173.1400  141.8140 C   0  0  0  0  0  1  0  0  0  0  0  0
  183.3180  178.2290  140.4200 C   0  0  0  0  0  2  0  0  0  0  0  0
  182.2770  178.5570  141.3820 N   0  0  0  0  0  2  0  0  0  0  0  0
  180.1880  179.3420  143.1600 O   0  0  0  0  0  0  0  0  0  0  0  0
  180.8870  178.4050  141.0870 C   0  0  0  0  0  0  0  0  0  0  0  0
  179.8760  178.7300  142.1050 C   0  0  0  0  0  0  0  0  0  0  0  0
  178.2350  177.4720  140.7980 C   0  0  0  0  0  2  0  0  0  0  0  0
  179.0830  177.8210  139.5710 C   0  0  0  0  0  2  0  0  0  0  0  0
  180.4990  177.9330  139.9370 N   0  0  0  0  0  0  0  0  0  0  0  0
  178.5520  178.3540  141.8740 O   0  0  0  0  0  0  0  0  0  0  0  0
  1 10  2  0  0  0  0
  2  6  1  0  0  0  0
  3  8  1  0  0  0  0
  4 17  1  0  0  0  0
  6  5  2  0  0  0  0
  7 17  1  0  0  0  0
  8  2  2  0  0  0  0
  8  1  1  0  0  0  0
  9 16  1  0  0  0  0
  9  4  2  0  0  0  0
 10  5  1  0  0  0  0
 11  3  2  0  0  0  0
 11 18  1  0  0  0  0
 12  1  1  0  0  0  0
 13  2  1  0  0  0  0
 14  4  1  0  0  0  0
 14 15  2  0  0  0  0
 15 11  1  0  0  0  0
 16  7  2  0  0  0  0
 17  3  1  0  0  0  0
 18 12  2  0  0  0  0
 19 23  2  0  0  0  0
 19 20  1  0  0  0  0
 20 22  2  0  0  0  0
 21 15  1  0  0  0  0
 21 24  2  0  0  0  0
 22 24  1  0  0  0  0
 23 21  1  0  0  0  0
 25 19  1  0  0  0  0
 26 16  1  0  0  0  0
 26 27  1  0  0  0  0
 29 27  1  0  0  0  0
 29 30  1  0  0  0  0
 30 28  2  0  0  0  0
 31 34  1  0  0  0  0
 32 33  1  0  0  0  0
 32 31  1  0  0  0  0
 33 29  2  0  0  0  0
 34 30  1  0  0  0  0
M  END
>  <MODEL>
2

>  <REMARK>
 VINA RESULT:      -9.2      6.415     11.011
  Name = 
  3 active torsions:
  status: ('A' for Active; 'I' for Inactive)
    1  A    between atoms: N_3  and  C_17
    2  A    between atoms: C_12  and  C_28
    3  A    between atoms: C_17  and  C_29
                            x       y       z     vdW  Elec       q    Type
                         _______ _______ _______ _____ _____    ______ ____

>  <TORSDO>
F 3

$$$$
=
 OpenBabel11042415503D

 34 39  0  0  0  0  0  0  0  0999 V2000
  186.8490  177.8800  143.7520 C   0  0  0  0  0  0  0  0  0  0  0  0
  186.5300  177.6200  141.3880 C   0  0  0  0  0  0  0  0  0  0  0  0
  188.4320  176.4310  142.5770 C   0  0  0  0  0  0  0  0  0  0  0  0
  189.8650  174.7590  141.6430 C   0  0  0  0  0  0  0  0  0  0  0  0
  184.9530  178.7540  142.7040 N   0  0  0  0  0  0  0  0  0  0  0  0
  185.3780  178.3240  141.5180 N   0  0  0  0  0  0  0  0  0  0  0  0
  187.9840  175.0070  140.6120 C   0  0  0  0  0  3  0  0  0  0  0  0
  187.2690  177.2710  142.5460 C   0  0  0  0  0  0  0  0  0  0  0  0
  189.9140  173.8320  140.6230 C   0  0  0  0  0  3  0  0  0  0  0  0
  185.6830  178.5670  143.7990 N   0  0  0  0  0  0  0  0  0  0  0  0
  189.2910  176.4860  143.7190 C   0  0  0  0  0  0  0  0  0  0  0  0
  187.6440  177.8290  144.8910 C   0  0  0  0  0  3  0  0  0  0  0  0
  187.0610  177.4620  140.0770 N   0  0  0  0  0  1  0  0  0  0  0  0
  190.7930  174.8880  142.6630 C   0  0  0  0  0  3  0  0  0  0  0  0
  190.5200  175.7640  143.7220 C   0  0  0  0  0  0  0  0  0  0  0  0
  188.7000  174.0070  139.9820 C   0  0  0  0  0  0  0  0  0  0  0  0
  188.7340  175.4910  141.6190 N   0  0  0  0  0  0  0  0  0  0  0  0
  188.8650  177.1700  144.8630 C   0  0  0  0  0  3  0  0  0  0  0  0
  193.6070  176.7460  145.7130 C   0  0  0  0  0  0  0  0  0  0  0  0
  193.4360  175.9900  146.8740 C   0  0  0  0  0  3  0  0  0  0  0  0
  191.5200  175.8650  144.8170 C   0  0  0  0  0  0  0  0  0  0  0  0
  192.3170  175.1660  147.0110 C   0  0  0  0  0  3  0  0  0  0  0  0
  192.6580  176.6800  144.6890 C   0  0  0  0  0  3  0  0  0  0  0  0
  191.3670  175.1010  145.9870 C   0  0  0  0  0  3  0  0  0  0  0  0
  194.7990  177.6190  145.5640 C   0  0  0  0  0  1  0  0  0  0  0  0
  188.2490  173.2580  138.7780 C   0  0  0  0  0  2  0  0  0  0  0  0
  188.9750  173.7290  137.6090 N   0  0  0  0  0  2  0  0  0  0  0  0
  190.2700  174.5730  135.2120 O   0  0  0  0  0  0  0  0  0  0  0  0
  188.4610  174.7460  136.7480 C   0  0  0  0  0  0  0  0  0  0  0  0
  189.2470  175.2020  135.5910 C   0  0  0  0  0  0  0  0  0  0  0  0
  187.8160  177.1810  135.4660 C   0  0  0  0  0  2  0  0  0  0  0  0
  186.7260  176.3190  136.1080 C   0  0  0  0  0  2  0  0  0  0  0  0
  187.3170  175.3160  137.0000 N   0  0  0  0  0  0  0  0  0  0  0  0
  188.8310  176.3460  134.9100 O   0  0  0  0  0  0  0  0  0  0  0  0
  1 10  1  0  0  0  0
  1 12  1  0  0  0  0
  2  6  2  0  0  0  0
  2  8  1  0  0  0  0
  3 11  2  0  0  0  0
  4 14  1  0  0  0  0
  5 10  2  0  0  0  0
  6  5  1  0  0  0  0
  7 17  1  0  0  0  0
  8  3  1  0  0  0  0
  8  1  2  0  0  0  0
  9  4  2  0  0  0  0
 11 15  1  0  0  0  0
 11 18  1  0  0  0  0
 13  2  1  0  0  0  0
 14 15  2  0  0  0  0
 15 21  1  0  0  0  0
 16  7  2  0  0  0  0
 16  9  1  0  0  0  0
 17  4  1  0  0  0  0
 17  3  1  0  0  0  0
 18 12  2  0  0  0  0
 19 20  1  0  0  0  0
 20 22  2  0  0  0  0
 21 24  2  0  0  0  0
 23 21  1  0  0  0  0
 23 19  2  0  0  0  0
 24 22  1  0  0  0  0
 25 19  1  0  0  0  0
 26 16  1  0  0  0  0
 27 26  1  0  0  0  0
 28 30  2  0  0  0  0
 29 33  2  0  0  0  0
 29 27  1  0  0  0  0
 30 29  1  0  0  0  0
 31 32  1  0  0  0  0
 32 33  1  0  0  0  0
 34 31  1  0  0  0  0
 34 30  1  0  0  0  0
M  END
>  <MODEL>
3

>  <REMARK>
 VINA RESULT:      -8.6      4.421      8.154
  Name = 
  3 active torsions:
  status: ('A' for Active; 'I' for Inactive)
    1  A    between atoms: N_3  and  C_17
    2  A    between atoms: C_12  and  C_28
    3  A    between atoms: C_17  and  C_29
                            x       y       z     vdW  Elec       q    Type
                         _______ _______ _______ _____ _____    ______ ____

>  <TORSDO>
F 3

$$$$
=
 OpenBabel11042415503D

 34 39  0  0  0  0  0  0  0  0999 V2000
  191.4630  176.0510  145.6570 C   0  0  0  0  0  0  0  0  0  0  0  0
  191.8010  173.8260  144.8260 C   0  0  0  0  0  0  0  0  0  0  0  0
  189.8510  175.2310  144.0080 C   0  0  0  0  0  0  0  0  0  0  0  0
  188.3810  174.7000  142.1970 C   0  0  0  0  0  0  0  0  0  0  0  0
  193.3950  174.8580  146.2030 N   0  0  0  0  0  0  0  0  0  0  0  0
  192.9720  173.8030  145.5110 N   0  0  0  0  0  0  0  0  0  0  0  0
  190.2810  173.6750  142.1410 C   0  0  0  0  0  3  0  0  0  0  0  0
  191.0390  175.0200  144.7860 C   0  0  0  0  0  0  0  0  0  0  0  0
  188.3170  173.9330  141.0530 C   0  0  0  0  0  3  0  0  0  0  0  0
  192.6470  175.9530  146.3050 N   0  0  0  0  0  0  0  0  0  0  0  0
  188.9820  176.3100  144.3590 C   0  0  0  0  0  0  0  0  0  0  0  0
  190.6520  177.1540  145.9030 C   0  0  0  0  0  3  0  0  0  0  0  0
  191.2810  172.5810  144.3710 N   0  0  0  0  0  1  0  0  0  0  0  0
  187.4460  175.6420  142.5920 C   0  0  0  0  0  3  0  0  0  0  0  0
  187.7320  176.4640  143.6910 C   0  0  0  0  0  0  0  0  0  0  0  0
  189.5430  173.2910  141.0370 C   0  0  0  0  0  0  0  0  0  0  0  0
  189.5330  174.5220  142.8730 N   0  0  0  0  0  0  0  0  0  0  0  0
  189.4130  177.2630  145.2880 C   0  0  0  0  0  3  0  0  0  0  0  0
  184.9720  178.2790  145.5750 C   0  0  0  0  0  0  0  0  0  0  0  0
  184.7690  179.3920  144.7580 C   0  0  0  0  0  3  0  0  0  0  0  0
  186.7220  177.4840  144.0790 C   0  0  0  0  0  0  0  0  0  0  0  0
  185.5310  179.5540  143.5990 C   0  0  0  0  0  3  0  0  0  0  0  0
  185.9390  177.3280  145.2340 C   0  0  0  0  0  3  0  0  0  0  0  0
  186.4990  178.6040  143.2590 C   0  0  0  0  0  3  0  0  0  0  0  0
  184.1590  178.1010  146.8050 C   0  0  0  0  0  1  0  0  0  0  0  0
  189.9860  172.3120  140.0090 C   0  0  0  0  0  2  0  0  0  0  0  0
  191.0670  172.8850  139.2220 N   0  0  0  0  0  2  0  0  0  0  0  0
  193.1710  173.8670  137.5650 O   0  0  0  0  0  0  0  0  0  0  0  0
  190.8600  173.4230  137.9150 C   0  0  0  0  0  0  0  0  0  0  0  0
  191.9840  174.0120  137.1710 C   0  0  0  0  0  0  0  0  0  0  0  0
  190.3670  175.0880  135.6850 C   0  0  0  0  0  2  0  0  0  0  0  0
  189.4260  173.9280  136.0220 C   0  0  0  0  0  2  0  0  0  0  0  0
  189.6700  173.4430  137.3850 N   0  0  0  0  0  0  0  0  0  0  0  0
  191.7100  174.7320  136.0080 O   0  0  0  0  0  0  0  0  0  0  0  0
  1 12  1  0  0  0  0
  1 10  2  0  0  0  0
  2  6  1  0  0  0  0
  3 11  2  0  0  0  0
  3  8  1  0  0  0  0
  4 14  1  0  0  0  0
  4 17  1  0  0  0  0
  5 10  1  0  0  0  0
  6  5  2  0  0  0  0
  7 17  1  0  0  0  0
  8  2  2  0  0  0  0
  8  1  1  0  0  0  0
  9  4  2  0  0  0  0
 11 18  1  0  0  0  0
 13  2  1  0  0  0  0
 14 15  2  0  0  0  0
 15 21  1  0  0  0  0
 15 11  1  0  0  0  0
 16  9  1  0  0  0  0
 16  7  2  0  0  0  0
 17  3  1  0  0  0  0
 18 12  2  0  0  0  0
 19 25  1  0  0  0  0
 20 19  2  0  0  0  0
 21 23  2  0  0  0  0
 22 20  1  0  0  0  0
 23 19  1  0  0  0  0
 24 22  2  0  0  0  0
 24 21  1  0  0  0  0
 26 16  1  0  0  0  0
 27 26  1  0  0  0  0
 29 27  1  0  0  0  0
 30 28  2  0  0  0  0
 30 29  1  0  0  0  0
 31 34  1  0  0  0  0
 31 32  1  0  0  0  0
 32 33  1  0  0  0  0
 33 29  2  0  0  0  0
 34 30  1  0  0  0  0
M  END
>  <MODEL>
4

>  <REMARK>
 VINA RESULT:      -8.4      3.080      6.085
  Name = 
  3 active torsions:
  status: ('A' for Active; 'I' for Inactive)
    1  A    between atoms: N_3  and  C_17
    2  A    between atoms: C_12  and  C_28
    3  A    between atoms: C_17  and  C_29
                            x       y       z     vdW  Elec       q    Type
                         _______ _______ _______ _____ _____    ______ ____

>  <TORSDO>
F 3

$$$$
=
 OpenBabel11042415503D

 34 39  0  0  0  0  0  0  0  0999 V2000
  191.5280  176.0580  145.7140 C   0  0  0  0  0  0  0  0  0  0  0  0
  191.8070  173.8390  144.8440 C   0  0  0  0  0  0  0  0  0  0  0  0
  189.8460  175.2780  144.1170 C   0  0  0  0  0  0  0  0  0  0  0  0
  188.3020  174.7890  142.3570 C   0  0  0  0  0  0  0  0  0  0  0  0
  193.4640  174.8340  146.1720 N   0  0  0  0  0  0  0  0  0  0  0  0
  193.0020  173.7930  145.4830 N   0  0  0  0  0  0  0  0  0  0  0  0
  190.1850  173.7410  142.2160 C   0  0  0  0  0  3  0  0  0  0  0  0
  191.0590  175.0430  144.8470 C   0  0  0  0  0  0  0  0  0  0  0  0
  188.1860  174.0370  141.2060 C   0  0  0  0  0  3  0  0  0  0  0  0
  192.7350  175.9360  146.3160 N   0  0  0  0  0  0  0  0  0  0  0  0
  189.0040  176.3630  144.5140 C   0  0  0  0  0  0  0  0  0  0  0  0
  190.7420  177.1670  146.0040 C   0  0  0  0  0  3  0  0  0  0  0  0
  191.2540  172.6070  144.3930 N   0  0  0  0  0  1  0  0  0  0  0  0
  187.3940  175.7370  142.7980 C   0  0  0  0  0  3  0  0  0  0  0  0
  187.7320  176.5410  143.8950 C   0  0  0  0  0  0  0  0  0  0  0  0
  189.4010  173.3800  141.1370 C   0  0  0  0  0  0  0  0  0  0  0  0
  189.4760  174.5880  142.9860 N   0  0  0  0  0  0  0  0  0  0  0  0
  189.4820  177.2990  145.4380 C   0  0  0  0  0  3  0  0  0  0  0  0
  185.1360  178.4100  145.9520 C   0  0  0  0  0  0  0  0  0  0  0  0
  184.8470  179.4880  145.1130 C   0  0  0  0  0  3  0  0  0  0  0  0
  186.7500  177.5680  144.3340 C   0  0  0  0  0  0  0  0  0  0  0  0
  185.4980  179.6090  143.8840 C   0  0  0  0  0  3  0  0  0  0  0  0
  186.0780  177.4530  145.5610 C   0  0  0  0  0  3  0  0  0  0  0  0
  186.4410  178.6530  143.4950 C   0  0  0  0  0  3  0  0  0  0  0  0
  184.4410  178.2760  147.2570 C   0  0  0  0  0  1  0  0  0  0  0  0
  189.7930  172.4090  140.0800 C   0  0  0  0  0  2  0  0  0  0  0  0
  190.0950  173.1220  138.8490 N   0  0  0  0  0  2  0  0  0  0  0  0
  190.8570  174.4500  136.4410 O   0  0  0  0  0  0  0  0  0  0  0  0
  190.3140  172.4480  137.6080 C   0  0  0  0  0  0  0  0  0  0  0  0
  190.5940  173.2190  136.3870 C   0  0  0  0  0  0  0  0  0  0  0  0
  190.0580  171.2280  135.0720 C   0  0  0  0  0  2  0  0  0  0  0  0
  190.5010  170.4170  136.2920 C   0  0  0  0  0  2  0  0  0  0  0  0
  190.2230  171.1510  137.5310 N   0  0  0  0  0  0  0  0  0  0  0  0
  190.5720  172.5570  135.1600 O   0  0  0  0  0  0  0  0  0  0  0  0
  1 12  1  0  0  0  0
  1 10  2  0  0  0  0
  2  8  2  0  0  0  0
  2  6  1  0  0  0  0
  3 11  2  0  0  0  0
  3  8  1  0  0  0  0
  4 14  1  0  0  0  0
  4 17  1  0  0  0  0
  5 10  1  0  0  0  0
  6  5  2  0  0  0  0
  7 17  1  0  0  0  0
  8  1  1  0  0  0  0
  9  4  2  0  0  0  0
 11 18  1  0  0  0  0
 13  2  1  0  0  0  0
 14 15  2  0  0  0  0
 15 21  1  0  0  0  0
 15 11  1  0  0  0  0
 16  9  1  0  0  0  0
 16  7  2  0  0  0  0
 17  3  1  0  0  0  0
 18 12  2  0  0  0  0
 19 25  1  0  0  0  0
 20 19  2  0  0  0  0
 21 23  2  0  0  0  0
 22 20  1  0  0  0  0
 23 19  1  0  0  0  0
 24 22  2  0  0  0  0
 24 21  1  0  0  0  0
 26 16  1  0  0  0  0
 27 26  1  0  0  0  0
 29 27  1  0  0  0  0
 30 28  2  0  0  0  0
 30 29  1  0  0  0  0
 31 34  1  0  0  0  0
 31 32  1  0  0  0  0
 32 33  1  0  0  0  0
 33 29  2  0  0  0  0
 34 30  1  0  0  0  0
M  END
>  <MODEL>
5

>  <REMARK>
 VINA RESULT:      -8.2      3.606      6.333
  Name = 
  3 active torsions:
  status: ('A' for Active; 'I' for Inactive)
    1  A    between atoms: N_3  and  C_17
    2  A    between atoms: C_12  and  C_28
    3  A    between atoms: C_17  and  C_29
                            x       y       z     vdW  Elec       q    Type
                         _______ _______ _______ _____ _____    ______ ____

>  <TORSDO>
F 3

$$$$
=
 OpenBabel11042415503D

 34 39  0  0  0  0  0  0  0  0999 V2000
  185.6180  177.4680  143.4280 C   0  0  0  0  0  0  0  0  0  0  0  0
  185.8590  177.5000  141.0400 C   0  0  0  0  0  0  0  0  0  0  0  0
  187.5380  176.2700  142.4940 C   0  0  0  0  0  0  0  0  0  0  0  0
  189.2740  174.8130  141.7340 C   0  0  0  0  0  0  0  0  0  0  0  0
  183.9410  178.3680  142.0750 N   0  0  0  0  0  0  0  0  0  0  0  0
  184.6530  178.1190  140.9790 N   0  0  0  0  0  0  0  0  0  0  0  0
  187.6570  175.0910  140.3300 C   0  0  0  0  0  3  0  0  0  0  0  0
  186.3460  177.0440  142.2910 C   0  0  0  0  0  0  0  0  0  0  0  0
  189.6260  174.0300  140.6540 C   0  0  0  0  0  3  0  0  0  0  0  0
  184.4190  178.0800  143.2810 N   0  0  0  0  0  0  0  0  0  0  0  0
  188.1110  176.2230  143.8030 C   0  0  0  0  0  0  0  0  0  0  0  0
  186.1410  177.3130  144.7070 C   0  0  0  0  0  3  0  0  0  0  0  0
  186.6810  177.5430  139.8790 N   0  0  0  0  0  1  0  0  0  0  0  0
  189.9370  174.8570  142.9490 C   0  0  0  0  0  3  0  0  0  0  0  0
  189.3640  175.5740  144.0080 C   0  0  0  0  0  0  0  0  0  0  0  0
  188.5760  174.2220  139.7730 C   0  0  0  0  0  0  0  0  0  0  0  0
  188.1220  175.4800  141.5320 N   0  0  0  0  0  0  0  0  0  0  0  0
  187.3870  176.7290  144.8880 C   0  0  0  0  0  3  0  0  0  0  0  0
  192.0610  176.0850  146.6390 C   0  0  0  0  0  0  0  0  0  0  0  0
  191.4500  175.5350  147.7680 C   0  0  0  0  0  3  0  0  0  0  0  0
  190.0820  175.5850  145.3100 C   0  0  0  0  0  0  0  0  0  0  0  0
  190.1620  175.0040  147.6750 C   0  0  0  0  0  3  0  0  0  0  0  0
  191.3830  176.1040  145.4170 C   0  0  0  0  0  3  0  0  0  0  0  0
  189.4840  175.0250  146.4520 C   0  0  0  0  0  3  0  0  0  0  0  0
  193.4330  176.6450  146.7350 C   0  0  0  0  0  1  0  0  0  0  0  0
  188.4680  173.6120  138.4210 C   0  0  0  0  0  2  0  0  0  0  0  0
  189.7980  173.3250  137.9070 N   0  0  0  0  0  2  0  0  0  0  0  0
  192.4520  172.7020  137.0660 O   0  0  0  0  0  0  0  0  0  0  0  0
  190.2890  171.9910  137.7560 C   0  0  0  0  0  0  0  0  0  0  0  0
  191.6340  171.7560  137.2090 C   0  0  0  0  0  0  0  0  0  0  0  0
  191.0050  169.4270  136.8080 C   0  0  0  0  0  2  0  0  0  0  0  0
  190.0260  169.5870  137.9740 C   0  0  0  0  0  2  0  0  0  0  0  0
  189.5390  170.9690  138.0540 N   0  0  0  0  0  0  0  0  0  0  0  0
  191.9940  170.4540  136.8590 O   0  0  0  0  0  0  0  0  0  0  0  0
  1 12  1  0  0  0  0
  2  8  1  0  0  0  0
  3 11  2  0  0  0  0
  4 14  1  0  0  0  0
  5 10  2  0  0  0  0
  6  2  2  0  0  0  0
  6  5  1  0  0  0  0
  7 17  1  0  0  0  0
  8  3  1  0  0  0  0
  8  1  2  0  0  0  0
  9  4  2  0  0  0  0
 10  1  1  0  0  0  0
 11 15  1  0  0  0  0
 11 18  1  0  0  0  0
 12 18  2  0  0  0  0
 13  2  1  0  0  0  0
 14 15  2  0  0  0  0
 15 21  1  0  0  0  0
 16  7  2  0  0  0  0
 16  9  1  0  0  0  0
 17  4  1  0  0  0  0
 17  3  1  0  0  0  0
 19 25  1  0  0  0  0
 19 20  1  0  0  0  0
 21 23  1  0  0  0  0
 21 24  2  0  0  0  0
 22 20  2  0  0  0  0
 23 19  2  0  0  0  0
 24 22  1  0  0  0  0
 26 16  1  0  0  0  0
 27 26  1  0  0  0  0
 28 30  2  0  0  0  0
 29 27  1  0  0  0  0
 29 33  2  0  0  0  0
 30 29  1  0  0  0  0
 31 34  1  0  0  0  0
 31 32  1  0  0  0  0
 32 33  1  0  0  0  0
 34 30  1  0  0  0  0
M  END
>  <MODEL>
6

>  <REMARK>
 VINA RESULT:      -8.1      4.135      7.171
  Name = 
  3 active torsions:
  status: ('A' for Active; 'I' for Inactive)
    1  A    between atoms: N_3  and  C_17
    2  A    between atoms: C_12  and  C_28
    3  A    between atoms: C_17  and  C_29
                            x       y       z     vdW  Elec       q    Type
                         _______ _______ _______ _____ _____    ______ ____

>  <TORSDO>
F 3

$$$$
=
 OpenBabel11042415503D

 34 39  0  0  0  0  0  0  0  0999 V2000
  191.4400  176.0850  145.8010 C   0  0  0  0  0  0  0  0  0  0  0  0
  191.7930  173.9190  144.8290 C   0  0  0  0  0  0  0  0  0  0  0  0
  189.8420  175.3680  144.0920 C   0  0  0  0  0  0  0  0  0  0  0  0
  188.3860  174.9520  142.2410 C   0  0  0  0  0  0  0  0  0  0  0  0
  193.3740  174.8650  146.2810 N   0  0  0  0  0  0  0  0  0  0  0  0
  192.9600  173.8570  145.5180 N   0  0  0  0  0  0  0  0  0  0  0  0
  190.2900  173.9390  142.1300 C   0  0  0  0  0  3  0  0  0  0  0  0
  191.0260  175.1110  144.8620 C   0  0  0  0  0  0  0  0  0  0  0  0
  188.3320  174.2600  141.0490 C   0  0  0  0  0  3  0  0  0  0  0  0
  192.6210  175.9480  146.4490 N   0  0  0  0  0  0  0  0  0  0  0  0
  188.9660  176.4180  144.5070 C   0  0  0  0  0  0  0  0  0  0  0  0
  190.6240  177.1660  146.1130 C   0  0  0  0  0  3  0  0  0  0  0  0
  191.2810  172.7060  144.2890 N   0  0  0  0  0  1  0  0  0  0  0  0
  187.4440  175.8620  142.6900 C   0  0  0  0  0  3  0  0  0  0  0  0
  187.7200  176.6110  143.8420 C   0  0  0  0  0  0  0  0  0  0  0  0
  189.5600  173.6250  140.9990 C   0  0  0  0  0  0  0  0  0  0  0  0
  189.5340  174.7340  142.9110 N   0  0  0  0  0  0  0  0  0  0  0  0
  189.3880  177.3100  145.4990 C   0  0  0  0  0  3  0  0  0  0  0  0
  185.0950  178.3950  145.9370 C   0  0  0  0  0  0  0  0  0  0  0  0
  184.7330  179.4430  145.0880 C   0  0  0  0  0  3  0  0  0  0  0  0
  186.7030  177.6000  144.2900 C   0  0  0  0  0  0  0  0  0  0  0  0
  185.3460  179.5710  143.8390 C   0  0  0  0  0  3  0  0  0  0  0  0
  186.0690  177.4760  145.5370 C   0  0  0  0  0  3  0  0  0  0  0  0
  186.3220  178.6530  143.4410 C   0  0  0  0  0  3  0  0  0  0  0  0
  184.4410  178.2530  147.2630 C   0  0  0  0  0  1  0  0  0  0  0  0
  190.0140  172.7180  139.9110 C   0  0  0  0  0  2  0  0  0  0  0  0
  191.3550  172.2370  140.2030 N   0  0  0  0  0  2  0  0  0  0  0  0
  193.9440  171.3030  140.9560 O   0  0  0  0  0  0  0  0  0  0  0  0
  191.5990  170.9440  140.7620 C   0  0  0  0  0  0  0  0  0  0  0  0
  192.9780  170.4980  141.0170 C   0  0  0  0  0  0  0  0  0  0  0  0
  192.1450  168.2050  141.1910 C   0  0  0  0  0  2  0  0  0  0  0  0
  190.8160  168.8190  141.6380 C   0  0  0  0  0  2  0  0  0  0  0  0
  190.6140  170.1290  141.0070 N   0  0  0  0  0  0  0  0  0  0  0  0
  193.1960  169.1580  141.3400 O   0  0  0  0  0  0  0  0  0  0  0  0
  1 12  1  0  0  0  0
  1 10  2  0  0  0  0
  2  8  2  0  0  0  0
  2  6  1  0  0  0  0
  3 11  2  0  0  0  0
  3  8  1  0  0  0  0
  4 14  1  0  0  0  0
  4 17  1  0  0  0  0
  5 10  1  0  0  0  0
  6  5  2  0  0  0  0
  7 17  1  0  0  0  0
  8  1  1  0  0  0  0
  9  4  2  0  0  0  0
 11 18  1  0  0  0  0
 13  2  1  0  0  0  0
 14 15  2  0  0  0  0
 15 21  1  0  0  0  0
 15 11  1  0  0  0  0
 16  9  1  0  0  0  0
 16  7  2  0  0  0  0
 17  3  1  0  0  0  0
 18 12  2  0  0  0  0
 19 25  1  0  0  0  0
 20 19  2  0  0  0  0
 21 23  2  0  0  0  0
 22 20  1  0  0  0  0
 23 19  1  0  0  0  0
 24 22  2  0  0  0  0
 24 21  1  0  0  0  0
 26 27  1  0  0  0  0
 26 16  1  0  0  0  0
 27 29  1  0  0  0  0
 28 30  2  0  0  0  0
 29 33  2  0  0  0  0
 29 30  1  0  0  0  0
 30 34  1  0  0  0  0
 31 34  1  0  0  0  0
 31 32  1  0  0  0  0
 33 32  1  0  0  0  0
M  END
>  <MODEL>
7

>  <REMARK>
 VINA RESULT:      -8.1      2.771      5.177
  Name = 
  3 active torsions:
  status: ('A' for Active; 'I' for Inactive)
    1  A    between atoms: N_3  and  C_17
    2  A    between atoms: C_12  and  C_28
    3  A    between atoms: C_17  and  C_29
                            x       y       z     vdW  Elec       q    Type
                         _______ _______ _______ _____ _____    ______ ____

>  <TORSDO>
F 3

$$$$
=
 OpenBabel11042415503D

 34 39  0  0  0  0  0  0  0  0999 V2000
  192.0650  176.1370  146.0010 C   0  0  0  0  0  0  0  0  0  0  0  0
  192.7260  174.1550  144.8210 C   0  0  0  0  0  0  0  0  0  0  0  0
  190.5360  175.3200  144.2740 C   0  0  0  0  0  0  0  0  0  0  0  0
  189.0920  174.8330  142.4310 C   0  0  0  0  0  0  0  0  0  0  0  0
  194.1900  175.2180  146.3140 N   0  0  0  0  0  0  0  0  0  0  0  0
  193.9140  174.2260  145.4700 N   0  0  0  0  0  0  0  0  0  0  0  0
  191.1290  174.1650  142.1750 C   0  0  0  0  0  3  0  0  0  0  0  0
  191.7770  175.1960  144.9860 C   0  0  0  0  0  0  0  0  0  0  0  0
  189.1030  174.2510  141.1810 C   0  0  0  0  0  3  0  0  0  0  0  0
  193.2780  176.1420  146.6030 N   0  0  0  0  0  0  0  0  0  0  0  0
  189.5190  176.1690  144.8090 C   0  0  0  0  0  0  0  0  0  0  0  0
  191.0980  177.0360  146.4350 C   0  0  0  0  0  3  0  0  0  0  0  0
  192.3960  172.9260  144.1830 N   0  0  0  0  0  1  0  0  0  0  0  0
  188.0340  175.5310  142.9880 C   0  0  0  0  0  3  0  0  0  0  0  0
  188.2320  176.2100  144.1980 C   0  0  0  0  0  0  0  0  0  0  0  0
  190.4150  173.8360  141.0390 C   0  0  0  0  0  0  0  0  0  0  0  0
  190.2870  174.7500  143.0470 N   0  0  0  0  0  0  0  0  0  0  0  0
  189.8300  177.0270  145.8700 C   0  0  0  0  0  3  0  0  0  0  0  0
  185.6700  178.9540  144.8080 C   0  0  0  0  0  0  0  0  0  0  0  0
  184.9610  178.4300  145.8910 C   0  0  0  0  0  3  0  0  0  0  0  0
  187.0870  176.9730  144.7630 C   0  0  0  0  0  0  0  0  0  0  0  0
  185.3120  177.1860  146.4180 C   0  0  0  0  0  3  0  0  0  0  0  0
  186.7300  178.2320  144.2520 C   0  0  0  0  0  3  0  0  0  0  0  0
  186.3710  176.4640  145.8600 C   0  0  0  0  0  3  0  0  0  0  0  0
  185.3020  180.2800  144.2490 C   0  0  0  0  0  1  0  0  0  0  0  0
  190.9650  173.1150  139.8600 C   0  0  0  0  0  2  0  0  0  0  0  0
  192.3140  173.5840  139.5870 N   0  0  0  0  0  2  0  0  0  0  0  0
  194.9750  174.3720  138.9230 O   0  0  0  0  0  0  0  0  0  0  0  0
  192.6660  174.2340  138.3640 C   0  0  0  0  0  0  0  0  0  0  0  0
  194.0410  174.7090  138.1480 C   0  0  0  0  0  0  0  0  0  0  0  0
  193.2160  176.0990  136.3130 C   0  0  0  0  0  2  0  0  0  0  0  0
  192.1010  175.0620  136.1520 C   0  0  0  0  0  2  0  0  0  0  0  0
  191.7680  174.4560  137.4460 N   0  0  0  0  0  0  0  0  0  0  0  0
  194.2970  175.5380  137.0550 O   0  0  0  0  0  0  0  0  0  0  0  0
  1 12  1  0  0  0  0
  1 10  2  0  0  0  0
  2  8  2  0  0  0  0
  2  6  1  0  0  0  0
  3 11  2  0  0  0  0
  3  8  1  0  0  0  0
  4 14  1  0  0  0  0
  4 17  1  0  0  0  0
  5 10  1  0  0  0  0
  6  5  2  0  0  0  0
  7 17  1  0  0  0  0
  8  1  1  0  0  0  0
  9  4  2  0  0  0  0
 11 18  1  0  0  0  0
 13  2  1  0  0  0  0
 14 15  2  0  0  0  0
 15 21  1  0  0  0  0
 15 11  1  0  0  0  0
 16  9  1  0  0  0  0
 16  7  2  0  0  0  0
 17  3  1  0  0  0  0
 18 12  2  0  0  0  0
 19 20  1  0  0  0  0
 20 22  2  0  0  0  0
 21 24  2  0  0  0  0
 23 21  1  0  0  0  0
 23 19  2  0  0  0  0
 24 22  1  0  0  0  0
 25 19  1  0  0  0  0
 26 16  1  0  0  0  0
 27 26  1  0  0  0  0
 29 27  1  0  0  0  0
 30 29  1  0  0  0  0
 30 28  2  0  0  0  0
 31 34  1  0  0  0  0
 32 31  1  0  0  0  0
 32 33  1  0  0  0  0
 33 29  2  0  0  0  0
 34 30  1  0  0  0  0
M  END
>  <MODEL>
8

>  <REMARK>
 VINA RESULT:      -8.0      2.571      5.341
  Name = 
  3 active torsions:
  status: ('A' for Active; 'I' for Inactive)
    1  A    between atoms: N_3  and  C_17
    2  A    between atoms: C_12  and  C_28
    3  A    between atoms: C_17  and  C_29
                            x       y       z     vdW  Elec       q    Type
                         _______ _______ _______ _____ _____    ______ ____

>  <TORSDO>
F 3

$$$$
=
 OpenBabel11042415503D

 34 39  0  0  0  0  0  0  0  0999 V2000
  191.6350  173.3550  141.0370 C   0  0  0  0  0  0  0  0  0  0  0  0
  189.5080  174.1840  141.7770 C   0  0  0  0  0  0  0  0  0  0  0  0
  191.4720  174.0440  143.3800 C   0  0  0  0  0  0  0  0  0  0  0  0
  191.5660  174.9500  145.5910 C   0  0  0  0  0  0  0  0  0  0  0  0
  189.9090  173.7340  139.5100 N   0  0  0  0  0  0  0  0  0  0  0  0
  189.0930  174.1210  140.4870 N   0  0  0  0  0  0  0  0  0  0  0  0
  190.0770  175.8520  144.3140 C   0  0  0  0  0  3  0  0  0  0  0  0
  190.8620  173.9000  142.0890 C   0  0  0  0  0  0  0  0  0  0  0  0
  190.9770  175.9120  146.3860 C   0  0  0  0  0  3  0  0  0  0  0  0
  191.1470  173.3280  139.7750 N   0  0  0  0  0  0  0  0  0  0  0  0
  192.7000  173.3600  143.6400 C   0  0  0  0  0  0  0  0  0  0  0  0
  192.8820  172.7930  141.2880 C   0  0  0  0  0  3  0  0  0  0  0  0
  188.5110  174.3110  142.7840 N   0  0  0  0  0  1  0  0  0  0  0  0
  192.6760  174.1930  145.9280 C   0  0  0  0  0  3  0  0  0  0  0  0
  193.2610  173.3760  144.9500 C   0  0  0  0  0  0  0  0  0  0  0  0
  190.0330  176.4760  145.5470 C   0  0  0  0  0  0  0  0  0  0  0  0
  191.0070  174.8810  144.3670 N   0  0  0  0  0  0  0  0  0  0  0  0
  193.3910  172.7650  142.5780 C   0  0  0  0  0  3  0  0  0  0  0  0
  195.5050  170.5230  146.0830 C   0  0  0  0  0  0  0  0  0  0  0  0
  196.7520  171.1490  146.1080 C   0  0  0  0  0  3  0  0  0  0  0  0
  194.4670  172.5930  145.3290 C   0  0  0  0  0  0  0  0  0  0  0  0
  196.8640  172.4940  145.7520 C   0  0  0  0  0  3  0  0  0  0  0  0
  194.3690  171.2430  145.7020 C   0  0  0  0  0  3  0  0  0  0  0  0
  195.7280  173.2130  145.3690 C   0  0  0  0  0  3  0  0  0  0  0  0
  195.3820  169.0930  146.4660 C   0  0  0  0  0  1  0  0  0  0  0  0
  189.0910  177.5650  145.9230 C   0  0  0  0  0  2  0  0  0  0  0  0
  188.0830  177.7190  144.8860 N   0  0  0  0  0  2  0  0  0  0  0  0
  186.0490  177.8510  142.8910 O   0  0  0  0  0  0  0  0  0  0  0  0
  186.6880  177.8040  145.1820 C   0  0  0  0  0  0  0  0  0  0  0  0
  185.7120  177.9820  144.0970 C   0  0  0  0  0  0  0  0  0  0  0  0
  184.0590  178.6620  145.7670 C   0  0  0  0  0  2  0  0  0  0  0  0
  184.8400  177.7920  146.7570 C   0  0  0  0  0  2  0  0  0  0  0  0
  186.2660  177.7720  146.4140 N   0  0  0  0  0  0  0  0  0  0  0  0
  184.3930  178.2930  144.4300 O   0  0  0  0  0  0  0  0  0  0  0  0
  1 12  2  0  0  0  0
  1  8  1  0  0  0  0
  2  8  1  0  0  0  0
  2 13  1  0  0  0  0
  3 11  1  0  0  0  0
  3 17  1  0  0  0  0
  4 14  1  0  0  0  0
  4  9  2  0  0  0  0
  5 10  2  0  0  0  0
  5  6  1  0  0  0  0
  6  2  2  0  0  0  0
  7 17  1  0  0  0  0
  7 16  2  0  0  0  0
  8  3  2  0  0  0  0
 10  1  1  0  0  0  0
 11 15  1  0  0  0  0
 12 18  1  0  0  0  0
 15 21  1  0  0  0  0
 15 14  2  0  0  0  0
 16 26  1  0  0  0  0
 16  9  1  0  0  0  0
 17  4  1  0  0  0  0
 18 11  2  0  0  0  0
 19 20  1  0  0  0  0
 19 25  1  0  0  0  0
 21 24  2  0  0  0  0
 21 23  1  0  0  0  0
 22 20  2  0  0  0  0
 23 19  2  0  0  0  0
 24 22  1  0  0  0  0
 27 29  1  0  0  0  0
 27 26  1  0  0  0  0
 28 30  2  0  0  0  0
 29 33  2  0  0  0  0
 30 34  1  0  0  0  0
 30 29  1  0  0  0  0
 31 32  1  0  0  0  0
 33 32  1  0  0  0  0
 34 31  1  0  0  0  0
M  END
>  <MODEL>
9

>  <REMARK>
 VINA RESULT:      -8.0      3.631      8.449
  Name = 
  3 active torsions:
  status: ('A' for Active; 'I' for Inactive)
    1  A    between atoms: N_3  and  C_17
    2  A    between atoms: C_12  and  C_28
    3  A    between atoms: C_17  and  C_29
                            x       y       z     vdW  Elec       q    Type
                         _______ _______ _______ _____ _____    ______ ____

>  <TORSDO>
F 3

$$$$
