=
 OpenBabel11042417153D

 31 36  0  0  1  0  0  0  0  0999 V2000
  195.6130  175.0640  144.2970 C   0  0  0  0  0  0  0  0  0  0  0  0
  193.1190  175.6260  141.9000 N   0  0  0  0  0  0  0  0  0  0  0  0
  189.6950  174.7280  143.5260 C   0  0  2  0  0  3  0  0  0  0  0  0
  194.2700  175.9900  142.4070 C   0  0  0  0  0  0  0  0  0  0  0  0
  197.1500  176.6210  143.1740 C   0  0  0  0  0  2  0  0  0  0  0  0
  189.4900  175.7650  144.4050 C   0  0  1  0  0  3  0  0  0  0  0  0
  194.5020  176.0080  143.9260 C   0  0  1  0  0  3  0  0  0  0  0  0
  188.7660  175.3620  145.6990 C   0  0  0  0  0  2  0  0  0  0  0  0
  197.9020  174.4700  144.1860 O   0  0  0  0  0  1  0  0  0  0  0  0
  190.8050  175.0620  144.4120 N   0  0  2  0  0  0  0  0  0  0  0  0
  190.5420  175.0200  142.2350 C   0  0  0  0  0  2  0  0  0  0  0  0
  195.3310  176.3330  141.4980 N   0  0  0  0  0  0  0  0  0  0  0  0
  196.8610  175.3500  143.9150 C   0  0  0  0  0  0  0  0  0  0  0  0
  193.2430  175.8170  144.7370 C   0  0  0  0  0  0  0  0  0  0  0  0
  192.1190  175.1870  144.0250 C   0  0  2  0  0  3  0  0  0  0  0  0
  192.0190  175.1970  142.7130 C   0  0  2  0  0  3  0  0  0  0  0  0
  191.8660  176.3380  146.6520 C   0  0  0  0  0  0  0  0  0  0  0  0
  196.5770  176.5970  141.7860 C   0  0  0  0  0  3  0  0  0  0  0  0
  195.3270  173.8210  144.9390 N   0  0  0  0  0  1  0  0  0  0  0  0
  193.1410  176.3320  145.9770 C   0  0  0  0  0  3  0  0  0  0  0  0
  189.2310  176.1690  146.9410 C   0  0  1  0  0  3  0  0  0  0  0  0
  190.6960  176.2910  146.9400 C   0  0  0  0  0  0  0  0  0  0  0  0
  188.6380  177.5010  146.9220 N   0  0  0  0  0  2  0  0  0  0  0  0
  185.6830  179.9360  144.0250 C   0  0  0  0  0  1  0  0  0  0  0  0
  187.0510  178.3460  145.3200 C   0  0  0  0  0  3  0  0  0  0  0  0
  183.3510  178.7390  145.4290 O   0  0  0  0  0  1  0  0  0  0  0  0
  186.1890  177.5270  147.5010 C   0  0  0  0  0  2  0  0  0  0  0  0
  184.8040  177.5100  146.8570 C   0  0  0  0  0  2  0  0  0  0  0  0
  187.2950  177.7770  146.5110 C   0  0  0  0  0  0  0  0  0  0  0  0
  184.6440  178.7250  145.9540 C   0  0  1  0  0  3  0  0  0  0  0  0
  185.6650  178.6440  144.8180 C   0  0  1  0  0  3  0  0  0  0  0  0
  1 19  1  0  0  0  0
  2  4  2  0  0  0  0
  2 16  1  0  0  0  0
  3 11  1  6  0  0  0
  3  6  1  0  0  0  0
  3 10  1  0  0  0  0
  5 13  1  0  0  0  0
  6 10  1  0  0  0  0
  6  8  1  1  0  0  0
  7  4  1  6  0  0  0
  7  1  1  0  0  0  0
  7 14  1  0  0  0  0
  8 21  1  0  0  0  0
 11 16  1  0  0  0  0
 12 18  2  0  0  0  0
 12  4  1  0  0  0  0
 13  9  1  0  0  0  0
 13  1  2  0  0  0  0
 14 20  2  0  0  0  0
 15 10  1  0  0  0  0
 15 14  1  0  0  0  0
 16 15  1  0  0  0  0
 17 22  3  0  0  0  0
 18  5  1  0  0  0  0
 20 17  1  0  0  0  0
 22 21  1  0  0  0  0
 23 21  1  0  0  0  0
 24 31  1  0  0  0  0
 25 29  2  0  0  0  0
 26 30  1  0  0  0  0
 28 27  1  0  0  0  0
 29 23  1  0  0  0  0
 29 27  1  0  0  0  0
 30 28  1  0  0  0  0
 31 25  1  0  0  0  0
 31 30  1  0  0  0  0
M  END
>  <MODEL>
1

>  <REMARK>
 VINA RESULT:      -9.0      0.000      0.000
  Name = 
  2 active torsions:
  status: ('A' for Active; 'I' for Inactive)
    1  A    between atoms: N_6  and  C_19
    2  A    between atoms: N_6  and  C_30
                            x       y       z     vdW  Elec       q    Type
                         _______ _______ _______ _____ _____    ______ ____

>  <TORSDO>
F 2

$$$$
=
 OpenBabel11042417153D

 31 36  0  0  1  0  0  0  0  0999 V2000
  187.0420  177.7360  146.9490 C   0  0  0  0  0  0  0  0  0  0  0  0
  188.3910  177.9870  143.7250 N   0  0  0  0  0  0  0  0  0  0  0  0
  192.2460  177.5060  144.0170 C   0  0  2  0  0  3  0  0  0  0  0  0
  187.3930  177.6040  144.4810 C   0  0  0  0  0  0  0  0  0  0  0  0
  184.8320  177.1260  146.0600 C   0  0  0  0  0  2  0  0  0  0  0  0
  192.3700  176.1620  144.2780 C   0  0  1  0  0  3  0  0  0  0  0  0
  187.6350  176.9180  145.8340 C   0  0  1  0  0  3  0  0  0  0  0  0
  193.5380  175.8060  145.2110 C   0  0  0  0  0  2  0  0  0  0  0  0
  185.1330  178.6460  148.0130 O   0  0  0  0  0  1  0  0  0  0  0  0
  191.4080  176.9690  145.0840 N   0  0  2  0  0  0  0  0  0  0  0  0
  191.0030  177.9760  143.1780 C   0  0  0  0  0  2  0  0  0  0  0  0
  186.0560  177.8850  144.0280 N   0  0  0  0  0  0  0  0  0  0  0  0
  185.7130  177.8490  147.0330 C   0  0  0  0  0  0  0  0  0  0  0  0
  189.0730  176.5210  146.0680 C   0  0  0  0  0  0  0  0  0  0  0  0
  190.0690  177.2340  145.2500 C   0  0  2  0  0  3  0  0  0  0  0  0
  189.7620  177.8200  144.1130 C   0  0  2  0  0  3  0  0  0  0  0  0
  190.7260  174.9730  146.9060 C   0  0  0  0  0  0  0  0  0  0  0  0
  184.9380  177.7060  144.6780 C   0  0  0  0  0  3  0  0  0  0  0  0
  187.8820  178.4800  147.8310 N   0  0  0  0  0  1  0  0  0  0  0  0
  189.3770  175.4810  146.8670 C   0  0  0  0  0  3  0  0  0  0  0  0
  193.2390  174.5940  146.1350 C   0  0  1  0  0  3  0  0  0  0  0  0
  191.8810  174.7060  146.6870 C   0  0  0  0  0  0  0  0  0  0  0  0
  193.3500  173.3510  145.3800 N   0  0  0  0  0  2  0  0  0  0  0  0
  194.9540  169.0710  146.8500 C   0  0  0  0  0  1  0  0  0  0  0  0
  194.2260  171.1330  145.7120 C   0  0  0  0  0  3  0  0  0  0  0  0
  197.7010  169.8300  146.0010 O   0  0  0  0  0  1  0  0  0  0  0  0
  195.8420  173.0060  145.4820 C   0  0  0  0  0  2  0  0  0  0  0  0
  196.9160  171.9460  145.2480 C   0  0  0  0  0  2  0  0  0  0  0  0
  194.4470  172.4390  145.4920 C   0  0  0  0  0  0  0  0  0  0  0  0
  196.6730  170.7590  146.1700 C   0  0  1  0  0  3  0  0  0  0  0  0
  195.3300  170.1170  145.8190 C   0  0  1  0  0  3  0  0  0  0  0  0
  1 13  2  0  0  0  0
  1 19  1  0  0  0  0
  2 16  1  0  0  0  0
  2  4  2  0  0  0  0
  3 11  1  6  0  0  0
  3  6  1  0  0  0  0
  3 10  1  0  0  0  0
  5 13  1  0  0  0  0
  6 10  1  0  0  0  0
  6  8  1  1  0  0  0
  7  4  1  6  0  0  0
  7 14  1  0  0  0  0
  7  1  1  0  0  0  0
  8 21  1  0  0  0  0
 10 15  1  0  0  0  0
 11 16  1  0  0  0  0
 12  4  1  0  0  0  0
 12 18  2  0  0  0  0
 13  9  1  0  0  0  0
 14 20  2  0  0  0  0
 15 14  1  0  0  0  0
 16 15  1  0  0  0  0
 18  5  1  0  0  0  0
 20 17  1  0  0  0  0
 21 22  1  0  0  0  0
 22 17  3  0  0  0  0
 23 29  1  0  0  0  0
 23 21  1  0  0  0  0
 25 31  1  0  0  0  0
 26 30  1  0  0  0  0
 27 29  1  0  0  0  0
 28 27  1  0  0  0  0
 28 30  1  0  0  0  0
 29 25  2  0  0  0  0
 31 30  1  0  0  0  0
 31 24  1  0  0  0  0
M  END
>  <MODEL>
2

>  <REMARK>
 VINA RESULT:      -8.5      2.829      9.138
  Name = 
  2 active torsions:
  status: ('A' for Active; 'I' for Inactive)
    1  A    between atoms: N_6  and  C_19
    2  A    between atoms: N_6  and  C_30
                            x       y       z     vdW  Elec       q    Type
                         _______ _______ _______ _____ _____    ______ ____

>  <TORSDO>
F 2

$$$$
=
 OpenBabel11042417153D

 31 36  0  0  1  0  0  0  0  0999 V2000
  193.2160  170.6600  143.3970 C   0  0  0  0  0  0  0  0  0  0  0  0
  194.6400  172.8620  145.7220 N   0  0  0  0  0  0  0  0  0  0  0  0
  193.3120  176.4370  144.9290 C   0  0  2  0  0  3  0  0  0  0  0  0
  194.1630  171.6670  145.4760 C   0  0  0  0  0  0  0  0  0  0  0  0
  193.5420  168.7410  144.9000 C   0  0  0  0  0  2  0  0  0  0  0  0
  192.0040  176.3800  145.3480 C   0  0  1  0  0  3  0  0  0  0  0  0
  192.9000  171.4730  144.6230 C   0  0  1  0  0  3  0  0  0  0  0  0
  191.0320  177.2140  144.4990 C   0  0  0  0  0  2  0  0  0  0  0  0
  193.9000  168.6080  142.4360 O   0  0  0  0  0  1  0  0  0  0  0  0
  192.5270  175.2990  144.4650 N   0  0  2  0  0  0  0  0  0  0  0  0
  194.3550  175.5140  145.6570 C   0  0  0  0  0  2  0  0  0  0  0  0
  194.8830  170.5330  145.9900 N   0  0  0  0  0  0  0  0  0  0  0  0
  193.5420  169.3720  143.5400 C   0  0  0  0  0  0  0  0  0  0  0  0
  192.1590  172.7550  144.3300 C   0  0  0  0  0  0  0  0  0  0  0  0
  192.9500  173.9900  144.4640 C   0  0  2  0  0  3  0  0  0  0  0  0
  194.0410  174.0550  145.1970 C   0  0  2  0  0  3  0  0  0  0  0  0
  190.1010  173.9890  144.0520 C   0  0  0  0  0  0  0  0  0  0  0  0
  194.6560  169.2690  145.7580 C   0  0  0  0  0  3  0  0  0  0  0  0
  193.2860  171.2790  142.1120 N   0  0  0  0  0  1  0  0  0  0  0  0
  190.8310  172.7460  144.1080 C   0  0  0  0  0  3  0  0  0  0  0  0
  189.6200  176.5800  144.3800 C   0  0  1  0  0  3  0  0  0  0  0  0
  189.7380  175.1350  144.1350 C   0  0  0  0  0  0  0  0  0  0  0  0
  188.8690  176.7990  145.6100 N   0  0  0  0  0  2  0  0  0  0  0  0
  185.6070  179.9780  144.0910 C   0  0  0  0  0  1  0  0  0  0  0  0
  187.0400  178.0620  144.6830 C   0  0  0  0  0  3  0  0  0  0  0  0
  183.6010  178.7660  145.9210 O   0  0  0  0  0  1  0  0  0  0  0  0
  186.6970  176.9440  146.8750 C   0  0  0  0  0  2  0  0  0  0  0  0
  185.2010  177.1710  146.6670 C   0  0  0  0  0  2  0  0  0  0  0  0
  187.5170  177.2670  145.6540 C   0  0  0  0  0  0  0  0  0  0  0  0
  184.9730  178.5380  146.0380 C   0  0  1  0  0  3  0  0  0  0  0  0
  185.6250  178.5710  144.6560 C   0  0  1  0  0  3  0  0  0  0  0  0
  1 13  2  0  0  0  0
  3  6  1  0  0  0  0
  3 11  1  1  0  0  0
  4  2  2  0  0  0  0
  4 12  1  0  0  0  0
  5 18  1  0  0  0  0
  6  8  1  6  0  0  0
  7  1  1  6  0  0  0
  7  4  1  0  0  0  0
  9 13  1  0  0  0  0
 10  3  1  0  0  0  0
 10  6  1  0  0  0  0
 13  5  1  0  0  0  0
 14 15  1  0  0  0  0
 14  7  1  0  0  0  0
 15 10  1  0  0  0  0
 15 16  1  0  0  0  0
 16 11  1  0  0  0  0
 16  2  1  0  0  0  0
 17 20  1  0  0  0  0
 17 22  3  0  0  0  0
 18 12  2  0  0  0  0
 19  1  1  0  0  0  0
 20 14  2  0  0  0  0
 21  8  1  0  0  0  0
 21 23  1  0  0  0  0
 22 21  1  0  0  0  0
 23 29  1  0  0  0  0
 24 31  1  0  0  0  0
 25 29  2  0  0  0  0
 26 30  1  0  0  0  0
 28 27  1  0  0  0  0
 29 27  1  0  0  0  0
 30 28  1  0  0  0  0
 31 25  1  0  0  0  0
 31 30  1  0  0  0  0
M  END
>  <MODEL>
3

>  <REMARK>
 VINA RESULT:      -8.2      3.072      4.310
  Name = 
  2 active torsions:
  status: ('A' for Active; 'I' for Inactive)
    1  A    between atoms: N_6  and  C_19
    2  A    between atoms: N_6  and  C_30
                            x       y       z     vdW  Elec       q    Type
                         _______ _______ _______ _____ _____    ______ ____

>  <TORSDO>
F 2

$$$$
=
 OpenBabel11042417153D

 31 36  0  0  1  0  0  0  0  0999 V2000
  195.7400  175.5480  143.0980 C   0  0  0  0  0  0  0  0  0  0  0  0
  194.0810  173.8780  145.6930 N   0  0  0  0  0  0  0  0  0  0  0  0
  191.2960  176.2500  147.0330 C   0  0  2  0  0  3  0  0  0  0  0  0
  194.6940  173.7990  144.5390 C   0  0  0  0  0  0  0  0  0  0  0  0
  196.5120  173.4270  142.1220 C   0  0  0  0  0  2  0  0  0  0  0  0
  190.3590  176.2240  146.0280 C   0  0  1  0  0  3  0  0  0  0  0  0
  194.4560  174.8410  143.4360 C   0  0  1  0  0  3  0  0  0  0  0  0
  189.6170  177.5540  145.8230 C   0  0  0  0  0  2  0  0  0  0  0  0
  197.9400  175.4670  142.2260 O   0  0  0  0  0  1  0  0  0  0  0  0
  191.7880  176.4710  145.6780 N   0  0  2  0  0  0  0  0  0  0  0  0
  192.1940  174.9750  147.2290 C   0  0  0  0  0  2  0  0  0  0  0  0
  195.6360  172.7280  144.3460 N   0  0  0  0  0  0  0  0  0  0  0  0
  196.7180  174.8630  142.4970 C   0  0  0  0  0  0  0  0  0  0  0  0
  193.3030  175.7740  143.7180 C   0  0  0  0  0  0  0  0  0  0  0  0
  192.9020  175.8790  145.1310 C   0  0  2  0  0  3  0  0  0  0  0  0
  193.1770  174.9440  146.0150 C   0  0  2  0  0  3  0  0  0  0  0  0
  191.3870  177.0470  142.9800 C   0  0  0  0  0  0  0  0  0  0  0  0
  196.4380  172.5410  143.3340 C   0  0  0  0  0  3  0  0  0  0  0  0
  195.9630  176.8940  143.5190 N   0  0  0  0  0  1  0  0  0  0  0  0
  192.6160  176.3420  142.7090 C   0  0  0  0  0  3  0  0  0  0  0  0
  189.2450  177.8280  144.3400 C   0  0  1  0  0  3  0  0  0  0  0  0
  190.3780  177.4900  143.4670 C   0  0  0  0  0  0  0  0  0  0  0  0
  188.0880  177.0250  143.9600 N   0  0  0  0  0  2  0  0  0  0  0  0
  183.9460  178.7390  145.6790 C   0  0  0  0  0  1  0  0  0  0  0  0
  186.1220  178.2410  144.6340 C   0  0  0  0  0  3  0  0  0  0  0  0
  182.9080  178.9640  142.9010 O   0  0  0  0  0  1  0  0  0  0  0  0
  186.1560  177.2400  142.3600 C   0  0  0  0  0  2  0  0  0  0  0  0
  184.9630  178.1360  142.0350 C   0  0  0  0  0  2  0  0  0  0  0  0
  186.7910  177.5640  143.6870 C   0  0  0  0  0  0  0  0  0  0  0  0
  184.0290  178.2030  143.2350 C   0  0  1  0  0  3  0  0  0  0  0  0
  184.7660  178.8500  144.4090 C   0  0  1  0  0  3  0  0  0  0  0  0
  1 19  1  0  0  0  0
  2 16  1  0  0  0  0
  3 11  1  6  0  0  0
  4  2  2  0  0  0  0
  5 13  1  0  0  0  0
  5 18  1  0  0  0  0
  6  8  1  1  0  0  0
  6  3  1  0  0  0  0
  7  1  1  1  0  0  0
  7 14  1  0  0  0  0
  7  4  1  0  0  0  0
  9 13  1  0  0  0  0
 10  6  1  0  0  0  0
 10  3  1  0  0  0  0
 12  4  1  0  0  0  0
 13  1  2  0  0  0  0
 14 15  1  0  0  0  0
 15 10  1  0  0  0  0
 15 16  1  0  0  0  0
 16 11  1  0  0  0  0
 17 22  3  0  0  0  0
 18 12  2  0  0  0  0
 20 17  1  0  0  0  0
 20 14  2  0  0  0  0
 21  8  1  0  0  0  0
 22 21  1  0  0  0  0
 23 21  1  0  0  0  0
 26 30  1  0  0  0  0
 27 29  1  0  0  0  0
 28 27  1  0  0  0  0
 28 30  1  0  0  0  0
 29 23  1  0  0  0  0
 29 25  2  0  0  0  0
 30 31  1  0  0  0  0
 31 25  1  0  0  0  0
 31 24  1  0  0  0  0
M  END
>  <MODEL>
4

>  <REMARK>
 VINA RESULT:      -8.1      1.871      3.195
  Name = 
  2 active torsions:
  status: ('A' for Active; 'I' for Inactive)
    1  A    between atoms: N_6  and  C_19
    2  A    between atoms: N_6  and  C_30
                            x       y       z     vdW  Elec       q    Type
                         _______ _______ _______ _____ _____    ______ ____

>  <TORSDO>
F 2

$$$$
=
 OpenBabel11042417153D

 31 36  0  0  1  0  0  0  0  0999 V2000
  195.3060  172.7150  145.3900 C   0  0  0  0  0  0  0  0  0  0  0  0
  194.5960  174.2240  142.3080 N   0  0  0  0  0  0  0  0  0  0  0  0
  190.7220  174.3330  141.9120 C   0  0  2  0  0  3  0  0  0  0  0  0
  195.3750  174.1640  143.3590 C   0  0  0  0  0  0  0  0  0  0  0  0
  197.5170  173.7870  145.4920 C   0  0  0  0  0  2  0  0  0  0  0  0
  190.3480  175.3100  142.8050 C   0  0  1  0  0  3  0  0  0  0  0  0
  194.7980  173.9890  144.7710 C   0  0  1  0  0  3  0  0  0  0  0  0
  188.9950  175.0570  143.4870 C   0  0  0  0  0  2  0  0  0  0  0  0
  197.1180  171.4370  146.2210 O   0  0  0  0  0  1  0  0  0  0  0  0
  191.2680  174.2280  143.2620 N   0  0  2  0  0  0  0  0  0  0  0  0
  192.1500  174.4420  141.2650 C   0  0  0  0  0  2  0  0  0  0  0  0
  196.7980  174.2230  143.1480 N   0  0  0  0  0  0  0  0  0  0  0  0
  196.6020  172.6200  145.7060 C   0  0  0  0  0  0  0  0  0  0  0  0
  193.2980  174.1430  144.8400 C   0  0  0  0  0  0  0  0  0  0  0  0
  192.5820  173.9600  143.5660 C   0  0  2  0  0  3  0  0  0  0  0  0
  193.1700  174.1030  142.3980 C   0  0  2  0  0  3  0  0  0  0  0  0
  191.3050  174.9220  145.9610 C   0  0  0  0  0  0  0  0  0  0  0  0
  197.7440  174.0560  144.0320 C   0  0  0  0  0  3  0  0  0  0  0  0
  194.4500  171.5800  145.5270 N   0  0  0  0  0  1  0  0  0  0  0  0
  192.7030  174.5650  145.9720 C   0  0  0  0  0  3  0  0  0  0  0  0
  188.9370  175.5740  144.9500 C   0  0  1  0  0  3  0  0  0  0  0  0
  190.1790  175.2260  145.6560 C   0  0  0  0  0  0  0  0  0  0  0  0
  188.7690  177.0230  144.9610 N   0  0  0  0  0  2  0  0  0  0  0  0
  184.3420  177.9900  146.5480 C   0  0  0  0  0  1  0  0  0  0  0  0
  186.6790  177.9050  145.7700 C   0  0  0  0  0  3  0  0  0  0  0  0
  183.7870  179.4790  144.0350 O   0  0  0  0  0  1  0  0  0  0  0  0
  187.1320  178.0210  143.3300 C   0  0  0  0  0  2  0  0  0  0  0  0
  185.9850  179.0250  143.2460 C   0  0  0  0  0  2  0  0  0  0  0  0
  187.5210  177.6890  144.7460 C   0  0  0  0  0  0  0  0  0  0  0  0
  184.8580  178.5960  144.1750 C   0  0  1  0  0  3  0  0  0  0  0  0
  185.3630  178.6160  145.6180 C   0  0  1  0  0  3  0  0  0  0  0  0
  1 19  1  0  0  0  0
  1 13  2  0  0  0  0
  2 16  1  0  0  0  0
  2  4  2  0  0  0  0
  3 11  1  6  0  0  0
  3  6  1  0  0  0  0
  3 10  1  0  0  0  0
  5 13  1  0  0  0  0
  6 10  1  0  0  0  0
  6  8  1  1  0  0  0
  7  4  1  6  0  0  0
  7 14  1  0  0  0  0
  7  1  1  0  0  0  0
  8 21  1  0  0  0  0
 10 15  1  0  0  0  0
 11 16  1  0  0  0  0
 12  4  1  0  0  0  0
 12 18  2  0  0  0  0
 13  9  1  0  0  0  0
 14 20  2  0  0  0  0
 15 14  1  0  0  0  0
 16 15  1  0  0  0  0
 17 20  1  0  0  0  0
 18  5  1  0  0  0  0
 21 23  1  0  0  0  0
 21 22  1  0  0  0  0
 22 17  3  0  0  0  0
 26 30  1  0  0  0  0
 27 29  1  0  0  0  0
 28 27  1  0  0  0  0
 28 30  1  0  0  0  0
 29 23  1  0  0  0  0
 29 25  2  0  0  0  0
 30 31  1  0  0  0  0
 31 25  1  0  0  0  0
 31 24  1  0  0  0  0
M  END
>  <MODEL>
5

>  <REMARK>
 VINA RESULT:      -8.0      1.796      2.469
  Name = 
  2 active torsions:
  status: ('A' for Active; 'I' for Inactive)
    1  A    between atoms: N_6  and  C_19
    2  A    between atoms: N_6  and  C_30
                            x       y       z     vdW  Elec       q    Type
                         _______ _______ _______ _____ _____    ______ ____

>  <TORSDO>
F 2

$$$$
=
 OpenBabel11042417153D

 31 36  0  0  1  0  0  0  0  0999 V2000
  186.6420  178.2800  144.7280 C   0  0  0  0  0  0  0  0  0  0  0  0
  187.9300  175.6420  146.6420 N   0  0  0  0  0  0  0  0  0  0  0  0
  190.5900  173.7990  144.4750 C   0  0  2  0  0  3  0  0  0  0  0  0
  187.4600  176.8640  146.6150 C   0  0  0  0  0  0  0  0  0  0  0  0
  185.9410  179.5020  146.7440 C   0  0  0  0  0  2  0  0  0  0  0  0
  191.6420  174.6850  144.4590 C   0  0  1  0  0  3  0  0  0  0  0  0
  187.8570  177.8470  145.5030 C   0  0  1  0  0  3  0  0  0  0  0  0
  192.4370  174.6960  143.1440 C   0  0  0  0  0  2  0  0  0  0  0  0
  184.5640  179.4120  144.6680 O   0  0  0  0  0  1  0  0  0  0  0  0
  190.2740  175.1830  144.1370 N   0  0  2  0  0  0  0  0  0  0  0  0
  189.6420  173.8120  145.7280 C   0  0  0  0  0  2  0  0  0  0  0  0
  186.5210  177.2500  147.6350 N   0  0  0  0  0  0  0  0  0  0  0  0
  185.7280  179.0450  145.3330 C   0  0  0  0  0  0  0  0  0  0  0  0
  188.9910  177.3580  144.6340 C   0  0  0  0  0  0  0  0  0  0  0  0
  189.2190  175.9030  144.6480 C   0  0  2  0  0  3  0  0  0  0  0  0
  188.8140  175.1330  145.6350 C   0  0  2  0  0  3  0  0  0  0  0  0
  191.0140  177.7610  143.3790 C   0  0  0  0  0  0  0  0  0  0  0  0
  185.8440  178.3630  147.7190 C   0  0  0  0  0  3  0  0  0  0  0  0
  186.4050  177.7860  143.4100 N   0  0  0  0  0  1  0  0  0  0  0  0
  189.8100  178.2310  144.0180 C   0  0  0  0  0  3  0  0  0  0  0  0
  192.9950  176.0980  142.7750 C   0  0  1  0  0  3  0  0  0  0  0  0
  191.9680  177.1240  143.0080 C   0  0  0  0  0  0  0  0  0  0  0  0
  194.1680  176.3990  143.5880 N   0  0  0  0  0  2  0  0  0  0  0  0
  197.2420  172.9890  142.1800 C   0  0  0  0  0  1  0  0  0  0  0  0
  196.0050  174.9460  143.0270 C   0  0  0  0  0  3  0  0  0  0  0  0
  197.9410  172.4730  145.0240 O   0  0  0  0  0  1  0  0  0  0  0  0
  195.1490  174.9030  145.3590 C   0  0  0  0  0  2  0  0  0  0  0  0
  196.4380  174.1750  145.7340 C   0  0  0  0  0  2  0  0  0  0  0  0
  195.1620  175.4360  143.9500 C   0  0  0  0  0  0  0  0  0  0  0  0
  196.8050  173.1840  144.6380 C   0  0  1  0  0  3  0  0  0  0  0  0
  197.0850  173.9490  143.3430 C   0  0  1  0  0  3  0  0  0  0  0  0
  1 13  2  0  0  0  0
  1  7  1  0  0  0  0
  3 11  1  1  0  0  0
  4  2  2  0  0  0  0
  4 12  1  0  0  0  0
  5 18  1  0  0  0  0
  6  8  1  6  0  0  0
  6  3  1  0  0  0  0
  7 14  1  6  0  0  0
  7  4  1  0  0  0  0
  9 13  1  0  0  0  0
 10  6  1  0  0  0  0
 10  3  1  0  0  0  0
 10 15  1  0  0  0  0
 12 18  2  0  0  0  0
 13  5  1  0  0  0  0
 14 15  1  0  0  0  0
 15 16  1  0  0  0  0
 16 11  1  0  0  0  0
 16  2  1  0  0  0  0
 17 20  1  0  0  0  0
 19  1  1  0  0  0  0
 20 14  2  0  0  0  0
 21 22  1  0  0  0  0
 21  8  1  0  0  0  0
 21 23  1  0  0  0  0
 22 17  3  0  0  0  0
 23 29  1  0  0  0  0
 24 31  1  0  0  0  0
 25 31  1  0  0  0  0
 25 29  2  0  0  0  0
 27 28  1  0  0  0  0
 29 27  1  0  0  0  0
 30 26  1  0  0  0  0
 30 28  1  0  0  0  0
 31 30  1  0  0  0  0
M  END
>  <MODEL>
6

>  <REMARK>
 VINA RESULT:      -8.0      1.775      9.000
  Name = 
  2 active torsions:
  status: ('A' for Active; 'I' for Inactive)
    1  A    between atoms: N_6  and  C_19
    2  A    between atoms: N_6  and  C_30
                            x       y       z     vdW  Elec       q    Type
                         _______ _______ _______ _____ _____    ______ ____

>  <TORSDO>
F 2

$$$$
=
 OpenBabel11042417153D

 31 36  0  0  1  0  0  0  0  0999 V2000
  196.0150  175.5810  141.4420 C   0  0  0  0  0  0  0  0  0  0  0  0
  195.1000  173.2680  143.9100 N   0  0  0  0  0  0  0  0  0  0  0  0
  192.8960  175.1370  146.5220 C   0  0  2  0  0  3  0  0  0  0  0  0
  195.3580  173.4960  142.6470 C   0  0  0  0  0  0  0  0  0  0  0  0
  196.4020  173.7920  139.8000 C   0  0  0  0  0  2  0  0  0  0  0  0
  191.7120  175.3240  145.8480 C   0  0  1  0  0  3  0  0  0  0  0  0
  194.8550  174.7670  141.9470 C   0  0  1  0  0  3  0  0  0  0  0  0
  190.9900  176.6360  146.1940 C   0  0  0  0  0  2  0  0  0  0  0  0
  197.8730  175.7950  139.9910 O   0  0  0  0  0  1  0  0  0  0  0  0
  192.9900  175.7010  145.1800 N   0  0  2  0  0  0  0  0  0  0  0  0
  193.7670  173.8870  146.1370 C   0  0  0  0  0  2  0  0  0  0  0  0
  196.1690  172.5390  141.9400 N   0  0  0  0  0  0  0  0  0  0  0  0
  196.7570  175.1000  140.4400 C   0  0  0  0  0  0  0  0  0  0  0  0
  193.8630  175.5600  142.7630 C   0  0  0  0  0  0  0  0  0  0  0  0
  193.8830  175.3010  144.2130 C   0  0  2  0  0  3  0  0  0  0  0  0
  194.3640  174.1890  144.7260 C   0  0  2  0  0  3  0  0  0  0  0  0
  191.8630  176.9030  142.9320 C   0  0  0  0  0  0  0  0  0  0  0  0
  196.6440  172.6350  140.7280 C   0  0  0  0  0  3  0  0  0  0  0  0
  196.3950  176.7910  142.0980 N   0  0  0  0  0  1  0  0  0  0  0  0
  192.9390  176.3310  142.1600 C   0  0  0  0  0  3  0  0  0  0  0  0
  190.2230  177.2500  144.9920 C   0  0  1  0  0  3  0  0  0  0  0  0
  191.0490  177.1770  143.7780 C   0  0  0  0  0  0  0  0  0  0  0  0
  188.9780  176.5230  144.7700 N   0  0  0  0  0  2  0  0  0  0  0  0
  185.5670  179.7900  143.9050 C   0  0  0  0  0  1  0  0  0  0  0  0
  187.0340  177.8350  144.2210 C   0  0  0  0  0  3  0  0  0  0  0  0
  183.9550  178.6700  146.1380 O   0  0  0  0  0  1  0  0  0  0  0  0
  187.1250  176.7570  146.4580 C   0  0  0  0  0  2  0  0  0  0  0  0
  185.6270  177.0320  146.5630 C   0  0  0  0  0  2  0  0  0  0  0  0
  187.6800  177.0360  145.0860 C   0  0  0  0  0  0  0  0  0  0  0  0
  185.3130  178.3980  145.9700 C   0  0  1  0  0  3  0  0  0  0  0  0
  185.6610  178.3910  144.4810 C   0  0  1  0  0  3  0  0  0  0  0  0
  1 19  1  0  0  0  0
  2 16  1  0  0  0  0
  3 11  1  6  0  0  0
  4  2  2  0  0  0  0
  5 13  1  0  0  0  0
  5 18  1  0  0  0  0
  6  8  1  1  0  0  0
  6  3  1  0  0  0  0
  7  1  1  1  0  0  0
  7  4  1  0  0  0  0
  7 14  1  0  0  0  0
  9 13  1  0  0  0  0
 10  6  1  0  0  0  0
 10  3  1  0  0  0  0
 12  4  1  0  0  0  0
 13  1  2  0  0  0  0
 14 15  1  0  0  0  0
 15 16  1  0  0  0  0
 15 10  1  0  0  0  0
 16 11  1  0  0  0  0
 17 22  3  0  0  0  0
 18 12  2  0  0  0  0
 20 14  2  0  0  0  0
 20 17  1  0  0  0  0
 21  8  1  0  0  0  0
 22 21  1  0  0  0  0
 23 21  1  0  0  0  0
 23 29  1  0  0  0  0
 24 31  1  0  0  0  0
 25 31  1  0  0  0  0
 25 29  2  0  0  0  0
 27 28  1  0  0  0  0
 29 27  1  0  0  0  0
 30 26  1  0  0  0  0
 30 28  1  0  0  0  0
 31 30  1  0  0  0  0
M  END
>  <MODEL>
7

>  <REMARK>
 VINA RESULT:      -8.0      1.976      3.014
  Name = 
  2 active torsions:
  status: ('A' for Active; 'I' for Inactive)
    1  A    between atoms: N_6  and  C_19
    2  A    between atoms: N_6  and  C_30
                            x       y       z     vdW  Elec       q    Type
                         _______ _______ _______ _____ _____    ______ ____

>  <TORSDO>
F 2

$$$$
=
 OpenBabel11042417153D

 31 36  0  0  1  0  0  0  0  0999 V2000
  195.3280  171.8030  143.3600 C   0  0  0  0  0  0  0  0  0  0  0  0
  195.7280  174.2010  145.8830 N   0  0  0  0  0  0  0  0  0  0  0  0
  193.2960  177.1440  145.1110 C   0  0  2  0  0  3  0  0  0  0  0  0
  195.7170  172.9340  145.5510 C   0  0  0  0  0  0  0  0  0  0  0  0
  196.1980  170.0180  144.8120 C   0  0  0  0  0  2  0  0  0  0  0  0
  192.0640  176.6120  145.4110 C   0  0  1  0  0  3  0  0  0  0  0  0
  194.6640  172.3730  144.5830 C   0  0  1  0  0  3  0  0  0  0  0  0
  190.9240  177.1140  144.5110 C   0  0  0  0  0  2  0  0  0  0  0  0
  196.7520  170.1800  142.3870 O   0  0  0  0  0  1  0  0  0  0  0  0
  192.9910  175.8380  144.5370 N   0  0  2  0  0  0  0  0  0  0  0  0
  194.5410  176.5900  145.8940 C   0  0  0  0  0  2  0  0  0  0  0  0
  196.7500  172.0860  146.0840 N   0  0  0  0  0  0  0  0  0  0  0  0
  196.0730  170.6990  143.4830 C   0  0  0  0  0  0  0  0  0  0  0  0
  193.5450  173.3380  144.2740 C   0  0  0  0  0  0  0  0  0  0  0  0
  193.8440  174.7590  144.5250 C   0  0  2  0  0  3  0  0  0  0  0  0
  194.7900  175.1460  145.3530 C   0  0  2  0  0  3  0  0  0  0  0  0
  191.2110  173.8020  143.8620 C   0  0  0  0  0  0  0  0  0  0  0  0
  196.9950  170.8400  145.7850 C   0  0  0  0  0  3  0  0  0  0  0  0
  195.2680  172.4910  142.1110 N   0  0  0  0  0  1  0  0  0  0  0  0
  192.3230  172.8870  143.9350 C   0  0  0  0  0  3  0  0  0  0  0  0
  189.8340  176.0410  144.2430 C   0  0  1  0  0  3  0  0  0  0  0  0
  190.4650  174.7450  143.9550 C   0  0  0  0  0  0  0  0  0  0  0  0
  188.9690  175.9060  145.4100 N   0  0  0  0  0  2  0  0  0  0  0  0
  185.8850  179.1990  143.7680 C   0  0  0  0  0  1  0  0  0  0  0  0
  187.1640  177.2340  144.5280 C   0  0  0  0  0  3  0  0  0  0  0  0
  184.1200  178.6840  146.1050 O   0  0  0  0  0  1  0  0  0  0  0  0
  187.1000  176.6230  146.9360 C   0  0  0  0  0  2  0  0  0  0  0  0
  185.6290  177.0340  146.9190 C   0  0  0  0  0  2  0  0  0  0  0  0
  187.7140  176.5760  145.5610 C   0  0  0  0  0  0  0  0  0  0  0  0
  185.4530  178.2740  146.0540 C   0  0  1  0  0  3  0  0  0  0  0  0
  185.8390  177.9410  144.6130 C   0  0  1  0  0  3  0  0  0  0  0  0
  1 13  2  0  0  0  0
  3  6  1  0  0  0  0
  3 11  1  1  0  0  0
  4  2  2  0  0  0  0
  4 12  1  0  0  0  0
  5 18  1  0  0  0  0
  6  8  1  6  0  0  0
  7  1  1  6  0  0  0
  7  4  1  0  0  0  0
  9 13  1  0  0  0  0
 10  3  1  0  0  0  0
 10  6  1  0  0  0  0
 13  5  1  0  0  0  0
 14 15  1  0  0  0  0
 14  7  1  0  0  0  0
 15 10  1  0  0  0  0
 15 16  1  0  0  0  0
 16  2  1  0  0  0  0
 16 11  1  0  0  0  0
 17 20  1  0  0  0  0
 17 22  3  0  0  0  0
 18 12  2  0  0  0  0
 19  1  1  0  0  0  0
 20 14  2  0  0  0  0
 21  8  1  0  0  0  0
 21 23  1  0  0  0  0
 22 21  1  0  0  0  0
 23 29  1  0  0  0  0
 24 31  1  0  0  0  0
 25 31  1  0  0  0  0
 25 29  2  0  0  0  0
 28 27  1  0  0  0  0
 29 27  1  0  0  0  0
 30 26  1  0  0  0  0
 30 28  1  0  0  0  0
 31 30  1  0  0  0  0
M  END
>  <MODEL>
8

>  <REMARK>
 VINA RESULT:      -7.9      2.419      3.726
  Name = 
  2 active torsions:
  status: ('A' for Active; 'I' for Inactive)
    1  A    between atoms: N_6  and  C_19
    2  A    between atoms: N_6  and  C_30
                            x       y       z     vdW  Elec       q    Type
                         _______ _______ _______ _____ _____    ______ ____

>  <TORSDO>
F 2

$$$$
=
 OpenBabel11042417153D

 31 36  0  0  1  0  0  0  0  0999 V2000
  185.8940  177.6800  143.6070 C   0  0  0  0  0  0  0  0  0  0  0  0
  187.3390  177.0760  146.7420 N   0  0  0  0  0  0  0  0  0  0  0  0
  189.9890  174.2560  146.2970 C   0  0  2  0  0  3  0  0  0  0  0  0
  186.8250  177.9460  145.9080 C   0  0  0  0  0  0  0  0  0  0  0  0
  185.2180  179.9500  144.2700 C   0  0  0  0  0  2  0  0  0  0  0  0
  191.0080  174.8930  145.6280 C   0  0  1  0  0  3  0  0  0  0  0  0
  187.1490  177.8990  144.4070 C   0  0  1  0  0  3  0  0  0  0  0  0
  191.7570  174.0020  144.6250 C   0  0  0  0  0  2  0  0  0  0  0  0
  183.7760  178.4570  142.8900 O   0  0  0  0  0  1  0  0  0  0  0  0
  189.6120  175.0310  145.1190 N   0  0  2  0  0  0  0  0  0  0  0  0
  189.0840  175.1220  147.2460 C   0  0  0  0  0  2  0  0  0  0  0  0
  185.9080  178.9230  146.4310 N   0  0  0  0  0  0  0  0  0  0  0  0
  184.9740  178.6480  143.5680 C   0  0  0  0  0  0  0  0  0  0  0  0
  188.2700  176.9510  144.0550 C   0  0  0  0  0  0  0  0  0  0  0  0
  188.5500  175.9020  145.0500 C   0  0  2  0  0  3  0  0  0  0  0  0
  188.2070  176.0180  146.3150 C   0  0  2  0  0  3  0  0  0  0  0  0
  190.2340  176.3900  142.7660 C   0  0  0  0  0  0  0  0  0  0  0  0
  185.1940  179.7880  145.7640 C   0  0  0  0  0  3  0  0  0  0  0  0
  185.6310  176.4160  142.9980 N   0  0  0  0  0  1  0  0  0  0  0  0
  189.0360  177.1670  142.9690 C   0  0  0  0  0  3  0  0  0  0  0  0
  192.2510  174.7710  143.3700 C   0  0  1  0  0  3  0  0  0  0  0  0
  191.1970  175.6740  142.8860 C   0  0  0  0  0  0  0  0  0  0  0  0
  193.4400  175.5500  143.6970 N   0  0  0  0  0  2  0  0  0  0  0  0
  195.3310  174.8790  139.3350 C   0  0  0  0  0  1  0  0  0  0  0  0
  194.3960  175.6310  141.4880 C   0  0  0  0  0  3  0  0  0  0  0  0
  197.8960  176.0410  140.2890 O   0  0  0  0  0  1  0  0  0  0  0  0
  195.9220  175.8760  143.4340 C   0  0  0  0  0  2  0  0  0  0  0  0
  196.9650  176.4000  142.4490 C   0  0  0  0  0  2  0  0  0  0  0  0
  194.5560  175.7210  142.8180 C   0  0  0  0  0  0  0  0  0  0  0  0
  196.8910  175.6040  141.1530 C   0  0  1  0  0  3  0  0  0  0  0  0
  195.5210  175.8190  140.5080 C   0  0  1  0  0  3  0  0  0  0  0  0
  3 11  1  1  0  0  0
  4 12  1  0  0  0  0
  4  2  2  0  0  0  0
  5 18  1  0  0  0  0
  6  8  1  6  0  0  0
  6  3  1  0  0  0  0
  7  1  1  6  0  0  0
  7  4  1  0  0  0  0
  9 13  1  0  0  0  0
 10  6  1  0  0  0  0
 10  3  1  0  0  0  0
 13  1  2  0  0  0  0
 13  5  1  0  0  0  0
 14  7  1  0  0  0  0
 14 15  1  0  0  0  0
 15 10  1  0  0  0  0
 15 16  1  0  0  0  0
 16  2  1  0  0  0  0
 16 11  1  0  0  0  0
 17 22  3  0  0  0  0
 17 20  1  0  0  0  0
 18 12  2  0  0  0  0
 19  1  1  0  0  0  0
 20 14  2  0  0  0  0
 21 23  1  0  0  0  0
 21  8  1  0  0  0  0
 22 21  1  0  0  0  0
 24 31  1  0  0  0  0
 25 29  2  0  0  0  0
 26 30  1  0  0  0  0
 28 27  1  0  0  0  0
 29 27  1  0  0  0  0
 29 23  1  0  0  0  0
 30 28  1  0  0  0  0
 31 30  1  0  0  0  0
 31 25  1  0  0  0  0
M  END
>  <MODEL>
9

>  <REMARK>
 VINA RESULT:      -7.9      1.937      9.089
  Name = 
  2 active torsions:
  status: ('A' for Active; 'I' for Inactive)
    1  A    between atoms: N_6  and  C_19
    2  A    between atoms: N_6  and  C_30
                            x       y       z     vdW  Elec       q    Type
                         _______ _______ _______ _____ _____    ______ ____

>  <TORSDO>
F 2

$$$$
