=
 OpenBabel11042413593D

 36 38  0  0  1  0  0  0  0  0999 V2000
  191.5700  176.6910  148.0100 C   0  0  0  0  0  2  0  0  0  0  0  0
  190.8810  176.5950  146.6690 C   0  0  0  0  0  0  0  0  0  0  0  0
  190.9790  175.3650  147.5460 C   0  0  0  0  0  2  0  0  0  0  0  0
  189.5320  177.2850  146.6380 C   0  0  0  0  0  2  0  0  0  0  0  0
  188.5220  176.3720  146.1270 N   0  0  0  0  0  2  0  0  0  0  0  0
  183.8850  178.1430  142.6780 N   0  0  0  0  0  1  0  0  0  0  0  0
  185.0310  177.5560  145.4730 C   0  0  1  0  0  3  0  0  0  0  0  0
  187.1150  177.4280  144.3600 C   0  0  0  0  0  0  0  0  0  0  0  0
  186.1670  177.1550  146.3740 C   0  0  0  0  0  0  0  0  0  0  0  0
  184.4960  178.9110  145.8980 C   0  0  0  0  0  1  0  0  0  0  0  0
  187.9900  177.3950  143.3240 N   0  0  0  0  0  0  0  0  0  0  0  0
  186.0240  176.8160  147.5790 O   0  0  0  0  0  0  0  0  0  0  0  0
  185.2760  177.9130  142.8910 C   0  0  0  0  0  0  0  0  0  0  0  0
  185.7730  177.6780  144.1750 C   0  0  0  0  0  0  0  0  0  0  0  0
  187.4290  177.1460  145.7110 N   0  0  0  0  0  0  0  0  0  0  0  0
  185.7360  178.1370  140.4850 N   0  0  0  0  0  1  0  0  0  0  0  0
  187.5440  177.6340  142.0570 C   0  0  0  0  0  3  0  0  0  0  0  0
  186.1830  177.9020  141.8160 C   0  0  0  0  0  0  0  0  0  0  0  0
  191.8210  176.7280  145.4680 C   0  0  0  0  0  2  0  0  0  0  0  0
  193.1620  176.8030  145.8650 O   0  0  0  0  0  0  0  0  0  0  0  0
  193.8520  176.4240  144.8060 O   0  0  0  0  0  0  0  0  0  0  0  0
  194.0490  175.0450  144.9730 C   0  0  1  0  0  3  0  0  0  0  0  0
  193.4760  175.1340  142.6330 O   0  0  0  0  0  1  0  0  0  0  0  0
  193.9930  174.3070  143.6320 C   0  0  2  0  0  3  0  0  0  0  0  0
  193.1430  173.0480  143.7360 C   0  0  0  0  0  2  0  0  0  0  0  0
  192.1020  173.1540  144.8440 C   0  0  0  0  0  2  0  0  0  0  0  0
  190.7240  173.4560  144.2780 C   0  0  0  0  0  2  0  0  0  0  0  0
  189.8060  172.2600  144.4610 C   0  0  0  0  0  2  0  0  0  0  0  0
  189.1360  171.9110  143.1450 C   0  0  0  0  0  3  0  0  0  0  0  0
  190.0050  171.1390  142.3760 O   0  0  0  0  0  1  0  0  0  0  0  0
  188.8200  173.0790  142.4510 O   0  0  0  0  0  1  0  0  0  0  0  0
  195.3400  174.7580  145.7380 C   0  0  0  0  0  2  0  0  0  0  0  0
  196.5670  174.8090  144.8420 C   0  0  0  0  0  2  0  0  0  0  0  0
  197.2830  173.4730  144.8900 C   0  0  0  0  0  2  0  0  0  0  0  0
  196.8750  172.7000  146.1320 C   0  0  0  0  0  2  0  0  0  0  0  0
  196.8190  171.2130  145.8320 C   0  0  0  0  0  1  0  0  0  0  0  0
  2  3  1  0  0  0  0
  2  1  1  0  0  0  0
  3  1  1  0  0  0  0
  4  2  1  0  0  0  0
  5  4  1  0  0  0  0
  6 13  1  0  0  0  0
  7 10  1  1  0  0  0
  7  9  1  0  0  0  0
  8 15  1  0  0  0  0
  9 12  2  0  0  0  0
 11  8  2  0  0  0  0
 13 14  2  0  0  0  0
 14  8  1  0  0  0  0
 14  7  1  0  0  0  0
 15  5  1  0  0  0  0
 15  9  1  0  0  0  0
 16 18  1  0  0  0  0
 17 11  1  0  0  0  0
 18 17  2  0  0  0  0
 18 13  1  0  0  0  0
 19 20  1  0  0  0  0
 19  2  1  0  0  0  0
 21 22  1  0  0  0  0
 21 20  1  0  0  0  0
 22 32  1  6  0  0  0
 24 23  1  6  0  0  0
 24 25  1  0  0  0  0
 24 22  1  0  0  0  0
 25 26  1  0  0  0  0
 27 28  1  0  0  0  0
 27 26  1  0  0  0  0
 29 28  1  0  0  0  0
 30 29  1  0  0  0  0
 31 29  1  0  0  0  0
 33 34  1  0  0  0  0
 33 32  1  0  0  0  0
 34 35  1  0  0  0  0
 36 35  1  0  0  0  0
M  END
>  <MODEL>
1

>  <REMARK>
 VINA RESULT:      -6.2      0.000      0.000
  Name = 
  17 active torsions:
  status: ('A' for Active; 'I' for Inactive)
    1  A    between atoms: N_4  and  C_10
    2  A    between atoms: N_4  and  N_31
    3  A    between atoms: O_6  and  C_20
    4  A    between atoms: O_6  and  O_32
    5  A    between atoms: C_7  and  C_22
    6  A    between atoms: C_7  and  C_30
    7  A    between atoms: C_8  and  C_24
    8  A    between atoms: C_8  and  C_29
    9  A    between atoms: C_10  and  C_17
   10  A    between atoms: C_11  and  C_29
   11  A    between atoms: C_14  and  C_19
   12  A    between atoms: C_14  and  C_25
   13  A    between atoms: C_15  and  C_25
   14  A    between atoms: C_17  and  C_20
   15  A    between atoms: C_19  and  C_30
   16  A    between atoms: C_22  and  C_24
   17  A    between atoms: C_30  and  O_32
                            x       y       z     vdW  Elec       q    Type
                         _______ _______ _______ _____ _____    ______ ____

>  <TORSDO>
F 17

$$$$
=
 OpenBabel11042413593D

 36 38  0  0  1  0  0  0  0  0999 V2000
  190.3470  173.2360  144.5780 C   0  0  0  0  0  2  0  0  0  0  0  0
  189.9080  174.5140  143.9050 C   0  0  0  0  0  0  0  0  0  0  0  0
  189.3160  173.1950  143.4570 C   0  0  0  0  0  2  0  0  0  0  0  0
  189.0220  175.3780  144.7800 C   0  0  0  0  0  2  0  0  0  0  0  0
  189.4170  176.7720  144.6590 N   0  0  0  0  0  2  0  0  0  0  0  0
  183.8200  178.4430  143.1070 N   0  0  0  0  0  1  0  0  0  0  0  0
  185.9300  177.9730  145.2980 C   0  0  1  0  0  3  0  0  0  0  0  0
  187.4470  177.7630  143.4950 C   0  0  0  0  0  0  0  0  0  0  0  0
  187.3220  177.6000  145.7280 C   0  0  0  0  0  0  0  0  0  0  0  0
  185.5860  179.3550  145.8230 C   0  0  0  0  0  1  0  0  0  0  0  0
  187.8720  177.6680  142.2100 N   0  0  0  0  0  0  0  0  0  0  0  0
  187.6410  177.3210  146.9140 O   0  0  0  0  0  0  0  0  0  0  0  0
  185.1900  178.2040  142.7970 C   0  0  0  0  0  0  0  0  0  0  0  0
  186.1320  178.0230  143.8120 C   0  0  0  0  0  0  0  0  0  0  0  0
  188.2440  177.5410  144.6430 N   0  0  0  0  0  0  0  0  0  0  0  0
  184.7170  178.3060  140.3850 N   0  0  0  0  0  1  0  0  0  0  0  0
  186.9840  177.8530  141.1910 C   0  0  0  0  0  3  0  0  0  0  0  0
  185.6310  178.1280  141.4630 C   0  0  0  0  0  0  0  0  0  0  0  0
  190.9870  175.1740  143.0440 C   0  0  0  0  0  2  0  0  0  0  0  0
  192.2610  174.6650  143.3270 O   0  0  0  0  0  0  0  0  0  0  0  0
  193.0830  175.6800  143.1420 O   0  0  0  0  0  0  0  0  0  0  0  0
  193.8660  175.7310  144.3050 C   0  0  1  0  0  3  0  0  0  0  0  0
  195.5660  175.3330  142.6420 O   0  0  0  0  0  1  0  0  0  0  0  0
  195.3610  175.7040  143.9730 C   0  0  2  0  0  3  0  0  0  0  0  0
  196.1070  174.7410  144.8860 C   0  0  0  0  0  2  0  0  0  0  0  0
  195.9090  173.2900  144.4670 C   0  0  0  0  0  2  0  0  0  0  0  0
  195.2860  172.4730  145.5850 C   0  0  0  0  0  2  0  0  0  0  0  0
  193.8610  172.0880  145.2260 C   0  0  0  0  0  2  0  0  0  0  0  0
  193.8640  171.0270  144.1420 C   0  0  0  0  0  3  0  0  0  0  0  0
  193.0910  171.4640  143.0670 O   0  0  0  0  0  1  0  0  0  0  0  0
  193.3280  169.8400  144.6410 O   0  0  0  0  0  1  0  0  0  0  0  0
  193.4890  176.9270  145.1760 C   0  0  0  0  0  2  0  0  0  0  0  0
  193.3660  176.5570  146.6450 C   0  0  0  0  0  2  0  0  0  0  0  0
  192.6650  175.2190  146.7720 C   0  0  0  0  0  2  0  0  0  0  0  0
  191.3240  175.3890  147.4650 C   0  0  0  0  0  2  0  0  0  0  0  0
  191.1980  176.7910  148.0320 C   0  0  0  0  0  1  0  0  0  0  0  0
  2  1  1  0  0  0  0
  2  4  1  0  0  0  0
  3  2  1  0  0  0  0
  3  1  1  0  0  0  0
  5  4  1  0  0  0  0
  7  9  1  0  0  0  0
  7 10  1  1  0  0  0
  8 14  1  0  0  0  0
  8 15  1  0  0  0  0
  9 12  2  0  0  0  0
 11  8  2  0  0  0  0
 13  6  1  0  0  0  0
 13 14  2  0  0  0  0
 14  7  1  0  0  0  0
 15  5  1  0  0  0  0
 15  9  1  0  0  0  0
 16 18  1  0  0  0  0
 17 18  2  0  0  0  0
 17 11  1  0  0  0  0
 18 13  1  0  0  0  0
 19 20  1  0  0  0  0
 19  2  1  0  0  0  0
 21 20  1  0  0  0  0
 21 22  1  0  0  0  0
 22 32  1  6  0  0  0
 24 23  1  6  0  0  0
 24 22  1  0  0  0  0
 24 25  1  0  0  0  0
 26 25  1  0  0  0  0
 26 27  1  0  0  0  0
 28 27  1  0  0  0  0
 29 31  1  0  0  0  0
 29 28  1  0  0  0  0
 30 29  1  0  0  0  0
 32 33  1  0  0  0  0
 33 34  1  0  0  0  0
 34 35  1  0  0  0  0
 35 36  1  0  0  0  0
M  END
>  <MODEL>
2

>  <REMARK>
 VINA RESULT:      -6.0      1.641      3.417
  Name = 
  17 active torsions:
  status: ('A' for Active; 'I' for Inactive)
    1  A    between atoms: N_4  and  C_10
    2  A    between atoms: N_4  and  N_31
    3  A    between atoms: O_6  and  C_20
    4  A    between atoms: O_6  and  O_32
    5  A    between atoms: C_7  and  C_22
    6  A    between atoms: C_7  and  C_30
    7  A    between atoms: C_8  and  C_24
    8  A    between atoms: C_8  and  C_29
    9  A    between atoms: C_10  and  C_17
   10  A    between atoms: C_11  and  C_29
   11  A    between atoms: C_14  and  C_19
   12  A    between atoms: C_14  and  C_25
   13  A    between atoms: C_15  and  C_25
   14  A    between atoms: C_17  and  C_20
   15  A    between atoms: C_19  and  C_30
   16  A    between atoms: C_22  and  C_24
   17  A    between atoms: C_30  and  O_32
                            x       y       z     vdW  Elec       q    Type
                         _______ _______ _______ _____ _____    ______ ____

>  <TORSDO>
F 17

$$$$
=
 OpenBabel11042413593D

 36 38  0  0  1  0  0  0  0  0999 V2000
  188.7430  172.7440  142.5190 C   0  0  0  0  0  2  0  0  0  0  0  0
  190.0040  173.5440  142.2960 C   0  0  0  0  0  0  0  0  0  0  0  0
  189.6280  173.1240  143.7010 C   0  0  0  0  0  2  0  0  0  0  0  0
  191.1110  172.7460  141.6360 C   0  0  0  0  0  2  0  0  0  0  0  0
  192.2400  172.6250  142.5440 N   0  0  0  0  0  2  0  0  0  0  0  0
  196.4650  176.8200  143.5850 N   0  0  0  0  0  1  0  0  0  0  0  0
  195.3140  174.6170  141.7700 C   0  0  1  0  0  3  0  0  0  0  0  0
  193.4350  174.7110  143.2050 C   0  0  0  0  0  0  0  0  0  0  0  0
  194.2660  173.5870  141.4510 C   0  0  0  0  0  0  0  0  0  0  0  0
  195.4240  175.6050  140.6230 C   0  0  0  0  0  1  0  0  0  0  0  0
  192.6840  175.0730  144.2750 N   0  0  0  0  0  0  0  0  0  0  0  0
  194.4040  172.6890  140.5790 O   0  0  0  0  0  0  0  0  0  0  0  0
  195.1780  176.2510  143.8110 C   0  0  0  0  0  0  0  0  0  0  0  0
  194.6680  175.2730  142.9540 C   0  0  0  0  0  0  0  0  0  0  0  0
  193.1090  173.6940  142.2770 N   0  0  0  0  0  0  0  0  0  0  0  0
  194.8590  177.6390  145.8170 N   0  0  0  0  0  1  0  0  0  0  0  0
  193.1420  176.0360  145.1260 C   0  0  0  0  0  3  0  0  0  0  0  0
  194.3930  176.6460  144.9100 C   0  0  0  0  0  0  0  0  0  0  0  0
  189.7610  174.9920  141.8640 C   0  0  0  0  0  2  0  0  0  0  0  0
  188.4340  175.3820  142.0800 O   0  0  0  0  0  0  0  0  0  0  0  0
  188.4140  176.6780  141.8280 O   0  0  0  0  0  0  0  0  0  0  0  0
  187.4470  177.2040  142.6980 C   0  0  1  0  0  3  0  0  0  0  0  0
  186.0410  177.9760  140.8990 O   0  0  0  0  0  1  0  0  0  0  0  0
  186.0570  177.1970  142.0580 C   0  0  2  0  0  3  0  0  0  0  0  0
  185.0050  177.7160  143.0290 C   0  0  0  0  0  2  0  0  0  0  0  0
  185.1740  179.2030  143.3110 C   0  0  0  0  0  2  0  0  0  0  0  0
  185.2750  179.4730  144.8030 C   0  0  0  0  0  2  0  0  0  0  0  0
  184.1150  178.8240  145.5370 C   0  0  0  0  0  2  0  0  0  0  0  0
  184.6140  178.1190  146.7840 C   0  0  0  0  0  3  0  0  0  0  0  0
  185.7770  178.7440  147.2320 O   0  0  0  0  0  1  0  0  0  0  0  0
  184.8920  176.7830  146.4920 O   0  0  0  0  0  1  0  0  0  0  0  0
  187.4660  176.4870  144.0470 C   0  0  0  0  0  2  0  0  0  0  0  0
  188.2710  177.2410  145.0920 C   0  0  0  0  0  2  0  0  0  0  0  0
  189.4820  176.4180  145.4880 C   0  0  0  0  0  2  0  0  0  0  0  0
  189.4360  176.0920  146.9700 C   0  0  0  0  0  2  0  0  0  0  0  0
  189.2250  174.6040  147.1770 C   0  0  0  0  0  1  0  0  0  0  0  0
  1  3  1  0  0  0  0
  2  1  1  0  0  0  0
  2  3  1  0  0  0  0
  4  2  1  0  0  0  0
  4  5  1  0  0  0  0
  6 13  1  0  0  0  0
  7 10  1  6  0  0  0
  7 14  1  0  0  0  0
  8 11  1  0  0  0  0
  9  7  1  0  0  0  0
  9 15  1  0  0  0  0
 11 17  2  0  0  0  0
 12  9  2  0  0  0  0
 13 18  2  0  0  0  0
 14  8  2  0  0  0  0
 14 13  1  0  0  0  0
 15  5  1  0  0  0  0
 15  8  1  0  0  0  0
 18 17  1  0  0  0  0
 18 16  1  0  0  0  0
 19 20  1  0  0  0  0
 19  2  1  0  0  0  0
 21 20  1  0  0  0  0
 21 22  1  0  0  0  0
 22 32  1  1  0  0  0
 24 23  1  6  0  0  0
 24 22  1  0  0  0  0
 24 25  1  0  0  0  0
 25 26  1  0  0  0  0
 26 27  1  0  0  0  0
 27 28  1  0  0  0  0
 28 29  1  0  0  0  0
 29 30  1  0  0  0  0
 31 29  1  0  0  0  0
 32 33  1  0  0  0  0
 33 34  1  0  0  0  0
 34 35  1  0  0  0  0
 35 36  1  0  0  0  0
M  END
>  <MODEL>
3

>  <REMARK>
 VINA RESULT:      -6.0      3.625      8.517
  Name = 
  17 active torsions:
  status: ('A' for Active; 'I' for Inactive)
    1  A    between atoms: N_4  and  C_10
    2  A    between atoms: N_4  and  N_31
    3  A    between atoms: O_6  and  C_20
    4  A    between atoms: O_6  and  O_32
    5  A    between atoms: C_7  and  C_22
    6  A    between atoms: C_7  and  C_30
    7  A    between atoms: C_8  and  C_24
    8  A    between atoms: C_8  and  C_29
    9  A    between atoms: C_10  and  C_17
   10  A    between atoms: C_11  and  C_29
   11  A    between atoms: C_14  and  C_19
   12  A    between atoms: C_14  and  C_25
   13  A    between atoms: C_15  and  C_25
   14  A    between atoms: C_17  and  C_20
   15  A    between atoms: C_19  and  C_30
   16  A    between atoms: C_22  and  C_24
   17  A    between atoms: C_30  and  O_32
                            x       y       z     vdW  Elec       q    Type
                         _______ _______ _______ _____ _____    ______ ____

>  <TORSDO>
F 17

$$$$
=
 OpenBabel11042413593D

 36 38  0  0  1  0  0  0  0  0999 V2000
  190.0600  173.4510  140.7930 C   0  0  0  0  0  2  0  0  0  0  0  0
  189.3290  173.6500  142.1000 C   0  0  0  0  0  0  0  0  0  0  0  0
  189.5880  172.2450  141.5980 C   0  0  0  0  0  2  0  0  0  0  0  0
  190.2270  174.1320  143.2210 C   0  0  0  0  0  2  0  0  0  0  0  0
  191.5920  174.2610  142.7390 N   0  0  0  0  0  2  0  0  0  0  0  0
  196.5210  173.9200  146.2220 N   0  0  0  0  0  1  0  0  0  0  0  0
  194.2360  175.6000  145.0270 C   0  0  1  0  0  3  0  0  0  0  0  0
  193.3380  173.5160  144.3560 C   0  0  0  0  0  0  0  0  0  0  0  0
  192.9860  175.7260  144.2000 C   0  0  0  0  0  0  0  0  0  0  0  0
  193.9700  176.1060  146.4340 C   0  0  0  0  0  1  0  0  0  0  0  0
  193.2800  172.1760  144.1510 N   0  0  0  0  0  0  0  0  0  0  0  0
  192.5100  176.8230  143.8060 O   0  0  0  0  0  0  0  0  0  0  0  0
  195.4190  173.3220  145.5430 C   0  0  0  0  0  0  0  0  0  0  0  0
  194.3810  174.1070  145.0370 C   0  0  0  0  0  0  0  0  0  0  0  0
  192.4140  174.4660  143.8570 N   0  0  0  0  0  0  0  0  0  0  0  0
  196.3800  171.0780  145.8480 N   0  0  0  0  0  1  0  0  0  0  0  0
  194.2680  171.3760  144.6440 C   0  0  0  0  0  3  0  0  0  0  0  0
  195.3520  171.9300  145.3520 C   0  0  0  0  0  0  0  0  0  0  0  0
  187.9260  174.2440  141.9510 C   0  0  0  0  0  2  0  0  0  0  0  0
  187.7060  175.2880  142.8590 O   0  0  0  0  0  0  0  0  0  0  0  0
  187.9030  176.3920  142.1640 O   0  0  0  0  0  0  0  0  0  0  0  0
  187.6020  177.4380  143.0490 C   0  0  1  0  0  3  0  0  0  0  0  0
  186.0250  178.5300  141.5870 O   0  0  0  0  0  1  0  0  0  0  0  0
  186.1710  177.9450  142.8470 C   0  0  2  0  0  3  0  0  0  0  0  0
  185.7940  178.9590  143.9200 C   0  0  0  0  0  2  0  0  0  0  0  0
  184.3490  178.7960  144.3740 C   0  0  0  0  0  2  0  0  0  0  0  0
  184.2680  178.5250  145.8670 C   0  0  0  0  0  2  0  0  0  0  0  0
  185.4570  179.1440  146.5810 C   0  0  0  0  0  2  0  0  0  0  0  0
  185.8280  178.3140  147.7940 C   0  0  0  0  0  3  0  0  0  0  0  0
  187.0080  178.8090  148.3490 O   0  0  0  0  0  1  0  0  0  0  0  0
  186.0200  176.9840  147.4160 O   0  0  0  0  0  1  0  0  0  0  0  0
  187.8740  177.0360  144.4970 C   0  0  0  0  0  2  0  0  0  0  0  0
  189.2120  177.5530  144.9990 C   0  0  0  0  0  2  0  0  0  0  0  0
  189.4250  177.0970  146.4300 C   0  0  0  0  0  2  0  0  0  0  0  0
  189.9980  175.6910  146.4550 C   0  0  0  0  0  2  0  0  0  0  0  0
  189.1500  174.7910  147.3350 C   0  0  0  0  0  1  0  0  0  0  0  0
  1  3  1  0  0  0  0
  1  2  1  0  0  0  0
  2  4  1  0  0  0  0
  3  2  1  0  0  0  0
  5  4  1  0  0  0  0
  5 15  1  0  0  0  0
  7 14  1  0  0  0  0
  7 10  1  1  0  0  0
  8 14  1  0  0  0  0
  9  7  1  0  0  0  0
 11  8  2  0  0  0  0
 11 17  1  0  0  0  0
 12  9  2  0  0  0  0
 13  6  1  0  0  0  0
 14 13  2  0  0  0  0
 15  9  1  0  0  0  0
 15  8  1  0  0  0  0
 17 18  2  0  0  0  0
 18 13  1  0  0  0  0
 18 16  1  0  0  0  0
 19  2  1  0  0  0  0
 19 20  1  0  0  0  0
 21 20  1  0  0  0  0
 21 22  1  0  0  0  0
 22 32  1  1  0  0  0
 24 23  1  6  0  0  0
 24 22  1  0  0  0  0
 24 25  1  0  0  0  0
 25 26  1  0  0  0  0
 26 27  1  0  0  0  0
 27 28  1  0  0  0  0
 28 29  1  0  0  0  0
 29 30  1  0  0  0  0
 31 29  1  0  0  0  0
 32 33  1  0  0  0  0
 33 34  1  0  0  0  0
 34 35  1  0  0  0  0
 35 36  1  0  0  0  0
M  END
>  <MODEL>
4

>  <REMARK>
 VINA RESULT:      -6.0      3.246      8.574
  Name = 
  17 active torsions:
  status: ('A' for Active; 'I' for Inactive)
    1  A    between atoms: N_4  and  C_10
    2  A    between atoms: N_4  and  N_31
    3  A    between atoms: O_6  and  C_20
    4  A    between atoms: O_6  and  O_32
    5  A    between atoms: C_7  and  C_22
    6  A    between atoms: C_7  and  C_30
    7  A    between atoms: C_8  and  C_24
    8  A    between atoms: C_8  and  C_29
    9  A    between atoms: C_10  and  C_17
   10  A    between atoms: C_11  and  C_29
   11  A    between atoms: C_14  and  C_19
   12  A    between atoms: C_14  and  C_25
   13  A    between atoms: C_15  and  C_25
   14  A    between atoms: C_17  and  C_20
   15  A    between atoms: C_19  and  C_30
   16  A    between atoms: C_22  and  C_24
   17  A    between atoms: C_30  and  O_32
                            x       y       z     vdW  Elec       q    Type
                         _______ _______ _______ _____ _____    ______ ____

>  <TORSDO>
F 17

$$$$
=
 OpenBabel11042413593D

 36 38  0  0  1  0  0  0  0  0999 V2000
  191.1290  176.8360  147.9030 C   0  0  0  0  0  2  0  0  0  0  0  0
  191.8130  176.1800  146.7270 C   0  0  0  0  0  0  0  0  0  0  0  0
  191.2680  175.3190  147.8480 C   0  0  0  0  0  2  0  0  0  0  0  0
  190.9880  176.2190  145.4570 C   0  0  0  0  0  2  0  0  0  0  0  0
  190.3500  177.5180  145.3220 N   0  0  0  0  0  2  0  0  0  0  0  0
  184.5440  178.3930  143.8890 N   0  0  0  0  0  1  0  0  0  0  0  0
  187.4460  177.9000  142.9910 C   0  0  1  0  0  3  0  0  0  0  0  0
  187.8580  177.4680  145.2810 C   0  0  0  0  0  0  0  0  0  0  0  0
  188.8950  177.6440  143.3000 C   0  0  0  0  0  0  0  0  0  0  0  0
  186.9070  176.7880  142.1090 C   0  0  0  0  0  1  0  0  0  0  0  0
  187.6110  177.3880  146.6130 N   0  0  0  0  0  0  0  0  0  0  0  0
  189.8240  177.7480  142.4560 O   0  0  0  0  0  0  0  0  0  0  0  0
  185.5690  178.0320  144.8120 C   0  0  0  0  0  0  0  0  0  0  0  0
  186.8710  177.7860  144.3720 C   0  0  0  0  0  0  0  0  0  0  0  0
  189.1250  177.3190  144.6690 N   0  0  0  0  0  0  0  0  0  0  0  0
  183.9940  178.1660  146.6970 N   0  0  0  0  0  1  0  0  0  0  0  0
  186.3470  177.6080  147.0780 C   0  0  0  0  0  3  0  0  0  0  0  0
  185.3030  177.9290  146.1900 C   0  0  0  0  0  0  0  0  0  0  0  0
  193.3200  176.4350  146.6540 C   0  0  0  0  0  2  0  0  0  0  0  0
  194.0410  175.2470  146.4840 O   0  0  0  0  0  0  0  0  0  0  0  0
  195.2450  175.6290  146.1030 O   0  0  0  0  0  0  0  0  0  0  0  0
  195.6140  174.7230  145.0980 C   0  0  1  0  0  3  0  0  0  0  0  0
  196.0740  176.7380  143.8560 O   0  0  0  0  0  1  0  0  0  0  0  0
  195.6780  175.4040  143.7280 C   0  0  2  0  0  3  0  0  0  0  0  0
  194.3300  175.3430  143.0230 C   0  0  0  0  0  2  0  0  0  0  0  0
  193.6830  173.9710  143.1500 C   0  0  0  0  0  2  0  0  0  0  0  0
  192.2170  174.0130  142.7500 C   0  0  0  0  0  2  0  0  0  0  0  0
  191.4060  173.0670  143.6200 C   0  0  0  0  0  2  0  0  0  0  0  0
  190.0050  172.9140  143.0590 C   0  0  0  0  0  3  0  0  0  0  0  0
  189.3230  174.1230  143.1850 O   0  0  0  0  0  1  0  0  0  0  0  0
  189.3200  171.9230  143.7630 O   0  0  0  0  0  1  0  0  0  0  0  0
  196.9160  174.0050  145.4480 C   0  0  0  0  0  2  0  0  0  0  0  0
  196.6780  172.6000  145.9760 C   0  0  0  0  0  2  0  0  0  0  0  0
  195.8280  171.8260  144.9880 C   0  0  0  0  0  2  0  0  0  0  0  0
  194.6100  171.2430  145.6840 C   0  0  0  0  0  2  0  0  0  0  0  0
  194.0310  170.1040  144.8660 C   0  0  0  0  0  1  0  0  0  0  0  0
  2  3  1  0  0  0  0
  2  1  1  0  0  0  0
  3  1  1  0  0  0  0
  4  2  1  0  0  0  0
  5  4  1  0  0  0  0
  6 13  1  0  0  0  0
  7 10  1  6  0  0  0
  7  9  1  0  0  0  0
  7 14  1  0  0  0  0
  8 11  1  0  0  0  0
  9 15  1  0  0  0  0
 11 17  2  0  0  0  0
 12  9  2  0  0  0  0
 13 18  2  0  0  0  0
 14 13  1  0  0  0  0
 14  8  2  0  0  0  0
 15  8  1  0  0  0  0
 15  5  1  0  0  0  0
 18 16  1  0  0  0  0
 18 17  1  0  0  0  0
 19  2  1  0  0  0  0
 20 19  1  0  0  0  0
 21 20  1  0  0  0  0
 22 32  1  1  0  0  0
 22 21  1  0  0  0  0
 24 23  1  1  0  0  0
 24 22  1  0  0  0  0
 25 26  1  0  0  0  0
 25 24  1  0  0  0  0
 27 26  1  0  0  0  0
 27 28  1  0  0  0  0
 29 30  1  0  0  0  0
 29 28  1  0  0  0  0
 29 31  1  0  0  0  0
 32 33  1  0  0  0  0
 34 35  1  0  0  0  0
 34 33  1  0  0  0  0
 36 35  1  0  0  0  0
M  END
>  <MODEL>
5

>  <REMARK>
 VINA RESULT:      -5.9      1.790      2.963
  Name = 
  17 active torsions:
  status: ('A' for Active; 'I' for Inactive)
    1  A    between atoms: N_4  and  C_10
    2  A    between atoms: N_4  and  N_31
    3  A    between atoms: O_6  and  C_20
    4  A    between atoms: O_6  and  O_32
    5  A    between atoms: C_7  and  C_22
    6  A    between atoms: C_7  and  C_30
    7  A    between atoms: C_8  and  C_24
    8  A    between atoms: C_8  and  C_29
    9  A    between atoms: C_10  and  C_17
   10  A    between atoms: C_11  and  C_29
   11  A    between atoms: C_14  and  C_19
   12  A    between atoms: C_14  and  C_25
   13  A    between atoms: C_15  and  C_25
   14  A    between atoms: C_17  and  C_20
   15  A    between atoms: C_19  and  C_30
   16  A    between atoms: C_22  and  C_24
   17  A    between atoms: C_30  and  O_32
                            x       y       z     vdW  Elec       q    Type
                         _______ _______ _______ _____ _____    ______ ____

>  <TORSDO>
F 17

$$$$
=
 OpenBabel11042413593D

 36 38  0  0  1  0  0  0  0  0999 V2000
  191.2980  175.4520  146.9740 C   0  0  0  0  0  2  0  0  0  0  0  0
  191.8120  176.1990  145.7660 C   0  0  0  0  0  0  0  0  0  0  0  0
  191.6640  174.6930  145.7030 C   0  0  0  0  0  2  0  0  0  0  0  0
  190.7390  177.0030  145.0580 C   0  0  0  0  0  2  0  0  0  0  0  0
  189.6130  176.1440  144.7320 N   0  0  0  0  0  2  0  0  0  0  0  0
  184.1710  178.1270  143.0050 N   0  0  0  0  0  1  0  0  0  0  0  0
  186.1220  177.3870  145.2670 C   0  0  1  0  0  3  0  0  0  0  0  0
  187.7480  177.3000  143.5500 C   0  0  0  0  0  0  0  0  0  0  0  0
  187.4740  176.9310  145.7450 C   0  0  0  0  0  0  0  0  0  0  0  0
  185.7800  178.7230  145.9010 C   0  0  0  0  0  1  0  0  0  0  0  0
  188.2520  177.3140  142.2900 N   0  0  0  0  0  0  0  0  0  0  0  0
  187.7090  176.5320  146.9150 O   0  0  0  0  0  0  0  0  0  0  0  0
  185.5520  177.8750  142.7590 C   0  0  0  0  0  0  0  0  0  0  0  0
  186.4210  177.5710  143.8080 C   0  0  0  0  0  0  0  0  0  0  0  0
  188.4630  176.9470  144.7180 N   0  0  0  0  0  0  0  0  0  0  0  0
  185.2380  178.2200  140.3440 N   0  0  0  0  0  1  0  0  0  0  0  0
  187.4360  177.6220  141.2410 C   0  0  0  0  0  3  0  0  0  0  0  0
  186.0750  177.9130  141.4530 C   0  0  0  0  0  0  0  0  0  0  0  0
  193.2070  176.8010  145.9460 C   0  0  0  0  0  2  0  0  0  0  0  0
  194.0990  175.8840  146.5150 O   0  0  0  0  0  0  0  0  0  0  0  0
  195.2500  176.1040  145.9070 O   0  0  0  0  0  0  0  0  0  0  0  0
  195.4510  174.9810  145.0910 C   0  0  1  0  0  3  0  0  0  0  0  0
  196.3310  176.7440  143.7020 O   0  0  0  0  0  1  0  0  0  0  0  0
  196.1240  175.3650  143.7700 C   0  0  2  0  0  3  0  0  0  0  0  0
  195.2850  174.9220  142.5800 C   0  0  0  0  0  2  0  0  0  0  0  0
  193.8260  175.3370  142.7250 C   0  0  0  0  0  2  0  0  0  0  0  0
  192.9640  174.7100  141.6420 C   0  0  0  0  0  2  0  0  0  0  0  0
  191.4920  174.8890  141.9710 C   0  0  0  0  0  2  0  0  0  0  0  0
  190.6860  173.7350  141.4060 C   0  0  0  0  0  3  0  0  0  0  0  0
  189.3460  173.8920  141.7590 O   0  0  0  0  0  1  0  0  0  0  0  0
  191.1610  172.5300  141.9230 O   0  0  0  0  0  1  0  0  0  0  0  0
  196.2160  173.8860  145.8320 C   0  0  0  0  0  2  0  0  0  0  0  0
  195.8330  172.4930  145.3600 C   0  0  0  0  0  2  0  0  0  0  0  0
  194.3600  172.2540  145.6300 C   0  0  0  0  0  2  0  0  0  0  0  0
  193.6390  171.8990  144.3420 C   0  0  0  0  0  2  0  0  0  0  0  0
  194.6210  171.3650  143.3170 C   0  0  0  0  0  1  0  0  0  0  0  0
  2 19  1  0  0  0  0
  2  1  1  0  0  0  0
  3  2  1  0  0  0  0
  3  1  1  0  0  0  0
  4  2  1  0  0  0  0
  5  4  1  0  0  0  0
  7  9  1  0  0  0  0
  7 10  1  1  0  0  0
  8 14  1  0  0  0  0
  8 15  1  0  0  0  0
  9 12  2  0  0  0  0
 11  8  2  0  0  0  0
 13  6  1  0  0  0  0
 13 14  2  0  0  0  0
 14  7  1  0  0  0  0
 15  5  1  0  0  0  0
 15  9  1  0  0  0  0
 16 18  1  0  0  0  0
 17 18  2  0  0  0  0
 17 11  1  0  0  0  0
 18 13  1  0  0  0  0
 19 20  1  0  0  0  0
 21 20  1  0  0  0  0
 22 32  1  1  0  0  0
 22 21  1  0  0  0  0
 24 23  1  1  0  0  0
 24 22  1  0  0  0  0
 25 26  1  0  0  0  0
 25 24  1  0  0  0  0
 27 28  1  0  0  0  0
 27 26  1  0  0  0  0
 29 30  1  0  0  0  0
 29 31  1  0  0  0  0
 29 28  1  0  0  0  0
 33 34  1  0  0  0  0
 33 32  1  0  0  0  0
 35 34  1  0  0  0  0
 36 35  1  0  0  0  0
M  END
>  <MODEL>
6

>  <REMARK>
 VINA RESULT:      -5.9      1.572      2.211
  Name = 
  17 active torsions:
  status: ('A' for Active; 'I' for Inactive)
    1  A    between atoms: N_4  and  C_10
    2  A    between atoms: N_4  and  N_31
    3  A    between atoms: O_6  and  C_20
    4  A    between atoms: O_6  and  O_32
    5  A    between atoms: C_7  and  C_22
    6  A    between atoms: C_7  and  C_30
    7  A    between atoms: C_8  and  C_24
    8  A    between atoms: C_8  and  C_29
    9  A    between atoms: C_10  and  C_17
   10  A    between atoms: C_11  and  C_29
   11  A    between atoms: C_14  and  C_19
   12  A    between atoms: C_14  and  C_25
   13  A    between atoms: C_15  and  C_25
   14  A    between atoms: C_17  and  C_20
   15  A    between atoms: C_19  and  C_30
   16  A    between atoms: C_22  and  C_24
   17  A    between atoms: C_30  and  O_32
                            x       y       z     vdW  Elec       q    Type
                         _______ _______ _______ _____ _____    ______ ____

>  <TORSDO>
F 17

$$$$
=
 OpenBabel11042413593D

 36 38  0  0  1  0  0  0  0  0999 V2000
  191.1920  176.6550  148.1350 C   0  0  0  0  0  2  0  0  0  0  0  0
  190.9150  176.5070  146.6580 C   0  0  0  0  0  0  0  0  0  0  0  0
  190.5950  175.3610  147.5940 C   0  0  0  0  0  2  0  0  0  0  0  0
  189.7330  177.3290  146.1840 C   0  0  0  0  0  2  0  0  0  0  0  0
  188.7300  176.4580  145.5960 N   0  0  0  0  0  2  0  0  0  0  0  0
  183.6960  178.2890  142.7960 N   0  0  0  0  0  1  0  0  0  0  0  0
  185.1890  177.6610  145.4120 C   0  0  1  0  0  3  0  0  0  0  0  0
  187.1120  177.5420  144.0390 C   0  0  0  0  0  0  0  0  0  0  0  0
  186.4300  177.2440  146.1540 C   0  0  0  0  0  0  0  0  0  0  0  0
  184.7200  179.0120  145.9200 C   0  0  0  0  0  1  0  0  0  0  0  0
  187.8470  177.5210  142.8980 N   0  0  0  0  0  0  0  0  0  0  0  0
  186.4420  176.8890  147.3620 O   0  0  0  0  0  0  0  0  0  0  0  0
  185.1010  178.0520  142.8250 C   0  0  0  0  0  0  0  0  0  0  0  0
  185.7580  177.7990  144.0310 C   0  0  0  0  0  0  0  0  0  0  0  0
  187.5960  177.2410  145.3340 N   0  0  0  0  0  0  0  0  0  0  0  0
  185.2490  178.3080  140.3830 N   0  0  0  0  0  1  0  0  0  0  0  0
  187.2420  177.7790  141.7030 C   0  0  0  0  0  3  0  0  0  0  0  0
  185.8630  178.0540  141.6420 C   0  0  0  0  0  0  0  0  0  0  0  0
  192.1720  176.4260  145.7880 C   0  0  0  0  0  2  0  0  0  0  0  0
  191.9390  176.9060  144.4930 O   0  0  0  0  0  0  0  0  0  0  0  0
  192.7960  176.2550  143.7280 O   0  0  0  0  0  0  0  0  0  0  0  0
  192.4090  174.9090  143.8120 C   0  0  1  0  0  3  0  0  0  0  0  0
  192.3510  174.9130  141.4020 O   0  0  0  0  0  1  0  0  0  0  0  0
  191.6850  174.4570  142.5410 C   0  0  2  0  0  3  0  0  0  0  0  0
  190.2480  174.9630  142.5210 C   0  0  0  0  0  2  0  0  0  0  0  0
  189.2540  173.8690  142.8890 C   0  0  0  0  0  2  0  0  0  0  0  0
  188.4580  173.4180  141.6760 C   0  0  0  0  0  2  0  0  0  0  0  0
  188.5670  174.4450  140.5620 C   0  0  0  0  0  2  0  0  0  0  0  0
  189.0590  173.7830  139.2880 C   0  0  0  0  0  3  0  0  0  0  0  0
  188.0790  172.9130  138.8130 O   0  0  0  0  0  1  0  0  0  0  0  0
  190.2260  173.0640  139.5490 O   0  0  0  0  0  1  0  0  0  0  0  0
  193.5970  174.0110  144.1500 C   0  0  0  0  0  2  0  0  0  0  0  0
  193.2270  172.9040  145.1240 C   0  0  0  0  0  2  0  0  0  0  0  0
  194.4510  172.0590  145.4180 C   0  0  0  0  0  2  0  0  0  0  0  0
  195.7070  172.7620  144.9340 C   0  0  0  0  0  2  0  0  0  0  0  0
  196.8120  172.6360  145.9660 C   0  0  0  0  0  1  0  0  0  0  0  0
  2  3  1  0  0  0  0
  2  1  1  0  0  0  0
  3  1  1  0  0  0  0
  4  2  1  0  0  0  0
  5  4  1  0  0  0  0
  6 13  1  0  0  0  0
  7 10  1  1  0  0  0
  7  9  1  0  0  0  0
  8 15  1  0  0  0  0
  9 12  2  0  0  0  0
 11  8  2  0  0  0  0
 13 14  2  0  0  0  0
 14  8  1  0  0  0  0
 14  7  1  0  0  0  0
 15  5  1  0  0  0  0
 15  9  1  0  0  0  0
 16 18  1  0  0  0  0
 17 11  1  0  0  0  0
 18 17  2  0  0  0  0
 18 13  1  0  0  0  0
 19  2  1  0  0  0  0
 20 19  1  0  0  0  0
 21 22  1  0  0  0  0
 21 20  1  0  0  0  0
 22 32  1  6  0  0  0
 24 23  1  6  0  0  0
 24 22  1  0  0  0  0
 25 24  1  0  0  0  0
 25 26  1  0  0  0  0
 27 26  1  0  0  0  0
 28 27  1  0  0  0  0
 29 31  1  0  0  0  0
 29 28  1  0  0  0  0
 30 29  1  0  0  0  0
 32 33  1  0  0  0  0
 33 34  1  0  0  0  0
 35 34  1  0  0  0  0
 35 36  1  0  0  0  0
M  END
>  <MODEL>
7

>  <REMARK>
 VINA RESULT:      -5.7      1.667      2.147
  Name = 
  17 active torsions:
  status: ('A' for Active; 'I' for Inactive)
    1  A    between atoms: N_4  and  C_10
    2  A    between atoms: N_4  and  N_31
    3  A    between atoms: O_6  and  C_20
    4  A    between atoms: O_6  and  O_32
    5  A    between atoms: C_7  and  C_22
    6  A    between atoms: C_7  and  C_30
    7  A    between atoms: C_8  and  C_24
    8  A    between atoms: C_8  and  C_29
    9  A    between atoms: C_10  and  C_17
   10  A    between atoms: C_11  and  C_29
   11  A    between atoms: C_14  and  C_19
   12  A    between atoms: C_14  and  C_25
   13  A    between atoms: C_15  and  C_25
   14  A    between atoms: C_17  and  C_20
   15  A    between atoms: C_19  and  C_30
   16  A    between atoms: C_22  and  C_24
   17  A    between atoms: C_30  and  O_32
                            x       y       z     vdW  Elec       q    Type
                         _______ _______ _______ _____ _____    ______ ____

>  <TORSDO>
F 17

$$$$
=
 OpenBabel11042413593D

 36 38  0  0  1  0  0  0  0  0999 V2000
  186.5670  178.1550  141.6000 C   0  0  0  0  0  2  0  0  0  0  0  0
  187.5850  177.1210  142.0190 C   0  0  0  0  0  0  0  0  0  0  0  0
  186.2190  177.1300  142.6730 C   0  0  0  0  0  2  0  0  0  0  0  0
  187.8150  176.0490  140.9740 C   0  0  0  0  0  2  0  0  0  0  0  0
  187.7090  174.7340  141.5840 N   0  0  0  0  0  2  0  0  0  0  0  0
  191.8190  170.3020  141.5600 N   0  0  0  0  0  1  0  0  0  0  0  0
  189.8070  172.0540  140.0250 C   0  0  1  0  0  3  0  0  0  0  0  0
  189.7260  173.3340  142.0130 C   0  0  0  0  0  0  0  0  0  0  0  0
  188.8040  173.1730  139.9750 C   0  0  0  0  0  0  0  0  0  0  0  0
  190.9120  172.3130  139.0170 C   0  0  0  0  0  1  0  0  0  0  0  0
  189.9650  173.6700  143.3060 N   0  0  0  0  0  0  0  0  0  0  0  0
  188.0050  173.3610  139.0200 O   0  0  0  0  0  0  0  0  0  0  0  0
  191.2140  171.4500  142.1490 C   0  0  0  0  0  0  0  0  0  0  0  0
  190.3260  172.2440  141.4190 C   0  0  0  0  0  0  0  0  0  0  0  0
  188.8100  173.9800  141.1510 N   0  0  0  0  0  0  0  0  0  0  0  0
  192.3780  171.0380  144.2760 N   0  0  0  0  0  1  0  0  0  0  0  0
  190.8370  172.9260  144.0460 C   0  0  0  0  0  3  0  0  0  0  0  0
  191.4810  171.8080  143.4830 C   0  0  0  0  0  0  0  0  0  0  0  0
  188.7790  177.6910  142.7880 C   0  0  0  0  0  2  0  0  0  0  0  0
  189.1590  176.8590  143.8480 O   0  0  0  0  0  0  0  0  0  0  0  0
  188.8380  177.5280  144.9400 O   0  0  0  0  0  0  0  0  0  0  0  0
  188.3300  176.5640  145.8230 C   0  0  1  0  0  3  0  0  0  0  0  0
  189.9620  177.6400  147.2340 O   0  0  0  0  0  1  0  0  0  0  0  0
  189.1360  176.5190  147.1240 C   0  0  2  0  0  3  0  0  0  0  0  0
  189.9840  175.2570  147.1990 C   0  0  0  0  0  2  0  0  0  0  0  0
  191.4110  175.5560  147.6400 C   0  0  0  0  0  2  0  0  0  0  0  0
  192.4130  175.1660  146.5650 C   0  0  0  0  0  2  0  0  0  0  0  0
  192.8370  176.3900  145.7710 C   0  0  0  0  0  2  0  0  0  0  0  0
  194.3440  176.4030  145.5970 C   0  0  0  0  0  3  0  0  0  0  0  0
  194.9210  175.5230  146.5110 O   0  0  0  0  0  1  0  0  0  0  0  0
  194.8350  177.6890  145.8210 O   0  0  0  0  0  1  0  0  0  0  0  0
  186.8380  176.7710  146.0730 C   0  0  0  0  0  2  0  0  0  0  0  0
  186.5620  177.4230  147.4180 C   0  0  0  0  0  2  0  0  0  0  0  0
  185.3850  178.3700  147.2890 C   0  0  0  0  0  2  0  0  0  0  0  0
  184.4560  177.9080  146.1800 C   0  0  0  0  0  2  0  0  0  0  0  0
  184.1800  179.0460  145.2150 C   0  0  0  0  0  1  0  0  0  0  0  0
  1  2  1  0  0  0  0
  1  3  1  0  0  0  0
  2  3  1  0  0  0  0
  2 19  1  0  0  0  0
  4  5  1  0  0  0  0
  4  2  1  0  0  0  0
  6 13  1  0  0  0  0
  7 10  1  6  0  0  0
  7 14  1  0  0  0  0
  8 11  1  0  0  0  0
  9  7  1  0  0  0  0
  9 15  1  0  0  0  0
 11 17  2  0  0  0  0
 12  9  2  0  0  0  0
 13 18  2  0  0  0  0
 14  8  2  0  0  0  0
 14 13  1  0  0  0  0
 15  5  1  0  0  0  0
 15  8  1  0  0  0  0
 18 17  1  0  0  0  0
 18 16  1  0  0  0  0
 19 20  1  0  0  0  0
 20 21  1  0  0  0  0
 21 22  1  0  0  0  0
 22 32  1  1  0  0  0
 22 24  1  0  0  0  0
 24 25  1  0  0  0  0
 24 23  1  6  0  0  0
 25 26  1  0  0  0  0
 27 26  1  0  0  0  0
 28 27  1  0  0  0  0
 29 28  1  0  0  0  0
 29 31  1  0  0  0  0
 29 30  1  0  0  0  0
 32 33  1  0  0  0  0
 34 33  1  0  0  0  0
 35 34  1  0  0  0  0
 36 35  1  0  0  0  0
M  END
>  <MODEL>
8

>  <REMARK>
 VINA RESULT:      -5.7      2.939      8.062
  Name = 
  17 active torsions:
  status: ('A' for Active; 'I' for Inactive)
    1  A    between atoms: N_4  and  C_10
    2  A    between atoms: N_4  and  N_31
    3  A    between atoms: O_6  and  C_20
    4  A    between atoms: O_6  and  O_32
    5  A    between atoms: C_7  and  C_22
    6  A    between atoms: C_7  and  C_30
    7  A    between atoms: C_8  and  C_24
    8  A    between atoms: C_8  and  C_29
    9  A    between atoms: C_10  and  C_17
   10  A    between atoms: C_11  and  C_29
   11  A    between atoms: C_14  and  C_19
   12  A    between atoms: C_14  and  C_25
   13  A    between atoms: C_15  and  C_25
   14  A    between atoms: C_17  and  C_20
   15  A    between atoms: C_19  and  C_30
   16  A    between atoms: C_22  and  C_24
   17  A    between atoms: C_30  and  O_32
                            x       y       z     vdW  Elec       q    Type
                         _______ _______ _______ _____ _____    ______ ____

>  <TORSDO>
F 17

$$$$
=
 OpenBabel11042413593D

 36 38  0  0  1  0  0  0  0  0999 V2000
  190.9830  176.2950  146.4590 C   0  0  0  0  0  2  0  0  0  0  0  0
  189.9400  175.2120  146.5940 C   0  0  0  0  0  0  0  0  0  0  0  0
  190.9230  175.4430  147.7220 C   0  0  0  0  0  2  0  0  0  0  0  0
  188.5400  175.7520  146.8110 C   0  0  0  0  0  2  0  0  0  0  0  0
  188.5880  177.1970  146.9650 N   0  0  0  0  0  2  0  0  0  0  0  0
  184.4450  177.7420  142.5970 N   0  0  0  0  0  1  0  0  0  0  0  0
  185.1450  177.7310  145.5940 C   0  0  1  0  0  3  0  0  0  0  0  0
  187.3920  177.7700  144.8530 C   0  0  0  0  0  0  0  0  0  0  0  0
  186.1450  177.6370  146.7130 C   0  0  0  0  0  0  0  0  0  0  0  0
  184.3750  179.0340  145.7040 C   0  0  0  0  0  1  0  0  0  0  0  0
  188.4330  177.7280  143.9840 N   0  0  0  0  0  0  0  0  0  0  0  0
  185.8370  177.4510  147.9190 O   0  0  0  0  0  0  0  0  0  0  0  0
  185.7940  177.7590  143.0570 C   0  0  0  0  0  0  0  0  0  0  0  0
  186.0820  177.7840  144.4240 C   0  0  0  0  0  0  0  0  0  0  0  0
  187.4950  177.7290  146.2640 N   0  0  0  0  0  0  0  0  0  0  0  0
  186.6400  177.7150  140.7480 N   0  0  0  0  0  1  0  0  0  0  0  0
  188.1910  177.7180  142.6420 C   0  0  0  0  0  3  0  0  0  0  0  0
  186.8710  177.7380  142.1530 C   0  0  0  0  0  0  0  0  0  0  0  0
  190.1480  174.0170  145.6610 C   0  0  0  0  0  2  0  0  0  0  0  0
  190.0300  174.3840  144.3140 O   0  0  0  0  0  0  0  0  0  0  0  0
  191.1330  173.9390  143.7410 O   0  0  0  0  0  0  0  0  0  0  0  0
  191.5170  174.9550  142.8530 C   0  0  1  0  0  3  0  0  0  0  0  0
  193.6430  175.6570  141.9580 O   0  0  0  0  0  1  0  0  0  0  0  0
  192.9380  175.4430  143.1450 C   0  0  2  0  0  3  0  0  0  0  0  0
  193.6950  174.4410  144.0070 C   0  0  0  0  0  2  0  0  0  0  0  0
  193.8680  174.9360  145.4370 C   0  0  0  0  0  2  0  0  0  0  0  0
  195.3300  174.9180  145.8530 C   0  0  0  0  0  2  0  0  0  0  0  0
  196.2270  175.0100  144.6310 C   0  0  0  0  0  2  0  0  0  0  0  0
  197.4600  174.1490  144.8220 C   0  0  0  0  0  3  0  0  0  0  0  0
  197.3730  173.0280  143.9980 O   0  0  0  0  0  1  0  0  0  0  0  0
  197.5470  173.7370  146.1520 O   0  0  0  0  0  1  0  0  0  0  0  0
  191.3430  174.5170  141.4000 C   0  0  0  0  0  2  0  0  0  0  0  0
  190.9790  173.0460  141.2790 C   0  0  0  0  0  2  0  0  0  0  0  0
  189.6360  172.9140  140.5870 C   0  0  0  0  0  2  0  0  0  0  0  0
  188.5360  172.6910  141.6100 C   0  0  0  0  0  2  0  0  0  0  0  0
  187.7810  173.9830  141.8630 C   0  0  0  0  0  1  0  0  0  0  0  0
  1  2  1  0  0  0  0
  1  3  1  0  0  0  0
  2  4  1  0  0  0  0
  2  3  1  0  0  0  0
  4  5  1  0  0  0  0
  6 13  1  0  0  0  0
  7 10  1  1  0  0  0
  7  9  1  0  0  0  0
  8 15  1  0  0  0  0
  9 12  2  0  0  0  0
 11  8  2  0  0  0  0
 13 14  2  0  0  0  0
 14  8  1  0  0  0  0
 14  7  1  0  0  0  0
 15  9  1  0  0  0  0
 15  5  1  0  0  0  0
 16 18  1  0  0  0  0
 17 11  1  0  0  0  0
 18 17  2  0  0  0  0
 18 13  1  0  0  0  0
 19  2  1  0  0  0  0
 20 19  1  0  0  0  0
 21 20  1  0  0  0  0
 22 32  1  6  0  0  0
 22 24  1  0  0  0  0
 22 21  1  0  0  0  0
 24 23  1  6  0  0  0
 24 25  1  0  0  0  0
 25 26  1  0  0  0  0
 26 27  1  0  0  0  0
 28 29  1  0  0  0  0
 28 27  1  0  0  0  0
 29 31  1  0  0  0  0
 30 29  1  0  0  0  0
 33 32  1  0  0  0  0
 34 33  1  0  0  0  0
 34 35  1  0  0  0  0
 35 36  1  0  0  0  0
M  END
>  <MODEL>
9

>  <REMARK>
 VINA RESULT:      -5.7      1.830      4.533
  Name = 
  17 active torsions:
  status: ('A' for Active; 'I' for Inactive)
    1  A    between atoms: N_4  and  C_10
    2  A    between atoms: N_4  and  N_31
    3  A    between atoms: O_6  and  C_20
    4  A    between atoms: O_6  and  O_32
    5  A    between atoms: C_7  and  C_22
    6  A    between atoms: C_7  and  C_30
    7  A    between atoms: C_8  and  C_24
    8  A    between atoms: C_8  and  C_29
    9  A    between atoms: C_10  and  C_17
   10  A    between atoms: C_11  and  C_29
   11  A    between atoms: C_14  and  C_19
   12  A    between atoms: C_14  and  C_25
   13  A    between atoms: C_15  and  C_25
   14  A    between atoms: C_17  and  C_20
   15  A    between atoms: C_19  and  C_30
   16  A    between atoms: C_22  and  C_24
   17  A    between atoms: C_30  and  O_32
                            x       y       z     vdW  Elec       q    Type
                         _______ _______ _______ _____ _____    ______ ____

>  <TORSDO>
F 17

$$$$
