=
 OpenBabel11042417073D

 44 49  0  0  1  0  0  0  0  0999 V2000
  187.7030  177.5250  143.8440 C   0  0  2  0  0  3  0  0  0  0  0  0
  191.6050  176.7210  145.2130 C   0  0  0  0  0  0  0  0  0  0  0  0
  190.5530  175.5560  147.0680 C   0  0  0  0  0  3  0  0  0  0  0  0
  191.4530  177.4720  143.9200 C   0  0  0  0  0  2  0  0  0  0  0  0
  189.1970  176.5630  145.3330 O   0  0  0  0  0  0  0  0  0  0  0  0
  190.0380  178.0370  143.7790 C   0  0  0  0  0  2  0  0  0  0  0  0
  192.8750  176.4520  145.7570 C   0  0  0  0  0  0  0  0  0  0  0  0
  189.0570  176.9720  144.0160 N   0  0  0  0  0  0  0  0  0  0  0  0
  190.4520  176.2650  145.8710 C   0  0  0  0  0  0  0  0  0  0  0  0
  191.8090  175.2870  147.6100 C   0  0  0  0  0  3  0  0  0  0  0  0
  192.9620  175.7350  146.9590 C   0  0  0  0  0  3  0  0  0  0  0  0
  194.7260  174.9880  143.9840 O   0  0  0  0  0  0  0  0  0  0  0  0
  194.9570  176.1910  144.2790 C   0  0  0  0  0  0  0  0  0  0  0  0
  194.0510  176.9440  145.0940 N   0  0  0  0  0  2  0  0  0  0  0  0
  196.1840  176.8480  143.7550 C   0  0  0  0  0  2  0  0  0  0  0  0
  196.7080  176.0950  142.5500 C   0  0  0  0  0  2  0  0  0  0  0  0
  196.4080  176.8130  141.3940 O   0  0  0  0  0  0  0  0  0  0  0  0
  196.0470  175.8440  140.4600 C   0  0  0  0  0  2  0  0  0  0  0  0
  194.1580  174.8710  139.4280 O   0  0  0  0  0  0  0  0  0  0  0  0
  194.2790  174.2850  140.6280 O   0  0  0  0  0  0  0  0  0  0  0  0
  194.5500  175.6300  140.5070 C   0  0  0  0  0  3  0  0  0  0  0  0
  186.7500  178.1090  146.9710 C   0  0  0  0  0  2  0  0  0  0  0  0
  186.6310  176.8870  144.7510 C   0  0  2  0  0  3  0  0  0  0  0  0
  185.2460  177.1270  144.3340 N   0  0  0  0  0  2  0  0  0  0  0  0
  184.6880  178.3390  144.9270 C   0  0  0  0  0  2  0  0  0  0  0  0
  184.2410  178.0620  146.3530 C   0  0  0  0  0  2  0  0  0  0  0  0
  186.8830  176.7710  146.2610 C   0  0  0  0  0  2  0  0  0  0  0  0
  185.3120  178.4220  147.3870 C   0  0  0  0  0  2  0  0  0  0  0  0
  186.3360  178.4310  142.0150 N   0  0  0  0  0  0  0  0  0  0  0  0
  187.2300  177.4870  142.4080 C   0  0  0  0  0  0  0  0  0  0  0  0
  187.6100  176.4680  141.5070 C   0  0  0  0  0  0  0  0  0  0  0  0
  186.1780  177.4810  139.8730 N   0  0  0  0  0  0  0  0  0  0  0  0
  185.8140  178.4350  140.7640 C   0  0  0  0  0  3  0  0  0  0  0  0
  187.0560  176.5010  140.2080 C   0  0  0  0  0  0  0  0  0  0  0  0
  187.3990  175.5260  139.2260 N   0  0  0  0  0  1  0  0  0  0  0  0
  188.2060  174.2720  142.2300 N   0  0  0  0  0  0  0  0  0  0  0  0
  188.5440  175.4610  141.9280 N   0  0  0  0  0  0  0  0  0  0  0  0
  192.0570  170.5330  143.8970 O   0  0  0  0  0  1  0  0  0  0  0  0
  191.1050  171.4530  143.4800 C   0  0  0  0  0  0  0  0  0  0  0  0
  190.7480  172.5160  144.3140 C   0  0  0  0  0  3  0  0  0  0  0  0
  189.7830  173.4400  143.8960 C   0  0  0  0  0  3  0  0  0  0  0  0
  190.4990  171.3120  142.2300 C   0  0  0  0  0  3  0  0  0  0  0  0
  189.5380  172.2370  141.8110 C   0  0  0  0  0  3  0  0  0  0  0  0
  189.1750  173.3070  142.6430 C   0  0  0  0  0  0  0  0  0  0  0  0
  1 30  1  6  0  0  0
  1  8  1  0  0  0  0
  2  7  2  0  0  0  0
  2  9  1  0  0  0  0
  3 10  1  0  0  0  0
  4  2  1  0  0  0  0
  5  9  1  0  0  0  0
  6  4  1  0  0  0  0
  6  8  1  0  0  0  0
  7 11  1  0  0  0  0
  8  5  1  0  0  0  0
  9  3  2  0  0  0  0
 11 10  2  0  0  0  0
 12 13  2  0  0  0  0
 13 14  1  0  0  0  0
 14  7  1  0  0  0  0
 15 13  1  0  0  0  0
 16 15  1  0  0  0  0
 17 16  1  0  0  0  0
 18 21  1  0  0  0  0
 18 17  1  0  0  0  0
 19 21  1  0  0  0  0
 19 20  1  0  0  0  0
 21 20  1  0  0  0  0
 22 28  1  0  0  0  0
 23  1  1  1  0  0  0
 23 27  1  0  0  0  0
 24 23  1  0  0  0  0
 24 25  1  0  0  0  0
 25 26  1  0  0  0  0
 26 28  1  0  0  0  0
 27 22  1  0  0  0  0
 29 30  1  0  0  0  0
 31 37  1  0  0  0  0
 31 30  2  0  0  0  0
 32 34  2  0  0  0  0
 32 33  1  0  0  0  0
 33 29  2  0  0  0  0
 34 31  1  0  0  0  0
 35 34  1  0  0  0  0
 36 44  1  0  0  0  0
 37 36  2  0  0  0  0
 39 38  1  0  0  0  0
 39 40  1  0  0  0  0
 41 40  2  0  0  0  0
 42 39  2  0  0  0  0
 43 42  1  0  0  0  0
 43 44  2  0  0  0  0
 44 41  1  0  0  0  0
M  END
>  <MODEL>
1

>  <REMARK>
 VINA RESULT:      -8.0      0.000      0.000
  Name = 
  11 active torsions:
  status: ('A' for Active; 'I' for Inactive)
    1  A    between atoms: C_5  and  C_41
    2  A    between atoms: N_7  and  C_24
    3  A    between atoms: C_9  and  C_41
    4  A    between atoms: O_10  and  C_37
    5  A    between atoms: O_10  and  C_43
    6  A    between atoms: C_11  and  N_27
    7  A    between atoms: C_28  and  N_39
    8  A    between atoms: N_31  and  C_41
    9  A    between atoms: C_32  and  C_37
   10  A    between atoms: C_32  and  C_38
   11  A    between atoms: C_35  and  C_43
                            x       y       z     vdW  Elec       q    Type
                         _______ _______ _______ _____ _____    ______ ____

>  <TORSDO>
F 11

$$$$
=
 OpenBabel11042417073D

 44 49  0  0  1  0  0  0  0  0999 V2000
  187.6490  177.5940  144.0090 C   0  0  2  0  0  3  0  0  0  0  0  0
  191.5850  176.6270  145.1570 C   0  0  0  0  0  0  0  0  0  0  0  0
  190.5970  175.5700  147.1080 C   0  0  0  0  0  3  0  0  0  0  0  0
  191.3890  177.3480  143.8530 C   0  0  0  0  0  2  0  0  0  0  0  0
  189.1850  176.5970  145.4310 O   0  0  0  0  0  0  0  0  0  0  0  0
  189.9980  177.9820  143.7830 C   0  0  0  0  0  2  0  0  0  0  0  0
  192.8730  176.3080  145.6280 C   0  0  0  0  0  0  0  0  0  0  0  0
  188.9820  176.9760  144.1130 N   0  0  0  0  0  0  0  0  0  0  0  0
  190.4560  176.2490  145.8990 C   0  0  0  0  0  0  0  0  0  0  0  0
  191.8700  175.2510  147.5790 C   0  0  0  0  0  3  0  0  0  0  0  0
  193.0000  175.6200  146.8440 C   0  0  0  0  0  3  0  0  0  0  0  0
  194.2660  174.8570  143.4670 O   0  0  0  0  0  0  0  0  0  0  0  0
  194.7090  175.9660  143.8680 C   0  0  0  0  0  0  0  0  0  0  0  0
  194.0270  176.7190  144.8780 N   0  0  0  0  0  2  0  0  0  0  0  0
  195.9550  176.5140  143.2680 C   0  0  0  0  0  2  0  0  0  0  0  0
  196.9300  175.3940  142.9710 C   0  0  0  0  0  2  0  0  0  0  0  0
  197.7170  175.1610  144.0970 O   0  0  0  0  0  0  0  0  0  0  0  0
  197.5380  173.8080  144.3790 C   0  0  0  0  0  2  0  0  0  0  0  0
  195.8600  172.9010  145.7740 O   0  0  0  0  0  0  0  0  0  0  0  0
  197.0120  172.3180  146.1380 O   0  0  0  0  0  0  0  0  0  0  0  0
  197.0140  173.6510  145.7910 C   0  0  0  0  0  3  0  0  0  0  0  0
  186.7000  178.1910  147.1350 C   0  0  0  0  0  2  0  0  0  0  0  0
  186.5770  176.9610  144.9190 C   0  0  2  0  0  3  0  0  0  0  0  0
  185.1920  177.2000  144.5030 N   0  0  0  0  0  2  0  0  0  0  0  0
  184.6370  178.4160  145.0910 C   0  0  0  0  0  2  0  0  0  0  0  0
  184.1900  178.1450  146.5190 C   0  0  0  0  0  2  0  0  0  0  0  0
  186.8300  176.8500  146.4300 C   0  0  0  0  0  2  0  0  0  0  0  0
  185.2630  178.5080  147.5510 C   0  0  0  0  0  2  0  0  0  0  0  0
  186.2360  178.6130  142.2780 N   0  0  0  0  0  0  0  0  0  0  0  0
  187.1330  177.6420  142.5890 C   0  0  0  0  0  0  0  0  0  0  0  0
  187.4770  176.6750  141.6180 C   0  0  0  0  0  0  0  0  0  0  0  0
  186.0050  177.7900  140.0910 N   0  0  0  0  0  0  0  0  0  0  0  0
  185.6760  178.6940  141.0460 C   0  0  0  0  0  3  0  0  0  0  0  0
  186.8850  176.7870  140.3410 C   0  0  0  0  0  0  0  0  0  0  0  0
  187.1900  175.8680  139.2940 N   0  0  0  0  0  1  0  0  0  0  0  0
  188.0730  174.4490  142.2470 N   0  0  0  0  0  0  0  0  0  0  0  0
  188.4150  175.6390  141.9520 N   0  0  0  0  0  0  0  0  0  0  0  0
  191.8610  170.4840  143.4740 O   0  0  0  0  0  1  0  0  0  0  0  0
  190.9270  171.4660  143.1760 C   0  0  0  0  0  0  0  0  0  0  0  0
  190.2910  171.4720  141.9320 C   0  0  0  0  0  3  0  0  0  0  0  0
  189.3530  172.4660  141.6300 C   0  0  0  0  0  3  0  0  0  0  0  0
  190.6270  172.4520  144.1190 C   0  0  0  0  0  3  0  0  0  0  0  0
  189.6890  173.4430  143.8180 C   0  0  0  0  0  3  0  0  0  0  0  0
  189.0450  173.4550  142.5710 C   0  0  0  0  0  0  0  0  0  0  0  0
  1 30  1  6  0  0  0
  1  8  1  0  0  0  0
  2  7  2  0  0  0  0
  2  9  1  0  0  0  0
  3 10  1  0  0  0  0
  4  2  1  0  0  0  0
  5  9  1  0  0  0  0
  6  4  1  0  0  0  0
  6  8  1  0  0  0  0
  7 11  1  0  0  0  0
  8  5  1  0  0  0  0
  9  3  2  0  0  0  0
 11 10  2  0  0  0  0
 12 13  2  0  0  0  0
 13 14  1  0  0  0  0
 14  7  1  0  0  0  0
 15 13  1  0  0  0  0
 16 15  1  0  0  0  0
 16 17  1  0  0  0  0
 17 18  1  0  0  0  0
 18 21  1  0  0  0  0
 19 21  1  0  0  0  0
 19 20  1  0  0  0  0
 21 20  1  0  0  0  0
 22 28  1  0  0  0  0
 23  1  1  1  0  0  0
 23 27  1  0  0  0  0
 24 23  1  0  0  0  0
 24 25  1  0  0  0  0
 25 26  1  0  0  0  0
 26 28  1  0  0  0  0
 27 22  1  0  0  0  0
 29 30  1  0  0  0  0
 31 37  1  0  0  0  0
 31 30  2  0  0  0  0
 32 34  2  0  0  0  0
 32 33  1  0  0  0  0
 33 29  2  0  0  0  0
 34 31  1  0  0  0  0
 35 34  1  0  0  0  0
 36 44  1  0  0  0  0
 37 36  2  0  0  0  0
 39 38  1  0  0  0  0
 39 42  1  0  0  0  0
 40 39  2  0  0  0  0
 41 40  1  0  0  0  0
 41 44  2  0  0  0  0
 43 42  2  0  0  0  0
 44 43  1  0  0  0  0
M  END
>  <MODEL>
2

>  <REMARK>
 VINA RESULT:      -8.0      1.179      2.065
  Name = 
  11 active torsions:
  status: ('A' for Active; 'I' for Inactive)
    1  A    between atoms: C_5  and  C_41
    2  A    between atoms: N_7  and  C_24
    3  A    between atoms: C_9  and  C_41
    4  A    between atoms: O_10  and  C_37
    5  A    between atoms: O_10  and  C_43
    6  A    between atoms: C_11  and  N_27
    7  A    between atoms: C_28  and  N_39
    8  A    between atoms: N_31  and  C_41
    9  A    between atoms: C_32  and  C_37
   10  A    between atoms: C_32  and  C_38
   11  A    between atoms: C_35  and  C_43
                            x       y       z     vdW  Elec       q    Type
                         _______ _______ _______ _____ _____    ______ ____

>  <TORSDO>
F 11

$$$$
=
 OpenBabel11042417073D

 44 49  0  0  1  0  0  0  0  0999 V2000
  193.8470  174.4240  143.6460 C   0  0  2  0  0  3  0  0  0  0  0  0
  190.1630  176.1790  144.6890 C   0  0  0  0  0  0  0  0  0  0  0  0
  190.1930  174.7270  146.6360 C   0  0  0  0  0  3  0  0  0  0  0  0
  190.8550  176.6780  143.4510 C   0  0  0  0  0  2  0  0  0  0  0  0
  192.0300  174.6930  145.0610 O   0  0  0  0  0  0  0  0  0  0  0  0
  191.9260  175.6880  142.9880 C   0  0  0  0  0  2  0  0  0  0  0  0
  188.9090  176.6870  145.0780 C   0  0  0  0  0  0  0  0  0  0  0  0
  192.8030  175.3500  144.1160 N   0  0  0  0  0  0  0  0  0  0  0  0
  190.7980  175.2060  145.4750 C   0  0  0  0  0  0  0  0  0  0  0  0
  188.9510  175.2260  147.0270 C   0  0  0  0  0  3  0  0  0  0  0  0
  188.3130  176.1980  146.2500 C   0  0  0  0  0  3  0  0  0  0  0  0
  186.8110  176.2550  143.0480 O   0  0  0  0  0  0  0  0  0  0  0  0
  187.2690  177.4120  143.2420 C   0  0  0  0  0  0  0  0  0  0  0  0
  188.2500  177.6630  144.2560 N   0  0  0  0  0  2  0  0  0  0  0  0
  186.7690  178.5440  142.4160 C   0  0  0  0  0  2  0  0  0  0  0  0
  185.3760  178.9400  142.8580 C   0  0  0  0  0  2  0  0  0  0  0  0
  185.4640  179.7140  144.0140 O   0  0  0  0  0  0  0  0  0  0  0  0
  184.4760  179.2050  144.8560 C   0  0  0  0  0  2  0  0  0  0  0  0
  184.1640  177.9390  146.8260 O   0  0  0  0  0  0  0  0  0  0  0  0
  184.9460  177.2030  146.0210 O   0  0  0  0  0  0  0  0  0  0  0  0
  185.1240  178.5680  146.0660 C   0  0  0  0  0  3  0  0  0  0  0  0
  193.7610  171.3940  145.0030 C   0  0  0  0  0  2  0  0  0  0  0  0
  194.6630  173.7540  144.7710 C   0  0  2  0  0  3  0  0  0  0  0  0
  196.0750  173.5210  144.4560 N   0  0  0  0  0  2  0  0  0  0  0  0
  196.3000  172.2170  143.8380 C   0  0  0  0  0  2  0  0  0  0  0  0
  196.3310  171.1350  144.9060 C   0  0  0  0  0  2  0  0  0  0  0  0
  193.9870  172.7290  145.6940 C   0  0  0  0  0  2  0  0  0  0  0  0
  194.9690  170.4610  145.1000 C   0  0  0  0  0  2  0  0  0  0  0  0
  195.5400  176.1110  143.0800 N   0  0  0  0  0  0  0  0  0  0  0  0
  194.7940  175.0600  142.6530 C   0  0  0  0  0  0  0  0  0  0  0  0
  194.8590  174.6630  141.2990 C   0  0  0  0  0  0  0  0  0  0  0  0
  196.4670  176.4040  140.9430 N   0  0  0  0  0  0  0  0  0  0  0  0
  196.3700  176.7790  142.2420 C   0  0  0  0  0  3  0  0  0  0  0  0
  195.7380  175.3710  140.4490 C   0  0  0  0  0  0  0  0  0  0  0  0
  195.8840  175.0270  139.0730 N   0  0  0  0  0  1  0  0  0  0  0  0
  192.9460  173.7020  140.2420 N   0  0  0  0  0  0  0  0  0  0  0  0
  194.0590  173.5610  140.8440 N   0  0  0  0  0  0  0  0  0  0  0  0
  189.9320  169.2990  138.4760 O   0  0  0  0  0  1  0  0  0  0  0  0
  190.6760  170.3840  138.9180 C   0  0  0  0  0  0  0  0  0  0  0  0
  191.1610  171.3190  138.0010 C   0  0  0  0  0  3  0  0  0  0  0  0
  191.9160  172.4100  138.4460 C   0  0  0  0  0  3  0  0  0  0  0  0
  190.9450  170.5370  140.2800 C   0  0  0  0  0  3  0  0  0  0  0  0
  191.6980  171.6280  140.7250 C   0  0  0  0  0  3  0  0  0  0  0  0
  192.1880  172.5720  139.8090 C   0  0  0  0  0  0  0  0  0  0  0  0
  1 30  1  6  0  0  0
  1  8  1  0  0  0  0
  2  7  2  0  0  0  0
  2  9  1  0  0  0  0
  3 10  1  0  0  0  0
  4  2  1  0  0  0  0
  5  9  1  0  0  0  0
  6  4  1  0  0  0  0
  6  8  1  0  0  0  0
  7 11  1  0  0  0  0
  8  5  1  0  0  0  0
  9  3  2  0  0  0  0
 11 10  2  0  0  0  0
 12 13  2  0  0  0  0
 13 14  1  0  0  0  0
 14  7  1  0  0  0  0
 15 16  1  0  0  0  0
 15 13  1  0  0  0  0
 16 17  1  0  0  0  0
 17 18  1  0  0  0  0
 18 21  1  0  0  0  0
 20 21  1  0  0  0  0
 20 19  1  0  0  0  0
 21 19  1  0  0  0  0
 22 28  1  0  0  0  0
 22 27  1  0  0  0  0
 23  1  1  6  0  0  0
 23 27  1  0  0  0  0
 24 23  1  0  0  0  0
 25 24  1  0  0  0  0
 25 26  1  0  0  0  0
 26 28  1  0  0  0  0
 30 29  1  0  0  0  0
 31 30  2  0  0  0  0
 32 33  1  0  0  0  0
 33 29  2  0  0  0  0
 34 32  2  0  0  0  0
 34 31  1  0  0  0  0
 35 34  1  0  0  0  0
 36 37  2  0  0  0  0
 37 31  1  0  0  0  0
 38 39  1  0  0  0  0
 39 42  1  0  0  0  0
 40 41  1  0  0  0  0
 40 39  2  0  0  0  0
 41 44  2  0  0  0  0
 42 43  2  0  0  0  0
 44 36  1  0  0  0  0
 44 43  1  0  0  0  0
M  END
>  <MODEL>
3

>  <REMARK>
 VINA RESULT:      -7.5      3.281      8.198
  Name = 
  11 active torsions:
  status: ('A' for Active; 'I' for Inactive)
    1  A    between atoms: C_5  and  C_41
    2  A    between atoms: N_7  and  C_24
    3  A    between atoms: C_9  and  C_41
    4  A    between atoms: O_10  and  C_37
    5  A    between atoms: O_10  and  C_43
    6  A    between atoms: C_11  and  N_27
    7  A    between atoms: C_28  and  N_39
    8  A    between atoms: N_31  and  C_41
    9  A    between atoms: C_32  and  C_37
   10  A    between atoms: C_32  and  C_38
   11  A    between atoms: C_35  and  C_43
                            x       y       z     vdW  Elec       q    Type
                         _______ _______ _______ _____ _____    ______ ____

>  <TORSDO>
F 11

$$$$
=
 OpenBabel11042417073D

 44 49  0  0  1  0  0  0  0  0999 V2000
  193.2540  173.5880  145.2150 C   0  0  2  0  0  3  0  0  0  0  0  0
  189.7590  175.8780  144.6800 C   0  0  0  0  0  0  0  0  0  0  0  0
  190.9390  176.9790  142.8640 C   0  0  0  0  0  3  0  0  0  0  0  0
  189.7500  174.8180  145.7460 C   0  0  0  0  0  2  0  0  0  0  0  0
  192.0060  175.1970  144.1080 O   0  0  0  0  0  0  0  0  0  0  0  0
  191.1750  174.3800  146.0920 C   0  0  0  0  0  2  0  0  0  0  0  0
  188.6450  176.7120  144.4700 C   0  0  0  0  0  0  0  0  0  0  0  0
  191.8970  174.0390  144.8610 N   0  0  0  0  0  0  0  0  0  0  0  0
  190.8970  176.0140  143.8700 C   0  0  0  0  0  0  0  0  0  0  0  0
  189.8370  177.8070  142.6520 C   0  0  0  0  0  3  0  0  0  0  0  0
  188.6990  177.6750  143.4520 C   0  0  0  0  0  3  0  0  0  0  0  0
  188.2050  177.8810  147.1440 O   0  0  0  0  0  0  0  0  0  0  0  0
  187.3320  177.1270  146.6370 C   0  0  0  0  0  0  0  0  0  0  0  0
  187.4930  176.5860  145.3190 N   0  0  0  0  0  2  0  0  0  0  0  0
  186.1040  176.8070  147.4110 C   0  0  0  0  0  2  0  0  0  0  0  0
  184.8700  177.1510  146.6030 C   0  0  0  0  0  2  0  0  0  0  0  0
  184.7720  178.5360  146.4830 O   0  0  0  0  0  0  0  0  0  0  0  0
  184.0710  178.7390  145.2950 C   0  0  0  0  0  2  0  0  0  0  0  0
  184.8180  177.6490  143.3360 O   0  0  0  0  0  0  0  0  0  0  0  0
  184.3430  178.8420  142.9490 O   0  0  0  0  0  0  0  0  0  0  0  0
  185.0410  178.7490  144.1330 C   0  0  0  0  0  3  0  0  0  0  0  0
  196.4610  174.1080  145.9060 C   0  0  0  0  0  2  0  0  0  0  0  0
  194.3870  174.3100  144.4580 C   0  0  2  0  0  3  0  0  0  0  0  0
  194.8090  173.6630  143.2120 N   0  0  0  0  0  2  0  0  0  0  0  0
  195.8850  172.6980  143.4230 C   0  0  0  0  0  2  0  0  0  0  0  0
  197.2180  173.4220  143.5320 C   0  0  0  0  0  2  0  0  0  0  0  0
  195.4730  175.0580  145.2450 C   0  0  0  0  0  2  0  0  0  0  0  0
  197.6140  173.7120  144.9830 C   0  0  0  0  0  2  0  0  0  0  0  0
  194.3720  171.4950  145.8520 N   0  0  0  0  0  0  0  0  0  0  0  0
  193.4330  172.0930  145.0740 C   0  0  0  0  0  0  0  0  0  0  0  0
  192.7330  171.3280  144.1140 C   0  0  0  0  0  0  0  0  0  0  0  0
  193.9680  169.4100  144.8490 N   0  0  0  0  0  0  0  0  0  0  0  0
  194.6400  170.1700  145.7480 C   0  0  0  0  0  3  0  0  0  0  0  0
  193.0270  169.9490  144.0320 C   0  0  0  0  0  0  0  0  0  0  0  0
  192.3560  169.0970  143.1070 N   0  0  0  0  0  1  0  0  0  0  0  0
  191.9080  172.1600  142.0330 N   0  0  0  0  0  0  0  0  0  0  0  0
  191.7510  171.9640  143.2810 N   0  0  0  0  0  0  0  0  0  0  0  0
  187.9940  174.6880  138.8900 O   0  0  0  0  0  1  0  0  0  0  0  0
  188.9580  174.0650  139.6710 C   0  0  0  0  0  0  0  0  0  0  0  0
  190.0750  173.4800  139.0700 C   0  0  0  0  0  3  0  0  0  0  0  0
  191.0430  172.8470  139.8570 C   0  0  0  0  0  3  0  0  0  0  0  0
  188.8060  174.0150  141.0590 C   0  0  0  0  0  3  0  0  0  0  0  0
  189.7740  173.3850  141.8450 C   0  0  0  0  0  3  0  0  0  0  0  0
  190.8990  172.7970  141.2480 C   0  0  0  0  0  0  0  0  0  0  0  0
  1 30  1  6  0  0  0
  2  4  1  0  0  0  0
  3  9  1  0  0  0  0
  4  6  1  0  0  0  0
  5  8  1  0  0  0  0
  7  2  1  0  0  0  0
  7 14  1  0  0  0  0
  8  1  1  0  0  0  0
  8  6  1  0  0  0  0
  9  5  1  0  0  0  0
  9  2  2  0  0  0  0
 10  3  2  0  0  0  0
 10 11  1  0  0  0  0
 11  7  2  0  0  0  0
 13 12  2  0  0  0  0
 13 15  1  0  0  0  0
 14 13  1  0  0  0  0
 16 15  1  0  0  0  0
 17 16  1  0  0  0  0
 18 17  1  0  0  0  0
 19 21  1  0  0  0  0
 20 19  1  0  0  0  0
 20 21  1  0  0  0  0
 21 18  1  0  0  0  0
 23  1  1  1  0  0  0
 23 27  1  0  0  0  0
 24 25  1  0  0  0  0
 24 23  1  0  0  0  0
 25 26  1  0  0  0  0
 26 28  1  0  0  0  0
 27 22  1  0  0  0  0
 28 22  1  0  0  0  0
 30 29  2  0  0  0  0
 31 30  1  0  0  0  0
 32 33  2  0  0  0  0
 33 29  1  0  0  0  0
 34 31  2  0  0  0  0
 34 32  1  0  0  0  0
 35 34  1  0  0  0  0
 36 37  2  0  0  0  0
 37 31  1  0  0  0  0
 38 39  1  0  0  0  0
 39 42  1  0  0  0  0
 40 39  2  0  0  0  0
 40 41  1  0  0  0  0
 41 44  2  0  0  0  0
 42 43  2  0  0  0  0
 44 43  1  0  0  0  0
 44 36  1  0  0  0  0
M  END
>  <MODEL>
4

>  <REMARK>
 VINA RESULT:      -7.5      3.311      8.533
  Name = 
  11 active torsions:
  status: ('A' for Active; 'I' for Inactive)
    1  A    between atoms: C_5  and  C_41
    2  A    between atoms: N_7  and  C_24
    3  A    between atoms: C_9  and  C_41
    4  A    between atoms: O_10  and  C_37
    5  A    between atoms: O_10  and  C_43
    6  A    between atoms: C_11  and  N_27
    7  A    between atoms: C_28  and  N_39
    8  A    between atoms: N_31  and  C_41
    9  A    between atoms: C_32  and  C_37
   10  A    between atoms: C_32  and  C_38
   11  A    between atoms: C_35  and  C_43
                            x       y       z     vdW  Elec       q    Type
                         _______ _______ _______ _____ _____    ______ ____

>  <TORSDO>
F 11

$$$$
=
 OpenBabel11042417073D

 44 49  0  0  1  0  0  0  0  0999 V2000
  193.1410  174.3050  142.6240 C   0  0  2  0  0  3  0  0  0  0  0  0
  190.7710  176.3630  145.4330 C   0  0  0  0  0  0  0  0  0  0  0  0
  192.6540  176.1510  146.9530 C   0  0  0  0  0  3  0  0  0  0  0  0
  190.1980  176.1330  144.0620 C   0  0  0  0  0  2  0  0  0  0  0  0
  192.8040  175.2860  144.6970 O   0  0  0  0  0  0  0  0  0  0  0  0
  190.9760  175.0440  143.3210 C   0  0  0  0  0  2  0  0  0  0  0  0
  190.0230  177.0050  146.4380 C   0  0  0  0  0  0  0  0  0  0  0  0
  192.4110  175.3450  143.3690 N   0  0  0  0  0  0  0  0  0  0  0  0
  192.0840  175.9460  145.6970 C   0  0  0  0  0  0  0  0  0  0  0  0
  191.9170  176.7870  147.9520 C   0  0  0  0  0  3  0  0  0  0  0  0
  190.6090  177.2090  147.6950 C   0  0  0  0  0  3  0  0  0  0  0  0
  187.5210  175.6670  147.2520 O   0  0  0  0  0  0  0  0  0  0  0  0
  187.4760  176.7040  146.5390 C   0  0  0  0  0  0  0  0  0  0  0  0
  188.6690  177.4060  146.1710 N   0  0  0  0  0  2  0  0  0  0  0  0
  186.1570  177.2210  146.0860 C   0  0  0  0  0  2  0  0  0  0  0  0
  186.2300  177.6400  144.6330 C   0  0  0  0  0  2  0  0  0  0  0  0
  186.4420  176.5140  143.8400 O   0  0  0  0  0  0  0  0  0  0  0  0
  186.0030  176.8880  142.5710 C   0  0  0  0  0  2  0  0  0  0  0  0
  188.0330  177.5980  141.5920 O   0  0  0  0  0  0  0  0  0  0  0  0
  187.0610  177.9190  140.7250 O   0  0  0  0  0  0  0  0  0  0  0  0
  186.8290  178.0570  142.0760 C   0  0  0  0  0  3  0  0  0  0  0  0
  195.8040  176.2470  143.0310 C   0  0  0  0  0  2  0  0  0  0  0  0
  194.2060  174.8460  141.6470 C   0  0  2  0  0  3  0  0  0  0  0  0
  195.0940  173.8290  141.0750 N   0  0  0  0  0  2  0  0  0  0  0  0
  196.2880  173.6130  141.8870 C   0  0  0  0  0  2  0  0  0  0  0  0
  197.3100  174.7030  141.6070 C   0  0  0  0  0  2  0  0  0  0  0  0
  194.8140  176.2370  141.8770 C   0  0  0  0  0  2  0  0  0  0  0  0
  197.2210  175.8630  142.6030 C   0  0  0  0  0  2  0  0  0  0  0  0
  191.5090  173.8540  140.8440 N   0  0  0  0  0  0  0  0  0  0  0  0
  192.2230  173.3560  141.8870 C   0  0  0  0  0  0  0  0  0  0  0  0
  192.0190  172.0200  142.2970 C   0  0  0  0  0  0  0  0  0  0  0  0
  190.4190  171.7990  140.5250 N   0  0  0  0  0  0  0  0  0  0  0  0
  190.6180  173.0900  140.1660 C   0  0  0  0  0  3  0  0  0  0  0  0
  191.0910  171.2440  141.5670 C   0  0  0  0  0  0  0  0  0  0  0  0
  190.8360  169.8810  141.8970 N   0  0  0  0  0  1  0  0  0  0  0  0
  193.9430  171.0300  143.3070 N   0  0  0  0  0  0  0  0  0  0  0  0
  192.7630  171.4980  143.4090 N   0  0  0  0  0  0  0  0  0  0  0  0
  196.7610  169.0600  147.7520 O   0  0  0  0  0  1  0  0  0  0  0  0
  196.0610  169.5430  146.6550 C   0  0  0  0  0  0  0  0  0  0  0  0
  196.5320  170.6600  145.9610 C   0  0  0  0  0  3  0  0  0  0  0  0
  195.8220  171.1490  144.8590 C   0  0  0  0  0  3  0  0  0  0  0  0
  194.8810  168.9150  146.2500 C   0  0  0  0  0  3  0  0  0  0  0  0
  194.1740  169.4020  145.1480 C   0  0  0  0  0  3  0  0  0  0  0  0
  194.6410  170.5230  144.4450 C   0  0  0  0  0  0  0  0  0  0  0  0
  1 30  1  6  0  0  0
  1  8  1  0  0  0  0
  2  9  2  0  0  0  0
  2  7  1  0  0  0  0
  3 10  2  0  0  0  0
  4  2  1  0  0  0  0
  5  9  1  0  0  0  0
  6  8  1  0  0  0  0
  6  4  1  0  0  0  0
  7 11  2  0  0  0  0
  8  5  1  0  0  0  0
  9  3  1  0  0  0  0
 11 10  1  0  0  0  0
 13 12  2  0  0  0  0
 14  7  1  0  0  0  0
 14 13  1  0  0  0  0
 15 13  1  0  0  0  0
 16 15  1  0  0  0  0
 17 16  1  0  0  0  0
 18 17  1  0  0  0  0
 19 21  1  0  0  0  0
 20 19  1  0  0  0  0
 20 21  1  0  0  0  0
 21 18  1  0  0  0  0
 23 27  1  0  0  0  0
 23  1  1  1  0  0  0
 24 23  1  0  0  0  0
 24 25  1  0  0  0  0
 26 25  1  0  0  0  0
 26 28  1  0  0  0  0
 27 22  1  0  0  0  0
 28 22  1  0  0  0  0
 29 30  1  0  0  0  0
 30 31  2  0  0  0  0
 31 37  1  0  0  0  0
 32 34  2  0  0  0  0
 33 32  1  0  0  0  0
 33 29  2  0  0  0  0
 34 35  1  0  0  0  0
 34 31  1  0  0  0  0
 36 37  2  0  0  0  0
 36 44  1  0  0  0  0
 39 38  1  0  0  0  0
 40 39  2  0  0  0  0
 41 40  1  0  0  0  0
 42 39  1  0  0  0  0
 43 42  2  0  0  0  0
 44 41  2  0  0  0  0
 44 43  1  0  0  0  0
M  END
>  <MODEL>
5

>  <REMARK>
 VINA RESULT:      -7.3      3.311      7.526
  Name = 
  11 active torsions:
  status: ('A' for Active; 'I' for Inactive)
    1  A    between atoms: C_5  and  C_41
    2  A    between atoms: N_7  and  C_24
    3  A    between atoms: C_9  and  C_41
    4  A    between atoms: O_10  and  C_37
    5  A    between atoms: O_10  and  C_43
    6  A    between atoms: C_11  and  N_27
    7  A    between atoms: C_28  and  N_39
    8  A    between atoms: N_31  and  C_41
    9  A    between atoms: C_32  and  C_37
   10  A    between atoms: C_32  and  C_38
   11  A    between atoms: C_35  and  C_43
                            x       y       z     vdW  Elec       q    Type
                         _______ _______ _______ _____ _____    ______ ____

>  <TORSDO>
F 11

$$$$
=
 OpenBabel11042417073D

 44 49  0  0  1  0  0  0  0  0999 V2000
  192.9530  173.4940  144.2730 C   0  0  2  0  0  3  0  0  0  0  0  0
  189.3990  174.4250  142.2120 C   0  0  0  0  0  0  0  0  0  0  0  0
  190.4460  173.4250  140.2600 C   0  0  0  0  0  3  0  0  0  0  0  0
  189.4730  174.7600  143.6750 C   0  0  0  0  0  2  0  0  0  0  0  0
  191.6140  173.4760  142.3800 O   0  0  0  0  0  0  0  0  0  0  0  0
  190.9220  174.7530  144.1650 C   0  0  0  0  0  2  0  0  0  0  0  0
  188.2620  174.7450  141.4460 C   0  0  0  0  0  0  0  0  0  0  0  0
  191.5700  173.4980  143.7650 N   0  0  0  0  0  0  0  0  0  0  0  0
  190.4810  173.7620  141.6130 C   0  0  0  0  0  0  0  0  0  0  0  0
  189.3220  173.7390  139.4980 C   0  0  0  0  0  3  0  0  0  0  0  0
  188.2380  174.3960  140.0870 C   0  0  0  0  0  3  0  0  0  0  0  0
  187.5890  177.6110  141.2470 O   0  0  0  0  0  0  0  0  0  0  0  0
  186.8990  176.8530  141.9790 C   0  0  0  0  0  0  0  0  0  0  0  0
  187.1680  175.4470  142.0560 N   0  0  0  0  0  2  0  0  0  0  0  0
  185.7720  177.4230  142.7650 C   0  0  0  0  0  2  0  0  0  0  0  0
  186.0470  178.8740  143.0980 C   0  0  0  0  0  2  0  0  0  0  0  0
  184.9930  179.3780  143.8580 O   0  0  0  0  0  0  0  0  0  0  0  0
  185.3740  179.1570  145.1810 C   0  0  0  0  0  2  0  0  0  0  0  0
  184.4460  177.4100  146.4710 O   0  0  0  0  0  0  0  0  0  0  0  0
  184.5510  178.4690  147.2870 O   0  0  0  0  0  0  0  0  0  0  0  0
  184.1820  178.6660  145.9740 C   0  0  0  0  0  3  0  0  0  0  0  0
  193.8390  170.4720  143.2170 C   0  0  0  0  0  2  0  0  0  0  0  0
  193.3600  172.2020  145.0110 C   0  0  2  0  0  3  0  0  0  0  0  0
  194.6380  172.2740  145.7250 N   0  0  0  0  0  2  0  0  0  0  0  0
  195.7670  171.8740  144.8900 C   0  0  0  0  0  2  0  0  0  0  0  0
  195.8550  170.3570  144.8290 C   0  0  0  0  0  2  0  0  0  0  0  0
  192.9810  170.8360  144.4190 C   0  0  0  0  0  2  0  0  0  0  0  0
  195.1430  169.7750  143.6050 C   0  0  0  0  0  2  0  0  0  0  0  0
  192.5240  174.8470  146.2780 N   0  0  0  0  0  0  0  0  0  0  0  0
  193.2610  174.6870  145.1490 C   0  0  0  0  0  0  0  0  0  0  0  0
  194.2090  175.6720  144.7910 C   0  0  0  0  0  0  0  0  0  0  0  0
  193.6100  176.8670  146.7800 N   0  0  0  0  0  0  0  0  0  0  0  0
  192.6920  175.9190  147.0900 C   0  0  0  0  0  3  0  0  0  0  0  0
  194.3690  176.7750  145.6590 C   0  0  0  0  0  0  0  0  0  0  0  0
  195.3170  177.8050  145.3880 N   0  0  0  0  0  1  0  0  0  0  0  0
  194.5670  175.8700  142.4380 N   0  0  0  0  0  0  0  0  0  0  0  0
  194.9780  175.5110  143.5890 N   0  0  0  0  0  0  0  0  0  0  0  0
  197.6810  175.0980  137.8240 O   0  0  0  0  0  1  0  0  0  0  0  0
  196.9170  175.2910  138.9670 C   0  0  0  0  0  0  0  0  0  0  0  0
  195.5310  175.1160  138.9190 C   0  0  0  0  0  3  0  0  0  0  0  0
  194.7610  175.3160  140.0700 C   0  0  0  0  0  3  0  0  0  0  0  0
  197.5330  175.6660  140.1620 C   0  0  0  0  0  3  0  0  0  0  0  0
  196.7630  175.8620  141.3120 C   0  0  0  0  0  3  0  0  0  0  0  0
  195.3710  175.6880  141.2720 C   0  0  0  0  0  0  0  0  0  0  0  0
  1 30  1  1  0  0  0
  2  4  1  0  0  0  0
  3  9  2  0  0  0  0
  4  6  1  0  0  0  0
  5  8  1  0  0  0  0
  7 14  1  0  0  0  0
  7  2  2  0  0  0  0
  8  6  1  0  0  0  0
  8  1  1  0  0  0  0
  9  2  1  0  0  0  0
  9  5  1  0  0  0  0
 10 11  2  0  0  0  0
 10  3  1  0  0  0  0
 11  7  1  0  0  0  0
 12 13  2  0  0  0  0
 13 14  1  0  0  0  0
 13 15  1  0  0  0  0
 15 16  1  0  0  0  0
 16 17  1  0  0  0  0
 17 18  1  0  0  0  0
 18 21  1  0  0  0  0
 19 20  1  0  0  0  0
 21 19  1  0  0  0  0
 21 20  1  0  0  0  0
 22 28  1  0  0  0  0
 22 27  1  0  0  0  0
 23  1  1  6  0  0  0
 23 24  1  0  0  0  0
 25 24  1  0  0  0  0
 26 25  1  0  0  0  0
 27 23  1  0  0  0  0
 28 26  1  0  0  0  0
 29 33  1  0  0  0  0
 30 29  2  0  0  0  0
 31 30  1  0  0  0  0
 31 34  2  0  0  0  0
 32 33  2  0  0  0  0
 34 32  1  0  0  0  0
 35 34  1  0  0  0  0
 36 37  2  0  0  0  0
 37 31  1  0  0  0  0
 38 39  1  0  0  0  0
 39 42  1  0  0  0  0
 40 39  2  0  0  0  0
 40 41  1  0  0  0  0
 41 44  2  0  0  0  0
 42 43  2  0  0  0  0
 44 43  1  0  0  0  0
 44 36  1  0  0  0  0
M  END
>  <MODEL>
6

>  <REMARK>
 VINA RESULT:      -7.2      2.791      9.023
  Name = 
  11 active torsions:
  status: ('A' for Active; 'I' for Inactive)
    1  A    between atoms: C_5  and  C_41
    2  A    between atoms: N_7  and  C_24
    3  A    between atoms: C_9  and  C_41
    4  A    between atoms: O_10  and  C_37
    5  A    between atoms: O_10  and  C_43
    6  A    between atoms: C_11  and  N_27
    7  A    between atoms: C_28  and  N_39
    8  A    between atoms: N_31  and  C_41
    9  A    between atoms: C_32  and  C_37
   10  A    between atoms: C_32  and  C_38
   11  A    between atoms: C_35  and  C_43
                            x       y       z     vdW  Elec       q    Type
                         _______ _______ _______ _____ _____    ______ ____

>  <TORSDO>
F 11

$$$$
=
 OpenBabel11042417073D

 44 49  0  0  1  0  0  0  0  0999 V2000
  194.0740  174.7180  143.5860 C   0  0  2  0  0  3  0  0  0  0  0  0
  190.7810  176.7620  145.2370 C   0  0  0  0  0  0  0  0  0  0  0  0
  191.8490  176.4320  147.3950 C   0  0  0  0  0  3  0  0  0  0  0  0
  190.8320  176.5990  143.7440 C   0  0  0  0  0  2  0  0  0  0  0  0
  192.9160  175.6390  145.3710 O   0  0  0  0  0  0  0  0  0  0  0  0
  191.8290  175.5090  143.3470 C   0  0  0  0  0  2  0  0  0  0  0  0
  189.6920  177.3950  145.8660 C   0  0  0  0  0  0  0  0  0  0  0  0
  193.1170  175.7570  144.0050 N   0  0  0  0  0  0  0  0  0  0  0  0
  191.8550  176.2900  146.0070 C   0  0  0  0  0  0  0  0  0  0  0  0
  190.7730  177.0590  148.0220 C   0  0  0  0  0  3  0  0  0  0  0  0
  189.7010  177.5350  147.2610 C   0  0  0  0  0  3  0  0  0  0  0  0
  186.9090  176.4120  145.8750 O   0  0  0  0  0  0  0  0  0  0  0  0
  187.2530  177.3180  145.0700 C   0  0  0  0  0  0  0  0  0  0  0  0
  188.5830  177.8530  145.0760 N   0  0  0  0  0  2  0  0  0  0  0  0
  186.2560  177.8560  144.1070 C   0  0  0  0  0  2  0  0  0  0  0  0
  186.5880  177.4010  142.7000 C   0  0  0  0  0  2  0  0  0  0  0  0
  186.5840  176.0080  142.6560 O   0  0  0  0  0  0  0  0  0  0  0  0
  187.6360  175.6790  141.8020 C   0  0  0  0  0  2  0  0  0  0  0  0
  187.4800  173.3320  142.0180 O   0  0  0  0  0  0  0  0  0  0  0  0
  188.5260  173.5700  141.2130 O   0  0  0  0  0  0  0  0  0  0  0  0
  188.2980  174.4060  142.2840 C   0  0  0  0  0  3  0  0  0  0  0  0
  193.5630  171.7760  145.0390 C   0  0  0  0  0  2  0  0  0  0  0  0
  194.7740  173.9870  144.7500 C   0  0  2  0  0  3  0  0  0  0  0  0
  196.1480  173.5580  144.4730 N   0  0  0  0  0  2  0  0  0  0  0  0
  196.2090  172.2150  143.9030 C   0  0  0  0  0  2  0  0  0  0  0  0
  196.0770  171.1770  145.0060 C   0  0  0  0  0  2  0  0  0  0  0  0
  193.9530  173.0930  145.6910 C   0  0  0  0  0  2  0  0  0  0  0  0
  194.6350  170.6960  145.1930 C   0  0  0  0  0  2  0  0  0  0  0  0
  195.9790  176.1820  143.0720 N   0  0  0  0  0  0  0  0  0  0  0  0
  195.1170  175.2340  142.6210 C   0  0  0  0  0  0  0  0  0  0  0  0
  195.1650  174.8370  141.2660 C   0  0  0  0  0  0  0  0  0  0  0  0
  196.9870  176.3640  140.9590 N   0  0  0  0  0  0  0  0  0  0  0  0
  196.9060  176.7430  142.2580 C   0  0  0  0  0  3  0  0  0  0  0  0
  196.1460  175.4320  140.4420 C   0  0  0  0  0  0  0  0  0  0  0  0
  196.2810  175.0770  139.0680 N   0  0  0  0  0  1  0  0  0  0  0  0
  193.1620  174.1290  140.1760 N   0  0  0  0  0  0  0  0  0  0  0  0
  194.2430  173.8460  140.7850 N   0  0  0  0  0  0  0  0  0  0  0  0
  189.6300  170.1540  138.3550 O   0  0  0  0  0  1  0  0  0  0  0  0
  190.5050  171.1310  138.8080 C   0  0  0  0  0  0  0  0  0  0  0  0
  190.4410  172.4250  138.2830 C   0  0  0  0  0  3  0  0  0  0  0  0
  191.3280  173.4080  138.7360 C   0  0  0  0  0  3  0  0  0  0  0  0
  191.4540  170.8200  139.7840 C   0  0  0  0  0  3  0  0  0  0  0  0
  192.3380  171.8030  140.2380 C   0  0  0  0  0  3  0  0  0  0  0  0
  192.2790  173.1040  139.7160 C   0  0  0  0  0  0  0  0  0  0  0  0
  1 30  1  6  0  0  0
  1  8  1  0  0  0  0
  2  7  2  0  0  0  0
  2  9  1  0  0  0  0
  3 10  1  0  0  0  0
  4  2  1  0  0  0  0
  5  9  1  0  0  0  0
  6  4  1  0  0  0  0
  6  8  1  0  0  0  0
  7 11  1  0  0  0  0
  8  5  1  0  0  0  0
  9  3  2  0  0  0  0
 11 10  2  0  0  0  0
 13 14  1  0  0  0  0
 13 12  2  0  0  0  0
 14  7  1  0  0  0  0
 15 13  1  0  0  0  0
 16 15  1  0  0  0  0
 17 16  1  0  0  0  0
 18 21  1  0  0  0  0
 18 17  1  0  0  0  0
 19 21  1  0  0  0  0
 20 19  1  0  0  0  0
 20 21  1  0  0  0  0
 22 28  1  0  0  0  0
 22 27  1  0  0  0  0
 23  1  1  6  0  0  0
 23 27  1  0  0  0  0
 24 23  1  0  0  0  0
 25 24  1  0  0  0  0
 25 26  1  0  0  0  0
 26 28  1  0  0  0  0
 30 29  1  0  0  0  0
 31 30  2  0  0  0  0
 32 33  1  0  0  0  0
 33 29  2  0  0  0  0
 34 32  2  0  0  0  0
 34 31  1  0  0  0  0
 35 34  1  0  0  0  0
 36 37  2  0  0  0  0
 37 31  1  0  0  0  0
 38 39  1  0  0  0  0
 39 42  1  0  0  0  0
 40 41  1  0  0  0  0
 40 39  2  0  0  0  0
 41 44  2  0  0  0  0
 42 43  2  0  0  0  0
 44 36  1  0  0  0  0
 44 43  1  0  0  0  0
M  END
>  <MODEL>
7

>  <REMARK>
 VINA RESULT:      -7.0      3.195      7.578
  Name = 
  11 active torsions:
  status: ('A' for Active; 'I' for Inactive)
    1  A    between atoms: C_5  and  C_41
    2  A    between atoms: N_7  and  C_24
    3  A    between atoms: C_9  and  C_41
    4  A    between atoms: O_10  and  C_37
    5  A    between atoms: O_10  and  C_43
    6  A    between atoms: C_11  and  N_27
    7  A    between atoms: C_28  and  N_39
    8  A    between atoms: N_31  and  C_41
    9  A    between atoms: C_32  and  C_37
   10  A    between atoms: C_32  and  C_38
   11  A    between atoms: C_35  and  C_43
                            x       y       z     vdW  Elec       q    Type
                         _______ _______ _______ _____ _____    ______ ____

>  <TORSDO>
F 11

$$$$
=
 OpenBabel11042417073D

 44 49  0  0  1  0  0  0  0  0999 V2000
  192.4370  173.6760  141.6880 C   0  0  2  0  0  3  0  0  0  0  0  0
  189.5030  175.8850  143.7500 C   0  0  0  0  0  0  0  0  0  0  0  0
  191.2410  176.4000  145.3670 C   0  0  0  0  0  3  0  0  0  0  0  0
  189.1090  175.2260  142.4570 C   0  0  0  0  0  2  0  0  0  0  0  0
  191.7470  175.0540  143.4200 O   0  0  0  0  0  0  0  0  0  0  0  0
  190.1230  174.1510  142.0610 C   0  0  0  0  0  2  0  0  0  0  0  0
  188.5670  176.6040  144.5170 C   0  0  0  0  0  0  0  0  0  0  0  0
  191.4780  174.7140  142.1030 N   0  0  0  0  0  0  0  0  0  0  0  0
  190.8360  175.7940  144.1790 C   0  0  0  0  0  0  0  0  0  0  0  0
  190.3180  177.1130  146.1310 C   0  0  0  0  0  3  0  0  0  0  0  0
  188.9890  177.2120  145.7080 C   0  0  0  0  0  3  0  0  0  0  0  0
  187.3620  178.4130  142.5210 O   0  0  0  0  0  0  0  0  0  0  0  0
  186.6350  177.5990  143.1510 C   0  0  0  0  0  0  0  0  0  0  0  0
  187.1970  176.6720  144.0880 N   0  0  0  0  0  2  0  0  0  0  0  0
  185.1690  177.5860  142.9040 C   0  0  0  0  0  2  0  0  0  0  0  0
  184.5040  178.7310  143.6380 C   0  0  0  0  0  2  0  0  0  0  0  0
  184.0740  178.2880  144.8880 O   0  0  0  0  0  0  0  0  0  0  0  0
  184.8120  179.0390  145.8020 C   0  0  0  0  0  2  0  0  0  0  0  0
  185.4610  177.0980  146.9820 O   0  0  0  0  0  0  0  0  0  0  0  0
  186.1550  178.1160  147.5140 O   0  0  0  0  0  0  0  0  0  0  0  0
  184.8470  178.3200  147.1340 C   0  0  0  0  0  3  0  0  0  0  0  0
  194.9000  175.5960  142.8190 C   0  0  0  0  0  2  0  0  0  0  0  0
  193.7280  174.2190  141.0390 C   0  0  2  0  0  3  0  0  0  0  0  0
  194.7330  173.2030  140.7160 N   0  0  0  0  0  2  0  0  0  0  0  0
  195.6640  172.9700  141.8170 C   0  0  0  0  0  2  0  0  0  0  0  0
  196.7280  174.0570  141.8350 C   0  0  0  0  0  2  0  0  0  0  0  0
  194.2570  175.6040  141.4410 C   0  0  0  0  0  2  0  0  0  0  0  0
  196.3780  175.2070  142.7840 C   0  0  0  0  0  2  0  0  0  0  0  0
  191.3450  173.0530  139.5770 N   0  0  0  0  0  0  0  0  0  0  0  0
  191.8220  172.6360  140.7790 C   0  0  0  0  0  0  0  0  0  0  0  0
  191.6460  171.2900  141.1690 C   0  0  0  0  0  0  0  0  0  0  0  0
  190.5620  170.8990  139.0670 N   0  0  0  0  0  0  0  0  0  0  0  0
  190.7240  172.2010  138.7250 C   0  0  0  0  0  3  0  0  0  0  0  0
  191.0020  170.4220  140.2590 C   0  0  0  0  0  0  0  0  0  0  0  0
  190.8010  169.0430  140.5600 N   0  0  0  0  0  1  0  0  0  0  0  0
  193.2540  170.2650  142.6060 N   0  0  0  0  0  0  0  0  0  0  0  0
  192.1360  170.8530  142.4460 N   0  0  0  0  0  0  0  0  0  0  0  0
  195.0690  168.6680  147.6800 O   0  0  0  0  0  1  0  0  0  0  0  0
  194.6170  169.0580  146.4260 C   0  0  0  0  0  0  0  0  0  0  0  0
  195.0750  170.2480  145.8560 C   0  0  0  0  0  3  0  0  0  0  0  0
  194.6150  170.6430  144.5960 C   0  0  0  0  0  3  0  0  0  0  0  0
  193.6980  168.2620  145.7380 C   0  0  0  0  0  3  0  0  0  0  0  0
  193.2400  168.6560  144.4770 C   0  0  0  0  0  3  0  0  0  0  0  0
  193.6970  169.8500  143.8980 C   0  0  0  0  0  0  0  0  0  0  0  0
  1 30  1  6  0  0  0
  1  8  1  0  0  0  0
  2  9  2  0  0  0  0
  2  7  1  0  0  0  0
  3 10  2  0  0  0  0
  4  2  1  0  0  0  0
  5  9  1  0  0  0  0
  6  8  1  0  0  0  0
  6  4  1  0  0  0  0
  7 11  2  0  0  0  0
  8  5  1  0  0  0  0
  9  3  1  0  0  0  0
 11 10  1  0  0  0  0
 12 13  2  0  0  0  0
 13 14  1  0  0  0  0
 14  7  1  0  0  0  0
 15 13  1  0  0  0  0
 15 16  1  0  0  0  0
 16 17  1  0  0  0  0
 17 18  1  0  0  0  0
 18 21  1  0  0  0  0
 19 21  1  0  0  0  0
 19 20  1  0  0  0  0
 21 20  1  0  0  0  0
 23 27  1  0  0  0  0
 23  1  1  1  0  0  0
 24 23  1  0  0  0  0
 24 25  1  0  0  0  0
 25 26  1  0  0  0  0
 26 28  1  0  0  0  0
 27 22  1  0  0  0  0
 28 22  1  0  0  0  0
 29 30  1  0  0  0  0
 30 31  2  0  0  0  0
 31 37  1  0  0  0  0
 32 34  2  0  0  0  0
 33 32  1  0  0  0  0
 33 29  2  0  0  0  0
 34 35  1  0  0  0  0
 34 31  1  0  0  0  0
 36 44  1  0  0  0  0
 37 36  2  0  0  0  0
 39 38  1  0  0  0  0
 40 39  1  0  0  0  0
 41 40  2  0  0  0  0
 42 39  2  0  0  0  0
 43 42  1  0  0  0  0
 44 43  2  0  0  0  0
 44 41  1  0  0  0  0
M  END
>  <MODEL>
8

>  <REMARK>
 VINA RESULT:      -7.0      3.382      8.136
  Name = 
  11 active torsions:
  status: ('A' for Active; 'I' for Inactive)
    1  A    between atoms: C_5  and  C_41
    2  A    between atoms: N_7  and  C_24
    3  A    between atoms: C_9  and  C_41
    4  A    between atoms: O_10  and  C_37
    5  A    between atoms: O_10  and  C_43
    6  A    between atoms: C_11  and  N_27
    7  A    between atoms: C_28  and  N_39
    8  A    between atoms: N_31  and  C_41
    9  A    between atoms: C_32  and  C_37
   10  A    between atoms: C_32  and  C_38
   11  A    between atoms: C_35  and  C_43
                            x       y       z     vdW  Elec       q    Type
                         _______ _______ _______ _____ _____    ______ ____

>  <TORSDO>
F 11

$$$$
=
 OpenBabel11042417073D

 44 49  0  0  1  0  0  0  0  0999 V2000
  193.7980  173.8330  143.0260 C   0  0  2  0  0  3  0  0  0  0  0  0
  189.6970  174.2130  142.1440 C   0  0  0  0  0  0  0  0  0  0  0  0
  189.4970  171.8760  142.7770 C   0  0  0  0  0  3  0  0  0  0  0  0
  190.5630  175.4330  142.0030 C   0  0  0  0  0  2  0  0  0  0  0  0
  191.6390  172.9970  142.9080 O   0  0  0  0  0  0  0  0  0  0  0  0
  192.0430  175.0490  141.9480 C   0  0  0  0  0  2  0  0  0  0  0  0
  188.3260  174.2510  141.8260 C   0  0  0  0  0  0  0  0  0  0  0  0
  192.3640  174.1660  143.0750 N   0  0  0  0  0  0  0  0  0  0  0  0
  190.2710  173.0260  142.6230 C   0  0  0  0  0  0  0  0  0  0  0  0
  188.1380  171.9090  142.4650 C   0  0  0  0  0  3  0  0  0  0  0  0
  187.5580  173.0890  141.9900 C   0  0  0  0  0  3  0  0  0  0  0  0
  186.6260  176.2120  143.2320 O   0  0  0  0  0  0  0  0  0  0  0  0
  186.8840  176.3670  142.0090 C   0  0  0  0  0  0  0  0  0  0  0  0
  187.7480  175.4610  141.3110 N   0  0  0  0  0  2  0  0  0  0  0  0
  186.2960  177.5210  141.2790 C   0  0  0  0  0  2  0  0  0  0  0  0
  184.9780  177.9230  141.9080 C   0  0  0  0  0  2  0  0  0  0  0  0
  185.1950  178.9770  142.7930 O   0  0  0  0  0  0  0  0  0  0  0  0
  184.1680  178.8680  143.7290 C   0  0  0  0  0  2  0  0  0  0  0  0
  185.3860  179.3150  145.7030 O   0  0  0  0  0  0  0  0  0  0  0  0
  184.1470  178.9750  146.0910 O   0  0  0  0  0  0  0  0  0  0  0  0
  184.7230  178.3180  145.0260 C   0  0  0  0  0  3  0  0  0  0  0  0
  196.4750  171.8670  142.9890 C   0  0  0  0  0  2  0  0  0  0  0  0
  194.1940  172.5830  143.8390 C   0  0  2  0  0  3  0  0  0  0  0  0
  194.4510  172.8260  145.2610 N   0  0  0  0  0  2  0  0  0  0  0  0
  195.8490  173.1520  145.5270 C   0  0  0  0  0  2  0  0  0  0  0  0
  196.6800  171.8800  145.5660 C   0  0  0  0  0  2  0  0  0  0  0  0
  195.0180  171.4720  143.1730 C   0  0  0  0  0  2  0  0  0  0  0  0
  197.3340  171.5630  144.2170 C   0  0  0  0  0  2  0  0  0  0  0  0
  195.9260  175.0510  142.8770 N   0  0  0  0  0  0  0  0  0  0  0  0
  194.6850  174.9900  143.4250 C   0  0  0  0  0  0  0  0  0  0  0  0
  194.3070  175.9410  144.4000 C   0  0  0  0  0  0  0  0  0  0  0  0
  196.4620  176.9560  144.1410 N   0  0  0  0  0  0  0  0  0  0  0  0
  196.8090  176.0200  143.2240 C   0  0  0  0  0  3  0  0  0  0  0  0
  195.2430  176.9430  144.7370 C   0  0  0  0  0  0  0  0  0  0  0  0
  194.9390  177.9550  145.6940 N   0  0  0  0  0  1  0  0  0  0  0  0
  192.1300  176.7920  144.8890 N   0  0  0  0  0  0  0  0  0  0  0  0
  193.0000  175.8680  144.9900 N   0  0  0  0  0  0  0  0  0  0  0  0
  187.0720  176.2320  147.2740 O   0  0  0  0  0  1  0  0  0  0  0  0
  188.3200  176.3760  146.6830 C   0  0  0  0  0  0  0  0  0  0  0  0
  189.3350  175.4560  146.9590 C   0  0  0  0  0  3  0  0  0  0  0  0
  190.5940  175.6050  146.3670 C   0  0  0  0  0  3  0  0  0  0  0  0
  188.5620  177.4440  145.8170 C   0  0  0  0  0  3  0  0  0  0  0  0
  189.8190  177.5910  145.2230 C   0  0  0  0  0  3  0  0  0  0  0  0
  190.8430  176.6710  145.4950 C   0  0  0  0  0  0  0  0  0  0  0  0
  1  8  1  0  0  0  0
  1 30  1  1  0  0  0
  2  9  1  0  0  0  0
  4  2  1  0  0  0  0
  5  8  1  0  0  0  0
  6  4  1  0  0  0  0
  6  8  1  0  0  0  0
  7 11  1  0  0  0  0
  7  2  2  0  0  0  0
  9  3  2  0  0  0  0
  9  5  1  0  0  0  0
 10  3  1  0  0  0  0
 11 10  2  0  0  0  0
 13 12  2  0  0  0  0
 14  7  1  0  0  0  0
 14 13  1  0  0  0  0
 15 16  1  0  0  0  0
 15 13  1  0  0  0  0
 16 17  1  0  0  0  0
 17 18  1  0  0  0  0
 18 21  1  0  0  0  0
 19 20  1  0  0  0  0
 21 19  1  0  0  0  0
 21 20  1  0  0  0  0
 22 27  1  0  0  0  0
 22 28  1  0  0  0  0
 23  1  1  6  0  0  0
 23 24  1  0  0  0  0
 24 25  1  0  0  0  0
 25 26  1  0  0  0  0
 27 23  1  0  0  0  0
 28 26  1  0  0  0  0
 29 33  2  0  0  0  0
 29 30  1  0  0  0  0
 30 31  2  0  0  0  0
 31 34  1  0  0  0  0
 31 37  1  0  0  0  0
 32 34  2  0  0  0  0
 33 32  1  0  0  0  0
 34 35  1  0  0  0  0
 36 37  2  0  0  0  0
 36 44  1  0  0  0  0
 39 40  1  0  0  0  0
 39 38  1  0  0  0  0
 41 40  2  0  0  0  0
 42 39  2  0  0  0  0
 43 44  2  0  0  0  0
 43 42  1  0  0  0  0
 44 41  1  0  0  0  0
M  END
>  <MODEL>
9

>  <REMARK>
 VINA RESULT:      -6.9      2.733      8.869
  Name = 
  11 active torsions:
  status: ('A' for Active; 'I' for Inactive)
    1  A    between atoms: C_5  and  C_41
    2  A    between atoms: N_7  and  C_24
    3  A    between atoms: C_9  and  C_41
    4  A    between atoms: O_10  and  C_37
    5  A    between atoms: O_10  and  C_43
    6  A    between atoms: C_11  and  N_27
    7  A    between atoms: C_28  and  N_39
    8  A    between atoms: N_31  and  C_41
    9  A    between atoms: C_32  and  C_37
   10  A    between atoms: C_32  and  C_38
   11  A    between atoms: C_35  and  C_43
                            x       y       z     vdW  Elec       q    Type
                         _______ _______ _______ _____ _____    ______ ____

>  <TORSDO>
F 11

$$$$
