=
 OpenBabel11042418213D

 37 39  0  0  1  0  0  0  0  0999 V2000
  188.4980  176.0690  142.8840 N   0  0  0  0  0  0  0  0  0  0  0  0
  191.9660  175.5830  142.1550 O   0  0  0  0  0  0  0  0  0  0  0  0
  188.5790  177.1040  143.6800 C   0  0  0  0  0  0  0  0  0  0  0  0
  189.8570  177.4950  144.2130 N   0  0  0  0  0  0  0  0  0  0  0  0
  189.6300  175.1920  142.5640 C   0  0  1  0  0  3  0  0  0  0  0  0
  190.9300  175.9100  142.7900 C   0  0  0  0  0  0  0  0  0  0  0  0
  190.9730  176.9650  143.8040 C   0  0  0  0  0  0  0  0  0  0  0  0
  185.0600  179.2890  144.8360 C   0  0  0  0  0  3  0  0  0  0  0  0
  185.3580  179.1590  143.4800 C   0  0  0  0  0  3  0  0  0  0  0  0
  186.7240  178.3040  141.3260 Cl  0  0  0  0  0  0  0  0  0  0  0  0
  185.5160  178.8600  147.4910 Cl  0  0  0  0  0  0  0  0  0  0  0  0
  187.3480  177.8580  144.0260 C   0  0  0  0  0  0  0  0  0  0  0  0
  185.8900  178.7040  145.7890 C   0  0  0  0  0  0  0  0  0  0  0  0
  186.4890  178.4510  143.0620 C   0  0  0  0  0  0  0  0  0  0  0  0
  187.0230  177.9960  145.3860 C   0  0  0  0  0  3  0  0  0  0  0  0
  192.2020  177.3930  144.3110 O   0  0  0  0  0  0  0  0  0  0  0  0
  193.1650  176.4850  144.8280 C   0  0  0  0  0  2  0  0  0  0  0  0
  193.1280  176.5130  146.3420 C   0  0  2  0  0  3  0  0  0  0  0  0
  194.4290  176.4480  146.8450 O   0  0  0  0  0  1  0  0  0  0  0  0
  192.3190  175.3310  146.8470 C   0  0  0  0  0  2  0  0  0  0  0  0
  190.0670  174.9830  147.5270 O   0  0  0  0  0  0  0  0  0  0  0  0
  191.0250  175.7930  147.4340 C   0  0  0  0  0  0  0  0  0  0  0  0
  189.8070  177.8320  147.5480 O   0  0  0  0  0  1  0  0  0  0  0  0
  190.8710  177.0980  147.8990 O   0  0  0  0  0  0  0  0  0  0  0  0
  189.5470  173.9550  143.4550 C   0  0  0  0  0  2  0  0  0  0  0  0
  188.5990  171.7610  143.2160 O   0  0  0  0  0  1  0  0  0  0  0  0
  189.5010  172.6620  142.6460 C   0  0  2  0  0  3  0  0  0  0  0  0
  190.9370  171.0610  141.3220 C   0  0  0  0  0  1  0  0  0  0  0  0
  190.8890  172.0320  142.4920 C   0  0  2  0  0  3  0  0  0  0  0  0
  191.2410  171.3580  143.6690 O   0  0  0  0  0  0  0  0  0  0  0  0
  192.6370  171.4170  143.7530 C   0  0  1  0  0  3  0  0  0  0  0  0
  195.1360  173.5390  143.3930 O   0  0  0  0  0  0  0  0  0  0  0  0
  193.0460  172.6340  144.5790 C   0  0  1  0  0  3  0  0  0  0  0  0
  194.0230  172.2980  145.5190 N   0  0  0  0  0  2  0  0  0  0  0  0
  194.3270  173.0160  144.2010 C   0  0  0  0  0  0  0  0  0  0  0  0
  192.8310  169.0590  143.9040 O   0  0  0  0  0  0  0  0  0  0  0  0
  193.1460  170.1450  144.3650 C   0  0  0  0  0  3  0  0  0  0  0  0
  1  3  2  0  0  0  0
  2  6  2  0  0  0  0
  3 12  1  0  0  0  0
  3  4  1  0  0  0  0
  5  6  1  0  0  0  0
  5  1  1  0  0  0  0
  5 25  1  1  0  0  0
  6  7  1  0  0  0  0
  7  4  2  0  0  0  0
  7 16  1  0  0  0  0
  8 13  1  0  0  0  0
  9  8  2  0  0  0  0
 10 14  1  0  0  0  0
 12 15  1  0  0  0  0
 13 11  1  0  0  0  0
 14  9  1  0  0  0  0
 14 12  2  0  0  0  0
 15 13  2  0  0  0  0
 16 17  1  0  0  0  0
 17 18  1  0  0  0  0
 18 19  1  1  0  0  0
 18 20  1  0  0  0  0
 20 22  1  0  0  0  0
 22 21  2  0  0  0  0
 22 24  1  0  0  0  0
 23 24  1  0  0  0  0
 27 26  1  1  0  0  0
 27 25  1  0  0  0  0
 29 28  1  6  0  0  0
 29 27  1  0  0  0  0
 29 30  1  0  0  0  0
 30 31  1  0  0  0  0
 31 37  1  1  0  0  0
 32 35  2  0  0  0  0
 33 31  1  6  0  0  0
 33 34  1  0  0  0  0
 35 33  1  0  0  0  0
 35 34  1  0  0  0  0
 36 37  2  0  0  0  0
M  END
>  <MODEL>
1

>  <REMARK>
 VINA RESULT:      -6.2      0.000      0.000
  Name = 
  14 active torsions:
  status: ('A' for Active; 'I' for Inactive)
    1  A    between atoms: C_7  and  C_10
    2  A    between atoms: C_7  and  O_25
    3  A    between atoms: C_8  and  C_29
    4  A    between atoms: C_8  and  C_31
    5  A    between atoms: C_9  and  C_12
    6  A    between atoms: C_10  and  C_32
    7  A    between atoms: C_12  and  CA_17
    8  A    between atoms: C_12  and  O_20
    9  A    between atoms: C_14  and  C_24
   10  A    between atoms: C_19  and  C_29
   11  A    between atoms: O_20  and  C_31
   12  A    between atoms: C_22  and  C_32
   13  A    between atoms: C_22  and  O_33
   14  A    between atoms: O_25  and  C_27
                            x       y       z     vdW  Elec       q    Type
                         _______ _______ _______ _____ _____    ______ ____

>  <TORSDO>
F 14

$$$$
=
 OpenBabel11042418213D

 37 39  0  0  1  0  0  0  0  0999 V2000
  188.9460  175.1420  144.7350 N   0  0  0  0  0  0  0  0  0  0  0  0
  190.5010  176.7590  147.5220 O   0  0  0  0  0  0  0  0  0  0  0  0
  190.0010  174.8840  144.0090 C   0  0  0  0  0  0  0  0  0  0  0  0
  191.2570  175.5080  144.3270 N   0  0  0  0  0  0  0  0  0  0  0  0
  188.9220  176.1270  145.8230 C   0  0  1  0  0  3  0  0  0  0  0  0
  190.3120  176.3710  146.3390 C   0  0  0  0  0  0  0  0  0  0  0  0
  191.4360  176.1960  145.4180 C   0  0  0  0  0  0  0  0  0  0  0  0
  189.6300  172.3050  140.5860 C   0  0  0  0  0  3  0  0  0  0  0  0
  190.1980  171.7980  141.7540 C   0  0  0  0  0  3  0  0  0  0  0  0
  191.0050  171.8310  144.3210 Cl  0  0  0  0  0  0  0  0  0  0  0  0
  188.4630  174.2620  139.0850 Cl  0  0  0  0  0  0  0  0  0  0  0  0
  189.8860  173.9500  142.8600 C   0  0  0  0  0  0  0  0  0  0  0  0
  189.1820  173.6230  140.5470 C   0  0  0  0  0  0  0  0  0  0  0  0
  190.3310  172.6020  142.8920 C   0  0  0  0  0  0  0  0  0  0  0  0
  189.3090  174.4370  141.6740 C   0  0  0  0  0  3  0  0  0  0  0  0
  192.6780  176.7580  145.7210 O   0  0  0  0  0  0  0  0  0  0  0  0
  193.6440  176.0790  146.5100 C   0  0  0  0  0  2  0  0  0  0  0  0
  194.9790  176.0850  145.7960 C   0  0  2  0  0  3  0  0  0  0  0  0
  194.8130  176.5580  144.4930 O   0  0  0  0  0  1  0  0  0  0  0  0
  195.5400  174.6730  145.7660 C   0  0  0  0  0  2  0  0  0  0  0  0
  194.0400  173.5160  144.3270 O   0  0  0  0  0  0  0  0  0  0  0  0
  195.1930  173.9970  144.4800 C   0  0  0  0  0  0  0  0  0  0  0  0
  197.3000  174.5340  143.5170 O   0  0  0  0  0  1  0  0  0  0  0  0
  196.1180  173.9080  143.4410 O   0  0  0  0  0  0  0  0  0  0  0  0
  188.3220  177.4240  145.2850 C   0  0  0  0  0  2  0  0  0  0  0  0
  186.4260  176.6250  146.5250 O   0  0  0  0  0  1  0  0  0  0  0  0
  186.9940  177.7660  145.9520 C   0  0  2  0  0  3  0  0  0  0  0  0
  184.7790  178.9530  145.6930 C   0  0  0  0  0  1  0  0  0  0  0  0
  186.0190  178.4380  144.9790 C   0  0  2  0  0  3  0  0  0  0  0  0
  185.6370  177.5310  143.9820 O   0  0  0  0  0  0  0  0  0  0  0  0
  185.9350  178.1420  142.7590 C   0  0  1  0  0  3  0  0  0  0  0  0
  189.1330  178.1540  141.9530 O   0  0  0  0  0  0  0  0  0  0  0  0
  186.7560  177.1840  141.8980 C   0  0  1  0  0  3  0  0  0  0  0  0
  186.8580  177.6490  140.5860 N   0  0  0  0  0  2  0  0  0  0  0  0
  187.9800  177.7780  141.6190 C   0  0  0  0  0  0  0  0  0  0  0  0
  183.6470  177.8490  142.2100 O   0  0  0  0  0  0  0  0  0  0  0  0
  184.6550  178.5270  142.0780 C   0  0  0  0  0  3  0  0  0  0  0  0
  1  5  1  0  0  0  0
  3  4  1  0  0  0  0
  3  1  2  0  0  0  0
  4  7  2  0  0  0  0
  5 25  1  6  0  0  0
  5  6  1  0  0  0  0
  6  2  2  0  0  0  0
  7 16  1  0  0  0  0
  7  6  1  0  0  0  0
  8  9  1  0  0  0  0
  9 14  2  0  0  0  0
 11 13  1  0  0  0  0
 12 14  1  0  0  0  0
 12  3  1  0  0  0  0
 13  8  2  0  0  0  0
 13 15  1  0  0  0  0
 14 10  1  0  0  0  0
 15 12  2  0  0  0  0
 16 17  1  0  0  0  0
 18 19  1  6  0  0  0
 18 17  1  0  0  0  0
 20 18  1  0  0  0  0
 21 22  2  0  0  0  0
 22 20  1  0  0  0  0
 24 23  1  0  0  0  0
 24 22  1  0  0  0  0
 25 27  1  0  0  0  0
 27 26  1  6  0  0  0
 29 28  1  1  0  0  0
 29 27  1  0  0  0  0
 30 29  1  0  0  0  0
 31 37  1  6  0  0  0
 31 30  1  0  0  0  0
 33 31  1  1  0  0  0
 34 35  1  0  0  0  0
 34 33  1  0  0  0  0
 35 33  1  0  0  0  0
 35 32  2  0  0  0  0
 37 36  2  0  0  0  0
M  END
>  <MODEL>
2

>  <REMARK>
 VINA RESULT:      -6.2      2.880      7.116
  Name = 
  14 active torsions:
  status: ('A' for Active; 'I' for Inactive)
    1  A    between atoms: C_7  and  C_10
    2  A    between atoms: C_7  and  O_25
    3  A    between atoms: C_8  and  C_29
    4  A    between atoms: C_8  and  C_31
    5  A    between atoms: C_9  and  C_12
    6  A    between atoms: C_10  and  C_32
    7  A    between atoms: C_12  and  CA_17
    8  A    between atoms: C_12  and  O_20
    9  A    between atoms: C_14  and  C_24
   10  A    between atoms: C_19  and  C_29
   11  A    between atoms: O_20  and  C_31
   12  A    between atoms: C_22  and  C_32
   13  A    between atoms: C_22  and  O_33
   14  A    between atoms: O_25  and  C_27
                            x       y       z     vdW  Elec       q    Type
                         _______ _______ _______ _____ _____    ______ ____

>  <TORSDO>
F 14

$$$$
=
 OpenBabel11042418213D

 37 39  0  0  1  0  0  0  0  0999 V2000
  188.3010  177.4420  142.3480 N   0  0  0  0  0  0  0  0  0  0  0  0
  191.6290  177.6420  143.6440 O   0  0  0  0  0  0  0  0  0  0  0  0
  187.6240  177.7670  143.4190 C   0  0  0  0  0  0  0  0  0  0  0  0
  188.2820  177.7940  144.6980 N   0  0  0  0  0  0  0  0  0  0  0  0
  189.6980  176.9930  142.3690 C   0  0  1  0  0  3  0  0  0  0  0  0
  190.3830  177.4680  143.6190 C   0  0  0  0  0  0  0  0  0  0  0  0
  189.5720  177.6740  144.8200 C   0  0  0  0  0  0  0  0  0  0  0  0
  183.4470  178.6640  142.9220 C   0  0  0  0  0  3  0  0  0  0  0  0
  184.0260  178.8230  144.1800 C   0  0  0  0  0  3  0  0  0  0  0  0
  186.0100  178.8470  145.9980 Cl  0  0  0  0  0  0  0  0  0  0  0  0
  183.5020  178.0370  140.2670 Cl  0  0  0  0  0  0  0  0  0  0  0  0
  186.1820  178.1000  143.2980 C   0  0  0  0  0  0  0  0  0  0  0  0
  184.2240  178.2330  141.8490 C   0  0  0  0  0  0  0  0  0  0  0  0
  185.3830  178.5490  144.3830 C   0  0  0  0  0  0  0  0  0  0  0  0
  185.5780  177.9540  142.0370 C   0  0  0  0  0  3  0  0  0  0  0  0
  190.1880  177.7440  146.0710 O   0  0  0  0  0  0  0  0  0  0  0  0
  189.8200  176.8890  147.1450 C   0  0  0  0  0  2  0  0  0  0  0  0
  190.2400  175.4680  146.8300 C   0  0  2  0  0  3  0  0  0  0  0  0
  189.3270  174.5730  147.3910 O   0  0  0  0  0  1  0  0  0  0  0  0
  191.6260  175.2160  147.3980 C   0  0  0  0  0  2  0  0  0  0  0  0
  192.6700  173.9890  145.6490 O   0  0  0  0  0  0  0  0  0  0  0  0
  192.6250  175.0660  146.2980 C   0  0  0  0  0  0  0  0  0  0  0  0
  193.9480  176.9470  146.9040 O   0  0  0  0  0  1  0  0  0  0  0  0
  193.4930  176.1050  145.9670 O   0  0  0  0  0  0  0  0  0  0  0  0
  189.7150  175.4680  142.3030 C   0  0  0  0  0  2  0  0  0  0  0  0
  187.5770  174.3770  142.1950 O   0  0  0  0  0  1  0  0  0  0  0  0
  188.6030  174.9160  141.4150 C   0  0  2  0  0  3  0  0  0  0  0  0
  188.4400  174.0160  139.0600 C   0  0  0  0  0  1  0  0  0  0  0  0
  189.1310  173.8860  140.4090 C   0  0  2  0  0  3  0  0  0  0  0  0
  188.9390  172.5910  140.9060 O   0  0  0  0  0  0  0  0  0  0  0  0
  190.2130  172.0260  141.0350 C   0  0  1  0  0  3  0  0  0  0  0  0
  189.5490  172.6080  144.2130 O   0  0  0  0  0  0  0  0  0  0  0  0
  190.2400  171.1020  142.2510 C   0  0  1  0  0  3  0  0  0  0  0  0
  191.4590  171.1950  142.9260 N   0  0  0  0  0  2  0  0  0  0  0  0
  190.1740  171.8800  143.4000 C   0  0  0  0  0  0  0  0  0  0  0  0
  190.9620  170.1340  139.8190 O   0  0  0  0  0  0  0  0  0  0  0  0
  190.5500  171.2820  139.7760 C   0  0  0  0  0  3  0  0  0  0  0  0
  1  5  1  0  0  0  0
  1  3  2  0  0  0  0
  3  4  1  0  0  0  0
  4  7  2  0  0  0  0
  5 25  1  1  0  0  0
  5  6  1  0  0  0  0
  6  2  2  0  0  0  0
  6  7  1  0  0  0  0
  7 16  1  0  0  0  0
  8  9  1  0  0  0  0
  9 14  2  0  0  0  0
 11 13  1  0  0  0  0
 12  3  1  0  0  0  0
 12 14  1  0  0  0  0
 13 15  1  0  0  0  0
 13  8  2  0  0  0  0
 14 10  1  0  0  0  0
 15 12  2  0  0  0  0
 16 17  1  0  0  0  0
 18 17  1  0  0  0  0
 18 19  1  1  0  0  0
 18 20  1  0  0  0  0
 21 22  2  0  0  0  0
 22 20  1  0  0  0  0
 24 22  1  0  0  0  0
 24 23  1  0  0  0  0
 27 26  1  1  0  0  0
 27 25  1  0  0  0  0
 29 28  1  6  0  0  0
 29 30  1  0  0  0  0
 29 27  1  0  0  0  0
 30 31  1  0  0  0  0
 31 37  1  6  0  0  0
 33 31  1  6  0  0  0
 33 34  1  0  0  0  0
 33 35  1  0  0  0  0
 34 35  1  0  0  0  0
 35 32  2  0  0  0  0
 37 36  2  0  0  0  0
M  END
>  <MODEL>
3

>  <REMARK>
 VINA RESULT:      -6.1      2.064      3.564
  Name = 
  14 active torsions:
  status: ('A' for Active; 'I' for Inactive)
    1  A    between atoms: C_7  and  C_10
    2  A    between atoms: C_7  and  O_25
    3  A    between atoms: C_8  and  C_29
    4  A    between atoms: C_8  and  C_31
    5  A    between atoms: C_9  and  C_12
    6  A    between atoms: C_10  and  C_32
    7  A    between atoms: C_12  and  CA_17
    8  A    between atoms: C_12  and  O_20
    9  A    between atoms: C_14  and  C_24
   10  A    between atoms: C_19  and  C_29
   11  A    between atoms: O_20  and  C_31
   12  A    between atoms: C_22  and  C_32
   13  A    between atoms: C_22  and  O_33
   14  A    between atoms: O_25  and  C_27
                            x       y       z     vdW  Elec       q    Type
                         _______ _______ _______ _____ _____    ______ ____

>  <TORSDO>
F 14

$$$$
=
 OpenBabel11042418213D

 37 39  0  0  1  0  0  0  0  0999 V2000
  189.4320  175.6890  143.4580 N   0  0  0  0  0  0  0  0  0  0  0  0
  192.7870  175.9650  142.2480 O   0  0  0  0  0  0  0  0  0  0  0  0
  189.5020  176.4800  144.4960 C   0  0  0  0  0  0  0  0  0  0  0  0
  190.7870  176.9180  144.9740 N   0  0  0  0  0  0  0  0  0  0  0  0
  190.6040  175.1160  142.7850 C   0  0  1  0  0  3  0  0  0  0  0  0
  191.8240  175.9480  143.0590 C   0  0  0  0  0  0  0  0  0  0  0  0
  191.8870  176.6970  144.3150 C   0  0  0  0  0  0  0  0  0  0  0  0
  185.8430  177.8220  146.3160 C   0  0  0  0  0  3  0  0  0  0  0  0
  186.5720  176.8060  146.9340 C   0  0  0  0  0  3  0  0  0  0  0  0
  188.6280  175.1070  147.2840 Cl  0  0  0  0  0  0  0  0  0  0  0  0
  185.4040  179.6700  144.3580 Cl  0  0  0  0  0  0  0  0  0  0  0  0
  188.2520  176.9140  145.1700 C   0  0  0  0  0  0  0  0  0  0  0  0
  186.3120  178.3920  145.1350 C   0  0  0  0  0  0  0  0  0  0  0  0
  187.7700  176.3460  146.3790 C   0  0  0  0  0  0  0  0  0  0  0  0
  187.5050  177.9420  144.5690 C   0  0  0  0  0  3  0  0  0  0  0  0
  193.1150  177.1670  144.7830 O   0  0  0  0  0  0  0  0  0  0  0  0
  193.7380  176.6340  145.9440 C   0  0  0  0  0  2  0  0  0  0  0  0
  195.1040  176.0890  145.5830 C   0  0  2  0  0  3  0  0  0  0  0  0
  195.4270  176.4580  144.2760 O   0  0  0  0  0  1  0  0  0  0  0  0
  195.0890  174.5750  145.7050 C   0  0  0  0  0  2  0  0  0  0  0  0
  197.3980  174.0210  145.5760 O   0  0  0  0  0  0  0  0  0  0  0  0
  196.2720  173.9800  145.0150 C   0  0  0  0  0  0  0  0  0  0  0  0
  195.0350  172.6870  143.4480 O   0  0  0  0  0  1  0  0  0  0  0  0
  196.1460  173.3630  143.7720 O   0  0  0  0  0  0  0  0  0  0  0  0
  190.8070  173.6930  143.3000 C   0  0  0  0  0  2  0  0  0  0  0  0
  189.1770  171.9630  143.6500 O   0  0  0  0  0  1  0  0  0  0  0  0
  189.8340  172.7040  142.6650 C   0  0  2  0  0  3  0  0  0  0  0  0
  191.8090  171.1940  142.2220 C   0  0  0  0  0  1  0  0  0  0  0  0
  190.5290  171.7850  141.6540 C   0  0  2  0  0  3  0  0  0  0  0  0
  190.8260  172.4980  140.4850 O   0  0  0  0  0  0  0  0  0  0  0  0
  189.8390  172.1550  139.5540 C   0  0  1  0  0  3  0  0  0  0  0  0
  188.2260  174.9470  140.2510 O   0  0  0  0  0  0  0  0  0  0  0  0
  189.5140  173.3700  138.6860 C   0  0  1  0  0  3  0  0  0  0  0  0
  188.2360  173.2660  138.1350 N   0  0  0  0  0  2  0  0  0  0  0  0
  188.5680  174.1440  139.3450 C   0  0  0  0  0  0  0  0  0  0  0  0
  189.5470  170.1750  138.2830 O   0  0  0  0  0  0  0  0  0  0  0  0
  190.3270  171.0060  138.7230 C   0  0  0  0  0  3  0  0  0  0  0  0
  1  3  2  0  0  0  0
  2  6  2  0  0  0  0
  3  4  1  0  0  0  0
  3 12  1  0  0  0  0
  5  6  1  0  0  0  0
  5 25  1  1  0  0  0
  5  1  1  0  0  0  0
  6  7  1  0  0  0  0
  7 16  1  0  0  0  0
  7  4  2  0  0  0  0
  8  9  1  0  0  0  0
 11 13  1  0  0  0  0
 12 14  1  0  0  0  0
 13  8  2  0  0  0  0
 14  9  2  0  0  0  0
 14 10  1  0  0  0  0
 15 13  1  0  0  0  0
 15 12  2  0  0  0  0
 16 17  1  0  0  0  0
 18 19  1  6  0  0  0
 18 20  1  0  0  0  0
 18 17  1  0  0  0  0
 22 21  2  0  0  0  0
 22 20  1  0  0  0  0
 23 24  1  0  0  0  0
 24 22  1  0  0  0  0
 27 25  1  0  0  0  0
 27 26  1  1  0  0  0
 29 28  1  1  0  0  0
 29 27  1  0  0  0  0
 30 29  1  0  0  0  0
 31 37  1  6  0  0  0
 31 30  1  0  0  0  0
 33 35  1  0  0  0  0
 33 31  1  1  0  0  0
 34 33  1  0  0  0  0
 34 35  1  0  0  0  0
 35 32  2  0  0  0  0
 36 37  2  0  0  0  0
M  END
>  <MODEL>
4

>  <REMARK>
 VINA RESULT:      -6.1      2.462      4.485
  Name = 
  14 active torsions:
  status: ('A' for Active; 'I' for Inactive)
    1  A    between atoms: C_7  and  C_10
    2  A    between atoms: C_7  and  O_25
    3  A    between atoms: C_8  and  C_29
    4  A    between atoms: C_8  and  C_31
    5  A    between atoms: C_9  and  C_12
    6  A    between atoms: C_10  and  C_32
    7  A    between atoms: C_12  and  CA_17
    8  A    between atoms: C_12  and  O_20
    9  A    between atoms: C_14  and  C_24
   10  A    between atoms: C_19  and  C_29
   11  A    between atoms: O_20  and  C_31
   12  A    between atoms: C_22  and  C_32
   13  A    between atoms: C_22  and  O_33
   14  A    between atoms: O_25  and  C_27
                            x       y       z     vdW  Elec       q    Type
                         _______ _______ _______ _____ _____    ______ ____

>  <TORSDO>
F 14

$$$$
=
 OpenBabel11042418213D

 37 39  0  0  1  0  0  0  0  0999 V2000
  190.5530  175.1150  142.3550 N   0  0  0  0  0  0  0  0  0  0  0  0
  188.7800  178.2190  142.2030 O   0  0  0  0  0  0  0  0  0  0  0  0
  189.6170  174.3020  141.9400 C   0  0  0  0  0  0  0  0  0  0  0  0
  188.2560  174.7620  141.8600 N   0  0  0  0  0  0  0  0  0  0  0  0
  190.2960  176.4710  142.8550 C   0  0  1  0  0  3  0  0  0  0  0  0
  188.9850  176.9830  142.3310 C   0  0  0  0  0  0  0  0  0  0  0  0
  187.9340  176.0130  142.0220 C   0  0  0  0  0  0  0  0  0  0  0  0
  190.6810  170.3260  140.6920 C   0  0  0  0  0  3  0  0  0  0  0  0
  190.4930  170.5790  142.0500 C   0  0  0  0  0  3  0  0  0  0  0  0
  189.8710  172.0360  144.2260 Cl  0  0  0  0  0  0  0  0  0  0  0  0
  190.7380  171.0360  138.0590 Cl  0  0  0  0  0  0  0  0  0  0  0  0
  189.9730  172.9110  141.5610 C   0  0  0  0  0  0  0  0  0  0  0  0
  190.5090  171.3510  139.7640 C   0  0  0  0  0  0  0  0  0  0  0  0
  190.1400  171.8570  142.4970 C   0  0  0  0  0  0  0  0  0  0  0  0
  190.1590  172.6310  140.1960 C   0  0  0  0  0  3  0  0  0  0  0  0
  186.6090  176.4370  141.9000 O   0  0  0  0  0  0  0  0  0  0  0  0
  185.8140  176.7740  143.0280 C   0  0  0  0  0  2  0  0  0  0  0  0
  185.1270  178.1020  142.7890 C   0  0  2  0  0  3  0  0  0  0  0  0
  185.3440  178.5130  141.4730 O   0  0  0  0  0  1  0  0  0  0  0  0
  185.6830  179.1360  143.7530 C   0  0  0  0  0  2  0  0  0  0  0  0
  183.8970  178.8500  145.2970 O   0  0  0  0  0  0  0  0  0  0  0  0
  185.1420  178.9180  145.1280 C   0  0  0  0  0  0  0  0  0  0  0  0
  186.9790  177.8620  146.2080 O   0  0  0  0  0  1  0  0  0  0  0  0
  185.9930  178.7690  146.2210 O   0  0  0  0  0  0  0  0  0  0  0  0
  190.2760  176.4260  144.3800 C   0  0  0  0  0  2  0  0  0  0  0  0
  192.1710  177.8720  144.0820 O   0  0  0  0  0  1  0  0  0  0  0  0
  191.5410  177.0200  144.9930 C   0  0  2  0  0  3  0  0  0  0  0  0
  192.0970  175.4130  146.8610 C   0  0  0  0  0  1  0  0  0  0  0  0
  192.5020  175.9340  145.4900 C   0  0  2  0  0  3  0  0  0  0  0  0
  193.8060  176.4420  145.5530 O   0  0  0  0  0  0  0  0  0  0  0  0
  194.6180  175.5240  144.8770 C   0  0  1  0  0  3  0  0  0  0  0  0
  193.8620  176.2380  141.7470 O   0  0  0  0  0  0  0  0  0  0  0  0
  195.4130  176.2500  143.7940 C   0  0  1  0  0  3  0  0  0  0  0  0
  196.0950  175.3440  142.9780 N   0  0  0  0  0  2  0  0  0  0  0  0
  194.7910  176.0360  142.5700 C   0  0  0  0  0  0  0  0  0  0  0  0
  195.7260  173.6500  145.8140 O   0  0  0  0  0  0  0  0  0  0  0  0
  195.5270  174.8530  145.8640 C   0  0  0  0  0  3  0  0  0  0  0  0
  1  5  1  0  0  0  0
  2  6  2  0  0  0  0
  3  1  2  0  0  0  0
  4  3  1  0  0  0  0
  4  7  2  0  0  0  0
  5 25  1  1  0  0  0
  6  5  1  0  0  0  0
  7  6  1  0  0  0  0
  8  9  1  0  0  0  0
  9 14  2  0  0  0  0
 11 13  1  0  0  0  0
 12  3  1  0  0  0  0
 12 14  1  0  0  0  0
 13 15  1  0  0  0  0
 13  8  2  0  0  0  0
 14 10  1  0  0  0  0
 15 12  2  0  0  0  0
 16  7  1  0  0  0  0
 16 17  1  0  0  0  0
 18 19  1  6  0  0  0
 18 17  1  0  0  0  0
 18 20  1  0  0  0  0
 20 22  1  0  0  0  0
 22 21  2  0  0  0  0
 22 24  1  0  0  0  0
 23 24  1  0  0  0  0
 25 27  1  0  0  0  0
 27 26  1  6  0  0  0
 27 29  1  0  0  0  0
 29 30  1  0  0  0  0
 29 28  1  1  0  0  0
 31 30  1  0  0  0  0
 31 37  1  1  0  0  0
 32 35  2  0  0  0  0
 33 31  1  1  0  0  0
 34 33  1  0  0  0  0
 35 34  1  0  0  0  0
 35 33  1  0  0  0  0
 36 37  2  0  0  0  0
M  END
>  <MODEL>
5

>  <REMARK>
 VINA RESULT:      -6.1      3.273      6.704
  Name = 
  14 active torsions:
  status: ('A' for Active; 'I' for Inactive)
    1  A    between atoms: C_7  and  C_10
    2  A    between atoms: C_7  and  O_25
    3  A    between atoms: C_8  and  C_29
    4  A    between atoms: C_8  and  C_31
    5  A    between atoms: C_9  and  C_12
    6  A    between atoms: C_10  and  C_32
    7  A    between atoms: C_12  and  CA_17
    8  A    between atoms: C_12  and  O_20
    9  A    between atoms: C_14  and  C_24
   10  A    between atoms: C_19  and  C_29
   11  A    between atoms: O_20  and  C_31
   12  A    between atoms: C_22  and  C_32
   13  A    between atoms: C_22  and  O_33
   14  A    between atoms: O_25  and  C_27
                            x       y       z     vdW  Elec       q    Type
                         _______ _______ _______ _____ _____    ______ ____

>  <TORSDO>
F 14

$$$$
=
 OpenBabel11042418213D

 37 39  0  0  1  0  0  0  0  0999 V2000
  189.2400  176.0260  145.2430 N   0  0  0  0  0  0  0  0  0  0  0  0
  190.5140  172.7280  144.6990 O   0  0  0  0  0  0  0  0  0  0  0  0
  188.3850  176.1010  144.2570 C   0  0  0  0  0  0  0  0  0  0  0  0
  188.4220  175.1210  143.2050 N   0  0  0  0  0  0  0  0  0  0  0  0
  190.3310  175.0460  145.3080 C   0  0  1  0  0  3  0  0  0  0  0  0
  190.0180  173.8560  144.4450 C   0  0  0  0  0  0  0  0  0  0  0  0
  189.1630  174.0540  143.2730 C   0  0  0  0  0  0  0  0  0  0  0  0
  185.4750  179.2670  144.3540 C   0  0  0  0  0  3  0  0  0  0  0  0
  186.2790  179.1240  143.2240 C   0  0  0  0  0  3  0  0  0  0  0  0
  188.1430  177.9890  141.6490 Cl  0  0  0  0  0  0  0  0  0  0  0  0
  184.6020  178.5550  146.8390 Cl  0  0  0  0  0  0  0  0  0  0  0  0
  187.3900  177.2030  144.2360 C   0  0  0  0  0  0  0  0  0  0  0  0
  185.6140  178.3830  145.4210 C   0  0  0  0  0  0  0  0  0  0  0  0
  187.2330  178.1040  143.1500 C   0  0  0  0  0  0  0  0  0  0  0  0
  186.5620  177.3610  145.3610 C   0  0  0  0  0  3  0  0  0  0  0  0
  189.1480  173.0990  142.2540 O   0  0  0  0  0  0  0  0  0  0  0  0
  188.0120  172.8910  141.4280 C   0  0  0  0  0  2  0  0  0  0  0  0
  188.4510  172.7500  139.9850 C   0  0  2  0  0  3  0  0  0  0  0  0
  189.6050  171.9680  139.9190 O   0  0  0  0  0  1  0  0  0  0  0  0
  188.7260  174.1280  139.4080 C   0  0  0  0  0  2  0  0  0  0  0  0
  187.4730  174.9940  137.5820 O   0  0  0  0  0  0  0  0  0  0  0  0
  188.3510  174.1780  137.9630 C   0  0  0  0  0  0  0  0  0  0  0  0
  189.2990  173.8070  135.8130 O   0  0  0  0  0  1  0  0  0  0  0  0
  188.9720  173.3500  137.0290 O   0  0  0  0  0  0  0  0  0  0  0  0
  191.6140  175.7220  144.8320 C   0  0  0  0  0  2  0  0  0  0  0  0
  192.6690  174.6270  146.6920 O   0  0  0  0  0  1  0  0  0  0  0  0
  192.8640  175.0300  145.3690 C   0  0  2  0  0  3  0  0  0  0  0  0
  194.2090  176.9120  146.3830 C   0  0  0  0  0  1  0  0  0  0  0  0
  194.1090  175.9150  145.2390 C   0  0  2  0  0  3  0  0  0  0  0  0
  194.0790  176.6080  144.0220 O   0  0  0  0  0  0  0  0  0  0  0  0
  195.0170  175.9830  143.1910 C   0  0  1  0  0  3  0  0  0  0  0  0
  192.3390  174.8610  141.6250 O   0  0  0  0  0  0  0  0  0  0  0  0
  194.5750  176.1180  141.7350 C   0  0  1  0  0  3  0  0  0  0  0  0
  194.9610  175.0030  140.9880 N   0  0  0  0  0  2  0  0  0  0  0  0
  193.5360  175.2270  141.5020 C   0  0  0  0  0  0  0  0  0  0  0  0
  197.3790  175.9320  143.3800 O   0  0  0  0  0  0  0  0  0  0  0  0
  196.3620  176.6080  143.4140 C   0  0  0  0  0  3  0  0  0  0  0  0
  1  5  1  0  0  0  0
  3  1  2  0  0  0  0
  4  7  2  0  0  0  0
  4  3  1  0  0  0  0
  5 25  1  6  0  0  0
  6  2  2  0  0  0  0
  6  5  1  0  0  0  0
  7  6  1  0  0  0  0
  8 13  1  0  0  0  0
  9  8  2  0  0  0  0
 10 14  1  0  0  0  0
 12  3  1  0  0  0  0
 12 15  1  0  0  0  0
 13 11  1  0  0  0  0
 14  9  1  0  0  0  0
 14 12  2  0  0  0  0
 15 13  2  0  0  0  0
 16  7  1  0  0  0  0
 17 16  1  0  0  0  0
 18 19  1  1  0  0  0
 18 17  1  0  0  0  0
 20 18  1  0  0  0  0
 21 22  2  0  0  0  0
 22 20  1  0  0  0  0
 23 24  1  0  0  0  0
 24 22  1  0  0  0  0
 25 27  1  0  0  0  0
 27 26  1  1  0  0  0
 29 27  1  0  0  0  0
 29 28  1  1  0  0  0
 30 29  1  0  0  0  0
 31 37  1  6  0  0  0
 31 30  1  0  0  0  0
 33 31  1  1  0  0  0
 34 35  1  0  0  0  0
 34 33  1  0  0  0  0
 35 32  2  0  0  0  0
 35 33  1  0  0  0  0
 36 37  2  0  0  0  0
M  END
>  <MODEL>
6

>  <REMARK>
 VINA RESULT:      -6.0      2.922      5.968
  Name = 
  14 active torsions:
  status: ('A' for Active; 'I' for Inactive)
    1  A    between atoms: C_7  and  C_10
    2  A    between atoms: C_7  and  O_25
    3  A    between atoms: C_8  and  C_29
    4  A    between atoms: C_8  and  C_31
    5  A    between atoms: C_9  and  C_12
    6  A    between atoms: C_10  and  C_32
    7  A    between atoms: C_12  and  CA_17
    8  A    between atoms: C_12  and  O_20
    9  A    between atoms: C_14  and  C_24
   10  A    between atoms: C_19  and  C_29
   11  A    between atoms: O_20  and  C_31
   12  A    between atoms: C_22  and  C_32
   13  A    between atoms: C_22  and  O_33
   14  A    between atoms: O_25  and  C_27
                            x       y       z     vdW  Elec       q    Type
                         _______ _______ _______ _____ _____    ______ ____

>  <TORSDO>
F 14

$$$$
=
 OpenBabel11042418213D

 37 39  0  0  1  0  0  0  0  0999 V2000
  189.5850  174.2250  145.0040 N   0  0  0  0  0  0  0  0  0  0  0  0
  190.6820  176.5770  147.4660 O   0  0  0  0  0  0  0  0  0  0  0  0
  190.7010  174.0530  144.3450 C   0  0  0  0  0  0  0  0  0  0  0  0
  191.8020  174.9560  144.5570 N   0  0  0  0  0  0  0  0  0  0  0  0
  189.3280  175.3620  145.8950 C   0  0  1  0  0  3  0  0  0  0  0  0
  190.6220  175.9580  146.3710 C   0  0  0  0  0  0  0  0  0  0  0  0
  191.7980  175.8450  145.5070 C   0  0  0  0  0  0  0  0  0  0  0  0
  191.0940  170.7030  141.6760 C   0  0  0  0  0  3  0  0  0  0  0  0
  190.3680  171.8170  141.2580 C   0  0  0  0  0  3  0  0  0  0  0  0
  189.3380  174.2970  141.4290 Cl  0  0  0  0  0  0  0  0  0  0  0  0
  192.6050  169.3000  143.4640 Cl  0  0  0  0  0  0  0  0  0  0  0  0
  190.8160  172.9280  143.3830 C   0  0  0  0  0  0  0  0  0  0  0  0
  191.6890  170.6940  142.9370 C   0  0  0  0  0  0  0  0  0  0  0  0
  190.2230  172.9300  142.0930 C   0  0  0  0  0  0  0  0  0  0  0  0
  191.5500  171.7970  143.7800 C   0  0  0  0  0  3  0  0  0  0  0  0
  192.8970  176.6820  145.7150 O   0  0  0  0  0  0  0  0  0  0  0  0
  194.0020  176.2950  146.5190 C   0  0  0  0  0  2  0  0  0  0  0  0
  195.1950  175.9980  145.6350 C   0  0  2  0  0  3  0  0  0  0  0  0
  195.0250  176.6120  144.3930 O   0  0  0  0  0  1  0  0  0  0  0  0
  195.3250  174.4950  145.4560 C   0  0  0  0  0  2  0  0  0  0  0  0
  197.1190  173.4670  146.6310 O   0  0  0  0  0  0  0  0  0  0  0  0
  196.7510  174.0700  145.5900 C   0  0  0  0  0  0  0  0  0  0  0  0
  197.2900  174.3460  143.2900 O   0  0  0  0  0  1  0  0  0  0  0  0
  197.6720  174.3130  144.5730 O   0  0  0  0  0  0  0  0  0  0  0  0
  188.5180  176.4030  145.1260 C   0  0  0  0  0  2  0  0  0  0  0  0
  187.2410  176.3730  147.1600 O   0  0  0  0  0  1  0  0  0  0  0  0
  187.5150  177.1290  146.0180 C   0  0  2  0  0  3  0  0  0  0  0  0
  184.9970  177.2980  146.1430 C   0  0  0  0  0  1  0  0  0  0  0  0
  186.2260  177.4790  145.2650 C   0  0  2  0  0  3  0  0  0  0  0  0
  186.1040  176.6740  144.1250 O   0  0  0  0  0  0  0  0  0  0  0  0
  186.0170  177.5460  143.0350 C   0  0  1  0  0  3  0  0  0  0  0  0
  189.0360  178.2850  141.9310 O   0  0  0  0  0  0  0  0  0  0  0  0
  186.8240  176.9830  141.8670 C   0  0  1  0  0  3  0  0  0  0  0  0
  186.6740  177.7720  140.7250 N   0  0  0  0  0  2  0  0  0  0  0  0
  187.9070  177.8210  141.6310 C   0  0  0  0  0  0  0  0  0  0  0  0
  183.9790  178.7540  142.9500 O   0  0  0  0  0  0  0  0  0  0  0  0
  184.5740  177.7260  142.6650 C   0  0  0  0  0  3  0  0  0  0  0  0
  1  5  1  0  0  0  0
  3  4  1  0  0  0  0
  3  1  2  0  0  0  0
  4  7  2  0  0  0  0
  5 25  1  6  0  0  0
  5  6  1  0  0  0  0
  6  2  2  0  0  0  0
  7 16  1  0  0  0  0
  7  6  1  0  0  0  0
  8 13  1  0  0  0  0
  9  8  2  0  0  0  0
  9 14  1  0  0  0  0
 10 14  1  0  0  0  0
 12 15  1  0  0  0  0
 12  3  1  0  0  0  0
 13 11  1  0  0  0  0
 13 15  2  0  0  0  0
 14 12  2  0  0  0  0
 16 17  1  0  0  0  0
 18 19  1  6  0  0  0
 18 17  1  0  0  0  0
 20 22  1  0  0  0  0
 20 18  1  0  0  0  0
 22 21  2  0  0  0  0
 23 24  1  0  0  0  0
 24 22  1  0  0  0  0
 25 27  1  0  0  0  0
 27 26  1  1  0  0  0
 29 27  1  0  0  0  0
 29 28  1  1  0  0  0
 30 29  1  0  0  0  0
 31 37  1  6  0  0  0
 31 30  1  0  0  0  0
 33 31  1  1  0  0  0
 34 35  1  0  0  0  0
 34 33  1  0  0  0  0
 35 33  1  0  0  0  0
 35 32  2  0  0  0  0
 37 36  2  0  0  0  0
M  END
>  <MODEL>
7

>  <REMARK>
 VINA RESULT:      -6.0      3.192      7.333
  Name = 
  14 active torsions:
  status: ('A' for Active; 'I' for Inactive)
    1  A    between atoms: C_7  and  C_10
    2  A    between atoms: C_7  and  O_25
    3  A    between atoms: C_8  and  C_29
    4  A    between atoms: C_8  and  C_31
    5  A    between atoms: C_9  and  C_12
    6  A    between atoms: C_10  and  C_32
    7  A    between atoms: C_12  and  CA_17
    8  A    between atoms: C_12  and  O_20
    9  A    between atoms: C_14  and  C_24
   10  A    between atoms: C_19  and  C_29
   11  A    between atoms: O_20  and  C_31
   12  A    between atoms: C_22  and  C_32
   13  A    between atoms: C_22  and  O_33
   14  A    between atoms: O_25  and  C_27
                            x       y       z     vdW  Elec       q    Type
                         _______ _______ _______ _____ _____    ______ ____

>  <TORSDO>
F 14

$$$$
=
 OpenBabel11042418213D

 37 39  0  0  1  0  0  0  0  0999 V2000
  189.0340  175.3280  145.2620 N   0  0  0  0  0  0  0  0  0  0  0  0
  189.4220  173.7980  142.0520 O   0  0  0  0  0  0  0  0  0  0  0  0
  188.2430  176.3190  144.9440 C   0  0  0  0  0  0  0  0  0  0  0  0
  188.0420  176.6550  143.5590 N   0  0  0  0  0  0  0  0  0  0  0  0
  189.8340  174.5750  144.2890 C   0  0  1  0  0  3  0  0  0  0  0  0
  189.2380  174.6960  142.9150 C   0  0  0  0  0  0  0  0  0  0  0  0
  188.4820  175.9060  142.5910 C   0  0  0  0  0  0  0  0  0  0  0  0
  186.1390  178.5020  147.9950 C   0  0  0  0  0  3  0  0  0  0  0  0
  187.5120  178.3010  148.1340 C   0  0  0  0  0  3  0  0  0  0  0  0
  189.9680  177.4680  147.4200 Cl  0  0  0  0  0  0  0  0  0  0  0  0
  183.7540  178.2650  146.6910 Cl  0  0  0  0  0  0  0  0  0  0  0  0
  187.5660  177.0880  146.0190 C   0  0  0  0  0  0  0  0  0  0  0  0
  185.4750  178.0100  146.8730 C   0  0  0  0  0  0  0  0  0  0  0  0
  188.2340  177.6020  147.1620 C   0  0  0  0  0  0  0  0  0  0  0  0
  186.1830  177.3100  145.8960 C   0  0  0  0  0  3  0  0  0  0  0  0
  188.2370  176.2360  141.2560 O   0  0  0  0  0  0  0  0  0  0  0  0
  187.6240  177.4610  140.8790 C   0  0  0  0  0  2  0  0  0  0  0  0
  186.2340  177.1890  140.3410 C   0  0  2  0  0  3  0  0  0  0  0  0
  186.2710  177.1440  138.9460 O   0  0  0  0  0  1  0  0  0  0  0  0
  185.2940  178.2910  140.7980 C   0  0  0  0  0  2  0  0  0  0  0  0
  184.5820  177.5700  142.9500 O   0  0  0  0  0  0  0  0  0  0  0  0
  185.2780  178.3840  142.2890 C   0  0  0  0  0  0  0  0  0  0  0  0
  185.4710  180.1720  143.8460 O   0  0  0  0  0  1  0  0  0  0  0  0
  186.0370  179.3430  142.9580 O   0  0  0  0  0  0  0  0  0  0  0  0
  191.2560  175.1300  144.3000 C   0  0  0  0  0  2  0  0  0  0  0  0
  191.7160  172.7770  144.4400 O   0  0  0  0  0  1  0  0  0  0  0  0
  192.3080  174.0270  144.2410 C   0  0  2  0  0  3  0  0  0  0  0  0
  192.9310  174.8630  146.5420 C   0  0  0  0  0  1  0  0  0  0  0  0
  193.4450  174.2650  145.2410 C   0  0  2  0  0  3  0  0  0  0  0  0
  194.4020  175.1220  144.6830 O   0  0  0  0  0  0  0  0  0  0  0  0
  195.3540  174.3010  144.0680 C   0  0  1  0  0  3  0  0  0  0  0  0
  196.8100  177.1740  143.3540 O   0  0  0  0  0  0  0  0  0  0  0  0
  195.7640  174.9130  142.7300 C   0  0  1  0  0  3  0  0  0  0  0  0
  194.7790  175.7770  142.2480 N   0  0  0  0  0  2  0  0  0  0  0  0
  196.0640  176.2550  142.9290 C   0  0  0  0  0  0  0  0  0  0  0  0
  196.3930  174.1830  146.1950 O   0  0  0  0  0  0  0  0  0  0  0  0
  196.5330  174.1470  144.9820 C   0  0  0  0  0  3  0  0  0  0  0  0
  2  6  2  0  0  0  0
  3  1  2  0  0  0  0
  3 12  1  0  0  0  0
  4  3  1  0  0  0  0
  5 25  1  6  0  0  0
  5  1  1  0  0  0  0
  6  5  1  0  0  0  0
  7  6  1  0  0  0  0
  7  4  2  0  0  0  0
  8  9  1  0  0  0  0
 11 13  1  0  0  0  0
 12 14  1  0  0  0  0
 13  8  2  0  0  0  0
 14 10  1  0  0  0  0
 14  9  2  0  0  0  0
 15 12  2  0  0  0  0
 15 13  1  0  0  0  0
 16  7  1  0  0  0  0
 17 16  1  0  0  0  0
 18 19  1  6  0  0  0
 18 20  1  0  0  0  0
 18 17  1  0  0  0  0
 20 22  1  0  0  0  0
 22 21  2  0  0  0  0
 22 24  1  0  0  0  0
 24 23  1  0  0  0  0
 27 25  1  0  0  0  0
 27 26  1  1  0  0  0
 27 29  1  0  0  0  0
 29 28  1  1  0  0  0
 30 29  1  0  0  0  0
 31 30  1  0  0  0  0
 31 37  1  1  0  0  0
 33 35  1  0  0  0  0
 33 31  1  1  0  0  0
 34 33  1  0  0  0  0
 34 35  1  0  0  0  0
 35 32  2  0  0  0  0
 37 36  2  0  0  0  0
M  END
>  <MODEL>
8

>  <REMARK>
 VINA RESULT:      -6.0      3.171      5.285
  Name = 
  14 active torsions:
  status: ('A' for Active; 'I' for Inactive)
    1  A    between atoms: C_7  and  C_10
    2  A    between atoms: C_7  and  O_25
    3  A    between atoms: C_8  and  C_29
    4  A    between atoms: C_8  and  C_31
    5  A    between atoms: C_9  and  C_12
    6  A    between atoms: C_10  and  C_32
    7  A    between atoms: C_12  and  CA_17
    8  A    between atoms: C_12  and  O_20
    9  A    between atoms: C_14  and  C_24
   10  A    between atoms: C_19  and  C_29
   11  A    between atoms: O_20  and  C_31
   12  A    between atoms: C_22  and  C_32
   13  A    between atoms: C_22  and  O_33
   14  A    between atoms: O_25  and  C_27
                            x       y       z     vdW  Elec       q    Type
                         _______ _______ _______ _____ _____    ______ ____

>  <TORSDO>
F 14

$$$$
=
 OpenBabel11042418213D

 37 39  0  0  1  0  0  0  0  0999 V2000
  189.7320  177.4980  145.4870 N   0  0  0  0  0  0  0  0  0  0  0  0
  191.6600  174.6760  146.5420 O   0  0  0  0  0  0  0  0  0  0  0  0
  188.7130  176.8840  144.9460 C   0  0  0  0  0  0  0  0  0  0  0  0
  188.7900  175.4720  144.6790 N   0  0  0  0  0  0  0  0  0  0  0  0
  191.0240  176.8570  145.7580 C   0  0  1  0  0  3  0  0  0  0  0  0
  190.8590  175.3680  145.8610 C   0  0  0  0  0  0  0  0  0  0  0  0
  189.7740  174.7360  145.1090 C   0  0  0  0  0  0  0  0  0  0  0  0
  185.1240  179.1110  144.1320 C   0  0  0  0  0  3  0  0  0  0  0  0
  186.1000  179.0180  143.1400 C   0  0  0  0  0  3  0  0  0  0  0  0
  188.4040  178.2010  142.0150 Cl  0  0  0  0  0  0  0  0  0  0  0  0
  184.0920  178.5860  146.6020 Cl  0  0  0  0  0  0  0  0  0  0  0  0
  187.4890  177.6550  144.6110 C   0  0  0  0  0  0  0  0  0  0  0  0
  185.3160  178.4760  145.3570 C   0  0  0  0  0  0  0  0  0  0  0  0
  187.2790  178.2970  143.3620 C   0  0  0  0  0  0  0  0  0  0  0  0
  186.4870  177.7550  145.5930 C   0  0  0  0  0  3  0  0  0  0  0  0
  189.8030  173.3600  144.8680 O   0  0  0  0  0  0  0  0  0  0  0  0
  190.3960  172.8080  143.7020 C   0  0  0  0  0  2  0  0  0  0  0  0
  189.3960  171.9150  142.9970 C   0  0  2  0  0  3  0  0  0  0  0  0
  190.0680  170.8790  142.3460 O   0  0  0  0  0  1  0  0  0  0  0  0
  188.6130  172.7380  141.9880 C   0  0  0  0  0  2  0  0  0  0  0  0
  189.4070  174.9210  141.4820 O   0  0  0  0  0  0  0  0  0  0  0  0
  189.5150  173.6860  141.2680 C   0  0  0  0  0  0  0  0  0  0  0  0
  190.1670  172.9010  139.1200 O   0  0  0  0  0  1  0  0  0  0  0  0
  190.4850  173.2230  140.3810 O   0  0  0  0  0  0  0  0  0  0  0  0
  191.9830  177.2060  144.6220 C   0  0  0  0  0  2  0  0  0  0  0  0
  194.2470  177.4520  145.3850 O   0  0  0  0  0  1  0  0  0  0  0  0
  193.3510  176.5540  144.7990 C   0  0  2  0  0  3  0  0  0  0  0  0
  192.7890  175.7360  142.4770 C   0  0  0  0  0  1  0  0  0  0  0  0
  193.9020  176.0070  143.4780 C   0  0  2  0  0  3  0  0  0  0  0  0
  194.6150  174.8240  143.7100 O   0  0  0  0  0  0  0  0  0  0  0  0
  195.9610  175.1230  143.4740 C   0  0  1  0  0  3  0  0  0  0  0  0
  196.2360  172.0410  144.6180 O   0  0  0  0  0  0  0  0  0  0  0  0
  196.8160  174.5430  144.5980 C   0  0  1  0  0  3  0  0  0  0  0  0
  196.0950  174.4710  145.7920 N   0  0  0  0  0  2  0  0  0  0  0  0
  196.3590  173.2630  144.8880 C   0  0  0  0  0  0  0  0  0  0  0  0
  196.2610  175.2360  141.1250 O   0  0  0  0  0  0  0  0  0  0  0  0
  196.3610  174.5650  142.1400 C   0  0  0  0  0  3  0  0  0  0  0  0
  1  5  1  0  0  0  0
  3  1  2  0  0  0  0
  4  3  1  0  0  0  0
  4  7  2  0  0  0  0
  5 25  1  6  0  0  0
  5  6  1  0  0  0  0
  6  2  2  0  0  0  0
  7  6  1  0  0  0  0
  8 13  1  0  0  0  0
  9 14  1  0  0  0  0
  9  8  2  0  0  0  0
 10 14  1  0  0  0  0
 12  3  1  0  0  0  0
 12 15  1  0  0  0  0
 13 15  2  0  0  0  0
 13 11  1  0  0  0  0
 14 12  2  0  0  0  0
 16  7  1  0  0  0  0
 17 16  1  0  0  0  0
 18 19  1  6  0  0  0
 18 17  1  0  0  0  0
 20 18  1  0  0  0  0
 22 21  2  0  0  0  0
 22 20  1  0  0  0  0
 23 24  1  0  0  0  0
 24 22  1  0  0  0  0
 25 27  1  0  0  0  0
 27 26  1  6  0  0  0
 29 28  1  6  0  0  0
 29 30  1  0  0  0  0
 29 27  1  0  0  0  0
 31 37  1  6  0  0  0
 31 30  1  0  0  0  0
 32 35  2  0  0  0  0
 33 31  1  6  0  0  0
 33 35  1  0  0  0  0
 33 34  1  0  0  0  0
 35 34  1  0  0  0  0
 36 37  2  0  0  0  0
M  END
>  <MODEL>
9

>  <REMARK>
 VINA RESULT:      -5.9      2.033      4.892
  Name = 
  14 active torsions:
  status: ('A' for Active; 'I' for Inactive)
    1  A    between atoms: C_7  and  C_10
    2  A    between atoms: C_7  and  O_25
    3  A    between atoms: C_8  and  C_29
    4  A    between atoms: C_8  and  C_31
    5  A    between atoms: C_9  and  C_12
    6  A    between atoms: C_10  and  C_32
    7  A    between atoms: C_12  and  CA_17
    8  A    between atoms: C_12  and  O_20
    9  A    between atoms: C_14  and  C_24
   10  A    between atoms: C_19  and  C_29
   11  A    between atoms: O_20  and  C_31
   12  A    between atoms: C_22  and  C_32
   13  A    between atoms: C_22  and  O_33
   14  A    between atoms: O_25  and  C_27
                            x       y       z     vdW  Elec       q    Type
                         _______ _______ _______ _____ _____    ______ ____

>  <TORSDO>
F 14

$$$$
