=
 OpenBabel11042413503D

 25 29  0  0  1  0  0  0  0  0999 V2000
  185.3330  177.1540  146.2720 C   0  0  0  0  0  2  0  0  0  0  0  0
  186.3140  177.3110  145.1980 N   0  0  2  0  0  0  0  0  0  0  0  0
  186.2990  177.6050  147.3440 C   0  0  0  0  0  2  0  0  0  0  0  0
  187.2670  177.7890  146.1980 C   0  0  1  0  0  3  0  0  0  0  0  0
  183.6700  178.0420  140.2150 C   0  0  0  0  0  3  0  0  0  0  0  0
  186.1400  177.8190  139.8570 C   0  0  0  0  0  1  0  0  0  0  0  0
  184.0240  178.3970  142.9230 C   0  0  0  0  0  0  0  0  0  0  0  0
  182.5720  178.2380  141.0700 C   0  0  0  0  0  0  0  0  0  0  0  0
  184.3720  178.5710  144.3450 C   0  0  0  0  0  2  0  0  0  0  0  0
  182.7660  178.4130  142.4100 N   0  0  0  0  0  0  0  0  0  0  0  0
  181.2540  178.2550  140.5370 N   0  0  0  0  0  1  0  0  0  0  0  0
  185.9100  178.4470  144.3670 C   0  0  2  0  0  3  0  0  0  0  0  0
  185.1190  178.2100  142.1270 C   0  0  0  0  0  0  0  0  0  0  0  0
  186.3730  178.2320  142.9090 C   0  0  0  0  0  2  0  0  0  0  0  0
  184.9660  178.0280  140.7500 C   0  0  0  0  0  0  0  0  0  0  0  0
  189.6060  174.7380  147.2170 C   0  0  0  0  0  3  0  0  0  0  0  0
  190.6600  175.0940  146.4930 C   0  0  0  0  0  0  0  0  0  0  0  0
  188.3620  175.6120  147.1950 C   0  0  0  0  0  2  0  0  0  0  0  0
  191.9080  174.4310  146.3680 N   0  0  0  0  0  0  0  0  0  0  0  0
  188.4420  176.8620  146.3040 C   0  0  0  0  0  0  0  0  0  0  0  0
  190.6840  176.2630  145.6840 C   0  0  0  0  0  0  0  0  0  0  0  0
  192.6220  175.1230  145.5660 N   0  0  0  0  0  0  0  0  0  0  0  0
  189.5410  177.1650  145.5920 C   0  0  0  0  0  3  0  0  0  0  0  0
  192.4010  177.2960  144.1820 C   0  0  0  0  0  1  0  0  0  0  0  0
  191.8800  176.2700  145.1270 C   0  0  0  0  0  0  0  0  0  0  0  0
  1  3  1  0  0  0  0
  2  4  1  0  0  0  0
  2  1  1  1  0  0  0
  4 20  1  1  0  0  0
  4  3  1  0  0  0  0
  5 15  2  0  0  0  0
  5  8  1  0  0  0  0
  6 15  1  0  0  0  0
  7  9  1  0  0  0  0
  8 10  2  0  0  0  0
  9 12  1  0  0  0  0
 10  7  1  0  0  0  0
 11  8  1  0  0  0  0
 12 14  1  6  0  0  0
 12  2  1  0  0  0  0
 13 14  1  0  0  0  0
 13  7  2  0  0  0  0
 15 13  1  0  0  0  0
 17 16  2  0  0  0  0
 18 16  1  0  0  0  0
 19 17  1  0  0  0  0
 20 18  1  0  0  0  0
 21 17  1  0  0  0  0
 22 19  2  0  0  0  0
 23 21  1  0  0  0  0
 23 20  2  0  0  0  0
 24 25  1  0  0  0  0
 25 22  1  0  0  0  0
 25 21  2  0  0  0  0
M  END
>  <MODEL>
1

>  <REMARK>
 VINA RESULT:      -8.3      0.000      0.000
  Name = 
  2 active torsions:
  status: ('A' for Active; 'I' for Inactive)
    1  A    between atoms: N_11  and  C_17
    2  A    between atoms: C_14  and  C_24
                            x       y       z     vdW  Elec       q    Type
                         _______ _______ _______ _____ _____    ______ ____

>  <TORSDO>
F 2

$$$$
=
 OpenBabel11042413503D

 25 29  0  0  1  0  0  0  0  0999 V2000
  186.5780  178.1130  147.6360 C   0  0  0  0  0  2  0  0  0  0  0  0
  187.4950  177.6710  146.5860 N   0  0  2  0  0  0  0  0  0  0  0  0
  185.4390  177.2560  147.1310 C   0  0  0  0  0  2  0  0  0  0  0  0
  186.4330  176.7980  146.0870 C   0  0  1  0  0  3  0  0  0  0  0  0
  191.7830  174.4130  144.7570 C   0  0  0  0  0  3  0  0  0  0  0  0
  189.6790  173.0620  144.9110 C   0  0  0  0  0  1  0  0  0  0  0  0
  190.6570  176.4630  146.2080 C   0  0  0  0  0  0  0  0  0  0  0  0
  192.5110  175.5800  145.0480 C   0  0  0  0  0  0  0  0  0  0  0  0
  189.9190  177.4710  146.9920 C   0  0  0  0  0  2  0  0  0  0  0  0
  191.9370  176.5860  145.7690 N   0  0  0  0  0  0  0  0  0  0  0  0
  193.8510  175.7110  144.5890 N   0  0  0  0  0  1  0  0  0  0  0  0
  188.5290  176.8340  147.1980 C   0  0  2  0  0  3  0  0  0  0  0  0
  189.9150  175.3460  145.9480 C   0  0  0  0  0  0  0  0  0  0  0  0
  188.5580  175.4440  146.5270 C   0  0  0  0  0  2  0  0  0  0  0  0
  190.4630  174.2920  145.2140 C   0  0  0  0  0  0  0  0  0  0  0  0
  184.5030  178.5060  143.0580 C   0  0  0  0  0  3  0  0  0  0  0  0
  185.2330  177.9790  142.0830 C   0  0  0  0  0  0  0  0  0  0  0  0
  184.8290  178.1580  144.5010 C   0  0  0  0  0  2  0  0  0  0  0  0
  185.1040  178.1690  140.6840 N   0  0  0  0  0  0  0  0  0  0  0  0
  186.0160  177.2010  144.7030 C   0  0  0  0  0  0  0  0  0  0  0  0
  186.3220  177.0960  142.3230 C   0  0  0  0  0  0  0  0  0  0  0  0
  186.0180  177.4740  140.1250 N   0  0  0  0  0  0  0  0  0  0  0  0
  186.7170  176.7020  143.6720 C   0  0  0  0  0  3  0  0  0  0  0  0
  187.9420  175.8990  140.8350 C   0  0  0  0  0  1  0  0  0  0  0  0
  186.7900  176.7960  141.1260 C   0  0  0  0  0  0  0  0  0  0  0  0
  2 12  1  0  0  0  0
  2  1  1  1  0  0  0
  3  1  1  0  0  0  0
  4 20  1  6  0  0  0
  4  2  1  0  0  0  0
  4  3  1  0  0  0  0
  5  8  2  0  0  0  0
  5 15  1  0  0  0  0
  6 15  1  0  0  0  0
  7  9  1  0  0  0  0
  8 10  1  0  0  0  0
  9 12  1  0  0  0  0
 10  7  2  0  0  0  0
 11  8  1  0  0  0  0
 12 14  1  6  0  0  0
 13  7  1  0  0  0  0
 13 14  1  0  0  0  0
 15 13  2  0  0  0  0
 16 18  1  0  0  0  0
 17 21  1  0  0  0  0
 17 16  2  0  0  0  0
 18 20  1  0  0  0  0
 19 17  1  0  0  0  0
 21 23  1  0  0  0  0
 22 19  2  0  0  0  0
 22 25  1  0  0  0  0
 23 20  2  0  0  0  0
 24 25  1  0  0  0  0
 25 21  2  0  0  0  0
M  END
>  <MODEL>
2

>  <REMARK>
 VINA RESULT:      -8.1      1.719      7.105
  Name = 
  2 active torsions:
  status: ('A' for Active; 'I' for Inactive)
    1  A    between atoms: N_11  and  C_17
    2  A    between atoms: C_14  and  C_24
                            x       y       z     vdW  Elec       q    Type
                         _______ _______ _______ _____ _____    ______ ____

>  <TORSDO>
F 2

$$$$
=
 OpenBabel11042413503D

 25 29  0  0  1  0  0  0  0  0999 V2000
  187.1560  177.8200  147.1060 C   0  0  0  0  0  2  0  0  0  0  0  0
  188.1440  177.2130  146.2150 N   0  0  2  0  0  0  0  0  0  0  0  0
  185.9960  177.0880  146.4680 C   0  0  0  0  0  2  0  0  0  0  0  0
  187.0570  176.4570  145.5950 C   0  0  1  0  0  3  0  0  0  0  0  0
  192.9740  174.3120  145.4360 C   0  0  0  0  0  3  0  0  0  0  0  0
  191.0180  172.9550  144.6560 C   0  0  0  0  0  1  0  0  0  0  0  0
  191.3160  176.0860  146.7330 C   0  0  0  0  0  0  0  0  0  0  0  0
  193.4970  175.4120  146.1380 C   0  0  0  0  0  0  0  0  0  0  0  0
  190.3050  176.9460  147.3740 C   0  0  0  0  0  2  0  0  0  0  0  0
  192.6600  176.2820  146.7750 N   0  0  0  0  0  0  0  0  0  0  0  0
  194.9030  175.6200  146.1830 N   0  0  0  0  0  1  0  0  0  0  0  0
  188.9630  176.2840  146.9960 C   0  0  2  0  0  3  0  0  0  0  0  0
  190.7670  175.0300  146.0630 C   0  0  0  0  0  0  0  0  0  0  0  0
  189.2920  175.0280  146.1600 C   0  0  0  0  0  2  0  0  0  0  0  0
  191.5870  174.1150  145.3970 C   0  0  0  0  0  0  0  0  0  0  0  0
  187.8020  177.1390  141.7480 C   0  0  0  0  0  3  0  0  0  0  0  0
  186.5830  177.5460  141.4170 C   0  0  0  0  0  0  0  0  0  0  0  0
  188.0850  176.7380  143.1870 C   0  0  0  0  0  2  0  0  0  0  0  0
  186.1070  177.9610  140.1470 N   0  0  0  0  0  0  0  0  0  0  0  0
  186.8940  176.8390  144.1520 C   0  0  0  0  0  0  0  0  0  0  0  0
  185.5130  177.6240  142.3510 C   0  0  0  0  0  0  0  0  0  0  0  0
  184.8740  178.2610  140.2880 N   0  0  0  0  0  0  0  0  0  0  0  0
  185.6820  177.2580  143.7530 C   0  0  0  0  0  3  0  0  0  0  0  0
  183.1090  178.3060  142.1790 C   0  0  0  0  0  1  0  0  0  0  0  0
  184.4810  178.0590  141.6530 C   0  0  0  0  0  0  0  0  0  0  0  0
  2 12  1  0  0  0  0
  2  1  1  1  0  0  0
  3  1  1  0  0  0  0
  4 20  1  6  0  0  0
  4  2  1  0  0  0  0
  4  3  1  0  0  0  0
  5  8  1  0  0  0  0
  6 15  1  0  0  0  0
  7 10  1  0  0  0  0
  7  9  1  0  0  0  0
  8 11  1  0  0  0  0
  8 10  2  0  0  0  0
 12 14  1  6  0  0  0
 12  9  1  0  0  0  0
 13 14  1  0  0  0  0
 13  7  2  0  0  0  0
 15  5  2  0  0  0  0
 15 13  1  0  0  0  0
 16 18  1  0  0  0  0
 17 16  2  0  0  0  0
 17 21  1  0  0  0  0
 18 20  1  0  0  0  0
 19 22  2  0  0  0  0
 19 17  1  0  0  0  0
 21 23  1  0  0  0  0
 22 25  1  0  0  0  0
 23 20  2  0  0  0  0
 25 24  1  0  0  0  0
 25 21  2  0  0  0  0
M  END
>  <MODEL>
3

>  <REMARK>
 VINA RESULT:      -7.8      1.902      7.829
  Name = 
  2 active torsions:
  status: ('A' for Active; 'I' for Inactive)
    1  A    between atoms: N_11  and  C_17
    2  A    between atoms: C_14  and  C_24
                            x       y       z     vdW  Elec       q    Type
                         _______ _______ _______ _____ _____    ______ ____

>  <TORSDO>
F 2

$$$$
=
 OpenBabel11042413503D

 25 29  0  0  1  0  0  0  0  0999 V2000
  189.5710  174.3620  142.6470 C   0  0  0  0  0  2  0  0  0  0  0  0
  190.2120  175.1530  143.6960 N   0  0  2  0  0  0  0  0  0  0  0  0
  188.6570  175.4910  142.2270 C   0  0  0  0  0  2  0  0  0  0  0  0
  189.3750  176.2830  143.2970 C   0  0  1  0  0  3  0  0  0  0  0  0
  195.3650  174.8740  146.0880 C   0  0  0  0  0  3  0  0  0  0  0  0
  194.3410  177.1220  146.5070 C   0  0  0  0  0  1  0  0  0  0  0  0
  193.4710  174.2880  144.1780 C   0  0  0  0  0  0  0  0  0  0  0  0
  195.3800  173.6450  145.4050 C   0  0  0  0  0  0  0  0  0  0  0  0
  192.3930  174.1200  143.1860 C   0  0  0  0  0  2  0  0  0  0  0  0
  194.4330  173.3720  144.4610 N   0  0  0  0  0  0  0  0  0  0  0  0
  196.3860  172.6840  145.7000 N   0  0  0  0  0  1  0  0  0  0  0  0
  191.5900  175.4340  143.2870 C   0  0  2  0  0  3  0  0  0  0  0  0
  193.4210  175.4950  144.8170 C   0  0  0  0  0  0  0  0  0  0  0  0
  192.2900  176.3200  144.3410 C   0  0  0  0  0  2  0  0  0  0  0  0
  194.3710  175.8160  145.7900 C   0  0  0  0  0  0  0  0  0  0  0  0
  187.5410  176.4590  146.8210 C   0  0  0  0  0  3  0  0  0  0  0  0
  186.7140  177.4540  146.5240 C   0  0  0  0  0  0  0  0  0  0  0  0
  188.5140  175.9610  145.7650 C   0  0  0  0  0  3  0  0  0  0  0  0
  185.7380  178.0660  147.3510 N   0  0  0  0  0  2  0  0  0  0  0  0
  188.4510  176.6840  144.4090 C   0  0  0  0  0  0  0  0  0  0  0  0
  186.6940  178.0890  145.2520 C   0  0  0  0  0  0  0  0  0  0  0  0
  185.1790  178.9810  146.6570 N   0  0  0  0  0  0  0  0  0  0  0  0
  187.5900  177.6880  144.1720 C   0  0  0  0  0  3  0  0  0  0  0  0
  185.3510  179.9610  144.2700 C   0  0  0  0  0  1  0  0  0  0  0  0
  185.7580  179.0140  145.3450 C   0  0  0  0  0  0  0  0  0  0  0  0
  2  1  1  6  0  0  0
  3  1  1  0  0  0  0
  3  4  1  0  0  0  0
  4  2  1  0  0  0  0
  4 20  1  1  0  0  0
  7 10  2  0  0  0  0
  7 13  1  0  0  0  0
  8 11  1  0  0  0  0
  8  5  2  0  0  0  0
  9  7  1  0  0  0  0
 10  8  1  0  0  0  0
 12  9  1  1  0  0  0
 12  2  1  0  0  0  0
 12 14  1  0  0  0  0
 13 15  2  0  0  0  0
 14 13  1  0  0  0  0
 15  5  1  0  0  0  0
 15  6  1  0  0  0  0
 17 16  1  0  0  0  0
 17 19  1  0  0  0  0
 18 16  2  0  0  0  0
 20 18  1  0  0  0  0
 21 25  1  0  0  0  0
 21 17  2  0  0  0  0
 22 19  1  0  0  0  0
 23 20  2  0  0  0  0
 23 21  1  0  0  0  0
 24 25  1  0  0  0  0
 25 22  2  0  0  0  0
M  END
>  <MODEL>
4

>  <REMARK>
 VINA RESULT:      -7.7      3.004      8.547
  Name = 
  2 active torsions:
  status: ('A' for Active; 'I' for Inactive)
    1  A    between atoms: N_11  and  C_17
    2  A    between atoms: C_14  and  C_24
                            x       y       z     vdW  Elec       q    Type
                         _______ _______ _______ _____ _____    ______ ____

>  <TORSDO>
F 2

$$$$
=
 OpenBabel11042413503D

 25 29  0  0  1  0  0  0  0  0999 V2000
  188.5050  176.0750  141.6000 C   0  0  0  0  0  2  0  0  0  0  0  0
  188.7820  176.5190  142.9660 N   0  0  2  0  0  0  0  0  0  0  0  0
  187.8310  177.3730  141.2170 C   0  0  0  0  0  2  0  0  0  0  0  0
  188.1720  177.8030  142.6260 C   0  0  1  0  0  3  0  0  0  0  0  0
  192.9240  174.4870  146.2920 C   0  0  0  0  0  3  0  0  0  0  0  0
  191.8870  176.5100  147.3450 C   0  0  0  0  0  1  0  0  0  0  0  0
  191.7020  175.0260  143.8840 C   0  0  0  0  0  0  0  0  0  0  0  0
  193.1150  173.6500  145.1790 C   0  0  0  0  0  0  0  0  0  0  0  0
  190.9820  175.4440  142.6680 C   0  0  0  0  0  2  0  0  0  0  0  0
  192.5010  173.9330  143.9930 N   0  0  0  0  0  0  0  0  0  0  0  0
  193.9500  172.5050  145.2890 N   0  0  0  0  0  1  0  0  0  0  0  0
  190.2260  176.7160  143.1040 C   0  0  2  0  0  3  0  0  0  0  0  0
  191.4910  175.8660  144.9410 C   0  0  0  0  0  0  0  0  0  0  0  0
  190.5890  176.9820  144.5820 C   0  0  0  0  0  2  0  0  0  0  0  0
  192.1000  175.6150  146.1730 C   0  0  0  0  0  0  0  0  0  0  0  0
  184.3890  178.3910  143.7020 C   0  0  0  0  0  3  0  0  0  0  0  0
  184.6050  178.4890  145.0080 C   0  0  0  0  0  0  0  0  0  0  0  0
  185.5660  178.1560  142.7700 C   0  0  0  0  0  3  0  0  0  0  0  0
  183.6620  178.7030  146.0450 N   0  0  0  0  0  2  0  0  0  0  0  0
  186.9410  178.0460  143.4490 C   0  0  0  0  0  0  0  0  0  0  0  0
  185.9000  178.3800  145.5880 C   0  0  0  0  0  0  0  0  0  0  0  0
  184.3100  178.7240  147.1450 N   0  0  0  0  0  0  0  0  0  0  0  0
  187.0930  178.1520  144.7800 C   0  0  0  0  0  3  0  0  0  0  0  0
  186.7610  178.4870  147.9370 C   0  0  0  0  0  1  0  0  0  0  0  0
  185.7080  178.5250  146.8850 C   0  0  0  0  0  0  0  0  0  0  0  0
  2  1  1  6  0  0  0
  2 12  1  0  0  0  0
  3  1  1  0  0  0  0
  3  4  1  0  0  0  0
  4  2  1  0  0  0  0
  4 20  1  1  0  0  0
  7 10  2  0  0  0  0
  7 13  1  0  0  0  0
  8 11  1  0  0  0  0
  8  5  2  0  0  0  0
  9  7  1  0  0  0  0
 10  8  1  0  0  0  0
 12  9  1  1  0  0  0
 12 14  1  0  0  0  0
 13 15  2  0  0  0  0
 14 13  1  0  0  0  0
 15  5  1  0  0  0  0
 15  6  1  0  0  0  0
 16 17  1  0  0  0  0
 17 21  2  0  0  0  0
 17 19  1  0  0  0  0
 18 20  1  0  0  0  0
 18 16  2  0  0  0  0
 19 22  1  0  0  0  0
 20 23  2  0  0  0  0
 21 25  1  0  0  0  0
 23 21  1  0  0  0  0
 25 22  2  0  0  0  0
 25 24  1  0  0  0  0
M  END
>  <MODEL>
5

>  <REMARK>
 VINA RESULT:      -7.7      2.407      7.922
  Name = 
  2 active torsions:
  status: ('A' for Active; 'I' for Inactive)
    1  A    between atoms: N_11  and  C_17
    2  A    between atoms: C_14  and  C_24
                            x       y       z     vdW  Elec       q    Type
                         _______ _______ _______ _____ _____    ______ ____

>  <TORSDO>
F 2

$$$$
=
 OpenBabel11042413503D

 25 29  0  0  1  0  0  0  0  0999 V2000
  190.4500  175.3660  147.6410 C   0  0  0  0  0  2  0  0  0  0  0  0
  190.8000  175.7140  146.2640 N   0  0  2  0  0  0  0  0  0  0  0  0
  189.1130  174.7800  147.2500 C   0  0  0  0  0  2  0  0  0  0  0  0
  189.5330  175.1230  145.8380 C   0  0  1  0  0  3  0  0  0  0  0  0
  194.9330  175.8950  142.3600 C   0  0  0  0  0  3  0  0  0  0  0  0
  192.8570  174.8980  141.3730 C   0  0  0  0  0  1  0  0  0  0  0  0
  193.9250  175.6460  144.9100 C   0  0  0  0  0  0  0  0  0  0  0  0
  195.6760  176.3130  143.4780 C   0  0  0  0  0  0  0  0  0  0  0  0
  193.2520  175.4500  146.2070 C   0  0  0  0  0  2  0  0  0  0  0  0
  195.1610  176.1820  144.7350 N   0  0  0  0  0  0  0  0  0  0  0  0
  196.9710  176.8730  143.2970 N   0  0  0  0  0  1  0  0  0  0  0  0
  191.8880  174.8370  145.8270 C   0  0  2  0  0  3  0  0  0  0  0  0
  193.1690  175.2280  143.8520 C   0  0  0  0  0  0  0  0  0  0  0  0
  191.8660  174.6840  144.2910 C   0  0  0  0  0  2  0  0  0  0  0  0
  193.6580  175.3430  142.5480 C   0  0  0  0  0  0  0  0  0  0  0  0
  187.7490  177.5080  143.2030 C   0  0  0  0  0  3  0  0  0  0  0  0
  186.9310  178.1100  144.0580 C   0  0  0  0  0  0  0  0  0  0  0  0
  188.7090  176.4470  143.7160 C   0  0  0  0  0  3  0  0  0  0  0  0
  185.9660  179.1150  143.7940 N   0  0  0  0  0  0  0  0  0  0  0  0
  188.6380  176.1600  145.2250 C   0  0  0  0  0  0  0  0  0  0  0  0
  186.9060  177.8080  145.4470 C   0  0  2  0  0  3  0  0  0  0  0  0
  185.4070  179.4000  144.9070 N   0  0  0  0  0  0  0  0  0  0  0  0
  187.7850  176.8050  146.0380 C   0  0  0  0  0  3  0  0  0  0  0  0
  185.5620  178.6610  147.3810 C   0  0  0  0  0  1  0  0  0  0  0  0
  185.9760  178.5980  145.9520 C   0  0  0  0  0  0  0  0  0  0  0  0
  2  1  1  1  0  0  0
  3  1  1  0  0  0  0
  4 20  1  1  0  0  0
  4  2  1  0  0  0  0
  4  3  1  0  0  0  0
  5 15  2  0  0  0  0
  5  8  1  0  0  0  0
  6 15  1  0  0  0  0
  7  9  1  0  0  0  0
  8 10  2  0  0  0  0
 10  7  1  0  0  0  0
 11  8  1  0  0  0  0
 12 14  1  6  0  0  0
 12  9  1  0  0  0  0
 12  2  1  0  0  0  0
 13 14  1  0  0  0  0
 13  7  2  0  0  0  0
 15 13  1  0  0  0  0
 16 18  2  0  0  0  0
 16 17  1  0  0  0  0
 17 21  1  0  0  0  0
 18 20  1  0  0  0  0
 19 17  2  0  0  0  0
 19 22  1  0  0  0  0
 20 23  2  0  0  0  0
 21 25  1  0  0  0  0
 21 23  1  6  0  0  0
 22 25  2  0  0  0  0
 25 24  1  0  0  0  0
M  END
>  <MODEL>
6

>  <REMARK>
 VINA RESULT:      -7.7      2.722      8.155
  Name = 
  2 active torsions:
  status: ('A' for Active; 'I' for Inactive)
    1  A    between atoms: N_11  and  C_17
    2  A    between atoms: C_14  and  C_24
                            x       y       z     vdW  Elec       q    Type
                         _______ _______ _______ _____ _____    ______ ____

>  <TORSDO>
F 2

$$$$
=
 OpenBabel11042413503D

 25 29  0  0  1  0  0  0  0  0999 V2000
  190.3490  176.3890  147.0220 C   0  0  0  0  0  2  0  0  0  0  0  0
  189.9210  176.9140  145.7260 N   0  0  2  0  0  0  0  0  0  0  0  0
  189.1950  175.4160  147.1110 C   0  0  0  0  0  2  0  0  0  0  0  0
  188.8120  175.9630  145.7540 C   0  0  1  0  0  3  0  0  0  0  0  0
  194.1220  173.0940  145.3930 C   0  0  0  0  0  3  0  0  0  0  0  0
  195.0120  175.2840  146.2230 C   0  0  0  0  0  1  0  0  0  0  0  0
  191.7570  174.2700  144.6140 C   0  0  0  0  0  0  0  0  0  0  0  0
  193.0980  172.3380  144.7980 C   0  0  0  0  0  0  0  0  0  0  0  0
  190.5520  175.0380  144.2540 C   0  0  0  0  0  2  0  0  0  0  0  0
  191.9320  172.9370  144.4180 N   0  0  0  0  0  0  0  0  0  0  0  0
  193.2780  170.9420  144.5910 N   0  0  0  0  0  1  0  0  0  0  0  0
  190.8800  176.4750  144.7100 C   0  0  2  0  0  3  0  0  0  0  0  0
  192.7270  175.0420  145.1880 C   0  0  0  0  0  0  0  0  0  0  0  0
  192.3080  176.4560  145.2960 C   0  0  0  0  0  2  0  0  0  0  0  0
  193.9360  174.4700  145.5920 C   0  0  0  0  0  0  0  0  0  0  0  0
  185.4240  177.5980  147.0430 C   0  0  0  0  0  3  0  0  0  0  0  0
  185.0040  178.0470  145.8670 C   0  0  0  0  0  0  0  0  0  0  0  0
  186.7440  176.8480  147.1230 C   0  0  0  0  0  2  0  0  0  0  0  0
  183.8170  178.7640  145.5710 N   0  0  0  0  0  0  0  0  0  0  0  0
  187.4940  176.6780  145.7910 C   0  0  0  0  0  0  0  0  0  0  0  0
  185.7360  177.8610  144.6620 C   0  0  0  0  0  0  0  0  0  0  0  0
  183.8210  178.9940  144.3140 N   0  0  0  0  0  0  0  0  0  0  0  0
  187.0130  177.1580  144.6320 C   0  0  0  0  0  3  0  0  0  0  0  0
  185.3450  178.5240  142.2780 C   0  0  0  0  0  1  0  0  0  0  0  0
  185.0070  178.4410  143.7260 C   0  0  0  0  0  0  0  0  0  0  0  0
  1  3  1  0  0  0  0
  2  4  1  0  0  0  0
  2  1  1  1  0  0  0
  4 20  1  1  0  0  0
  4  3  1  0  0  0  0
  5 15  1  0  0  0  0
  7 13  1  0  0  0  0
  8  5  2  0  0  0  0
  9  7  1  0  0  0  0
 10  7  2  0  0  0  0
 10  8  1  0  0  0  0
 11  8  1  0  0  0  0
 12  9  1  1  0  0  0
 12 14  1  0  0  0  0
 12  2  1  0  0  0  0
 13 14  1  0  0  0  0
 13 15  2  0  0  0  0
 15  6  1  0  0  0  0
 16 18  1  0  0  0  0
 17 16  2  0  0  0  0
 19 17  1  0  0  0  0
 20 18  1  0  0  0  0
 21 17  1  0  0  0  0
 22 19  2  0  0  0  0
 23 21  1  0  0  0  0
 23 20  2  0  0  0  0
 24 25  1  0  0  0  0
 25 22  1  0  0  0  0
 25 21  2  0  0  0  0
M  END
>  <MODEL>
7

>  <REMARK>
 VINA RESULT:      -7.6      2.209      8.073
  Name = 
  2 active torsions:
  status: ('A' for Active; 'I' for Inactive)
    1  A    between atoms: N_11  and  C_17
    2  A    between atoms: C_14  and  C_24
                            x       y       z     vdW  Elec       q    Type
                         _______ _______ _______ _____ _____    ______ ____

>  <TORSDO>
F 2

$$$$
=
 OpenBabel11042413503D

 25 29  0  0  1  0  0  0  0  0999 V2000
  190.5490  175.2640  147.6660 C   0  0  0  0  0  2  0  0  0  0  0  0
  190.7170  175.6620  146.2690 N   0  0  2  0  0  0  0  0  0  0  0  0
  189.1650  174.7010  147.4350 C   0  0  0  0  0  2  0  0  0  0  0  0
  189.3980  175.0950  145.9940 C   0  0  1  0  0  3  0  0  0  0  0  0
  193.3960  175.3330  141.2620 C   0  0  0  0  0  3  0  0  0  0  0  0
  191.2730  174.0050  141.1930 C   0  0  0  0  0  1  0  0  0  0  0  0
  193.2580  175.5440  144.0040 C   0  0  0  0  0  0  0  0  0  0  0  0
  194.3820  176.0250  141.9870 C   0  0  0  0  0  0  0  0  0  0  0  0
  193.0460  175.5710  145.4630 C   0  0  0  0  0  2  0  0  0  0  0  0
  194.2980  176.1200  143.3460 N   0  0  0  0  0  0  0  0  0  0  0  0
  195.4720  176.6290  141.3010 N   0  0  0  0  0  1  0  0  0  0  0  0
  191.7280  174.7950  145.6600 C   0  0  2  0  0  3  0  0  0  0  0  0
  192.2790  174.8610  143.3380 C   0  0  0  0  0  0  0  0  0  0  0  0
  191.2590  174.3260  144.2650 C   0  0  0  0  0  2  0  0  0  0  0  0
  192.3260  174.7400  141.9470 C   0  0  0  0  0  0  0  0  0  0  0  0
  186.6110  177.9320  145.9970 C   0  0  0  0  0  3  0  0  0  0  0  0
  186.6400  178.1880  144.6950 C   0  0  0  0  0  0  0  0  0  0  0  0
  187.5310  176.8630  146.5630 C   0  0  0  0  0  2  0  0  0  0  0  0
  185.8760  179.1350  143.9660 N   0  0  0  0  0  0  0  0  0  0  0  0
  188.4410  176.1600  145.5430 C   0  0  0  0  0  0  0  0  0  0  0  0
  187.5020  177.5070  143.7910 C   0  0  0  0  0  0  0  0  0  0  0  0
  186.2330  179.0430  142.7430 N   0  0  0  0  0  0  0  0  0  0  0  0
  188.4240  176.4680  144.2350 C   0  0  0  0  0  3  0  0  0  0  0  0
  187.8950  177.6620  141.3220 C   0  0  0  0  0  1  0  0  0  0  0  0
  187.2450  178.0350  142.6090 C   0  0  0  0  0  0  0  0  0  0  0  0
  2  1  1  1  0  0  0
  3  1  1  0  0  0  0
  4 20  1  1  0  0  0
  4  2  1  0  0  0  0
  4  3  1  0  0  0  0
  5 15  2  0  0  0  0
  5  8  1  0  0  0  0
  6 15  1  0  0  0  0
  7  9  1  0  0  0  0
  8 10  2  0  0  0  0
  9 12  1  0  0  0  0
 10  7  1  0  0  0  0
 11  8  1  0  0  0  0
 12 14  1  6  0  0  0
 12  2  1  0  0  0  0
 13  7  2  0  0  0  0
 13 14  1  0  0  0  0
 15 13  1  0  0  0  0
 16 18  1  0  0  0  0
 17 16  2  0  0  0  0
 19 17  1  0  0  0  0
 20 18  1  0  0  0  0
 21 23  1  0  0  0  0
 21 17  1  0  0  0  0
 22 19  2  0  0  0  0
 23 20  2  0  0  0  0
 24 25  1  0  0  0  0
 25 22  1  0  0  0  0
 25 21  2  0  0  0  0
M  END
>  <MODEL>
8

>  <REMARK>
 VINA RESULT:      -7.6      2.480      7.431
  Name = 
  2 active torsions:
  status: ('A' for Active; 'I' for Inactive)
    1  A    between atoms: N_11  and  C_17
    2  A    between atoms: C_14  and  C_24
                            x       y       z     vdW  Elec       q    Type
                         _______ _______ _______ _____ _____    ______ ____

>  <TORSDO>
F 2

$$$$
=
 OpenBabel11042413503D

 25 29  0  0  1  0  0  0  0  0999 V2000
  190.1660  175.1750  147.5640 C   0  0  0  0  0  2  0  0  0  0  0  0
  190.1270  176.5070  146.9610 N   0  0  2  0  0  0  0  0  0  0  0  0
  189.2140  174.5870  146.5470 C   0  0  0  0  0  2  0  0  0  0  0  0
  189.2350  175.9700  145.9350 C   0  0  1  0  0  3  0  0  0  0  0  0
  193.5510  173.8900  143.2480 C   0  0  0  0  0  3  0  0  0  0  0  0
  194.0750  173.1400  145.5810 C   0  0  0  0  0  1  0  0  0  0  0  0
  192.0350  175.9880  144.1870 C   0  0  0  0  0  0  0  0  0  0  0  0
  192.9160  174.7790  142.3640 C   0  0  0  0  0  0  0  0  0  0  0  0
  191.2580  177.0580  144.8400 C   0  0  0  0  0  2  0  0  0  0  0  0
  192.1690  175.8140  142.8470 N   0  0  0  0  0  0  0  0  0  0  0  0
  193.0550  174.5990  140.9600 N   0  0  0  0  0  1  0  0  0  0  0  0
  191.4290  176.7730  146.3460 C   0  0  2  0  0  3  0  0  0  0  0  0
  192.6350  175.1470  145.0820 C   0  0  0  0  0  0  0  0  0  0  0  0
  192.3450  175.5370  146.4780 C   0  0  0  0  0  2  0  0  0  0  0  0
  193.4100  174.0760  144.6310 C   0  0  0  0  0  0  0  0  0  0  0  0
  185.6980  177.2460  147.2300 C   0  0  0  0  0  3  0  0  0  0  0  0
  185.3450  177.8920  146.1260 C   0  0  0  0  0  0  0  0  0  0  0  0
  187.0380  176.5310  147.2750 C   0  0  0  0  0  2  0  0  0  0  0  0
  184.1540  178.6200  145.8720 N   0  0  0  0  0  0  0  0  0  0  0  0
  187.8890  176.6290  145.9980 C   0  0  0  0  0  0  0  0  0  0  0  0
  186.1690  177.9530  144.9680 C   0  0  0  0  0  0  0  0  0  0  0  0
  184.2400  179.0780  144.6830 N   0  0  0  0  0  0  0  0  0  0  0  0
  187.4740  177.3020  144.9120 C   0  0  0  0  0  3  0  0  0  0  0  0
  185.9250  179.0330  142.7220 C   0  0  0  0  0  1  0  0  0  0  0  0
  185.4870  178.6750  144.0990 C   0  0  0  0  0  0  0  0  0  0  0  0
  2  1  1  1  0  0  0
  3  1  1  0  0  0  0
  4 20  1  1  0  0  0
  4  3  1  0  0  0  0
  4  2  1  0  0  0  0
  5 15  1  0  0  0  0
  7  9  1  0  0  0  0
  7 13  1  0  0  0  0
  8 10  1  0  0  0  0
  8  5  2  0  0  0  0
 10  7  2  0  0  0  0
 11  8  1  0  0  0  0
 12  9  1  6  0  0  0
 12 14  1  0  0  0  0
 12  2  1  0  0  0  0
 13 14  1  0  0  0  0
 15 13  2  0  0  0  0
 15  6  1  0  0  0  0
 16 18  1  0  0  0  0
 17 16  2  0  0  0  0
 19 17  1  0  0  0  0
 20 18  1  0  0  0  0
 21 17  1  0  0  0  0
 22 19  2  0  0  0  0
 23 21  1  0  0  0  0
 23 20  2  0  0  0  0
 24 25  1  0  0  0  0
 25 22  1  0  0  0  0
 25 21  2  0  0  0  0
M  END
>  <MODEL>
9

>  <REMARK>
 VINA RESULT:      -7.5      2.198      7.544
  Name = 
  2 active torsions:
  status: ('A' for Active; 'I' for Inactive)
    1  A    between atoms: N_11  and  C_17
    2  A    between atoms: C_14  and  C_24
                            x       y       z     vdW  Elec       q    Type
                         _______ _______ _______ _____ _____    ______ ____

>  <TORSDO>
F 2

$$$$
