=
 OpenBabel11042416083D

 34 38  0  0  1  0  0  0  0  0999 V2000
  182.4390  178.8710  142.7160 N   0  0  0  0  0  0  0  0  0  0  0  0
  185.6280  177.2790  142.2800 C   0  0  0  0  0  3  0  0  0  0  0  0
  183.6750  178.0090  140.5540 S   0  0  0  0  0  0  0  0  0  0  0  0
  186.2560  177.5440  144.7670 C   0  0  0  0  0  0  0  0  0  0  0  0
  182.2690  178.6730  141.4520 C   0  0  0  0  0  0  0  0  0  0  0  0
  187.1590  177.1790  145.8090 C   0  0  0  0  0  0  0  0  0  0  0  0
  186.4380  176.9760  143.4760 C   0  0  0  0  0  0  0  0  0  0  0  0
  188.2070  176.2630  145.5750 C   0  0  0  0  0  0  0  0  0  0  0  0
  189.2610  174.8650  143.8700 N   0  0  0  0  0  0  0  0  0  0  0  0
  187.4720  176.1020  143.3130 N   0  0  0  0  0  0  0  0  0  0  0  0
  187.8490  175.4420  142.2010 C   0  0  0  0  0  3  0  0  0  0  0  0
  183.6940  178.4810  143.1880 N   0  0  0  0  0  0  0  0  0  0  0  0
  184.4880  177.9430  142.1430 C   0  0  0  0  0  0  0  0  0  0  0  0
  187.0020  177.7660  147.1830 C   0  0  0  0  0  1  0  0  0  0  0  0
  185.2100  178.5260  145.1210 C   0  0  0  0  0  3  0  0  0  0  0  0
  188.9520  174.6860  142.5660 C   0  0  0  0  0  0  0  0  0  0  0  0
  184.1220  178.9220  144.4720 C   0  0  0  0  0  3  0  0  0  0  0  0
  188.3240  175.7420  144.2860 C   0  0  0  0  0  0  0  0  0  0  0  0
  180.9940  179.0270  140.7770 C   0  0  0  0  0  1  0  0  0  0  0  0
  189.6860  173.8210  141.6900 N   0  0  0  0  0  0  0  0  0  0  0  0
  189.4720  173.8770  140.2540 C   0  0  0  0  0  1  0  0  0  0  0  0
  190.5860  172.8080  142.2200 C   0  0  0  0  0  2  0  0  0  0  0  0
  194.9480  173.4330  144.3710 C   0  0  2  0  0  3  0  0  0  0  0  0
  191.9640  173.1860  141.9510 N   0  0  0  0  0  2  0  0  0  0  0  0
  194.5930  173.8730  142.6400 S   0  0  0  0  0  0  0  0  0  0  0  0
  193.6530  173.6060  145.1750 C   0  0  1  0  0  3  0  0  0  0  0  0
  192.8940  173.4700  142.9960 C   0  0  0  0  0  0  0  0  0  0  0  0
  193.5310  174.9070  145.6700 O   0  0  0  0  0  1  0  0  0  0  0  0
  192.5720  173.3530  144.2420 N   0  0  0  0  0  0  0  0  0  0  0  0
  196.8010  173.5840  146.1580 C   0  0  0  0  0  1  0  0  0  0  0  0
  196.1590  174.1300  144.9300 C   0  0  0  0  0  0  0  0  0  0  0  0
  196.7310  175.1570  144.3020 C   0  0  0  0  0  2  0  0  0  0  0  0
  189.1340  175.8860  146.6640 C   0  0  0  0  0  3  0  0  0  0  0  0
  189.0080  174.8130  147.3130 O   0  0  0  0  0  0  0  0  0  0  0  0
  1 12  1  0  0  0  0
  2  7  1  0  0  0  0
  3  5  1  0  0  0  0
  3 13  1  0  0  0  0
  4 15  1  0  0  0  0
  4  6  1  0  0  0  0
  5  1  2  0  0  0  0
  6 14  1  0  0  0  0
  7  4  2  0  0  0  0
  8  6  2  0  0  0  0
  8 33  1  0  0  0  0
  9 18  2  0  0  0  0
 10  7  1  0  0  0  0
 10 18  1  0  0  0  0
 11 16  2  0  0  0  0
 11 10  1  0  0  0  0
 12 17  1  0  0  0  0
 13  2  2  0  0  0  0
 13 12  1  0  0  0  0
 16  9  1  0  0  0  0
 17 15  2  0  0  0  0
 18  8  1  0  0  0  0
 19  5  1  0  0  0  0
 20 22  1  0  0  0  0
 20 16  1  0  0  0  0
 21 20  1  0  0  0  0
 23 31  1  1  0  0  0
 23 26  1  0  0  0  0
 24 22  1  0  0  0  0
 24 27  1  0  0  0  0
 25 27  1  0  0  0  0
 25 23  1  0  0  0  0
 26 28  1  6  0  0  0
 27 29  2  0  0  0  0
 29 26  1  0  0  0  0
 31 30  1  0  0  0  0
 32 31  2  0  0  0  0
 33 34  2  0  0  0  0
M  END
>  <MODEL>
1

>  <REMARK>
 VINA RESULT:      -7.8      0.000      0.000
  Name = 
  5 active torsions:
  status: ('A' for Active; 'I' for Inactive)
    1  A    between atoms: N_2  and  C_5
    2  A    between atoms: N_2  and  C_28
    3  A    between atoms: C_5  and  N_8
    4  A    between atoms: C_7  and  C_14
    5  A    between atoms: C_13  and  C_15
                            x       y       z     vdW  Elec       q    Type
                         _______ _______ _______ _____ _____    ______ ____

>  <TORSDO>
F 5

$$$$
=
 OpenBabel11042416083D

 34 38  0  0  1  0  0  0  0  0999 V2000
  182.5080  178.7070  142.6350 N   0  0  0  0  0  0  0  0  0  0  0  0
  185.7930  177.3080  142.2440 C   0  0  0  0  0  3  0  0  0  0  0  0
  183.8820  178.0600  140.4810 S   0  0  0  0  0  0  0  0  0  0  0  0
  186.2950  177.4290  144.7710 C   0  0  0  0  0  0  0  0  0  0  0  0
  182.4050  178.5900  141.3540 C   0  0  0  0  0  0  0  0  0  0  0  0
  187.1690  177.0370  145.8270 C   0  0  0  0  0  0  0  0  0  0  0  0
  186.5640  176.9630  143.4550 C   0  0  0  0  0  0  0  0  0  0  0  0
  188.2730  176.1920  145.5820 C   0  0  0  0  0  0  0  0  0  0  0  0
  189.4730  174.9710  143.8380 N   0  0  0  0  0  0  0  0  0  0  0  0
  187.6490  176.1540  143.2820 N   0  0  0  0  0  0  0  0  0  0  0  0
  188.1080  175.5930  142.1470 C   0  0  0  0  0  3  0  0  0  0  0  0
  183.7600  178.3460  143.1380 N   0  0  0  0  0  0  0  0  0  0  0  0
  184.6270  177.9230  142.0990 C   0  0  0  0  0  0  0  0  0  0  0  0
  186.9210  177.5180  147.2300 C   0  0  0  0  0  1  0  0  0  0  0  0
  185.1850  178.3310  145.1410 C   0  0  0  0  0  3  0  0  0  0  0  0
  189.2320  174.8680  142.5120 C   0  0  0  0  0  0  0  0  0  0  0  0
  184.1070  178.7170  144.4690 C   0  0  0  0  0  3  0  0  0  0  0  0
  188.4750  175.7690  144.2680 C   0  0  0  0  0  0  0  0  0  0  0  0
  181.1440  178.9260  140.6440 C   0  0  0  0  0  1  0  0  0  0  0  0
  190.0490  174.1040  141.6150 N   0  0  0  0  0  0  0  0  0  0  0  0
  189.4420  173.1630  140.6900 C   0  0  0  0  0  1  0  0  0  0  0  0
  191.5000  174.1810  141.6760 C   0  0  0  0  0  2  0  0  0  0  0  0
  194.9390  173.2280  145.0390 C   0  0  2  0  0  3  0  0  0  0  0  0
  192.0120  173.1300  142.5410 N   0  0  0  0  0  2  0  0  0  0  0  0
  193.8340  171.9680  144.3260 S   0  0  0  0  0  0  0  0  0  0  0  0
  195.1730  174.3050  143.9740 C   0  0  1  0  0  3  0  0  0  0  0  0
  193.2580  173.2470  143.2270 C   0  0  0  0  0  0  0  0  0  0  0  0
  196.2680  173.9930  143.1640 O   0  0  0  0  0  1  0  0  0  0  0  0
  193.9740  174.3210  143.1570 N   0  0  0  0  0  0  0  0  0  0  0  0
  197.0760  173.5470  146.4480 C   0  0  0  0  0  1  0  0  0  0  0  0
  196.1810  172.6510  145.6640 C   0  0  0  0  0  0  0  0  0  0  0  0
  196.4480  171.3450  145.6210 C   0  0  0  0  0  2  0  0  0  0  0  0
  189.1700  175.7850  146.6860 C   0  0  0  0  0  3  0  0  0  0  0  0
  189.0460  174.6820  147.2810 O   0  0  0  0  0  0  0  0  0  0  0  0
  1 12  1  0  0  0  0
  2  7  1  0  0  0  0
  3  5  1  0  0  0  0
  3 13  1  0  0  0  0
  4 15  1  0  0  0  0
  4  6  1  0  0  0  0
  5  1  2  0  0  0  0
  6 14  1  0  0  0  0
  7  4  2  0  0  0  0
  8  6  2  0  0  0  0
  8 33  1  0  0  0  0
  9 18  2  0  0  0  0
 10  7  1  0  0  0  0
 10 18  1  0  0  0  0
 11 16  2  0  0  0  0
 11 10  1  0  0  0  0
 12 17  1  0  0  0  0
 13  2  2  0  0  0  0
 13 12  1  0  0  0  0
 16  9  1  0  0  0  0
 17 15  2  0  0  0  0
 18  8  1  0  0  0  0
 19  5  1  0  0  0  0
 20 22  1  0  0  0  0
 20 16  1  0  0  0  0
 21 20  1  0  0  0  0
 22 24  1  0  0  0  0
 23 31  1  6  0  0  0
 24 27  1  0  0  0  0
 25 23  1  0  0  0  0
 26 28  1  6  0  0  0
 26 23  1  0  0  0  0
 27 25  1  0  0  0  0
 29 27  2  0  0  0  0
 29 26  1  0  0  0  0
 31 30  1  0  0  0  0
 32 31  2  0  0  0  0
 33 34  2  0  0  0  0
M  END
>  <MODEL>
2

>  <REMARK>
 VINA RESULT:      -7.8      1.079      1.272
  Name = 
  5 active torsions:
  status: ('A' for Active; 'I' for Inactive)
    1  A    between atoms: N_2  and  C_5
    2  A    between atoms: N_2  and  C_28
    3  A    between atoms: C_5  and  N_8
    4  A    between atoms: C_7  and  C_14
    5  A    between atoms: C_13  and  C_15
                            x       y       z     vdW  Elec       q    Type
                         _______ _______ _______ _____ _____    ______ ____

>  <TORSDO>
F 5

$$$$
=
 OpenBabel11042416083D

 34 38  0  0  1  0  0  0  0  0999 V2000
  189.0820  171.9000  138.5530 N   0  0  0  0  0  0  0  0  0  0  0  0
  189.6120  173.7960  141.5570 C   0  0  0  0  0  3  0  0  0  0  0  0
  190.7710  171.5670  140.5490 S   0  0  0  0  0  0  0  0  0  0  0  0
  187.9340  175.6270  140.8620 C   0  0  0  0  0  0  0  0  0  0  0  0
  189.9490  171.0720  139.0310 C   0  0  0  0  0  0  0  0  0  0  0  0
  187.1880  176.7700  141.2730 C   0  0  0  0  0  0  0  0  0  0  0  0
  188.7440  174.9600  141.8220 C   0  0  0  0  0  0  0  0  0  0  0  0
  187.2360  177.2300  142.6060 C   0  0  0  0  0  0  0  0  0  0  0  0
  188.2300  176.8160  144.8000 N   0  0  0  0  0  0  0  0  0  0  0  0
  188.7530  175.4560  143.0920 N   0  0  0  0  0  0  0  0  0  0  0  0
  189.4320  175.0090  144.1660 C   0  0  0  0  0  3  0  0  0  0  0  0
  188.8910  173.0370  139.3390 N   0  0  0  0  0  0  0  0  0  0  0  0
  189.7070  173.0000  140.4990 C   0  0  0  0  0  0  0  0  0  0  0  0
  186.3280  177.5050  140.2820 C   0  0  0  0  0  1  0  0  0  0  0  0
  187.8230  175.2490  139.4380 C   0  0  0  0  0  3  0  0  0  0  0  0
  189.0950  175.8600  145.2070 C   0  0  0  0  0  0  0  0  0  0  0  0
  188.2100  174.1590  138.7860 C   0  0  0  0  0  3  0  0  0  0  0  0
  188.0490  176.5260  143.4950 C   0  0  0  0  0  0  0  0  0  0  0  0
  190.2790  169.8040  138.3290 C   0  0  0  0  0  1  0  0  0  0  0  0
  189.5910  175.7600  146.5480 N   0  0  0  0  0  0  0  0  0  0  0  0
  189.1310  174.6960  147.4240 C   0  0  0  0  0  1  0  0  0  0  0  0
  190.4870  176.7700  147.0920 C   0  0  0  0  0  2  0  0  0  0  0  0
  194.8200  176.4760  144.8150 C   0  0  2  0  0  3  0  0  0  0  0  0
  191.8270  176.2180  147.2220 N   0  0  0  0  0  2  0  0  0  0  0  0
  194.4030  175.5620  146.3340 S   0  0  0  0  0  0  0  0  0  0  0  0
  193.5290  176.6590  144.0080 C   0  0  1  0  0  3  0  0  0  0  0  0
  192.7470  176.1900  146.1310 C   0  0  0  0  0  0  0  0  0  0  0  0
  193.3120  175.5830  143.1430 O   0  0  0  0  0  1  0  0  0  0  0  0
  192.4560  176.7040  144.9820 N   0  0  0  0  0  0  0  0  0  0  0  0
  196.6470  176.7040  143.0080 C   0  0  0  0  0  1  0  0  0  0  0  0
  195.9810  175.8860  144.0600 C   0  0  0  0  0  0  0  0  0  0  0  0
  196.4930  174.6960  144.3770 C   0  0  0  0  0  2  0  0  0  0  0  0
  186.4540  178.4140  143.0240 C   0  0  0  0  0  3  0  0  0  0  0  0
  185.3260  178.3130  143.5760 O   0  0  0  0  0  0  0  0  0  0  0  0
  1  5  2  0  0  0  0
  1 12  1  0  0  0  0
  2  7  1  0  0  0  0
  4  6  1  0  0  0  0
  4  7  2  0  0  0  0
  5  3  1  0  0  0  0
  6  8  2  0  0  0  0
  7 10  1  0  0  0  0
  8 33  1  0  0  0  0
  8 18  1  0  0  0  0
  9 16  1  0  0  0  0
 10 18  1  0  0  0  0
 10 11  1  0  0  0  0
 11 16  2  0  0  0  0
 12 13  1  0  0  0  0
 13  3  1  0  0  0  0
 13  2  2  0  0  0  0
 14  6  1  0  0  0  0
 15  4  1  0  0  0  0
 16 20  1  0  0  0  0
 17 12  1  0  0  0  0
 17 15  2  0  0  0  0
 18  9  2  0  0  0  0
 19  5  1  0  0  0  0
 20 22  1  0  0  0  0
 20 21  1  0  0  0  0
 22 24  1  0  0  0  0
 23 31  1  6  0  0  0
 23 25  1  0  0  0  0
 26 28  1  6  0  0  0
 26 23  1  0  0  0  0
 26 29  1  0  0  0  0
 27 25  1  0  0  0  0
 27 24  1  0  0  0  0
 29 27  2  0  0  0  0
 30 31  1  0  0  0  0
 31 32  2  0  0  0  0
 33 34  2  0  0  0  0
M  END
>  <MODEL>
3

>  <REMARK>
 VINA RESULT:      -7.3      3.388      6.025
  Name = 
  5 active torsions:
  status: ('A' for Active; 'I' for Inactive)
    1  A    between atoms: N_2  and  C_5
    2  A    between atoms: N_2  and  C_28
    3  A    between atoms: C_5  and  N_8
    4  A    between atoms: C_7  and  C_14
    5  A    between atoms: C_13  and  C_15
                            x       y       z     vdW  Elec       q    Type
                         _______ _______ _______ _____ _____    ______ ____

>  <TORSDO>
F 5

$$$$
=
 OpenBabel11042416083D

 34 38  0  0  1  0  0  0  0  0999 V2000
  182.6700  178.7230  142.6530 N   0  0  0  0  0  0  0  0  0  0  0  0
  185.9090  177.2010  142.3580 C   0  0  0  0  0  3  0  0  0  0  0  0
  184.0300  177.9130  140.5450 S   0  0  0  0  0  0  0  0  0  0  0  0
  186.4070  177.4470  144.8760 C   0  0  0  0  0  0  0  0  0  0  0  0
  182.5670  178.5380  141.3790 C   0  0  0  0  0  0  0  0  0  0  0  0
  187.2640  177.0870  145.9570 C   0  0  0  0  0  0  0  0  0  0  0  0
  186.6650  176.8990  143.5890 C   0  0  0  0  0  0  0  0  0  0  0  0
  188.3410  176.1950  145.7650 C   0  0  0  0  0  0  0  0  0  0  0  0
  189.5070  174.8400  144.0990 N   0  0  0  0  0  0  0  0  0  0  0  0
  187.7230  176.0480  143.4680 N   0  0  0  0  0  0  0  0  0  0  0  0
  188.1680  175.4100  142.3680 C   0  0  0  0  0  3  0  0  0  0  0  0
  183.9070  178.3520  143.1820 N   0  0  0  0  0  0  0  0  0  0  0  0
  184.7640  177.8430  142.1720 C   0  0  0  0  0  0  0  0  0  0  0  0
  187.0260  177.6540  147.3290 C   0  0  0  0  0  1  0  0  0  0  0  0
  185.3250  178.4040  145.1890 C   0  0  0  0  0  3  0  0  0  0  0  0
  189.2670  174.6710  142.7790 C   0  0  0  0  0  0  0  0  0  0  0  0
  184.2620  178.7850  144.4910 C   0  0  0  0  0  3  0  0  0  0  0  0
  188.5330  175.6930  144.4780 C   0  0  0  0  0  0  0  0  0  0  0  0
  181.3200  178.8740  140.6450 C   0  0  0  0  0  1  0  0  0  0  0  0
  190.0620  173.8320  141.9310 N   0  0  0  0  0  0  0  0  0  0  0  0
  191.4570  174.1530  141.6810 C   0  0  0  0  0  1  0  0  0  0  0  0
  189.4710  172.7040  141.2280 C   0  0  0  0  0  2  0  0  0  0  0  0
  190.2940  171.1200  136.6610 C   0  0  2  0  0  3  0  0  0  0  0  0
  189.2660  173.0490  139.8300 N   0  0  0  0  0  2  0  0  0  0  0  0
  189.6100  172.7600  137.0630 S   0  0  0  0  0  0  0  0  0  0  0  0
  191.2250  170.7060  137.8070 C   0  0  1  0  0  3  0  0  0  0  0  0
  189.9240  172.3550  138.7710 C   0  0  0  0  0  0  0  0  0  0  0  0
  192.5300  171.1560  137.5920 O   0  0  0  0  0  1  0  0  0  0  0  0
  190.6970  171.3440  138.9970 N   0  0  0  0  0  0  0  0  0  0  0  0
  191.1930  169.7020  134.7030 C   0  0  0  0  0  1  0  0  0  0  0  0
  190.8870  171.0410  135.2800 C   0  0  0  0  0  0  0  0  0  0  0  0
  191.0490  172.1260  134.5210 C   0  0  0  0  0  2  0  0  0  0  0  0
  189.2210  175.8230  146.8950 C   0  0  0  0  0  3  0  0  0  0  0  0
  189.0750  174.7470  147.5340 O   0  0  0  0  0  0  0  0  0  0  0  0
  1 12  1  0  0  0  0
  2  7  1  0  0  0  0
  3  5  1  0  0  0  0
  3 13  1  0  0  0  0
  4 15  1  0  0  0  0
  4  6  1  0  0  0  0
  5  1  2  0  0  0  0
  6 14  1  0  0  0  0
  7  4  2  0  0  0  0
  8  6  2  0  0  0  0
  8 33  1  0  0  0  0
  9 18  2  0  0  0  0
 10  7  1  0  0  0  0
 10 18  1  0  0  0  0
 11 16  2  0  0  0  0
 11 10  1  0  0  0  0
 12 17  1  0  0  0  0
 13  2  2  0  0  0  0
 13 12  1  0  0  0  0
 16  9  1  0  0  0  0
 17 15  2  0  0  0  0
 18  8  1  0  0  0  0
 19  5  1  0  0  0  0
 20 16  1  0  0  0  0
 21 20  1  0  0  0  0
 22 20  1  0  0  0  0
 23 31  1  6  0  0  0
 23 25  1  0  0  0  0
 23 26  1  0  0  0  0
 24 22  1  0  0  0  0
 25 27  1  0  0  0  0
 26 28  1  6  0  0  0
 26 29  1  0  0  0  0
 27 29  2  0  0  0  0
 27 24  1  0  0  0  0
 30 31  1  0  0  0  0
 32 31  2  0  0  0  0
 33 34  2  0  0  0  0
M  END
>  <MODEL>
4

>  <REMARK>
 VINA RESULT:      -7.2      3.124      4.919
  Name = 
  5 active torsions:
  status: ('A' for Active; 'I' for Inactive)
    1  A    between atoms: N_2  and  C_5
    2  A    between atoms: N_2  and  C_28
    3  A    between atoms: C_5  and  N_8
    4  A    between atoms: C_7  and  C_14
    5  A    between atoms: C_13  and  C_15
                            x       y       z     vdW  Elec       q    Type
                         _______ _______ _______ _____ _____    ______ ____

>  <TORSDO>
F 5

$$$$
=
 OpenBabel11042416083D

 34 38  0  0  1  0  0  0  0  0999 V2000
  183.2070  178.2960  142.6260 N   0  0  0  0  0  0  0  0  0  0  0  0
  186.6820  177.4020  142.4580 C   0  0  0  0  0  3  0  0  0  0  0  0
  184.8860  178.1990  140.5960 S   0  0  0  0  0  0  0  0  0  0  0  0
  186.8840  177.1540  145.0170 C   0  0  0  0  0  0  0  0  0  0  0  0
  183.2620  178.3860  141.3400 C   0  0  0  0  0  0  0  0  0  0  0  0
  187.6850  176.7000  146.1050 C   0  0  0  0  0  0  0  0  0  0  0  0
  187.3580  176.9540  143.6910 C   0  0  0  0  0  0  0  0  0  0  0  0
  188.9190  176.0520  145.8800 C   0  0  0  0  0  0  0  0  0  0  0  0
  190.4640  175.3020  144.1420 N   0  0  0  0  0  0  0  0  0  0  0  0
  188.5600  176.3280  143.5400 N   0  0  0  0  0  0  0  0  0  0  0  0
  189.2150  176.0280  142.4020 C   0  0  0  0  0  3  0  0  0  0  0  0
  184.4350  178.0130  143.2270 N   0  0  0  0  0  0  0  0  0  0  0  0
  185.4620  177.8830  142.2570 C   0  0  0  0  0  0  0  0  0  0  0  0
  187.2190  176.9020  147.5210 C   0  0  0  0  0  1  0  0  0  0  0  0
  185.6220  177.8360  145.3720 C   0  0  0  0  0  3  0  0  0  0  0  0
  190.3850  175.3970  142.7950 C   0  0  0  0  0  0  0  0  0  0  0  0
  184.5790  178.1930  144.6320 C   0  0  0  0  0  3  0  0  0  0  0  0
  189.3200  175.8870  144.5540 C   0  0  0  0  0  0  0  0  0  0  0  0
  182.0500  178.6790  140.5310 C   0  0  0  0  0  1  0  0  0  0  0  0
  191.3960  174.9030  141.9070 N   0  0  0  0  0  0  0  0  0  0  0  0
  191.0840  173.8560  140.9490 C   0  0  0  0  0  1  0  0  0  0  0  0
  192.7720  175.3660  142.0070 C   0  0  0  0  0  2  0  0  0  0  0  0
  195.0610  171.8760  144.5800 C   0  0  2  0  0  3  0  0  0  0  0  0
  193.6810  174.2390  141.8730 N   0  0  0  0  0  2  0  0  0  0  0  0
  195.3580  172.1990  142.8120 S   0  0  0  0  0  0  0  0  0  0  0  0
  194.6770  173.2040  145.2430 C   0  0  1  0  0  3  0  0  0  0  0  0
  194.2930  173.6170  143.0020 C   0  0  0  0  0  0  0  0  0  0  0  0
  195.8060  173.8930  145.6950 O   0  0  0  0  0  1  0  0  0  0  0  0
  194.0290  173.9890  144.2100 N   0  0  0  0  0  0  0  0  0  0  0  0
  197.5730  171.3300  144.7800 C   0  0  0  0  0  1  0  0  0  0  0  0
  196.1750  171.1140  145.2450 C   0  0  0  0  0  0  0  0  0  0  0  0
  195.9590  170.3340  146.3050 C   0  0  0  0  0  2  0  0  0  0  0  0
  189.7400  175.5790  147.0160 C   0  0  0  0  0  3  0  0  0  0  0  0
  189.4450  174.5450  147.6730 O   0  0  0  0  0  0  0  0  0  0  0  0
  1 12  1  0  0  0  0
  2  7  1  0  0  0  0
  3  5  1  0  0  0  0
  3 13  1  0  0  0  0
  4 15  1  0  0  0  0
  4  6  1  0  0  0  0
  5  1  2  0  0  0  0
  6 14  1  0  0  0  0
  7  4  2  0  0  0  0
  8  6  2  0  0  0  0
  8 33  1  0  0  0  0
  9 18  2  0  0  0  0
 10  7  1  0  0  0  0
 10 18  1  0  0  0  0
 11 16  2  0  0  0  0
 11 10  1  0  0  0  0
 12 17  1  0  0  0  0
 13  2  2  0  0  0  0
 13 12  1  0  0  0  0
 16  9  1  0  0  0  0
 17 15  2  0  0  0  0
 18  8  1  0  0  0  0
 19  5  1  0  0  0  0
 20 22  1  0  0  0  0
 20 16  1  0  0  0  0
 21 20  1  0  0  0  0
 23 26  1  0  0  0  0
 23 31  1  1  0  0  0
 24 22  1  0  0  0  0
 24 27  1  0  0  0  0
 25 27  1  0  0  0  0
 25 23  1  0  0  0  0
 26 28  1  6  0  0  0
 27 29  2  0  0  0  0
 29 26  1  0  0  0  0
 30 31  1  0  0  0  0
 31 32  2  0  0  0  0
 33 34  2  0  0  0  0
M  END
>  <MODEL>
5

>  <REMARK>
 VINA RESULT:      -7.2      1.531      1.781
  Name = 
  5 active torsions:
  status: ('A' for Active; 'I' for Inactive)
    1  A    between atoms: N_2  and  C_5
    2  A    between atoms: N_2  and  C_28
    3  A    between atoms: C_5  and  N_8
    4  A    between atoms: C_7  and  C_14
    5  A    between atoms: C_13  and  C_15
                            x       y       z     vdW  Elec       q    Type
                         _______ _______ _______ _____ _____    ______ ____

>  <TORSDO>
F 5

$$$$
=
 OpenBabel11042416083D

 34 38  0  0  1  0  0  0  0  0999 V2000
  191.3000  173.5690  138.0320 N   0  0  0  0  0  0  0  0  0  0  0  0
  191.3460  173.8030  141.6160 C   0  0  0  0  0  3  0  0  0  0  0  0
  189.6440  172.6410  139.8610 S   0  0  0  0  0  0  0  0  0  0  0  0
  193.6490  174.9650  141.6470 C   0  0  0  0  0  0  0  0  0  0  0  0
  190.1530  172.9930  138.1760 C   0  0  0  0  0  0  0  0  0  0  0  0
  194.6110  175.6710  142.4270 C   0  0  0  0  0  0  0  0  0  0  0  0
  192.4260  174.5760  142.2610 C   0  0  0  0  0  0  0  0  0  0  0  0
  194.3570  175.9930  143.7780 C   0  0  0  0  0  0  0  0  0  0  0  0
  192.7180  175.7920  145.5800 N   0  0  0  0  0  0  0  0  0  0  0  0
  192.2430  174.9120  143.5690 N   0  0  0  0  0  0  0  0  0  0  0  0
  191.1850  174.6590  144.3640 C   0  0  0  0  0  3  0  0  0  0  0  0
  191.9370  173.8700  139.2370 N   0  0  0  0  0  0  0  0  0  0  0  0
  191.1500  173.4700  140.3470 C   0  0  0  0  0  0  0  0  0  0  0  0
  195.9180  176.0900  141.8150 C   0  0  0  0  0  1  0  0  0  0  0  0
  194.0300  174.6640  140.2520 C   0  0  0  0  0  3  0  0  0  0  0  0
  191.4980  175.2090  145.5970 C   0  0  0  0  0  0  0  0  0  0  0  0
  193.3190  174.2140  139.2250 C   0  0  0  0  0  3  0  0  0  0  0  0
  193.1360  175.5840  144.3140 C   0  0  0  0  0  0  0  0  0  0  0  0
  189.3310  172.6020  137.0020 C   0  0  0  0  0  1  0  0  0  0  0  0
  190.6540  175.1740  146.7550 N   0  0  0  0  0  0  0  0  0  0  0  0
  191.1590  175.6130  148.0450 C   0  0  0  0  0  1  0  0  0  0  0  0
  189.3140  174.6110  146.6870 C   0  0  0  0  0  2  0  0  0  0  0  0
  185.8870  177.3450  144.4920 C   0  0  2  0  0  3  0  0  0  0  0  0
  188.3310  175.6530  146.9380 N   0  0  0  0  0  2  0  0  0  0  0  0
  186.4310  177.5820  146.2140 S   0  0  0  0  0  0  0  0  0  0  0  0
  187.0790  176.8050  143.6930 C   0  0  1  0  0  3  0  0  0  0  0  0
  187.6750  176.3500  145.8790 C   0  0  0  0  0  0  0  0  0  0  0  0
  187.8520  177.8430  143.1660 O   0  0  0  0  0  1  0  0  0  0  0  0
  187.8820  176.0530  144.6390 N   0  0  0  0  0  0  0  0  0  0  0  0
  184.1620  178.3570  142.8630 C   0  0  0  0  0  1  0  0  0  0  0  0
  185.2060  178.5530  143.9070 C   0  0  0  0  0  0  0  0  0  0  0  0
  185.4370  179.7830  144.3690 C   0  0  0  0  0  2  0  0  0  0  0  0
  195.3590  176.7320  144.5770 C   0  0  0  0  0  3  0  0  0  0  0  0
  195.0400  177.6680  145.3570 O   0  0  0  0  0  0  0  0  0  0  0  0
  1  5  2  0  0  0  0
  1 12  1  0  0  0  0
  2  7  1  0  0  0  0
  3 13  1  0  0  0  0
  4  7  2  0  0  0  0
  4  6  1  0  0  0  0
  5  3  1  0  0  0  0
  6  8  2  0  0  0  0
  7 10  1  0  0  0  0
  8 18  1  0  0  0  0
  8 33  1  0  0  0  0
  9 16  1  0  0  0  0
 10 18  1  0  0  0  0
 10 11  1  0  0  0  0
 11 16  2  0  0  0  0
 12 13  1  0  0  0  0
 13  2  2  0  0  0  0
 14  6  1  0  0  0  0
 15  4  1  0  0  0  0
 16 20  1  0  0  0  0
 17 12  1  0  0  0  0
 17 15  2  0  0  0  0
 18  9  2  0  0  0  0
 19  5  1  0  0  0  0
 20 21  1  0  0  0  0
 22 20  1  0  0  0  0
 22 24  1  0  0  0  0
 23 31  1  6  0  0  0
 23 25  1  0  0  0  0
 26 28  1  1  0  0  0
 26 23  1  0  0  0  0
 26 29  1  0  0  0  0
 27 25  1  0  0  0  0
 27 24  1  0  0  0  0
 29 27  2  0  0  0  0
 30 31  1  0  0  0  0
 31 32  2  0  0  0  0
 33 34  2  0  0  0  0
M  END
>  <MODEL>
6

>  <REMARK>
 VINA RESULT:      -7.0      2.972      8.452
  Name = 
  5 active torsions:
  status: ('A' for Active; 'I' for Inactive)
    1  A    between atoms: N_2  and  C_5
    2  A    between atoms: N_2  and  C_28
    3  A    between atoms: C_5  and  N_8
    4  A    between atoms: C_7  and  C_14
    5  A    between atoms: C_13  and  C_15
                            x       y       z     vdW  Elec       q    Type
                         _______ _______ _______ _____ _____    ______ ____

>  <TORSDO>
F 5

$$$$
=
 OpenBabel11042416083D

 34 38  0  0  1  0  0  0  0  0999 V2000
  183.7840  178.2910  142.6320 N   0  0  0  0  0  0  0  0  0  0  0  0
  187.3030  177.5770  142.5830 C   0  0  0  0  0  3  0  0  0  0  0  0
  185.4660  177.9560  140.6320 S   0  0  0  0  0  0  0  0  0  0  0  0
  187.5170  177.7640  145.1460 C   0  0  0  0  0  0  0  0  0  0  0  0
  183.8340  178.1710  141.3480 C   0  0  0  0  0  0  0  0  0  0  0  0
  188.3410  177.5400  146.2880 C   0  0  0  0  0  0  0  0  0  0  0  0
  188.0030  177.3760  143.8680 C   0  0  0  0  0  0  0  0  0  0  0  0
  189.6100  176.9340  146.1610 C   0  0  0  0  0  0  0  0  0  0  0  0
  191.1970  175.9970  144.5570 N   0  0  0  0  0  0  0  0  0  0  0  0
  189.2380  176.8010  143.8110 N   0  0  0  0  0  0  0  0  0  0  0  0
  189.9110  176.3560  142.7320 C   0  0  0  0  0  3  0  0  0  0  0  0
  185.0250  178.1800  143.2610 N   0  0  0  0  0  0  0  0  0  0  0  0
  186.0580  177.9500  142.3170 C   0  0  0  0  0  0  0  0  0  0  0  0
  187.8640  177.9460  147.6550 C   0  0  0  0  0  1  0  0  0  0  0  0
  186.2180  178.4240  145.3960 C   0  0  0  0  0  3  0  0  0  0  0  0
  191.1140  175.8640  143.2140 C   0  0  0  0  0  0  0  0  0  0  0  0
  185.1570  178.5960  144.6160 C   0  0  0  0  0  3  0  0  0  0  0  0
  190.0220  176.5760  144.8770 C   0  0  0  0  0  0  0  0  0  0  0  0
  182.6080  178.2590  140.5130 C   0  0  0  0  0  1  0  0  0  0  0  0
  192.1520  175.2890  142.4090 N   0  0  0  0  0  0  0  0  0  0  0  0
  193.3940  176.0090  142.1890 C   0  0  0  0  0  1  0  0  0  0  0  0
  191.9490  174.0240  141.7200 C   0  0  0  0  0  2  0  0  0  0  0  0
  190.5800  172.6970  137.2030 C   0  0  2  0  0  3  0  0  0  0  0  0
  192.3010  174.1670  140.3160 N   0  0  0  0  0  2  0  0  0  0  0  0
  192.1190  173.5950  137.5780 S   0  0  0  0  0  0  0  0  0  0  0  0
  190.2490  171.8080  138.4070 C   0  0  1  0  0  3  0  0  0  0  0  0
  191.7130  173.3590  139.2980 C   0  0  0  0  0  0  0  0  0  0  0  0
  190.8520  170.5530  138.2960 O   0  0  0  0  0  1  0  0  0  0  0  0
  190.7940  172.4910  139.5650 N   0  0  0  0  0  0  0  0  0  0  0  0
  189.3160  171.5420  135.2740 C   0  0  0  0  0  1  0  0  0  0  0  0
  190.6020  172.0020  135.8680 C   0  0  0  0  0  0  0  0  0  0  0  0
  191.7240  171.8790  135.1580 C   0  0  0  0  0  2  0  0  0  0  0  0
  190.4560  176.7010  147.3530 C   0  0  0  0  0  3  0  0  0  0  0  0
  190.5950  175.5580  147.8640 O   0  0  0  0  0  0  0  0  0  0  0  0
  1 12  1  0  0  0  0
  2  7  1  0  0  0  0
  3  5  1  0  0  0  0
  3 13  1  0  0  0  0
  4 15  1  0  0  0  0
  4  6  1  0  0  0  0
  5  1  2  0  0  0  0
  6 14  1  0  0  0  0
  7  4  2  0  0  0  0
  8  6  2  0  0  0  0
  8 33  1  0  0  0  0
  9 18  2  0  0  0  0
 10  7  1  0  0  0  0
 10 18  1  0  0  0  0
 11 16  2  0  0  0  0
 11 10  1  0  0  0  0
 12 17  1  0  0  0  0
 13  2  2  0  0  0  0
 13 12  1  0  0  0  0
 16  9  1  0  0  0  0
 17 15  2  0  0  0  0
 18  8  1  0  0  0  0
 19  5  1  0  0  0  0
 20 16  1  0  0  0  0
 21 20  1  0  0  0  0
 22 20  1  0  0  0  0
 23 31  1  6  0  0  0
 23 25  1  0  0  0  0
 23 26  1  0  0  0  0
 24 22  1  0  0  0  0
 25 27  1  0  0  0  0
 26 28  1  6  0  0  0
 26 29  1  0  0  0  0
 27 29  2  0  0  0  0
 27 24  1  0  0  0  0
 30 31  1  0  0  0  0
 32 31  2  0  0  0  0
 33 34  2  0  0  0  0
M  END
>  <MODEL>
7

>  <REMARK>
 VINA RESULT:      -7.0      2.987      4.859
  Name = 
  5 active torsions:
  status: ('A' for Active; 'I' for Inactive)
    1  A    between atoms: N_2  and  C_5
    2  A    between atoms: N_2  and  C_28
    3  A    between atoms: C_5  and  N_8
    4  A    between atoms: C_7  and  C_14
    5  A    between atoms: C_13  and  C_15
                            x       y       z     vdW  Elec       q    Type
                         _______ _______ _______ _____ _____    ______ ____

>  <TORSDO>
F 5

$$$$
=
 OpenBabel11042416083D

 34 38  0  0  1  0  0  0  0  0999 V2000
  183.3430  178.2030  142.4940 N   0  0  0  0  0  0  0  0  0  0  0  0
  186.9030  177.7290  142.5240 C   0  0  0  0  0  3  0  0  0  0  0  0
  185.0930  178.0170  140.5320 S   0  0  0  0  0  0  0  0  0  0  0  0
  187.0410  177.8860  145.0940 C   0  0  0  0  0  0  0  0  0  0  0  0
  183.4330  178.1090  141.2100 C   0  0  0  0  0  0  0  0  0  0  0  0
  187.8510  177.6980  146.2520 C   0  0  0  0  0  0  0  0  0  0  0  0
  187.5830  177.5540  143.8220 C   0  0  0  0  0  0  0  0  0  0  0  0
  189.1610  177.1820  146.1490 C   0  0  0  0  0  0  0  0  0  0  0  0
  190.8460  176.3820  144.5700 N   0  0  0  0  0  0  0  0  0  0  0  0
  188.8560  177.0650  143.7880 N   0  0  0  0  0  0  0  0  0  0  0  0
  189.5830  176.6850  142.7190 C   0  0  0  0  0  3  0  0  0  0  0  0
  184.5730  178.1650  143.1530 N   0  0  0  0  0  0  0  0  0  0  0  0
  185.6420  178.0210  142.2310 C   0  0  0  0  0  0  0  0  0  0  0  0
  187.3140  178.0470  147.6130 C   0  0  0  0  0  1  0  0  0  0  0  0
  185.6950  178.4520  145.3210 C   0  0  0  0  0  3  0  0  0  0  0  0
  190.8050  176.2670  143.2230 C   0  0  0  0  0  0  0  0  0  0  0  0
  184.6440  178.5650  144.5170 C   0  0  0  0  0  3  0  0  0  0  0  0
  189.6270  176.8750  144.8700 C   0  0  0  0  0  0  0  0  0  0  0  0
  182.2240  178.1290  140.3460 C   0  0  0  0  0  1  0  0  0  0  0  0
  191.8990  175.7770  142.4370 N   0  0  0  0  0  0  0  0  0  0  0  0
  193.1680  176.4830  142.4250 C   0  0  0  0  0  1  0  0  0  0  0  0
  191.7350  174.6250  141.5640 C   0  0  0  0  0  2  0  0  0  0  0  0
  193.5780  171.2840  144.6420 C   0  0  2  0  0  3  0  0  0  0  0  0
  191.3760  173.4580  142.3530 N   0  0  0  0  0  2  0  0  0  0  0  0
  191.8890  171.2230  143.9660 S   0  0  0  0  0  0  0  0  0  0  0  0
  194.4780  171.9600  143.6010 C   0  0  1  0  0  3  0  0  0  0  0  0
  192.3580  172.6140  142.9540 C   0  0  0  0  0  0  0  0  0  0  0  0
  195.0120  171.0290  142.7070 O   0  0  0  0  0  1  0  0  0  0  0  0
  193.6200  172.8750  142.8720 N   0  0  0  0  0  0  0  0  0  0  0  0
  193.3320  168.7190  144.7710 C   0  0  0  0  0  1  0  0  0  0  0  0
  194.0660  169.9560  145.1580 C   0  0  0  0  0  0  0  0  0  0  0  0
  195.1920  169.8470  145.8650 C   0  0  0  0  0  2  0  0  0  0  0  0
  189.9910  176.9850  147.3570 C   0  0  0  0  0  3  0  0  0  0  0  0
  190.7060  175.9620  147.5220 O   0  0  0  0  0  0  0  0  0  0  0  0
  1 12  1  0  0  0  0
  2  7  1  0  0  0  0
  3  5  1  0  0  0  0
  3 13  1  0  0  0  0
  4 15  1  0  0  0  0
  4  6  1  0  0  0  0
  5  1  2  0  0  0  0
  6 14  1  0  0  0  0
  7  4  2  0  0  0  0
  8  6  2  0  0  0  0
  8 33  1  0  0  0  0
  9 18  2  0  0  0  0
 10  7  1  0  0  0  0
 10 18  1  0  0  0  0
 11 16  2  0  0  0  0
 11 10  1  0  0  0  0
 12 17  1  0  0  0  0
 13  2  2  0  0  0  0
 13 12  1  0  0  0  0
 16  9  1  0  0  0  0
 17 15  2  0  0  0  0
 18  8  1  0  0  0  0
 19  5  1  0  0  0  0
 20 16  1  0  0  0  0
 21 20  1  0  0  0  0
 22 24  1  0  0  0  0
 22 20  1  0  0  0  0
 23 31  1  6  0  0  0
 24 27  1  0  0  0  0
 25 23  1  0  0  0  0
 26 28  1  6  0  0  0
 26 23  1  0  0  0  0
 27 25  1  0  0  0  0
 29 27  2  0  0  0  0
 29 26  1  0  0  0  0
 30 31  1  0  0  0  0
 31 32  2  0  0  0  0
 33 34  2  0  0  0  0
M  END
>  <MODEL>
8

>  <REMARK>
 VINA RESULT:      -7.0      2.261      2.653
  Name = 
  5 active torsions:
  status: ('A' for Active; 'I' for Inactive)
    1  A    between atoms: N_2  and  C_5
    2  A    between atoms: N_2  and  C_28
    3  A    between atoms: C_5  and  N_8
    4  A    between atoms: C_7  and  C_14
    5  A    between atoms: C_13  and  C_15
                            x       y       z     vdW  Elec       q    Type
                         _______ _______ _______ _____ _____    ______ ____

>  <TORSDO>
F 5

$$$$
=
 OpenBabel11042416083D

 34 38  0  0  1  0  0  0  0  0999 V2000
  185.9100  179.1770  146.4190 N   0  0  0  0  0  0  0  0  0  0  0  0
  187.0170  176.5490  144.2360 C   0  0  0  0  0  3  0  0  0  0  0  0
  187.0990  176.8790  146.9220 S   0  0  0  0  0  0  0  0  0  0  0  0
  186.0050  177.6710  142.1460 C   0  0  0  0  0  0  0  0  0  0  0  0
  186.4600  178.4960  147.3680 C   0  0  0  0  0  0  0  0  0  0  0  0
  185.9290  177.6790  140.7230 C   0  0  0  0  0  0  0  0  0  0  0  0
  186.8560  176.7250  142.7790 C   0  0  0  0  0  0  0  0  0  0  0  0
  186.6910  176.7760  139.9490 C   0  0  0  0  0  0  0  0  0  0  0  0
  188.2980  174.9400  140.0740 N   0  0  0  0  0  0  0  0  0  0  0  0
  187.5610  175.8760  141.9770 N   0  0  0  0  0  0  0  0  0  0  0  0
  188.4210  174.9020  142.3320 C   0  0  0  0  0  3  0  0  0  0  0  0
  185.9510  178.5490  145.1740 N   0  0  0  0  0  0  0  0  0  0  0  0
  186.6090  177.2940  145.2550 C   0  0  0  0  0  0  0  0  0  0  0  0
  185.0330  178.6600  140.0200 C   0  0  0  0  0  1  0  0  0  0  0  0
  185.1490  178.6470  142.8530 C   0  0  0  0  0  3  0  0  0  0  0  0
  188.8640  174.3380  141.1450 C   0  0  0  0  0  0  0  0  0  0  0  0
  185.1220  179.0340  144.1230 C   0  0  0  0  0  3  0  0  0  0  0  0
  187.5070  175.8770  140.6360 C   0  0  0  0  0  0  0  0  0  0  0  0
  186.5110  179.0100  148.7620 C   0  0  0  0  0  1  0  0  0  0  0  0
  189.7970  173.2550  141.0430 N   0  0  0  0  0  0  0  0  0  0  0  0
  190.1440  172.7050  139.7440 C   0  0  0  0  0  1  0  0  0  0  0  0
  190.3410  172.6220  142.2350 C   0  0  0  0  0  2  0  0  0  0  0  0
  193.3790  175.2810  145.0160 C   0  0  2  0  0  3  0  0  0  0  0  0
  191.7380  172.9910  142.3930 N   0  0  0  0  0  2  0  0  0  0  0  0
  193.8780  174.4390  143.4810 S   0  0  0  0  0  0  0  0  0  0  0  0
  191.9050  175.6800  144.8760 C   0  0  1  0  0  3  0  0  0  0  0  0
  192.1530  174.0450  143.2610 C   0  0  0  0  0  0  0  0  0  0  0  0
  191.7720  176.9440  144.2960 O   0  0  0  0  0  1  0  0  0  0  0  0
  191.3100  174.6930  143.9960 N   0  0  0  0  0  0  0  0  0  0  0  0
  194.1930  176.9670  146.7910 C   0  0  0  0  0  1  0  0  0  0  0  0
  194.3160  176.3860  145.4250 C   0  0  0  0  0  0  0  0  0  0  0  0
  195.3160  176.7870  144.6390 C   0  0  0  0  0  2  0  0  0  0  0  0
  186.6100  176.7960  138.4720 C   0  0  0  0  0  3  0  0  0  0  0  0
  185.7500  176.1280  137.8370 O   0  0  0  0  0  0  0  0  0  0  0  0
  1  5  2  0  0  0  0
  2 13  2  0  0  0  0
  3  5  1  0  0  0  0
  4  7  2  0  0  0  0
  4 15  1  0  0  0  0
  5 19  1  0  0  0  0
  6  4  1  0  0  0  0
  7  2  1  0  0  0  0
  8 18  1  0  0  0  0
  8  6  2  0  0  0  0
  9 18  2  0  0  0  0
  9 16  1  0  0  0  0
 10 11  1  0  0  0  0
 10  7  1  0  0  0  0
 12 13  1  0  0  0  0
 12  1  1  0  0  0  0
 13  3  1  0  0  0  0
 14  6  1  0  0  0  0
 15 17  2  0  0  0  0
 16 11  2  0  0  0  0
 17 12  1  0  0  0  0
 18 10  1  0  0  0  0
 20 16  1  0  0  0  0
 20 22  1  0  0  0  0
 21 20  1  0  0  0  0
 22 24  1  0  0  0  0
 23 31  1  6  0  0  0
 24 27  1  0  0  0  0
 25 23  1  0  0  0  0
 26 28  1  6  0  0  0
 26 23  1  0  0  0  0
 27 25  1  0  0  0  0
 27 29  2  0  0  0  0
 29 26  1  0  0  0  0
 31 30  1  0  0  0  0
 32 31  2  0  0  0  0
 33  8  1  0  0  0  0
 34 33  2  0  0  0  0
M  END
>  <MODEL>
9

>  <REMARK>
 VINA RESULT:      -6.8      2.917      4.414
  Name = 
  5 active torsions:
  status: ('A' for Active; 'I' for Inactive)
    1  A    between atoms: N_2  and  C_5
    2  A    between atoms: N_2  and  C_28
    3  A    between atoms: C_5  and  N_8
    4  A    between atoms: C_7  and  C_14
    5  A    between atoms: C_13  and  C_15
                            x       y       z     vdW  Elec       q    Type
                         _______ _______ _______ _____ _____    ______ ____

>  <TORSDO>
F 5

$$$$
