=
 OpenBabel11042419043D

 43 46  0  0  1  0  0  0  0  0999 V2000
  191.2910  173.6900  142.2850 C   0  0  1  0  0  3  0  0  0  0  0  0
  190.5690  174.3960  143.3900 C   0  0  0  0  0  0  0  0  0  0  0  0
  189.5340  174.9540  145.3040 C   0  0  0  0  0  0  0  0  0  0  0  0
  190.0750  173.7370  144.6290 C   0  0  0  0  0  2  0  0  0  0  0  0
  190.3560  175.6700  143.4030 N   0  0  0  0  0  0  0  0  0  0  0  0
  189.7180  176.0160  144.5950 N   0  0  0  0  0  0  0  0  0  0  0  0
  188.9770  174.9980  146.6870 C   0  0  1  0  0  3  0  0  0  0  0  0
  190.0550  175.0490  147.6600 N   0  0  0  0  0  1  0  0  0  0  0  0
  188.1140  176.1730  146.8420 C   0  0  0  0  0  0  0  0  0  0  0  0
  187.4020  177.1390  146.9610 C   0  0  0  0  0  0  0  0  0  0  0  0
  186.5360  178.3120  147.1020 C   0  0  0  0  0  2  0  0  0  0  0  0
  184.7940  178.3580  143.9220 N   0  0  0  0  0  0  0  0  0  0  0  0
  185.9390  178.2210  144.6160 C   0  0  0  0  0  3  0  0  0  0  0  0
  184.6620  178.2470  142.5030 C   0  0  0  0  0  0  0  0  0  0  0  0
  184.2480  178.6390  145.9990 C   0  0  0  0  0  3  0  0  0  0  0  0
  185.1890  177.9520  140.4050 N   0  0  0  0  0  0  0  0  0  0  0  0
  183.9160  178.1750  140.3730 C   0  0  0  0  0  3  0  0  0  0  0  0
  183.3870  178.4010  141.7530 C   0  0  0  0  0  2  0  0  0  0  0  0
  185.6550  177.9960  141.7200 N   0  0  0  0  0  0  0  0  0  0  0  0
  183.7800  178.6060  144.7370 N   0  0  0  0  0  0  0  0  0  0  0  0
  185.6090  178.4080  145.9410 C   0  0  0  0  0  0  0  0  0  0  0  0
  190.5310  171.6570  141.3290 C   0  0  0  0  0  2  0  0  0  0  0  0
  190.9400  173.1440  140.0030 C   0  0  0  0  0  2  0  0  0  0  0  0
  190.3410  173.1060  141.3350 N   0  0  0  0  0  0  0  0  0  0  0  0
  191.1420  171.6490  139.9490 C   0  0  0  0  0  2  0  0  0  0  0  0
  192.1620  174.6410  141.6090 N   0  0  0  0  0  2  0  0  0  0  0  0
  193.4130  174.6620  142.3510 C   0  0  0  0  0  2  0  0  0  0  0  0
  193.7820  173.2690  142.8510 C   0  0  1  0  0  3  0  0  0  0  0  0
  194.7540  172.5450  141.9090 C   0  0  0  0  0  2  0  0  0  0  0  0
  197.0500  173.5710  141.6350 C   0  0  0  0  0  0  0  0  0  0  0  0
  197.5330  172.8190  142.5230 O   0  0  0  0  0  0  0  0  0  0  0  0
  195.6660  173.4960  141.2890 N   0  0  0  0  0  2  0  0  0  0  0  0
  197.9370  174.5260  140.9180 C   0  0  0  0  0  2  0  0  0  0  0  0
  197.3980  175.4270  138.6770 C   0  0  0  0  0  1  0  0  0  0  0  0
  197.0980  175.5340  140.1580 C   0  0  0  0  0  2  0  0  0  0  0  0
  194.2270  173.3130  144.2520 N   0  0  0  0  0  0  0  0  0  0  0  0
  194.1940  171.4560  145.4160 C   0  0  0  0  0  1  0  0  0  0  0  0
  193.4140  172.5520  145.0370 O   0  0  0  0  0  0  0  0  0  0  0  0
  194.2170  174.7110  144.7110 C   0  0  0  0  0  3  0  0  0  0  0  0
  193.2970  174.9410  145.9100 C   0  0  0  0  0  2  0  0  0  0  0  0
  193.4330  176.2510  146.3720 O   0  0  0  0  0  1  0  0  0  0  0  0
  196.2030  174.3310  145.9820 O   0  0  0  0  0  1  0  0  0  0  0  0
  195.6310  175.1740  145.0300 C   0  0  0  0  0  2  0  0  0  0  0  0
  1 26  1  6  0  0  0
  1  2  1  0  0  0  0
  2  5  2  0  0  0  0
  2  4  1  0  0  0  0
  3  7  1  0  0  0  0
  4  3  1  0  0  0  0
  5  6  1  0  0  0  0
  6  3  2  0  0  0  0
  7  9  1  0  0  0  0
  7  8  1  1  0  0  0
  9 10  3  0  0  0  0
 10 11  1  0  0  0  0
 12 13  1  0  0  0  0
 12 20  1  0  0  0  0
 13 21  2  0  0  0  0
 14 12  1  0  0  0  0
 16 19  1  0  0  0  0
 17 16  2  0  0  0  0
 17 18  1  0  0  0  0
 18 14  1  0  0  0  0
 19 14  2  0  0  0  0
 20 15  2  0  0  0  0
 21 15  1  0  0  0  0
 21 11  1  0  0  0  0
 22 24  1  0  0  0  0
 23 24  1  0  0  0  0
 24  1  1  0  0  0  0
 25 23  1  0  0  0  0
 25 22  1  0  0  0  0
 26 27  1  0  0  0  0
 27 28  1  0  0  0  0
 28 29  1  6  0  0  0
 28 36  1  0  0  0  0
 30 31  2  0  0  0  0
 32 30  1  0  0  0  0
 32 29  1  0  0  0  0
 33 30  1  0  0  0  0
 34 35  1  0  0  0  0
 35 33  1  0  0  0  0
 36 39  1  0  0  0  0
 36 38  1  0  0  0  0
 38 37  1  0  0  0  0
 39 43  1  0  0  0  0
 39 40  1  0  0  0  0
 40 41  1  0  0  0  0
 43 42  1  0  0  0  0
M  END
>  <MODEL>
1

>  <REMARK>
 VINA RESULT:      -5.9      0.000      0.000
  Name = 
  18 active torsions:
  status: ('A' for Active; 'I' for Inactive)
    1  A    between atoms: C_3  and  C_9
    2  A    between atoms: C_3  and  C_22
    3  A    between atoms: C_5  and  C_42
    4  A    between atoms: C_8  and  C_35
    5  A    between atoms: C_12  and  N_24
    6  A    between atoms: C_12  and  C_27
    7  A    between atoms: C_13  and  C_39
    8  A    between atoms: C_14  and  C_21
    9  A    between atoms: C_14  and  C_41
   10  A    between atoms: C_15  and  C_42
   11  A    between atoms: C_18  and  C_39
   12  A    between atoms: N_23  and  C_35
   13  A    between atoms: N_24  and  C_35
   14  A    between atoms: C_27  and  N_28
   15  A    between atoms: C_27  and  C_43
   16  A    between atoms: N_28  and  O_37
   17  A    between atoms: N_28  and  C_42
   18  A    between atoms: N_32  and  C_43
                            x       y       z     vdW  Elec       q    Type
                         _______ _______ _______ _____ _____    ______ ____

>  <TORSDO>
F 18

$$$$
=
 OpenBabel11042419043D

 43 46  0  0  1  0  0  0  0  0999 V2000
  195.3160  171.4490  144.2800 C   0  0  1  0  0  3  0  0  0  0  0  0
  195.2910  172.8670  144.7590 C   0  0  0  0  0  0  0  0  0  0  0  0
  194.7640  174.8340  145.7060 C   0  0  0  0  0  0  0  0  0  0  0  0
  194.1420  173.4980  145.4620 C   0  0  0  0  0  2  0  0  0  0  0  0
  196.2980  173.6700  144.6600 N   0  0  0  0  0  0  0  0  0  0  0  0
  195.9700  174.8900  145.2550 N   0  0  0  0  0  0  0  0  0  0  0  0
  194.1500  175.9390  146.4980 C   0  0  1  0  0  3  0  0  0  0  0  0
  194.2650  177.1950  145.7770 N   0  0  0  0  0  1  0  0  0  0  0  0
  192.7380  175.6440  146.7590 C   0  0  0  0  0  0  0  0  0  0  0  0
  191.5790  175.3980  146.9800 C   0  0  0  0  0  0  0  0  0  0  0  0
  190.1710  175.0980  147.2520 C   0  0  0  0  0  2  0  0  0  0  0  0
  187.5790  177.2790  145.9600 N   0  0  0  0  0  0  0  0  0  0  0  0
  187.9540  176.2880  146.7900 C   0  0  0  0  0  3  0  0  0  0  0  0
  186.2630  177.8330  145.8660 C   0  0  0  0  0  0  0  0  0  0  0  0
  189.6870  176.9690  145.5720 C   0  0  0  0  0  3  0  0  0  0  0  0
  184.1420  178.1720  146.2520 N   0  0  0  0  0  0  0  0  0  0  0  0
  184.4270  179.0300  145.3290 C   0  0  0  0  0  3  0  0  0  0  0  0
  185.8670  178.9290  144.9420 C   0  0  0  0  0  3  0  0  0  0  0  0
  185.2750  177.4290  146.5880 N   0  0  0  0  0  2  0  0  0  0  0  0
  188.6030  177.6930  145.2300 N   0  0  0  0  0  0  0  0  0  0  0  0
  189.2930  176.0720  146.5470 C   0  0  0  0  0  0  0  0  0  0  0  0
  196.9730  170.1320  145.3490 C   0  0  0  0  0  2  0  0  0  0  0  0
  195.2200  169.1780  144.9620 C   0  0  0  0  0  2  0  0  0  0  0  0
  195.5680  170.5290  145.3930 N   0  0  0  0  0  0  0  0  0  0  0  0
  196.6570  168.7210  144.9170 C   0  0  0  0  0  2  0  0  0  0  0  0
  194.0400  171.1420  143.6500 N   0  0  0  0  0  2  0  0  0  0  0  0
  194.1700  171.4980  142.2460 C   0  0  0  0  0  2  0  0  0  0  0  0
  192.8550  172.0380  141.6900 C   0  0  1  0  0  3  0  0  0  0  0  0
  191.7820  172.2040  142.7750 C   0  0  0  0  0  2  0  0  0  0  0  0
  189.5260  173.3340  142.9610 C   0  0  0  0  0  0  0  0  0  0  0  0
  189.6710  173.5010  144.2010 O   0  0  0  0  0  0  0  0  0  0  0  0
  190.5360  172.6810  142.1900 N   0  0  0  0  0  2  0  0  0  0  0  0
  188.3040  173.8490  142.2860 C   0  0  0  0  0  2  0  0  0  0  0  0
  186.7900  175.7540  142.7350 C   0  0  0  0  0  1  0  0  0  0  0  0
  188.2230  175.3540  142.4500 C   0  0  0  0  0  2  0  0  0  0  0  0
  193.0810  173.2460  140.8820 N   0  0  0  0  0  0  0  0  0  0  0  0
  192.0520  173.3280  138.9480 C   0  0  0  0  0  1  0  0  0  0  0  0
  193.2370  172.9200  139.5680 O   0  0  0  0  0  0  0  0  0  0  0  0
  194.2810  173.9360  141.3820 C   0  0  0  0  0  3  0  0  0  0  0  0
  195.2910  174.2570  140.2800 C   0  0  0  0  0  2  0  0  0  0  0  0
  195.0930  175.5580  139.8150 O   0  0  0  0  0  1  0  0  0  0  0  0
  192.5510  175.5010  141.8890 O   0  0  0  0  0  1  0  0  0  0  0  0
  193.8910  175.2020  142.1300 C   0  0  0  0  0  2  0  0  0  0  0  0
  1 26  1  1  0  0  0
  1  2  1  0  0  0  0
  1 24  1  0  0  0  0
  2  4  1  0  0  0  0
  3  7  1  0  0  0  0
  4  3  1  0  0  0  0
  5  2  2  0  0  0  0
  5  6  1  0  0  0  0
  6  3  2  0  0  0  0
  7  8  1  6  0  0  0
  7  9  1  0  0  0  0
  9 10  3  0  0  0  0
 10 11  1  0  0  0  0
 12 13  1  0  0  0  0
 14 12  1  0  0  0  0
 14 19  1  0  0  0  0
 15 21  1  0  0  0  0
 16 19  1  0  0  0  0
 17 16  2  0  0  0  0
 18 17  1  0  0  0  0
 18 14  2  0  0  0  0
 20 15  2  0  0  0  0
 20 12  1  0  0  0  0
 21 13  2  0  0  0  0
 21 11  1  0  0  0  0
 22 24  1  0  0  0  0
 23 24  1  0  0  0  0
 25 23  1  0  0  0  0
 25 22  1  0  0  0  0
 27 26  1  0  0  0  0
 28 27  1  1  0  0  0
 28 29  1  0  0  0  0
 30 31  2  0  0  0  0
 32 29  1  0  0  0  0
 32 30  1  0  0  0  0
 33 35  1  0  0  0  0
 33 30  1  0  0  0  0
 35 34  1  0  0  0  0
 36 39  1  0  0  0  0
 36 28  1  0  0  0  0
 37 38  1  0  0  0  0
 38 36  1  0  0  0  0
 39 43  1  0  0  0  0
 40 39  1  0  0  0  0
 41 40  1  0  0  0  0
 42 43  1  0  0  0  0
M  END
>  <MODEL>
2

>  <REMARK>
 VINA RESULT:      -5.9      2.670      5.869
  Name = 
  18 active torsions:
  status: ('A' for Active; 'I' for Inactive)
    1  A    between atoms: C_3  and  C_9
    2  A    between atoms: C_3  and  C_22
    3  A    between atoms: C_5  and  C_42
    4  A    between atoms: C_8  and  C_35
    5  A    between atoms: C_12  and  N_24
    6  A    between atoms: C_12  and  C_27
    7  A    between atoms: C_13  and  C_39
    8  A    between atoms: C_14  and  C_21
    9  A    between atoms: C_14  and  C_41
   10  A    between atoms: C_15  and  C_42
   11  A    between atoms: C_18  and  C_39
   12  A    between atoms: N_23  and  C_35
   13  A    between atoms: N_24  and  C_35
   14  A    between atoms: C_27  and  N_28
   15  A    between atoms: C_27  and  C_43
   16  A    between atoms: N_28  and  O_37
   17  A    between atoms: N_28  and  C_42
   18  A    between atoms: N_32  and  C_43
                            x       y       z     vdW  Elec       q    Type
                         _______ _______ _______ _____ _____    ______ ____

>  <TORSDO>
F 18

$$$$
=
 OpenBabel11042419043D

 43 46  0  0  1  0  0  0  0  0999 V2000
  195.7140  173.6550  142.2260 C   0  0  1  0  0  3  0  0  0  0  0  0
  195.6550  174.2280  143.6080 C   0  0  0  0  0  0  0  0  0  0  0  0
  195.1590  175.4080  145.4540 C   0  0  0  0  0  0  0  0  0  0  0  0
  194.8230  175.3980  143.9990 C   0  0  0  0  0  3  0  0  0  0  0  0
  196.2810  173.7220  144.6180 N   0  0  0  0  0  2  0  0  0  0  0  0
  195.9670  174.4520  145.7650 N   0  0  0  0  0  0  0  0  0  0  0  0
  194.5440  176.3040  146.4750 C   0  0  1  0  0  3  0  0  0  0  0  0
  194.5770  177.6820  146.0170 N   0  0  0  0  0  1  0  0  0  0  0  0
  193.1580  175.8990  146.7270 C   0  0  0  0  0  0  0  0  0  0  0  0
  192.0200  175.5580  146.9350 C   0  0  0  0  0  0  0  0  0  0  0  0
  190.6390  175.1400  147.1880 C   0  0  0  0  0  2  0  0  0  0  0  0
  187.8910  177.1670  145.9710 N   0  0  0  0  0  0  0  0  0  0  0  0
  188.3410  176.1810  146.7680 C   0  0  0  0  0  3  0  0  0  0  0  0
  186.5390  177.6270  145.8960 C   0  0  0  0  0  0  0  0  0  0  0  0
  190.0140  177.0220  145.5680 C   0  0  0  0  0  3  0  0  0  0  0  0
  184.4000  177.8000  146.2970 N   0  0  0  0  0  0  0  0  0  0  0  0
  184.6180  178.7050  145.4010 C   0  0  0  0  0  3  0  0  0  0  0  0
  186.0600  178.7200  145.0080 C   0  0  0  0  0  3  0  0  0  0  0  0
  185.5850  177.1310  146.6070 N   0  0  0  0  0  2  0  0  0  0  0  0
  188.8800  177.6770  145.2520 N   0  0  0  0  0  0  0  0  0  0  0  0
  189.6910  176.0690  146.5160 C   0  0  0  0  0  0  0  0  0  0  0  0
  197.2930  175.2150  141.3910 C   0  0  0  0  0  2  0  0  0  0  0  0
  196.9790  173.5820  140.2200 C   0  0  0  0  0  2  0  0  0  0  0  0
  197.0590  173.7980  141.6620 N   0  0  0  0  0  0  0  0  0  0  0  0
  197.2310  175.0340  139.8940 C   0  0  0  0  0  2  0  0  0  0  0  0
  195.3370  172.2490  142.2830 N   0  0  0  0  0  2  0  0  0  0  0  0
  193.8940  172.2100  142.4590 C   0  0  0  0  0  2  0  0  0  0  0  0
  193.5100  171.3910  143.6880 C   0  0  1  0  0  3  0  0  0  0  0  0
  192.8730  172.2490  144.7900 C   0  0  0  0  0  2  0  0  0  0  0  0
  190.8630  173.5420  143.9610 C   0  0  0  0  0  0  0  0  0  0  0  0
  191.5860  174.5150  143.6160 O   0  0  0  0  0  0  0  0  0  0  0  0
  191.4400  172.3840  144.5660 N   0  0  0  0  0  2  0  0  0  0  0  0
  189.3980  173.5870  143.7080 C   0  0  0  0  0  2  0  0  0  0  0  0
  187.8280  174.3660  141.9600 C   0  0  0  0  0  1  0  0  0  0  0  0
  189.0780  174.7130  142.7440 C   0  0  0  0  0  2  0  0  0  0  0  0
  192.7130  170.2150  143.3090 N   0  0  0  0  0  0  0  0  0  0  0  0
  193.0100  168.5710  144.7280 C   0  0  0  0  0  1  0  0  0  0  0  0
  193.4300  169.0710  143.4920 O   0  0  0  0  0  0  0  0  0  0  0  0
  192.3130  170.3450  141.8990 C   0  0  0  0  0  3  0  0  0  0  0  0
  192.8810  169.2390  141.0100 C   0  0  0  0  0  2  0  0  0  0  0  0
  193.4850  169.7960  139.8820 O   0  0  0  0  0  1  0  0  0  0  0  0
  190.4170  171.4890  141.0050 O   0  0  0  0  0  1  0  0  0  0  0  0
  190.7960  170.3950  141.7810 C   0  0  0  0  0  2  0  0  0  0  0  0
  1 26  1  1  0  0  0
  1  2  1  0  0  0  0
  2  4  2  0  0  0  0
  2  5  1  0  0  0  0
  3  6  2  0  0  0  0
  3  7  1  0  0  0  0
  4  3  1  0  0  0  0
  5  6  1  0  0  0  0
  7  8  1  6  0  0  0
  7  9  1  0  0  0  0
  9 10  3  0  0  0  0
 10 11  1  0  0  0  0
 12 13  1  0  0  0  0
 14 12  1  0  0  0  0
 14 19  1  0  0  0  0
 15 21  1  0  0  0  0
 16 19  1  0  0  0  0
 17 16  2  0  0  0  0
 18 17  1  0  0  0  0
 18 14  2  0  0  0  0
 20 15  2  0  0  0  0
 20 12  1  0  0  0  0
 21 13  2  0  0  0  0
 21 11  1  0  0  0  0
 22 24  1  0  0  0  0
 23 24  1  0  0  0  0
 24  1  1  0  0  0  0
 25 23  1  0  0  0  0
 25 22  1  0  0  0  0
 26 27  1  0  0  0  0
 28 27  1  6  0  0  0
 28 29  1  0  0  0  0
 30 32  1  0  0  0  0
 31 30  2  0  0  0  0
 32 29  1  0  0  0  0
 33 30  1  0  0  0  0
 34 35  1  0  0  0  0
 35 33  1  0  0  0  0
 36 38  1  0  0  0  0
 36 28  1  0  0  0  0
 38 37  1  0  0  0  0
 39 36  1  0  0  0  0
 40 39  1  0  0  0  0
 41 40  1  0  0  0  0
 42 43  1  0  0  0  0
 43 39  1  0  0  0  0
M  END
>  <MODEL>
3

>  <REMARK>
 VINA RESULT:      -5.8      2.685      5.886
  Name = 
  18 active torsions:
  status: ('A' for Active; 'I' for Inactive)
    1  A    between atoms: C_3  and  C_9
    2  A    between atoms: C_3  and  C_22
    3  A    between atoms: C_5  and  C_42
    4  A    between atoms: C_8  and  C_35
    5  A    between atoms: C_12  and  N_24
    6  A    between atoms: C_12  and  C_27
    7  A    between atoms: C_13  and  C_39
    8  A    between atoms: C_14  and  C_21
    9  A    between atoms: C_14  and  C_41
   10  A    between atoms: C_15  and  C_42
   11  A    between atoms: C_18  and  C_39
   12  A    between atoms: N_23  and  C_35
   13  A    between atoms: N_24  and  C_35
   14  A    between atoms: C_27  and  N_28
   15  A    between atoms: C_27  and  C_43
   16  A    between atoms: N_28  and  O_37
   17  A    between atoms: N_28  and  C_42
   18  A    between atoms: N_32  and  C_43
                            x       y       z     vdW  Elec       q    Type
                         _______ _______ _______ _____ _____    ______ ____

>  <TORSDO>
F 18

$$$$
=
 OpenBabel11042419043D

 43 46  0  0  1  0  0  0  0  0999 V2000
  191.7080  173.4460  143.9060 C   0  0  1  0  0  3  0  0  0  0  0  0
  191.1210  172.9250  142.6310 C   0  0  0  0  0  0  0  0  0  0  0  0
  190.5230  172.5770  140.4940 C   0  0  0  0  0  0  0  0  0  0  0  0
  191.2360  173.6030  141.3120 C   0  0  0  0  0  3  0  0  0  0  0  0
  190.5030  171.7940  142.5400 N   0  0  0  0  0  2  0  0  0  0  0  0
  190.1380  171.5770  141.2110 N   0  0  0  0  0  0  0  0  0  0  0  0
  190.3840  172.6020  139.0090 C   0  0  1  0  0  3  0  0  0  0  0  0
  189.0850  173.1340  138.6370 N   0  0  0  0  0  1  0  0  0  0  0  0
  191.4440  173.4260  138.4210 C   0  0  0  0  0  0  0  0  0  0  0  0
  192.3190  174.1060  137.9440 C   0  0  0  0  0  0  0  0  0  0  0  0
  193.3820  174.9330  137.3690 C   0  0  0  0  0  2  0  0  0  0  0  0
  195.7140  175.2830  140.1230 N   0  0  0  0  0  0  0  0  0  0  0  0
  194.4570  175.3670  139.6490 C   0  0  0  0  0  3  0  0  0  0  0  0
  196.1170  175.5520  141.4690 C   0  0  0  0  0  0  0  0  0  0  0  0
  195.8470  174.7300  138.0330 C   0  0  0  0  0  3  0  0  0  0  0  0
  196.0030  176.0930  143.5800 N   0  0  0  0  0  0  0  0  0  0  0  0
  197.2580  175.8450  143.3940 C   0  0  0  0  0  3  0  0  0  0  0  0
  197.5120  175.4540  141.9750 C   0  0  0  0  0  3  0  0  0  0  0  0
  195.2930  175.9130  142.3920 N   0  0  0  0  0  2  0  0  0  0  0  0
  196.5500  174.9030  139.1690 N   0  0  0  0  0  0  0  0  0  0  0  0
  194.5270  175.0280  138.3160 C   0  0  0  0  0  0  0  0  0  0  0  0
  193.6300  172.0920  144.2210 C   0  0  0  0  0  2  0  0  0  0  0  0
  193.6890  173.9120  145.1260 C   0  0  0  0  0  2  0  0  0  0  0  0
  193.1720  173.4290  143.8480 N   0  0  0  0  0  0  0  0  0  0  0  0
  194.1890  172.5510  145.5450 C   0  0  0  0  0  2  0  0  0  0  0  0
  191.2270  174.8020  144.1260 N   0  0  0  0  0  2  0  0  0  0  0  0
  189.9570  174.6870  144.8260 C   0  0  0  0  0  2  0  0  0  0  0  0
  189.0060  175.8130  144.4310 C   0  0  1  0  0  3  0  0  0  0  0  0
  188.4900  176.5990  145.6450 C   0  0  0  0  0  2  0  0  0  0  0  0
  186.2670  177.3880  146.5590 C   0  0  0  0  0  0  0  0  0  0  0  0
  186.8310  178.2390  147.2970 O   0  0  0  0  0  0  0  0  0  0  0  0
  187.0380  176.5270  145.7190 N   0  0  0  0  0  2  0  0  0  0  0  0
  184.7830  177.2990  146.5390 C   0  0  0  0  0  2  0  0  0  0  0  0
  184.4690  178.9370  144.7110 C   0  0  0  0  0  1  0  0  0  0  0  0
  184.1930  178.6470  146.1710 C   0  0  0  0  0  2  0  0  0  0  0  0
  189.5940  176.6560  143.3790 N   0  0  0  0  0  0  0  0  0  0  0  0
  191.0290  178.2790  143.7070 C   0  0  0  0  0  1  0  0  0  0  0  0
  189.6730  177.9520  143.7920 O   0  0  0  0  0  0  0  0  0  0  0  0
  188.7630  176.5550  142.1690 C   0  0  0  0  0  3  0  0  0  0  0  0
  187.5940  175.5820  142.3230 C   0  0  0  0  0  2  0  0  0  0  0  0
  187.8320  174.4280  141.5750 O   0  0  0  0  0  1  0  0  0  0  0  0
  187.0710  177.8040  141.0370 O   0  0  0  0  0  1  0  0  0  0  0  0
  188.2580  177.9310  141.7570 C   0  0  0  0  0  2  0  0  0  0  0  0
  1 26  1  6  0  0  0
  2  1  1  0  0  0  0
  3  6  2  0  0  0  0
  3  4  1  0  0  0  0
  4  2  2  0  0  0  0
  5  2  1  0  0  0  0
  6  5  1  0  0  0  0
  7  8  1  1  0  0  0
  7  3  1  0  0  0  0
  9  7  1  0  0  0  0
 10  9  3  0  0  0  0
 11 10  1  0  0  0  0
 11 21  1  0  0  0  0
 12 14  1  0  0  0  0
 13 12  1  0  0  0  0
 14 18  2  0  0  0  0
 14 19  1  0  0  0  0
 15 21  1  0  0  0  0
 15 20  2  0  0  0  0
 17 16  2  0  0  0  0
 18 17  1  0  0  0  0
 19 16  1  0  0  0  0
 20 12  1  0  0  0  0
 21 13  2  0  0  0  0
 22 25  1  0  0  0  0
 23 25  1  0  0  0  0
 24  1  1  0  0  0  0
 24 22  1  0  0  0  0
 24 23  1  0  0  0  0
 26 27  1  0  0  0  0
 28 27  1  1  0  0  0
 28 29  1  0  0  0  0
 29 32  1  0  0  0  0
 30 31  2  0  0  0  0
 32 30  1  0  0  0  0
 33 30  1  0  0  0  0
 34 35  1  0  0  0  0
 35 33  1  0  0  0  0
 36 38  1  0  0  0  0
 36 28  1  0  0  0  0
 37 38  1  0  0  0  0
 39 40  1  0  0  0  0
 39 36  1  0  0  0  0
 41 40  1  0  0  0  0
 42 43  1  0  0  0  0
 43 39  1  0  0  0  0
M  END
>  <MODEL>
4

>  <REMARK>
 VINA RESULT:      -5.7      3.141      9.604
  Name = 
  18 active torsions:
  status: ('A' for Active; 'I' for Inactive)
    1  A    between atoms: C_3  and  C_9
    2  A    between atoms: C_3  and  C_22
    3  A    between atoms: C_5  and  C_42
    4  A    between atoms: C_8  and  C_35
    5  A    between atoms: C_12  and  N_24
    6  A    between atoms: C_12  and  C_27
    7  A    between atoms: C_13  and  C_39
    8  A    between atoms: C_14  and  C_21
    9  A    between atoms: C_14  and  C_41
   10  A    between atoms: C_15  and  C_42
   11  A    between atoms: C_18  and  C_39
   12  A    between atoms: N_23  and  C_35
   13  A    between atoms: N_24  and  C_35
   14  A    between atoms: C_27  and  N_28
   15  A    between atoms: C_27  and  C_43
   16  A    between atoms: N_28  and  O_37
   17  A    between atoms: N_28  and  C_42
   18  A    between atoms: N_32  and  C_43
                            x       y       z     vdW  Elec       q    Type
                         _______ _______ _______ _____ _____    ______ ____

>  <TORSDO>
F 18

$$$$
=
 OpenBabel11042419043D

 43 46  0  0  1  0  0  0  0  0999 V2000
  187.9460  176.4150  143.1770 C   0  0  1  0  0  3  0  0  0  0  0  0
  188.7130  176.2190  144.4470 C   0  0  0  0  0  0  0  0  0  0  0  0
  190.2660  176.2010  146.0700 C   0  0  0  0  0  0  0  0  0  0  0  0
  190.1470  176.5710  144.6280 C   0  0  0  0  0  3  0  0  0  0  0  0
  188.1830  175.7750  145.5390 N   0  0  0  0  0  2  0  0  0  0  0  0
  189.1480  175.7710  146.5470 N   0  0  0  0  0  0  0  0  0  0  0  0
  191.4700  176.4240  146.9220 C   0  0  1  0  0  3  0  0  0  0  0  0
  191.3970  175.6010  148.1170 N   0  0  0  0  0  1  0  0  0  0  0  0
  192.6840  176.0970  146.1680 C   0  0  0  0  0  0  0  0  0  0  0  0
  193.6870  175.8260  145.5550 C   0  0  0  0  0  0  0  0  0  0  0  0
  194.9050  175.4960  144.8130 C   0  0  0  0  0  2  0  0  0  0  0  0
  195.7380  172.0960  145.7610 N   0  0  0  0  0  0  0  0  0  0  0  0
  194.8530  172.9770  145.2580 C   0  0  0  0  0  3  0  0  0  0  0  0
  195.5200  170.6910  145.9110 C   0  0  0  0  0  0  0  0  0  0  0  0
  196.7360  174.0170  145.8250 C   0  0  0  0  0  3  0  0  0  0  0  0
  194.5380  168.7430  145.8420 N   0  0  0  0  0  0  0  0  0  0  0  0
  195.6980  168.4840  146.3510 C   0  0  0  0  0  3  0  0  0  0  0  0
  196.5110  169.7320  146.4690 C   0  0  0  0  0  2  0  0  0  0  0  0
  194.4240  170.1060  145.5680 N   0  0  0  0  0  0  0  0  0  0  0  0
  196.8640  172.7050  146.1010 N   0  0  0  0  0  0  0  0  0  0  0  0
  195.4710  174.2080  145.3020 C   0  0  0  0  0  0  0  0  0  0  0  0
  186.2080  178.0250  143.0650 C   0  0  0  0  0  2  0  0  0  0  0  0
  187.5350  178.0680  141.5250 C   0  0  0  0  0  2  0  0  0  0  0  0
  187.6530  177.8350  142.9610 N   0  0  0  0  0  0  0  0  0  0  0  0
  186.0430  178.2850  141.5880 C   0  0  0  0  0  2  0  0  0  0  0  0
  188.7280  175.8870  142.0680 N   0  0  0  0  0  2  0  0  0  0  0  0
  188.1840  174.5740  141.7610 C   0  0  0  0  0  2  0  0  0  0  0  0
  189.2790  173.6170  141.2980 C   0  0  1  0  0  3  0  0  0  0  0  0
  189.5290  173.6990  139.7850 C   0  0  0  0  0  2  0  0  0  0  0  0
  190.1610  171.4900  138.7250 C   0  0  0  0  0  0  0  0  0  0  0  0
  191.3890  171.7250  138.8810 O   0  0  0  0  0  0  0  0  0  0  0  0
  189.1790  172.4400  139.1420 N   0  0  0  0  0  2  0  0  0  0  0  0
  189.7280  170.1980  138.1290 C   0  0  0  0  0  2  0  0  0  0  0  0
  191.3190  168.6860  136.9850 C   0  0  0  0  0  1  0  0  0  0  0  0
  190.4890  169.9450  136.8420 C   0  0  0  0  0  2  0  0  0  0  0  0
  190.4920  173.7700  142.1140 N   0  0  0  0  0  0  0  0  0  0  0  0
  192.3590  174.9090  141.9660 C   0  0  0  0  0  1  0  0  0  0  0  0
  191.5860  173.9400  141.3200 O   0  0  0  0  0  0  0  0  0  0  0  0
  190.6540  172.5730  142.9550 C   0  0  0  0  0  3  0  0  0  0  0  0
  190.2930  172.8160  144.4200 C   0  0  0  0  0  2  0  0  0  0  0  0
  191.4530  172.9930  145.1750 O   0  0  0  0  0  1  0  0  0  0  0  0
  190.6960  170.3930  141.9810 O   0  0  0  0  0  1  0  0  0  0  0  0
  189.8420  171.4160  142.3920 C   0  0  0  0  0  2  0  0  0  0  0  0
  1 26  1  6  0  0  0
  1  2  1  0  0  0  0
  2  4  2  0  0  0  0
  2  5  1  0  0  0  0
  3  6  2  0  0  0  0
  3  7  1  0  0  0  0
  4  3  1  0  0  0  0
  5  6  1  0  0  0  0
  7  8  1  1  0  0  0
  9  7  1  0  0  0  0
 10  9  3  0  0  0  0
 11 21  1  0  0  0  0
 11 10  1  0  0  0  0
 12 14  1  0  0  0  0
 12 20  1  0  0  0  0
 13 21  2  0  0  0  0
 13 12  1  0  0  0  0
 14 18  1  0  0  0  0
 15 20  2  0  0  0  0
 16 17  2  0  0  0  0
 17 18  1  0  0  0  0
 19 16  1  0  0  0  0
 19 14  2  0  0  0  0
 21 15  1  0  0  0  0
 23 25  1  0  0  0  0
 23 24  1  0  0  0  0
 24 22  1  0  0  0  0
 24  1  1  0  0  0  0
 25 22  1  0  0  0  0
 27 26  1  0  0  0  0
 28 29  1  6  0  0  0
 28 27  1  0  0  0  0
 28 36  1  0  0  0  0
 30 31  2  0  0  0  0
 30 32  1  0  0  0  0
 32 29  1  0  0  0  0
 33 30  1  0  0  0  0
 35 34  1  0  0  0  0
 35 33  1  0  0  0  0
 36 39  1  0  0  0  0
 38 37  1  0  0  0  0
 38 36  1  0  0  0  0
 39 40  1  0  0  0  0
 40 41  1  0  0  0  0
 42 43  1  0  0  0  0
 43 39  1  0  0  0  0
M  END
>  <MODEL>
5

>  <REMARK>
 VINA RESULT:      -5.6      3.010      8.383
  Name = 
  18 active torsions:
  status: ('A' for Active; 'I' for Inactive)
    1  A    between atoms: C_3  and  C_9
    2  A    between atoms: C_3  and  C_22
    3  A    between atoms: C_5  and  C_42
    4  A    between atoms: C_8  and  C_35
    5  A    between atoms: C_12  and  N_24
    6  A    between atoms: C_12  and  C_27
    7  A    between atoms: C_13  and  C_39
    8  A    between atoms: C_14  and  C_21
    9  A    between atoms: C_14  and  C_41
   10  A    between atoms: C_15  and  C_42
   11  A    between atoms: C_18  and  C_39
   12  A    between atoms: N_23  and  C_35
   13  A    between atoms: N_24  and  C_35
   14  A    between atoms: C_27  and  N_28
   15  A    between atoms: C_27  and  C_43
   16  A    between atoms: N_28  and  O_37
   17  A    between atoms: N_28  and  C_42
   18  A    between atoms: N_32  and  C_43
                            x       y       z     vdW  Elec       q    Type
                         _______ _______ _______ _____ _____    ______ ____

>  <TORSDO>
F 18

$$$$
=
 OpenBabel11042419043D

 43 46  0  0  1  0  0  0  0  0999 V2000
  190.1400  173.2720  142.4210 C   0  0  1  0  0  3  0  0  0  0  0  0
  190.0690  174.3140  143.4930 C   0  0  0  0  0  0  0  0  0  0  0  0
  189.7940  175.4420  145.4160 C   0  0  0  0  0  0  0  0  0  0  0  0
  189.5240  174.0830  144.8570 C   0  0  0  0  0  2  0  0  0  0  0  0
  190.5350  175.5120  143.3550 N   0  0  0  0  0  0  0  0  0  0  0  0
  190.3680  176.2080  144.5530 N   0  0  0  0  0  0  0  0  0  0  0  0
  189.5750  175.8510  146.8340 C   0  0  1  0  0  3  0  0  0  0  0  0
  190.7530  176.5270  147.3470 N   0  0  0  0  0  1  0  0  0  0  0  0
  188.4140  176.7410  146.9240 C   0  0  0  0  0  0  0  0  0  0  0  0
  187.4540  177.4680  146.9930 C   0  0  0  0  0  0  0  0  0  0  0  0
  186.2870  178.3490  147.0750 C   0  0  0  0  0  2  0  0  0  0  0  0
  185.2090  178.3050  143.6130 N   0  0  0  0  0  0  0  0  0  0  0  0
  186.1750  178.1140  144.5300 C   0  0  0  0  0  3  0  0  0  0  0  0
  185.3420  178.0910  142.2050 C   0  0  0  0  0  0  0  0  0  0  0  0
  184.3060  178.8070  145.5170 C   0  0  0  0  0  3  0  0  0  0  0  0
  186.2270  177.5760  140.2780 N   0  0  0  0  0  0  0  0  0  0  0  0
  185.0180  177.9180  139.9780 C   0  0  0  0  0  3  0  0  0  0  0  0
  184.2610  178.3070  141.2060 C   0  0  0  0  0  3  0  0  0  0  0  0
  186.4320  177.6810  141.6540 N   0  0  0  0  0  2  0  0  0  0  0  0
  184.0900  178.7170  144.1900 N   0  0  0  0  0  0  0  0  0  0  0  0
  185.6190  178.4400  145.7470 C   0  0  0  0  0  0  0  0  0  0  0  0
  189.0660  173.1130  140.3120 C   0  0  0  0  0  2  0  0  0  0  0  0
  188.2450  174.4470  141.6080 C   0  0  0  0  0  2  0  0  0  0  0  0
  188.8430  173.1230  141.7560 N   0  0  0  0  0  0  0  0  0  0  0  0
  188.4450  174.4730  140.1130 C   0  0  0  0  0  2  0  0  0  0  0  0
  191.1600  173.6570  141.4560 N   0  0  0  0  0  2  0  0  0  0  0  0
  192.1800  172.6200  141.4900 C   0  0  0  0  0  2  0  0  0  0  0  0
  193.5730  173.2220  141.6530 C   0  0  1  0  0  3  0  0  0  0  0  0
  193.5530  174.7560  141.6620 C   0  0  0  0  0  2  0  0  0  0  0  0
  195.1870  176.1040  143.0470 C   0  0  0  0  0  0  0  0  0  0  0  0
  195.8510  176.4190  142.0230 O   0  0  0  0  0  0  0  0  0  0  0  0
  194.0350  175.2650  142.9390 N   0  0  0  0  0  2  0  0  0  0  0  0
  195.5870  176.6360  144.3760 C   0  0  0  0  0  2  0  0  0  0  0  0
  194.2470  176.3960  146.4420 C   0  0  0  0  0  1  0  0  0  0  0  0
  195.1530  175.6750  145.4660 C   0  0  0  0  0  2  0  0  0  0  0  0
  194.2730  172.6250  142.8000 N   0  0  0  0  0  0  0  0  0  0  0  0
  196.4640  172.6070  142.7220 C   0  0  0  0  0  1  0  0  0  0  0  0
  195.3260  171.8700  142.3790 O   0  0  0  0  0  0  0  0  0  0  0  0
  193.3240  171.7970  143.5610 C   0  0  0  0  0  3  0  0  0  0  0  0
  193.7630  170.3380  143.6800 C   0  0  0  0  0  2  0  0  0  0  0  0
  192.6480  169.5150  143.8410 O   0  0  0  0  0  1  0  0  0  0  0  0
  194.2500  172.3110  145.7010 O   0  0  0  0  0  1  0  0  0  0  0  0
  193.0850  172.3950  144.9390 C   0  0  0  0  0  2  0  0  0  0  0  0
  1 26  1  6  0  0  0
  1  2  1  0  0  0  0
  2  4  1  0  0  0  0
  3  7  1  0  0  0  0
  4  3  1  0  0  0  0
  5  2  2  0  0  0  0
  5  6  1  0  0  0  0
  6  3  2  0  0  0  0
  7  9  1  0  0  0  0
  7  8  1  6  0  0  0
  9 10  3  0  0  0  0
 10 11  1  0  0  0  0
 12 20  1  0  0  0  0
 12 13  1  0  0  0  0
 13 21  2  0  0  0  0
 14 12  1  0  0  0  0
 15 21  1  0  0  0  0
 16 19  1  0  0  0  0
 17 16  2  0  0  0  0
 17 18  1  0  0  0  0
 18 14  2  0  0  0  0
 19 14  1  0  0  0  0
 20 15  2  0  0  0  0
 21 11  1  0  0  0  0
 22 24  1  0  0  0  0
 23 24  1  0  0  0  0
 24  1  1  0  0  0  0
 25 22  1  0  0  0  0
 25 23  1  0  0  0  0
 26 27  1  0  0  0  0
 28 27  1  1  0  0  0
 28 29  1  0  0  0  0
 28 36  1  0  0  0  0
 29 32  1  0  0  0  0
 30 33  1  0  0  0  0
 31 30  2  0  0  0  0
 32 30  1  0  0  0  0
 33 35  1  0  0  0  0
 35 34  1  0  0  0  0
 36 39  1  0  0  0  0
 38 37  1  0  0  0  0
 38 36  1  0  0  0  0
 39 40  1  0  0  0  0
 39 43  1  0  0  0  0
 40 41  1  0  0  0  0
 43 42  1  0  0  0  0
M  END
>  <MODEL>
6

>  <REMARK>
 VINA RESULT:      -5.6      1.722      2.914
  Name = 
  18 active torsions:
  status: ('A' for Active; 'I' for Inactive)
    1  A    between atoms: C_3  and  C_9
    2  A    between atoms: C_3  and  C_22
    3  A    between atoms: C_5  and  C_42
    4  A    between atoms: C_8  and  C_35
    5  A    between atoms: C_12  and  N_24
    6  A    between atoms: C_12  and  C_27
    7  A    between atoms: C_13  and  C_39
    8  A    between atoms: C_14  and  C_21
    9  A    between atoms: C_14  and  C_41
   10  A    between atoms: C_15  and  C_42
   11  A    between atoms: C_18  and  C_39
   12  A    between atoms: N_23  and  C_35
   13  A    between atoms: N_24  and  C_35
   14  A    between atoms: C_27  and  N_28
   15  A    between atoms: C_27  and  C_43
   16  A    between atoms: N_28  and  O_37
   17  A    between atoms: N_28  and  C_42
   18  A    between atoms: N_32  and  C_43
                            x       y       z     vdW  Elec       q    Type
                         _______ _______ _______ _____ _____    ______ ____

>  <TORSDO>
F 18

$$$$
=
 OpenBabel11042419043D

 43 46  0  0  1  0  0  0  0  0999 V2000
  193.3270  172.9980  139.6430 C   0  0  1  0  0  3  0  0  0  0  0  0
  191.8960  172.7570  140.0100 C   0  0  0  0  0  0  0  0  0  0  0  0
  189.7470  172.9560  140.6330 C   0  0  0  0  0  0  0  0  0  0  0  0
  190.9770  173.7990  140.5430 C   0  0  0  0  0  2  0  0  0  0  0  0
  191.2980  171.6250  139.8420 N   0  0  0  0  0  0  0  0  0  0  0  0
  189.9610  171.7520  140.2240 N   0  0  0  0  0  0  0  0  0  0  0  0
  188.3890  173.4480  141.0060 C   0  0  1  0  0  3  0  0  0  0  0  0
  187.9350  172.7920  142.2200 N   0  0  0  0  0  1  0  0  0  0  0  0
  188.4220  174.8990  141.2090 C   0  0  0  0  0  0  0  0  0  0  0  0
  188.4400  176.0930  141.3770 C   0  0  0  0  0  0  0  0  0  0  0  0
  188.4580  177.5440  141.5820 C   0  0  0  0  0  2  0  0  0  0  0  0
  186.3020  178.2920  144.3990 N   0  0  0  0  0  0  0  0  0  0  0  0
  187.4330  177.7440  143.9170 C   0  0  0  0  0  3  0  0  0  0  0  0
  185.9120  178.3200  145.7750 C   0  0  0  0  0  0  0  0  0  0  0  0
  186.2380  178.6240  142.2600 C   0  0  0  0  0  3  0  0  0  0  0  0
  185.9640  178.0090  147.9340 N   0  0  0  0  0  0  0  0  0  0  0  0
  184.8510  178.6360  147.7420 C   0  0  0  0  0  3  0  0  0  0  0  0
  184.6570  178.9310  146.2900 C   0  0  0  0  0  3  0  0  0  0  0  0
  186.6240  177.8110  146.7210 N   0  0  0  0  0  2  0  0  0  0  0  0
  185.5830  178.8200  143.4210 N   0  0  0  0  0  0  0  0  0  0  0  0
  187.4020  177.9380  142.5530 C   0  0  0  0  0  0  0  0  0  0  0  0
  194.0370  172.3780  137.4670 C   0  0  0  0  0  2  0  0  0  0  0  0
  194.6880  174.1930  138.1110 C   0  0  0  0  0  2  0  0  0  0  0  0
  193.4380  173.4530  138.2550 N   0  0  0  0  0  0  0  0  0  0  0  0
  195.3410  173.1140  137.2820 C   0  0  0  0  0  2  0  0  0  0  0  0
  193.8840  173.9940  140.5470 N   0  0  0  0  0  2  0  0  0  0  0  0
  194.2010  173.3040  141.7870 C   0  0  0  0  0  2  0  0  0  0  0  0
  193.8660  174.1670  143.0000 C   0  0  1  0  0  3  0  0  0  0  0  0
  192.8770  173.4820  143.9540 C   0  0  0  0  0  2  0  0  0  0  0  0
  190.4360  173.8420  144.5140 C   0  0  0  0  0  0  0  0  0  0  0  0
  190.2220  172.6010  144.5410 O   0  0  0  0  0  0  0  0  0  0  0  0
  191.7370  174.3510  144.2140 N   0  0  0  0  0  2  0  0  0  0  0  0
  189.3320  174.7870  144.8290 C   0  0  0  0  0  2  0  0  0  0  0  0
  189.0580  174.6290  147.2830 C   0  0  0  0  0  1  0  0  0  0  0  0
  189.6050  175.4750  146.1520 C   0  0  0  0  0  2  0  0  0  0  0  0
  195.0910  174.6520  143.6550 N   0  0  0  0  0  0  0  0  0  0  0  0
  196.3130  173.4040  144.9800 C   0  0  0  0  0  1  0  0  0  0  0  0
  195.1610  174.1950  144.9370 O   0  0  0  0  0  0  0  0  0  0  0  0
  195.0900  176.1230  143.6370 C   0  0  0  0  0  3  0  0  0  0  0  0
  194.9880  176.7400  145.0320 C   0  0  0  0  0  2  0  0  0  0  0  0
  193.6720  177.1240  145.2890 O   0  0  0  0  0  1  0  0  0  0  0  0
  196.1710  176.4810  141.5380 O   0  0  0  0  0  1  0  0  0  0  0  0
  196.3230  176.6450  142.9140 C   0  0  0  0  0  2  0  0  0  0  0  0
  1  2  1  0  0  0  0
  1 26  1  1  0  0  0
  2  4  1  0  0  0  0
  3  7  1  0  0  0  0
  4  3  1  0  0  0  0
  5  2  2  0  0  0  0
  5  6  1  0  0  0  0
  6  3  2  0  0  0  0
  7  9  1  0  0  0  0
  7  8  1  1  0  0  0
  9 10  3  0  0  0  0
 10 11  1  0  0  0  0
 11 21  1  0  0  0  0
 12 14  1  0  0  0  0
 13 12  1  0  0  0  0
 14 18  2  0  0  0  0
 14 19  1  0  0  0  0
 15 21  1  0  0  0  0
 15 20  2  0  0  0  0
 17 16  2  0  0  0  0
 18 17  1  0  0  0  0
 19 16  1  0  0  0  0
 20 12  1  0  0  0  0
 21 13  2  0  0  0  0
 22 24  1  0  0  0  0
 23 24  1  0  0  0  0
 24  1  1  0  0  0  0
 25 22  1  0  0  0  0
 25 23  1  0  0  0  0
 26 27  1  0  0  0  0
 28 27  1  6  0  0  0
 28 36  1  0  0  0  0
 28 29  1  0  0  0  0
 29 32  1  0  0  0  0
 30 31  2  0  0  0  0
 30 33  1  0  0  0  0
 32 30  1  0  0  0  0
 33 35  1  0  0  0  0
 35 34  1  0  0  0  0
 36 38  1  0  0  0  0
 38 37  1  0  0  0  0
 39 36  1  0  0  0  0
 39 40  1  0  0  0  0
 40 41  1  0  0  0  0
 42 43  1  0  0  0  0
 43 39  1  0  0  0  0
M  END
>  <MODEL>
7

>  <REMARK>
 VINA RESULT:      -5.6      2.312      5.197
  Name = 
  18 active torsions:
  status: ('A' for Active; 'I' for Inactive)
    1  A    between atoms: C_3  and  C_9
    2  A    between atoms: C_3  and  C_22
    3  A    between atoms: C_5  and  C_42
    4  A    between atoms: C_8  and  C_35
    5  A    between atoms: C_12  and  N_24
    6  A    between atoms: C_12  and  C_27
    7  A    between atoms: C_13  and  C_39
    8  A    between atoms: C_14  and  C_21
    9  A    between atoms: C_14  and  C_41
   10  A    between atoms: C_15  and  C_42
   11  A    between atoms: C_18  and  C_39
   12  A    between atoms: N_23  and  C_35
   13  A    between atoms: N_24  and  C_35
   14  A    between atoms: C_27  and  N_28
   15  A    between atoms: C_27  and  C_43
   16  A    between atoms: N_28  and  O_37
   17  A    between atoms: N_28  and  C_42
   18  A    between atoms: N_32  and  C_43
                            x       y       z     vdW  Elec       q    Type
                         _______ _______ _______ _____ _____    ______ ____

>  <TORSDO>
F 18

$$$$
=
 OpenBabel11042419043D

 43 46  0  0  1  0  0  0  0  0999 V2000
  193.6580  174.2120  141.3260 C   0  0  1  0  0  3  0  0  0  0  0  0
  192.2980  173.6040  141.1890 C   0  0  0  0  0  0  0  0  0  0  0  0
  190.0890  173.1970  141.1690 C   0  0  0  0  0  0  0  0  0  0  0  0
  191.0360  174.2540  141.6340 C   0  0  0  0  0  2  0  0  0  0  0  0
  192.0790  172.4700  140.6100 N   0  0  0  0  0  0  0  0  0  0  0  0
  190.7050  172.2220  140.5940 N   0  0  0  0  0  0  0  0  0  0  0  0
  188.6010  173.2900  141.2170 C   0  0  1  0  0  3  0  0  0  0  0  0
  188.1030  172.7200  142.4570 N   0  0  0  0  0  1  0  0  0  0  0  0
  188.1840  174.6910  141.1130 C   0  0  0  0  0  0  0  0  0  0  0  0
  187.8330  175.8420  141.0240 C   0  0  0  0  0  0  0  0  0  0  0  0
  187.4040  177.2380  140.9150 C   0  0  0  0  0  2  0  0  0  0  0  0
  185.6890  178.0260  144.0110 N   0  0  0  0  0  0  0  0  0  0  0  0
  186.8070  177.6350  143.3700 C   0  0  0  0  0  3  0  0  0  0  0  0
  185.5620  178.2150  145.4230 C   0  0  0  0  0  0  0  0  0  0  0  0
  185.1600  177.9640  141.9120 C   0  0  0  0  0  3  0  0  0  0  0  0
  186.0790  178.2970  147.5420 N   0  0  0  0  0  0  0  0  0  0  0  0
  184.8360  178.6520  147.5150 C   0  0  0  0  0  3  0  0  0  0  0  0
  184.3180  178.6480  146.1130 C   0  0  0  0  0  3  0  0  0  0  0  0
  186.5320  178.0260  146.2500 N   0  0  0  0  0  2  0  0  0  0  0  0
  184.7020  178.2260  143.1510 N   0  0  0  0  0  0  0  0  0  0  0  0
  186.4820  177.5810  142.0320 C   0  0  0  0  0  0  0  0  0  0  0  0
  195.1280  174.2270  139.4650 C   0  0  0  0  0  2  0  0  0  0  0  0
  194.9780  175.9880  140.4700 C   0  0  0  0  0  2  0  0  0  0  0  0
  194.0270  174.9400  140.1090 N   0  0  0  0  0  0  0  0  0  0  0  0
  196.1410  175.2930  139.8050 C   0  0  0  0  0  2  0  0  0  0  0  0
  193.6600  175.1100  142.4720 N   0  0  0  0  0  2  0  0  0  0  0  0
  194.0620  174.3180  143.6240 C   0  0  0  0  0  2  0  0  0  0  0  0
  195.0340  175.0900  144.5120 C   0  0  1  0  0  3  0  0  0  0  0  0
  194.6440  175.0360  145.9950 C   0  0  0  0  0  2  0  0  0  0  0  0
  192.5530  176.2450  146.7500 C   0  0  0  0  0  0  0  0  0  0  0  0
  193.2290  177.2060  147.2050 O   0  0  0  0  0  0  0  0  0  0  0  0
  193.1970  175.1220  146.1450 N   0  0  0  0  0  2  0  0  0  0  0  0
  191.0680  176.2930  146.8160 C   0  0  0  0  0  2  0  0  0  0  0  0
  189.4440  175.6880  145.0490 C   0  0  0  0  0  1  0  0  0  0  0  0
  190.5060  176.6850  145.4630 C   0  0  0  0  0  2  0  0  0  0  0  0
  196.4240  174.6910  144.2440 N   0  0  0  0  0  0  0  0  0  0  0  0
  196.9170  176.6730  143.4480 C   0  0  0  0  0  1  0  0  0  0  0  0
  196.8930  175.3130  143.1260 O   0  0  0  0  0  0  0  0  0  0  0  0
  196.4760  173.2300  144.0740 C   0  0  0  0  0  3  0  0  0  0  0  0
  197.1850  172.8010  142.7900 C   0  0  0  0  0  2  0  0  0  0  0  0
  196.3000  172.1030  141.9670 O   0  0  0  0  0  1  0  0  0  0  0  0
  197.1200  171.1930  145.1400 O   0  0  0  0  0  1  0  0  0  0  0  0
  197.1290  172.5800  145.2850 C   0  0  0  0  0  2  0  0  0  0  0  0
  1 26  1  1  0  0  0
  2  1  1  0  0  0  0
  2  4  1  0  0  0  0
  3  7  1  0  0  0  0
  3  4  1  0  0  0  0
  5  2  2  0  0  0  0
  6  5  1  0  0  0  0
  6  3  2  0  0  0  0
  7  8  1  1  0  0  0
  9  7  1  0  0  0  0
 10  9  3  0  0  0  0
 11 10  1  0  0  0  0
 11 21  1  0  0  0  0
 12 14  1  0  0  0  0
 13 12  1  0  0  0  0
 14 18  2  0  0  0  0
 14 19  1  0  0  0  0
 15 21  1  0  0  0  0
 15 20  2  0  0  0  0
 17 16  2  0  0  0  0
 18 17  1  0  0  0  0
 19 16  1  0  0  0  0
 20 12  1  0  0  0  0
 21 13  2  0  0  0  0
 22 25  1  0  0  0  0
 22 24  1  0  0  0  0
 24 23  1  0  0  0  0
 24  1  1  0  0  0  0
 25 23  1  0  0  0  0
 26 27  1  0  0  0  0
 28 27  1  6  0  0  0
 28 29  1  0  0  0  0
 29 32  1  0  0  0  0
 30 33  1  0  0  0  0
 30 31  2  0  0  0  0
 32 30  1  0  0  0  0
 34 35  1  0  0  0  0
 35 33  1  0  0  0  0
 36 28  1  0  0  0  0
 38 37  1  0  0  0  0
 38 36  1  0  0  0  0
 39 36  1  0  0  0  0
 39 43  1  0  0  0  0
 40 39  1  0  0  0  0
 41 40  1  0  0  0  0
 42 43  1  0  0  0  0
M  END
>  <MODEL>
8

>  <REMARK>
 VINA RESULT:      -5.5      2.113      5.290
  Name = 
  18 active torsions:
  status: ('A' for Active; 'I' for Inactive)
    1  A    between atoms: C_3  and  C_9
    2  A    between atoms: C_3  and  C_22
    3  A    between atoms: C_5  and  C_42
    4  A    between atoms: C_8  and  C_35
    5  A    between atoms: C_12  and  N_24
    6  A    between atoms: C_12  and  C_27
    7  A    between atoms: C_13  and  C_39
    8  A    between atoms: C_14  and  C_21
    9  A    between atoms: C_14  and  C_41
   10  A    between atoms: C_15  and  C_42
   11  A    between atoms: C_18  and  C_39
   12  A    between atoms: N_23  and  C_35
   13  A    between atoms: N_24  and  C_35
   14  A    between atoms: C_27  and  N_28
   15  A    between atoms: C_27  and  C_43
   16  A    between atoms: N_28  and  O_37
   17  A    between atoms: N_28  and  C_42
   18  A    between atoms: N_32  and  C_43
                            x       y       z     vdW  Elec       q    Type
                         _______ _______ _______ _____ _____    ______ ____

>  <TORSDO>
F 18

$$$$
=
 OpenBabel11042419043D

 43 46  0  0  1  0  0  0  0  0999 V2000
  190.5950  172.9280  142.1350 C   0  0  1  0  0  3  0  0  0  0  0  0
  190.3250  173.7950  143.3240 C   0  0  0  0  0  0  0  0  0  0  0  0
  189.8230  174.6000  145.3600 C   0  0  0  0  0  0  0  0  0  0  0  0
  189.8040  173.3000  144.6270 C   0  0  0  0  0  2  0  0  0  0  0  0
  190.5760  175.0620  143.3550 N   0  0  0  0  0  0  0  0  0  0  0  0
  190.2690  175.5590  144.6230 N   0  0  0  0  0  0  0  0  0  0  0  0
  189.5100  174.7790  146.8080 C   0  0  1  0  0  3  0  0  0  0  0  0
  190.6580  175.3360  147.5020 N   0  0  0  0  0  1  0  0  0  0  0  0
  188.3570  175.6700  146.9640 C   0  0  0  0  0  0  0  0  0  0  0  0
  187.4130  176.4100  147.0920 C   0  0  0  0  0  0  0  0  0  0  0  0
  186.2680  177.3110  147.2470 C   0  0  0  0  0  2  0  0  0  0  0  0
  185.4250  177.8490  143.7610 N   0  0  0  0  0  0  0  0  0  0  0  0
  186.2830  177.3870  144.6900 C   0  0  0  0  0  3  0  0  0  0  0  0
  185.6100  177.7750  142.3450 C   0  0  0  0  0  0  0  0  0  0  0  0
  184.5010  178.2860  145.6710 C   0  0  0  0  0  3  0  0  0  0  0  0
  186.5170  177.3310  140.4100 N   0  0  0  0  0  0  0  0  0  0  0  0
  185.4060  177.9150  140.1010 C   0  0  0  0  0  3  0  0  0  0  0  0
  184.6490  178.2910  141.3340 C   0  0  0  0  0  3  0  0  0  0  0  0
  186.6470  177.2420  141.7970 N   0  0  0  0  0  2  0  0  0  0  0  0
  184.3580  178.3860  144.3350 N   0  0  0  0  0  0  0  0  0  0  0  0
  185.7130  177.6680  145.9120 C   0  0  0  0  0  0  0  0  0  0  0  0
  188.7600  173.9790  141.0610 C   0  0  0  0  0  2  0  0  0  0  0  0
  189.7170  172.5620  139.9610 C   0  0  0  0  0  2  0  0  0  0  0  0
  190.1590  173.5880  140.9010 N   0  0  0  0  0  0  0  0  0  0  0  0
  188.2620  172.9410  140.0850 C   0  0  0  0  0  2  0  0  0  0  0  0
  192.0210  172.6400  142.0760 N   0  0  0  0  0  2  0  0  0  0  0  0
  192.6190  173.6610  141.2310 C   0  0  0  0  0  2  0  0  0  0  0  0
  193.8700  174.2490  141.8770 C   0  0  1  0  0  3  0  0  0  0  0  0
  194.2790  173.5010  143.1540 C   0  0  0  0  0  2  0  0  0  0  0  0
  194.9760  174.7280  145.2540 C   0  0  0  0  0  0  0  0  0  0  0  0
  196.1820  174.4030  145.0870 O   0  0  0  0  0  0  0  0  0  0  0  0
  193.9720  174.2990  144.3330 N   0  0  0  0  0  2  0  0  0  0  0  0
  194.5990  175.5920  146.4040 C   0  0  0  0  0  2  0  0  0  0  0  0
  193.2240  177.3500  145.3350 C   0  0  0  0  0  1  0  0  0  0  0  0
  194.5660  177.0430  145.9670 C   0  0  0  0  0  2  0  0  0  0  0  0
  194.9550  174.3910  140.8940 N   0  0  0  0  0  0  0  0  0  0  0  0
  195.0600  173.6080  138.8490 C   0  0  0  0  0  1  0  0  0  0  0  0
  195.1220  173.2340  140.1950 O   0  0  0  0  0  0  0  0  0  0  0  0
  196.1960  174.7440  141.6010 C   0  0  0  0  0  3  0  0  0  0  0  0
  197.4090  173.9530  141.1130 C   0  0  0  0  0  2  0  0  0  0  0  0
  197.8580  173.0970  142.1190 O   0  0  0  0  0  1  0  0  0  0  0  0
  196.3880  176.8220  142.7600 O   0  0  0  0  0  1  0  0  0  0  0  0
  196.4590  176.2390  141.4960 C   0  0  0  0  0  2  0  0  0  0  0  0
  1 26  1  6  0  0  0
  1  2  1  0  0  0  0
  2  5  2  0  0  0  0
  2  4  1  0  0  0  0
  3  7  1  0  0  0  0
  4  3  1  0  0  0  0
  5  6  1  0  0  0  0
  6  3  2  0  0  0  0
  7  9  1  0  0  0  0
  7  8  1  1  0  0  0
  9 10  3  0  0  0  0
 10 11  1  0  0  0  0
 12 20  1  0  0  0  0
 12 13  1  0  0  0  0
 13 21  2  0  0  0  0
 14 12  1  0  0  0  0
 15 21  1  0  0  0  0
 16 19  1  0  0  0  0
 17 16  2  0  0  0  0
 17 18  1  0  0  0  0
 18 14  2  0  0  0  0
 19 14  1  0  0  0  0
 20 15  2  0  0  0  0
 21 11  1  0  0  0  0
 23 25  1  0  0  0  0
 23 24  1  0  0  0  0
 24 22  1  0  0  0  0
 24  1  1  0  0  0  0
 25 22  1  0  0  0  0
 27 26  1  0  0  0  0
 28 27  1  6  0  0  0
 28 29  1  0  0  0  0
 29 32  1  0  0  0  0
 30 33  1  0  0  0  0
 31 30  2  0  0  0  0
 32 30  1  0  0  0  0
 34 35  1  0  0  0  0
 35 33  1  0  0  0  0
 36 39  1  0  0  0  0
 36 28  1  0  0  0  0
 37 38  1  0  0  0  0
 38 36  1  0  0  0  0
 40 39  1  0  0  0  0
 40 41  1  0  0  0  0
 43 39  1  0  0  0  0
 43 42  1  0  0  0  0
M  END
>  <MODEL>
9

>  <REMARK>
 VINA RESULT:      -5.5      1.533      3.286
  Name = 
  18 active torsions:
  status: ('A' for Active; 'I' for Inactive)
    1  A    between atoms: C_3  and  C_9
    2  A    between atoms: C_3  and  C_22
    3  A    between atoms: C_5  and  C_42
    4  A    between atoms: C_8  and  C_35
    5  A    between atoms: C_12  and  N_24
    6  A    between atoms: C_12  and  C_27
    7  A    between atoms: C_13  and  C_39
    8  A    between atoms: C_14  and  C_21
    9  A    between atoms: C_14  and  C_41
   10  A    between atoms: C_15  and  C_42
   11  A    between atoms: C_18  and  C_39
   12  A    between atoms: N_23  and  C_35
   13  A    between atoms: N_24  and  C_35
   14  A    between atoms: C_27  and  N_28
   15  A    between atoms: C_27  and  C_43
   16  A    between atoms: N_28  and  O_37
   17  A    between atoms: N_28  and  C_42
   18  A    between atoms: N_32  and  C_43
                            x       y       z     vdW  Elec       q    Type
                         _______ _______ _______ _____ _____    ______ ____

>  <TORSDO>
F 18

$$$$
