=
 OpenBabel11042416503D

 29 32  0  0  1  0  0  0  0  0999 V2000
  189.7190  177.1280  142.7900 C   0  0  2  0  0  3  0  0  0  0  0  0
  189.7170  175.6120  142.8940 C   0  0  2  0  0  3  0  0  0  0  0  0
  191.1790  177.1940  142.7020 N   0  0  2  0  0  0  0  0  0  0  0  0
  189.3050  177.8480  144.0670 C   0  0  2  0  0  3  0  0  0  0  0  0
  190.5260  177.9090  144.9420 C   0  0  0  0  0  2  0  0  0  0  0  0
  191.2230  175.7360  142.7830 C   0  0  0  0  0  2  0  0  0  0  0  0
  191.6810  177.7300  143.9720 C   0  0  0  0  0  2  0  0  0  0  0  0
  188.1980  176.4810  145.6950 C   0  0  0  0  0  0  0  0  0  0  0  0
  188.3540  175.6120  146.6530 C   0  0  0  0  0  3  0  0  0  0  0  0
  188.0430  177.3550  144.7330 C   0  0  0  0  0  0  0  0  0  0  0  0
  186.0090  178.7860  145.1170 C   0  0  0  0  0  3  0  0  0  0  0  0
  184.7270  179.2160  144.7660 C   0  0  0  0  0  3  0  0  0  0  0  0
  184.7340  177.6970  142.8850 C   0  0  0  0  0  3  0  0  0  0  0  0
  186.6760  177.8090  144.3540 C   0  0  0  0  0  0  0  0  0  0  0  0
  182.8170  179.1000  143.2990 O   0  0  0  0  0  1  0  0  0  0  0  0
  184.0900  178.6720  143.6490 C   0  0  0  0  0  0  0  0  0  0  0  0
  186.0180  177.2700  143.2350 C   0  0  0  0  0  3  0  0  0  0  0  0
  189.7110  175.3510  147.2040 C   0  0  0  0  0  2  0  0  0  0  0  0
  191.7850  174.9420  146.4090 O   0  0  0  0  0  1  0  0  0  0  0  0
  190.4900  174.5770  146.2530 N   0  0  0  0  0  2  0  0  0  0  0  0
  188.1350  175.5340  141.0880 O   0  0  0  0  0  0  0  0  0  0  0  0
  189.1170  174.9910  141.6660 C   0  0  0  0  0  0  0  0  0  0  0  0
  190.7180  171.8490  139.5620 S   0  0  0  0  0  0  0  0  0  0  0  0
  190.5440  171.6620  141.3030 N   0  0  0  0  0  0  0  0  0  0  0  0
  189.8280  173.4400  139.6870 C   0  0  1  0  0  3  0  0  0  0  0  0
  188.2310  173.2630  138.9160 Cl  0  0  0  0  0  0  0  0  0  0  0  0
  190.0020  172.7700  141.9480 N   0  0  0  0  0  0  0  0  0  0  0  0
  189.6560  173.7210  141.1500 C   0  0  0  0  0  0  0  0  0  0  0  0
  190.5790  170.3620  141.9430 C   0  0  0  0  0  1  0  0  0  0  0  0
  1  2  1  0  0  0  0
  1  4  1  0  0  0  0
  3  6  1  0  0  0  0
  3  1  1  0  0  0  0
  3  7  1  0  0  0  0
  4 10  1  0  0  0  0
  4  5  1  0  0  0  0
  6  2  1  0  0  0  0
  7  5  1  0  0  0  0
  8  9  2  0  0  0  0
  9 18  1  0  0  0  0
 10  8  2  0  0  0  0
 12 11  1  0  0  0  0
 13 17  2  0  0  0  0
 13 16  1  0  0  0  0
 14 10  1  0  0  0  0
 14 11  2  0  0  0  0
 15 16  1  0  0  0  0
 16 12  2  0  0  0  0
 17 14  1  0  0  0  0
 20 19  1  0  0  0  0
 20 18  1  0  0  0  0
 21 22  2  0  0  0  0
 22  2  1  0  0  0  0
 23 25  1  0  0  0  0
 23 24  1  0  0  0  0
 24 29  1  0  0  0  0
 24 27  1  0  0  0  0
 25 28  1  0  0  0  0
 26 25  1  0  0  0  0
 28 22  1  0  0  0  0
 28 27  2  0  0  0  0
M  END
>  <MODEL>
1

>  <REMARK>
 VINA RESULT:      -7.0      0.000      0.000
  Name = 
  6 active torsions:
  status: ('A' for Active; 'I' for Inactive)
    1  A    between atoms: C_3  and  C_19
    2  A    between atoms: C_3  and  N_24
    3  A    between atoms: C_6  and  C_9
    4  A    between atoms: C_6  and  C_26
    5  A    between atoms: C_16  and  C_21
    6  A    between atoms: C_17  and  C_21
                            x       y       z     vdW  Elec       q    Type
                         _______ _______ _______ _____ _____    ______ ____

>  <TORSDO>
F 6

$$$$
=
 OpenBabel11042416503D

 29 32  0  0  1  0  0  0  0  0999 V2000
  189.6850  176.5560  142.4870 C   0  0  2  0  0  3  0  0  0  0  0  0
  189.5080  175.1850  143.1180 C   0  0  2  0  0  3  0  0  0  0  0  0
  191.1230  176.5780  142.7610 N   0  0  2  0  0  0  0  0  0  0  0  0
  189.0530  177.6980  143.2720 C   0  0  2  0  0  3  0  0  0  0  0  0
  190.0300  178.0720  144.3520 C   0  0  0  0  0  2  0  0  0  0  0  0
  191.0020  175.2520  143.3630 C   0  0  0  0  0  2  0  0  0  0  0  0
  191.3590  177.5420  143.8420 C   0  0  0  0  0  2  0  0  0  0  0  0
  187.4590  177.0520  144.9420 C   0  0  0  0  0  0  0  0  0  0  0  0
  187.2950  176.6170  146.1580 C   0  0  0  0  0  3  0  0  0  0  0  0
  187.6260  177.4920  143.7200 C   0  0  0  0  0  0  0  0  0  0  0  0
  185.1580  177.8820  143.4230 C   0  0  0  0  0  3  0  0  0  0  0  0
  184.0430  178.1330  142.6200 C   0  0  0  0  0  3  0  0  0  0  0  0
  185.4580  178.1370  140.6600 C   0  0  0  0  0  3  0  0  0  0  0  0
  186.4410  177.7600  142.8580 C   0  0  0  0  0  0  0  0  0  0  0  0
  183.0860  178.5140  140.4400 O   0  0  0  0  0  1  0  0  0  0  0  0
  184.1930  178.2620  141.2380 C   0  0  0  0  0  0  0  0  0  0  0  0
  186.5730  177.8880  141.4650 C   0  0  0  0  0  3  0  0  0  0  0  0
  188.4470  176.5930  147.1000 C   0  0  0  0  0  2  0  0  0  0  0  0
  188.9390  174.4370  147.5560 O   0  0  0  0  0  1  0  0  0  0  0  0
  189.3220  175.4800  146.7800 N   0  0  0  0  0  2  0  0  0  0  0  0
  188.1560  174.3210  141.3300 O   0  0  0  0  0  0  0  0  0  0  0  0
  189.1580  174.1580  142.0810 C   0  0  0  0  0  0  0  0  0  0  0  0
  190.8290  170.4070  142.1190 S   0  0  0  0  0  0  0  0  0  0  0  0
  191.5870  171.6290  141.1050 N   0  0  0  0  0  0  0  0  0  0  0  0
  189.7180  171.7010  142.7740 C   0  0  1  0  0  3  0  0  0  0  0  0
  190.1410  172.0080  144.4770 Cl  0  0  0  0  0  0  0  0  0  0  0  0
  190.9610  172.8710  141.1380 N   0  0  0  0  0  0  0  0  0  0  0  0
  189.9700  172.9360  141.9590 C   0  0  0  0  0  0  0  0  0  0  0  0
  192.9410  171.4820  140.6080 C   0  0  0  0  0  1  0  0  0  0  0  0
  1  3  1  0  0  0  0
  1  2  1  0  0  0  0
  1  4  1  0  0  0  0
  2  6  1  0  0  0  0
  3  6  1  0  0  0  0
  3  7  1  0  0  0  0
  4 10  1  0  0  0  0
  4  5  1  0  0  0  0
  7  5  1  0  0  0  0
  8  9  2  0  0  0  0
  9 18  1  0  0  0  0
 10  8  2  0  0  0  0
 12 11  2  0  0  0  0
 13 16  2  0  0  0  0
 13 17  1  0  0  0  0
 14 11  1  0  0  0  0
 14 10  1  0  0  0  0
 15 16  1  0  0  0  0
 16 12  1  0  0  0  0
 17 14  2  0  0  0  0
 20 18  1  0  0  0  0
 20 19  1  0  0  0  0
 21 22  2  0  0  0  0
 22  2  1  0  0  0  0
 23 25  1  0  0  0  0
 24 27  1  0  0  0  0
 24 23  1  0  0  0  0
 25 26  1  0  0  0  0
 27 28  2  0  0  0  0
 28 22  1  0  0  0  0
 28 25  1  0  0  0  0
 29 24  1  0  0  0  0
M  END
>  <MODEL>
2

>  <REMARK>
 VINA RESULT:      -6.8      1.908      2.141
  Name = 
  6 active torsions:
  status: ('A' for Active; 'I' for Inactive)
    1  A    between atoms: C_3  and  C_19
    2  A    between atoms: C_3  and  N_24
    3  A    between atoms: C_6  and  C_9
    4  A    between atoms: C_6  and  C_26
    5  A    between atoms: C_16  and  C_21
    6  A    between atoms: C_17  and  C_21
                            x       y       z     vdW  Elec       q    Type
                         _______ _______ _______ _____ _____    ______ ____

>  <TORSDO>
F 6

$$$$
=
 OpenBabel11042416503D

 29 32  0  0  1  0  0  0  0  0999 V2000
  189.5580  176.6190  143.1150 C   0  0  2  0  0  3  0  0  0  0  0  0
  189.8270  175.1810  143.5270 C   0  0  2  0  0  3  0  0  0  0  0  0
  190.9380  176.8280  142.6730 N   0  0  2  0  0  0  0  0  0  0  0  0
  189.3010  177.5700  144.2770 C   0  0  2  0  0  3  0  0  0  0  0  0
  190.6480  177.9760  144.8070 C   0  0  0  0  0  2  0  0  0  0  0  0
  191.2370  175.4460  143.0400 C   0  0  0  0  0  2  0  0  0  0  0  0
  191.5940  177.7050  143.6500 C   0  0  0  0  0  2  0  0  0  0  0  0
  188.7210  176.2130  146.1660 C   0  0  0  0  0  0  0  0  0  0  0  0
  189.1420  175.3220  147.0180 C   0  0  0  0  0  3  0  0  0  0  0  0
  188.3010  177.1090  145.3090 C   0  0  0  0  0  0  0  0  0  0  0  0
  186.4520  178.6180  144.5100 C   0  0  0  0  0  3  0  0  0  0  0  0
  185.1420  179.0970  144.5810 C   0  0  0  0  0  3  0  0  0  0  0  0
  184.6940  177.5950  146.4220 C   0  0  0  0  0  3  0  0  0  0  0  0
  186.9020  177.6160  145.3900 C   0  0  0  0  0  0  0  0  0  0  0  0
  182.9600  179.0580  145.6060 O   0  0  0  0  0  1  0  0  0  0  0  0
  184.2620  178.5850  145.5360 C   0  0  0  0  0  0  0  0  0  0  0  0
  186.0040  177.1140  146.3480 C   0  0  0  0  0  3  0  0  0  0  0  0
  190.5940  175.0050  147.1050 C   0  0  0  0  0  2  0  0  0  0  0  0
  192.4950  176.2220  147.1810 O   0  0  0  0  0  1  0  0  0  0  0  0
  191.2930  176.0790  147.7900 N   0  0  0  0  0  2  0  0  0  0  0  0
  187.9010  174.4380  142.2990 O   0  0  0  0  0  0  0  0  0  0  0  0
  189.0990  174.2210  142.6310 C   0  0  0  0  0  0  0  0  0  0  0  0
  190.6020  170.4700  141.9050 S   0  0  0  0  0  0  0  0  0  0  0  0
  190.8840  171.7110  140.6910 N   0  0  0  0  0  0  0  0  0  0  0  0
  189.8730  171.7510  142.9850 C   0  0  1  0  0  3  0  0  0  0  0  0
  190.9670  172.0220  144.3660 Cl  0  0  0  0  0  0  0  0  0  0  0  0
  190.3390  172.9530  141.0030 N   0  0  0  0  0  0  0  0  0  0  0  0
  189.7770  173.0010  142.1620 C   0  0  0  0  0  0  0  0  0  0  0  0
  191.9090  171.5730  139.6760 C   0  0  0  0  0  1  0  0  0  0  0  0
  1  2  1  0  0  0  0
  1  4  1  0  0  0  0
  3  6  1  0  0  0  0
  3  1  1  0  0  0  0
  3  7  1  0  0  0  0
  4  5  1  0  0  0  0
  4 10  1  0  0  0  0
  6  2  1  0  0  0  0
  7  5  1  0  0  0  0
  8  9  2  0  0  0  0
  9 18  1  0  0  0  0
 10 14  1  0  0  0  0
 10  8  2  0  0  0  0
 11 12  2  0  0  0  0
 11 14  1  0  0  0  0
 12 16  1  0  0  0  0
 14 17  2  0  0  0  0
 16 15  1  0  0  0  0
 16 13  2  0  0  0  0
 17 13  1  0  0  0  0
 18 20  1  0  0  0  0
 19 20  1  0  0  0  0
 21 22  2  0  0  0  0
 22  2  1  0  0  0  0
 23 25  1  0  0  0  0
 24 27  1  0  0  0  0
 24 23  1  0  0  0  0
 25 26  1  0  0  0  0
 27 28  2  0  0  0  0
 28 22  1  0  0  0  0
 28 25  1  0  0  0  0
 29 24  1  0  0  0  0
M  END
>  <MODEL>
3

>  <REMARK>
 VINA RESULT:      -6.8      1.804      2.043
  Name = 
  6 active torsions:
  status: ('A' for Active; 'I' for Inactive)
    1  A    between atoms: C_3  and  C_19
    2  A    between atoms: C_3  and  N_24
    3  A    between atoms: C_6  and  C_9
    4  A    between atoms: C_6  and  C_26
    5  A    between atoms: C_16  and  C_21
    6  A    between atoms: C_17  and  C_21
                            x       y       z     vdW  Elec       q    Type
                         _______ _______ _______ _____ _____    ______ ____

>  <TORSDO>
F 6

$$$$
=
 OpenBabel11042416503D

 29 32  0  0  1  0  0  0  0  0999 V2000
  188.2890  176.4030  143.2440 C   0  0  2  0  0  3  0  0  0  0  0  0
  189.0080  177.7410  143.2050 C   0  0  2  0  0  3  0  0  0  0  0  0
  187.7710  176.5600  141.8820 N   0  0  2  0  0  0  0  0  0  0  0  0
  187.0920  176.3570  144.1850 C   0  0  2  0  0  3  0  0  0  0  0  0
  185.9330  176.9570  143.4390 C   0  0  0  0  0  2  0  0  0  0  0  0
  188.4600  177.8450  141.7960 C   0  0  0  0  0  2  0  0  0  0  0  0
  186.3310  176.8270  141.9780 C   0  0  0  0  0  2  0  0  0  0  0  0
  186.3960  177.6830  146.0570 C   0  0  0  0  0  0  0  0  0  0  0  0
  185.4750  178.4730  146.5300 C   0  0  0  0  0  3  0  0  0  0  0  0
  187.3190  176.8870  145.5800 C   0  0  0  0  0  0  0  0  0  0  0  0
  188.7300  175.2300  146.8450 C   0  0  0  0  0  3  0  0  0  0  0  0
  189.8450  174.9080  147.6220 C   0  0  0  0  0  3  0  0  0  0  0  0
  190.5520  177.2200  147.5610 C   0  0  0  0  0  3  0  0  0  0  0  0
  188.5110  176.5500  146.4090 C   0  0  0  0  0  0  0  0  0  0  0  0
  191.8660  175.5850  148.7490 O   0  0  0  0  0  1  0  0  0  0  0  0
  190.7570  175.9030  147.9790 C   0  0  0  0  0  0  0  0  0  0  0  0
  189.4370  177.5400  146.7810 C   0  0  0  0  0  3  0  0  0  0  0  0
  184.1740  178.6070  145.8190 C   0  0  0  0  0  2  0  0  0  0  0  0
  183.3710  179.0930  143.7650 O   0  0  0  0  0  1  0  0  0  0  0  0
  184.3380  179.4480  144.6460 N   0  0  0  0  0  2  0  0  0  0  0  0
  191.2710  178.5470  143.2250 O   0  0  0  0  0  0  0  0  0  0  0  0
  190.4970  177.5500  143.2120 C   0  0  0  0  0  0  0  0  0  0  0  0
  191.9200  173.7530  143.8590 S   0  0  0  0  0  0  0  0  0  0  0  0
  191.6980  174.2680  142.1920 N   0  0  0  0  0  0  0  0  0  0  0  0
  191.5080  175.4510  144.3950 C   0  0  1  0  0  3  0  0  0  0  0  0
  192.9780  176.2140  145.0530 Cl  0  0  0  0  0  0  0  0  0  0  0  0
  191.2060  175.5630  142.0520 N   0  0  0  0  0  0  0  0  0  0  0  0
  191.0600  176.1900  143.1690 C   0  0  0  0  0  0  0  0  0  0  0  0
  192.3340  173.5820  141.0850 C   0  0  0  0  0  1  0  0  0  0  0  0
  1  4  1  0  0  0  0
  2 22  1  0  0  0  0
  2  1  1  0  0  0  0
  3  7  1  0  0  0  0
  3  1  1  0  0  0  0
  4 10  1  0  0  0  0
  5  4  1  0  0  0  0
  6  3  1  0  0  0  0
  6  2  1  0  0  0  0
  7  5  1  0  0  0  0
  8  9  2  0  0  0  0
 10  8  2  0  0  0  0
 10 14  1  0  0  0  0
 11 12  1  0  0  0  0
 12 16  2  0  0  0  0
 13 16  1  0  0  0  0
 14 17  1  0  0  0  0
 14 11  2  0  0  0  0
 16 15  1  0  0  0  0
 17 13  2  0  0  0  0
 18  9  1  0  0  0  0
 19 20  1  0  0  0  0
 20 18  1  0  0  0  0
 22 21  2  0  0  0  0
 23 25  1  0  0  0  0
 24 23  1  0  0  0  0
 25 26  1  0  0  0  0
 27 24  1  0  0  0  0
 27 28  2  0  0  0  0
 28 22  1  0  0  0  0
 28 25  1  0  0  0  0
 29 24  1  0  0  0  0
M  END
>  <MODEL>
4

>  <REMARK>
 VINA RESULT:      -6.8      2.876      5.521
  Name = 
  6 active torsions:
  status: ('A' for Active; 'I' for Inactive)
    1  A    between atoms: C_3  and  C_19
    2  A    between atoms: C_3  and  N_24
    3  A    between atoms: C_6  and  C_9
    4  A    between atoms: C_6  and  C_26
    5  A    between atoms: C_16  and  C_21
    6  A    between atoms: C_17  and  C_21
                            x       y       z     vdW  Elec       q    Type
                         _______ _______ _______ _____ _____    ______ ____

>  <TORSDO>
F 6

$$$$
=
 OpenBabel11042416503D

 29 32  0  0  1  0  0  0  0  0999 V2000
  186.9380  176.2320  142.7650 C   0  0  2  0  0  3  0  0  0  0  0  0
  188.2920  175.7710  142.2530 C   0  0  2  0  0  3  0  0  0  0  0  0
  186.5310  176.7340  141.4500 N   0  0  2  0  0  0  0  0  0  0  0  0
  186.9940  177.4250  143.7110 C   0  0  2  0  0  3  0  0  0  0  0  0
  187.0860  178.6540  142.8510 C   0  0  0  0  0  2  0  0  0  0  0  0
  187.8140  176.2910  140.9130 C   0  0  0  0  0  2  0  0  0  0  0  0
  186.5480  178.2000  141.5050 C   0  0  0  0  0  2  0  0  0  0  0  0
  187.5090  177.4190  146.0520 C   0  0  0  0  0  0  0  0  0  0  0  0
  187.0250  177.5000  147.2590 C   0  0  0  0  0  3  0  0  0  0  0  0
  187.9940  177.3360  144.8390 C   0  0  0  0  0  0  0  0  0  0  0  0
  190.1400  176.0770  145.2180 C   0  0  0  0  0  3  0  0  0  0  0  0
  191.5130  175.9090  145.0290 C   0  0  0  0  0  3  0  0  0  0  0  0
  191.5710  177.9130  143.6770 C   0  0  0  0  0  3  0  0  0  0  0  0
  189.4590  177.1630  144.6340 C   0  0  0  0  0  0  0  0  0  0  0  0
  193.5940  176.6600  144.0680 O   0  0  0  0  0  1  0  0  0  0  0  0
  192.2290  176.8270  144.2580 C   0  0  0  0  0  0  0  0  0  0  0  0
  190.1960  178.0780  143.8640 C   0  0  0  0  0  3  0  0  0  0  0  0
  185.5550  177.4150  147.4760 C   0  0  0  0  0  2  0  0  0  0  0  0
  184.0540  178.3770  146.0890 O   0  0  0  0  0  1  0  0  0  0  0  0
  184.9260  178.6650  147.0860 N   0  0  0  0  0  2  0  0  0  0  0  0
  187.3470  173.5630  142.2050 O   0  0  0  0  0  0  0  0  0  0  0  0
  188.3890  174.2730  142.2680 C   0  0  0  0  0  0  0  0  0  0  0  0
  191.6490  171.8330  142.8000 S   0  0  0  0  0  0  0  0  0  0  0  0
  191.9150  173.3990  142.0430 N   0  0  0  0  0  0  0  0  0  0  0  0
  189.9140  172.3220  143.1020 C   0  0  1  0  0  3  0  0  0  0  0  0
  189.6830  172.5500  144.8540 Cl  0  0  0  0  0  0  0  0  0  0  0  0
  190.7640  174.1650  141.8900 N   0  0  0  0  0  0  0  0  0  0  0  0
  189.7060  173.6260  142.3900 C   0  0  0  0  0  0  0  0  0  0  0  0
  193.2330  173.9960  141.9580 C   0  0  0  0  0  1  0  0  0  0  0  0
  1  4  1  0  0  0  0
  2 22  1  0  0  0  0
  2  1  1  0  0  0  0
  3  7  1  0  0  0  0
  3  1  1  0  0  0  0
  4 10  1  0  0  0  0
  5  4  1  0  0  0  0
  6  3  1  0  0  0  0
  6  2  1  0  0  0  0
  7  5  1  0  0  0  0
  8  9  2  0  0  0  0
  9 18  1  0  0  0  0
 10  8  2  0  0  0  0
 12 11  1  0  0  0  0
 13 17  2  0  0  0  0
 13 16  1  0  0  0  0
 14 10  1  0  0  0  0
 14 11  2  0  0  0  0
 15 16  1  0  0  0  0
 16 12  2  0  0  0  0
 17 14  1  0  0  0  0
 19 20  1  0  0  0  0
 20 18  1  0  0  0  0
 21 22  2  0  0  0  0
 22 28  1  0  0  0  0
 23 25  1  0  0  0  0
 24 23  1  0  0  0  0
 25 26  1  0  0  0  0
 27 24  1  0  0  0  0
 27 28  2  0  0  0  0
 28 25  1  0  0  0  0
 29 24  1  0  0  0  0
M  END
>  <MODEL>
5

>  <REMARK>
 VINA RESULT:      -6.8      2.703      4.917
  Name = 
  6 active torsions:
  status: ('A' for Active; 'I' for Inactive)
    1  A    between atoms: C_3  and  C_19
    2  A    between atoms: C_3  and  N_24
    3  A    between atoms: C_6  and  C_9
    4  A    between atoms: C_6  and  C_26
    5  A    between atoms: C_16  and  C_21
    6  A    between atoms: C_17  and  C_21
                            x       y       z     vdW  Elec       q    Type
                         _______ _______ _______ _____ _____    ______ ____

>  <TORSDO>
F 6

$$$$
=
 OpenBabel11042416503D

 29 32  0  0  1  0  0  0  0  0999 V2000
  190.2110  176.2390  142.8960 C   0  0  2  0  0  3  0  0  0  0  0  0
  190.3940  175.1740  143.9640 C   0  0  2  0  0  3  0  0  0  0  0  0
  191.6540  176.3800  142.6850 N   0  0  2  0  0  0  0  0  0  0  0  0
  189.6930  177.5730  143.4170 C   0  0  2  0  0  3  0  0  0  0  0  0
  190.8840  178.3180  143.9530 C   0  0  0  0  0  2  0  0  0  0  0  0
  191.8750  175.3480  143.6950 C   0  0  0  0  0  2  0  0  0  0  0  0
  192.0670  177.6660  143.2580 C   0  0  0  0  0  2  0  0  0  0  0  0
  188.7260  177.2090  145.5800 C   0  0  0  0  0  0  0  0  0  0  0  0
  188.9630  176.9090  146.8250 C   0  0  0  0  0  3  0  0  0  0  0  0
  188.4920  177.5130  144.3280 C   0  0  0  0  0  0  0  0  0  0  0  0
  186.5750  177.1240  142.7450 C   0  0  0  0  0  3  0  0  0  0  0  0
  185.2680  177.3670  142.3170 C   0  0  0  0  0  3  0  0  0  0  0  0
  184.9670  178.9340  144.1340 C   0  0  0  0  0  3  0  0  0  0  0  0
  187.0970  177.7780  143.8770 C   0  0  0  0  0  0  0  0  0  0  0  0
  183.1640  178.5120  142.5890 O   0  0  0  0  0  1  0  0  0  0  0  0
  184.4630  178.2710  143.0120 C   0  0  0  0  0  0  0  0  0  0  0  0
  186.2740  178.6870  144.5620 C   0  0  0  0  0  3  0  0  0  0  0  0
  190.3620  176.8970  147.3340 C   0  0  0  0  0  2  0  0  0  0  0  0
  189.6240  174.7810  147.6190 O   0  0  0  0  0  1  0  0  0  0  0  0
  190.7430  175.5430  147.6960 N   0  0  0  0  0  2  0  0  0  0  0  0
  189.6810  172.9060  144.3050 O   0  0  0  0  0  0  0  0  0  0  0  0
  189.8930  173.8420  143.4860 C   0  0  0  0  0  0  0  0  0  0  0  0
  188.6450  173.6290  139.5800 S   0  0  0  0  0  0  0  0  0  0  0  0
  190.2810  173.0960  139.9440 N   0  0  0  0  0  0  0  0  0  0  0  0
  188.3560  173.8300  141.3730 C   0  0  1  0  0  3  0  0  0  0  0  0
  187.2000  172.5820  141.9070 Cl  0  0  0  0  0  0  0  0  0  0  0  0
  190.6350  173.2050  141.2860 N   0  0  0  0  0  0  0  0  0  0  0  0
  189.6790  173.6160  142.0470 C   0  0  0  0  0  0  0  0  0  0  0  0
  191.0380  172.2600  139.0330 C   0  0  0  0  0  1  0  0  0  0  0  0
  1  4  1  0  0  0  0
  1  2  1  0  0  0  0
  3  1  1  0  0  0  0
  3  7  1  0  0  0  0
  3  6  1  0  0  0  0
  4  5  1  0  0  0  0
  4 10  1  0  0  0  0
  6  2  1  0  0  0  0
  7  5  1  0  0  0  0
  8  9  2  0  0  0  0
  9 18  1  0  0  0  0
 10  8  2  0  0  0  0
 11 14  1  0  0  0  0
 12 11  2  0  0  0  0
 12 16  1  0  0  0  0
 13 17  1  0  0  0  0
 14 10  1  0  0  0  0
 14 17  2  0  0  0  0
 15 16  1  0  0  0  0
 16 13  2  0  0  0  0
 18 20  1  0  0  0  0
 19 20  1  0  0  0  0
 22  2  1  0  0  0  0
 22 21  2  0  0  0  0
 23 24  1  0  0  0  0
 23 25  1  0  0  0  0
 24 27  1  0  0  0  0
 25 26  1  0  0  0  0
 25 28  1  0  0  0  0
 27 28  2  0  0  0  0
 28 22  1  0  0  0  0
 29 24  1  0  0  0  0
M  END
>  <MODEL>
6

>  <REMARK>
 VINA RESULT:      -6.8      1.701      2.005
  Name = 
  6 active torsions:
  status: ('A' for Active; 'I' for Inactive)
    1  A    between atoms: C_3  and  C_19
    2  A    between atoms: C_3  and  N_24
    3  A    between atoms: C_6  and  C_9
    4  A    between atoms: C_6  and  C_26
    5  A    between atoms: C_16  and  C_21
    6  A    between atoms: C_17  and  C_21
                            x       y       z     vdW  Elec       q    Type
                         _______ _______ _______ _____ _____    ______ ____

>  <TORSDO>
F 6

$$$$
=
 OpenBabel11042416503D

 29 32  0  0  1  0  0  0  0  0999 V2000
  190.2440  173.6690  142.2680 C   0  0  2  0  0  3  0  0  0  0  0  0
  188.8480  174.1310  142.6510 C   0  0  2  0  0  3  0  0  0  0  0  0
  189.8190  172.2760  142.1090 N   0  0  2  0  0  0  0  0  0  0  0  0
  191.2570  173.7110  143.4050 C   0  0  2  0  0  3  0  0  0  0  0  0
  191.0620  172.4520  144.2030 C   0  0  0  0  0  2  0  0  0  0  0  0
  188.4590  172.6800  142.4580 C   0  0  0  0  0  2  0  0  0  0  0  0
  190.3640  171.5100  143.2360 C   0  0  0  0  0  2  0  0  0  0  0  0
  192.4270  175.6770  144.1210 C   0  0  0  0  0  0  0  0  0  0  0  0
  193.5340  176.3580  144.0380 C   0  0  0  0  0  3  0  0  0  0  0  0
  191.3140  174.9920  144.2020 C   0  0  0  0  0  0  0  0  0  0  0  0
  189.6170  176.7510  144.7990 C   0  0  0  0  0  3  0  0  0  0  0  0
  188.5660  177.2250  145.5880 C   0  0  0  0  0  3  0  0  0  0  0  0
  188.6420  175.1970  146.9040 C   0  0  0  0  0  3  0  0  0  0  0  0
  190.1930  175.4910  145.0470 C   0  0  0  0  0  0  0  0  0  0  0  0
  187.0320  176.9160  147.4230 O   0  0  0  0  0  1  0  0  0  0  0  0
  188.0780  176.4470  146.6400 C   0  0  0  0  0  0  0  0  0  0  0  0
  189.6920  174.7240  146.1120 C   0  0  0  0  0  3  0  0  0  0  0  0
  194.5480  176.0040  143.0070 C   0  0  0  0  0  2  0  0  0  0  0  0
  195.9330  175.3450  144.6650 O   0  0  0  0  0  1  0  0  0  0  0  0
  195.8830  176.1340  143.5640 N   0  0  0  0  0  2  0  0  0  0  0  0
  188.5520  174.8270  140.3710 O   0  0  0  0  0  0  0  0  0  0  0  0
  188.2630  175.0120  141.5860 C   0  0  0  0  0  0  0  0  0  0  0  0
  185.9830  178.4080  141.9450 S   0  0  0  0  0  0  0  0  0  0  0  0
  185.7190  177.1200  143.1130 N   0  0  0  0  0  0  0  0  0  0  0  0
  187.3940  177.4570  141.2780 C   0  0  1  0  0  3  0  0  0  0  0  0
  188.9020  178.3160  141.6830 Cl  0  0  0  0  0  0  0  0  0  0  0  0
  186.5220  176.0000  142.9230 N   0  0  0  0  0  0  0  0  0  0  0  0
  187.3720  176.1220  141.9620 C   0  0  0  0  0  0  0  0  0  0  0  0
  185.0380  177.3530  144.3720 C   0  0  0  0  0  1  0  0  0  0  0  0
  1  2  1  0  0  0  0
  1  4  1  0  0  0  0
  3  1  1  0  0  0  0
  3  6  1  0  0  0  0
  3  7  1  0  0  0  0
  4 10  1  0  0  0  0
  4  5  1  0  0  0  0
  6  2  1  0  0  0  0
  7  5  1  0  0  0  0
  8 10  2  0  0  0  0
  9  8  2  0  0  0  0
 10 14  1  0  0  0  0
 11 14  2  0  0  0  0
 11 12  1  0  0  0  0
 12 16  2  0  0  0  0
 14 17  1  0  0  0  0
 16 13  1  0  0  0  0
 16 15  1  0  0  0  0
 17 13  2  0  0  0  0
 18 20  1  0  0  0  0
 18  9  1  0  0  0  0
 20 19  1  0  0  0  0
 21 22  2  0  0  0  0
 22 28  1  0  0  0  0
 22  2  1  0  0  0  0
 23 24  1  0  0  0  0
 24 29  1  0  0  0  0
 25 26  1  0  0  0  0
 25 23  1  0  0  0  0
 25 28  1  0  0  0  0
 27 24  1  0  0  0  0
 28 27  2  0  0  0  0
M  END
>  <MODEL>
7

>  <REMARK>
 VINA RESULT:      -6.7      3.226      5.326
  Name = 
  6 active torsions:
  status: ('A' for Active; 'I' for Inactive)
    1  A    between atoms: C_3  and  C_19
    2  A    between atoms: C_3  and  N_24
    3  A    between atoms: C_6  and  C_9
    4  A    between atoms: C_6  and  C_26
    5  A    between atoms: C_16  and  C_21
    6  A    between atoms: C_17  and  C_21
                            x       y       z     vdW  Elec       q    Type
                         _______ _______ _______ _____ _____    ______ ____

>  <TORSDO>
F 6

$$$$
=
 OpenBabel11042416503D

 29 32  0  0  1  0  0  0  0  0999 V2000
  187.7280  176.6850  143.2170 C   0  0  2  0  0  3  0  0  0  0  0  0
  189.1220  177.2670  143.0560 C   0  0  2  0  0  3  0  0  0  0  0  0
  187.2220  177.3780  142.0290 N   0  0  2  0  0  0  0  0  0  0  0  0
  186.9570  177.2180  144.4180 C   0  0  2  0  0  3  0  0  0  0  0  0
  186.3580  178.5310  143.9980 C   0  0  0  0  0  2  0  0  0  0  0  0
  188.5520  177.9460  141.8270 C   0  0  0  0  0  2  0  0  0  0  0  0
  186.3360  178.4560  142.4810 C   0  0  0  0  0  2  0  0  0  0  0  0
  187.1320  177.8900  146.7120 C   0  0  0  0  0  0  0  0  0  0  0  0
  186.5700  178.5530  147.6830 C   0  0  0  0  0  3  0  0  0  0  0  0
  187.6930  177.2230  145.7350 C   0  0  0  0  0  0  0  0  0  0  0  0
  189.0230  175.1300  146.1630 C   0  0  0  0  0  3  0  0  0  0  0  0
  190.2340  174.4680  146.3760 C   0  0  0  0  0  3  0  0  0  0  0  0
  191.4130  176.5720  146.2050 C   0  0  0  0  0  3  0  0  0  0  0  0
  188.9880  176.5230  145.9620 C   0  0  0  0  0  0  0  0  0  0  0  0
  192.6340  174.5310  146.6050 O   0  0  0  0  0  1  0  0  0  0  0  0
  191.4290  175.1890  146.3960 C   0  0  0  0  0  0  0  0  0  0  0  0
  190.2000  177.2330  145.9890 C   0  0  0  0  0  3  0  0  0  0  0  0
  185.1680  179.0330  147.5410 C   0  0  0  0  0  2  0  0  0  0  0  0
  183.6920  178.6640  145.8720 O   0  0  0  0  0  1  0  0  0  0  0  0
  184.3710  178.0290  146.8580 N   0  0  0  0  0  2  0  0  0  0  0  0
  191.3510  176.4250  142.7520 O   0  0  0  0  0  0  0  0  0  0  0  0
  190.1110  176.1970  142.6940 C   0  0  0  0  0  0  0  0  0  0  0  0
  188.8020  172.3400  142.1750 S   0  0  0  0  0  0  0  0  0  0  0  0
  188.6710  173.4380  140.8070 N   0  0  0  0  0  0  0  0  0  0  0  0
  189.7030  173.6460  143.0820 C   0  0  1  0  0  3  0  0  0  0  0  0
  191.4020  173.1420  143.2690 Cl  0  0  0  0  0  0  0  0  0  0  0  0
  189.1270  174.7280  141.0600 N   0  0  0  0  0  0  0  0  0  0  0  0
  189.6310  174.8830  142.2360 C   0  0  0  0  0  0  0  0  0  0  0  0
  188.4900  172.9570  139.4510 C   0  0  0  0  0  1  0  0  0  0  0  0
  1  4  1  0  0  0  0
  2  1  1  0  0  0  0
  3  7  1  0  0  0  0
  3  1  1  0  0  0  0
  4 10  1  0  0  0  0
  5  4  1  0  0  0  0
  6  3  1  0  0  0  0
  6  2  1  0  0  0  0
  7  5  1  0  0  0  0
  8  9  2  0  0  0  0
 10 14  1  0  0  0  0
 10  8  2  0  0  0  0
 11 12  1  0  0  0  0
 12 16  2  0  0  0  0
 13 16  1  0  0  0  0
 14 17  1  0  0  0  0
 14 11  2  0  0  0  0
 16 15  1  0  0  0  0
 17 13  2  0  0  0  0
 18  9  1  0  0  0  0
 19 20  1  0  0  0  0
 20 18  1  0  0  0  0
 22 21  2  0  0  0  0
 22  2  1  0  0  0  0
 23 25  1  0  0  0  0
 24 27  1  0  0  0  0
 24 23  1  0  0  0  0
 25 26  1  0  0  0  0
 27 28  2  0  0  0  0
 28 22  1  0  0  0  0
 28 25  1  0  0  0  0
 29 24  1  0  0  0  0
M  END
>  <MODEL>
8

>  <REMARK>
 VINA RESULT:      -6.7      2.524      5.077
  Name = 
  6 active torsions:
  status: ('A' for Active; 'I' for Inactive)
    1  A    between atoms: C_3  and  C_19
    2  A    between atoms: C_3  and  N_24
    3  A    between atoms: C_6  and  C_9
    4  A    between atoms: C_6  and  C_26
    5  A    between atoms: C_16  and  C_21
    6  A    between atoms: C_17  and  C_21
                            x       y       z     vdW  Elec       q    Type
                         _______ _______ _______ _____ _____    ______ ____

>  <TORSDO>
F 6

$$$$
=
 OpenBabel11042416503D

 29 32  0  0  1  0  0  0  0  0999 V2000
  190.9370  174.7220  144.1430 C   0  0  2  0  0  3  0  0  0  0  0  0
  191.5920  175.7800  143.2710 C   0  0  2  0  0  3  0  0  0  0  0  0
  191.3920  173.6270  143.2820 N   0  0  2  0  0  0  0  0  0  0  0  0
  189.4140  174.7290  144.1060 C   0  0  2  0  0  3  0  0  0  0  0  0
  189.0090  173.9650  142.8760 C   0  0  0  0  0  2  0  0  0  0  0  0
  192.0510  174.6090  142.4260 C   0  0  0  0  0  2  0  0  0  0  0  0
  190.2240  173.1100  142.5590 C   0  0  0  0  0  2  0  0  0  0  0  0
  189.0340  176.7100  145.4000 C   0  0  0  0  0  0  0  0  0  0  0  0
  189.3220  177.3460  146.5000 C   0  0  0  0  0  3  0  0  0  0  0  0
  188.7470  176.0700  144.2950 C   0  0  0  0  0  0  0  0  0  0  0  0
  188.3010  177.3470  142.1730 C   0  0  0  0  0  3  0  0  0  0  0  0
  187.4270  177.9150  141.2440 C   0  0  0  0  0  3  0  0  0  0  0  0
  185.5420  177.1660  142.5610 C   0  0  0  0  0  3  0  0  0  0  0  0
  187.8090  176.6740  143.3080 C   0  0  0  0  0  0  0  0  0  0  0  0
  185.1770  178.3860  140.5140 O   0  0  0  0  0  1  0  0  0  0  0  0
  186.0470  177.8240  141.4370 C   0  0  0  0  0  0  0  0  0  0  0  0
  186.4180  176.5950  143.4880 C   0  0  0  0  0  3  0  0  0  0  0  0
  190.4420  176.8740  147.3590 C   0  0  0  0  0  2  0  0  0  0  0  0
  191.5970  174.9570  147.6590 O   0  0  0  0  0  1  0  0  0  0  0  0
  190.3340  175.4400  147.5650 N   0  0  0  0  0  2  0  0  0  0  0  0
  192.5690  177.5140  144.6170 O   0  0  0  0  0  0  0  0  0  0  0  0
  192.7380  176.4310  143.9900 C   0  0  0  0  0  0  0  0  0  0  0  0
  196.1760  174.2150  144.3480 S   0  0  0  0  0  0  0  0  0  0  0  0
  196.1070  175.4110  143.0610 N   0  0  0  0  0  0  0  0  0  0  0  0
  194.5700  174.8370  144.9570 C   0  0  1  0  0  3  0  0  0  0  0  0
  194.8310  175.6660  146.5130 Cl  0  0  0  0  0  0  0  0  0  0  0  0
  194.9090  176.1170  142.9970 N   0  0  0  0  0  0  0  0  0  0  0  0
  194.0770  175.8210  143.9360 C   0  0  0  0  0  0  0  0  0  0  0  0
  197.3010  175.8960  142.3980 C   0  0  0  0  0  1  0  0  0  0  0  0
  2 22  1  0  0  0  0
  2  1  1  0  0  0  0
  3  1  1  0  0  0  0
  4  1  1  0  0  0  0
  4 10  1  0  0  0  0
  5  4  1  0  0  0  0
  6  2  1  0  0  0  0
  6  3  1  0  0  0  0
  7  5  1  0  0  0  0
  7  3  1  0  0  0  0
  8  9  2  0  0  0  0
  9 18  1  0  0  0  0
 10  8  2  0  0  0  0
 11 14  1  0  0  0  0
 12 16  1  0  0  0  0
 12 11  2  0  0  0  0
 13 17  1  0  0  0  0
 14 17  2  0  0  0  0
 14 10  1  0  0  0  0
 15 16  1  0  0  0  0
 16 13  2  0  0  0  0
 18 20  1  0  0  0  0
 20 19  1  0  0  0  0
 22 21  2  0  0  0  0
 23 25  1  0  0  0  0
 24 23  1  0  0  0  0
 25 26  1  0  0  0  0
 27 24  1  0  0  0  0
 27 28  2  0  0  0  0
 28 22  1  0  0  0  0
 28 25  1  0  0  0  0
 29 24  1  0  0  0  0
M  END
>  <MODEL>
9

>  <REMARK>
 VINA RESULT:      -6.7      3.449      4.668
  Name = 
  6 active torsions:
  status: ('A' for Active; 'I' for Inactive)
    1  A    between atoms: C_3  and  C_19
    2  A    between atoms: C_3  and  N_24
    3  A    between atoms: C_6  and  C_9
    4  A    between atoms: C_6  and  C_26
    5  A    between atoms: C_16  and  C_21
    6  A    between atoms: C_17  and  C_21
                            x       y       z     vdW  Elec       q    Type
                         _______ _______ _______ _____ _____    ______ ____

>  <TORSDO>
F 6

$$$$
