=
 OpenBabel11042416303D

 29 31  0  0  0  0  0  0  0  0999 V2000
  188.8910  177.2830  145.9000 C   0  0  0  0  0  0  0  0  0  0  0  0
  188.2460  177.4040  144.6490 C   0  0  0  0  0  0  0  0  0  0  0  0
  184.8590  178.2170  143.3340 C   0  0  0  0  0  0  0  0  0  0  0  0
  186.8480  177.9330  147.0390 C   0  0  0  0  0  0  0  0  0  0  0  0
  186.1830  178.2030  148.2310 O   0  0  0  0  0  1  0  0  0  0  0  0
  188.1890  177.5540  147.0780 C   0  0  0  0  0  3  0  0  0  0  0  0
  186.8830  177.7560  144.6070 C   0  0  0  0  0  0  0  0  0  0  0  0
  184.8320  178.3950  145.7560 C   0  0  0  0  0  3  0  0  0  0  0  0
  186.1830  178.0300  145.8080 C   0  0  0  0  0  0  0  0  0  0  0  0
  184.1740  178.4870  144.5280 C   0  0  0  0  0  3  0  0  0  0  0  0
  186.2080  177.8550  143.3820 C   0  0  0  0  0  3  0  0  0  0  0  0
  184.1970  178.3070  142.0260 C   0  0  0  0  0  3  0  0  0  0  0  0
  182.8790  178.2350  141.8820 C   0  0  0  0  0  3  0  0  0  0  0  0
  182.2710  178.3350  140.5270 C   0  0  0  0  0  2  0  0  0  0  0  0
  180.3710  180.4730  140.5080 O   0  0  0  0  0  0  0  0  0  0  0  0
  179.9310  179.2970  140.6120 C   0  0  0  0  0  0  0  0  0  0  0  0
  178.5310  179.0750  140.7220 N   0  0  0  0  0  1  0  0  0  0  0  0
  180.8260  178.1830  140.6150 N   0  0  0  0  0  2  0  0  0  0  0  0
  190.2520  176.8230  146.0140 C   0  0  0  0  0  0  0  0  0  0  0  0
  191.3910  176.4390  146.1070 C   0  0  0  0  0  3  0  0  0  0  0  0
  188.9400  177.1210  143.4200 N   0  0  0  0  0  2  0  0  0  0  0  0
  188.2650  174.8780  140.4800 N   0  0  0  0  0  0  0  0  0  0  0  0
  188.9050  172.8540  141.6960 C   0  0  0  0  0  3  0  0  0  0  0  0
  188.2110  172.4850  139.1810 Cl  0  0  0  0  0  0  0  0  0  0  0  0
  189.1890  174.6800  143.4110 C   0  0  0  0  0  3  0  0  0  0  0  0
  188.4980  173.4740  140.5950 C   0  0  0  0  0  0  0  0  0  0  0  0
  188.4360  175.9560  141.4020 C   0  0  0  0  0  2  0  0  0  0  0  0
  189.2110  173.4130  143.0120 C   0  0  0  0  0  3  0  0  0  0  0  0
  188.8560  175.9010  142.6700 C   0  0  0  0  0  0  0  0  0  0  0  0
  1 19  1  0  0  0  0
  1  6  1  0  0  0  0
  2  1  2  0  0  0  0
  3 11  2  0  0  0  0
  3 10  1  0  0  0  0
  4  6  2  0  0  0  0
  4  5  1  0  0  0  0
  7  2  1  0  0  0  0
  7  9  2  0  0  0  0
  8  9  1  0  0  0  0
  9  4  1  0  0  0  0
 10  8  2  0  0  0  0
 11  7  1  0  0  0  0
 12  3  1  0  0  0  0
 13 12  2  0  0  0  0
 14 18  1  0  0  0  0
 14 13  1  0  0  0  0
 15 16  2  0  0  0  0
 16 18  1  0  0  0  0
 16 17  1  0  0  0  0
 19 20  3  0  0  0  0
 21  2  1  0  0  0  0
 22 26  2  0  0  0  0
 22 27  1  0  0  0  0
 23 28  2  0  0  0  0
 24 26  1  0  0  0  0
 26 23  1  0  0  0  0
 27 29  1  0  0  0  0
 28 25  1  0  0  0  0
 29 25  2  0  0  0  0
 29 21  1  0  0  0  0
M  END
>  <MODEL>
1

>  <REMARK>
 VINA RESULT:      -7.8      0.000      0.000
  Name = 
  6 active torsions:
  status: ('A' for Active; 'I' for Inactive)
    1  A    between atoms: C_1  and  C_9
    2  A    between atoms: C_2  and  N_14
    3  A    between atoms: C_4  and  C_11
    4  A    between atoms: C_4  and  N_27
    5  A    between atoms: C_5  and  C_7
    6  A    between atoms: N_14  and  C_28
                            x       y       z     vdW  Elec       q    Type
                         _______ _______ _______ _____ _____    ______ ____

>  <TORSDO>
F 6

$$$$
=
 OpenBabel11042416303D

 29 31  0  0  0  0  0  0  0  0999 V2000
  185.4800  178.0580  142.8950 C   0  0  0  0  0  0  0  0  0  0  0  0
  186.7700  177.7280  143.3670 C   0  0  0  0  0  0  0  0  0  0  0  0
  188.5660  177.5110  146.6210 C   0  0  0  0  0  0  0  0  0  0  0  0
  184.7100  178.4000  145.1710 C   0  0  0  0  0  0  0  0  0  0  0  0
  183.6740  178.7210  146.0430 O   0  0  0  0  0  1  0  0  0  0  0  0
  184.4660  178.3840  143.7990 C   0  0  0  0  0  3  0  0  0  0  0  0
  187.0290  177.7740  144.7510 C   0  0  0  0  0  0  0  0  0  0  0  0
  186.2540  178.1310  147.0330 C   0  0  0  0  0  3  0  0  0  0  0  0
  185.9910  178.1030  145.6580 C   0  0  0  0  0  0  0  0  0  0  0  0
  187.5330  177.8380  147.5120 C   0  0  0  0  0  3  0  0  0  0  0  0
  188.3070  177.4800  145.2490 C   0  0  0  0  0  3  0  0  0  0  0  0
  189.9210  177.1950  147.0920 C   0  0  0  0  0  3  0  0  0  0  0  0
  190.7320  176.3670  146.4450 C   0  0  0  0  0  3  0  0  0  0  0  0
  192.0940  176.0910  146.9750 C   0  0  0  0  0  2  0  0  0  0  0  0
  194.5760  177.4980  146.7650 O   0  0  0  0  0  0  0  0  0  0  0  0
  194.2630  176.7150  145.8290 C   0  0  0  0  0  0  0  0  0  0  0  0
  195.1340  176.5640  144.7150 N   0  0  0  0  0  1  0  0  0  0  0  0
  193.0440  175.9720  145.8780 N   0  0  0  0  0  2  0  0  0  0  0  0
  185.1820  178.1330  141.4870 C   0  0  0  0  0  0  0  0  0  0  0  0
  184.9310  178.1960  140.3100 C   0  0  0  0  0  3  0  0  0  0  0  0
  187.8370  177.3990  142.4600 N   0  0  0  0  0  2  0  0  0  0  0  0
  188.0880  174.6940  139.8610 N   0  0  0  0  0  0  0  0  0  0  0  0
  188.8780  173.0270  141.4680 C   0  0  0  0  0  3  0  0  0  0  0  0
  188.6950  172.1910  138.9760 Cl  0  0  0  0  0  0  0  0  0  0  0  0
  188.5300  175.0840  142.8840 C   0  0  0  0  0  3  0  0  0  0  0  0
  188.5540  173.3970  140.2360 C   0  0  0  0  0  0  0  0  0  0  0  0
  187.9010  175.8970  140.6090 C   0  0  0  0  0  2  0  0  0  0  0  0
  188.8520  173.8070  142.7040 C   0  0  0  0  0  3  0  0  0  0  0  0
  188.1050  176.0990  141.9150 C   0  0  0  0  0  0  0  0  0  0  0  0
  1  2  2  0  0  0  0
  1  6  1  0  0  0  0
  2  7  1  0  0  0  0
  3 12  1  0  0  0  0
  3 10  1  0  0  0  0
  4  9  1  0  0  0  0
  4  5  1  0  0  0  0
  6  4  2  0  0  0  0
  7 11  1  0  0  0  0
  7  9  2  0  0  0  0
  8 10  2  0  0  0  0
  9  8  1  0  0  0  0
 11  3  2  0  0  0  0
 13 14  1  0  0  0  0
 13 12  2  0  0  0  0
 16 18  1  0  0  0  0
 16 15  2  0  0  0  0
 17 16  1  0  0  0  0
 18 14  1  0  0  0  0
 19  1  1  0  0  0  0
 20 19  3  0  0  0  0
 21  2  1  0  0  0  0
 22 26  2  0  0  0  0
 22 27  1  0  0  0  0
 23 28  2  0  0  0  0
 24 26  1  0  0  0  0
 26 23  1  0  0  0  0
 27 29  1  0  0  0  0
 28 25  1  0  0  0  0
 29 21  1  0  0  0  0
 29 25  2  0  0  0  0
M  END
>  <MODEL>
2

>  <REMARK>
 VINA RESULT:      -7.7      2.949      7.235
  Name = 
  6 active torsions:
  status: ('A' for Active; 'I' for Inactive)
    1  A    between atoms: C_1  and  C_9
    2  A    between atoms: C_2  and  N_14
    3  A    between atoms: C_4  and  C_11
    4  A    between atoms: C_4  and  N_27
    5  A    between atoms: C_5  and  C_7
    6  A    between atoms: N_14  and  C_28
                            x       y       z     vdW  Elec       q    Type
                         _______ _______ _______ _____ _____    ______ ____

>  <TORSDO>
F 6

$$$$
=
 OpenBabel11042416303D

 29 31  0  0  0  0  0  0  0  0999 V2000
  185.6950  177.9100  142.7540 C   0  0  0  0  0  0  0  0  0  0  0  0
  186.9540  177.5980  143.3140 C   0  0  0  0  0  0  0  0  0  0  0  0
  188.5580  177.5150  146.6730 C   0  0  0  0  0  0  0  0  0  0  0  0
  184.7950  178.3470  144.9650 C   0  0  0  0  0  0  0  0  0  0  0  0
  183.7120  178.7050  145.7610 O   0  0  0  0  0  1  0  0  0  0  0  0
  184.6310  178.2740  143.5830 C   0  0  0  0  0  3  0  0  0  0  0  0
  187.1330  177.7020  144.7070 C   0  0  0  0  0  0  0  0  0  0  0  0
  186.2280  178.1550  146.9230 C   0  0  0  0  0  3  0  0  0  0  0  0
  186.0450  178.0700  145.5370 C   0  0  0  0  0  0  0  0  0  0  0  0
  187.4750  177.8800  147.4880 C   0  0  0  0  0  3  0  0  0  0  0  0
  188.3790  177.4270  145.2900 C   0  0  0  0  0  3  0  0  0  0  0  0
  189.8820  177.2180  147.2350 C   0  0  0  0  0  3  0  0  0  0  0  0
  190.7640  176.4400  146.6200 C   0  0  0  0  0  3  0  0  0  0  0  0
  192.0910  176.1800  147.2430 C   0  0  0  0  0  2  0  0  0  0  0  0
  194.5800  177.4940  146.7310 O   0  0  0  0  0  0  0  0  0  0  0  0
  194.2780  176.5040  146.0120 C   0  0  0  0  0  0  0  0  0  0  0  0
  195.1650  176.0850  144.9820 N   0  0  0  0  0  1  0  0  0  0  0  0
  193.0560  175.7960  146.2240 N   0  0  0  0  0  2  0  0  0  0  0  0
  185.4790  177.9260  141.3290 C   0  0  0  0  0  0  0  0  0  0  0  0
  185.2990  177.9390  140.1370 C   0  0  0  0  0  3  0  0  0  0  0  0
  188.0710  177.2310  142.4840 N   0  0  0  0  0  2  0  0  0  0  0  0
  190.6950  174.5510  142.2230 N   0  0  0  0  0  0  0  0  0  0  0  0
  189.0450  172.7640  141.9550 C   0  0  0  0  0  3  0  0  0  0  0  0
  191.5610  171.9790  141.9960 Cl  0  0  0  0  0  0  0  0  0  0  0  0
  187.6300  174.8430  142.1300 C   0  0  0  0  0  3  0  0  0  0  0  0
  190.2980  173.1890  142.0650 C   0  0  0  0  0  0  0  0  0  0  0  0
  189.9420  175.7580  142.3580 C   0  0  0  0  0  2  0  0  0  0  0  0
  187.8040  173.5360  141.9690 C   0  0  0  0  0  3  0  0  0  0  0  0
  188.6140  175.9100  142.3430 C   0  0  0  0  0  0  0  0  0  0  0  0
  1  2  2  0  0  0  0
  1  6  1  0  0  0  0
  2  7  1  0  0  0  0
  3 12  1  0  0  0  0
  3 10  1  0  0  0  0
  4  9  1  0  0  0  0
  4  5  1  0  0  0  0
  6  4  2  0  0  0  0
  7 11  1  0  0  0  0
  7  9  2  0  0  0  0
  8 10  2  0  0  0  0
  9  8  1  0  0  0  0
 11  3  2  0  0  0  0
 13 12  2  0  0  0  0
 13 14  1  0  0  0  0
 16 18  1  0  0  0  0
 16 15  2  0  0  0  0
 17 16  1  0  0  0  0
 18 14  1  0  0  0  0
 19  1  1  0  0  0  0
 20 19  3  0  0  0  0
 21  2  1  0  0  0  0
 22 27  1  0  0  0  0
 23 28  2  0  0  0  0
 23 26  1  0  0  0  0
 24 26  1  0  0  0  0
 25 29  2  0  0  0  0
 26 22  2  0  0  0  0
 28 25  1  0  0  0  0
 29 27  1  0  0  0  0
 29 21  1  0  0  0  0
M  END
>  <MODEL>
3

>  <REMARK>
 VINA RESULT:      -7.6      3.221      7.364
  Name = 
  6 active torsions:
  status: ('A' for Active; 'I' for Inactive)
    1  A    between atoms: C_1  and  C_9
    2  A    between atoms: C_2  and  N_14
    3  A    between atoms: C_4  and  C_11
    4  A    between atoms: C_4  and  N_27
    5  A    between atoms: C_5  and  C_7
    6  A    between atoms: N_14  and  C_28
                            x       y       z     vdW  Elec       q    Type
                         _______ _______ _______ _____ _____    ______ ____

>  <TORSDO>
F 6

$$$$
=
 OpenBabel11042416303D

 29 31  0  0  0  0  0  0  0  0999 V2000
  187.8880  176.6720  146.4560 C   0  0  0  0  0  0  0  0  0  0  0  0
  187.3500  176.6580  145.1500 C   0  0  0  0  0  0  0  0  0  0  0  0
  184.5020  178.1840  143.3000 C   0  0  0  0  0  0  0  0  0  0  0  0
  186.1950  178.2630  147.1590 C   0  0  0  0  0  0  0  0  0  0  0  0
  185.6510  179.0580  148.1630 O   0  0  0  0  0  1  0  0  0  0  0  0
  187.3100  177.4760  147.4420 C   0  0  0  0  0  3  0  0  0  0  0  0
  186.2050  177.4280  144.8680 C   0  0  0  0  0  0  0  0  0  0  0  0
  184.5000  179.0150  145.5820 C   0  0  0  0  0  3  0  0  0  0  0  0
  185.6300  178.2410  145.8760 C   0  0  0  0  0  0  0  0  0  0  0  0
  183.9390  178.9870  144.3040 C   0  0  0  0  0  3  0  0  0  0  0  0
  185.6300  177.4120  143.5880 C   0  0  0  0  0  3  0  0  0  0  0  0
  183.9380  178.1330  141.9450 C   0  0  0  0  0  3  0  0  0  0  0  0
  182.6360  178.2330  141.7040 C   0  0  0  0  0  3  0  0  0  0  0  0
  182.1300  178.1750  140.3060 C   0  0  0  0  0  2  0  0  0  0  0  0
  180.3580  180.4190  140.4320 O   0  0  0  0  0  0  0  0  0  0  0  0
  179.8470  179.2680  140.3800 C   0  0  0  0  0  0  0  0  0  0  0  0
  178.4330  179.1240  140.3940 N   0  0  0  0  0  1  0  0  0  0  0  0
  180.6760  178.1060  140.3030 N   0  0  0  0  0  2  0  0  0  0  0  0
  188.9910  175.8260  146.8340 C   0  0  0  0  0  0  0  0  0  0  0  0
  189.9150  175.1190  147.1490 C   0  0  0  0  0  3  0  0  0  0  0  0
  187.9170  175.8320  144.1170 N   0  0  0  0  0  2  0  0  0  0  0  0
  191.2210  174.6000  142.8130 N   0  0  0  0  0  0  0  0  0  0  0  0
  192.1660  176.8520  142.6740 C   0  0  0  0  0  3  0  0  0  0  0  0
  193.7500  174.9130  141.8540 Cl  0  0  0  0  0  0  0  0  0  0  0  0
  189.8520  177.2460  143.5920 C   0  0  0  0  0  3  0  0  0  0  0  0
  192.2500  175.5390  142.5010 C   0  0  0  0  0  0  0  0  0  0  0  0
  189.8890  174.7670  143.3040 C   0  0  0  0  0  2  0  0  0  0  0  0
  191.0550  177.6460  143.1970 C   0  0  0  0  0  3  0  0  0  0  0  0
  189.2640  175.9030  143.6280 C   0  0  0  0  0  0  0  0  0  0  0  0
  1 19  1  0  0  0  0
  1  6  1  0  0  0  0
  2  1  2  0  0  0  0
  3 11  2  0  0  0  0
  3 10  1  0  0  0  0
  4  6  2  0  0  0  0
  4  5  1  0  0  0  0
  7  2  1  0  0  0  0
  7  9  2  0  0  0  0
  8  9  1  0  0  0  0
  9  4  1  0  0  0  0
 10  8  2  0  0  0  0
 11  7  1  0  0  0  0
 12  3  1  0  0  0  0
 13 12  2  0  0  0  0
 14 13  1  0  0  0  0
 16 17  1  0  0  0  0
 16 15  2  0  0  0  0
 18 14  1  0  0  0  0
 18 16  1  0  0  0  0
 19 20  3  0  0  0  0
 21  2  1  0  0  0  0
 22 27  1  0  0  0  0
 23 28  2  0  0  0  0
 24 26  1  0  0  0  0
 25 29  2  0  0  0  0
 26 23  1  0  0  0  0
 26 22  2  0  0  0  0
 27 29  1  0  0  0  0
 28 25  1  0  0  0  0
 29 21  1  0  0  0  0
M  END
>  <MODEL>
4

>  <REMARK>
 VINA RESULT:      -7.4      1.953      2.382
  Name = 
  6 active torsions:
  status: ('A' for Active; 'I' for Inactive)
    1  A    between atoms: C_1  and  C_9
    2  A    between atoms: C_2  and  N_14
    3  A    between atoms: C_4  and  C_11
    4  A    between atoms: C_4  and  N_27
    5  A    between atoms: C_5  and  C_7
    6  A    between atoms: N_14  and  C_28
                            x       y       z     vdW  Elec       q    Type
                         _______ _______ _______ _____ _____    ______ ____

>  <TORSDO>
F 6

$$$$
=
 OpenBabel11042416303D

 29 31  0  0  1  0  0  0  0  0999 V2000
  185.1330  177.8310  142.7610 C   0  0  0  0  0  0  0  0  0  0  0  0
  186.2330  177.0960  143.2560 C   0  0  0  0  0  0  0  0  0  0  0  0
  187.7430  176.2330  146.5480 C   0  0  0  0  0  0  0  0  0  0  0  0
  184.4240  178.3380  145.0260 C   0  0  0  0  0  0  0  0  0  0  0  0
  183.5100  178.9470  145.8800 O   0  0  0  0  0  1  0  0  0  0  0  0
  184.2400  178.4370  143.6480 C   0  0  0  0  0  3  0  0  0  0  0  0
  186.4410  177.0200  144.6470 C   0  0  0  0  0  0  0  0  0  0  0  0
  185.7320  177.5430  146.9190 C   0  0  0  0  0  3  0  0  0  0  0  0
  185.5260  177.6370  145.5360 C   0  0  0  0  0  0  0  0  0  0  0  0
  186.8330  176.8460  147.4220 C   0  0  0  0  0  3  0  0  0  0  0  0
  187.5410  176.3230  145.1690 C   0  0  0  0  0  3  0  0  0  0  0  0
  188.9100  175.4910  147.0440 C   0  0  0  0  0  3  0  0  0  0  0  0
  190.1570  175.9140  146.8690 C   0  0  0  0  0  3  0  0  0  0  0  0
  191.2950  175.1150  147.3980 C   0  0  0  0  0  2  0  0  0  0  0  0
  193.4150  174.0360  145.8090 O   0  0  0  0  0  0  0  0  0  0  0  0
  193.5790  175.1810  146.3090 C   0  0  0  0  0  0  0  0  0  0  0  0
  194.7940  175.8840  146.0780 N   0  0  0  0  0  1  0  0  0  0  0  0
  192.5550  175.7820  147.1030 N   0  0  0  0  0  2  0  0  0  0  0  0
  184.9280  178.0350  141.3490 C   0  0  0  0  0  0  0  0  0  0  0  0
  184.7550  178.2060  140.1680 C   0  0  0  0  0  3  0  0  0  0  0  0
  187.1760  176.4710  142.3670 N   0  0  0  0  0  2  0  0  0  0  0  0
  190.7040  175.1740  142.3810 N   0  0  0  0  0  0  0  0  0  0  0  0
  191.6500  177.3450  142.9940 C   0  0  0  0  0  3  0  0  0  0  0  0
  193.4060  175.4170  142.6190 Cl  0  0  0  0  0  0  0  0  0  0  0  0
  189.1700  177.7900  142.9170 C   0  0  0  0  0  3  0  0  0  0  0  0
  191.7820  176.0640  142.6730 C   0  0  1  0  0  3  0  0  0  0  0  0
  189.2920  175.3760  142.2930 C   0  0  0  0  0  3  0  0  0  0  0  0
  190.4330  178.1450  143.1240 C   0  0  0  0  0  3  0  0  0  0  0  0
  188.6040  176.5030  142.4990 C   0  0  0  0  0  0  0  0  0  0  0  0
  1  2  2  0  0  0  0
  1  6  1  0  0  0  0
  2  7  1  0  0  0  0
  3 12  1  0  0  0  0
  3 10  1  0  0  0  0
  4  9  1  0  0  0  0
  4  5  1  0  0  0  0
  6  4  2  0  0  0  0
  7 11  1  0  0  0  0
  7  9  2  0  0  0  0
  8 10  2  0  0  0  0
  9  8  1  0  0  0  0
 11  3  2  0  0  0  0
 13 12  2  0  0  0  0
 13 14  1  0  0  0  0
 15 16  2  0  0  0  0
 16 18  1  0  0  0  0
 17 16  1  0  0  0  0
 18 14  1  0  0  0  0
 19  1  1  0  0  0  0
 20 19  3  0  0  0  0
 21 29  1  0  0  0  0
 21  2  1  0  0  0  0
 22 26  1  0  0  0  0
 23 28  2  0  0  0  0
 25 28  1  0  0  0  0
 26 24  1  1  0  0  0
 26 23  1  0  0  0  0
 27 22  2  0  0  0  0
 27 29  1  0  0  0  0
 29 25  2  0  0  0  0
M  END
>  <MODEL>
5

>  <REMARK>
 VINA RESULT:      -7.3      3.315      7.563
  Name = 
  6 active torsions:
  status: ('A' for Active; 'I' for Inactive)
    1  A    between atoms: C_1  and  C_9
    2  A    between atoms: C_2  and  N_14
    3  A    between atoms: C_4  and  C_11
    4  A    between atoms: C_4  and  N_27
    5  A    between atoms: C_5  and  C_7
    6  A    between atoms: N_14  and  C_28
                            x       y       z     vdW  Elec       q    Type
                         _______ _______ _______ _____ _____    ______ ____

>  <TORSDO>
F 6

$$$$
=
 OpenBabel11042416303D

 29 31  0  0  1  0  0  0  0  0999 V2000
  189.9500  172.7860  142.1320 C   0  0  0  0  0  0  0  0  0  0  0  0
  189.3970  173.7190  143.0380 C   0  0  0  0  0  0  0  0  0  0  0  0
  187.3640  176.8350  142.9200 C   0  0  0  0  0  0  0  0  0  0  0  0
  188.9580  173.9770  140.2650 C   0  0  0  0  0  0  0  0  0  0  0  0
  188.7430  174.0760  138.8940 O   0  0  0  0  0  1  0  0  0  0  0  0
  189.7210  172.9210  140.7610 C   0  0  0  0  0  3  0  0  0  0  0  0
  188.6520  174.8050  142.5380 C   0  0  0  0  0  0  0  0  0  0  0  0
  187.6690  176.0040  140.6590 C   0  0  0  0  0  3  0  0  0  0  0  0
  188.4240  174.9290  141.1450 C   0  0  0  0  0  0  0  0  0  0  0  0
  187.1420  176.9510  141.5390 C   0  0  0  0  0  3  0  0  0  0  0  0
  188.1150  175.7640  143.4100 C   0  0  0  0  0  3  0  0  0  0  0  0
  186.8230  177.8130  143.8740 C   0  0  0  0  0  3  0  0  0  0  0  0
  185.9240  178.7280  143.5310 C   0  0  0  0  0  3  0  0  0  0  0  0
  185.4140  179.6900  144.5470 C   0  0  0  0  0  2  0  0  0  0  0  0
  184.0650  178.1100  146.5140 O   0  0  0  0  0  0  0  0  0  0  0  0
  185.2030  178.5640  146.8050 C   0  0  0  0  0  0  0  0  0  0  0  0
  185.7670  178.2890  148.0810 N   0  0  0  0  0  1  0  0  0  0  0  0
  185.9360  179.3500  145.8630 N   0  0  0  0  0  2  0  0  0  0  0  0
  190.8090  171.7160  142.5730 C   0  0  0  0  0  0  0  0  0  0  0  0
  191.5270  170.8210  142.9420 C   0  0  0  0  0  3  0  0  0  0  0  0
  189.6250  173.6120  144.4540 N   0  0  0  0  0  2  0  0  0  0  0  0
  192.7310  175.5480  145.3150 N   0  0  0  0  0  0  0  0  0  0  0  0
  191.8630  176.2450  147.4940 C   0  0  0  0  0  3  0  0  0  0  0  0
  194.2540  177.1700  146.8850 Cl  0  0  0  0  0  0  0  0  0  0  0  0
  190.0080  174.8180  146.5560 C   0  0  0  0  0  3  0  0  0  0  0  0
  192.8040  176.2470  146.5580 C   0  0  1  0  0  3  0  0  0  0  0  0
  191.7000  174.7550  144.7220 C   0  0  0  0  0  3  0  0  0  0  0  0
  190.5680  175.5670  147.5010 C   0  0  0  0  0  3  0  0  0  0  0  0
  190.5040  174.4410  145.2280 C   0  0  0  0  0  0  0  0  0  0  0  0
  1 19  1  0  0  0  0
  1  2  1  0  0  0  0
  2 21  1  0  0  0  0
  3 11  2  0  0  0  0
  3 12  1  0  0  0  0
  4  6  1  0  0  0  0
  4  9  2  0  0  0  0
  5  4  1  0  0  0  0
  6  1  2  0  0  0  0
  7  2  2  0  0  0  0
  7 11  1  0  0  0  0
  8  9  1  0  0  0  0
  8 10  2  0  0  0  0
  9  7  1  0  0  0  0
 10  3  1  0  0  0  0
 13 12  2  0  0  0  0
 13 14  1  0  0  0  0
 14 18  1  0  0  0  0
 15 16  2  0  0  0  0
 16 17  1  0  0  0  0
 18 16  1  0  0  0  0
 19 20  3  0  0  0  0
 21 29  1  0  0  0  0
 22 26  1  0  0  0  0
 23 28  2  0  0  0  0
 25 28  1  0  0  0  0
 26 24  1  1  0  0  0
 26 23  1  0  0  0  0
 27 29  1  0  0  0  0
 27 22  2  0  0  0  0
 29 25  2  0  0  0  0
M  END
>  <MODEL>
6

>  <REMARK>
 VINA RESULT:      -7.0      4.064      6.432
  Name = 
  6 active torsions:
  status: ('A' for Active; 'I' for Inactive)
    1  A    between atoms: C_1  and  C_9
    2  A    between atoms: C_2  and  N_14
    3  A    between atoms: C_4  and  C_11
    4  A    between atoms: C_4  and  N_27
    5  A    between atoms: C_5  and  C_7
    6  A    between atoms: N_14  and  C_28
                            x       y       z     vdW  Elec       q    Type
                         _______ _______ _______ _____ _____    ______ ____

>  <TORSDO>
F 6

$$$$
=
 OpenBabel11042416303D

 29 31  0  0  0  0  0  0  0  0999 V2000
  185.7570  177.6370  143.9860 C   0  0  0  0  0  0  0  0  0  0  0  0
  187.1210  177.6140  143.6160 C   0  0  0  0  0  0  0  0  0  0  0  0
  190.4310  177.0780  145.2330 C   0  0  0  0  0  0  0  0  0  0  0  0
  186.3470  177.0700  146.2720 C   0  0  0  0  0  0  0  0  0  0  0  0
  185.9400  176.7910  147.5730 O   0  0  0  0  0  1  0  0  0  0  0  0
  185.3860  177.3610  145.3050 C   0  0  0  0  0  3  0  0  0  0  0  0
  188.0970  177.3520  144.5970 C   0  0  0  0  0  0  0  0  0  0  0  0
  188.6830  176.7950  146.8950 C   0  0  0  0  0  3  0  0  0  0  0  0
  187.7070  177.0700  145.9290 C   0  0  0  0  0  0  0  0  0  0  0  0
  190.0360  176.7990  146.5500 C   0  0  0  0  0  3  0  0  0  0  0  0
  189.4600  177.3500  144.2660 C   0  0  0  0  0  3  0  0  0  0  0  0
  191.8460  177.0880  144.8360 C   0  0  0  0  0  3  0  0  0  0  0  0
  192.3810  176.1530  144.0610 C   0  0  0  0  0  3  0  0  0  0  0  0
  193.8220  176.2230  143.6940 C   0  0  0  0  0  2  0  0  0  0  0  0
  195.2990  175.2850  145.9580 O   0  0  0  0  0  0  0  0  0  0  0  0
  195.1700  174.5060  144.9750 C   0  0  0  0  0  0  0  0  0  0  0  0
  195.7600  173.2130  145.0200 N   0  0  0  0  0  1  0  0  0  0  0  0
  194.4340  174.9090  143.8190 N   0  0  0  0  0  2  0  0  0  0  0  0
  184.7220  178.0040  143.0540 C   0  0  0  0  0  0  0  0  0  0  0  0
  183.8560  178.3120  142.2740 C   0  0  0  0  0  3  0  0  0  0  0  0
  187.5340  177.9060  142.2690 N   0  0  0  0  0  2  0  0  0  0  0  0
  188.4200  174.7790  140.3780 N   0  0  0  0  0  0  0  0  0  0  0  0
  187.1890  175.4700  138.3800 C   0  0  0  0  0  3  0  0  0  0  0  0
  188.3300  173.0980  138.2370 Cl  0  0  0  0  0  0  0  0  0  0  0  0
  186.8690  177.4070  139.9600 C   0  0  0  0  0  3  0  0  0  0  0  0
  187.9250  174.5930  139.0520 C   0  0  0  0  0  0  0  0  0  0  0  0
  188.2460  175.8350  141.3260 C   0  0  0  0  0  2  0  0  0  0  0  0
  186.7110  176.7870  138.7960 C   0  0  0  0  0  3  0  0  0  0  0  0
  187.5620  176.9740  141.1780 C   0  0  0  0  0  0  0  0  0  0  0  0
  1  6  1  0  0  0  0
  2  1  2  0  0  0  0
  2  7  1  0  0  0  0
  3 10  1  0  0  0  0
  4  5  1  0  0  0  0
  6  4  2  0  0  0  0
  7  9  2  0  0  0  0
  9  4  1  0  0  0  0
  9  8  1  0  0  0  0
 10  8  2  0  0  0  0
 11  7  1  0  0  0  0
 11  3  2  0  0  0  0
 12  3  1  0  0  0  0
 13 12  2  0  0  0  0
 14 18  1  0  0  0  0
 14 13  1  0  0  0  0
 16 17  1  0  0  0  0
 16 15  2  0  0  0  0
 18 16  1  0  0  0  0
 19  1  1  0  0  0  0
 20 19  3  0  0  0  0
 21  2  1  0  0  0  0
 22 27  1  0  0  0  0
 23 28  2  0  0  0  0
 23 26  1  0  0  0  0
 24 26  1  0  0  0  0
 25 29  2  0  0  0  0
 26 22  2  0  0  0  0
 28 25  1  0  0  0  0
 29 27  1  0  0  0  0
 29 21  1  0  0  0  0
M  END
>  <MODEL>
7

>  <REMARK>
 VINA RESULT:      -7.0      3.249      7.833
  Name = 
  6 active torsions:
  status: ('A' for Active; 'I' for Inactive)
    1  A    between atoms: C_1  and  C_9
    2  A    between atoms: C_2  and  N_14
    3  A    between atoms: C_4  and  C_11
    4  A    between atoms: C_4  and  N_27
    5  A    between atoms: C_5  and  C_7
    6  A    between atoms: N_14  and  C_28
                            x       y       z     vdW  Elec       q    Type
                         _______ _______ _______ _____ _____    ______ ____

>  <TORSDO>
F 6

$$$$
=
 OpenBabel11042416303D

 29 31  0  0  0  0  0  0  0  0999 V2000
  192.1220  173.7810  145.1760 C   0  0  0  0  0  0  0  0  0  0  0  0
  190.7430  174.0800  145.1090 C   0  0  0  0  0  0  0  0  0  0  0  0
  188.3930  176.6620  146.4020 C   0  0  0  0  0  0  0  0  0  0  0  0
  192.5120  175.7780  146.5000 C   0  0  0  0  0  0  0  0  0  0  0  0
  193.4070  176.6080  147.1680 O   0  0  0  0  0  1  0  0  0  0  0  0
  192.9900  174.6330  145.8640 C   0  0  0  0  0  3  0  0  0  0  0  0
  190.2510  175.2190  145.7770 C   0  0  0  0  0  0  0  0  0  0  0  0
  190.6470  177.2140  147.1170 C   0  0  0  0  0  3  0  0  0  0  0  0
  191.1420  176.0760  146.4680 C   0  0  0  0  0  0  0  0  0  0  0  0
  189.2820  177.5060  147.0850 C   0  0  0  0  0  3  0  0  0  0  0  0
  188.8830  175.5260  145.7530 C   0  0  0  0  0  3  0  0  0  0  0  0
  186.9510  176.9400  146.3480 C   0  0  0  0  0  3  0  0  0  0  0  0
  186.4270  178.0950  146.7400 C   0  0  0  0  0  3  0  0  0  0  0  0
  184.9580  178.3130  146.6580 C   0  0  0  0  0  2  0  0  0  0  0  0
  184.9880  179.9560  144.3150 O   0  0  0  0  0  0  0  0  0  0  0  0
  184.5010  178.7980  144.2160 C   0  0  0  0  0  0  0  0  0  0  0  0
  183.9840  178.3560  142.9670 N   0  0  0  0  0  1  0  0  0  0  0  0
  184.4670  177.9230  145.3440 N   0  0  0  0  0  2  0  0  0  0  0  0
  192.6680  172.5760  144.6050 C   0  0  0  0  0  0  0  0  0  0  0  0
  193.1230  171.5670  144.1280 C   0  0  0  0  0  3  0  0  0  0  0  0
  189.8240  173.2160  144.4180 N   0  0  0  0  0  2  0  0  0  0  0  0
  188.4980  174.4720  141.1320 N   0  0  0  0  0  0  0  0  0  0  0  0
  189.3370  172.5370  139.8920 C   0  0  0  0  0  3  0  0  0  0  0  0
  188.1220  174.3680  138.4370 Cl  0  0  0  0  0  0  0  0  0  0  0  0
  190.0140  172.0450  142.2700 C   0  0  0  0  0  3  0  0  0  0  0  0
  188.7210  173.7120  139.9440 C   0  0  0  0  0  0  0  0  0  0  0  0
  188.8820  174.2590  142.4920 C   0  0  0  0  0  2  0  0  0  0  0  0
  189.9250  171.7530  140.9770 C   0  0  0  0  0  3  0  0  0  0  0  0
  189.5580  173.2270  143.0080 C   0  0  0  0  0  0  0  0  0  0  0  0
  1  6  1  0  0  0  0
  2  1  2  0  0  0  0
  2  7  1  0  0  0  0
  3 10  1  0  0  0  0
  4  5  1  0  0  0  0
  6  4  2  0  0  0  0
  7  9  2  0  0  0  0
  9  4  1  0  0  0  0
  9  8  1  0  0  0  0
 10  8  2  0  0  0  0
 11  7  1  0  0  0  0
 11  3  2  0  0  0  0
 12  3  1  0  0  0  0
 12 13  2  0  0  0  0
 14 13  1  0  0  0  0
 16 15  2  0  0  0  0
 16 18  1  0  0  0  0
 17 16  1  0  0  0  0
 18 14  1  0  0  0  0
 19  1  1  0  0  0  0
 20 19  3  0  0  0  0
 21  2  1  0  0  0  0
 22 27  1  0  0  0  0
 23 26  1  0  0  0  0
 23 28  2  0  0  0  0
 24 26  1  0  0  0  0
 25 29  2  0  0  0  0
 26 22  2  0  0  0  0
 27 29  1  0  0  0  0
 28 25  1  0  0  0  0
 29 21  1  0  0  0  0
M  END
>  <MODEL>
8

>  <REMARK>
 VINA RESULT:      -7.0      2.759      4.874
  Name = 
  6 active torsions:
  status: ('A' for Active; 'I' for Inactive)
    1  A    between atoms: C_1  and  C_9
    2  A    between atoms: C_2  and  N_14
    3  A    between atoms: C_4  and  C_11
    4  A    between atoms: C_4  and  N_27
    5  A    between atoms: C_5  and  C_7
    6  A    between atoms: N_14  and  C_28
                            x       y       z     vdW  Elec       q    Type
                         _______ _______ _______ _____ _____    ______ ____

>  <TORSDO>
F 6

$$$$
=
 OpenBabel11042416303D

 29 31  0  0  0  0  0  0  0  0999 V2000
  187.9360  176.4860  146.1370 C   0  0  0  0  0  0  0  0  0  0  0  0
  187.8100  176.4150  144.7310 C   0  0  0  0  0  0  0  0  0  0  0  0
  185.8080  178.0240  142.0360 C   0  0  0  0  0  0  0  0  0  0  0  0
  186.2850  178.2630  146.2170 C   0  0  0  0  0  0  0  0  0  0  0  0
  185.5540  179.1770  146.9700 O   0  0  0  0  0  1  0  0  0  0  0  0
  187.1790  177.4100  146.8620 C   0  0  0  0  0  3  0  0  0  0  0  0
  186.8840  177.2530  144.0800 C   0  0  0  0  0  0  0  0  0  0  0  0
  185.2180  179.0280  144.1680 C   0  0  0  0  0  3  0  0  0  0  0  0
  186.1250  178.1880  144.8260 C   0  0  0  0  0  0  0  0  0  0  0  0
  185.0600  178.9480  142.7830 C   0  0  0  0  0  3  0  0  0  0  0  0
  186.7150  177.1860  142.6890 C   0  0  0  0  0  3  0  0  0  0  0  0
  185.6670  177.9150  140.5780 C   0  0  0  0  0  3  0  0  0  0  0  0
  186.4820  177.1800  139.8310 C   0  0  0  0  0  3  0  0  0  0  0  0
  186.2840  177.1100  138.3580 C   0  0  0  0  0  2  0  0  0  0  0  0
  187.4380  177.0580  135.7410 O   0  0  0  0  0  0  0  0  0  0  0  0
  187.6040  176.0490  136.4770 C   0  0  0  0  0  0  0  0  0  0  0  0
  188.3380  174.9330  135.9890 N   0  0  0  0  0  1  0  0  0  0  0  0
  187.0640  176.0160  137.7990 N   0  0  0  0  0  2  0  0  0  0  0  0
  188.7850  175.5820  146.8710 C   0  0  0  0  0  0  0  0  0  0  0  0
  189.4970  174.8260  147.4830 C   0  0  0  0  0  3  0  0  0  0  0  0
  188.5670  175.4660  143.9600 N   0  0  0  0  0  2  0  0  0  0  0  0
  192.0640  174.1790  143.4600 N   0  0  0  0  0  0  0  0  0  0  0  0
  193.0030  176.4230  143.1950 C   0  0  0  0  0  3  0  0  0  0  0  0
  194.7260  174.4440  142.9460 Cl  0  0  0  0  0  0  0  0  0  0  0  0
  190.5560  176.8600  143.6130 C   0  0  0  0  0  3  0  0  0  0  0  0
  193.1270  175.1010  143.2180 C   0  0  0  0  0  0  0  0  0  0  0  0
  190.6630  174.3670  143.6710 C   0  0  0  0  0  2  0  0  0  0  0  0
  191.8100  177.2430  143.3950 C   0  0  0  0  0  3  0  0  0  0  0  0
  189.9810  175.5150  143.7210 C   0  0  0  0  0  0  0  0  0  0  0  0
  1  6  1  0  0  0  0
  1 19  1  0  0  0  0
  2  1  2  0  0  0  0
  3 11  2  0  0  0  0
  3 10  1  0  0  0  0
  4  6  2  0  0  0  0
  4  5  1  0  0  0  0
  7  2  1  0  0  0  0
  7  9  2  0  0  0  0
  8  9  1  0  0  0  0
  9  4  1  0  0  0  0
 10  8  2  0  0  0  0
 11  7  1  0  0  0  0
 12  3  1  0  0  0  0
 13 12  2  0  0  0  0
 14 13  1  0  0  0  0
 15 16  2  0  0  0  0
 16 18  1  0  0  0  0
 17 16  1  0  0  0  0
 18 14  1  0  0  0  0
 19 20  3  0  0  0  0
 21  2  1  0  0  0  0
 22 27  1  0  0  0  0
 23 26  1  0  0  0  0
 23 28  2  0  0  0  0
 24 26  1  0  0  0  0
 25 29  2  0  0  0  0
 26 22  2  0  0  0  0
 27 29  1  0  0  0  0
 28 25  1  0  0  0  0
 29 21  1  0  0  0  0
M  END
>  <MODEL>
9

>  <REMARK>
 VINA RESULT:      -6.9      3.713      4.659
  Name = 
  6 active torsions:
  status: ('A' for Active; 'I' for Inactive)
    1  A    between atoms: C_1  and  C_9
    2  A    between atoms: C_2  and  N_14
    3  A    between atoms: C_4  and  C_11
    4  A    between atoms: C_4  and  N_27
    5  A    between atoms: C_5  and  C_7
    6  A    between atoms: N_14  and  C_28
                            x       y       z     vdW  Elec       q    Type
                         _______ _______ _______ _____ _____    ______ ____

>  <TORSDO>
F 6

$$$$
