=
 OpenBabel11042416163D

 33 36  0  0  1  0  0  0  0  0999 V2000
  192.7370  175.1910  144.8470 C   0  0  2  0  0  3  0  0  0  0  0  0
  188.6860  175.6150  141.8510 C   0  0  0  0  0  3  0  0  0  0  0  0
  191.8760  175.6420  143.7480 N   0  0  0  0  0  0  0  0  0  0  0  0
  189.5460  178.2180  142.4420 C   0  0  0  0  0  3  0  0  0  0  0  0
  192.1660  177.9800  144.0540 O   0  0  0  0  0  0  0  0  0  0  0  0
  187.9430  176.7410  141.4590 C   0  0  0  0  0  0  0  0  0  0  0  0
  190.8420  174.8190  143.0920 C   0  0  1  0  0  3  0  0  0  0  0  0
  188.3840  178.0020  141.7590 N   0  0  0  0  0  0  0  0  0  0  0  0
  190.2940  177.1110  142.8270 C   0  0  0  0  0  0  0  0  0  0  0  0
  186.7220  176.5700  140.7490 N   0  0  0  0  0  1  0  0  0  0  0  0
  189.8780  175.8340  142.5400 C   0  0  0  0  0  0  0  0  0  0  0  0
  191.5170  177.0110  143.5770 C   0  0  0  0  0  0  0  0  0  0  0  0
  192.3340  174.4260  141.1370 C   0  0  0  0  0  2  0  0  0  0  0  0
  191.4310  173.9630  142.0040 C   0  0  0  0  0  3  0  0  0  0  0  0
  194.0660  174.6050  144.3450 C   0  0  1  0  0  3  0  0  0  0  0  0
  194.8340  175.6420  143.5450 C   0  0  0  0  0  1  0  0  0  0  0  0
  194.9300  174.1370  145.4750 C   0  0  0  0  0  0  0  0  0  0  0  0
  195.4600  174.9810  146.2450 O   0  0  0  0  0  1  0  0  0  0  0  0
  195.1340  172.7790  145.6920 O   0  0  0  0  0  0  0  0  0  0  0  0
  191.9730  174.2800  145.8200 C   0  0  0  0  0  2  0  0  0  0  0  0
  190.7370  174.9180  146.3660 C   0  0  0  0  0  0  0  0  0  0  0  0
  189.1750  175.7370  147.0930 C   0  0  1  0  0  3  0  0  0  0  0  0
  189.4650  174.5090  146.4880 N   0  0  0  0  0  0  0  0  0  0  0  0
  190.4540  176.2380  146.9660 N   0  0  0  0  0  2  0  0  0  0  0  0
  188.2250  176.5290  146.2510 C   0  0  0  0  0  3  0  0  0  0  0  0
  186.9220  176.5170  146.5120 C   0  0  0  0  0  3  0  0  0  0  0  0
  185.1320  178.3810  147.7230 O   0  0  0  0  0  1  0  0  0  0  0  0
  184.1440  178.8960  145.5910 C   0  0  0  0  0  3  0  0  0  0  0  0
  185.0750  178.1820  146.3480 C   0  0  0  0  0  0  0  0  0  0  0  0
  184.9270  177.8140  143.6120 N   0  0  0  0  0  0  0  0  0  0  0  0
  185.9410  177.2750  145.7170 C   0  0  0  0  0  0  0  0  0  0  0  0
  184.0820  178.6960  144.2110 C   0  0  0  0  0  3  0  0  0  0  0  0
  185.8430  177.1080  144.3270 C   0  0  0  0  0  3  0  0  0  0  0  0
  1 20  1  6  0  0  0
  2 11  1  0  0  0  0
  3  1  1  0  0  0  0
  4  9  1  0  0  0  0
  6  8  1  0  0  0  0
  6  2  2  0  0  0  0
  7 14  1  6  0  0  0
  7  3  1  0  0  0  0
  8  4  2  0  0  0  0
  9 12  1  0  0  0  0
 10  6  1  0  0  0  0
 11  9  2  0  0  0  0
 11  7  1  0  0  0  0
 12  3  1  0  0  0  0
 12  5  2  0  0  0  0
 13 14  2  0  0  0  0
 15 16  1  1  0  0  0
 15  1  1  0  0  0  0
 15 17  1  0  0  0  0
 17 19  2  0  0  0  0
 17 18  1  0  0  0  0
 20 21  1  0  0  0  0
 21 23  2  0  0  0  0
 21 24  1  0  0  0  0
 22 25  1  6  0  0  0
 23 22  1  0  0  0  0
 24 22  1  0  0  0  0
 25 26  2  0  0  0  0
 28 29  1  0  0  0  0
 29 27  1  0  0  0  0
 30 32  1  0  0  0  0
 30 33  2  0  0  0  0
 31 29  2  0  0  0  0
 31 26  1  0  0  0  0
 32 28  2  0  0  0  0
 33 31  1  0  0  0  0
M  END
>  <MODEL>
1

>  <REMARK>
 VINA RESULT:      -7.0      0.000      0.000
  Name = 
  8 active torsions:
  status: ('A' for Active; 'I' for Inactive)
    1  A    between atoms: N_5  and  C_21
    2  A    between atoms: C_7  and  C_20
    3  A    between atoms: C_10  and  C_13
    4  A    between atoms: C_11  and  C_26
    5  A    between atoms: C_13  and  C_21
    6  A    between atoms: C_14  and  C_19
    7  A    between atoms: C_16  and  C_17
    8  A    between atoms: C_16  and  C_21
                            x       y       z     vdW  Elec       q    Type
                         _______ _______ _______ _____ _____    ______ ____

>  <TORSDO>
F 8

$$$$
=
 OpenBabel11042416163D

 33 36  0  0  1  0  0  0  0  0999 V2000
  186.8790  177.2400  142.8300 C   0  0  2  0  0  3  0  0  0  0  0  0
  189.5210  175.8580  146.9130 C   0  0  0  0  0  3  0  0  0  0  0  0
  187.8140  177.3160  143.9570 N   0  0  0  0  0  0  0  0  0  0  0  0
  191.3210  177.0830  145.1460 C   0  0  0  0  0  3  0  0  0  0  0  0
  189.6850  178.1640  142.7640 O   0  0  0  0  0  0  0  0  0  0  0  0
  190.9030  175.8730  147.1650 C   0  0  0  0  0  0  0  0  0  0  0  0
  187.6600  176.5910  145.2330 C   0  0  1  0  0  3  0  0  0  0  0  0
  191.7620  176.4780  146.2870 N   0  0  0  0  0  0  0  0  0  0  0  0
  189.9550  177.0820  144.8910 C   0  0  0  0  0  0  0  0  0  0  0  0
  191.4130  175.2520  148.3390 N   0  0  0  0  0  1  0  0  0  0  0  0
  189.0680  176.4840  145.7520 C   0  0  0  0  0  0  0  0  0  0  0  0
  189.2010  177.5910  143.7770 C   0  0  0  0  0  0  0  0  0  0  0  0
  185.5600  176.9030  146.5350 C   0  0  0  0  0  2  0  0  0  0  0  0
  186.7720  177.3420  146.1880 C   0  0  0  0  0  3  0  0  0  0  0  0
  185.5920  178.0430  143.0820 C   0  0  1  0  0  3  0  0  0  0  0  0
  185.9280  179.4510  143.5400 C   0  0  0  0  0  1  0  0  0  0  0  0
  184.7410  178.1300  141.8540 C   0  0  0  0  0  0  0  0  0  0  0  0
  183.4910  178.0170  141.9530 O   0  0  0  0  0  1  0  0  0  0  0  0
  185.3180  178.3560  140.6100 O   0  0  0  0  0  0  0  0  0  0  0  0
  186.6390  175.7860  142.3960 C   0  0  0  0  0  2  0  0  0  0  0  0
  187.9080  175.0350  142.1520 C   0  0  0  0  0  0  0  0  0  0  0  0
  189.5150  174.0670  141.8100 C   0  0  1  0  0  3  0  0  0  0  0  0
  188.5560  174.0750  142.8280 N   0  0  0  0  0  0  0  0  0  0  0  0
  188.9240  175.0780  141.0800 N   0  0  0  0  0  2  0  0  0  0  0  0
  190.8440  174.5160  142.3320 C   0  0  0  0  0  3  0  0  0  0  0  0
  191.8610  173.6650  142.4090 C   0  0  0  0  0  3  0  0  0  0  0  0
  192.5650  173.3490  145.1560 O   0  0  0  0  0  1  0  0  0  0  0  0
  194.7570  174.2530  144.7530 C   0  0  0  0  0  3  0  0  0  0  0  0
  193.4980  173.8820  144.2750 C   0  0  0  0  0  0  0  0  0  0  0  0
  195.3830  174.9490  142.5560 N   0  0  0  0  0  0  0  0  0  0  0  0
  193.1890  174.0500  142.9160 C   0  0  0  0  0  0  0  0  0  0  0  0
  195.6950  174.7910  143.8710 C   0  0  0  0  0  3  0  0  0  0  0  0
  194.1650  174.5950  142.0660 C   0  0  0  0  0  3  0  0  0  0  0  0
  1 20  1  1  0  0  0
  1 15  1  0  0  0  0
  1  3  1  0  0  0  0
  2  6  1  0  0  0  0
  3  7  1  0  0  0  0
  4  8  1  0  0  0  0
  5 12  2  0  0  0  0
  6 10  1  0  0  0  0
  7 11  1  0  0  0  0
  7 14  1  1  0  0  0
  8  6  2  0  0  0  0
  9  4  2  0  0  0  0
  9 11  1  0  0  0  0
 11  2  2  0  0  0  0
 12  3  1  0  0  0  0
 12  9  1  0  0  0  0
 14 13  2  0  0  0  0
 15 16  1  6  0  0  0
 17 18  1  0  0  0  0
 17 15  1  0  0  0  0
 19 17  2  0  0  0  0
 21 20  1  0  0  0  0
 21 23  2  0  0  0  0
 22 25  1  1  0  0  0
 22 23  1  0  0  0  0
 24 22  1  0  0  0  0
 24 21  1  0  0  0  0
 25 26  2  0  0  0  0
 26 31  1  0  0  0  0
 29 28  1  0  0  0  0
 29 27  1  0  0  0  0
 30 32  1  0  0  0  0
 31 29  2  0  0  0  0
 32 28  2  0  0  0  0
 33 30  2  0  0  0  0
 33 31  1  0  0  0  0
M  END
>  <MODEL>
2

>  <REMARK>
 VINA RESULT:      -6.8      2.453      7.855
  Name = 
  8 active torsions:
  status: ('A' for Active; 'I' for Inactive)
    1  A    between atoms: N_5  and  C_21
    2  A    between atoms: C_7  and  C_20
    3  A    between atoms: C_10  and  C_13
    4  A    between atoms: C_11  and  C_26
    5  A    between atoms: C_13  and  C_21
    6  A    between atoms: C_14  and  C_19
    7  A    between atoms: C_16  and  C_17
    8  A    between atoms: C_16  and  C_21
                            x       y       z     vdW  Elec       q    Type
                         _______ _______ _______ _____ _____    ______ ____

>  <TORSDO>
F 8

$$$$
=
 OpenBabel11042416163D

 33 36  0  0  1  0  0  0  0  0999 V2000
  186.7000  177.3140  143.1210 C   0  0  2  0  0  3  0  0  0  0  0  0
  189.4810  175.8580  147.0850 C   0  0  0  0  0  3  0  0  0  0  0  0
  187.6730  177.3710  144.2170 N   0  0  0  0  0  0  0  0  0  0  0  0
  191.2190  177.1230  145.2830 C   0  0  0  0  0  3  0  0  0  0  0  0
  189.5010  178.2460  142.9790 O   0  0  0  0  0  0  0  0  0  0  0  0
  190.8710  175.8720  147.2910 C   0  0  0  0  0  0  0  0  0  0  0  0
  187.5630  176.6200  145.4840 C   0  0  1  0  0  3  0  0  0  0  0  0
  191.6990  176.4960  146.3970 N   0  0  0  0  0  0  0  0  0  0  0  0
  189.8440  177.1230  145.0740 C   0  0  0  0  0  0  0  0  0  0  0  0
  191.4210  175.2290  148.4350 N   0  0  0  0  0  1  0  0  0  0  0  0
  188.9880  176.5060  145.9530 C   0  0  0  0  0  0  0  0  0  0  0  0
  189.0530  177.6520  143.9960 C   0  0  0  0  0  0  0  0  0  0  0  0
  185.4730  176.9480  146.7970 C   0  0  0  0  0  2  0  0  0  0  0  0
  186.7060  177.3500  146.4820 C   0  0  0  0  0  3  0  0  0  0  0  0
  185.4760  178.2080  143.3790 C   0  0  1  0  0  3  0  0  0  0  0  0
  185.9150  179.6180  143.7340 C   0  0  0  0  0  1  0  0  0  0  0  0
  184.5740  178.2740  142.1870 C   0  0  0  0  0  0  0  0  0  0  0  0
  183.3290  178.1630  142.3390 O   0  0  0  0  0  1  0  0  0  0  0  0
  185.0990  178.4770  140.9150 O   0  0  0  0  0  0  0  0  0  0  0  0
  186.3550  175.8640  142.7510 C   0  0  0  0  0  2  0  0  0  0  0  0
  187.4480  175.1810  141.9950 C   0  0  0  0  0  0  0  0  0  0  0  0
  188.8540  174.2950  141.0590 C   0  0  1  0  0  3  0  0  0  0  0  0
  188.4270  175.6210  141.1910 N   0  0  0  0  0  0  0  0  0  0  0  0
  187.8500  173.7670  141.8450 N   0  0  0  0  0  2  0  0  0  0  0  0
  188.7010  173.8280  139.6450 C   0  0  0  0  0  3  0  0  0  0  0  0
  189.7580  173.4090  138.9560 C   0  0  0  0  0  3  0  0  0  0  0  0
  189.7730  170.6310  138.3050 O   0  0  0  0  0  1  0  0  0  0  0  0
  189.5980  171.1270  135.9580 C   0  0  0  0  0  3  0  0  0  0  0  0
  189.6800  171.5660  137.2800 C   0  0  0  0  0  0  0  0  0  0  0  0
  189.4960  173.3930  135.2140 N   0  0  0  0  0  0  0  0  0  0  0  0
  189.6670  172.9410  137.5620 C   0  0  0  0  0  0  0  0  0  0  0  0
  189.5070  172.0630  134.9270 C   0  0  0  0  0  3  0  0  0  0  0  0
  189.5730  173.8460  136.4930 C   0  0  0  0  0  3  0  0  0  0  0  0
  1 20  1  1  0  0  0
  1 15  1  0  0  0  0
  1  3  1  0  0  0  0
  2  6  1  0  0  0  0
  3  7  1  0  0  0  0
  4  8  1  0  0  0  0
  5 12  2  0  0  0  0
  6 10  1  0  0  0  0
  7 11  1  0  0  0  0
  7 14  1  1  0  0  0
  8  6  2  0  0  0  0
  9  4  2  0  0  0  0
  9 11  1  0  0  0  0
 11  2  2  0  0  0  0
 12  3  1  0  0  0  0
 12  9  1  0  0  0  0
 14 13  2  0  0  0  0
 15 16  1  6  0  0  0
 17 18  1  0  0  0  0
 17 15  1  0  0  0  0
 19 17  2  0  0  0  0
 21 20  1  0  0  0  0
 22 25  1  6  0  0  0
 22 23  1  0  0  0  0
 22 24  1  0  0  0  0
 23 21  2  0  0  0  0
 24 21  1  0  0  0  0
 26 25  2  0  0  0  0
 28 29  1  0  0  0  0
 29 31  2  0  0  0  0
 29 27  1  0  0  0  0
 30 33  2  0  0  0  0
 31 26  1  0  0  0  0
 32 30  1  0  0  0  0
 32 28  2  0  0  0  0
 33 31  1  0  0  0  0
M  END
>  <MODEL>
3

>  <REMARK>
 VINA RESULT:      -6.7      3.846      8.472
  Name = 
  8 active torsions:
  status: ('A' for Active; 'I' for Inactive)
    1  A    between atoms: N_5  and  C_21
    2  A    between atoms: C_7  and  C_20
    3  A    between atoms: C_10  and  C_13
    4  A    between atoms: C_11  and  C_26
    5  A    between atoms: C_13  and  C_21
    6  A    between atoms: C_14  and  C_19
    7  A    between atoms: C_16  and  C_17
    8  A    between atoms: C_16  and  C_21
                            x       y       z     vdW  Elec       q    Type
                         _______ _______ _______ _____ _____    ______ ____

>  <TORSDO>
F 8

$$$$
=
 OpenBabel11042416163D

 33 36  0  0  1  0  0  0  0  0999 V2000
  192.6180  175.4270  144.8020 C   0  0  2  0  0  3  0  0  0  0  0  0
  189.8050  173.1720  141.2560 C   0  0  0  0  0  3  0  0  0  0  0  0
  191.8810  175.2240  143.5510 N   0  0  0  0  0  0  0  0  0  0  0  0
  188.7450  175.7410  141.6350 C   0  0  0  0  0  3  0  0  0  0  0  0
  190.6000  177.2240  143.6040 O   0  0  0  0  0  0  0  0  0  0  0  0
  188.6120  173.5740  140.6330 C   0  0  0  0  0  0  0  0  0  0  0  0
  191.7190  173.9260  142.8660 C   0  0  1  0  0  3  0  0  0  0  0  0
  188.1150  174.8340  140.8330 N   0  0  0  0  0  0  0  0  0  0  0  0
  189.9310  175.3570  142.2510 C   0  0  0  0  0  0  0  0  0  0  0  0
  187.9150  172.6640  139.7900 N   0  0  0  0  0  1  0  0  0  0  0  0
  190.4550  174.1010  142.0680 C   0  0  0  0  0  0  0  0  0  0  0  0
  190.7900  176.0580  143.1660 C   0  0  0  0  0  0  0  0  0  0  0  0
  193.2140  174.3760  140.9260 C   0  0  0  0  0  2  0  0  0  0  0  0
  192.8970  173.6220  141.9810 C   0  0  0  0  0  3  0  0  0  0  0  0
  194.1390  175.3210  144.6090 C   0  0  1  0  0  3  0  0  0  0  0  0
  194.6220  176.3680  143.6210 C   0  0  0  0  0  1  0  0  0  0  0  0
  194.8780  175.5040  145.8980 C   0  0  0  0  0  0  0  0  0  0  0  0
  195.8000  174.7050  146.2070 O   0  0  0  0  0  0  0  0  0  0  0  0
  194.5660  176.5620  146.7460 O   0  0  0  0  0  1  0  0  0  0  0  0
  192.0620  174.5440  145.9300 C   0  0  0  0  0  2  0  0  0  0  0  0
  190.6860  174.9420  146.3560 C   0  0  0  0  0  0  0  0  0  0  0  0
  188.9410  175.4550  146.9320 C   0  0  1  0  0  3  0  0  0  0  0  0
  189.4920  174.3350  146.3000 N   0  0  0  0  0  0  0  0  0  0  0  0
  190.1290  176.1550  146.9900 N   0  0  0  0  0  2  0  0  0  0  0  0
  187.9750  176.1520  146.0260 C   0  0  0  0  0  3  0  0  0  0  0  0
  186.9190  176.7860  146.5260 C   0  0  0  0  0  3  0  0  0  0  0  0
  184.9970  178.5750  147.6400 O   0  0  0  0  0  1  0  0  0  0  0  0
  184.0700  179.0160  145.4650 C   0  0  0  0  0  3  0  0  0  0  0  0
  185.0030  178.3580  146.2670 C   0  0  0  0  0  0  0  0  0  0  0  0
  184.9810  177.9500  143.5320 N   0  0  0  0  0  0  0  0  0  0  0  0
  185.9350  177.4860  145.6820 C   0  0  0  0  0  0  0  0  0  0  0  0
  184.0720  178.7980  144.0860 C   0  0  0  0  0  3  0  0  0  0  0  0
  185.9010  177.2980  144.2920 C   0  0  0  0  0  3  0  0  0  0  0  0
  1 20  1  1  0  0  0
  2 11  1  0  0  0  0
  3  1  1  0  0  0  0
  4  9  1  0  0  0  0
  6  8  1  0  0  0  0
  6  2  2  0  0  0  0
  7 14  1  6  0  0  0
  7  3  1  0  0  0  0
  8  4  2  0  0  0  0
  9 12  1  0  0  0  0
 10  6  1  0  0  0  0
 11  9  2  0  0  0  0
 11  7  1  0  0  0  0
 12  3  1  0  0  0  0
 12  5  2  0  0  0  0
 13 14  2  0  0  0  0
 15 16  1  6  0  0  0
 15  1  1  0  0  0  0
 15 17  1  0  0  0  0
 17 18  2  0  0  0  0
 17 19  1  0  0  0  0
 20 21  1  0  0  0  0
 21 24  1  0  0  0  0
 22 25  1  6  0  0  0
 22 24  1  0  0  0  0
 23 21  2  0  0  0  0
 23 22  1  0  0  0  0
 25 26  2  0  0  0  0
 28 29  1  0  0  0  0
 29 27  1  0  0  0  0
 30 32  1  0  0  0  0
 30 33  2  0  0  0  0
 31 29  2  0  0  0  0
 31 26  1  0  0  0  0
 32 28  2  0  0  0  0
 33 31  1  0  0  0  0
M  END
>  <MODEL>
4

>  <REMARK>
 VINA RESULT:      -6.7      1.225      1.668
  Name = 
  8 active torsions:
  status: ('A' for Active; 'I' for Inactive)
    1  A    between atoms: N_5  and  C_21
    2  A    between atoms: C_7  and  C_20
    3  A    between atoms: C_10  and  C_13
    4  A    between atoms: C_11  and  C_26
    5  A    between atoms: C_13  and  C_21
    6  A    between atoms: C_14  and  C_19
    7  A    between atoms: C_16  and  C_17
    8  A    between atoms: C_16  and  C_21
                            x       y       z     vdW  Elec       q    Type
                         _______ _______ _______ _____ _____    ______ ____

>  <TORSDO>
F 8

$$$$
=
 OpenBabel11042416163D

 33 36  0  0  1  0  0  0  0  0999 V2000
  186.8720  177.2650  142.8280 C   0  0  2  0  0  3  0  0  0  0  0  0
  189.5070  175.8640  146.9100 C   0  0  0  0  0  3  0  0  0  0  0  0
  187.8070  177.3360  143.9560 N   0  0  0  0  0  0  0  0  0  0  0  0
  191.3130  177.0890  145.1480 C   0  0  0  0  0  3  0  0  0  0  0  0
  189.6820  178.1810  142.7670 O   0  0  0  0  0  0  0  0  0  0  0  0
  190.8890  175.8750  147.1630 C   0  0  0  0  0  0  0  0  0  0  0  0
  187.6500  176.6080  145.2300 C   0  0  1  0  0  3  0  0  0  0  0  0
  191.7510  176.4790  146.2880 N   0  0  0  0  0  0  0  0  0  0  0  0
  189.9460  177.0920  144.8910 C   0  0  0  0  0  0  0  0  0  0  0  0
  191.3960  175.2490  148.3360 N   0  0  0  0  0  1  0  0  0  0  0  0
  189.0570  176.4950  145.7500 C   0  0  0  0  0  0  0  0  0  0  0  0
  189.1950  177.6070  143.7780 C   0  0  0  0  0  0  0  0  0  0  0  0
  185.5610  176.9080  146.5530 C   0  0  0  0  0  2  0  0  0  0  0  0
  186.7630  177.3580  146.1860 C   0  0  0  0  0  3  0  0  0  0  0  0
  185.5940  178.0830  143.0750 C   0  0  1  0  0  3  0  0  0  0  0  0
  185.9450  179.4950  143.5090 C   0  0  0  0  0  1  0  0  0  0  0  0
  184.7360  178.1580  141.8520 C   0  0  0  0  0  0  0  0  0  0  0  0
  183.4920  177.9890  141.9510 O   0  0  0  0  0  1  0  0  0  0  0  0
  185.2990  178.4320  140.6110 O   0  0  0  0  0  0  0  0  0  0  0  0
  186.6180  175.8120  142.3990 C   0  0  0  0  0  2  0  0  0  0  0  0
  187.8800  175.0450  142.1680 C   0  0  0  0  0  0  0  0  0  0  0  0
  189.4790  174.0580  141.8410 C   0  0  1  0  0  3  0  0  0  0  0  0
  188.4650  174.0190  142.8040 N   0  0  0  0  0  0  0  0  0  0  0  0
  188.9540  175.1360  141.1580 N   0  0  0  0  0  2  0  0  0  0  0  0
  190.7870  174.4300  142.4660 C   0  0  0  0  0  3  0  0  0  0  0  0
  191.7790  173.5470  142.5280 C   0  0  0  0  0  3  0  0  0  0  0  0
  193.9650  174.4990  140.9620 O   0  0  0  0  0  1  0  0  0  0  0  0
  195.3780  174.6090  142.9050 C   0  0  0  0  0  3  0  0  0  0  0  0
  194.1400  174.3210  142.3290 C   0  0  0  0  0  0  0  0  0  0  0  0
  194.5280  173.9780  145.0450 N   0  0  0  0  0  0  0  0  0  0  0  0
  193.0860  173.8570  143.1320 C   0  0  0  0  0  0  0  0  0  0  0  0
  195.5560  174.4290  144.2780 C   0  0  0  0  0  3  0  0  0  0  0  0
  193.3120  173.6910  144.5080 C   0  0  0  0  0  3  0  0  0  0  0  0
  1 20  1  1  0  0  0
  1 15  1  0  0  0  0
  1  3  1  0  0  0  0
  2  6  1  0  0  0  0
  3  7  1  0  0  0  0
  4  8  1  0  0  0  0
  5 12  2  0  0  0  0
  6 10  1  0  0  0  0
  7 11  1  0  0  0  0
  7 14  1  1  0  0  0
  8  6  2  0  0  0  0
  9  4  2  0  0  0  0
  9 11  1  0  0  0  0
 11  2  2  0  0  0  0
 12  3  1  0  0  0  0
 12  9  1  0  0  0  0
 14 13  2  0  0  0  0
 15 16  1  6  0  0  0
 17 18  1  0  0  0  0
 17 15  1  0  0  0  0
 19 17  2  0  0  0  0
 21 20  1  0  0  0  0
 21 23  2  0  0  0  0
 22 25  1  1  0  0  0
 22 23  1  0  0  0  0
 24 22  1  0  0  0  0
 24 21  1  0  0  0  0
 25 26  2  0  0  0  0
 26 31  1  0  0  0  0
 27 29  1  0  0  0  0
 28 32  1  0  0  0  0
 29 28  2  0  0  0  0
 29 31  1  0  0  0  0
 31 33  2  0  0  0  0
 32 30  2  0  0  0  0
 33 30  1  0  0  0  0
M  END
>  <MODEL>
5

>  <REMARK>
 VINA RESULT:      -6.6      2.557      7.976
  Name = 
  8 active torsions:
  status: ('A' for Active; 'I' for Inactive)
    1  A    between atoms: N_5  and  C_21
    2  A    between atoms: C_7  and  C_20
    3  A    between atoms: C_10  and  C_13
    4  A    between atoms: C_11  and  C_26
    5  A    between atoms: C_13  and  C_21
    6  A    between atoms: C_14  and  C_19
    7  A    between atoms: C_16  and  C_17
    8  A    between atoms: C_16  and  C_21
                            x       y       z     vdW  Elec       q    Type
                         _______ _______ _______ _____ _____    ______ ____

>  <TORSDO>
F 8

$$$$
=
 OpenBabel11042416163D

 33 36  0  0  1  0  0  0  0  0999 V2000
  192.3770  174.4330  144.7050 C   0  0  2  0  0  3  0  0  0  0  0  0
  195.2010  170.4790  146.1030 C   0  0  0  0  0  3  0  0  0  0  0  0
  193.1740  173.2060  144.6080 N   0  0  0  0  0  0  0  0  0  0  0  0
  193.2190  169.5020  144.3760 C   0  0  0  0  0  3  0  0  0  0  0  0
  191.6460  171.9320  143.3090 O   0  0  0  0  0  0  0  0  0  0  0  0
  195.0340  169.1020  145.8800 C   0  0  0  0  0  0  0  0  0  0  0  0
  194.2960  172.8540  145.5000 C   0  0  1  0  0  3  0  0  0  0  0  0
  194.0590  168.6490  145.0320 N   0  0  0  0  0  0  0  0  0  0  0  0
  193.3810  170.8680  144.5820 C   0  0  0  0  0  0  0  0  0  0  0  0
  195.8820  168.1710  146.5430 N   0  0  0  0  0  1  0  0  0  0  0  0
  194.3500  171.3520  145.4260 C   0  0  0  0  0  0  0  0  0  0  0  0
  192.6430  171.9940  144.0770 C   0  0  0  0  0  0  0  0  0  0  0  0
  196.4970  173.9500  145.8890 C   0  0  0  0  0  2  0  0  0  0  0  0
  195.5830  173.4800  145.0380 C   0  0  0  0  0  3  0  0  0  0  0  0
  192.8830  175.5350  143.7610 C   0  0  1  0  0  3  0  0  0  0  0  0
  193.3510  174.9340  142.4470 C   0  0  0  0  0  1  0  0  0  0  0  0
  191.8220  176.5510  143.4710 C   0  0  0  0  0  0  0  0  0  0  0  0
  190.8670  176.2540  142.7060 O   0  0  0  0  0  0  0  0  0  0  0  0
  191.8730  177.8110  144.0570 O   0  0  0  0  0  1  0  0  0  0  0  0
  192.2100  174.8800  146.1650 C   0  0  0  0  0  2  0  0  0  0  0  0
  190.7920  175.1840  146.5230 C   0  0  0  0  0  0  0  0  0  0  0  0
  188.9900  175.5720  147.0120 C   0  0  1  0  0  3  0  0  0  0  0  0
  189.6260  174.5700  146.2720 N   0  0  0  0  0  0  0  0  0  0  0  0
  190.1450  176.2780  147.2760 N   0  0  0  0  0  2  0  0  0  0  0  0
  188.0810  176.3780  146.1360 C   0  0  0  0  0  3  0  0  0  0  0  0
  186.7930  176.5060  146.4380 C   0  0  0  0  0  3  0  0  0  0  0  0
  184.9570  178.3540  147.6000 O   0  0  0  0  0  1  0  0  0  0  0  0
  184.0710  178.9160  145.4350 C   0  0  0  0  0  3  0  0  0  0  0  0
  184.9630  178.1830  146.2200 C   0  0  0  0  0  0  0  0  0  0  0  0
  184.9420  177.8710  143.4730 N   0  0  0  0  0  0  0  0  0  0  0  0
  185.8540  177.2850  145.6130 C   0  0  0  0  0  0  0  0  0  0  0  0
  184.0740  178.7440  144.0500 C   0  0  0  0  0  3  0  0  0  0  0  0
  185.8210  177.1460  144.2160 C   0  0  0  0  0  3  0  0  0  0  0  0
  1 20  1  1  0  0  0
  3  1  1  0  0  0  0
  3  7  1  0  0  0  0
  4  9  2  0  0  0  0
  4  8  1  0  0  0  0
  5 12  2  0  0  0  0
  6  2  1  0  0  0  0
  6 10  1  0  0  0  0
  7 14  1  6  0  0  0
  8  6  2  0  0  0  0
  9 11  1  0  0  0  0
 11  7  1  0  0  0  0
 11  2  2  0  0  0  0
 12  9  1  0  0  0  0
 12  3  1  0  0  0  0
 14 13  2  0  0  0  0
 15 16  1  6  0  0  0
 15  1  1  0  0  0  0
 17 15  1  0  0  0  0
 17 19  1  0  0  0  0
 18 17  2  0  0  0  0
 20 21  1  0  0  0  0
 21 24  1  0  0  0  0
 22 25  1  6  0  0  0
 22 24  1  0  0  0  0
 23 21  2  0  0  0  0
 23 22  1  0  0  0  0
 25 26  2  0  0  0  0
 28 29  1  0  0  0  0
 29 27  1  0  0  0  0
 30 32  1  0  0  0  0
 30 33  2  0  0  0  0
 31 29  2  0  0  0  0
 31 26  1  0  0  0  0
 32 28  2  0  0  0  0
 33 31  1  0  0  0  0
M  END
>  <MODEL>
6

>  <REMARK>
 VINA RESULT:      -6.6      2.895      5.476
  Name = 
  8 active torsions:
  status: ('A' for Active; 'I' for Inactive)
    1  A    between atoms: N_5  and  C_21
    2  A    between atoms: C_7  and  C_20
    3  A    between atoms: C_10  and  C_13
    4  A    between atoms: C_11  and  C_26
    5  A    between atoms: C_13  and  C_21
    6  A    between atoms: C_14  and  C_19
    7  A    between atoms: C_16  and  C_17
    8  A    between atoms: C_16  and  C_21
                            x       y       z     vdW  Elec       q    Type
                         _______ _______ _______ _____ _____    ______ ____

>  <TORSDO>
F 8

$$$$
=
 OpenBabel11042416163D

 33 36  0  0  1  0  0  0  0  0999 V2000
  192.5010  175.1860  144.6990 C   0  0  2  0  0  3  0  0  0  0  0  0
  190.1830  173.6480  140.4760 C   0  0  0  0  0  3  0  0  0  0  0  0
  191.6060  174.4320  143.8140 N   0  0  0  0  0  0  0  0  0  0  0  0
  191.0090  171.3440  141.8460 C   0  0  0  0  0  3  0  0  0  0  0  0
  192.1940  172.2500  144.5460 O   0  0  0  0  0  0  0  0  0  0  0  0
  190.0600  172.3700  139.9060 C   0  0  0  0  0  0  0  0  0  0  0  0
  190.9900  174.9650  142.5830 C   0  0  1  0  0  3  0  0  0  0  0  0
  190.4700  171.2600  140.5940 N   0  0  0  0  0  0  0  0  0  0  0  0
  191.1280  172.6030  142.4240 C   0  0  0  0  0  0  0  0  0  0  0  0
  189.5080  172.2290  138.6020 N   0  0  0  0  0  1  0  0  0  0  0  0
  190.7250  173.7340  141.7590 C   0  0  0  0  0  0  0  0  0  0  0  0
  191.6800  173.0140  143.6860 C   0  0  0  0  0  0  0  0  0  0  0  0
  189.6840  177.0460  142.9850 C   0  0  0  0  0  2  0  0  0  0  0  0
  189.7220  175.7160  142.8840 C   0  0  0  0  0  3  0  0  0  0  0  0
  193.9800  175.0150  144.3180 C   0  0  1  0  0  3  0  0  0  0  0  0
  194.2540  175.6450  142.9630 C   0  0  0  0  0  1  0  0  0  0  0  0
  194.8910  175.6400  145.3280 C   0  0  0  0  0  0  0  0  0  0  0  0
  194.9310  176.8940  145.4410 O   0  0  0  0  0  0  0  0  0  0  0  0
  195.6770  174.8460  146.1550 O   0  0  0  0  0  1  0  0  0  0  0  0
  192.1940  174.9060  146.1780 C   0  0  0  0  0  2  0  0  0  0  0  0
  190.7800  175.2140  146.5480 C   0  0  0  0  0  0  0  0  0  0  0  0
  188.9830  175.6100  147.0520 C   0  0  1  0  0  3  0  0  0  0  0  0
  189.6220  174.5550  146.3910 N   0  0  0  0  0  0  0  0  0  0  0  0
  190.1300  176.3610  147.2140 N   0  0  0  0  0  2  0  0  0  0  0  0
  188.0330  176.3120  146.1320 C   0  0  0  0  0  3  0  0  0  0  0  0
  186.8330  176.6890  146.5630 C   0  0  0  0  0  3  0  0  0  0  0  0
  184.8820  178.4680  147.6420 O   0  0  0  0  0  1  0  0  0  0  0  0
  183.9850  178.8970  145.4520 C   0  0  0  0  0  3  0  0  0  0  0  0
  184.9110  178.2470  146.2700 C   0  0  0  0  0  0  0  0  0  0  0  0
  184.9320  177.8310  143.5370 N   0  0  0  0  0  0  0  0  0  0  0  0
  185.8580  177.3800  145.7030 C   0  0  0  0  0  0  0  0  0  0  0  0
  184.0100  178.6740  144.0750 C   0  0  0  0  0  3  0  0  0  0  0  0
  185.8450  177.1870  144.3120 C   0  0  0  0  0  3  0  0  0  0  0  0
  1 20  1  1  0  0  0
  2 11  1  0  0  0  0
  3  1  1  0  0  0  0
  4  9  1  0  0  0  0
  6  2  2  0  0  0  0
  6  8  1  0  0  0  0
  7 14  1  1  0  0  0
  7  3  1  0  0  0  0
  8  4  2  0  0  0  0
  9 12  1  0  0  0  0
 10  6  1  0  0  0  0
 11  9  2  0  0  0  0
 11  7  1  0  0  0  0
 12  3  1  0  0  0  0
 12  5  2  0  0  0  0
 14 13  2  0  0  0  0
 15 16  1  6  0  0  0
 15  1  1  0  0  0  0
 15 17  1  0  0  0  0
 17 18  2  0  0  0  0
 17 19  1  0  0  0  0
 20 21  1  0  0  0  0
 21 24  1  0  0  0  0
 22 25  1  6  0  0  0
 22 24  1  0  0  0  0
 23 21  2  0  0  0  0
 23 22  1  0  0  0  0
 25 26  2  0  0  0  0
 28 29  1  0  0  0  0
 29 27  1  0  0  0  0
 30 32  1  0  0  0  0
 30 33  2  0  0  0  0
 31 29  2  0  0  0  0
 31 26  1  0  0  0  0
 32 28  2  0  0  0  0
 33 31  1  0  0  0  0
M  END
>  <MODEL>
7

>  <REMARK>
 VINA RESULT:      -6.5      1.830      2.923
  Name = 
  8 active torsions:
  status: ('A' for Active; 'I' for Inactive)
    1  A    between atoms: N_5  and  C_21
    2  A    between atoms: C_7  and  C_20
    3  A    between atoms: C_10  and  C_13
    4  A    between atoms: C_11  and  C_26
    5  A    between atoms: C_13  and  C_21
    6  A    between atoms: C_14  and  C_19
    7  A    between atoms: C_16  and  C_17
    8  A    between atoms: C_16  and  C_21
                            x       y       z     vdW  Elec       q    Type
                         _______ _______ _______ _____ _____    ______ ____

>  <TORSDO>
F 8

$$$$
=
 OpenBabel11042416163D

 33 36  0  0  1  0  0  0  0  0999 V2000
  191.0520  173.0960  142.3190 C   0  0  2  0  0  3  0  0  0  0  0  0
  190.6790  176.7250  145.8200 C   0  0  0  0  0  3  0  0  0  0  0  0
  191.0700  173.7530  143.6300 N   0  0  0  0  0  0  0  0  0  0  0  0
  189.2790  174.4990  146.7930 C   0  0  0  0  0  3  0  0  0  0  0  0
  189.7100  172.1900  144.7920 O   0  0  0  0  0  0  0  0  0  0  0  0
  189.9210  176.7930  147.0000 C   0  0  0  0  0  0  0  0  0  0  0  0
  191.4260  175.1670  143.8610 C   0  0  1  0  0  3  0  0  0  0  0  0
  189.2460  175.6920  147.4560 N   0  0  0  0  0  0  0  0  0  0  0  0
  190.0330  174.4180  145.6280 C   0  0  0  0  0  0  0  0  0  0  0  0
  189.8510  178.0150  147.7260 N   0  0  0  0  0  1  0  0  0  0  0  0
  190.7210  175.5050  145.1470 C   0  0  0  0  0  0  0  0  0  0  0  0
  190.2290  173.3350  144.7030 C   0  0  0  0  0  0  0  0  0  0  0  0
  193.6570  174.6290  144.8290 C   0  0  0  0  0  2  0  0  0  0  0  0
  192.9160  175.3450  143.9810 C   0  0  0  0  0  3  0  0  0  0  0  0
  192.3930  172.4230  141.9830 C   0  0  1  0  0  3  0  0  0  0  0  0
  192.7090  171.3360  142.9950 C   0  0  0  0  0  1  0  0  0  0  0  0
  192.3830  171.8160  140.6150 C   0  0  0  0  0  0  0  0  0  0  0  0
  191.6620  170.8090  140.3850 O   0  0  0  0  0  1  0  0  0  0  0  0
  193.1480  172.3660  139.5930 O   0  0  0  0  0  0  0  0  0  0  0  0
  190.5270  174.0380  141.2250 C   0  0  0  0  0  2  0  0  0  0  0  0
  189.1870  174.6150  141.5480 C   0  0  0  0  0  0  0  0  0  0  0  0
  187.4610  175.3280  141.9380 C   0  0  1  0  0  3  0  0  0  0  0  0
  188.6720  175.8510  141.4740 N   0  0  0  0  0  0  0  0  0  0  0  0
  187.9320  174.0390  142.0750 N   0  0  0  0  0  2  0  0  0  0  0  0
  187.1180  175.8980  143.2790 C   0  0  0  0  0  3  0  0  0  0  0  0
  186.0290  176.6430  143.4360 C   0  0  0  0  0  3  0  0  0  0  0  0
  183.9390  178.5740  143.6400 O   0  0  0  0  0  1  0  0  0  0  0  0
  184.2520  178.7380  146.0190 C   0  0  0  0  0  3  0  0  0  0  0  0
  184.6110  178.1800  144.7910 C   0  0  0  0  0  0  0  0  0  0  0  0
  185.9250  177.4260  147.1030 N   0  0  0  0  0  0  0  0  0  0  0  0
  185.6430  177.2310  144.7300 C   0  0  0  0  0  0  0  0  0  0  0  0
  184.9270  178.3460  147.1760 C   0  0  0  0  0  3  0  0  0  0  0  0
  186.2940  176.8670  145.9200 C   0  0  0  0  0  3  0  0  0  0  0  0
  1 20  1  6  0  0  0
  1  3  1  0  0  0  0
  2  6  1  0  0  0  0
  3  7  1  0  0  0  0
  3 12  1  0  0  0  0
  4  8  1  0  0  0  0
  6  8  2  0  0  0  0
  6 10  1  0  0  0  0
  7 14  1  1  0  0  0
  7 11  1  0  0  0  0
  9  4  2  0  0  0  0
 11  9  1  0  0  0  0
 11  2  2  0  0  0  0
 12  5  2  0  0  0  0
 12  9  1  0  0  0  0
 14 13  2  0  0  0  0
 15  1  1  0  0  0  0
 15 16  1  1  0  0  0
 17 15  1  0  0  0  0
 18 17  1  0  0  0  0
 19 17  2  0  0  0  0
 20 21  1  0  0  0  0
 21 24  1  0  0  0  0
 22 24  1  0  0  0  0
 22 25  1  1  0  0  0
 23 21  2  0  0  0  0
 23 22  1  0  0  0  0
 25 26  2  0  0  0  0
 26 31  1  0  0  0  0
 27 29  1  0  0  0  0
 28 32  1  0  0  0  0
 29 28  2  0  0  0  0
 30 32  2  0  0  0  0
 31 29  1  0  0  0  0
 31 33  2  0  0  0  0
 33 30  1  0  0  0  0
M  END
>  <MODEL>
8

>  <REMARK>
 VINA RESULT:      -6.5      2.597      4.601
  Name = 
  8 active torsions:
  status: ('A' for Active; 'I' for Inactive)
    1  A    between atoms: N_5  and  C_21
    2  A    between atoms: C_7  and  C_20
    3  A    between atoms: C_10  and  C_13
    4  A    between atoms: C_11  and  C_26
    5  A    between atoms: C_13  and  C_21
    6  A    between atoms: C_14  and  C_19
    7  A    between atoms: C_16  and  C_17
    8  A    between atoms: C_16  and  C_21
                            x       y       z     vdW  Elec       q    Type
                         _______ _______ _______ _____ _____    ______ ____

>  <TORSDO>
F 8

$$$$
=
 OpenBabel11042416163D

 33 36  0  0  1  0  0  0  0  0999 V2000
  192.7940  175.6560  145.1450 C   0  0  2  0  0  3  0  0  0  0  0  0
  191.7000  171.5750  142.3680 C   0  0  0  0  0  3  0  0  0  0  0  0
  192.7930  174.7140  144.0210 N   0  0  0  0  0  0  0  0  0  0  0  0
  191.4350  173.8060  140.6890 C   0  0  0  0  0  3  0  0  0  0  0  0
  192.3470  176.2800  142.2910 O   0  0  0  0  0  0  0  0  0  0  0  0
  191.1910  171.4570  141.0640 C   0  0  0  0  0  0  0  0  0  0  0  0
  192.6250  173.2530  144.1440 C   0  0  1  0  0  3  0  0  0  0  0  0
  191.0710  172.5610  140.2630 N   0  0  0  0  0  0  0  0  0  0  0  0
  191.9480  173.9340  141.9760 C   0  0  0  0  0  0  0  0  0  0  0  0
  190.7950  170.1820  140.5740 N   0  0  0  0  0  1  0  0  0  0  0  0
  192.0810  172.8450  142.8020 C   0  0  0  0  0  0  0  0  0  0  0  0
  192.3730  175.0930  142.7120 C   0  0  0  0  0  0  0  0  0  0  0  0
  194.0790  171.7100  145.4500 C   0  0  0  0  0  2  0  0  0  0  0  0
  193.9340  172.5730  144.4420 C   0  0  0  0  0  3  0  0  0  0  0  0
  194.1220  176.4230  145.2640 C   0  0  1  0  0  3  0  0  0  0  0  0
  194.2110  177.1210  146.6100 C   0  0  0  0  0  1  0  0  0  0  0  0
  195.3030  175.5160  145.1170 C   0  0  0  0  0  0  0  0  0  0  0  0
  195.7050  174.8490  146.1060 O   0  0  0  0  0  1  0  0  0  0  0  0
  195.9470  175.3900  143.8910 O   0  0  0  0  0  0  0  0  0  0  0  0
  192.3390  174.9780  146.4470 C   0  0  0  0  0  2  0  0  0  0  0  0
  190.9040  175.2430  146.7690 C   0  0  0  0  0  0  0  0  0  0  0  0
  189.0810  175.5850  147.2130 C   0  0  1  0  0  3  0  0  0  0  0  0
  189.7720  174.5510  146.5730 N   0  0  0  0  0  0  0  0  0  0  0  0
  190.1980  176.3690  147.4150 N   0  0  0  0  0  2  0  0  0  0  0  0
  188.1410  176.2610  146.2640 C   0  0  0  0  0  3  0  0  0  0  0  0
  186.9790  176.7420  146.6930 C   0  0  0  0  0  3  0  0  0  0  0  0
  185.1160  178.6630  147.6820 O   0  0  0  0  0  1  0  0  0  0  0  0
  184.1980  178.9830  145.4820 C   0  0  0  0  0  3  0  0  0  0  0  0
  185.1120  178.3520  146.3270 C   0  0  0  0  0  0  0  0  0  0  0  0
  185.0710  177.7600  143.6270 N   0  0  0  0  0  0  0  0  0  0  0  0
  186.0160  177.4140  145.8040 C   0  0  0  0  0  0  0  0  0  0  0  0
  184.1910  178.6710  144.1220 C   0  0  0  0  0  3  0  0  0  0  0  0
  185.9720  177.1320  144.4290 C   0  0  0  0  0  3  0  0  0  0  0  0
  1 15  1  0  0  0  0
  1 20  1  1  0  0  0
  2 11  1  0  0  0  0
  3  7  1  0  0  0  0
  3  1  1  0  0  0  0
  4  9  1  0  0  0  0
  5 12  2  0  0  0  0
  6  2  2  0  0  0  0
  7 14  1  6  0  0  0
  8  4  2  0  0  0  0
  8  6  1  0  0  0  0
  9 12  1  0  0  0  0
  9 11  2  0  0  0  0
 10  6  1  0  0  0  0
 11  7  1  0  0  0  0
 12  3  1  0  0  0  0
 14 13  2  0  0  0  0
 15 16  1  1  0  0  0
 17 15  1  0  0  0  0
 17 18  1  0  0  0  0
 19 17  2  0  0  0  0
 20 21  1  0  0  0  0
 21 24  1  0  0  0  0
 22 25  1  6  0  0  0
 22 24  1  0  0  0  0
 23 21  2  0  0  0  0
 23 22  1  0  0  0  0
 25 26  2  0  0  0  0
 28 29  1  0  0  0  0
 29 27  1  0  0  0  0
 30 32  1  0  0  0  0
 30 33  2  0  0  0  0
 31 29  2  0  0  0  0
 31 26  1  0  0  0  0
 32 28  2  0  0  0  0
 33 31  1  0  0  0  0
M  END
>  <MODEL>
9

>  <REMARK>
 VINA RESULT:      -6.4      1.976      3.059
  Name = 
  8 active torsions:
  status: ('A' for Active; 'I' for Inactive)
    1  A    between atoms: N_5  and  C_21
    2  A    between atoms: C_7  and  C_20
    3  A    between atoms: C_10  and  C_13
    4  A    between atoms: C_11  and  C_26
    5  A    between atoms: C_13  and  C_21
    6  A    between atoms: C_14  and  C_19
    7  A    between atoms: C_16  and  C_17
    8  A    between atoms: C_16  and  C_21
                            x       y       z     vdW  Elec       q    Type
                         _______ _______ _______ _____ _____    ______ ____

>  <TORSDO>
F 8

$$$$
