=
 OpenBabel11042418313D

 37 38  0  0  1  0  0  0  0  0999 V2000
  190.8260  178.0830  143.0410 O   0  0  0  0  0  0  0  0  0  0  0  0
  189.7570  178.1770  142.2240 O   0  0  0  0  0  0  0  0  0  0  0  0
  189.4080  177.0130  144.1780 C   0  0  0  0  0  0  0  0  0  0  0  0
  188.7600  177.4400  142.9080 C   0  0  2  0  0  3  0  0  0  0  0  0
  190.6210  177.4010  144.2110 N   0  0  0  0  0  0  0  0  0  0  0  0
  188.3490  176.2560  142.0840 C   0  0  0  0  0  0  0  0  0  0  0  0
  187.4700  176.4090  140.9690 N   0  0  0  0  0  2  0  0  0  0  0  0
  188.7860  175.1100  142.3700 O   0  0  0  0  0  0  0  0  0  0  0  0
  186.9740  177.7060  140.5320 C   0  0  0  0  0  2  0  0  0  0  0  0
  184.6180  177.8490  140.2030 O   0  0  0  0  0  0  0  0  0  0  0  0
  185.3560  178.2230  142.3970 N   0  0  0  0  0  2  0  0  0  0  0  0
  184.0730  178.4640  142.9860 C   0  0  0  0  0  0  0  0  0  0  0  0
  183.0170  178.3480  142.3060 O   0  0  0  0  0  0  0  0  0  0  0  0
  185.5800  177.9100  141.0170 C   0  0  0  0  0  0  0  0  0  0  0  0
  183.9850  178.8640  144.4180 C   0  0  0  0  0  2  0  0  0  0  0  0
  185.3560  179.2530  144.9480 C   0  0  0  0  0  2  0  0  0  0  0  0
  185.6320  177.8330  147.0020 C   0  0  0  0  0  0  0  0  0  0  0  0
  186.1700  176.8490  147.5740 O   0  0  0  0  0  0  0  0  0  0  0  0
  184.7280  178.6250  147.7000 O   0  0  0  0  0  1  0  0  0  0  0  0
  185.9600  178.1280  145.6460 N   0  0  0  0  0  2  0  0  0  0  0  0
  188.7750  176.2240  145.2750 C   0  0  0  0  0  2  0  0  0  0  0  0
  189.1560  174.5720  147.0790 C   0  0  0  0  0  2  0  0  0  0  0  0
  189.7790  175.2650  145.8840 C   0  0  2  0  0  3  0  0  0  0  0  0
  190.1040  175.7340  147.2870 C   0  0  2  0  0  3  0  0  0  0  0  0
  191.4620  175.1950  147.6950 C   0  0  0  0  0  2  0  0  0  0  0  0
  192.5400  175.8480  146.8530 C   0  0  0  0  0  2  0  0  0  0  0  0
  193.3750  174.7940  146.1450 C   0  0  0  0  0  2  0  0  0  0  0  0
  193.6900  175.2700  144.4160 S   0  0  0  0  0  0  0  0  0  0  0  0
  195.1160  174.1490  144.2550 C   0  0  1  0  0  3  0  0  0  0  0  0
  196.4030  174.9540  144.1380 C   0  0  0  0  0  2  0  0  0  0  0  0
  196.7920  176.6910  142.6350 C   0  0  0  0  0  1  0  0  0  0  0  0
  196.0970  176.3490  143.8620 N   0  0  0  0  0  2  0  0  0  0  0  0
  195.1550  173.1250  145.3950 C   0  0  0  0  0  2  0  0  0  0  0  0
  196.5590  172.8630  145.9290 C   0  0  0  0  0  2  0  0  0  0  0  0
  196.8110  171.3690  146.0480 C   0  0  0  0  0  2  0  0  0  0  0  0
  195.9630  170.6050  145.0420 C   0  0  0  0  0  2  0  0  0  0  0  0
  195.6740  169.3280  145.5310 O   0  0  0  0  0  1  0  0  0  0  0  0
  1  5  1  0  0  0  0
  2  4  1  0  0  0  0
  2  1  1  0  0  0  0
  3  5  2  0  0  0  0
  3 21  1  0  0  0  0
  4  6  1  6  0  0  0
  4  3  1  0  0  0  0
  6  8  2  0  0  0  0
  7  6  1  0  0  0  0
  9  7  1  0  0  0  0
  9 14  1  0  0  0  0
 10 14  2  0  0  0  0
 11 12  1  0  0  0  0
 12 15  1  0  0  0  0
 13 12  2  0  0  0  0
 14 11  1  0  0  0  0
 15 16  1  0  0  0  0
 16 20  1  0  0  0  0
 17 18  2  0  0  0  0
 17 19  1  0  0  0  0
 20 17  1  0  0  0  0
 22 24  1  0  0  0  0
 23 21  1  6  0  0  0
 23 22  1  0  0  0  0
 23 24  1  0  0  0  0
 24 25  1  1  0  0  0
 26 25  1  0  0  0  0
 27 26  1  0  0  0  0
 28 27  1  0  0  0  0
 29 30  1  1  0  0  0
 29 28  1  0  0  0  0
 29 33  1  0  0  0  0
 31 32  1  0  0  0  0
 32 30  1  0  0  0  0
 33 34  1  0  0  0  0
 34 35  1  0  0  0  0
 36 37  1  0  0  0  0
 36 35  1  0  0  0  0
M  END
>  <MODEL>
1

>  <REMARK>
 VINA RESULT:      -6.2      0.000      0.000
  Name = 
  19 active torsions:
  status: ('A' for Active; 'I' for Inactive)
    1  A    between atoms: C_2  and  C_29
    2  A    between atoms: C_2  and  C_37
    3  A    between atoms: C_3  and  C_6
    4  A    between atoms: C_3  and  C_29
    5  A    between atoms: C_4  and  C_16
    6  A    between atoms: C_4  and  S_21
    7  A    between atoms: C_7  and  C_27
    8  A    between atoms: C_7  and  C_32
    9  A    between atoms: C_10  and  N_22
   10  A    between atoms: C_10  and  C_35
   11  A    between atoms: C_15  and  C_25
   12  A    between atoms: C_15  and  C_26
   13  A    between atoms: C_16  and  C_20
   14  A    between atoms: C_17  and  C_34
   15  A    between atoms: C_18  and  N_24
   16  A    between atoms: C_18  and  C_37
   17  A    between atoms: C_20  and  C_33
   18  A    between atoms: S_21  and  C_37
   19  A    between atoms: N_30  and  C_32
                            x       y       z     vdW  Elec       q    Type
                         _______ _______ _______ _____ _____    ______ ____

>  <TORSDO>
F 19

$$$$
=
 OpenBabel11042418313D

 37 38  0  0  1  0  0  0  0  0999 V2000
  184.0330  179.3040  145.5180 O   0  0  0  0  0  0  0  0  0  0  0  0
  185.0840  179.1050  146.3390 O   0  0  0  0  0  0  0  0  0  0  0  0
  185.1630  177.9680  144.3410 C   0  0  0  0  0  0  0  0  0  0  0  0
  185.8810  178.1760  145.6270 C   0  0  2  0  0  3  0  0  0  0  0  0
  184.0810  178.6390  144.3220 N   0  0  0  0  0  0  0  0  0  0  0  0
  185.9840  176.8970  146.4040 C   0  0  0  0  0  0  0  0  0  0  0  0
  187.2500  176.4170  146.8600 N   0  0  0  0  0  2  0  0  0  0  0  0
  184.9450  176.2350  146.6640 O   0  0  0  0  0  0  0  0  0  0  0  0
  188.4890  177.1540  146.6580 C   0  0  0  0  0  2  0  0  0  0  0  0
  189.4730  175.0970  147.3530 O   0  0  0  0  0  0  0  0  0  0  0  0
  190.9830  176.7860  146.7470 N   0  0  0  0  0  2  0  0  0  0  0  0
  192.1880  176.0530  146.9910 C   0  0  0  0  0  0  0  0  0  0  0  0
  192.1500  174.8400  147.3350 O   0  0  0  0  0  0  0  0  0  0  0  0
  189.6580  176.2710  146.9280 C   0  0  0  0  0  0  0  0  0  0  0  0
  193.5060  176.7340  146.8440 C   0  0  0  0  0  2  0  0  0  0  0  0
  194.4750  175.8580  146.0680 C   0  0  0  0  0  2  0  0  0  0  0  0
  195.4720  175.9660  143.7640 C   0  0  0  0  0  0  0  0  0  0  0  0
  195.9670  176.6470  142.8290 O   0  0  0  0  0  0  0  0  0  0  0  0
  195.3410  174.5890  143.6180 O   0  0  0  0  0  1  0  0  0  0  0  0
  195.0560  176.6100  144.9670 N   0  0  0  0  0  2  0  0  0  0  0  0
  185.5990  177.0930  143.2130 C   0  0  0  0  0  2  0  0  0  0  0  0
  187.1280  176.8680  141.2780 C   0  0  0  0  0  2  0  0  0  0  0  0
  186.6250  177.8080  142.3550 C   0  0  2  0  0  3  0  0  0  0  0  0
  187.9610  177.1120  142.5190 C   0  0  2  0  0  3  0  0  0  0  0  0
  189.0770  178.0820  142.1800 C   0  0  0  0  0  2  0  0  0  0  0  0
  190.3560  177.6400  142.8630 C   0  0  0  0  0  2  0  0  0  0  0  0
  190.2010  176.2370  143.4280 C   0  0  0  0  0  2  0  0  0  0  0  0
  191.7100  175.2570  143.1500 S   0  0  0  0  0  0  0  0  0  0  0  0
  190.8360  173.6680  143.3170 C   0  0  1  0  0  3  0  0  0  0  0  0
  191.3320  172.9260  144.5510 C   0  0  0  0  0  2  0  0  0  0  0  0
  193.2830  171.7660  144.0240 C   0  0  0  0  0  1  0  0  0  0  0  0
  191.8470  171.6190  144.1760 N   0  0  0  0  0  2  0  0  0  0  0  0
  189.3160  173.8610  143.3090 C   0  0  0  0  0  2  0  0  0  0  0  0
  188.6550  173.4270  142.0050 C   0  0  0  0  0  2  0  0  0  0  0  0
  189.6710  172.7570  141.0940 C   0  0  0  0  0  2  0  0  0  0  0  0
  189.7000  173.4420  139.7370 C   0  0  0  0  0  2  0  0  0  0  0  0
  188.4960  174.1170  139.5150 O   0  0  0  0  0  1  0  0  0  0  0  0
  1  2  1  0  0  0  0
  3  4  1  0  0  0  0
  4  2  1  0  0  0  0
  4  6  1  1  0  0  0
  5  3  2  0  0  0  0
  5  1  1  0  0  0  0
  6  8  2  0  0  0  0
  6  7  1  0  0  0  0
  9  7  1  0  0  0  0
  9 14  1  0  0  0  0
 11 14  1  0  0  0  0
 11 12  1  0  0  0  0
 12 13  2  0  0  0  0
 14 10  2  0  0  0  0
 15 12  1  0  0  0  0
 16 15  1  0  0  0  0
 17 20  1  0  0  0  0
 18 17  2  0  0  0  0
 19 17  1  0  0  0  0
 20 16  1  0  0  0  0
 21  3  1  0  0  0  0
 22 23  1  0  0  0  0
 22 24  1  0  0  0  0
 23 24  1  0  0  0  0
 23 21  1  1  0  0  0
 24 25  1  6  0  0  0
 25 26  1  0  0  0  0
 26 27  1  0  0  0  0
 28 29  1  0  0  0  0
 28 27  1  0  0  0  0
 29 33  1  1  0  0  0
 29 30  1  0  0  0  0
 31 32  1  0  0  0  0
 32 30  1  0  0  0  0
 34 33  1  0  0  0  0
 35 34  1  0  0  0  0
 36 35  1  0  0  0  0
 37 36  1  0  0  0  0
M  END
>  <MODEL>
2

>  <REMARK>
 VINA RESULT:      -6.1      2.797      7.500
  Name = 
  19 active torsions:
  status: ('A' for Active; 'I' for Inactive)
    1  A    between atoms: C_2  and  C_29
    2  A    between atoms: C_2  and  C_37
    3  A    between atoms: C_3  and  C_6
    4  A    between atoms: C_3  and  C_29
    5  A    between atoms: C_4  and  C_16
    6  A    between atoms: C_4  and  S_21
    7  A    between atoms: C_7  and  C_27
    8  A    between atoms: C_7  and  C_32
    9  A    between atoms: C_10  and  N_22
   10  A    between atoms: C_10  and  C_35
   11  A    between atoms: C_15  and  C_25
   12  A    between atoms: C_15  and  C_26
   13  A    between atoms: C_16  and  C_20
   14  A    between atoms: C_17  and  C_34
   15  A    between atoms: C_18  and  N_24
   16  A    between atoms: C_18  and  C_37
   17  A    between atoms: C_20  and  C_33
   18  A    between atoms: S_21  and  C_37
   19  A    between atoms: N_30  and  C_32
                            x       y       z     vdW  Elec       q    Type
                         _______ _______ _______ _____ _____    ______ ____

>  <TORSDO>
F 19

$$$$
=
 OpenBabel11042418313D

 37 38  0  0  1  0  0  0  0  0999 V2000
  195.0360  177.3910  145.4140 O   0  0  0  0  0  0  0  0  0  0  0  0
  195.4940  176.5090  144.5020 O   0  0  0  0  0  0  0  0  0  0  0  0
  193.6660  175.8160  145.7160 C   0  0  0  0  0  0  0  0  0  0  0  0
  194.6380  175.3930  144.6720 C   0  0  2  0  0  3  0  0  0  0  0  0
  193.9410  176.9880  146.1310 N   0  0  0  0  0  0  0  0  0  0  0  0
  195.4370  174.2060  145.1240 C   0  0  0  0  0  0  0  0  0  0  0  0
  195.2760  172.9330  144.4970 N   0  0  0  0  0  2  0  0  0  0  0  0
  196.2660  174.3280  146.0640 O   0  0  0  0  0  0  0  0  0  0  0  0
  194.3880  172.7230  143.3620 C   0  0  0  0  0  2  0  0  0  0  0  0
  192.8530  171.4700  144.6860 O   0  0  0  0  0  0  0  0  0  0  0  0
  191.8940  173.0960  143.2940 N   0  0  0  0  0  2  0  0  0  0  0  0
  190.5270  172.8610  143.6490 C   0  0  0  0  0  0  0  0  0  0  0  0
  190.2250  172.0290  144.5470 O   0  0  0  0  0  0  0  0  0  0  0  0
  193.0160  172.3930  143.8410 C   0  0  0  0  0  0  0  0  0  0  0  0
  189.4460  173.6060  142.9430 C   0  0  0  0  0  2  0  0  0  0  0  0
  189.9500  174.1430  141.6130 C   0  0  0  0  0  2  0  0  0  0  0  0
  188.9210  173.3770  139.4530 C   0  0  0  0  0  0  0  0  0  0  0  0
  188.7950  172.4920  138.5670 O   0  0  0  0  0  0  0  0  0  0  0  0
  188.2220  174.5730  139.3340 O   0  0  0  0  0  1  0  0  0  0  0  0
  189.7730  173.1420  140.5720 N   0  0  0  0  0  2  0  0  0  0  0  0
  192.5290  175.0090  146.2480 C   0  0  0  0  0  2  0  0  0  0  0  0
  190.6920  175.3290  147.8760 C   0  0  0  0  0  2  0  0  0  0  0  0
  191.3860  175.9150  146.6650 C   0  0  2  0  0  3  0  0  0  0  0  0
  190.0850  175.1580  146.5000 C   0  0  2  0  0  3  0  0  0  0  0  0
  188.9460  176.1450  146.3370 C   0  0  0  0  0  2  0  0  0  0  0  0
  189.4670  177.4200  145.7020 C   0  0  0  0  0  2  0  0  0  0  0  0
  188.8820  177.6000  144.3100 C   0  0  0  0  0  2  0  0  0  0  0  0
  187.3580  176.6220  144.1170 S   0  0  0  0  0  0  0  0  0  0  0  0
  186.4770  177.9670  143.2610 C   0  0  1  0  0  3  0  0  0  0  0  0
  185.9660  177.4810  141.9120 C   0  0  0  0  0  2  0  0  0  0  0  0
  186.4370  177.4780  139.6300 C   0  0  0  0  0  1  0  0  0  0  0  0
  187.0510  177.4560  140.9440 N   0  0  0  0  0  2  0  0  0  0  0  0
  185.3700  178.5590  144.1400 C   0  0  0  0  0  2  0  0  0  0  0  0
  185.3020  177.9380  145.5310 C   0  0  0  0  0  2  0  0  0  0  0  0
  185.7130  178.9540  146.5860 C   0  0  0  0  0  2  0  0  0  0  0  0
  186.2450  178.2480  147.8230 C   0  0  0  0  0  2  0  0  0  0  0  0
  187.0770  179.1090  148.5450 O   0  0  0  0  0  1  0  0  0  0  0  0
  1  5  1  0  0  0  0
  2  4  1  0  0  0  0
  2  1  1  0  0  0  0
  3  5  2  0  0  0  0
  3 21  1  0  0  0  0
  4  6  1  1  0  0  0
  4  3  1  0  0  0  0
  6  8  2  0  0  0  0
  7  6  1  0  0  0  0
  9 14  1  0  0  0  0
  9  7  1  0  0  0  0
 11 12  1  0  0  0  0
 11 14  1  0  0  0  0
 12 13  2  0  0  0  0
 14 10  2  0  0  0  0
 15 12  1  0  0  0  0
 16 15  1  0  0  0  0
 17 20  1  0  0  0  0
 18 17  2  0  0  0  0
 19 17  1  0  0  0  0
 20 16  1  0  0  0  0
 23 21  1  6  0  0  0
 23 22  1  0  0  0  0
 24 25  1  1  0  0  0
 24 23  1  0  0  0  0
 24 22  1  0  0  0  0
 26 25  1  0  0  0  0
 27 26  1  0  0  0  0
 28 27  1  0  0  0  0
 29 30  1  6  0  0  0
 29 28  1  0  0  0  0
 29 33  1  0  0  0  0
 31 32  1  0  0  0  0
 32 30  1  0  0  0  0
 33 34  1  0  0  0  0
 34 35  1  0  0  0  0
 35 36  1  0  0  0  0
 36 37  1  0  0  0  0
M  END
>  <MODEL>
3

>  <REMARK>
 VINA RESULT:      -6.0      2.966      8.587
  Name = 
  19 active torsions:
  status: ('A' for Active; 'I' for Inactive)
    1  A    between atoms: C_2  and  C_29
    2  A    between atoms: C_2  and  C_37
    3  A    between atoms: C_3  and  C_6
    4  A    between atoms: C_3  and  C_29
    5  A    between atoms: C_4  and  C_16
    6  A    between atoms: C_4  and  S_21
    7  A    between atoms: C_7  and  C_27
    8  A    between atoms: C_7  and  C_32
    9  A    between atoms: C_10  and  N_22
   10  A    between atoms: C_10  and  C_35
   11  A    between atoms: C_15  and  C_25
   12  A    between atoms: C_15  and  C_26
   13  A    between atoms: C_16  and  C_20
   14  A    between atoms: C_17  and  C_34
   15  A    between atoms: C_18  and  N_24
   16  A    between atoms: C_18  and  C_37
   17  A    between atoms: C_20  and  C_33
   18  A    between atoms: S_21  and  C_37
   19  A    between atoms: N_30  and  C_32
                            x       y       z     vdW  Elec       q    Type
                         _______ _______ _______ _____ _____    ______ ____

>  <TORSDO>
F 19

$$$$
=
 OpenBabel11042418313D

 37 38  0  0  1  0  0  0  0  0999 V2000
  192.1090  172.6530  142.0410 O   0  0  0  0  0  0  0  0  0  0  0  0
  191.4780  173.6750  141.4260 O   0  0  0  0  0  0  0  0  0  0  0  0
  190.6600  173.1130  143.5020 C   0  0  0  0  0  0  0  0  0  0  0  0
  190.4520  174.0190  142.3390 C   0  0  2  0  0  3  0  0  0  0  0  0
  191.6340  172.3230  143.2820 N   0  0  0  0  0  0  0  0  0  0  0  0
  189.1110  173.7890  141.7060 C   0  0  0  0  0  0  0  0  0  0  0  0
  188.1510  174.8430  141.6190 N   0  0  0  0  0  2  0  0  0  0  0  0
  188.8240  172.6550  141.2380 O   0  0  0  0  0  0  0  0  0  0  0  0
  188.4280  176.1970  142.0760 C   0  0  0  0  0  2  0  0  0  0  0  0
  186.5260  177.0130  140.8940 O   0  0  0  0  0  0  0  0  0  0  0  0
  186.8370  177.8980  143.0430 N   0  0  0  0  0  2  0  0  0  0  0  0
  185.7010  178.7690  143.0510 C   0  0  0  0  0  0  0  0  0  0  0  0
  184.8880  178.7810  142.0870 O   0  0  0  0  0  0  0  0  0  0  0  0
  187.2030  177.0360  141.9590 C   0  0  0  0  0  0  0  0  0  0  0  0
  185.4790  179.6780  144.2110 C   0  0  0  0  0  2  0  0  0  0  0  0
  184.4240  179.1050  145.1430 C   0  0  0  0  0  2  0  0  0  0  0  0
  185.5110  177.5990  146.8350 C   0  0  0  0  0  0  0  0  0  0  0  0
  186.0020  177.4350  147.9820 O   0  0  0  0  0  1  0  0  0  0  0  0
  185.4720  176.5320  145.9440 O   0  0  0  0  0  0  0  0  0  0  0  0
  184.9940  178.8750  146.4610 N   0  0  0  0  0  2  0  0  0  0  0  0
  189.8550  173.0850  144.7590 C   0  0  0  0  0  2  0  0  0  0  0  0
  189.2880  174.4290  146.7590 C   0  0  0  0  0  2  0  0  0  0  0  0
  190.3630  174.1270  145.7360 C   0  0  2  0  0  3  0  0  0  0  0  0
  189.5140  175.3740  145.5980 C   0  0  2  0  0  3  0  0  0  0  0  0
  190.3010  176.5750  146.0850 C   0  0  0  0  0  2  0  0  0  0  0  0
  190.9340  177.2810  144.9020 C   0  0  0  0  0  2  0  0  0  0  0  0
  192.3940  176.8810  144.7610 C   0  0  0  0  0  2  0  0  0  0  0  0
  193.1120  176.4690  146.3830 S   0  0  0  0  0  0  0  0  0  0  0  0
  194.7570  176.1210  145.6840 C   0  0  1  0  0  3  0  0  0  0  0  0
  195.1140  174.6560  145.8950 C   0  0  0  0  0  2  0  0  0  0  0  0
  194.5050  172.4360  145.5340 C   0  0  0  0  0  1  0  0  0  0  0  0
  194.1760  173.8040  145.1810 N   0  0  0  0  0  2  0  0  0  0  0  0
  194.8440  176.5500  144.2150 C   0  0  0  0  0  2  0  0  0  0  0  0
  196.2520  176.4530  143.6360 C   0  0  0  0  0  2  0  0  0  0  0  0
  196.1950  176.0890  142.1610 C   0  0  0  0  0  2  0  0  0  0  0  0
  194.9110  175.3350  141.8490 C   0  0  0  0  0  2  0  0  0  0  0  0
  195.1560  173.9580  141.8360 O   0  0  0  0  0  1  0  0  0  0  0  0
  1  5  1  0  0  0  0
  2  1  1  0  0  0  0
  2  4  1  0  0  0  0
  3 21  1  0  0  0  0
  4  6  1  6  0  0  0
  4  3  1  0  0  0  0
  5  3  2  0  0  0  0
  7  6  1  0  0  0  0
  7  9  1  0  0  0  0
  8  6  2  0  0  0  0
 10 14  2  0  0  0  0
 11 12  1  0  0  0  0
 12 15  1  0  0  0  0
 13 12  2  0  0  0  0
 14  9  1  0  0  0  0
 14 11  1  0  0  0  0
 15 16  1  0  0  0  0
 16 20  1  0  0  0  0
 17 18  1  0  0  0  0
 19 17  2  0  0  0  0
 20 17  1  0  0  0  0
 23 21  1  6  0  0  0
 23 22  1  0  0  0  0
 24 23  1  0  0  0  0
 24 25  1  1  0  0  0
 24 22  1  0  0  0  0
 26 25  1  0  0  0  0
 27 26  1  0  0  0  0
 27 28  1  0  0  0  0
 29 33  1  6  0  0  0
 29 30  1  0  0  0  0
 29 28  1  0  0  0  0
 32 31  1  0  0  0  0
 32 30  1  0  0  0  0
 34 33  1  0  0  0  0
 35 34  1  0  0  0  0
 36 35  1  0  0  0  0
 37 36  1  0  0  0  0
M  END
>  <MODEL>
4

>  <REMARK>
 VINA RESULT:      -5.9      2.374      3.326
  Name = 
  19 active torsions:
  status: ('A' for Active; 'I' for Inactive)
    1  A    between atoms: C_2  and  C_29
    2  A    between atoms: C_2  and  C_37
    3  A    between atoms: C_3  and  C_6
    4  A    between atoms: C_3  and  C_29
    5  A    between atoms: C_4  and  C_16
    6  A    between atoms: C_4  and  S_21
    7  A    between atoms: C_7  and  C_27
    8  A    between atoms: C_7  and  C_32
    9  A    between atoms: C_10  and  N_22
   10  A    between atoms: C_10  and  C_35
   11  A    between atoms: C_15  and  C_25
   12  A    between atoms: C_15  and  C_26
   13  A    between atoms: C_16  and  C_20
   14  A    between atoms: C_17  and  C_34
   15  A    between atoms: C_18  and  N_24
   16  A    between atoms: C_18  and  C_37
   17  A    between atoms: C_20  and  C_33
   18  A    between atoms: S_21  and  C_37
   19  A    between atoms: N_30  and  C_32
                            x       y       z     vdW  Elec       q    Type
                         _______ _______ _______ _____ _____    ______ ____

>  <TORSDO>
F 19

$$$$
=
 OpenBabel11042418313D

 37 38  0  0  1  0  0  0  0  0999 V2000
  183.9950  179.0260  143.4410 O   0  0  0  0  0  0  0  0  0  0  0  0
  184.0750  177.9260  142.6640 O   0  0  0  0  0  0  0  0  0  0  0  0
  185.8360  178.2450  144.1100 C   0  0  0  0  0  0  0  0  0  0  0  0
  185.3200  177.3600  143.0310 C   0  0  2  0  0  3  0  0  0  0  0  0
  185.0350  179.2140  144.3120 N   0  0  0  0  0  0  0  0  0  0  0  0
  186.2430  177.3530  141.8480 C   0  0  0  0  0  0  0  0  0  0  0  0
  187.1710  176.2850  141.6490 N   0  0  0  0  0  2  0  0  0  0  0  0
  186.2000  178.2950  141.0130 O   0  0  0  0  0  0  0  0  0  0  0  0
  187.2380  175.1280  142.5290 C   0  0  0  0  0  2  0  0  0  0  0  0
  187.5160  172.8370  141.9350 O   0  0  0  0  0  0  0  0  0  0  0  0
  189.1880  174.2900  141.1670 N   0  0  0  0  0  2  0  0  0  0  0  0
  189.9920  173.3110  140.4990 C   0  0  0  0  0  0  0  0  0  0  0  0
  189.6180  172.1090  140.4240 O   0  0  0  0  0  0  0  0  0  0  0  0
  187.9630  174.0140  141.8550 C   0  0  0  0  0  0  0  0  0  0  0  0
  191.2910  173.7170  139.8910 C   0  0  0  0  0  2  0  0  0  0  0  0
  191.4430  173.1090  138.5060 C   0  0  0  0  0  2  0  0  0  0  0  0
  189.6940  173.8290  136.8530 C   0  0  0  0  0  0  0  0  0  0  0  0
  189.2940  174.6520  135.9890 O   0  0  0  0  0  0  0  0  0  0  0  0
  188.9090  172.7250  137.1670 O   0  0  0  0  0  1  0  0  0  0  0  0
  190.9490  174.0340  137.4980 N   0  0  0  0  0  2  0  0  0  0  0  0
  187.1140  178.0730  144.8630 C   0  0  0  0  0  2  0  0  0  0  0  0
  187.0460  177.2990  147.2140 C   0  0  0  0  0  2  0  0  0  0  0  0
  187.0370  176.8570  145.7650 C   0  0  2  0  0  3  0  0  0  0  0  0
  188.3150  176.7750  146.5750 C   0  0  2  0  0  3  0  0  0  0  0  0
  188.5360  175.3430  147.0210 C   0  0  0  0  0  2  0  0  0  0  0  0
  189.9290  174.8980  146.6220 C   0  0  0  0  0  2  0  0  0  0  0  0
  190.9430  175.3080  147.6780 C   0  0  0  0  0  2  0  0  0  0  0  0
  192.2840  176.2950  146.9410 S   0  0  0  0  0  0  0  0  0  0  0  0
  191.9080  175.7360  145.2480 C   0  0  1  0  0  3  0  0  0  0  0  0
  191.5830  176.9320  144.3640 C   0  0  0  0  0  2  0  0  0  0  0  0
  190.1550  177.8380  142.7610 C   0  0  0  0  0  1  0  0  0  0  0  0
  190.4300  176.6380  143.5280 N   0  0  0  0  0  2  0  0  0  0  0  0
  193.0350  174.8640  144.6830 C   0  0  0  0  0  2  0  0  0  0  0  0
  193.3980  173.6850  145.5790 C   0  0  0  0  0  2  0  0  0  0  0  0
  194.8890  173.3970  145.4990 C   0  0  0  0  0  2  0  0  0  0  0  0
  195.5220  174.1890  144.3650 C   0  0  0  0  0  2  0  0  0  0  0  0
  196.7080  174.7860  144.8030 O   0  0  0  0  0  1  0  0  0  0  0  0
  1  5  1  0  0  0  0
  2  4  1  0  0  0  0
  2  1  1  0  0  0  0
  3  5  2  0  0  0  0
  3 21  1  0  0  0  0
  4  6  1  6  0  0  0
  4  3  1  0  0  0  0
  7  6  1  0  0  0  0
  7  9  1  0  0  0  0
  8  6  2  0  0  0  0
 11 14  1  0  0  0  0
 12 11  1  0  0  0  0
 13 12  2  0  0  0  0
 14 10  2  0  0  0  0
 14  9  1  0  0  0  0
 15 12  1  0  0  0  0
 16 15  1  0  0  0  0
 17 19  1  0  0  0  0
 17 20  1  0  0  0  0
 18 17  2  0  0  0  0
 20 16  1  0  0  0  0
 23 21  1  6  0  0  0
 23 24  1  0  0  0  0
 23 22  1  0  0  0  0
 24 25  1  1  0  0  0
 24 22  1  0  0  0  0
 26 25  1  0  0  0  0
 26 27  1  0  0  0  0
 28 27  1  0  0  0  0
 29 30  1  6  0  0  0
 29 28  1  0  0  0  0
 31 32  1  0  0  0  0
 32 30  1  0  0  0  0
 33 29  1  0  0  0  0
 33 34  1  0  0  0  0
 35 34  1  0  0  0  0
 36 37  1  0  0  0  0
 36 35  1  0  0  0  0
M  END
>  <MODEL>
5

>  <REMARK>
 VINA RESULT:      -5.9      2.983      6.262
  Name = 
  19 active torsions:
  status: ('A' for Active; 'I' for Inactive)
    1  A    between atoms: C_2  and  C_29
    2  A    between atoms: C_2  and  C_37
    3  A    between atoms: C_3  and  C_6
    4  A    between atoms: C_3  and  C_29
    5  A    between atoms: C_4  and  C_16
    6  A    between atoms: C_4  and  S_21
    7  A    between atoms: C_7  and  C_27
    8  A    between atoms: C_7  and  C_32
    9  A    between atoms: C_10  and  N_22
   10  A    between atoms: C_10  and  C_35
   11  A    between atoms: C_15  and  C_25
   12  A    between atoms: C_15  and  C_26
   13  A    between atoms: C_16  and  C_20
   14  A    between atoms: C_17  and  C_34
   15  A    between atoms: C_18  and  N_24
   16  A    between atoms: C_18  and  C_37
   17  A    between atoms: C_20  and  C_33
   18  A    between atoms: S_21  and  C_37
   19  A    between atoms: N_30  and  C_32
                            x       y       z     vdW  Elec       q    Type
                         _______ _______ _______ _____ _____    ______ ____

>  <TORSDO>
F 19

$$$$
=
 OpenBabel11042418313D

 37 38  0  0  1  0  0  0  0  0999 V2000
  191.6510  172.3430  142.9710 O   0  0  0  0  0  0  0  0  0  0  0  0
  191.3350  173.0740  141.8820 O   0  0  0  0  0  0  0  0  0  0  0  0
  190.2410  173.6620  143.8180 C   0  0  0  0  0  0  0  0  0  0  0  0
  190.3500  173.9690  142.3660 C   0  0  2  0  0  3  0  0  0  0  0  0
  191.0120  172.6980  144.1290 N   0  0  0  0  0  0  0  0  0  0  0  0
  189.0500  173.7230  141.6600 C   0  0  0  0  0  0  0  0  0  0  0  0
  188.1460  174.7960  141.3930 N   0  0  0  0  0  2  0  0  0  0  0  0
  188.7460  172.5570  141.2910 O   0  0  0  0  0  0  0  0  0  0  0  0
  188.4500  176.1800  141.7270 C   0  0  0  0  0  2  0  0  0  0  0  0
  186.6720  177.0900  140.4270 O   0  0  0  0  0  0  0  0  0  0  0  0
  186.7530  177.7960  142.6620 N   0  0  0  0  0  2  0  0  0  0  0  0
  185.6140  178.6630  142.6240 C   0  0  0  0  0  0  0  0  0  0  0  0
  184.9050  178.7540  141.5850 O   0  0  0  0  0  0  0  0  0  0  0  0
  187.2350  177.0260  141.5540 C   0  0  0  0  0  0  0  0  0  0  0  0
  185.2670  179.4740  143.8250 C   0  0  0  0  0  2  0  0  0  0  0  0
  184.4910  178.6350  144.8270 C   0  0  0  0  0  2  0  0  0  0  0  0
  185.5630  177.7960  146.9380 C   0  0  0  0  0  0  0  0  0  0  0  0
  186.0030  178.0250  148.0950 O   0  0  0  0  0  1  0  0  0  0  0  0
  185.6230  176.5060  146.4230 O   0  0  0  0  0  0  0  0  0  0  0  0
  185.0040  178.8590  146.1700 N   0  0  0  0  0  2  0  0  0  0  0  0
  189.3530  174.3460  144.8040 C   0  0  0  0  0  2  0  0  0  0  0  0
  189.3630  175.4560  147.0180 C   0  0  0  0  0  2  0  0  0  0  0  0
  190.0060  174.3760  146.1730 C   0  0  2  0  0  3  0  0  0  0  0  0
  190.6970  175.7120  146.3490 C   0  0  2  0  0  3  0  0  0  0  0  0
  191.8000  175.5760  147.3810 C   0  0  0  0  0  2  0  0  0  0  0  0
  192.9780  176.4420  146.9810 C   0  0  0  0  0  2  0  0  0  0  0  0
  192.9270  176.7580  145.4950 C   0  0  0  0  0  2  0  0  0  0  0  0
  194.5370  176.4370  144.7080 S   0  0  0  0  0  0  0  0  0  0  0  0
  194.0810  174.7420  144.2220 C   0  0  1  0  0  3  0  0  0  0  0  0
  194.3310  174.5400  142.7340 C   0  0  0  0  0  2  0  0  0  0  0  0
  194.5720  175.5530  140.6500 C   0  0  0  0  0  1  0  0  0  0  0  0
  194.4690  175.8270  142.0710 N   0  0  0  0  0  2  0  0  0  0  0  0
  194.7910  173.6990  145.0930 C   0  0  0  0  0  2  0  0  0  0  0  0
  195.8430  174.2970  146.0200 C   0  0  0  0  0  2  0  0  0  0  0  0
  197.1980  173.6530  145.7690 C   0  0  0  0  0  2  0  0  0  0  0  0
  197.8430  174.2410  144.5230 C   0  0  0  0  0  2  0  0  0  0  0  0
  197.9230  173.2690  143.5220 O   0  0  0  0  0  1  0  0  0  0  0  0
  1  5  1  0  0  0  0
  2  4  1  0  0  0  0
  2  1  1  0  0  0  0
  3  5  2  0  0  0  0
  3 21  1  0  0  0  0
  4  6  1  6  0  0  0
  4  3  1  0  0  0  0
  7  6  1  0  0  0  0
  7  9  1  0  0  0  0
  8  6  2  0  0  0  0
 10 14  2  0  0  0  0
 12 11  1  0  0  0  0
 12 15  1  0  0  0  0
 13 12  2  0  0  0  0
 14  9  1  0  0  0  0
 14 11  1  0  0  0  0
 15 16  1  0  0  0  0
 16 20  1  0  0  0  0
 17 18  1  0  0  0  0
 19 17  2  0  0  0  0
 20 17  1  0  0  0  0
 23 21  1  6  0  0  0
 23 24  1  0  0  0  0
 23 22  1  0  0  0  0
 24 22  1  0  0  0  0
 24 25  1  1  0  0  0
 26 25  1  0  0  0  0
 27 26  1  0  0  0  0
 28 27  1  0  0  0  0
 29 30  1  6  0  0  0
 29 28  1  0  0  0  0
 29 33  1  0  0  0  0
 31 32  1  0  0  0  0
 32 30  1  0  0  0  0
 33 34  1  0  0  0  0
 35 34  1  0  0  0  0
 36 35  1  0  0  0  0
 37 36  1  0  0  0  0
M  END
>  <MODEL>
6

>  <REMARK>
 VINA RESULT:      -5.9      2.191      2.630
  Name = 
  19 active torsions:
  status: ('A' for Active; 'I' for Inactive)
    1  A    between atoms: C_2  and  C_29
    2  A    between atoms: C_2  and  C_37
    3  A    between atoms: C_3  and  C_6
    4  A    between atoms: C_3  and  C_29
    5  A    between atoms: C_4  and  C_16
    6  A    between atoms: C_4  and  S_21
    7  A    between atoms: C_7  and  C_27
    8  A    between atoms: C_7  and  C_32
    9  A    between atoms: C_10  and  N_22
   10  A    between atoms: C_10  and  C_35
   11  A    between atoms: C_15  and  C_25
   12  A    between atoms: C_15  and  C_26
   13  A    between atoms: C_16  and  C_20
   14  A    between atoms: C_17  and  C_34
   15  A    between atoms: C_18  and  N_24
   16  A    between atoms: C_18  and  C_37
   17  A    between atoms: C_20  and  C_33
   18  A    between atoms: S_21  and  C_37
   19  A    between atoms: N_30  and  C_32
                            x       y       z     vdW  Elec       q    Type
                         _______ _______ _______ _____ _____    ______ ____

>  <TORSDO>
F 19

$$$$
=
 OpenBabel11042418313D

 37 38  0  0  1  0  0  0  0  0999 V2000
  190.7480  177.9830  143.0090 O   0  0  0  0  0  0  0  0  0  0  0  0
  189.7120  178.1180  142.1560 O   0  0  0  0  0  0  0  0  0  0  0  0
  189.2420  177.0030  144.1130 C   0  0  0  0  0  0  0  0  0  0  0  0
  188.6570  177.4420  142.8180 C   0  0  2  0  0  3  0  0  0  0  0  0
  190.4710  177.3300  144.1810 N   0  0  0  0  0  0  0  0  0  0  0  0
  188.2140  176.2670  141.9960 C   0  0  0  0  0  0  0  0  0  0  0  0
  187.2870  176.4320  140.9220 N   0  0  0  0  0  2  0  0  0  0  0  0
  188.6660  175.1190  142.2490 O   0  0  0  0  0  0  0  0  0  0  0  0
  186.7690  177.7320  140.5240 C   0  0  0  0  0  2  0  0  0  0  0  0
  184.3980  177.7220  140.2880 O   0  0  0  0  0  0  0  0  0  0  0  0
  185.2000  178.3540  142.3990 N   0  0  0  0  0  2  0  0  0  0  0  0
  183.9310  178.5890  143.0180 C   0  0  0  0  0  0  0  0  0  0  0  0
  182.8560  178.3510  142.4010 O   0  0  0  0  0  0  0  0  0  0  0  0
  185.3860  177.9140  141.0490 C   0  0  0  0  0  0  0  0  0  0  0  0
  183.8770  179.1270  144.4060 C   0  0  0  0  0  2  0  0  0  0  0  0
  184.6960  178.2570  145.3470 C   0  0  0  0  0  2  0  0  0  0  0  0
  186.0820  178.5030  147.4270 C   0  0  0  0  0  0  0  0  0  0  0  0
  186.6350  179.2470  148.2790 O   0  0  0  0  0  1  0  0  0  0  0  0
  186.1910  177.1220  147.5460 O   0  0  0  0  0  0  0  0  0  0  0  0
  185.3440  179.0830  146.3530 N   0  0  0  0  0  2  0  0  0  0  0  0
  188.5340  176.2630  145.2000 C   0  0  0  0  0  2  0  0  0  0  0  0
  188.8970  174.9070  147.2390 C   0  0  0  0  0  2  0  0  0  0  0  0
  189.4900  175.3220  145.9080 C   0  0  2  0  0  3  0  0  0  0  0  0
  189.9600  175.9850  147.1870 C   0  0  2  0  0  3  0  0  0  0  0  0
  191.2900  175.3860  147.6030 C   0  0  0  0  0  2  0  0  0  0  0  0
  192.3890  176.4130  147.4150 C   0  0  0  0  0  2  0  0  0  0  0  0
  193.1320  176.1650  146.1120 C   0  0  0  0  0  2  0  0  0  0  0  0
  193.2190  174.3840  145.7450 S   0  0  0  0  0  0  0  0  0  0  0  0
  193.5930  174.6580  143.9840 C   0  0  1  0  0  3  0  0  0  0  0  0
  195.0720  174.9710  143.8060 C   0  0  0  0  0  2  0  0  0  0  0  0
  196.6520  173.2790  144.0760 C   0  0  0  0  0  1  0  0  0  0  0  0
  195.8580  174.2550  144.7990 N   0  0  0  0  0  2  0  0  0  0  0  0
  193.1250  173.4790  143.1220 C   0  0  0  0  0  2  0  0  0  0  0  0
  191.7240  172.9900  143.4720 C   0  0  0  0  0  2  0  0  0  0  0  0
  191.2400  171.9850  142.4390 C   0  0  0  0  0  2  0  0  0  0  0  0
  189.7530  171.7170  142.6140 C   0  0  0  0  0  2  0  0  0  0  0  0
  189.3130  172.2410  143.8340 O   0  0  0  0  0  1  0  0  0  0  0  0
  1  5  1  0  0  0  0
  2  4  1  0  0  0  0
  2  1  1  0  0  0  0
  3  5  2  0  0  0  0
  3 21  1  0  0  0  0
  4  6  1  6  0  0  0
  4  3  1  0  0  0  0
  6  8  2  0  0  0  0
  7  6  1  0  0  0  0
  9  7  1  0  0  0  0
  9 14  1  0  0  0  0
 10 14  2  0  0  0  0
 11 12  1  0  0  0  0
 12 15  1  0  0  0  0
 13 12  2  0  0  0  0
 14 11  1  0  0  0  0
 15 16  1  0  0  0  0
 16 20  1  0  0  0  0
 17 19  2  0  0  0  0
 17 18  1  0  0  0  0
 20 17  1  0  0  0  0
 23 21  1  6  0  0  0
 23 24  1  0  0  0  0
 23 22  1  0  0  0  0
 24 22  1  0  0  0  0
 24 25  1  1  0  0  0
 26 25  1  0  0  0  0
 27 26  1  0  0  0  0
 28 27  1  0  0  0  0
 29 33  1  6  0  0  0
 29 28  1  0  0  0  0
 30 29  1  0  0  0  0
 30 32  1  0  0  0  0
 31 32  1  0  0  0  0
 33 34  1  0  0  0  0
 35 36  1  0  0  0  0
 35 34  1  0  0  0  0
 36 37  1  0  0  0  0
M  END
>  <MODEL>
7

>  <REMARK>
 VINA RESULT:      -5.8      1.693      2.471
  Name = 
  19 active torsions:
  status: ('A' for Active; 'I' for Inactive)
    1  A    between atoms: C_2  and  C_29
    2  A    between atoms: C_2  and  C_37
    3  A    between atoms: C_3  and  C_6
    4  A    between atoms: C_3  and  C_29
    5  A    between atoms: C_4  and  C_16
    6  A    between atoms: C_4  and  S_21
    7  A    between atoms: C_7  and  C_27
    8  A    between atoms: C_7  and  C_32
    9  A    between atoms: C_10  and  N_22
   10  A    between atoms: C_10  and  C_35
   11  A    between atoms: C_15  and  C_25
   12  A    between atoms: C_15  and  C_26
   13  A    between atoms: C_16  and  C_20
   14  A    between atoms: C_17  and  C_34
   15  A    between atoms: C_18  and  N_24
   16  A    between atoms: C_18  and  C_37
   17  A    between atoms: C_20  and  C_33
   18  A    between atoms: S_21  and  C_37
   19  A    between atoms: N_30  and  C_32
                            x       y       z     vdW  Elec       q    Type
                         _______ _______ _______ _____ _____    ______ ____

>  <TORSDO>
F 19

$$$$
=
 OpenBabel11042418313D

 37 38  0  0  1  0  0  0  0  0999 V2000
  190.7560  178.1590  143.0760 O   0  0  0  0  0  0  0  0  0  0  0  0
  189.6950  178.2230  142.2460 O   0  0  0  0  0  0  0  0  0  0  0  0
  189.3430  177.0830  144.2130 C   0  0  0  0  0  0  0  0  0  0  0  0
  188.7020  177.4800  142.9300 C   0  0  2  0  0  3  0  0  0  0  0  0
  190.5480  177.4920  144.2540 N   0  0  0  0  0  0  0  0  0  0  0  0
  188.3210  176.2760  142.1190 C   0  0  0  0  0  0  0  0  0  0  0  0
  187.4640  176.3990  140.9840 N   0  0  0  0  0  2  0  0  0  0  0  0
  188.7640  175.1400  142.4360 O   0  0  0  0  0  0  0  0  0  0  0  0
  186.9630  177.6820  140.5130 C   0  0  0  0  0  2  0  0  0  0  0  0
  184.6090  177.8520  140.1780 O   0  0  0  0  0  0  0  0  0  0  0  0
  185.3450  178.1970  142.3780 N   0  0  0  0  0  2  0  0  0  0  0  0
  184.0630  178.4450  142.9660 C   0  0  0  0  0  0  0  0  0  0  0  0
  183.0080  178.3460  142.2820 O   0  0  0  0  0  0  0  0  0  0  0  0
  185.5700  177.8950  140.9960 C   0  0  0  0  0  0  0  0  0  0  0  0
  183.9750  178.8310  144.4020 C   0  0  0  0  0  2  0  0  0  0  0  0
  185.3310  179.2880  144.9160 C   0  0  0  0  0  2  0  0  0  0  0  0
  185.5810  177.9130  147.0030 C   0  0  0  0  0  0  0  0  0  0  0  0
  186.1500  176.9760  147.6210 O   0  0  0  0  0  0  0  0  0  0  0  0
  184.5840  178.6480  147.6350 O   0  0  0  0  0  1  0  0  0  0  0  0
  185.9680  178.2160  145.6640 N   0  0  0  0  0  2  0  0  0  0  0  0
  188.7090  176.3010  145.3150 C   0  0  0  0  0  2  0  0  0  0  0  0
  189.1620  174.8170  147.2450 C   0  0  0  0  0  2  0  0  0  0  0  0
  189.7200  175.3630  145.9460 C   0  0  2  0  0  3  0  0  0  0  0  0
  190.1650  175.9520  147.2690 C   0  0  2  0  0  3  0  0  0  0  0  0
  191.5290  175.3960  147.6330 C   0  0  0  0  0  2  0  0  0  0  0  0
  192.6070  176.2190  146.9560 C   0  0  0  0  0  2  0  0  0  0  0  0
  193.7280  175.3210  146.4570 C   0  0  0  0  0  2  0  0  0  0  0  0
  193.0620  173.9440  145.4700 S   0  0  0  0  0  0  0  0  0  0  0  0
  194.6600  173.0700  145.4170 C   0  0  1  0  0  3  0  0  0  0  0  0
  194.4790  171.6870  144.8070 C   0  0  0  0  0  2  0  0  0  0  0  0
  196.0880  170.3600  145.8450 C   0  0  0  0  0  1  0  0  0  0  0  0
  195.7730  171.0530  144.6100 N   0  0  0  0  0  2  0  0  0  0  0  0
  195.7300  173.9020  144.7020 C   0  0  0  0  0  2  0  0  0  0  0  0
  195.3630  174.2560  143.2640 C   0  0  0  0  0  2  0  0  0  0  0  0
  196.5290  174.9460  142.5740 C   0  0  0  0  0  2  0  0  0  0  0  0
  196.2820  176.4440  142.4870 C   0  0  0  0  0  2  0  0  0  0  0  0
  196.9350  177.0990  143.5360 O   0  0  0  0  0  1  0  0  0  0  0  0
  1  5  1  0  0  0  0
  2  4  1  0  0  0  0
  2  1  1  0  0  0  0
  3  5  2  0  0  0  0
  3 21  1  0  0  0  0
  4  6  1  6  0  0  0
  4  3  1  0  0  0  0
  6  8  2  0  0  0  0
  7  6  1  0  0  0  0
  9  7  1  0  0  0  0
  9 14  1  0  0  0  0
 10 14  2  0  0  0  0
 11 12  1  0  0  0  0
 12 15  1  0  0  0  0
 13 12  2  0  0  0  0
 14 11  1  0  0  0  0
 15 16  1  0  0  0  0
 16 20  1  0  0  0  0
 17 18  2  0  0  0  0
 17 19  1  0  0  0  0
 20 17  1  0  0  0  0
 22 24  1  0  0  0  0
 23 21  1  6  0  0  0
 23 22  1  0  0  0  0
 23 24  1  0  0  0  0
 24 25  1  1  0  0  0
 26 25  1  0  0  0  0
 27 26  1  0  0  0  0
 28 27  1  0  0  0  0
 29 33  1  6  0  0  0
 29 28  1  0  0  0  0
 30 29  1  0  0  0  0
 32 30  1  0  0  0  0
 32 31  1  0  0  0  0
 34 33  1  0  0  0  0
 35 34  1  0  0  0  0
 36 35  1  0  0  0  0
 36 37  1  0  0  0  0
M  END
>  <MODEL>
8

>  <REMARK>
 VINA RESULT:      -5.8      1.705      2.573
  Name = 
  19 active torsions:
  status: ('A' for Active; 'I' for Inactive)
    1  A    between atoms: C_2  and  C_29
    2  A    between atoms: C_2  and  C_37
    3  A    between atoms: C_3  and  C_6
    4  A    between atoms: C_3  and  C_29
    5  A    between atoms: C_4  and  C_16
    6  A    between atoms: C_4  and  S_21
    7  A    between atoms: C_7  and  C_27
    8  A    between atoms: C_7  and  C_32
    9  A    between atoms: C_10  and  N_22
   10  A    between atoms: C_10  and  C_35
   11  A    between atoms: C_15  and  C_25
   12  A    between atoms: C_15  and  C_26
   13  A    between atoms: C_16  and  C_20
   14  A    between atoms: C_17  and  C_34
   15  A    between atoms: C_18  and  N_24
   16  A    between atoms: C_18  and  C_37
   17  A    between atoms: C_20  and  C_33
   18  A    between atoms: S_21  and  C_37
   19  A    between atoms: N_30  and  C_32
                            x       y       z     vdW  Elec       q    Type
                         _______ _______ _______ _____ _____    ______ ____

>  <TORSDO>
F 19

$$$$
=
 OpenBabel11042418313D

 37 38  0  0  1  0  0  0  0  0999 V2000
  184.2990  178.0170  146.9810 O   0  0  0  0  0  0  0  0  0  0  0  0
  183.8420  178.3730  145.7630 O   0  0  0  0  0  0  0  0  0  0  0  0
  185.8260  177.2060  145.7730 C   0  0  0  0  0  0  0  0  0  0  0  0
  184.8460  177.8920  144.8870 C   0  0  2  0  0  3  0  0  0  0  0  0
  185.4730  177.3120  146.9920 N   0  0  0  0  0  0  0  0  0  0  0  0
  185.4820  179.0420  144.1630 C   0  0  0  0  0  0  0  0  0  0  0  0
  185.5670  179.0540  142.7380 N   0  0  0  0  0  2  0  0  0  0  0  0
  185.9430  180.0160  144.8150 O   0  0  0  0  0  0  0  0  0  0  0  0
  185.0010  178.0000  141.9080 C   0  0  0  0  0  2  0  0  0  0  0  0
  186.4100  177.3290  140.1070 O   0  0  0  0  0  0  0  0  0  0  0  0
  186.7280  176.1740  142.1230 N   0  0  0  0  0  2  0  0  0  0  0  0
  187.7690  175.3000  141.6740 C   0  0  0  0  0  0  0  0  0  0  0  0
  188.2470  175.4060  140.5120 O   0  0  0  0  0  0  0  0  0  0  0  0
  186.0910  177.1730  141.3180 C   0  0  0  0  0  0  0  0  0  0  0  0
  188.2910  174.2460  142.5900 C   0  0  0  0  0  2  0  0  0  0  0  0
  189.7400  173.9240  142.2620 C   0  0  0  0  0  2  0  0  0  0  0  0
  190.6610  171.8390  141.2080 C   0  0  0  0  0  0  0  0  0  0  0  0
  190.8230  170.5910  141.2370 O   0  0  0  0  0  1  0  0  0  0  0  0
  191.1800  172.5750  140.1480 O   0  0  0  0  0  0  0  0  0  0  0  0
  189.9430  172.4840  142.2570 N   0  0  0  0  0  2  0  0  0  0  0  0
  187.0680  176.5000  145.3420 C   0  0  0  0  0  2  0  0  0  0  0  0
  188.9990  177.7020  144.3630 C   0  0  0  0  0  2  0  0  0  0  0  0
  188.2900  177.3430  145.6520 C   0  0  2  0  0  3  0  0  0  0  0  0
  189.5260  176.5770  145.2280 C   0  0  2  0  0  3  0  0  0  0  0  0
  190.7230  177.0780  146.0140 C   0  0  0  0  0  2  0  0  0  0  0  0
  190.8480  176.2900  147.3030 C   0  0  0  0  0  2  0  0  0  0  0  0
  192.1030  175.4330  147.2840 C   0  0  0  0  0  2  0  0  0  0  0  0
  193.4860  176.3270  146.5070 S   0  0  0  0  0  0  0  0  0  0  0  0
  193.6610  175.1070  145.1670 C   0  0  1  0  0  3  0  0  0  0  0  0
  195.0480  175.2070  144.5470 C   0  0  0  0  0  2  0  0  0  0  0  0
  196.5530  176.6210  143.4680 C   0  0  0  0  0  1  0  0  0  0  0  0
  195.1410  176.4010  143.7210 N   0  0  0  0  0  2  0  0  0  0  0  0
  193.3260  173.6910  145.6510 C   0  0  0  0  0  2  0  0  0  0  0  0
  192.5660  172.8620  144.6210 C   0  0  0  0  0  2  0  0  0  0  0  0
  193.4580  171.7650  144.0620 C   0  0  0  0  0  2  0  0  0  0  0  0
  192.7900  170.4070  144.2170 C   0  0  0  0  0  2  0  0  0  0  0  0
  193.7300  169.3880  144.0350 O   0  0  0  0  0  1  0  0  0  0  0  0
  1  5  1  0  0  0  0
  2  1  1  0  0  0  0
  3  5  2  0  0  0  0
  4  6  1  1  0  0  0
  4  2  1  0  0  0  0
  4  3  1  0  0  0  0
  6  8  2  0  0  0  0
  7  6  1  0  0  0  0
  9  7  1  0  0  0  0
 10 14  2  0  0  0  0
 12 11  1  0  0  0  0
 12 15  1  0  0  0  0
 13 12  2  0  0  0  0
 14  9  1  0  0  0  0
 14 11  1  0  0  0  0
 16 15  1  0  0  0  0
 17 18  1  0  0  0  0
 17 20  1  0  0  0  0
 19 17  2  0  0  0  0
 20 16  1  0  0  0  0
 21  3  1  0  0  0  0
 22 24  1  0  0  0  0
 22 23  1  0  0  0  0
 23 21  1  6  0  0  0
 24 23  1  0  0  0  0
 24 25  1  1  0  0  0
 25 26  1  0  0  0  0
 27 26  1  0  0  0  0
 28 27  1  0  0  0  0
 29 30  1  1  0  0  0
 29 33  1  0  0  0  0
 29 28  1  0  0  0  0
 31 32  1  0  0  0  0
 32 30  1  0  0  0  0
 34 33  1  0  0  0  0
 35 36  1  0  0  0  0
 35 34  1  0  0  0  0
 37 36  1  0  0  0  0
M  END
>  <MODEL>
9

>  <REMARK>
 VINA RESULT:      -5.8      2.289      5.010
  Name = 
  19 active torsions:
  status: ('A' for Active; 'I' for Inactive)
    1  A    between atoms: C_2  and  C_29
    2  A    between atoms: C_2  and  C_37
    3  A    between atoms: C_3  and  C_6
    4  A    between atoms: C_3  and  C_29
    5  A    between atoms: C_4  and  C_16
    6  A    between atoms: C_4  and  S_21
    7  A    between atoms: C_7  and  C_27
    8  A    between atoms: C_7  and  C_32
    9  A    between atoms: C_10  and  N_22
   10  A    between atoms: C_10  and  C_35
   11  A    between atoms: C_15  and  C_25
   12  A    between atoms: C_15  and  C_26
   13  A    between atoms: C_16  and  C_20
   14  A    between atoms: C_17  and  C_34
   15  A    between atoms: C_18  and  N_24
   16  A    between atoms: C_18  and  C_37
   17  A    between atoms: C_20  and  C_33
   18  A    between atoms: S_21  and  C_37
   19  A    between atoms: N_30  and  C_32
                            x       y       z     vdW  Elec       q    Type
                         _______ _______ _______ _____ _____    ______ ____

>  <TORSDO>
F 19

$$$$
