=
 OpenBabel11042415093D

 27 29  0  0  1  0  0  0  0  0999 V2000
  186.3590  176.8910  143.9470 C   0  0  0  0  0  3  0  0  0  0  0  0
  186.5450  177.2690  146.3220 C   0  0  0  0  0  0  0  0  0  0  0  0
  188.5560  177.2580  144.9420 C   0  0  0  0  0  0  0  0  0  0  0  0
  187.7520  177.0050  143.7980 C   0  0  0  0  0  0  0  0  0  0  0  0
  185.7590  177.0270  145.1970 C   0  0  0  0  0  3  0  0  0  0  0  0
  187.9290  177.3880  146.1920 C   0  0  0  0  0  3  0  0  0  0  0  0
  190.0360  177.3970  144.8940 C   0  0  0  0  0  0  0  0  0  0  0  0
  190.8570  176.3380  145.4110 N   0  0  0  0  0  2  0  0  0  0  0  0
  190.5700  178.4340  144.4180 O   0  0  0  0  0  0  0  0  0  0  0  0
  192.9960  176.3330  146.5720 C   0  0  0  0  0  3  0  0  0  0  0  0
  195.7850  175.8390  144.4850 O   0  0  0  0  0  0  0  0  0  0  0  0
  192.2920  176.3010  145.4440 C   0  0  0  0  0  0  0  0  0  0  0  0
  193.2280  176.1930  143.9260 S   0  0  0  0  0  0  0  0  0  0  0  0
  194.4720  176.2670  146.4100 C   0  0  0  0  0  2  0  0  0  0  0  0
  194.6840  176.0750  144.9520 C   0  0  0  0  0  0  0  0  0  0  0  0
  188.3520  176.8120  142.4300 C   0  0  2  0  0  3  0  0  0  0  0  0
  187.4740  177.3790  141.3230 C   0  0  0  0  0  1  0  0  0  0  0  0
  187.7840  174.3750  142.0480 C   0  0  0  0  0  3  0  0  0  0  0  0
  189.5460  172.7300  141.7390 C   0  0  0  0  0  0  0  0  0  0  0  0
  190.5010  173.7430  141.8710 C   0  0  0  0  0  3  0  0  0  0  0  0
  190.1040  175.0660  142.0890 C   0  0  0  0  0  3  0  0  0  0  0  0
  188.7470  175.3890  142.1740 C   0  0  0  0  0  0  0  0  0  0  0  0
  188.1820  173.0540  141.8290 C   0  0  0  0  0  3  0  0  0  0  0  0
  189.9760  171.4190  141.5210 O   0  0  0  0  0  0  0  0  0  0  0  0
  190.8790  170.7530  142.3930 C   0  0  0  0  0  1  0  0  0  0  0  0
  185.0460  178.5350  147.6300 O   0  0  0  0  0  1  0  0  0  0  0  0
  185.9050  177.4370  147.6560 C   0  0  0  0  0  2  0  0  0  0  0  0
  1  5  1  0  0  0  0
  2 27  1  0  0  0  0
  3  6  2  0  0  0  0
  4  1  2  0  0  0  0
  4  3  1  0  0  0  0
  5  2  2  0  0  0  0
  6  2  1  0  0  0  0
  7  3  1  0  0  0  0
  7  8  1  0  0  0  0
  8 12  1  0  0  0  0
  9  7  2  0  0  0  0
 11 15  2  0  0  0  0
 12 10  2  0  0  0  0
 13 15  1  0  0  0  0
 13 12  1  0  0  0  0
 14 10  1  0  0  0  0
 15 14  1  0  0  0  0
 16 17  1  6  0  0  0
 16  4  1  0  0  0  0
 18 22  1  0  0  0  0
 19 23  1  0  0  0  0
 19 20  2  0  0  0  0
 20 21  1  0  0  0  0
 21 22  2  0  0  0  0
 22 16  1  0  0  0  0
 23 18  2  0  0  0  0
 24 19  1  0  0  0  0
 24 25  1  0  0  0  0
 26 27  1  0  0  0  0
M  END
>  <MODEL>
1

>  <REMARK>
 VINA RESULT:      -6.9      0.000      0.000
  Name = 
  6 active torsions:
  status: ('A' for Active; 'I' for Inactive)
    1  A    between atoms: C_3  and  C_11
    2  A    between atoms: C_5  and  C_13
    3  A    between atoms: C_5  and  C_23
    4  A    between atoms: C_6  and  O_17
    5  A    between atoms: C_8  and  C_27
    6  A    between atoms: N_9  and  C_10
                            x       y       z     vdW  Elec       q    Type
                         _______ _______ _______ _____ _____    ______ ____

>  <TORSDO>
F 6

$$$$
=
 OpenBabel11042415093D

 27 29  0  0  1  0  0  0  0  0999 V2000
  191.9870  173.9980  144.8380 C   0  0  0  0  0  3  0  0  0  0  0  0
  192.8150  175.8570  146.1330 C   0  0  0  0  0  0  0  0  0  0  0  0
  190.4180  175.4090  146.0600 C   0  0  0  0  0  0  0  0  0  0  0  0
  190.6650  174.3010  145.2070 C   0  0  0  0  0  0  0  0  0  0  0  0
  193.0540  174.7660  145.3010 C   0  0  0  0  0  3  0  0  0  0  0  0
  191.5080  176.1700  146.5120 C   0  0  0  0  0  3  0  0  0  0  0  0
  189.0600  175.8140  146.5100 C   0  0  0  0  0  0  0  0  0  0  0  0
  188.4360  176.9630  145.9140 N   0  0  0  0  0  2  0  0  0  0  0  0
  188.4620  175.1700  147.4120 O   0  0  0  0  0  0  0  0  0  0  0  0
  186.8710  178.1650  147.3380 C   0  0  0  0  0  3  0  0  0  0  0  0
  183.6980  178.6750  145.9080 O   0  0  0  0  0  0  0  0  0  0  0  0
  187.1390  177.4930  146.2220 C   0  0  0  0  0  0  0  0  0  0  0  0
  185.7810  177.2810  145.0780 S   0  0  0  0  0  0  0  0  0  0  0  0
  185.4740  178.6550  147.4750 C   0  0  0  0  0  2  0  0  0  0  0  0
  184.8200  178.2930  146.1910 C   0  0  0  0  0  0  0  0  0  0  0  0
  189.5470  173.4600  144.6470 C   0  0  2  0  0  3  0  0  0  0  0  0
  189.7810  171.9700  144.8470 C   0  0  0  0  0  1  0  0  0  0  0  0
  188.6300  175.0240  142.8810 C   0  0  0  0  0  3  0  0  0  0  0  0
  188.6230  174.3760  140.5390 C   0  0  0  0  0  0  0  0  0  0  0  0
  189.2170  173.1580  140.8850 C   0  0  0  0  0  3  0  0  0  0  0  0
  189.5190  172.8720  142.2200 C   0  0  0  0  0  3  0  0  0  0  0  0
  189.2320  173.8030  143.2220 C   0  0  0  0  0  0  0  0  0  0  0  0
  188.3290  175.3100  141.5460 C   0  0  0  0  0  3  0  0  0  0  0  0
  188.3350  174.6300  139.1960 O   0  0  0  0  0  0  0  0  0  0  0  0
  188.3640  173.6170  138.2000 C   0  0  0  0  0  1  0  0  0  0  0  0
  194.5460  177.3660  145.5970 O   0  0  0  0  0  1  0  0  0  0  0  0
  193.9530  176.6660  146.6480 C   0  0  0  0  0  2  0  0  0  0  0  0
  1  4  2  0  0  0  0
  1  5  1  0  0  0  0
  2  6  1  0  0  0  0
  2 27  1  0  0  0  0
  3  7  1  0  0  0  0
  3  6  2  0  0  0  0
  4  3  1  0  0  0  0
  5  2  2  0  0  0  0
  7  9  2  0  0  0  0
  8 12  1  0  0  0  0
  8  7  1  0  0  0  0
 10 14  1  0  0  0  0
 11 15  2  0  0  0  0
 12 10  2  0  0  0  0
 13 15  1  0  0  0  0
 13 12  1  0  0  0  0
 15 14  1  0  0  0  0
 16 17  1  6  0  0  0
 16  4  1  0  0  0  0
 18 22  1  0  0  0  0
 19 20  2  0  0  0  0
 19 23  1  0  0  0  0
 20 21  1  0  0  0  0
 21 22  2  0  0  0  0
 22 16  1  0  0  0  0
 23 18  2  0  0  0  0
 24 19  1  0  0  0  0
 25 24  1  0  0  0  0
 26 27  1  0  0  0  0
M  END
>  <MODEL>
2

>  <REMARK>
 VINA RESULT:      -6.9      2.649      6.069
  Name = 
  6 active torsions:
  status: ('A' for Active; 'I' for Inactive)
    1  A    between atoms: C_3  and  C_11
    2  A    between atoms: C_5  and  C_13
    3  A    between atoms: C_5  and  C_23
    4  A    between atoms: C_6  and  O_17
    5  A    between atoms: C_8  and  C_27
    6  A    between atoms: N_9  and  C_10
                            x       y       z     vdW  Elec       q    Type
                         _______ _______ _______ _____ _____    ______ ____

>  <TORSDO>
F 6

$$$$
=
 OpenBabel11042415093D

 27 29  0  0  1  0  0  0  0  0999 V2000
  187.7770  176.7360  146.6160 C   0  0  0  0  0  3  0  0  0  0  0  0
  186.8790  178.1250  144.8600 C   0  0  0  0  0  0  0  0  0  0  0  0
  188.3780  176.2840  144.2960 C   0  0  0  0  0  0  0  0  0  0  0  0
  188.4810  175.9650  145.6760 C   0  0  0  0  0  0  0  0  0  0  0  0
  186.9790  177.8040  146.2120 C   0  0  0  0  0  3  0  0  0  0  0  0
  187.5690  177.3670  143.9130 C   0  0  0  0  0  3  0  0  0  0  0  0
  189.0790  175.5320  143.2220 C   0  0  0  0  0  0  0  0  0  0  0  0
  188.5550  174.2640  142.7950 N   0  0  0  0  0  2  0  0  0  0  0  0
  190.1280  175.9900  142.6950 O   0  0  0  0  0  0  0  0  0  0  0  0
  189.9080  172.3890  142.0400 C   0  0  0  0  0  3  0  0  0  0  0  0
  189.6420  171.6920  138.6020 O   0  0  0  0  0  0  0  0  0  0  0  0
  189.0970  173.4090  141.7790 C   0  0  0  0  0  0  0  0  0  0  0  0
  188.6810  173.6720  140.0600 S   0  0  0  0  0  0  0  0  0  0  0  0
  190.3540  171.6020  140.8600 C   0  0  0  0  0  2  0  0  0  0  0  0
  189.6180  172.1940  139.7130 C   0  0  0  0  0  0  0  0  0  0  0  0
  189.3600  174.8450  146.1710 C   0  0  2  0  0  3  0  0  0  0  0  0
  188.9730  174.3730  147.5650 C   0  0  0  0  0  1  0  0  0  0  0  0
  191.3450  176.3520  146.6120 C   0  0  0  0  0  3  0  0  0  0  0  0
  193.5540  175.7580  145.7920 C   0  0  0  0  0  0  0  0  0  0  0  0
  193.0230  174.5870  145.2400 C   0  0  0  0  0  3  0  0  0  0  0  0
  191.6620  174.2960  145.3740 C   0  0  0  0  0  3  0  0  0  0  0  0
  190.8190  175.1730  146.0630 C   0  0  0  0  0  0  0  0  0  0  0  0
  192.7060  176.6420  146.4790 C   0  0  0  0  0  3  0  0  0  0  0  0
  194.9180  176.0180  145.6410 O   0  0  0  0  0  0  0  0  0  0  0  0
  195.5460  176.1080  144.3700 C   0  0  0  0  0  1  0  0  0  0  0  0
  185.9170  179.2610  143.0310 O   0  0  0  0  0  1  0  0  0  0  0  0
  186.0090  179.2500  144.4230 C   0  0  0  0  0  2  0  0  0  0  0  0
  2  5  2  0  0  0  0
  3  4  1  0  0  0  0
  4 16  1  0  0  0  0
  4  1  2  0  0  0  0
  5  1  1  0  0  0  0
  6  3  2  0  0  0  0
  6  2  1  0  0  0  0
  7  3  1  0  0  0  0
  8  7  1  0  0  0  0
  9  7  2  0  0  0  0
 11 15  2  0  0  0  0
 12 10  2  0  0  0  0
 12  8  1  0  0  0  0
 13 12  1  0  0  0  0
 14 10  1  0  0  0  0
 15 13  1  0  0  0  0
 15 14  1  0  0  0  0
 16 17  1  1  0  0  0
 19 23  2  0  0  0  0
 20 21  2  0  0  0  0
 20 19  1  0  0  0  0
 21 22  1  0  0  0  0
 22 16  1  0  0  0  0
 22 18  2  0  0  0  0
 23 18  1  0  0  0  0
 24 19  1  0  0  0  0
 25 24  1  0  0  0  0
 26 27  1  0  0  0  0
 27  2  1  0  0  0  0
M  END
>  <MODEL>
3

>  <REMARK>
 VINA RESULT:      -6.6      2.431      5.493
  Name = 
  6 active torsions:
  status: ('A' for Active; 'I' for Inactive)
    1  A    between atoms: C_3  and  C_11
    2  A    between atoms: C_5  and  C_13
    3  A    between atoms: C_5  and  C_23
    4  A    between atoms: C_6  and  O_17
    5  A    between atoms: C_8  and  C_27
    6  A    between atoms: N_9  and  C_10
                            x       y       z     vdW  Elec       q    Type
                         _______ _______ _______ _____ _____    ______ ____

>  <TORSDO>
F 6

$$$$
=
 OpenBabel11042415093D

 27 29  0  0  1  0  0  0  0  0999 V2000
  188.4180  177.0330  145.3130 C   0  0  0  0  0  3  0  0  0  0  0  0
  187.0360  177.7470  143.4690 C   0  0  0  0  0  0  0  0  0  0  0  0
  188.2810  175.6560  143.3050 C   0  0  0  0  0  0  0  0  0  0  0  0
  188.7980  175.8780  144.6090 C   0  0  0  0  0  0  0  0  0  0  0  0
  187.5410  177.9580  144.7510 C   0  0  0  0  0  3  0  0  0  0  0  0
  187.4010  176.6030  142.7580 C   0  0  0  0  0  3  0  0  0  0  0  0
  188.6180  174.4670  142.4770 C   0  0  0  0  0  0  0  0  0  0  0  0
  189.2570  174.6560  141.2050 N   0  0  0  0  0  2  0  0  0  0  0  0
  188.3380  173.3050  142.8750 O   0  0  0  0  0  0  0  0  0  0  0  0
  190.9170  173.2620  140.1000 C   0  0  0  0  0  3  0  0  0  0  0  0
  189.5710  170.7830  137.9980 O   0  0  0  0  0  0  0  0  0  0  0  0
  189.6530  173.6320  140.2810 C   0  0  0  0  0  0  0  0  0  0  0  0
  188.4270  172.7690  139.3080 S   0  0  0  0  0  0  0  0  0  0  0  0
  191.1330  172.1710  139.1130 C   0  0  0  0  0  2  0  0  0  0  0  0
  189.7670  171.7600  138.7000 C   0  0  0  0  0  0  0  0  0  0  0  0
  189.7790  174.9300  145.2490 C   0  0  2  0  0  3  0  0  0  0  0  0
  189.3640  174.5230  146.6560 C   0  0  0  0  0  1  0  0  0  0  0  0
  191.9940  175.4860  146.3420 C   0  0  0  0  0  3  0  0  0  0  0  0
  193.8050  176.4510  145.0420 C   0  0  0  0  0  0  0  0  0  0  0  0
  192.9960  176.4110  143.9020 C   0  0  0  0  0  3  0  0  0  0  0  0
  191.6930  175.9100  143.9780 C   0  0  0  0  0  3  0  0  0  0  0  0
  191.1880  175.4420  145.1940 C   0  0  0  0  0  0  0  0  0  0  0  0
  193.2960  175.9860  146.2660 C   0  0  0  0  0  3  0  0  0  0  0  0
  195.1030  176.9580  144.9320 O   0  0  0  0  0  0  0  0  0  0  0  0
  196.0130  176.5240  143.9300 C   0  0  0  0  0  1  0  0  0  0  0  0
  185.9070  178.4420  141.5190 O   0  0  0  0  0  1  0  0  0  0  0  0
  186.0810  178.7210  142.8750 C   0  0  0  0  0  2  0  0  0  0  0  0
  2  5  2  0  0  0  0
  3  4  1  0  0  0  0
  4 16  1  0  0  0  0
  4  1  2  0  0  0  0
  5  1  1  0  0  0  0
  6  3  2  0  0  0  0
  6  2  1  0  0  0  0
  7  9  2  0  0  0  0
  7  3  1  0  0  0  0
  8  7  1  0  0  0  0
 10 12  2  0  0  0  0
 11 15  2  0  0  0  0
 12  8  1  0  0  0  0
 13 12  1  0  0  0  0
 14 10  1  0  0  0  0
 15 14  1  0  0  0  0
 15 13  1  0  0  0  0
 16 17  1  1  0  0  0
 19 23  2  0  0  0  0
 20 21  2  0  0  0  0
 20 19  1  0  0  0  0
 21 22  1  0  0  0  0
 22 16  1  0  0  0  0
 22 18  2  0  0  0  0
 23 18  1  0  0  0  0
 24 19  1  0  0  0  0
 25 24  1  0  0  0  0
 26 27  1  0  0  0  0
 27  2  1  0  0  0  0
M  END
>  <MODEL>
4

>  <REMARK>
 VINA RESULT:      -6.2      2.786      5.951
  Name = 
  6 active torsions:
  status: ('A' for Active; 'I' for Inactive)
    1  A    between atoms: C_3  and  C_11
    2  A    between atoms: C_5  and  C_13
    3  A    between atoms: C_5  and  C_23
    4  A    between atoms: C_6  and  O_17
    5  A    between atoms: C_8  and  C_27
    6  A    between atoms: N_9  and  C_10
                            x       y       z     vdW  Elec       q    Type
                         _______ _______ _______ _____ _____    ______ ____

>  <TORSDO>
F 6

$$$$
=
 OpenBabel11042415093D

 27 29  0  0  1  0  0  0  0  0999 V2000
  188.3700  174.3710  142.9740 C   0  0  0  0  0  3  0  0  0  0  0  0
  189.4300  173.8160  140.8790 C   0  0  0  0  0  0  0  0  0  0  0  0
  190.7760  174.6780  142.7220 C   0  0  0  0  0  0  0  0  0  0  0  0
  189.6040  174.7640  143.5190 C   0  0  0  0  0  0  0  0  0  0  0  0
  188.2830  173.8960  141.6670 C   0  0  0  0  0  3  0  0  0  0  0  0
  190.6650  174.1990  141.4070 C   0  0  0  0  0  3  0  0  0  0  0  0
  192.1290  175.0660  143.2020 C   0  0  0  0  0  0  0  0  0  0  0  0
  192.9750  174.0700  143.8000 N   0  0  0  0  0  2  0  0  0  0  0  0
  192.5310  176.2550  143.1010 O   0  0  0  0  0  0  0  0  0  0  0  0
  194.5700  174.3880  145.6100 C   0  0  0  0  0  3  0  0  0  0  0  0
  197.9390  174.3850  144.5990 O   0  0  0  0  0  0  0  0  0  0  0  0
  194.3000  174.2630  144.3140 C   0  0  0  0  0  0  0  0  0  0  0  0
  195.6990  174.3340  143.2020 S   0  0  0  0  0  0  0  0  0  0  0  0
  196.0050  174.5630  145.9550 C   0  0  0  0  0  2  0  0  0  0  0  0
  196.7230  174.4340  144.6600 C   0  0  0  0  0  0  0  0  0  0  0  0
  189.6340  175.3050  144.9250 C   0  0  2  0  0  3  0  0  0  0  0  0
  189.6890  174.2030  145.9730 C   0  0  0  0  0  1  0  0  0  0  0  0
  187.7540  176.2200  146.3510 C   0  0  0  0  0  3  0  0  0  0  0  0
  186.4450  178.1230  145.5970 C   0  0  0  0  0  0  0  0  0  0  0  0
  187.2170  178.1800  144.4320 C   0  0  0  0  0  3  0  0  0  0  0  0
  188.2540  177.2650  144.2260 C   0  0  0  0  0  3  0  0  0  0  0  0
  188.5300  176.2860  145.1840 C   0  0  0  0  0  0  0  0  0  0  0  0
  186.7180  177.1350  146.5580 C   0  0  0  0  0  3  0  0  0  0  0  0
  185.4160  179.0520  145.7730 O   0  0  0  0  0  0  0  0  0  0  0  0
  184.0850  178.6720  146.0920 C   0  0  0  0  0  1  0  0  0  0  0  0
  188.0530  172.8290  139.2390 O   0  0  0  0  0  1  0  0  0  0  0  0
  189.3450  173.2880  139.4900 C   0  0  0  0  0  2  0  0  0  0  0  0
  1  4  1  0  0  0  0
  2  6  2  0  0  0  0
  2  5  1  0  0  0  0
  3  7  1  0  0  0  0
  3  4  2  0  0  0  0
  4 16  1  0  0  0  0
  5  1  2  0  0  0  0
  6  3  1  0  0  0  0
  7  8  1  0  0  0  0
  8 12  1  0  0  0  0
  9  7  2  0  0  0  0
 10 14  1  0  0  0  0
 11 15  2  0  0  0  0
 12 10  2  0  0  0  0
 13 12  1  0  0  0  0
 13 15  1  0  0  0  0
 15 14  1  0  0  0  0
 16 22  1  0  0  0  0
 16 17  1  1  0  0  0
 18 23  1  0  0  0  0
 19 24  1  0  0  0  0
 19 23  2  0  0  0  0
 20 19  1  0  0  0  0
 21 20  2  0  0  0  0
 21 22  1  0  0  0  0
 22 18  2  0  0  0  0
 24 25  1  0  0  0  0
 26 27  1  0  0  0  0
 27  2  1  0  0  0  0
M  END
>  <MODEL>
5

>  <REMARK>
 VINA RESULT:      -6.2      2.111      5.732
  Name = 
  6 active torsions:
  status: ('A' for Active; 'I' for Inactive)
    1  A    between atoms: C_3  and  C_11
    2  A    between atoms: C_5  and  C_13
    3  A    between atoms: C_5  and  C_23
    4  A    between atoms: C_6  and  O_17
    5  A    between atoms: C_8  and  C_27
    6  A    between atoms: N_9  and  C_10
                            x       y       z     vdW  Elec       q    Type
                         _______ _______ _______ _____ _____    ______ ____

>  <TORSDO>
F 6

$$$$
=
 OpenBabel11042415093D

 27 29  0  0  1  0  0  0  0  0999 V2000
  192.4900  173.6270  145.0660 C   0  0  0  0  0  3  0  0  0  0  0  0
  191.7890  172.2250  143.2310 C   0  0  0  0  0  0  0  0  0  0  0  0
  190.8050  174.4410  143.5010 C   0  0  0  0  0  0  0  0  0  0  0  0
  191.6110  174.6430  144.6530 C   0  0  0  0  0  0  0  0  0  0  0  0
  192.5820  172.4300  144.3590 C   0  0  0  0  0  3  0  0  0  0  0  0
  190.9130  173.2250  142.8060 C   0  0  0  0  0  3  0  0  0  0  0  0
  189.8450  175.4500  142.9800 C   0  0  0  0  0  0  0  0  0  0  0  0
  188.4360  175.1750  143.0370 N   0  0  0  0  0  2  0  0  0  0  0  0
  190.2560  176.5320  142.4820 O   0  0  0  0  0  0  0  0  0  0  0  0
  186.3780  176.4290  143.3690 C   0  0  0  0  0  3  0  0  0  0  0  0
  185.4050  178.3880  140.6140 O   0  0  0  0  0  0  0  0  0  0  0  0
  187.3740  176.0270  142.5860 C   0  0  0  0  0  0  0  0  0  0  0  0
  187.3470  176.6210  140.9000 S   0  0  0  0  0  0  0  0  0  0  0  0
  185.3780  177.3250  142.7310 C   0  0  0  0  0  2  0  0  0  0  0  0
  185.9110  177.5730  141.3670 C   0  0  0  0  0  0  0  0  0  0  0  0
  191.5230  175.9020  145.4760 C   0  0  2  0  0  3  0  0  0  0  0  0
  192.6150  175.9850  146.5330 C   0  0  0  0  0  1  0  0  0  0  0  0
  189.5110  175.1170  146.7960 C   0  0  0  0  0  3  0  0  0  0  0  0
  187.5710  176.5560  147.0630 C   0  0  0  0  0  0  0  0  0  0  0  0
  188.2140  177.5460  146.3130 C   0  0  0  0  0  3  0  0  0  0  0  0
  189.4990  177.3270  145.8080 C   0  0  0  0  0  3  0  0  0  0  0  0
  190.1550  176.1170  146.0490 C   0  0  0  0  0  0  0  0  0  0  0  0
  188.2270  175.3370  147.3020 C   0  0  0  0  0  3  0  0  0  0  0  0
  186.2880  176.8070  147.5550 O   0  0  0  0  0  0  0  0  0  0  0  0
  185.3500  177.6260  146.8690 C   0  0  0  0  0  1  0  0  0  0  0  0
  190.6350  170.5410  142.0500 O   0  0  0  0  0  1  0  0  0  0  0  0
  191.9020  170.9570  142.4610 C   0  0  0  0  0  2  0  0  0  0  0  0
  2  5  1  0  0  0  0
  3  4  2  0  0  0  0
  4  1  1  0  0  0  0
  4 16  1  0  0  0  0
  5  1  2  0  0  0  0
  6  2  2  0  0  0  0
  6  3  1  0  0  0  0
  7  8  1  0  0  0  0
  7  3  1  0  0  0  0
  9  7  2  0  0  0  0
 11 15  2  0  0  0  0
 12  8  1  0  0  0  0
 12 10  2  0  0  0  0
 13 15  1  0  0  0  0
 13 12  1  0  0  0  0
 14 10  1  0  0  0  0
 15 14  1  0  0  0  0
 16 22  1  0  0  0  0
 16 17  1  1  0  0  0
 18 23  1  0  0  0  0
 19 23  2  0  0  0  0
 19 24  1  0  0  0  0
 20 19  1  0  0  0  0
 21 22  1  0  0  0  0
 21 20  2  0  0  0  0
 22 18  2  0  0  0  0
 25 24  1  0  0  0  0
 26 27  1  0  0  0  0
 27  2  1  0  0  0  0
M  END
>  <MODEL>
6

>  <REMARK>
 VINA RESULT:      -6.2      2.515      7.199
  Name = 
  6 active torsions:
  status: ('A' for Active; 'I' for Inactive)
    1  A    between atoms: C_3  and  C_11
    2  A    between atoms: C_5  and  C_13
    3  A    between atoms: C_5  and  C_23
    4  A    between atoms: C_6  and  O_17
    5  A    between atoms: C_8  and  C_27
    6  A    between atoms: N_9  and  C_10
                            x       y       z     vdW  Elec       q    Type
                         _______ _______ _______ _____ _____    ______ ____

>  <TORSDO>
F 6

$$$$
=
 OpenBabel11042415093D

 27 29  0  0  1  0  0  0  0  0999 V2000
  188.9800  177.4310  144.7550 C   0  0  0  0  0  3  0  0  0  0  0  0
  189.4480  175.5030  146.1280 C   0  0  0  0  0  0  0  0  0  0  0  0
  189.0020  175.2100  143.7470 C   0  0  0  0  0  0  0  0  0  0  0  0
  188.8350  176.6140  143.6200 C   0  0  0  0  0  0  0  0  0  0  0  0
  189.2890  176.8810  145.9980 C   0  0  0  0  0  3  0  0  0  0  0  0
  189.3100  174.6780  145.0100 C   0  0  0  0  0  3  0  0  0  0  0  0
  188.8720  174.2590  142.6110 C   0  0  0  0  0  0  0  0  0  0  0  0
  190.0580  173.7740  141.9620 N   0  0  0  0  0  2  0  0  0  0  0  0
  187.7370  173.8880  142.2100 O   0  0  0  0  0  0  0  0  0  0  0  0
  190.4390  171.5730  140.9950 C   0  0  0  0  0  3  0  0  0  0  0  0
  189.6900  171.3400  137.5660 O   0  0  0  0  0  0  0  0  0  0  0  0
  190.1210  172.8570  140.8600 C   0  0  0  0  0  0  0  0  0  0  0  0
  189.7510  173.4120  139.2010 S   0  0  0  0  0  0  0  0  0  0  0  0
  190.4350  170.7740  139.7420 C   0  0  0  0  0  2  0  0  0  0  0  0
  189.9490  171.7120  138.6980 C   0  0  0  0  0  0  0  0  0  0  0  0
  188.4640  177.2570  142.3090 C   0  0  2  0  0  3  0  0  0  0  0  0
  189.2970  178.4960  142.0100 C   0  0  0  0  0  1  0  0  0  0  0  0
  186.4020  177.8540  140.9680 C   0  0  0  0  0  3  0  0  0  0  0  0
  184.2340  178.0380  142.0500 C   0  0  0  0  0  0  0  0  0  0  0  0
  184.8280  177.7080  143.2730 C   0  0  0  0  0  3  0  0  0  0  0  0
  186.2000  177.4500  143.3460 C   0  0  0  0  0  3  0  0  0  0  0  0
  186.9920  177.5170  142.1960 C   0  0  0  0  0  0  0  0  0  0  0  0
  185.0300  178.1110  140.8950 C   0  0  0  0  0  3  0  0  0  0  0  0
  182.8600  178.2890  142.0110 O   0  0  0  0  0  0  0  0  0  0  0  0
  182.1120  178.2730  140.8040 C   0  0  0  0  0  1  0  0  0  0  0  0
  190.9990  175.4620  147.9030 O   0  0  0  0  0  1  0  0  0  0  0  0
  189.8000  174.9150  147.4490 C   0  0  0  0  0  2  0  0  0  0  0  0
  1  5  1  0  0  0  0
  2 27  1  0  0  0  0
  3  6  2  0  0  0  0
  4  3  1  0  0  0  0
  4  1  2  0  0  0  0
  5  2  2  0  0  0  0
  6  2  1  0  0  0  0
  7  3  1  0  0  0  0
  8  7  1  0  0  0  0
  9  7  2  0  0  0  0
 11 15  2  0  0  0  0
 12 10  2  0  0  0  0
 12  8  1  0  0  0  0
 13 12  1  0  0  0  0
 14 10  1  0  0  0  0
 15 13  1  0  0  0  0
 15 14  1  0  0  0  0
 16 17  1  1  0  0  0
 16  4  1  0  0  0  0
 18 22  1  0  0  0  0
 19 20  2  0  0  0  0
 20 21  1  0  0  0  0
 22 16  1  0  0  0  0
 22 21  2  0  0  0  0
 23 18  2  0  0  0  0
 23 19  1  0  0  0  0
 24 19  1  0  0  0  0
 25 24  1  0  0  0  0
 27 26  1  0  0  0  0
M  END
>  <MODEL>
7

>  <REMARK>
 VINA RESULT:      -6.0      3.266      6.177
  Name = 
  6 active torsions:
  status: ('A' for Active; 'I' for Inactive)
    1  A    between atoms: C_3  and  C_11
    2  A    between atoms: C_5  and  C_13
    3  A    between atoms: C_5  and  C_23
    4  A    between atoms: C_6  and  O_17
    5  A    between atoms: C_8  and  C_27
    6  A    between atoms: N_9  and  C_10
                            x       y       z     vdW  Elec       q    Type
                         _______ _______ _______ _____ _____    ______ ____

>  <TORSDO>
F 6

$$$$
=
 OpenBabel11042415093D

 27 29  0  0  1  0  0  0  0  0999 V2000
  192.7880  175.4520  146.8140 C   0  0  0  0  0  3  0  0  0  0  0  0
  194.0560  176.3950  144.9910 C   0  0  0  0  0  0  0  0  0  0  0  0
  191.6910  175.8840  144.6780 C   0  0  0  0  0  0  0  0  0  0  0  0
  191.6300  175.4160  146.0180 C   0  0  0  0  0  0  0  0  0  0  0  0
  193.9900  175.9410  146.3070 C   0  0  0  0  0  3  0  0  0  0  0  0
  192.9130  176.3700  144.1880 C   0  0  0  0  0  3  0  0  0  0  0  0
  190.5250  175.8910  143.7550 C   0  0  0  0  0  0  0  0  0  0  0  0
  189.5190  176.9060  143.9020 N   0  0  0  0  0  2  0  0  0  0  0  0
  190.4080  175.0130  142.8590 O   0  0  0  0  0  0  0  0  0  0  0  0
  187.1870  176.4560  143.3750 C   0  0  0  0  0  3  0  0  0  0  0  0
  185.9000  178.3640  140.7150 O   0  0  0  0  0  0  0  0  0  0  0  0
  188.3370  177.0660  143.1050 C   0  0  0  0  0  0  0  0  0  0  0  0
  188.3490  178.1380  141.6750 S   0  0  0  0  0  0  0  0  0  0  0  0
  186.0650  176.7580  142.4480 C   0  0  0  0  0  2  0  0  0  0  0  0
  186.6070  177.7860  141.5220 C   0  0  0  0  0  0  0  0  0  0  0  0
  190.3670  174.8420  146.6050 C   0  0  2  0  0  3  0  0  0  0  0  0
  189.8080  173.6940  145.7770 C   0  0  0  0  0  1  0  0  0  0  0  0
  187.9650  175.6190  146.7940 C   0  0  0  0  0  3  0  0  0  0  0  0
  187.4540  177.9180  147.3920 C   0  0  0  0  0  0  0  0  0  0  0  0
  188.8230  178.1890  147.4800 C   0  0  0  0  0  3  0  0  0  0  0  0
  189.7610  177.1830  147.2290 C   0  0  0  0  0  3  0  0  0  0  0  0
  189.3380  175.8950  146.8900 C   0  0  0  0  0  0  0  0  0  0  0  0
  187.0280  176.6250  147.0460 C   0  0  0  0  0  3  0  0  0  0  0  0
  186.5430  178.9460  147.6500 O   0  0  0  0  0  0  0  0  0  0  0  0
  185.2350  178.9680  147.0950 C   0  0  0  0  0  1  0  0  0  0  0  0
  195.8890  176.0320  143.5530 O   0  0  0  0  0  1  0  0  0  0  0  0
  195.3320  176.9400  144.4530 C   0  0  0  0  0  2  0  0  0  0  0  0
  2  5  2  0  0  0  0
  3  4  1  0  0  0  0
  4 16  1  0  0  0  0
  4  1  2  0  0  0  0
  5  1  1  0  0  0  0
  6  3  2  0  0  0  0
  6  2  1  0  0  0  0
  7  8  1  0  0  0  0
  7  3  1  0  0  0  0
  9  7  2  0  0  0  0
 11 15  2  0  0  0  0
 12 10  2  0  0  0  0
 12  8  1  0  0  0  0
 13 12  1  0  0  0  0
 14 10  1  0  0  0  0
 15 13  1  0  0  0  0
 15 14  1  0  0  0  0
 16 17  1  6  0  0  0
 16 22  1  0  0  0  0
 18 22  2  0  0  0  0
 18 23  1  0  0  0  0
 19 20  1  0  0  0  0
 19 24  1  0  0  0  0
 21 20  2  0  0  0  0
 22 21  1  0  0  0  0
 23 19  2  0  0  0  0
 25 24  1  0  0  0  0
 26 27  1  0  0  0  0
 27  2  1  0  0  0  0
M  END
>  <MODEL>
8

>  <REMARK>
 VINA RESULT:      -6.0      2.486      7.248
  Name = 
  6 active torsions:
  status: ('A' for Active; 'I' for Inactive)
    1  A    between atoms: C_3  and  C_11
    2  A    between atoms: C_5  and  C_13
    3  A    between atoms: C_5  and  C_23
    4  A    between atoms: C_6  and  O_17
    5  A    between atoms: C_8  and  C_27
    6  A    between atoms: N_9  and  C_10
                            x       y       z     vdW  Elec       q    Type
                         _______ _______ _______ _____ _____    ______ ____

>  <TORSDO>
F 6

$$$$
=
 OpenBabel11042415093D

 27 29  0  0  1  0  0  0  0  0999 V2000
  195.4790  174.8300  145.8870 C   0  0  0  0  0  3  0  0  0  0  0  0
  195.7500  172.7410  144.7110 C   0  0  0  0  0  0  0  0  0  0  0  0
  194.0360  174.3190  143.9880 C   0  0  0  0  0  0  0  0  0  0  0  0
  194.4300  175.2020  145.0290 C   0  0  0  0  0  0  0  0  0  0  0  0
  196.1370  173.6120  145.7270 C   0  0  0  0  0  3  0  0  0  0  0  0
  194.7120  173.0960  143.8480 C   0  0  0  0  0  3  0  0  0  0  0  0
  192.9410  174.6170  143.0270 C   0  0  0  0  0  0  0  0  0  0  0  0
  191.6830  173.9370  143.1620 N   0  0  0  0  0  2  0  0  0  0  0  0
  193.1120  175.4460  142.0940 O   0  0  0  0  0  0  0  0  0  0  0  0
  189.4620  174.8120  142.6950 C   0  0  0  0  0  3  0  0  0  0  0  0
  188.2940  174.1580  139.4410 O   0  0  0  0  0  0  0  0  0  0  0  0
  190.5240  174.0990  142.3330 C   0  0  0  0  0  0  0  0  0  0  0  0
  190.4560  173.3390  140.7170 S   0  0  0  0  0  0  0  0  0  0  0  0
  188.3630  174.8820  141.6960 C   0  0  0  0  0  2  0  0  0  0  0  0
  188.8900  174.1670  140.5050 C   0  0  0  0  0  0  0  0  0  0  0  0
  193.7280  176.5130  145.2710 C   0  0  2  0  0  3  0  0  0  0  0  0
  194.5640  177.4780  146.0990 C   0  0  0  0  0  1  0  0  0  0  0  0
  192.1030  175.4570  146.8990 C   0  0  0  0  0  3  0  0  0  0  0  0
  189.7340  175.9890  146.8010 C   0  0  0  0  0  0  0  0  0  0  0  0
  189.9830  176.8510  145.7280 C   0  0  0  0  0  3  0  0  0  0  0  0
  191.2830  177.0190  145.2420 C   0  0  0  0  0  3  0  0  0  0  0  0
  192.3480  176.3290  145.8270 C   0  0  0  0  0  0  0  0  0  0  0  0
  190.8040  175.2900  147.3850 C   0  0  0  0  0  3  0  0  0  0  0  0
  188.4240  175.8430  147.2620 O   0  0  0  0  0  0  0  0  0  0  0  0
  187.3100  176.4370  146.6090 C   0  0  0  0  0  1  0  0  0  0  0  0
  195.8680  170.4620  145.3060 O   0  0  0  0  0  1  0  0  0  0  0  0
  196.4650  171.4500  144.5220 C   0  0  0  0  0  2  0  0  0  0  0  0
  2  5  2  0  0  0  0
  3  4  1  0  0  0  0
  4 16  1  0  0  0  0
  4  1  2  0  0  0  0
  5  1  1  0  0  0  0
  6  3  2  0  0  0  0
  6  2  1  0  0  0  0
  7  8  1  0  0  0  0
  7  3  1  0  0  0  0
  9  7  2  0  0  0  0
 11 15  2  0  0  0  0
 12 10  2  0  0  0  0
 12  8  1  0  0  0  0
 13 12  1  0  0  0  0
 14 10  1  0  0  0  0
 15 13  1  0  0  0  0
 15 14  1  0  0  0  0
 16 22  1  0  0  0  0
 16 17  1  1  0  0  0
 18 23  1  0  0  0  0
 19 24  1  0  0  0  0
 19 23  2  0  0  0  0
 20 19  1  0  0  0  0
 21 20  2  0  0  0  0
 21 22  1  0  0  0  0
 22 18  2  0  0  0  0
 25 24  1  0  0  0  0
 27  2  1  0  0  0  0
 27 26  1  0  0  0  0
M  END
>  <MODEL>
9

>  <REMARK>
 VINA RESULT:      -5.9      2.802      7.621
  Name = 
  6 active torsions:
  status: ('A' for Active; 'I' for Inactive)
    1  A    between atoms: C_3  and  C_11
    2  A    between atoms: C_5  and  C_13
    3  A    between atoms: C_5  and  C_23
    4  A    between atoms: C_6  and  O_17
    5  A    between atoms: C_8  and  C_27
    6  A    between atoms: N_9  and  C_10
                            x       y       z     vdW  Elec       q    Type
                         _______ _______ _______ _____ _____    ______ ____

>  <TORSDO>
F 6

$$$$
