=
 OpenBabel11042419593D

 41 44  0  0  1  0  0  0  0  0999 V2000
  189.7950  177.2440  144.7530 C   0  0  0  0  0  0  0  0  0  0  0  0
  190.7560  176.7540  145.6490 C   0  0  0  0  0  0  0  0  0  0  0  0
  188.7920  178.0110  142.5800 S   0  0  0  0  0  0  0  0  0  0  0  0
  190.1160  177.4110  143.4130 C   0  0  0  0  0  0  0  0  0  0  0  0
  191.3780  177.1140  142.9090 C   0  0  0  0  0  3  0  0  0  0  0  0
  188.4770  177.6060  145.0690 C   0  0  0  0  0  3  0  0  0  0  0  0
  192.0370  176.4500  145.1600 C   0  0  0  0  0  3  0  0  0  0  0  0
  187.7900  178.0570  143.9450 C   0  0  0  0  0  0  0  0  0  0  0  0
  192.3510  176.6250  143.7950 C   0  0  0  0  0  0  0  0  0  0  0  0
  193.7550  174.9710  142.6030 C   0  0  0  0  0  0  0  0  0  0  0  0
  196.0470  173.8210  145.0890 C   0  0  0  0  0  0  0  0  0  0  0  0
  193.7170  176.3100  143.2680 C   0  0  2  0  0  3  0  0  0  0  0  0
  194.5930  173.9980  143.1960 N   0  0  0  0  0  2  0  0  0  0  0  0
  195.2590  174.5530  144.3150 C   0  0  0  0  0  0  0  0  0  0  0  0
  193.0840  174.7150  141.5700 O   0  0  0  0  0  0  0  0  0  0  0  0
  196.9730  173.6480  146.2870 C   0  0  0  0  0  2  0  0  0  0  0  0
  194.9440  176.2820  144.6350 S   0  0  0  0  0  0  0  0  0  0  0  0
  196.7220  172.5080  145.4680 C   0  0  0  0  0  2  0  0  0  0  0  0
  184.2480  178.6340  143.2020 O   0  0  0  0  0  0  0  0  0  0  0  0
  185.4110  178.1800  143.0200 C   0  0  0  0  0  0  0  0  0  0  0  0
  186.4230  178.4860  143.9840 N   0  0  0  0  0  2  0  0  0  0  0  0
  185.7060  177.3930  141.8980 O   0  0  0  0  0  0  0  0  0  0  0  0
  185.5400  177.7960  140.5680 C   0  0  0  0  0  0  0  0  0  0  0  0
  186.5650  177.5160  139.6230 N   0  0  0  0  0  1  0  0  0  0  0  0
  184.5050  178.4080  140.1920 O   0  0  0  0  0  0  0  0  0  0  0  0
  190.4590  176.5860  147.1020 C   0  0  0  0  0  2  0  0  0  0  0  0
  190.4790  175.1130  147.4680 C   0  0  0  0  0  2  0  0  0  0  0  0
  189.4130  174.4000  146.7180 C   0  0  0  0  0  3  0  0  0  0  0  0
  189.7140  173.7270  145.6450 C   0  0  0  0  0  0  0  0  0  0  0  0
  190.0180  173.0570  144.5690 C   0  0  0  0  0  3  0  0  0  0  0  0
  189.1220  173.0400  143.4630 N   0  0  0  0  0  2  0  0  0  0  0  0
  189.4170  172.2600  142.2740 C   0  0  2  0  0  3  0  0  0  0  0  0
  190.7020  170.3570  141.4630 N   0  0  0  0  0  1  0  0  0  0  0  0
  190.4060  171.1660  142.6320 C   0  0  0  0  0  2  0  0  0  0  0  0
  190.0140  173.1640  141.1970 C   0  0  0  0  0  2  0  0  0  0  0  0
  187.9530  172.6550  140.1110 O   0  0  0  0  0  1  0  0  0  0  0  0
  188.9720  173.6090  140.1680 C   0  0  0  0  0  0  0  0  0  0  0  0
  188.4280  174.8410  140.5430 O   0  0  0  0  0  1  0  0  0  0  0  0
  188.8770  172.9480  137.7190 C   0  0  0  0  0  1  0  0  0  0  0  0
  189.6350  173.7250  138.7860 C   0  0  0  0  0  3  0  0  0  0  0  0
  191.0780  173.2480  138.8130 C   0  0  0  0  0  1  0  0  0  0  0  0
  1  6  1  0  0  0  0
  1  2  1  0  0  0  0
  2 26  1  0  0  0  0
  3  4  1  0  0  0  0
  3  8  1  0  0  0  0
  4  1  2  0  0  0  0
  5  4  1  0  0  0  0
  5  9  2  0  0  0  0
  7  2  2  0  0  0  0
  8 21  1  0  0  0  0
  8  6  2  0  0  0  0
  9  7  1  0  0  0  0
 10 13  1  0  0  0  0
 10 12  1  0  0  0  0
 11 18  1  0  0  0  0
 11 16  1  0  0  0  0
 12  9  1  1  0  0  0
 12 17  1  0  0  0  0
 13 14  1  0  0  0  0
 14 17  1  0  0  0  0
 14 11  2  0  0  0  0
 15 10  2  0  0  0  0
 18 16  1  0  0  0  0
 20 19  2  0  0  0  0
 20 21  1  0  0  0  0
 22 20  1  0  0  0  0
 23 22  1  0  0  0  0
 24 23  1  0  0  0  0
 25 23  2  0  0  0  0
 26 27  1  0  0  0  0
 28 27  1  0  0  0  0
 29 28  2  0  0  0  0
 30 29  2  0  0  0  0
 31 30  1  0  0  0  0
 32 35  1  6  0  0  0
 32 34  1  0  0  0  0
 32 31  1  0  0  0  0
 33 34  1  0  0  0  0
 36 37  1  0  0  0  0
 37 38  1  0  0  0  0
 37 35  1  0  0  0  0
 39 40  1  0  0  0  0
 40 41  1  0  0  0  0
 40 37  1  0  0  0  0
M  END
>  <MODEL>
1

>  <REMARK>
 VINA RESULT:      -7.2      0.000      0.000
  Name = 
  13 active torsions:
  status: ('A' for Active; 'I' for Inactive)
    1  A    between atoms: C_2  and  C_4
    2  A    between atoms: C_2  and  C_33
    3  A    between atoms: O_8  and  C_13
    4  A    between atoms: O_8  and  C_34
    5  A    between atoms: C_9  and  C_32
    6  A    between atoms: C_11  and  C_33
    7  A    between atoms: C_14  and  C_40
    8  A    between atoms: N_15  and  C_37
    9  A    between atoms: N_19  and  C_32
   10  A    between atoms: N_19  and  C_39
   11  A    between atoms: C_20  and  C_29
   12  A    between atoms: C_20  and  C_32
   13  A    between atoms: C_26  and  C_29
                            x       y       z     vdW  Elec       q    Type
                         _______ _______ _______ _____ _____    ______ ____

>  <TORSDO>
F 13

$$$$
=
 OpenBabel11042419593D

 41 44  0  0  1  0  0  0  0  0999 V2000
  189.8450  175.2880  145.8620 C   0  0  0  0  0  0  0  0  0  0  0  0
  190.5930  174.2070  145.3750 C   0  0  0  0  0  0  0  0  0  0  0  0
  189.3410  177.6150  146.6710 S   0  0  0  0  0  0  0  0  0  0  0  0
  190.4610  176.5120  146.0900 C   0  0  0  0  0  0  0  0  0  0  0  0
  191.8170  176.7160  145.8580 C   0  0  0  0  0  3  0  0  0  0  0  0
  188.4760  175.2800  146.1640 C   0  0  0  0  0  3  0  0  0  0  0  0
  191.9650  174.3920  145.1370 C   0  0  0  0  0  3  0  0  0  0  0  0
  188.0480  176.5210  146.6300 C   0  0  0  0  0  0  0  0  0  0  0  0
  192.5780  175.6410  145.3730 C   0  0  0  0  0  0  0  0  0  0  0  0
  194.4070  175.5560  143.7060 C   0  0  0  0  0  0  0  0  0  0  0  0
  196.4550  172.8410  144.7970 C   0  0  0  0  0  0  0  0  0  0  0  0
  194.0430  175.8430  145.1280 C   0  0  2  0  0  3  0  0  0  0  0  0
  195.2970  174.4770  143.4900 N   0  0  0  0  0  2  0  0  0  0  0  0
  195.6820  173.9150  144.7300 C   0  0  0  0  0  0  0  0  0  0  0  0
  193.9530  176.2320  142.7460 O   0  0  0  0  0  0  0  0  0  0  0  0
  197.2040  171.7680  145.5790 C   0  0  0  0  0  2  0  0  0  0  0  0
  195.0340  174.7180  146.1890 S   0  0  0  0  0  0  0  0  0  0  0  0
  197.2760  171.7290  144.1540 C   0  0  0  0  0  2  0  0  0  0  0  0
  184.4970  177.4230  146.6280 O   0  0  0  0  0  0  0  0  0  0  0  0
  185.6440  177.2330  146.1400 C   0  0  0  0  0  0  0  0  0  0  0  0
  186.6920  176.7900  147.0070 N   0  0  0  0  0  2  0  0  0  0  0  0
  185.8870  177.4510  144.7770 O   0  0  0  0  0  0  0  0  0  0  0  0
  185.2660  178.4330  143.9970 C   0  0  0  0  0  0  0  0  0  0  0  0
  184.2160  178.0580  143.1140 N   0  0  0  0  0  1  0  0  0  0  0  0
  185.6210  179.6400  144.0550 O   0  0  0  0  0  0  0  0  0  0  0  0
  189.9750  172.8680  145.1440 C   0  0  0  0  0  2  0  0  0  0  0  0
  190.9090  172.0020  144.3190 C   0  0  0  0  0  2  0  0  0  0  0  0
  190.1520  171.3750  143.2050 C   0  0  0  0  0  3  0  0  0  0  0  0
  190.2320  171.8720  142.0040 C   0  0  0  0  0  0  0  0  0  0  0  0
  190.3110  172.3730  140.8040 C   0  0  0  0  0  3  0  0  0  0  0  0
  189.1640  172.3910  139.9610 N   0  0  0  0  0  2  0  0  0  0  0  0
  188.3480  173.5860  139.8330 C   0  0  2  0  0  3  0  0  0  0  0  0
  188.9520  172.9980  137.5480 N   0  0  0  0  0  1  0  0  0  0  0  0
  188.1430  173.8890  138.3600 C   0  0  0  0  0  2  0  0  0  0  0  0
  189.0450  174.7640  140.5100 C   0  0  0  0  0  2  0  0  0  0  0  0
  187.3170  176.3370  140.9830 O   0  0  0  0  0  1  0  0  0  0  0  0
  188.1740  175.4140  141.5880 C   0  0  0  0  0  0  0  0  0  0  0  0
  187.4120  174.4380  142.2380 O   0  0  0  0  0  1  0  0  0  0  0  0
  188.7580  177.6310  142.6790 C   0  0  0  0  0  1  0  0  0  0  0  0
  189.0710  176.1430  142.6010 C   0  0  0  0  0  3  0  0  0  0  0  0
  190.5460  175.9650  142.2750 C   0  0  0  0  0  1  0  0  0  0  0  0
  1  4  1  0  0  0  0
  1  6  1  0  0  0  0
  2  1  2  0  0  0  0
  4  3  1  0  0  0  0
  5  4  2  0  0  0  0
  6  8  2  0  0  0  0
  7  9  2  0  0  0  0
  7  2  1  0  0  0  0
  8  3  1  0  0  0  0
  8 21  1  0  0  0  0
  9  5  1  0  0  0  0
 10 12  1  0  0  0  0
 11 16  1  0  0  0  0
 12  9  1  6  0  0  0
 12 17  1  0  0  0  0
 13 10  1  0  0  0  0
 13 14  1  0  0  0  0
 14 11  2  0  0  0  0
 14 17  1  0  0  0  0
 15 10  2  0  0  0  0
 18 11  1  0  0  0  0
 18 16  1  0  0  0  0
 20 19  2  0  0  0  0
 20 21  1  0  0  0  0
 22 20  1  0  0  0  0
 23 25  2  0  0  0  0
 23 22  1  0  0  0  0
 24 23  1  0  0  0  0
 26  2  1  0  0  0  0
 27 26  1  0  0  0  0
 28 27  1  0  0  0  0
 29 28  2  0  0  0  0
 30 29  2  0  0  0  0
 31 30  1  0  0  0  0
 32 34  1  6  0  0  0
 32 31  1  0  0  0  0
 32 35  1  0  0  0  0
 33 34  1  0  0  0  0
 35 37  1  0  0  0  0
 36 37  1  0  0  0  0
 37 38  1  0  0  0  0
 37 40  1  0  0  0  0
 40 39  1  0  0  0  0
 41 40  1  0  0  0  0
M  END
>  <MODEL>
2

>  <REMARK>
 VINA RESULT:      -7.1      2.021      3.391
  Name = 
  13 active torsions:
  status: ('A' for Active; 'I' for Inactive)
    1  A    between atoms: C_2  and  C_4
    2  A    between atoms: C_2  and  C_33
    3  A    between atoms: O_8  and  C_13
    4  A    between atoms: O_8  and  C_34
    5  A    between atoms: C_9  and  C_32
    6  A    between atoms: C_11  and  C_33
    7  A    between atoms: C_14  and  C_40
    8  A    between atoms: N_15  and  C_37
    9  A    between atoms: N_19  and  C_32
   10  A    between atoms: N_19  and  C_39
   11  A    between atoms: C_20  and  C_29
   12  A    between atoms: C_20  and  C_32
   13  A    between atoms: C_26  and  C_29
                            x       y       z     vdW  Elec       q    Type
                         _______ _______ _______ _____ _____    ______ ____

>  <TORSDO>
F 13

$$$$
=
 OpenBabel11042419593D

 41 44  0  0  1  0  0  0  0  0999 V2000
  189.5910  177.2210  144.5800 C   0  0  0  0  0  0  0  0  0  0  0  0
  190.5210  176.8100  145.5450 C   0  0  0  0  0  0  0  0  0  0  0  0
  188.6870  177.8880  142.3310 S   0  0  0  0  0  0  0  0  0  0  0  0
  189.9890  177.3920  143.2600 C   0  0  0  0  0  0  0  0  0  0  0  0
  191.3000  177.1750  142.8460 C   0  0  0  0  0  3  0  0  0  0  0  0
  188.2340  177.4960  144.8010 C   0  0  0  0  0  3  0  0  0  0  0  0
  191.8500  176.5890  145.1470 C   0  0  0  0  0  3  0  0  0  0  0  0
  187.5940  177.8840  143.6260 C   0  0  0  0  0  0  0  0  0  0  0  0
  192.2410  176.7660  143.8030 C   0  0  0  0  0  0  0  0  0  0  0  0
  193.8040  175.2570  142.6160 C   0  0  0  0  0  0  0  0  0  0  0  0
  195.9260  173.9940  145.1970 C   0  0  0  0  0  0  0  0  0  0  0  0
  193.6580  176.5380  143.3730 C   0  0  2  0  0  3  0  0  0  0  0  0
  194.6280  174.2690  143.2050 N   0  0  0  0  0  2  0  0  0  0  0  0
  195.1770  174.7570  144.4150 C   0  0  0  0  0  0  0  0  0  0  0  0
  193.2320  175.0590  141.5130 O   0  0  0  0  0  0  0  0  0  0  0  0
  196.7560  173.7610  146.4540 C   0  0  0  0  0  2  0  0  0  0  0  0
  194.7680  176.4460  144.8350 S   0  0  0  0  0  0  0  0  0  0  0  0
  196.6190  172.6790  145.5340 C   0  0  0  0  0  2  0  0  0  0  0  0
  184.2250  179.1170  144.3710 O   0  0  0  0  0  0  0  0  0  0  0  0
  185.4480  178.8930  144.5780 C   0  0  0  0  0  0  0  0  0  0  0  0
  186.2020  178.2180  143.5670 N   0  0  0  0  0  2  0  0  0  0  0  0
  186.0580  179.2960  145.7740 O   0  0  0  0  0  0  0  0  0  0  0  0
  185.7480  178.7940  147.0430 C   0  0  0  0  0  0  0  0  0  0  0  0
  186.7950  178.5830  147.9830 N   0  0  0  0  0  1  0  0  0  0  0  0
  184.5620  178.5180  147.3690 O   0  0  0  0  0  0  0  0  0  0  0  0
  190.1400  176.6420  146.9790 C   0  0  0  0  0  2  0  0  0  0  0  0
  190.3350  175.1980  147.4010 C   0  0  0  0  0  2  0  0  0  0  0  0
  189.3370  174.3380  146.7140 C   0  0  0  0  0  3  0  0  0  0  0  0
  189.6770  173.6740  145.6460 C   0  0  0  0  0  0  0  0  0  0  0  0
  190.0190  173.0130  144.5770 C   0  0  0  0  0  3  0  0  0  0  0  0
  189.0900  172.8550  143.5100 N   0  0  0  0  0  2  0  0  0  0  0  0
  189.4910  172.2440  142.2540 C   0  0  2  0  0  3  0  0  0  0  0  0
  190.9130  170.5070  141.3090 N   0  0  0  0  0  1  0  0  0  0  0  0
  190.5920  171.2340  142.5250 C   0  0  0  0  0  2  0  0  0  0  0  0
  189.9990  173.3180  141.2950 C   0  0  0  0  0  2  0  0  0  0  0  0
  188.0320  172.6150  140.1460 O   0  0  0  0  0  1  0  0  0  0  0  0
  188.9960  173.6250  140.1810 C   0  0  0  0  0  0  0  0  0  0  0  0
  188.3690  174.8500  140.4280 O   0  0  0  0  0  1  0  0  0  0  0  0
  189.1140  172.7250  137.8100 C   0  0  0  0  0  1  0  0  0  0  0  0
  189.7290  173.6730  138.8300 C   0  0  0  0  0  3  0  0  0  0  0  0
  191.2060  173.3460  138.9810 C   0  0  0  0  0  1  0  0  0  0  0  0
  1  6  1  0  0  0  0
  1  2  1  0  0  0  0
  2 26  1  0  0  0  0
  3  4  1  0  0  0  0
  3  8  1  0  0  0  0
  4  1  2  0  0  0  0
  5  4  1  0  0  0  0
  5  9  2  0  0  0  0
  7  2  2  0  0  0  0
  8  6  2  0  0  0  0
  9  7  1  0  0  0  0
 10 13  1  0  0  0  0
 10 12  1  0  0  0  0
 11 18  1  0  0  0  0
 11 16  1  0  0  0  0
 12  9  1  1  0  0  0
 12 17  1  0  0  0  0
 13 14  1  0  0  0  0
 14 17  1  0  0  0  0
 14 11  2  0  0  0  0
 15 10  2  0  0  0  0
 18 16  1  0  0  0  0
 19 20  2  0  0  0  0
 20 22  1  0  0  0  0
 21  8  1  0  0  0  0
 21 20  1  0  0  0  0
 22 23  1  0  0  0  0
 23 25  2  0  0  0  0
 23 24  1  0  0  0  0
 26 27  1  0  0  0  0
 28 27  1  0  0  0  0
 29 28  2  0  0  0  0
 30 29  2  0  0  0  0
 31 30  1  0  0  0  0
 32 35  1  6  0  0  0
 32 34  1  0  0  0  0
 32 31  1  0  0  0  0
 33 34  1  0  0  0  0
 36 37  1  0  0  0  0
 37 38  1  0  0  0  0
 37 35  1  0  0  0  0
 39 40  1  0  0  0  0
 40 41  1  0  0  0  0
 40 37  1  0  0  0  0
M  END
>  <MODEL>
3

>  <REMARK>
 VINA RESULT:      -7.1      1.268      2.159
  Name = 
  13 active torsions:
  status: ('A' for Active; 'I' for Inactive)
    1  A    between atoms: C_2  and  C_4
    2  A    between atoms: C_2  and  C_33
    3  A    between atoms: O_8  and  C_13
    4  A    between atoms: O_8  and  C_34
    5  A    between atoms: C_9  and  C_32
    6  A    between atoms: C_11  and  C_33
    7  A    between atoms: C_14  and  C_40
    8  A    between atoms: N_15  and  C_37
    9  A    between atoms: N_19  and  C_32
   10  A    between atoms: N_19  and  C_39
   11  A    between atoms: C_20  and  C_29
   12  A    between atoms: C_20  and  C_32
   13  A    between atoms: C_26  and  C_29
                            x       y       z     vdW  Elec       q    Type
                         _______ _______ _______ _____ _____    ______ ____

>  <TORSDO>
F 13

$$$$
=
 OpenBabel11042419593D

 41 44  0  0  1  0  0  0  0  0999 V2000
  189.2810  174.0210  143.9450 C   0  0  0  0  0  0  0  0  0  0  0  0
  189.2860  174.8230  145.0950 C   0  0  0  0  0  0  0  0  0  0  0  0
  188.7740  173.3040  141.5890 S   0  0  0  0  0  0  0  0  0  0  0  0
  188.6250  174.4520  142.8000 C   0  0  0  0  0  0  0  0  0  0  0  0
  187.9510  175.6690  142.7430 C   0  0  0  0  0  3  0  0  0  0  0  0
  189.8930  172.7660  143.8060 C   0  0  0  0  0  3  0  0  0  0  0  0
  188.6100  176.0530  145.0590 C   0  0  0  0  0  3  0  0  0  0  0  0
  189.6920  172.2390  142.5330 C   0  0  0  0  0  0  0  0  0  0  0  0
  187.9470  176.4810  143.8890 C   0  0  0  0  0  0  0  0  0  0  0  0
  186.0050  177.7700  144.7230 C   0  0  0  0  0  0  0  0  0  0  0  0
  183.9370  178.1940  141.8420 C   0  0  0  0  0  0  0  0  0  0  0  0
  187.2170  177.7880  143.8460 C   0  0  2  0  0  3  0  0  0  0  0  0
  184.7570  177.9240  144.0730 N   0  0  0  0  0  2  0  0  0  0  0  0
  184.9560  178.1020  142.6840 C   0  0  0  0  0  0  0  0  0  0  0  0
  186.0810  177.6290  145.9710 O   0  0  0  0  0  0  0  0  0  0  0  0
  183.3590  178.3530  140.4400 C   0  0  0  0  0  2  0  0  0  0  0  0
  186.6560  178.1580  142.1360 S   0  0  0  0  0  0  0  0  0  0  0  0
  182.4460  178.2200  141.5280 C   0  0  0  0  0  2  0  0  0  0  0  0
  191.6360  169.5680  140.9480 O   0  0  0  0  0  0  0  0  0  0  0  0
  191.2920  170.7530  141.2050 C   0  0  0  0  0  0  0  0  0  0  0  0
  190.2150  170.9700  142.1210 N   0  0  0  0  0  2  0  0  0  0  0  0
  191.9500  171.8360  140.6070 O   0  0  0  0  0  0  0  0  0  0  0  0
  192.9180  172.6320  141.2310 C   0  0  0  0  0  0  0  0  0  0  0  0
  193.4250  173.7720  140.5490 N   0  0  0  0  0  1  0  0  0  0  0  0
  193.3530  172.3570  142.3800 O   0  0  0  0  0  0  0  0  0  0  0  0
  189.9560  174.3820  146.3540 C   0  0  0  0  0  2  0  0  0  0  0  0
  189.8750  175.4830  147.3960 C   0  0  0  0  0  2  0  0  0  0  0  0
  191.2280  175.7460  147.9490 C   0  0  0  0  0  3  0  0  0  0  0  0
  192.2040  176.0740  147.1510 C   0  0  0  0  0  0  0  0  0  0  0  0
  193.1780  176.3990  146.3490 C   0  0  0  0  0  3  0  0  0  0  0  0
  194.4960  175.9220  146.6000 N   0  0  0  0  0  2  0  0  0  0  0  0
  195.3390  175.4510  145.5150 C   0  0  2  0  0  3  0  0  0  0  0  0
  196.4880  176.6560  143.7360 N   0  0  0  0  0  1  0  0  0  0  0  0
  195.1900  176.3890  144.3290 C   0  0  0  0  0  2  0  0  0  0  0  0
  194.9250  174.0380  145.1110 C   0  0  0  0  0  2  0  0  0  0  0  0
  196.3440  173.2490  143.3660 O   0  0  0  0  0  1  0  0  0  0  0  0
  196.1240  173.1620  144.7420 C   0  0  0  0  0  0  0  0  0  0  0  0
  197.2650  173.6070  145.4180 O   0  0  0  0  0  1  0  0  0  0  0  0
  194.4240  171.5290  145.6830 C   0  0  0  0  0  1  0  0  0  0  0  0
  195.8270  171.7020  145.1170 C   0  0  0  0  0  3  0  0  0  0  0  0
  196.8350  171.1640  146.1210 C   0  0  0  0  0  1  0  0  0  0  0  0
  1  2  1  0  0  0  0
  2 26  1  0  0  0  0
  3  8  1  0  0  0  0
  3  4  1  0  0  0  0
  4  1  2  0  0  0  0
  5  4  1  0  0  0  0
  5  9  2  0  0  0  0
  6  1  1  0  0  0  0
  7  2  2  0  0  0  0
  8  6  2  0  0  0  0
  9  7  1  0  0  0  0
 10 15  2  0  0  0  0
 11 14  2  0  0  0  0
 12  9  1  6  0  0  0
 12 10  1  0  0  0  0
 13 10  1  0  0  0  0
 14 13  1  0  0  0  0
 16 18  1  0  0  0  0
 16 11  1  0  0  0  0
 17 14  1  0  0  0  0
 17 12  1  0  0  0  0
 18 11  1  0  0  0  0
 19 20  2  0  0  0  0
 20 21  1  0  0  0  0
 21  8  1  0  0  0  0
 22 20  1  0  0  0  0
 22 23  1  0  0  0  0
 23 25  2  0  0  0  0
 24 23  1  0  0  0  0
 26 27  1  0  0  0  0
 27 28  1  0  0  0  0
 29 28  2  0  0  0  0
 30 31  1  0  0  0  0
 30 29  2  0  0  0  0
 32 34  1  6  0  0  0
 32 31  1  0  0  0  0
 33 34  1  0  0  0  0
 35 32  1  0  0  0  0
 36 37  1  0  0  0  0
 37 35  1  0  0  0  0
 37 40  1  0  0  0  0
 37 38  1  0  0  0  0
 40 39  1  0  0  0  0
 40 41  1  0  0  0  0
M  END
>  <MODEL>
4

>  <REMARK>
 VINA RESULT:      -7.0      2.880      8.318
  Name = 
  13 active torsions:
  status: ('A' for Active; 'I' for Inactive)
    1  A    between atoms: C_2  and  C_4
    2  A    between atoms: C_2  and  C_33
    3  A    between atoms: O_8  and  C_13
    4  A    between atoms: O_8  and  C_34
    5  A    between atoms: C_9  and  C_32
    6  A    between atoms: C_11  and  C_33
    7  A    between atoms: C_14  and  C_40
    8  A    between atoms: N_15  and  C_37
    9  A    between atoms: N_19  and  C_32
   10  A    between atoms: N_19  and  C_39
   11  A    between atoms: C_20  and  C_29
   12  A    between atoms: C_20  and  C_32
   13  A    between atoms: C_26  and  C_29
                            x       y       z     vdW  Elec       q    Type
                         _______ _______ _______ _____ _____    ______ ____

>  <TORSDO>
F 13

$$$$
=
 OpenBabel11042419593D

 41 44  0  0  1  0  0  0  0  0999 V2000
  189.7570  175.2260  146.1430 C   0  0  0  0  0  0  0  0  0  0  0  0
  190.3950  174.0850  145.6360 C   0  0  0  0  0  0  0  0  0  0  0  0
  189.4970  177.5360  147.1010 S   0  0  0  0  0  0  0  0  0  0  0  0
  190.5080  176.3260  146.5330 C   0  0  0  0  0  0  0  0  0  0  0  0
  191.8970  176.3470  146.4470 C   0  0  0  0  0  3  0  0  0  0  0  0
  188.3750  175.3950  146.3140 C   0  0  0  0  0  3  0  0  0  0  0  0
  191.7970  174.0840  145.5440 C   0  0  0  0  0  3  0  0  0  0  0  0
  188.0770  176.6480  146.8450 C   0  0  0  0  0  0  0  0  0  0  0  0
  192.5490  175.2100  145.9430 C   0  0  0  0  0  0  0  0  0  0  0  0
  194.5860  176.6030  145.7530 C   0  0  0  0  0  0  0  0  0  0  0  0
  195.8560  175.8520  142.5010 C   0  0  0  0  0  0  0  0  0  0  0  0
  194.0440  175.2130  145.8550 C   0  0  2  0  0  3  0  0  0  0  0  0
  195.2760  176.9240  144.5600 N   0  0  0  0  0  2  0  0  0  0  0  0
  195.3270  175.7910  143.7140 C   0  0  0  0  0  0  0  0  0  0  0  0
  194.4430  177.4500  146.6740 O   0  0  0  0  0  0  0  0  0  0  0  0
  196.2390  175.2230  141.1660 C   0  0  0  0  0  2  0  0  0  0  0  0
  194.6040  174.2930  144.3660 S   0  0  0  0  0  0  0  0  0  0  0  0
  196.5470  176.6010  141.3680 C   0  0  0  0  0  2  0  0  0  0  0  0
  184.5430  177.5760  146.5690 O   0  0  0  0  0  0  0  0  0  0  0  0
  185.6690  177.1730  146.1700 C   0  0  0  0  0  0  0  0  0  0  0  0
  186.7390  177.0840  147.1150 N   0  0  0  0  0  2  0  0  0  0  0  0
  185.8700  176.8210  144.8280 O   0  0  0  0  0  0  0  0  0  0  0  0
  185.8050  177.7070  143.7460 C   0  0  0  0  0  0  0  0  0  0  0  0
  184.7990  177.5250  142.7580 N   0  0  0  0  0  1  0  0  0  0  0  0
  186.6220  178.6580  143.6270 O   0  0  0  0  0  0  0  0  0  0  0  0
  189.6260  172.8710  145.2330 C   0  0  0  0  0  2  0  0  0  0  0  0
  190.5400  171.8950  144.5140 C   0  0  0  0  0  2  0  0  0  0  0  0
  189.9300  171.5050  143.2160 C   0  0  0  0  0  3  0  0  0  0  0  0
  190.6600  171.4800  142.1380 C   0  0  0  0  0  0  0  0  0  0  0  0
  191.3920  171.4570  141.0600 C   0  0  0  0  0  3  0  0  0  0  0  0
  190.8370  171.8650  139.8140 N   0  0  0  0  0  2  0  0  0  0  0  0
  189.5690  172.5720  139.7550 C   0  0  2  0  0  3  0  0  0  0  0  0
  188.0490  173.4960  138.0920 N   0  0  0  0  0  1  0  0  0  0  0  0
  188.9790  172.4140  138.3650 C   0  0  0  0  0  2  0  0  0  0  0  0
  189.7870  174.0520  140.0590 C   0  0  0  0  0  2  0  0  0  0  0  0
  188.0830  175.6250  140.6130 O   0  0  0  0  0  1  0  0  0  0  0  0
  188.8340  174.5710  141.1390 C   0  0  0  0  0  0  0  0  0  0  0  0
  187.9690  173.5490  141.5420 O   0  0  0  0  0  1  0  0  0  0  0  0
  189.2600  176.4940  142.7390 C   0  0  0  0  0  1  0  0  0  0  0  0
  189.6470  175.0770  142.3410 C   0  0  0  0  0  3  0  0  0  0  0  0
  191.1420  175.0320  142.0660 C   0  0  0  0  0  1  0  0  0  0  0  0
  1  6  1  0  0  0  0
  1  4  1  0  0  0  0
  2  1  2  0  0  0  0
  4  3  1  0  0  0  0
  5  4  2  0  0  0  0
  6  8  2  0  0  0  0
  7  2  1  0  0  0  0
  7  9  2  0  0  0  0
  8  3  1  0  0  0  0
  8 21  1  0  0  0  0
  9  5  1  0  0  0  0
 10 12  1  0  0  0  0
 10 15  2  0  0  0  0
 11 14  2  0  0  0  0
 12  9  1  6  0  0  0
 13 10  1  0  0  0  0
 14 17  1  0  0  0  0
 14 13  1  0  0  0  0
 16 18  1  0  0  0  0
 16 11  1  0  0  0  0
 17 12  1  0  0  0  0
 18 11  1  0  0  0  0
 20 19  2  0  0  0  0
 20 21  1  0  0  0  0
 22 20  1  0  0  0  0
 23 22  1  0  0  0  0
 24 23  1  0  0  0  0
 25 23  2  0  0  0  0
 26  2  1  0  0  0  0
 27 26  1  0  0  0  0
 28 27  1  0  0  0  0
 29 28  2  0  0  0  0
 30 29  2  0  0  0  0
 31 30  1  0  0  0  0
 32 34  1  6  0  0  0
 32 31  1  0  0  0  0
 32 35  1  0  0  0  0
 33 34  1  0  0  0  0
 35 37  1  0  0  0  0
 36 37  1  0  0  0  0
 37 38  1  0  0  0  0
 37 40  1  0  0  0  0
 40 39  1  0  0  0  0
 41 40  1  0  0  0  0
M  END
>  <MODEL>
5

>  <REMARK>
 VINA RESULT:      -7.0      2.389      3.724
  Name = 
  13 active torsions:
  status: ('A' for Active; 'I' for Inactive)
    1  A    between atoms: C_2  and  C_4
    2  A    between atoms: C_2  and  C_33
    3  A    between atoms: O_8  and  C_13
    4  A    between atoms: O_8  and  C_34
    5  A    between atoms: C_9  and  C_32
    6  A    between atoms: C_11  and  C_33
    7  A    between atoms: C_14  and  C_40
    8  A    between atoms: N_15  and  C_37
    9  A    between atoms: N_19  and  C_32
   10  A    between atoms: N_19  and  C_39
   11  A    between atoms: C_20  and  C_29
   12  A    between atoms: C_20  and  C_32
   13  A    between atoms: C_26  and  C_29
                            x       y       z     vdW  Elec       q    Type
                         _______ _______ _______ _____ _____    ______ ____

>  <TORSDO>
F 13

$$$$
=
 OpenBabel11042419593D

 41 44  0  0  1  0  0  0  0  0999 V2000
  183.4320  178.6210  142.7640 C   0  0  0  0  0  0  0  0  0  0  0  0
  184.5260  178.6620  143.6400 C   0  0  0  0  0  0  0  0  0  0  0  0
  182.1530  178.2950  140.6240 S   0  0  0  0  0  0  0  0  0  0  0  0
  183.6170  178.2520  141.4380 C   0  0  0  0  0  0  0  0  0  0  0  0
  184.8680  177.9190  140.9270 C   0  0  0  0  0  3  0  0  0  0  0  0
  182.1020  178.9280  143.0850 C   0  0  0  0  0  3  0  0  0  0  0  0
  185.7980  178.3320  143.1420 C   0  0  0  0  0  3  0  0  0  0  0  0
  181.2660  178.7890  141.9800 C   0  0  0  0  0  0  0  0  0  0  0  0
  185.9720  177.9580  141.7920 C   0  0  0  0  0  0  0  0  0  0  0  0
  187.2300  176.7430  140.0410 C   0  0  0  0  0  0  0  0  0  0  0  0
  188.8770  174.1170  141.8130 C   0  0  0  0  0  0  0  0  0  0  0  0
  187.3270  177.6120  141.2540 C   0  0  2  0  0  3  0  0  0  0  0  0
  187.7840  175.4460  140.1510 N   0  0  0  0  0  2  0  0  0  0  0  0
  188.3580  175.2740  141.4330 C   0  0  0  0  0  0  0  0  0  0  0  0
  186.6900  177.1360  138.9740 O   0  0  0  0  0  0  0  0  0  0  0  0
  189.5650  173.2210  142.8380 C   0  0  0  0  0  2  0  0  0  0  0  0
  188.3060  176.6980  142.5110 S   0  0  0  0  0  0  0  0  0  0  0  0
  189.2460  172.6580  141.5660 C   0  0  0  0  0  2  0  0  0  0  0  0
  177.8830  180.0720  141.4010 O   0  0  0  0  0  0  0  0  0  0  0  0
  179.1290  179.9770  141.2370 C   0  0  0  0  0  0  0  0  0  0  0  0
  179.8550  179.0340  142.0310 N   0  0  0  0  0  2  0  0  0  0  0  0
  179.7910  180.7800  140.2970 O   0  0  0  0  0  0  0  0  0  0  0  0
  179.1600  181.5620  139.3230 C   0  0  0  0  0  0  0  0  0  0  0  0
  178.4760  180.9210  138.2530 N   0  0  0  0  0  1  0  0  0  0  0  0
  179.1910  182.8200  139.3700 O   0  0  0  0  0  0  0  0  0  0  0  0
  184.3740  179.0800  145.0640 C   0  0  0  0  0  2  0  0  0  0  0  0
  184.4510  177.8670  145.9720 C   0  0  0  0  0  2  0  0  0  0  0  0
  185.5810  178.0280  146.9240 C   0  0  0  0  0  3  0  0  0  0  0  0
  186.8070  177.8920  146.5060 C   0  0  0  0  0  0  0  0  0  0  0  0
  188.0320  177.7530  146.0860 C   0  0  0  0  0  3  0  0  0  0  0  0
  189.0070  177.1370  146.9210 N   0  0  0  0  0  2  0  0  0  0  0  0
  189.9420  176.1630  146.3860 C   0  0  2  0  0  3  0  0  0  0  0  0
  188.5690  174.5880  147.6380 N   0  0  0  0  0  1  0  0  0  0  0  0
  189.9320  174.9290  147.2710 C   0  0  0  0  0  2  0  0  0  0  0  0
  191.3460  176.7600  146.3470 C   0  0  0  0  0  2  0  0  0  0  0  0
  191.5190  175.6370  144.2510 O   0  0  0  0  0  1  0  0  0  0  0  0
  191.9290  176.7850  144.9330 C   0  0  0  0  0  0  0  0  0  0  0  0
  191.4700  177.9150  144.2480 O   0  0  0  0  0  1  0  0  0  0  0  0
  194.1040  175.8790  143.9870 C   0  0  0  0  0  1  0  0  0  0  0  0
  193.4640  176.8060  145.0110 C   0  0  0  0  0  3  0  0  0  0  0  0
  193.9610  176.4280  146.3980 C   0  0  0  0  0  1  0  0  0  0  0  0
  1  6  1  0  0  0  0
  1  2  1  0  0  0  0
  2 26  1  0  0  0  0
  3  4  1  0  0  0  0
  3  8  1  0  0  0  0
  4  1  2  0  0  0  0
  5  4  1  0  0  0  0
  5  9  2  0  0  0  0
  7  2  2  0  0  0  0
  8 21  1  0  0  0  0
  8  6  2  0  0  0  0
  9  7  1  0  0  0  0
 10 13  1  0  0  0  0
 10 12  1  0  0  0  0
 11 16  1  0  0  0  0
 12  9  1  1  0  0  0
 12 17  1  0  0  0  0
 13 14  1  0  0  0  0
 14 11  2  0  0  0  0
 14 17  1  0  0  0  0
 15 10  2  0  0  0  0
 18 11  1  0  0  0  0
 18 16  1  0  0  0  0
 20 19  2  0  0  0  0
 20 21  1  0  0  0  0
 22 20  1  0  0  0  0
 23 25  2  0  0  0  0
 23 22  1  0  0  0  0
 24 23  1  0  0  0  0
 26 27  1  0  0  0  0
 27 28  1  0  0  0  0
 29 28  2  0  0  0  0
 30 29  2  0  0  0  0
 30 31  1  0  0  0  0
 32 35  1  1  0  0  0
 32 31  1  0  0  0  0
 32 34  1  0  0  0  0
 34 33  1  0  0  0  0
 36 37  1  0  0  0  0
 37 40  1  0  0  0  0
 37 35  1  0  0  0  0
 38 37  1  0  0  0  0
 39 40  1  0  0  0  0
 40 41  1  0  0  0  0
M  END
>  <MODEL>
6

>  <REMARK>
 VINA RESULT:      -6.9      3.783      7.002
  Name = 
  13 active torsions:
  status: ('A' for Active; 'I' for Inactive)
    1  A    between atoms: C_2  and  C_4
    2  A    between atoms: C_2  and  C_33
    3  A    between atoms: O_8  and  C_13
    4  A    between atoms: O_8  and  C_34
    5  A    between atoms: C_9  and  C_32
    6  A    between atoms: C_11  and  C_33
    7  A    between atoms: C_14  and  C_40
    8  A    between atoms: N_15  and  C_37
    9  A    between atoms: N_19  and  C_32
   10  A    between atoms: N_19  and  C_39
   11  A    between atoms: C_20  and  C_29
   12  A    between atoms: C_20  and  C_32
   13  A    between atoms: C_26  and  C_29
                            x       y       z     vdW  Elec       q    Type
                         _______ _______ _______ _____ _____    ______ ____

>  <TORSDO>
F 13

$$$$
=
 OpenBabel11042419593D

 41 44  0  0  1  0  0  0  0  0999 V2000
  183.4660  178.6660  142.6440 C   0  0  0  0  0  0  0  0  0  0  0  0
  184.5750  178.7610  143.4960 C   0  0  0  0  0  0  0  0  0  0  0  0
  182.1540  178.2270  140.5450 S   0  0  0  0  0  0  0  0  0  0  0  0
  183.6330  178.2430  141.3320 C   0  0  0  0  0  0  0  0  0  0  0  0
  184.8790  177.9090  140.8120 C   0  0  0  0  0  3  0  0  0  0  0  0
  182.1370  178.9630  142.9770 C   0  0  0  0  0  3  0  0  0  0  0  0
  185.8430  178.4310  142.9890 C   0  0  0  0  0  3  0  0  0  0  0  0
  181.2830  178.7640  141.8950 C   0  0  0  0  0  0  0  0  0  0  0  0
  185.9990  178.0030  141.6530 C   0  0  0  0  0  0  0  0  0  0  0  0
  187.8170  176.3240  141.5960 C   0  0  0  0  0  0  0  0  0  0  0  0
  190.5300  177.9180  143.2840 C   0  0  0  0  0  0  0  0  0  0  0  0
  187.3490  177.6570  141.1040 C   0  0  2  0  0  3  0  0  0  0  0  0
  188.9850  176.3230  142.3940 N   0  0  0  0  0  2  0  0  0  0  0  0
  189.4830  177.6410  142.5210 C   0  0  0  0  0  0  0  0  0  0  0  0
  187.2130  175.2550  141.3170 O   0  0  0  0  0  0  0  0  0  0  0  0
  191.5360  178.8920  143.8880 C   0  0  0  0  0  2  0  0  0  0  0  0
  188.5940  178.9040  141.6230 S   0  0  0  0  0  0  0  0  0  0  0  0
  191.6530  177.5120  144.2320 C   0  0  0  0  0  2  0  0  0  0  0  0
  177.8880  180.0600  141.4250 O   0  0  0  0  0  0  0  0  0  0  0  0
  179.1360  179.9950  141.2590 C   0  0  0  0  0  0  0  0  0  0  0  0
  179.8690  178.9880  141.9620 N   0  0  0  0  0  2  0  0  0  0  0  0
  179.7930  180.8910  140.4040 O   0  0  0  0  0  0  0  0  0  0  0  0
  179.1800  181.6110  139.3710 C   0  0  0  0  0  0  0  0  0  0  0  0
  178.4920  180.9060  138.3460 N   0  0  0  0  0  1  0  0  0  0  0  0
  179.2320  182.8690  139.3280 O   0  0  0  0  0  0  0  0  0  0  0  0
  184.4420  179.2380  144.9040 C   0  0  0  0  0  2  0  0  0  0  0  0
  184.3350  178.0520  145.8450 C   0  0  0  0  0  2  0  0  0  0  0  0
  185.5450  177.9880  146.7050 C   0  0  0  0  0  3  0  0  0  0  0  0
  186.5160  177.1760  146.4010 C   0  0  0  0  0  0  0  0  0  0  0  0
  187.4860  176.3610  146.0950 C   0  0  0  0  0  3  0  0  0  0  0  0
  188.2030  175.6890  147.1250 N   0  0  0  0  0  2  0  0  0  0  0  0
  189.3400  174.8400  146.8130 C   0  0  2  0  0  3  0  0  0  0  0  0
  190.6640  176.7350  147.5810 N   0  0  0  0  0  1  0  0  0  0  0  0
  190.5340  175.2890  147.6370 C   0  0  0  0  0  2  0  0  0  0  0  0
  189.6710  174.9440  145.3260 C   0  0  0  0  0  2  0  0  0  0  0  0
  189.6920  172.5770  145.6170 O   0  0  0  0  0  1  0  0  0  0  0  0
  190.0290  173.5880  144.7130 C   0  0  0  0  0  0  0  0  0  0  0  0
  189.3160  173.3980  143.5250 O   0  0  0  0  0  1  0  0  0  0  0  0
  191.8820  174.0150  143.0310 C   0  0  0  0  0  1  0  0  0  0  0  0
  191.5400  173.5350  144.4350 C   0  0  0  0  0  3  0  0  0  0  0  0
  192.0970  172.1320  144.6260 C   0  0  0  0  0  1  0  0  0  0  0  0
  1  6  1  0  0  0  0
  1  2  1  0  0  0  0
  2 26  1  0  0  0  0
  3  4  1  0  0  0  0
  3  8  1  0  0  0  0
  4  1  2  0  0  0  0
  5  4  1  0  0  0  0
  5  9  2  0  0  0  0
  7  2  2  0  0  0  0
  8 21  1  0  0  0  0
  8  6  2  0  0  0  0
  9  7  1  0  0  0  0
 10 13  1  0  0  0  0
 11 16  1  0  0  0  0
 11 18  1  0  0  0  0
 12 10  1  0  0  0  0
 12 17  1  0  0  0  0
 12  9  1  1  0  0  0
 13 14  1  0  0  0  0
 14 11  2  0  0  0  0
 15 10  2  0  0  0  0
 16 18  1  0  0  0  0
 17 14  1  0  0  0  0
 20 19  2  0  0  0  0
 20 21  1  0  0  0  0
 22 20  1  0  0  0  0
 23 22  1  0  0  0  0
 24 23  1  0  0  0  0
 25 23  2  0  0  0  0
 26 27  1  0  0  0  0
 27 28  1  0  0  0  0
 29 28  2  0  0  0  0
 30 29  2  0  0  0  0
 30 31  1  0  0  0  0
 32 35  1  6  0  0  0
 32 31  1  0  0  0  0
 32 34  1  0  0  0  0
 33 34  1  0  0  0  0
 37 35  1  0  0  0  0
 37 36  1  0  0  0  0
 38 37  1  0  0  0  0
 39 40  1  0  0  0  0
 40 41  1  0  0  0  0
 40 37  1  0  0  0  0
M  END
>  <MODEL>
7

>  <REMARK>
 VINA RESULT:      -6.8      3.901      6.539
  Name = 
  13 active torsions:
  status: ('A' for Active; 'I' for Inactive)
    1  A    between atoms: C_2  and  C_4
    2  A    between atoms: C_2  and  C_33
    3  A    between atoms: O_8  and  C_13
    4  A    between atoms: O_8  and  C_34
    5  A    between atoms: C_9  and  C_32
    6  A    between atoms: C_11  and  C_33
    7  A    between atoms: C_14  and  C_40
    8  A    between atoms: N_15  and  C_37
    9  A    between atoms: N_19  and  C_32
   10  A    between atoms: N_19  and  C_39
   11  A    between atoms: C_20  and  C_29
   12  A    between atoms: C_20  and  C_32
   13  A    between atoms: C_26  and  C_29
                            x       y       z     vdW  Elec       q    Type
                         _______ _______ _______ _____ _____    ______ ____

>  <TORSDO>
F 13

$$$$
=
 OpenBabel11042419593D

 41 44  0  0  1  0  0  0  0  0999 V2000
  189.8020  172.8470  142.4190 C   0  0  0  0  0  0  0  0  0  0  0  0
  189.6140  173.6140  143.5770 C   0  0  0  0  0  0  0  0  0  0  0  0
  189.6800  172.1940  139.9940 S   0  0  0  0  0  0  0  0  0  0  0  0
  189.3240  173.3040  141.1970 C   0  0  0  0  0  0  0  0  0  0  0  0
  188.6480  174.5130  141.0700 C   0  0  0  0  0  3  0  0  0  0  0  0
  190.4480  171.6050  142.3430 C   0  0  0  0  0  3  0  0  0  0  0  0
  188.9310  174.8370  143.4700 C   0  0  0  0  0  3  0  0  0  0  0  0
  190.4570  171.1130  141.0410 C   0  0  0  0  0  0  0  0  0  0  0  0
  188.4510  175.2910  142.2220 C   0  0  0  0  0  0  0  0  0  0  0  0
  188.4840  177.7160  142.7160 C   0  0  0  0  0  0  0  0  0  0  0  0
  185.8880  178.1500  145.1290 C   0  0  0  0  0  0  0  0  0  0  0  0
  187.7150  176.5900  142.1020 C   0  0  2  0  0  3  0  0  0  0  0  0
  187.8840  178.3550  143.8260 N   0  0  0  0  0  2  0  0  0  0  0  0
  186.6200  177.7770  144.0900 C   0  0  0  0  0  0  0  0  0  0  0  0
  189.6040  178.0840  142.2750 O   0  0  0  0  0  0  0  0  0  0  0  0
  184.6410  178.0550  146.0010 C   0  0  0  0  0  2  0  0  0  0  0  0
  186.0940  176.4950  142.9620 S   0  0  0  0  0  0  0  0  0  0  0  0
  185.6430  179.0010  146.3700 C   0  0  0  0  0  2  0  0  0  0  0  0
  192.7820  168.3200  140.5680 O   0  0  0  0  0  0  0  0  0  0  0  0
  192.4050  169.4610  140.9490 C   0  0  0  0  0  0  0  0  0  0  0  0
  191.0590  169.8630  140.6810 N   0  0  0  0  0  2  0  0  0  0  0  0
  193.2860  170.3190  141.6230 O   0  0  0  0  0  0  0  0  0  0  0  0
  193.8560  170.0620  142.8760 C   0  0  0  0  0  0  0  0  0  0  0  0
  195.2600  170.2160  143.0440 N   0  0  0  0  0  1  0  0  0  0  0  0
  193.1540  169.6930  143.8540 O   0  0  0  0  0  0  0  0  0  0  0  0
  190.0870  173.1450  144.9130 C   0  0  0  0  0  2  0  0  0  0  0  0
  190.5760  174.3250  145.7320 C   0  0  0  0  0  2  0  0  0  0  0  0
  192.0100  174.1340  146.0720 C   0  0  0  0  0  3  0  0  0  0  0  0
  192.7860  175.1700  146.2230 C   0  0  0  0  0  0  0  0  0  0  0  0
  193.5600  176.2070  146.3700 C   0  0  0  0  0  3  0  0  0  0  0  0
  194.9110  176.1570  145.9260 N   0  0  0  0  0  2  0  0  0  0  0  0
  195.2940  175.3400  144.7870 C   0  0  2  0  0  3  0  0  0  0  0  0
  196.4390  173.1930  144.6810 N   0  0  0  0  0  1  0  0  0  0  0  0
  196.5550  174.5680  145.1330 C   0  0  0  0  0  2  0  0  0  0  0  0
  195.5500  176.2300  143.5730 C   0  0  0  0  0  2  0  0  0  0  0  0
  194.6180  176.7340  141.4370 O   0  0  0  0  0  1  0  0  0  0  0  0
  194.9140  175.6730  142.2980 C   0  0  0  0  0  0  0  0  0  0  0  0
  195.8030  174.8010  141.6620 O   0  0  0  0  0  1  0  0  0  0  0  0
  193.3970  173.7040  141.7820 C   0  0  0  0  0  1  0  0  0  0  0  0
  193.6150  174.9330  142.6540 C   0  0  0  0  0  3  0  0  0  0  0  0
  192.4010  175.8420  142.5390 C   0  0  0  0  0  1  0  0  0  0  0  0
  1  2  1  0  0  0  0
  2 26  1  0  0  0  0
  3  8  1  0  0  0  0
  3  4  1  0  0  0  0
  4  1  2  0  0  0  0
  5  4  1  0  0  0  0
  5  9  2  0  0  0  0
  6  1  1  0  0  0  0
  7  2  2  0  0  0  0
  8  6  2  0  0  0  0
  9  7  1  0  0  0  0
 10 13  1  0  0  0  0
 11 16  1  0  0  0  0
 11 18  1  0  0  0  0
 12  9  1  1  0  0  0
 12 10  1  0  0  0  0
 12 17  1  0  0  0  0
 13 14  1  0  0  0  0
 14 11  2  0  0  0  0
 15 10  2  0  0  0  0
 16 18  1  0  0  0  0
 17 14  1  0  0  0  0
 19 20  2  0  0  0  0
 20 22  1  0  0  0  0
 21 20  1  0  0  0  0
 21  8  1  0  0  0  0
 22 23  1  0  0  0  0
 23 24  1  0  0  0  0
 23 25  2  0  0  0  0
 26 27  1  0  0  0  0
 27 28  1  0  0  0  0
 28 29  2  0  0  0  0
 29 30  2  0  0  0  0
 31 30  1  0  0  0  0
 32 35  1  6  0  0  0
 32 34  1  0  0  0  0
 32 31  1  0  0  0  0
 33 34  1  0  0  0  0
 36 37  1  0  0  0  0
 37 40  1  0  0  0  0
 37 35  1  0  0  0  0
 38 37  1  0  0  0  0
 39 40  1  0  0  0  0
 41 40  1  0  0  0  0
M  END
>  <MODEL>
8

>  <REMARK>
 VINA RESULT:      -6.8      2.946      7.955
  Name = 
  13 active torsions:
  status: ('A' for Active; 'I' for Inactive)
    1  A    between atoms: C_2  and  C_4
    2  A    between atoms: C_2  and  C_33
    3  A    between atoms: O_8  and  C_13
    4  A    between atoms: O_8  and  C_34
    5  A    between atoms: C_9  and  C_32
    6  A    between atoms: C_11  and  C_33
    7  A    between atoms: C_14  and  C_40
    8  A    between atoms: N_15  and  C_37
    9  A    between atoms: N_19  and  C_32
   10  A    between atoms: N_19  and  C_39
   11  A    between atoms: C_20  and  C_29
   12  A    between atoms: C_20  and  C_32
   13  A    between atoms: C_26  and  C_29
                            x       y       z     vdW  Elec       q    Type
                         _______ _______ _______ _____ _____    ______ ____

>  <TORSDO>
F 13

$$$$
=
 OpenBabel11042419593D

 41 44  0  0  1  0  0  0  0  0999 V2000
  187.3180  177.7730  144.9530 C   0  0  0  0  0  0  0  0  0  0  0  0
  188.6410  177.6900  144.4950 C   0  0  0  0  0  0  0  0  0  0  0  0
  185.3230  177.3940  146.4350 S   0  0  0  0  0  0  0  0  0  0  0  0
  186.9500  177.1350  146.1310 C   0  0  0  0  0  0  0  0  0  0  0  0
  187.8530  176.3980  146.8900 C   0  0  0  0  0  3  0  0  0  0  0  0
  186.2660  178.4580  144.3290 C   0  0  0  0  0  3  0  0  0  0  0  0
  189.5670  176.9480  145.2460 C   0  0  0  0  0  3  0  0  0  0  0  0
  185.0800  178.3350  145.0470 C   0  0  0  0  0  0  0  0  0  0  0  0
  189.1800  176.3050  146.4420 C   0  0  0  0  0  0  0  0  0  0  0  0
  191.2840  176.3570  147.7450 C   0  0  0  0  0  0  0  0  0  0  0  0
  193.5790  174.4620  145.7710 C   0  0  0  0  0  0  0  0  0  0  0  0
  190.1610  175.5060  147.2430 C   0  0  2  0  0  3  0  0  0  0  0  0
  192.5760  176.0380  147.2660 N   0  0  0  0  0  2  0  0  0  0  0  0
  192.5100  174.9140  146.4100 C   0  0  0  0  0  0  0  0  0  0  0  0
  191.0990  177.3050  148.5520 O   0  0  0  0  0  0  0  0  0  0  0  0
  194.2680  173.4910  144.8190 C   0  0  0  0  0  2  0  0  0  0  0  0
  190.8960  174.1710  146.2160 S   0  0  0  0  0  0  0  0  0  0  0  0
  195.0620  174.5110  145.4230 C   0  0  0  0  0  2  0  0  0  0  0  0
  182.1100  179.3690  143.1670 O   0  0  0  0  0  0  0  0  0  0  0  0
  183.1950  178.7630  143.3760 C   0  0  0  0  0  0  0  0  0  0  0  0
  183.8490  178.9420  144.6350 N   0  0  0  0  0  2  0  0  0  0  0  0
  183.7500  177.9300  142.3940 O   0  0  0  0  0  0  0  0  0  0  0  0
  183.7500  178.1970  141.0200 C   0  0  0  0  0  0  0  0  0  0  0  0
  182.5810  177.9220  140.2580 N   0  0  0  0  0  1  0  0  0  0  0  0
  184.7650  178.6690  140.4430 O   0  0  0  0  0  0  0  0  0  0  0  0
  189.0700  178.3370  143.2200 C   0  0  0  0  0  2  0  0  0  0  0  0
  189.8240  177.3380  142.3610 C   0  0  0  0  0  2  0  0  0  0  0  0
  188.8560  176.4740  141.6370 C   0  0  0  0  0  3  0  0  0  0  0  0
  188.6720  175.2430  142.0190 C   0  0  0  0  0  0  0  0  0  0  0  0
  188.4910  174.0110  142.4020 C   0  0  0  0  0  3  0  0  0  0  0  0
  188.2710  172.9890  141.4350 N   0  0  0  0  0  2  0  0  0  0  0  0
  189.0950  172.8980  140.2430 C   0  0  2  0  0  3  0  0  0  0  0  0
  188.2280  173.8380  138.1690 N   0  0  0  0  0  1  0  0  0  0  0  0
  188.1980  172.6750  139.0380 C   0  0  0  0  0  2  0  0  0  0  0  0
  190.0760  171.7370  140.3780 C   0  0  0  0  0  2  0  0  0  0  0  0
  191.4280  172.0480  142.3180 O   0  0  0  0  0  1  0  0  0  0  0  0
  191.4340  172.1830  140.9270 C   0  0  0  0  0  0  0  0  0  0  0  0
  192.4500  171.3840  140.3920 O   0  0  0  0  0  1  0  0  0  0  0  0
  192.5610  173.8050  139.3330 C   0  0  0  0  0  1  0  0  0  0  0  0
  191.6750  173.6560  140.5620 C   0  0  0  0  0  3  0  0  0  0  0  0
  192.2980  174.4260  141.7170 C   0  0  0  0  0  1  0  0  0  0  0  0
  1  4  1  0  0  0  0
  2  1  2  0  0  0  0
  2  7  1  0  0  0  0
  4  3  1  0  0  0  0
  4  5  2  0  0  0  0
  6  1  1  0  0  0  0
  6  8  2  0  0  0  0
  7  9  2  0  0  0  0
  8  3  1  0  0  0  0
  9  5  1  0  0  0  0
 10 15  2  0  0  0  0
 11 14  2  0  0  0  0
 12  9  1  6  0  0  0
 12 10  1  0  0  0  0
 13 10  1  0  0  0  0
 14 13  1  0  0  0  0
 16 18  1  0  0  0  0
 16 11  1  0  0  0  0
 17 14  1  0  0  0  0
 17 12  1  0  0  0  0
 18 11  1  0  0  0  0
 19 20  2  0  0  0  0
 20 21  1  0  0  0  0
 21  8  1  0  0  0  0
 22 20  1  0  0  0  0
 23 22  1  0  0  0  0
 24 23  1  0  0  0  0
 25 23  2  0  0  0  0
 26  2  1  0  0  0  0
 27 26  1  0  0  0  0
 28 29  2  0  0  0  0
 28 27  1  0  0  0  0
 29 30  2  0  0  0  0
 31 30  1  0  0  0  0
 32 34  1  6  0  0  0
 32 35  1  0  0  0  0
 32 31  1  0  0  0  0
 33 34  1  0  0  0  0
 35 37  1  0  0  0  0
 37 36  1  0  0  0  0
 38 37  1  0  0  0  0
 39 40  1  0  0  0  0
 40 37  1  0  0  0  0
 40 41  1  0  0  0  0
M  END
>  <MODEL>
9

>  <REMARK>
 VINA RESULT:      -6.8      2.667      3.924
  Name = 
  13 active torsions:
  status: ('A' for Active; 'I' for Inactive)
    1  A    between atoms: C_2  and  C_4
    2  A    between atoms: C_2  and  C_33
    3  A    between atoms: O_8  and  C_13
    4  A    between atoms: O_8  and  C_34
    5  A    between atoms: C_9  and  C_32
    6  A    between atoms: C_11  and  C_33
    7  A    between atoms: C_14  and  C_40
    8  A    between atoms: N_15  and  C_37
    9  A    between atoms: N_19  and  C_32
   10  A    between atoms: N_19  and  C_39
   11  A    between atoms: C_20  and  C_29
   12  A    between atoms: C_20  and  C_32
   13  A    between atoms: C_26  and  C_29
                            x       y       z     vdW  Elec       q    Type
                         _______ _______ _______ _____ _____    ______ ____

>  <TORSDO>
F 13

$$$$
