=
 OpenBabel11042416223D

 38 42  0  0  1  0  0  0  0  0999 V2000
  186.6990  177.1000  144.9460 C   0  0  0  0  0  0  0  0  0  0  0  0
  184.3160  178.1440  146.9920 N   0  0  0  0  0  0  0  0  0  0  0  0
  185.1320  179.0520  143.6430 C   0  0  0  0  0  3  0  0  0  0  0  0
  185.4290  177.3890  145.3150 C   0  0  0  0  0  0  0  0  0  0  0  0
  187.2960  176.6500  146.1410 C   0  0  0  0  0  0  0  0  0  0  0  0
  183.9480  178.8640  145.8840 C   0  0  0  0  0  3  0  0  0  0  0  0
  184.6960  178.3950  144.7990 C   0  0  0  0  0  0  0  0  0  0  0  0
  185.2050  177.2470  146.5880 N   0  0  0  0  0  0  0  0  0  0  0  0
  186.3840  178.6480  143.0990 C   0  0  0  0  0  3  0  0  0  0  0  0
  186.3460  176.8360  147.1750 C   0  0  0  0  0  3  0  0  0  0  0  0
  187.2070  177.6930  143.7680 C   0  0  0  0  0  0  0  0  0  0  0  0
  188.6980  176.2550  146.3690 C   0  0  0  0  0  0  0  0  0  0  0  0
  189.0970  174.9310  146.1490 C   0  0  0  0  0  3  0  0  0  0  0  0
  189.6590  177.2070  146.7300 C   0  0  0  0  0  3  0  0  0  0  0  0
  190.9940  176.8350  146.9020 C   0  0  0  0  0  3  0  0  0  0  0  0
  190.4320  174.5590  146.3210 C   0  0  0  0  0  3  0  0  0  0  0  0
  191.3920  175.5070  146.7060 C   0  0  0  0  0  0  0  0  0  0  0  0
  193.8360  177.0680  145.5310 C   0  0  0  0  0  1  0  0  0  0  0  0
  192.7740  175.1690  146.8900 N   0  0  0  0  0  2  0  0  0  0  0  0
  193.9330  175.8490  146.3840 C   0  0  0  0  0  0  0  0  0  0  0  0
  195.0740  175.4000  146.6610 O   0  0  0  0  0  0  0  0  0  0  0  0
  188.5910  177.4360  143.2680 C   0  0  0  0  0  2  0  0  0  0  0  0
  188.7360  176.0360  142.7500 C   0  0  0  0  0  0  0  0  0  0  0  0
  189.9900  175.3770  142.7180 C   0  0  0  0  0  0  0  0  0  0  0  0
  187.6800  174.0600  141.8080 C   0  0  0  0  0  3  0  0  0  0  0  0
  187.5900  175.3610  142.3040 C   0  0  0  0  0  3  0  0  0  0  0  0
  188.9180  173.4200  141.7540 C   0  0  0  0  0  3  0  0  0  0  0  0
  190.0640  174.0750  142.2110 C   0  0  0  0  0  3  0  0  0  0  0  0
  191.4060  177.4400  142.7580 C   0  0  0  0  0  1  0  0  0  0  0  0
  191.2660  175.9960  143.2140 C   0  0  2  0  0  3  0  0  0  0  0  0
  192.4780  175.1620  142.8270 C   0  0  0  0  0  2  0  0  0  0  0  0
  193.4350  175.9760  142.0990 N   0  0  0  0  0  2  0  0  0  0  0  0
  194.7480  175.3880  142.3130 C   0  0  0  0  0  2  0  0  0  0  0  0
  194.6100  173.5760  142.3810 S   0  0  0  0  0  0  0  0  0  0  0  0
  195.7830  173.4500  143.7640 C   0  0  0  0  0  2  0  0  0  0  0  0
  195.4080  172.2900  144.6630 C   0  0  1  0  0  3  0  0  0  0  0  0
  196.4230  172.1800  145.7800 C   0  0  0  0  0  1  0  0  0  0  0  0
  194.1440  172.5110  145.2130 O   0  0  0  0  0  1  0  0  0  0  0  0
  1  4  1  0  0  0  0
  1  5  1  0  0  0  0
  3  7  1  0  0  0  0
  4  8  1  0  0  0  0
  5 12  1  0  0  0  0
  5 10  2  0  0  0  0
  6  2  2  0  0  0  0
  7  4  2  0  0  0  0
  7  6  1  0  0  0  0
  8  2  1  0  0  0  0
  8 10  1  0  0  0  0
  9  3  2  0  0  0  0
  9 11  1  0  0  0  0
 11  1  2  0  0  0  0
 12 14  1  0  0  0  0
 13 16  1  0  0  0  0
 13 12  2  0  0  0  0
 14 15  2  0  0  0  0
 16 17  2  0  0  0  0
 17 19  1  0  0  0  0
 17 15  1  0  0  0  0
 18 20  1  0  0  0  0
 20 21  2  0  0  0  0
 20 19  1  0  0  0  0
 22 11  1  0  0  0  0
 23 22  1  0  0  0  0
 24 23  1  0  0  0  0
 24 30  1  0  0  0  0
 25 26  1  0  0  0  0
 26 23  2  0  0  0  0
 27 25  2  0  0  0  0
 27 28  1  0  0  0  0
 28 24  2  0  0  0  0
 30 29  1  6  0  0  0
 31 30  1  0  0  0  0
 32 33  1  0  0  0  0
 32 31  1  0  0  0  0
 33 34  1  0  0  0  0
 34 35  1  0  0  0  0
 35 36  1  0  0  0  0
 36 38  1  0  0  0  0
 36 37  1  1  0  0  0
M  END
>  <MODEL>
1

>  <REMARK>
 VINA RESULT:      -7.6      0.000      0.000
  Name = 
  11 active torsions:
  status: ('A' for Active; 'I' for Inactive)
    1  A    between atoms: N_3  and  C_38
    2  A    between atoms: C_4  and  C_12
    3  A    between atoms: C_5  and  C_31
    4  A    between atoms: C_6  and  C_23
    5  A    between atoms: C_7  and  C_14
    6  A    between atoms: C_12  and  S_28
    7  A    between atoms: C_14  and  C_22
    8  A    between atoms: C_22  and  N_34
    9  A    between atoms: C_27  and  S_28
   10  A    between atoms: C_27  and  N_34
   11  A    between atoms: C_31  and  C_37
                            x       y       z     vdW  Elec       q    Type
                         _______ _______ _______ _____ _____    ______ ____

>  <TORSDO>
F 11

$$$$
=
 OpenBabel11042416223D

 38 42  0  0  1  0  0  0  0  0999 V2000
  186.7310  177.1190  144.9260 C   0  0  0  0  0  0  0  0  0  0  0  0
  184.4660  178.1580  147.1030 N   0  0  0  0  0  0  0  0  0  0  0  0
  185.0710  179.0460  143.7050 C   0  0  0  0  0  3  0  0  0  0  0  0
  185.4830  177.3990  145.3680 C   0  0  0  0  0  0  0  0  0  0  0  0
  187.4020  176.6830  146.0860 C   0  0  0  0  0  0  0  0  0  0  0  0
  184.0250  178.8660  146.0140 C   0  0  0  0  0  3  0  0  0  0  0  0
  184.7100  178.3950  144.8890 C   0  0  0  0  0  0  0  0  0  0  0  0
  185.3370  177.2660  146.6530 N   0  0  0  0  0  0  0  0  0  0  0  0
  186.2910  178.6490  143.0890 C   0  0  0  0  0  3  0  0  0  0  0  0
  186.5150  176.8700  147.1740 C   0  0  0  0  0  3  0  0  0  0  0  0
  187.1620  177.7070  143.7150 C   0  0  0  0  0  0  0  0  0  0  0  0
  188.8190  176.3030  146.2320 C   0  0  0  0  0  0  0  0  0  0  0  0
  189.7600  177.2530  146.6520 C   0  0  0  0  0  3  0  0  0  0  0  0
  189.2290  174.9800  146.0320 C   0  0  0  0  0  3  0  0  0  0  0  0
  190.5650  174.6170  146.2130 C   0  0  0  0  0  3  0  0  0  0  0  0
  191.0960  176.8900  146.8340 C   0  0  0  0  0  3  0  0  0  0  0  0
  191.5110  175.5690  146.6100 C   0  0  0  0  0  0  0  0  0  0  0  0
  194.0400  177.0210  145.4750 C   0  0  0  0  0  1  0  0  0  0  0  0
  192.8730  175.1520  146.7890 N   0  0  0  0  0  2  0  0  0  0  0  0
  194.0680  175.7810  146.3000 C   0  0  0  0  0  0  0  0  0  0  0  0
  195.1830  175.2640  146.5690 O   0  0  0  0  0  0  0  0  0  0  0  0
  188.5160  177.4580  143.1340 C   0  0  0  0  0  2  0  0  0  0  0  0
  188.6490  176.0500  142.6380 C   0  0  0  0  0  0  0  0  0  0  0  0
  189.9060  175.3990  142.5630 C   0  0  0  0  0  0  0  0  0  0  0  0
  187.5690  174.0480  141.7820 C   0  0  0  0  0  3  0  0  0  0  0  0
  187.4900  175.3580  142.2560 C   0  0  0  0  0  3  0  0  0  0  0  0
  188.8080  173.4160  141.6860 C   0  0  0  0  0  3  0  0  0  0  0  0
  189.9680  174.0880  142.0790 C   0  0  0  0  0  3  0  0  0  0  0  0
  191.1510  177.5510  142.8490 C   0  0  0  0  0  1  0  0  0  0  0  0
  191.1970  176.0380  142.9900 C   0  0  2  0  0  3  0  0  0  0  0  0
  192.3860  175.4380  142.2540 C   0  0  0  0  0  2  0  0  0  0  0  0
  193.1750  174.6200  143.1590 N   0  0  0  0  0  2  0  0  0  0  0  0
  193.7100  173.5150  142.3800 C   0  0  0  0  0  2  0  0  0  0  0  0
  195.0790  174.1000  141.3360 S   0  0  0  0  0  0  0  0  0  0  0  0
  195.9870  174.7840  142.7540 C   0  0  0  0  0  2  0  0  0  0  0  0
  196.7140  176.0490  142.3490 C   0  0  1  0  0  3  0  0  0  0  0  0
  195.8900  176.7850  141.3140 C   0  0  0  0  0  1  0  0  0  0  0  0
  196.8870  176.8700  143.4640 O   0  0  0  0  0  1  0  0  0  0  0  0
  1  4  1  0  0  0  0
  1  5  1  0  0  0  0
  3  7  1  0  0  0  0
  4  8  1  0  0  0  0
  5 12  1  0  0  0  0
  5 10  2  0  0  0  0
  6  2  2  0  0  0  0
  7  4  2  0  0  0  0
  7  6  1  0  0  0  0
  8  2  1  0  0  0  0
  8 10  1  0  0  0  0
  9  3  2  0  0  0  0
  9 11  1  0  0  0  0
 11  1  2  0  0  0  0
 12 13  1  0  0  0  0
 13 16  2  0  0  0  0
 14 15  1  0  0  0  0
 14 12  2  0  0  0  0
 15 17  2  0  0  0  0
 17 19  1  0  0  0  0
 17 16  1  0  0  0  0
 18 20  1  0  0  0  0
 20 21  2  0  0  0  0
 20 19  1  0  0  0  0
 22 11  1  0  0  0  0
 23 22  1  0  0  0  0
 24 23  1  0  0  0  0
 24 30  1  0  0  0  0
 25 26  1  0  0  0  0
 26 23  2  0  0  0  0
 27 25  2  0  0  0  0
 27 28  1  0  0  0  0
 28 24  2  0  0  0  0
 30 29  1  6  0  0  0
 31 30  1  0  0  0  0
 31 32  1  0  0  0  0
 33 32  1  0  0  0  0
 34 33  1  0  0  0  0
 34 35  1  0  0  0  0
 36 37  1  6  0  0  0
 36 35  1  0  0  0  0
 36 38  1  0  0  0  0
M  END
>  <MODEL>
2

>  <REMARK>
 VINA RESULT:      -7.6      1.111      1.841
  Name = 
  11 active torsions:
  status: ('A' for Active; 'I' for Inactive)
    1  A    between atoms: N_3  and  C_38
    2  A    between atoms: C_4  and  C_12
    3  A    between atoms: C_5  and  C_31
    4  A    between atoms: C_6  and  C_23
    5  A    between atoms: C_7  and  C_14
    6  A    between atoms: C_12  and  S_28
    7  A    between atoms: C_14  and  C_22
    8  A    between atoms: C_22  and  N_34
    9  A    between atoms: C_27  and  S_28
   10  A    between atoms: C_27  and  N_34
   11  A    between atoms: C_31  and  C_37
                            x       y       z     vdW  Elec       q    Type
                         _______ _______ _______ _____ _____    ______ ____

>  <TORSDO>
F 11

$$$$
=
 OpenBabel11042416223D

 38 42  0  0  1  0  0  0  0  0999 V2000
  189.6360  173.4720  141.4530 C   0  0  0  0  0  0  0  0  0  0  0  0
  190.4210  173.2100  138.2490 N   0  0  0  0  0  0  0  0  0  0  0  0
  192.2050  172.3310  141.2060 C   0  0  0  0  0  3  0  0  0  0  0  0
  190.0530  172.8370  140.3340 C   0  0  0  0  0  0  0  0  0  0  0  0
  188.6910  174.4010  140.9730 C   0  0  0  0  0  0  0  0  0  0  0  0
  191.5350  172.6030  138.7700 C   0  0  0  0  0  3  0  0  0  0  0  0
  191.3090  172.3880  140.1340 C   0  0  0  0  0  0  0  0  0  0  0  0
  189.5430  173.3120  139.2360 N   0  0  0  0  0  0  0  0  0  0  0  0
  191.7470  172.8140  142.4640 C   0  0  0  0  0  3  0  0  0  0  0  0
  188.7190  174.3290  139.5590 C   0  0  0  0  0  3  0  0  0  0  0  0
  190.4670  173.4320  142.5970 C   0  0  0  0  0  0  0  0  0  0  0  0
  187.9470  175.4220  141.7330 C   0  0  0  0  0  0  0  0  0  0  0  0
  188.1680  176.7820  141.4800 C   0  0  0  0  0  3  0  0  0  0  0  0
  186.9600  175.0500  142.6540 C   0  0  0  0  0  3  0  0  0  0  0  0
  186.2290  176.0230  143.3390 C   0  0  0  0  0  3  0  0  0  0  0  0
  187.4360  177.7550  142.1650 C   0  0  0  0  0  3  0  0  0  0  0  0
  186.4640  177.3830  143.1060 C   0  0  0  0  0  0  0  0  0  0  0  0
  183.5420  178.2730  142.4230 C   0  0  0  0  0  1  0  0  0  0  0  0
  185.6870  178.3490  143.8290 N   0  0  0  0  0  2  0  0  0  0  0  0
  184.3460  178.7900  143.5670 C   0  0  0  0  0  0  0  0  0  0  0  0
  183.8270  179.6490  144.3250 O   0  0  0  0  0  0  0  0  0  0  0  0
  190.0980  174.0930  143.8850 C   0  0  0  0  0  2  0  0  0  0  0  0
  190.4460  175.5520  143.8720 C   0  0  0  0  0  0  0  0  0  0  0  0
  189.8500  176.4700  144.7720 C   0  0  0  0  0  0  0  0  0  0  0  0
  191.7520  177.3580  142.9040 C   0  0  0  0  0  3  0  0  0  0  0  0
  191.4030  176.0080  142.9540 C   0  0  0  0  0  3  0  0  0  0  0  0
  191.1480  178.2650  143.7730 C   0  0  0  0  0  3  0  0  0  0  0  0
  190.2060  177.8210  144.7040 C   0  0  0  0  0  3  0  0  0  0  0  0
  188.1140  177.2800  146.3820 C   0  0  0  0  0  1  0  0  0  0  0  0
  188.8500  176.0730  145.8210 C   0  0  2  0  0  3  0  0  0  0  0  0
  189.4960  175.2440  146.9210 C   0  0  0  0  0  2  0  0  0  0  0  0
  190.5510  176.0040  147.5680 N   0  0  0  0  0  2  0  0  0  0  0  0
  191.7780  175.2350  147.4310 C   0  0  0  0  0  2  0  0  0  0  0  0
  193.0690  176.2610  146.6660 S   0  0  0  0  0  0  0  0  0  0  0  0
  193.7200  174.8710  145.6920 C   0  0  0  0  0  2  0  0  0  0  0  0
  194.8860  175.3300  144.8400 C   0  0  1  0  0  3  0  0  0  0  0  0
  194.8000  174.6660  143.4840 C   0  0  0  0  0  1  0  0  0  0  0  0
  194.8310  176.7150  144.6770 O   0  0  0  0  0  1  0  0  0  0  0  0
  1 11  1  0  0  0  0
  2  6  2  0  0  0  0
  2  8  1  0  0  0  0
  3  9  1  0  0  0  0
  4  1  2  0  0  0  0
  5  1  1  0  0  0  0
  5 12  1  0  0  0  0
  6  7  1  0  0  0  0
  7  4  1  0  0  0  0
  7  3  2  0  0  0  0
  8 10  1  0  0  0  0
  8  4  1  0  0  0  0
  9 11  2  0  0  0  0
 10  5  2  0  0  0  0
 11 22  1  0  0  0  0
 12 14  1  0  0  0  0
 13 12  2  0  0  0  0
 13 16  1  0  0  0  0
 14 15  2  0  0  0  0
 16 17  2  0  0  0  0
 17 15  1  0  0  0  0
 17 19  1  0  0  0  0
 18 20  1  0  0  0  0
 20 19  1  0  0  0  0
 20 21  2  0  0  0  0
 23 22  1  0  0  0  0
 23 24  1  0  0  0  0
 24 30  1  0  0  0  0
 25 26  1  0  0  0  0
 25 27  2  0  0  0  0
 26 23  2  0  0  0  0
 27 28  1  0  0  0  0
 28 24  2  0  0  0  0
 30 29  1  1  0  0  0
 30 31  1  0  0  0  0
 31 32  1  0  0  0  0
 33 32  1  0  0  0  0
 34 33  1  0  0  0  0
 35 34  1  0  0  0  0
 36 37  1  6  0  0  0
 36 35  1  0  0  0  0
 38 36  1  0  0  0  0
M  END
>  <MODEL>
3

>  <REMARK>
 VINA RESULT:      -7.2      3.043      6.971
  Name = 
  11 active torsions:
  status: ('A' for Active; 'I' for Inactive)
    1  A    between atoms: N_3  and  C_38
    2  A    between atoms: C_4  and  C_12
    3  A    between atoms: C_5  and  C_31
    4  A    between atoms: C_6  and  C_23
    5  A    between atoms: C_7  and  C_14
    6  A    between atoms: C_12  and  S_28
    7  A    between atoms: C_14  and  C_22
    8  A    between atoms: C_22  and  N_34
    9  A    between atoms: C_27  and  S_28
   10  A    between atoms: C_27  and  N_34
   11  A    between atoms: C_31  and  C_37
                            x       y       z     vdW  Elec       q    Type
                         _______ _______ _______ _____ _____    ______ ____

>  <TORSDO>
F 11

$$$$
=
 OpenBabel11042416223D

 38 42  0  0  1  0  0  0  0  0999 V2000
  192.1570  174.8950  144.5130 C   0  0  0  0  0  0  0  0  0  0  0  0
  194.9300  175.6220  146.1670 N   0  0  0  0  0  0  0  0  0  0  0  0
  193.9810  172.7560  144.2730 C   0  0  0  0  0  3  0  0  0  0  0  0
  193.4920  175.0470  144.6760 C   0  0  0  0  0  0  0  0  0  0  0  0
  191.6080  175.9130  145.3200 C   0  0  0  0  0  0  0  0  0  0  0  0
  195.3300  174.4220  145.6380 C   0  0  0  0  0  3  0  0  0  0  0  0
  194.3780  174.0310  144.6900 C   0  0  0  0  0  0  0  0  0  0  0  0
  193.8170  175.9680  145.5340 N   0  0  0  0  0  0  0  0  0  0  0  0
  192.6170  172.5880  143.9020 C   0  0  0  0  0  3  0  0  0  0  0  0
  192.6840  176.5160  146.0150 C   0  0  0  0  0  3  0  0  0  0  0  0
  191.6740  173.6470  144.0570 C   0  0  0  0  0  0  0  0  0  0  0  0
  190.1870  176.1960  145.5900 C   0  0  0  0  0  0  0  0  0  0  0  0
  189.4960  175.4530  146.5570 C   0  0  0  0  0  3  0  0  0  0  0  0
  189.5340  177.2550  144.9480 C   0  0  0  0  0  3  0  0  0  0  0  0
  188.2000  177.5450  145.2410 C   0  0  0  0  0  3  0  0  0  0  0  0
  188.1620  175.7440  146.8500 C   0  0  0  0  0  3  0  0  0  0  0  0
  187.5000  176.7890  146.1890 C   0  0  0  0  0  0  0  0  0  0  0  0
  186.5120  179.1120  148.0390 C   0  0  0  0  0  1  0  0  0  0  0  0
  186.1310  177.1240  146.4620 N   0  0  0  0  0  2  0  0  0  0  0  0
  185.6210  178.1790  147.2930 C   0  0  0  0  0  0  0  0  0  0  0  0
  184.3770  178.3200  147.4030 O   0  0  0  0  0  0  0  0  0  0  0  0
  190.2210  173.3780  143.8360 C   0  0  0  0  0  2  0  0  0  0  0  0
  189.9140  173.1850  142.3810 C   0  0  0  0  0  0  0  0  0  0  0  0
  189.0600  174.0670  141.6740 C   0  0  0  0  0  0  0  0  0  0  0  0
  190.2440  171.8890  140.3520 C   0  0  0  0  0  3  0  0  0  0  0  0
  190.5070  172.1090  141.7040 C   0  0  0  0  0  3  0  0  0  0  0  0
  189.3850  172.7430  139.6620 C   0  0  0  0  0  3  0  0  0  0  0  0
  188.8010  173.8280  140.3200 C   0  0  0  0  0  3  0  0  0  0  0  0
  187.0650  174.9320  142.9130 C   0  0  0  0  0  1  0  0  0  0  0  0
  188.4130  175.2730  142.2960 C   0  0  2  0  0  3  0  0  0  0  0  0
  188.3070  176.4220  141.3050 C   0  0  0  0  0  2  0  0  0  0  0  0
  187.2640  177.3450  141.7180 N   0  0  0  0  0  2  0  0  0  0  0  0
  186.4120  177.5730  140.5610 C   0  0  0  0  0  2  0  0  0  0  0  0
  184.8570  178.3550  141.0830 S   0  0  0  0  0  0  0  0  0  0  0  0
  184.9160  177.5820  142.7270 C   0  0  0  0  0  2  0  0  0  0  0  0
  184.4290  178.5550  143.7810 C   0  0  1  0  0  3  0  0  0  0  0  0
  185.4150  179.6980  143.8930 C   0  0  0  0  0  1  0  0  0  0  0  0
  183.1810  179.0600  143.4130 O   0  0  0  0  0  1  0  0  0  0  0  0
  1  4  1  0  0  0  0
  1  5  1  0  0  0  0
  3  7  1  0  0  0  0
  4  7  2  0  0  0  0
  4  8  1  0  0  0  0
  5 12  1  0  0  0  0
  5 10  2  0  0  0  0
  6  2  2  0  0  0  0
  7  6  1  0  0  0  0
  8 10  1  0  0  0  0
  8  2  1  0  0  0  0
  9 11  1  0  0  0  0
  9  3  2  0  0  0  0
 11  1  2  0  0  0  0
 12 13  1  0  0  0  0
 13 16  2  0  0  0  0
 14 15  1  0  0  0  0
 14 12  2  0  0  0  0
 15 17  2  0  0  0  0
 17 19  1  0  0  0  0
 17 16  1  0  0  0  0
 19 20  1  0  0  0  0
 20 21  2  0  0  0  0
 20 18  1  0  0  0  0
 22 11  1  0  0  0  0
 23 22  1  0  0  0  0
 24 30  1  0  0  0  0
 24 23  2  0  0  0  0
 25 26  2  0  0  0  0
 26 23  1  0  0  0  0
 27 28  2  0  0  0  0
 27 25  1  0  0  0  0
 28 24  1  0  0  0  0
 30 29  1  6  0  0  0
 31 32  1  0  0  0  0
 31 30  1  0  0  0  0
 33 34  1  0  0  0  0
 33 32  1  0  0  0  0
 34 35  1  0  0  0  0
 35 36  1  0  0  0  0
 36 37  1  6  0  0  0
 38 36  1  0  0  0  0
M  END
>  <MODEL>
4

>  <REMARK>
 VINA RESULT:      -7.2      3.753      7.648
  Name = 
  11 active torsions:
  status: ('A' for Active; 'I' for Inactive)
    1  A    between atoms: N_3  and  C_38
    2  A    between atoms: C_4  and  C_12
    3  A    between atoms: C_5  and  C_31
    4  A    between atoms: C_6  and  C_23
    5  A    between atoms: C_7  and  C_14
    6  A    between atoms: C_12  and  S_28
    7  A    between atoms: C_14  and  C_22
    8  A    between atoms: C_22  and  N_34
    9  A    between atoms: C_27  and  S_28
   10  A    between atoms: C_27  and  N_34
   11  A    between atoms: C_31  and  C_37
                            x       y       z     vdW  Elec       q    Type
                         _______ _______ _______ _____ _____    ______ ____

>  <TORSDO>
F 11

$$$$
=
 OpenBabel11042416223D

 38 42  0  0  1  0  0  0  0  0999 V2000
  194.0040  173.1620  144.9840 C   0  0  0  0  0  0  0  0  0  0  0  0
  196.0960  170.6010  144.8470 N   0  0  0  0  0  0  0  0  0  0  0  0
  196.4990  173.9310  146.0520 C   0  0  0  0  0  3  0  0  0  0  0  0
  194.8980  172.2730  145.4750 C   0  0  0  0  0  0  0  0  0  0  0  0
  193.2960  172.4190  144.0180 C   0  0  0  0  0  0  0  0  0  0  0  0
  196.9170  171.4860  145.4980 C   0  0  0  0  0  3  0  0  0  0  0  0
  196.1450  172.5890  145.8780 C   0  0  0  0  0  0  0  0  0  0  0  0
  194.8750  171.1180  144.8770 N   0  0  0  0  0  0  0  0  0  0  0  0
  195.5180  174.9100  145.7310 C   0  0  0  0  0  3  0  0  0  0  0  0
  193.9300  171.1570  143.9180 C   0  0  0  0  0  3  0  0  0  0  0  0
  194.2680  174.5410  145.1510 C   0  0  0  0  0  0  0  0  0  0  0  0
  192.2350  172.8850  143.1060 C   0  0  0  0  0  0  0  0  0  0  0  0
  190.8940  172.8340  143.5080 C   0  0  0  0  0  3  0  0  0  0  0  0
  192.5540  173.4530  141.8670 C   0  0  0  0  0  3  0  0  0  0  0  0
  191.5470  173.9310  141.0270 C   0  0  0  0  0  3  0  0  0  0  0  0
  189.8860  173.3130  142.6680 C   0  0  0  0  0  3  0  0  0  0  0  0
  190.2040  173.8600  141.4160 C   0  0  0  0  0  0  0  0  0  0  0  0
  189.1940  172.4610  138.8060 C   0  0  0  0  0  1  0  0  0  0  0  0
  189.2010  174.3670  140.5230 N   0  0  0  0  0  2  0  0  0  0  0  0
  188.6950  173.7680  139.3210 C   0  0  0  0  0  0  0  0  0  0  0  0
  187.8020  174.3680  138.6700 O   0  0  0  0  0  0  0  0  0  0  0  0
  193.3430  175.6040  144.6560 C   0  0  0  0  0  2  0  0  0  0  0  0
  192.1230  175.7170  145.5200 C   0  0  0  0  0  0  0  0  0  0  0  0
  190.9270  176.3150  145.0500 C   0  0  0  0  0  0  0  0  0  0  0  0
  191.0600  175.2870  147.6630 C   0  0  0  0  0  3  0  0  0  0  0  0
  192.1700  175.1980  146.8220 C   0  0  0  0  0  3  0  0  0  0  0  0
  189.8910  175.8970  147.2090 C   0  0  0  0  0  3  0  0  0  0  0  0
  189.8250  176.4030  145.9090 C   0  0  0  0  0  3  0  0  0  0  0  0
  191.3560  178.2520  143.5250 C   0  0  0  0  0  1  0  0  0  0  0  0
  190.7610  176.8590  143.6590 C   0  0  2  0  0  3  0  0  0  0  0  0
  189.3070  176.8210  143.2160 C   0  0  0  0  0  2  0  0  0  0  0  0
  189.0330  177.9140  142.2990 N   0  0  0  0  0  2  0  0  0  0  0  0
  187.6200  177.8490  141.9650 C   0  0  0  0  0  2  0  0  0  0  0  0
  186.8250  176.5060  142.8980 S   0  0  0  0  0  0  0  0  0  0  0  0
  185.2920  177.4550  143.1310 C   0  0  0  0  0  2  0  0  0  0  0  0
  185.2410  178.0290  144.5330 C   0  0  1  0  0  3  0  0  0  0  0  0
  186.1850  177.2490  145.4220 C   0  0  0  0  0  1  0  0  0  0  0  0
  185.6360  179.3670  144.5070 O   0  0  0  0  0  1  0  0  0  0  0  0
  1 11  2  0  0  0  0
  1  4  1  0  0  0  0
  2  8  1  0  0  0  0
  2  6  2  0  0  0  0
  4  7  2  0  0  0  0
  5  1  1  0  0  0  0
  6  7  1  0  0  0  0
  7  3  1  0  0  0  0
  8  4  1  0  0  0  0
  9  3  2  0  0  0  0
 10  5  2  0  0  0  0
 10  8  1  0  0  0  0
 11  9  1  0  0  0  0
 12 13  1  0  0  0  0
 12  5  1  0  0  0  0
 14 12  2  0  0  0  0
 15 17  2  0  0  0  0
 15 14  1  0  0  0  0
 16 13  2  0  0  0  0
 17 16  1  0  0  0  0
 18 20  1  0  0  0  0
 19 17  1  0  0  0  0
 20 19  1  0  0  0  0
 21 20  2  0  0  0  0
 22 11  1  0  0  0  0
 22 23  1  0  0  0  0
 23 26  1  0  0  0  0
 24 23  2  0  0  0  0
 24 28  1  0  0  0  0
 26 25  2  0  0  0  0
 27 25  1  0  0  0  0
 28 27  2  0  0  0  0
 30 29  1  1  0  0  0
 30 24  1  0  0  0  0
 31 30  1  0  0  0  0
 32 31  1  0  0  0  0
 33 32  1  0  0  0  0
 33 34  1  0  0  0  0
 34 35  1  0  0  0  0
 35 36  1  0  0  0  0
 36 37  1  1  0  0  0
 38 36  1  0  0  0  0
M  END
>  <MODEL>
5

>  <REMARK>
 VINA RESULT:      -7.1      3.505      8.581
  Name = 
  11 active torsions:
  status: ('A' for Active; 'I' for Inactive)
    1  A    between atoms: N_3  and  C_38
    2  A    between atoms: C_4  and  C_12
    3  A    between atoms: C_5  and  C_31
    4  A    between atoms: C_6  and  C_23
    5  A    between atoms: C_7  and  C_14
    6  A    between atoms: C_12  and  S_28
    7  A    between atoms: C_14  and  C_22
    8  A    between atoms: C_22  and  N_34
    9  A    between atoms: C_27  and  S_28
   10  A    between atoms: C_27  and  N_34
   11  A    between atoms: C_31  and  C_37
                            x       y       z     vdW  Elec       q    Type
                         _______ _______ _______ _____ _____    ______ ____

>  <TORSDO>
F 11

$$$$
=
 OpenBabel11042416223D

 38 42  0  0  1  0  0  0  0  0999 V2000
  187.3750  177.4010  145.0100 C   0  0  0  0  0  0  0  0  0  0  0  0
  184.8450  179.3550  144.1550 N   0  0  0  0  0  0  0  0  0  0  0  0
  185.7040  177.8050  147.2470 C   0  0  0  0  0  3  0  0  0  0  0  0
  186.5440  178.4630  145.1240 C   0  0  0  0  0  0  0  0  0  0  0  0
  187.4820  177.2120  143.6170 C   0  0  0  0  0  0  0  0  0  0  0  0
  184.5530  179.2350  145.4900 C   0  0  0  0  0  3  0  0  0  0  0  0
  185.6460  178.6250  146.1160 C   0  0  0  0  0  0  0  0  0  0  0  0
  186.0750  178.8890  143.9890 N   0  0  0  0  0  0  0  0  0  0  0  0
  186.6970  176.7850  147.2620 C   0  0  0  0  0  3  0  0  0  0  0  0
  186.5810  178.1170  143.0060 C   0  0  0  0  0  3  0  0  0  0  0  0
  187.5210  176.5410  146.1230 C   0  0  0  0  0  0  0  0  0  0  0  0
  188.2090  176.1540  142.8930 C   0  0  0  0  0  0  0  0  0  0  0  0
  187.5150  175.0450  142.3910 C   0  0  0  0  0  3  0  0  0  0  0  0
  189.5780  176.2780  142.6280 C   0  0  0  0  0  3  0  0  0  0  0  0
  190.2510  175.2920  141.9040 C   0  0  0  0  0  3  0  0  0  0  0  0
  188.1880  174.0590  141.6670 C   0  0  0  0  0  3  0  0  0  0  0  0
  189.5650  174.1720  141.4220 C   0  0  0  0  0  0  0  0  0  0  0  0
  190.1040  171.2240  142.3220 C   0  0  0  0  0  1  0  0  0  0  0  0
  190.2950  173.1850  140.6790 N   0  0  0  0  0  2  0  0  0  0  0  0
  190.5660  171.8210  141.0370 C   0  0  0  0  0  0  0  0  0  0  0  0
  191.2250  171.1010  140.2440 O   0  0  0  0  0  0  0  0  0  0  0  0
  188.4180  175.3460  146.1060 C   0  0  0  0  0  2  0  0  0  0  0  0
  189.8130  175.7010  146.5280 C   0  0  0  0  0  0  0  0  0  0  0  0
  190.9440  175.0160  146.0190 C   0  0  0  0  0  0  0  0  0  0  0  0
  191.2740  177.1130  147.8600 C   0  0  0  0  0  3  0  0  0  0  0  0
  189.9950  176.7530  147.4360 C   0  0  0  0  0  3  0  0  0  0  0  0
  192.3860  176.4230  147.3780 C   0  0  0  0  0  3  0  0  0  0  0  0
  192.2210  175.3850  146.4590 C   0  0  0  0  0  3  0  0  0  0  0  0
  189.8140  172.8720  145.3970 C   0  0  0  0  0  1  0  0  0  0  0  0
  190.8580  173.9070  145.0080 C   0  0  2  0  0  3  0  0  0  0  0  0
  192.2180  173.2720  144.7610 C   0  0  0  0  0  2  0  0  0  0  0  0
  192.6950  173.6100  143.4300 N   0  0  0  0  0  2  0  0  0  0  0  0
  193.8600  172.7810  143.1690 C   0  0  0  0  0  2  0  0  0  0  0  0
  195.2050  173.2280  144.3070 S   0  0  0  0  0  0  0  0  0  0  0  0
  195.8330  174.5230  143.1960 C   0  0  0  0  0  2  0  0  0  0  0  0
  195.9590  175.8360  143.9410 C   0  0  1  0  0  3  0  0  0  0  0  0
  196.8230  176.7820  143.1350 C   0  0  0  0  0  1  0  0  0  0  0  0
  194.6950  176.4020  144.1120 O   0  0  0  0  0  1  0  0  0  0  0  0
  1  4  2  0  0  0  0
  1 11  1  0  0  0  0
  2  6  2  0  0  0  0
  3  9  1  0  0  0  0
  4  7  1  0  0  0  0
  5  1  1  0  0  0  0
  6  7  1  0  0  0  0
  7  3  2  0  0  0  0
  8  2  1  0  0  0  0
  8  4  1  0  0  0  0
 10  5  2  0  0  0  0
 10  8  1  0  0  0  0
 11  9  2  0  0  0  0
 12  5  1  0  0  0  0
 13 12  2  0  0  0  0
 14 12  1  0  0  0  0
 15 14  2  0  0  0  0
 16 13  1  0  0  0  0
 17 16  2  0  0  0  0
 17 15  1  0  0  0  0
 19 20  1  0  0  0  0
 19 17  1  0  0  0  0
 20 18  1  0  0  0  0
 21 20  2  0  0  0  0
 22 11  1  0  0  0  0
 22 23  1  0  0  0  0
 23 26  1  0  0  0  0
 24 28  1  0  0  0  0
 24 23  2  0  0  0  0
 26 25  2  0  0  0  0
 27 25  1  0  0  0  0
 28 27  2  0  0  0  0
 30 29  1  1  0  0  0
 30 24  1  0  0  0  0
 31 30  1  0  0  0  0
 32 31  1  0  0  0  0
 33 32  1  0  0  0  0
 33 34  1  0  0  0  0
 35 36  1  0  0  0  0
 35 34  1  0  0  0  0
 36 37  1  6  0  0  0
 36 38  1  0  0  0  0
M  END
>  <MODEL>
6

>  <REMARK>
 VINA RESULT:      -7.0      2.026      4.596
  Name = 
  11 active torsions:
  status: ('A' for Active; 'I' for Inactive)
    1  A    between atoms: N_3  and  C_38
    2  A    between atoms: C_4  and  C_12
    3  A    between atoms: C_5  and  C_31
    4  A    between atoms: C_6  and  C_23
    5  A    between atoms: C_7  and  C_14
    6  A    between atoms: C_12  and  S_28
    7  A    between atoms: C_14  and  C_22
    8  A    between atoms: C_22  and  N_34
    9  A    between atoms: C_27  and  S_28
   10  A    between atoms: C_27  and  N_34
   11  A    between atoms: C_31  and  C_37
                            x       y       z     vdW  Elec       q    Type
                         _______ _______ _______ _____ _____    ______ ____

>  <TORSDO>
F 11

$$$$
=
 OpenBabel11042416223D

 38 42  0  0  1  0  0  0  0  0999 V2000
  186.8850  177.5330  144.4380 C   0  0  0  0  0  0  0  0  0  0  0  0
  183.8480  178.8270  144.2020 N   0  0  0  0  0  0  0  0  0  0  0  0
  185.9920  178.3040  147.0000 C   0  0  0  0  0  3  0  0  0  0  0  0
  185.9240  178.4650  144.6310 C   0  0  0  0  0  0  0  0  0  0  0  0
  186.5690  176.9890  143.1760 C   0  0  0  0  0  0  0  0  0  0  0  0
  184.0430  179.0360  145.5430 C   0  0  0  0  0  3  0  0  0  0  0  0
  185.3860  178.7700  145.8290 C   0  0  0  0  0  0  0  0  0  0  0  0
  185.0270  178.5000  143.6900 N   0  0  0  0  0  0  0  0  0  0  0  0
  187.1350  177.4680  146.8550 C   0  0  0  0  0  3  0  0  0  0  0  0
  185.3400  177.5650  142.7720 C   0  0  0  0  0  3  0  0  0  0  0  0
  187.5740  177.0350  145.5680 C   0  0  0  0  0  0  0  0  0  0  0  0
  187.2330  175.8800  142.4680 C   0  0  0  0  0  0  0  0  0  0  0  0
  188.1920  176.1510  141.4830 C   0  0  0  0  0  3  0  0  0  0  0  0
  186.9770  174.5500  142.8220 C   0  0  0  0  0  3  0  0  0  0  0  0
  187.6420  173.5050  142.1760 C   0  0  0  0  0  3  0  0  0  0  0  0
  188.8570  175.1070  140.8380 C   0  0  0  0  0  3  0  0  0  0  0  0
  188.5830  173.7730  141.1760 C   0  0  0  0  0  0  0  0  0  0  0  0
  188.4290  173.0400  138.1370 C   0  0  0  0  0  1  0  0  0  0  0  0
  189.2460  172.6690  140.5410 N   0  0  0  0  0  2  0  0  0  0  0  0
  189.2170  172.2900  139.1560 C   0  0  0  0  0  0  0  0  0  0  0  0
  189.8750  171.2850  138.7850 O   0  0  0  0  0  0  0  0  0  0  0  0
  188.6570  176.0110  145.4650 C   0  0  0  0  0  2  0  0  0  0  0  0
  189.8090  176.5120  144.6470 C   0  0  0  0  0  0  0  0  0  0  0  0
  190.7300  175.6270  144.0330 C   0  0  0  0  0  0  0  0  0  0  0  0
  191.0250  178.4050  143.7270 C   0  0  0  0  0  3  0  0  0  0  0  0
  189.9630  177.8950  144.4750 C   0  0  0  0  0  3  0  0  0  0  0  0
  191.9450  177.5350  143.1430 C   0  0  0  0  0  3  0  0  0  0  0  0
  191.7940  176.1540  143.2920 C   0  0  0  0  0  3  0  0  0  0  0  0
  190.3040  173.6690  145.5320 C   0  0  0  0  0  1  0  0  0  0  0  0
  190.6270  174.1300  144.1200 C   0  0  2  0  0  3  0  0  0  0  0  0
  191.8760  173.4530  143.5760 C   0  0  0  0  0  2  0  0  0  0  0  0
  192.4140  172.5280  144.5600 N   0  0  0  0  0  2  0  0  0  0  0  0
  193.8210  172.3410  144.2460 C   0  0  0  0  0  2  0  0  0  0  0  0
  194.6130  173.9530  143.9700 S   0  0  0  0  0  0  0  0  0  0  0  0
  194.9440  174.1940  145.7420 C   0  0  0  0  0  2  0  0  0  0  0  0
  194.6090  175.6150  146.1480 C   0  0  1  0  0  3  0  0  0  0  0  0
  194.9540  176.5500  145.0090 C   0  0  0  0  0  1  0  0  0  0  0  0
  193.2450  175.7150  146.4250 O   0  0  0  0  0  1  0  0  0  0  0  0
  1  4  2  0  0  0  0
  1 11  1  0  0  0  0
  2  6  2  0  0  0  0
  4  7  1  0  0  0  0
  5  1  1  0  0  0  0
  6  7  1  0  0  0  0
  7  3  2  0  0  0  0
  8  2  1  0  0  0  0
  8  4  1  0  0  0  0
  9  3  1  0  0  0  0
 10  5  2  0  0  0  0
 10  8  1  0  0  0  0
 11  9  2  0  0  0  0
 12 14  1  0  0  0  0
 12  5  1  0  0  0  0
 13 12  2  0  0  0  0
 15 14  2  0  0  0  0
 16 17  2  0  0  0  0
 16 13  1  0  0  0  0
 17 15  1  0  0  0  0
 18 20  1  0  0  0  0
 19 17  1  0  0  0  0
 20 19  1  0  0  0  0
 21 20  2  0  0  0  0
 22 11  1  0  0  0  0
 23 22  1  0  0  0  0
 24 30  1  0  0  0  0
 24 23  2  0  0  0  0
 25 26  2  0  0  0  0
 26 23  1  0  0  0  0
 27 28  2  0  0  0  0
 27 25  1  0  0  0  0
 28 24  1  0  0  0  0
 30 29  1  1  0  0  0
 31 30  1  0  0  0  0
 31 32  1  0  0  0  0
 33 32  1  0  0  0  0
 34 33  1  0  0  0  0
 34 35  1  0  0  0  0
 35 36  1  0  0  0  0
 36 37  1  6  0  0  0
 36 38  1  0  0  0  0
M  END
>  <MODEL>
7

>  <REMARK>
 VINA RESULT:      -7.0      2.300      4.729
  Name = 
  11 active torsions:
  status: ('A' for Active; 'I' for Inactive)
    1  A    between atoms: N_3  and  C_38
    2  A    between atoms: C_4  and  C_12
    3  A    between atoms: C_5  and  C_31
    4  A    between atoms: C_6  and  C_23
    5  A    between atoms: C_7  and  C_14
    6  A    between atoms: C_12  and  S_28
    7  A    between atoms: C_14  and  C_22
    8  A    between atoms: C_22  and  N_34
    9  A    between atoms: C_27  and  S_28
   10  A    between atoms: C_27  and  N_34
   11  A    between atoms: C_31  and  C_37
                            x       y       z     vdW  Elec       q    Type
                         _______ _______ _______ _____ _____    ______ ____

>  <TORSDO>
F 11

$$$$
=
 OpenBabel11042416223D

 38 42  0  0  1  0  0  0  0  0999 V2000
  193.0040  175.9460  144.1340 C   0  0  0  0  0  0  0  0  0  0  0  0
  195.2310  175.3430  146.5070 N   0  0  0  0  0  0  0  0  0  0  0  0
  195.0670  174.3250  143.0960 C   0  0  0  0  0  3  0  0  0  0  0  0
  194.2420  175.8930  144.6790 C   0  0  0  0  0  0  0  0  0  0  0  0
  192.1750  176.2700  145.2270 C   0  0  0  0  0  0  0  0  0  0  0  0
  195.8740  174.7110  145.4740 C   0  0  0  0  0  3  0  0  0  0  0  0
  195.2120  175.0430  144.2880 C   0  0  0  0  0  0  0  0  0  0  0  0
  194.2580  176.0640  145.9680 N   0  0  0  0  0  0  0  0  0  0  0  0
  193.8510  174.4960  142.3770 C   0  0  0  0  0  3  0  0  0  0  0  0
  192.9900  176.2540  146.3850 C   0  0  0  0  0  3  0  0  0  0  0  0
  192.7820  175.2780  142.9080 C   0  0  0  0  0  0  0  0  0  0  0  0
  190.7070  176.3990  145.2530 C   0  0  0  0  0  0  0  0  0  0  0  0
  189.9340  175.4610  145.9490 C   0  0  0  0  0  3  0  0  0  0  0  0
  190.0740  177.4950  144.6530 C   0  0  0  0  0  3  0  0  0  0  0  0
  188.6860  177.6330  144.7180 C   0  0  0  0  0  3  0  0  0  0  0  0
  188.5460  175.5990  146.0140 C   0  0  0  0  0  3  0  0  0  0  0  0
  187.9090  176.6850  145.3930 C   0  0  0  0  0  0  0  0  0  0  0  0
  186.3010  178.0090  147.7280 C   0  0  0  0  0  1  0  0  0  0  0  0
  186.4860  176.8670  145.4380 N   0  0  0  0  0  2  0  0  0  0  0  0
  185.6990  177.4720  146.4750 C   0  0  0  0  0  0  0  0  0  0  0  0
  184.4520  177.5480  146.3290 O   0  0  0  0  0  0  0  0  0  0  0  0
  191.4570  175.2810  142.2180 C   0  0  0  0  0  2  0  0  0  0  0  0
  190.6120  174.1190  142.6480 C   0  0  0  0  0  0  0  0  0  0  0  0
  189.2660  173.9770  142.2260 C   0  0  0  0  0  0  0  0  0  0  0  0
  190.4290  172.0480  143.9060 C   0  0  0  0  0  3  0  0  0  0  0  0
  191.1810  173.1420  143.4760 C   0  0  0  0  0  3  0  0  0  0  0  0
  189.0980  171.9210  143.5100 C   0  0  0  0  0  3  0  0  0  0  0  0
  188.5230  172.8780  142.6710 C   0  0  0  0  0  3  0  0  0  0  0  0
  187.3800  175.6010  141.9690 C   0  0  0  0  0  1  0  0  0  0  0  0
  188.5790  174.9450  141.3040 C   0  0  2  0  0  3  0  0  0  0  0  0
  188.2040  174.2860  139.9850 C   0  0  0  0  0  2  0  0  0  0  0  0
  189.3950  173.8010  139.3090 N   0  0  0  0  0  2  0  0  0  0  0  0
  188.9700  172.7630  138.3840 C   0  0  0  0  0  2  0  0  0  0  0  0
  190.2490  171.4760  138.2690 S   0  0  0  0  0  0  0  0  0  0  0  0
  190.4170  171.3570  140.0750 C   0  0  0  0  0  2  0  0  0  0  0  0
  191.3590  170.2260  140.4390 C   0  0  1  0  0  3  0  0  0  0  0  0
  192.6550  170.8090  140.9580 C   0  0  0  0  0  1  0  0  0  0  0  0
  190.7810  169.4360  141.4330 O   0  0  0  0  0  1  0  0  0  0  0  0
  1  4  1  0  0  0  0
  1  5  1  0  0  0  0
  3  7  1  0  0  0  0
  4  8  1  0  0  0  0
  5 12  1  0  0  0  0
  5 10  2  0  0  0  0
  6  2  2  0  0  0  0
  7  4  2  0  0  0  0
  7  6  1  0  0  0  0
  8 10  1  0  0  0  0
  8  2  1  0  0  0  0
  9 11  1  0  0  0  0
  9  3  2  0  0  0  0
 11  1  2  0  0  0  0
 12 13  1  0  0  0  0
 13 16  2  0  0  0  0
 14 15  1  0  0  0  0
 14 12  2  0  0  0  0
 15 17  2  0  0  0  0
 17 19  1  0  0  0  0
 17 16  1  0  0  0  0
 19 20  1  0  0  0  0
 20 18  1  0  0  0  0
 21 20  2  0  0  0  0
 22 23  1  0  0  0  0
 22 11  1  0  0  0  0
 23 26  1  0  0  0  0
 24 23  2  0  0  0  0
 24 28  1  0  0  0  0
 26 25  2  0  0  0  0
 27 25  1  0  0  0  0
 28 27  2  0  0  0  0
 30 29  1  1  0  0  0
 30 24  1  0  0  0  0
 31 30  1  0  0  0  0
 32 31  1  0  0  0  0
 33 32  1  0  0  0  0
 34 33  1  0  0  0  0
 34 35  1  0  0  0  0
 35 36  1  0  0  0  0
 36 37  1  1  0  0  0
 36 38  1  0  0  0  0
M  END
>  <MODEL>
8

>  <REMARK>
 VINA RESULT:      -6.9      3.052      6.621
  Name = 
  11 active torsions:
  status: ('A' for Active; 'I' for Inactive)
    1  A    between atoms: N_3  and  C_38
    2  A    between atoms: C_4  and  C_12
    3  A    between atoms: C_5  and  C_31
    4  A    between atoms: C_6  and  C_23
    5  A    between atoms: C_7  and  C_14
    6  A    between atoms: C_12  and  S_28
    7  A    between atoms: C_14  and  C_22
    8  A    between atoms: C_22  and  N_34
    9  A    between atoms: C_27  and  S_28
   10  A    between atoms: C_27  and  N_34
   11  A    between atoms: C_31  and  C_37
                            x       y       z     vdW  Elec       q    Type
                         _______ _______ _______ _____ _____    ______ ____

>  <TORSDO>
F 11

$$$$
=
 OpenBabel11042416223D

 38 42  0  0  1  0  0  0  0  0999 V2000
  187.4980  177.3480  144.8050 C   0  0  0  0  0  0  0  0  0  0  0  0
  185.1110  179.4390  143.8650 N   0  0  0  0  0  0  0  0  0  0  0  0
  185.8380  177.9290  147.0110 C   0  0  0  0  0  3  0  0  0  0  0  0
  186.7390  178.4650  144.8780 C   0  0  0  0  0  0  0  0  0  0  0  0
  187.6050  177.1110  143.4200 C   0  0  0  0  0  0  0  0  0  0  0  0
  184.8000  179.3780  145.1990 C   0  0  0  0  0  3  0  0  0  0  0  0
  185.8440  178.7170  145.8550 C   0  0  0  0  0  0  0  0  0  0  0  0
  186.3090  178.8870  143.7260 N   0  0  0  0  0  0  0  0  0  0  0  0
  186.7600  176.8470  147.0660 C   0  0  0  0  0  3  0  0  0  0  0  0
  186.7710  178.0540  142.7720 C   0  0  0  0  0  3  0  0  0  0  0  0
  187.5770  176.5140  145.9440 C   0  0  0  0  0  0  0  0  0  0  0  0
  188.2660  175.9850  142.7340 C   0  0  0  0  0  0  0  0  0  0  0  0
  189.6430  176.0290  142.4840 C   0  0  0  0  0  3  0  0  0  0  0  0
  187.5470  174.8320  142.3980 C   0  0  0  0  0  3  0  0  0  0  0  0
  188.1890  173.7520  141.7870 C   0  0  0  0  0  3  0  0  0  0  0  0
  190.2840  174.9490  141.8740 C   0  0  0  0  0  3  0  0  0  0  0  0
  189.5600  173.8020  141.5150 C   0  0  0  0  0  0  0  0  0  0  0  0
  190.0190  173.4220  138.4430 C   0  0  0  0  0  1  0  0  0  0  0  0
  190.1800  172.6680  140.8900 N   0  0  0  0  0  2  0  0  0  0  0  0
  190.4230  172.4440  139.4920 C   0  0  0  0  0  0  0  0  0  0  0  0
  190.9900  171.3800  139.1350 O   0  0  0  0  0  0  0  0  0  0  0  0
  188.3930  175.2630  145.9730 C   0  0  0  0  0  2  0  0  0  0  0  0
  189.8050  175.5380  146.3940 C   0  0  0  0  0  0  0  0  0  0  0  0
  190.8920  174.7660  145.9130 C   0  0  0  0  0  0  0  0  0  0  0  0
  191.3480  176.8890  147.6970 C   0  0  0  0  0  3  0  0  0  0  0  0
  190.0500  176.6020  147.2740 C   0  0  0  0  0  3  0  0  0  0  0  0
  192.4150  176.1150  147.2430 C   0  0  0  0  0  3  0  0  0  0  0  0
  192.1870  175.0630  146.3530 C   0  0  0  0  0  3  0  0  0  0  0  0
  189.6910  172.6340  145.3910 C   0  0  0  0  0  1  0  0  0  0  0  0
  190.7390  173.6360  144.9340 C   0  0  2  0  0  3  0  0  0  0  0  0
  192.0740  172.9660  144.6450 C   0  0  0  0  0  2  0  0  0  0  0  0
  191.8620  171.7070  143.9510 N   0  0  0  0  0  2  0  0  0  0  0  0
  193.1140  170.9690  144.0130 C   0  0  0  0  0  2  0  0  0  0  0  0
  194.2460  171.7700  145.1880 S   0  0  0  0  0  0  0  0  0  0  0  0
  195.3690  170.3400  145.2170 C   0  0  0  0  0  2  0  0  0  0  0  0
  196.8030  170.8040  145.3730 C   0  0  1  0  0  3  0  0  0  0  0  0
  196.8160  172.1420  146.0790 C   0  0  0  0  0  1  0  0  0  0  0  0
  197.5160  169.8770  146.1350 O   0  0  0  0  0  1  0  0  0  0  0  0
  1  4  2  0  0  0  0
  1 11  1  0  0  0  0
  2  6  2  0  0  0  0
  3  9  1  0  0  0  0
  4  7  1  0  0  0  0
  5  1  1  0  0  0  0
  6  7  1  0  0  0  0
  7  3  2  0  0  0  0
  8  2  1  0  0  0  0
  8  4  1  0  0  0  0
 10  5  2  0  0  0  0
 10  8  1  0  0  0  0
 11 22  1  0  0  0  0
 11  9  2  0  0  0  0
 12  5  1  0  0  0  0
 13 12  1  0  0  0  0
 14 12  2  0  0  0  0
 15 14  1  0  0  0  0
 16 13  2  0  0  0  0
 17 15  2  0  0  0  0
 17 16  1  0  0  0  0
 18 20  1  0  0  0  0
 19 17  1  0  0  0  0
 20 19  1  0  0  0  0
 21 20  2  0  0  0  0
 22 23  1  0  0  0  0
 23 26  1  0  0  0  0
 24 28  1  0  0  0  0
 24 23  2  0  0  0  0
 26 25  2  0  0  0  0
 27 25  1  0  0  0  0
 28 27  2  0  0  0  0
 30 29  1  1  0  0  0
 30 24  1  0  0  0  0
 31 30  1  0  0  0  0
 32 33  1  0  0  0  0
 32 31  1  0  0  0  0
 33 34  1  0  0  0  0
 34 35  1  0  0  0  0
 35 36  1  0  0  0  0
 36 37  1  1  0  0  0
 36 38  1  0  0  0  0
M  END
>  <MODEL>
9

>  <REMARK>
 VINA RESULT:      -6.8      2.384      4.830
  Name = 
  11 active torsions:
  status: ('A' for Active; 'I' for Inactive)
    1  A    between atoms: N_3  and  C_38
    2  A    between atoms: C_4  and  C_12
    3  A    between atoms: C_5  and  C_31
    4  A    between atoms: C_6  and  C_23
    5  A    between atoms: C_7  and  C_14
    6  A    between atoms: C_12  and  S_28
    7  A    between atoms: C_14  and  C_22
    8  A    between atoms: C_22  and  N_34
    9  A    between atoms: C_27  and  S_28
   10  A    between atoms: C_27  and  N_34
   11  A    between atoms: C_31  and  C_37
                            x       y       z     vdW  Elec       q    Type
                         _______ _______ _______ _____ _____    ______ ____

>  <TORSDO>
F 11

$$$$
